data_PCOD8320224
_publ_section_title
;
Structure prediction by ZEFSAII (Michael W. Deem and Ramdas Pophale) SiO2 
 PCOD8320224
Probable space group: I 4/M C M
;
_chemical_formula_sum "Si O2"
_cell_formula_units_Z 160
_cell_length_a 31.645430
_cell_length_b 31.645430
_cell_length_c 8.809883
_cell_angle_alpha 90.000000
_cell_angle_beta 90.000000
_cell_angle_gamma 90.000000
_cell_volume 8822.509676
_symmetry_space_group_name_H-M "I 4/M C M"
_symmetry_group_IT_number 140
_symmetry_cell_setting 'tetragonal'
loop_
_space_group_symop_operation_xyz
x,y,z
-y,x,z
-x,-y,z
y,-x,z
x,-y,1/2-z
-x,y,1/2-z
y,x,1/2-z
-y,-x,1/2-z
-x,-y,-z
y,-x,-z
x,y,-z
-y,x,-z
-x,y,1/2+z
x,-y,1/2+z
-y,-x,1/2+z
y,x,1/2+z
1/2+x,1/2+y,1/2+z
1/2-y,1/2+x,1/2+z
1/2-x,1/2-y,1/2+z
1/2+y,1/2-x,1/2+z
1/2+x,1/2-y,-z
1/2-x,1/2+y,-z
1/2+y,1/2+x,-z
1/2-y,1/2-x,-z
1/2-x,1/2-y,1/2-z
1/2+y,1/2-x,1/2-z
1/2+x,1/2+y,1/2-z
1/2-y,1/2+x,1/2-z
1/2-x,1/2+y,z
1/2+x,1/2-y,z
1/2-y,1/2-x,z
1/2+y,1/2+x,z
loop_
_atom_site_type_symbol
_atom_site_label
_atom_site_fract_x
_atom_site_fract_y
_atom_site_fract_z
Si Si1 0.737218 0.319289 0.666091
Si Si2 0.179966 0.320035 0.675599
Si Si3 0.330946 0.390777 0.169441
Si Si4 0.382491 0.882491 0.180951
Si Si5 0.829696 0.453959 0.180395
Si Si6 0.766248 0.045612 0.321910
O O1 0.723216 0.276785 0.750000
O O2 0.753200 0.306849 0.500000
O O3 0.776534 0.337929 0.756981
O O4 0.699082 0.351079 0.655925
O O5 0.185755 0.314246 0.500000
O O6 0.145873 0.354128 0.712749
O O7 0.374629 0.374629 0.250000
O O8 0.304624 0.425767 0.260630
O O9 0.342225 0.407483 0.000000
O O10 0.428959 0.867163 0.231788
O O11 0.376875 0.876875 0.000000
O O12 0.833015 0.500000 0.250000
O O13 0.781496 0.436889 0.213639
O O14 0.838354 0.454068 0.000000
O O15 0.772536 0.041603 0.500000
O O16 0.772069 0.000000 0.250000
#
# Coordination Sequence:
#
# PCOD8320224 Si02
#       6
#    32  16  32  16  32  32
#     4  10  20  33  47  64  90 127 168 209 252 300
#     4  12  23  33  46  66  94 127 166 211 254 299
#     4  10  20  33  50  71  98 132 171 213 258 306
#     4  12  24  37  55  79 105 134 169 211 260 313
#     4  10  21  38  59  83 110 140 174 215 263 316
#     4  10  20  34  54  78 106 139 176 217 263 313
#
# _framework density 18.135429999999999
#
# number of rings (size 3 to 8) (size 9 to 14) (size 15 to 20)
#    0.000    1.600    0.000    5.700    0.000    8.000 
#    0.000    0.000    0.000    0.300    0.000    2.100 
#    0.000    0.400    0.000    4.000    0.000    2.400 
#
# Total GULP energy -991146.524029 kJ/mol
# GULP energy per Si atom -12389.331550 kJ/mol
# Density = 1.809415 g / cm^3
# Si number density = 18.135430 Si / 1000 Ang^3
#
#
#
# Elastic Constant Matrix: (Units=GPa)
#
#
# Indices 1 2 3 4 5 6 
#
# 1 82.2997 27.1666 39.1826 0.0000 0.0000 0.0000
# 2 27.1666 82.2986 39.1814 0.0000 0.0000 0.0000
# 3 39.1826 39.1814 151.9292 0.0000 0.0000 0.0000
# 4 0.0000 0.0000 0.0000 32.5011 0.0000 0.0000
# 5 0.0000 0.0000 0.0000 0.0000 32.5012 0.0000
# 6 0.0000 0.0000 0.0000 0.0000 0.0000 26.1520
#
#
#
# Elastic Compliance Matrix: (Units=1/GPa)
#
#
# Indices 1 2 3 4 5 6 
#
# 1 0.014671 -0.003467 -0.002889 0.000000 0.000000 0.000000
# 2 -0.003467 0.014671 -0.002889 0.000000 0.000000 0.000000
# 3 -0.002889 -0.002889 0.008072 0.000000 0.000000 0.000000
# 4 0.000000 0.000000 0.000000 0.030768 0.000000 0.000000
# 5 0.000000 0.000000 0.000000 0.000000 0.030768 0.000000
# 6 0.000000 0.000000 0.000000 0.000000 0.000000 0.038238
#
#
# Mechanical properties :
#
#
# Convention : Reuss Voigt Hill
#
# Bulk Modulus (GPa) = 52.84797 58.62098 55.73448
# Shear Modulus (GPa) = 30.86649 32.29730 31.58190
#
# Velocity S-wave (km/s) = 4.13001 4.22464 4.17759
# Velocity P-wave (km/s) = 7.20740 7.49607 7.35315
#
# Compressibility (1/GPa) = 0.01892220
#
# Stress axis : x y z
#
# Youngs Moduli (GPa) = 68.16230 68.16179 123.87966
#
# Poissons Ratio (x) = 0.23633 0.35795
# Poissons Ratio (y) = 0.23633 0.35793
# Poissons Ratio (z) = 0.19695 0.19694
#
# Static dielectric constant tensor:
#      x y z
#    x 3.470710 0.000000 0.000000 
#    y 0.000000 3.470680 0.000000 
#    z 0.000000 0.000000 3.737900 
# 
# 
# High freq. dielectric constant tensor:
#      x y z
#    x 1.682540 0.000000 0.000000 
#    y 0.000000 1.682540 0.000000 
#    z 0.000000 0.000000 1.727220 
# 
# From -- ./inp_files/1794.got.cif
#   From: 2010.06.25/outbox.cif.g09.slc.cpg/sg140_1_cif.got.tgz:1794.got - 2010.06.28 10:53:23.
