data_PCOD8320078
_publ_section_title
;
Structure prediction by ZEFSAII (Michael W. Deem and Ramdas Pophale) SiO2 
 PCOD8320078
Probable space group: I 4/M C M
;
_chemical_formula_sum "Si O2"
_cell_formula_units_Z 192
_cell_length_a 17.762501
_cell_length_b 17.762501
_cell_length_c 30.240587
_cell_angle_alpha 90.000000
_cell_angle_beta 90.000000
_cell_angle_gamma 90.000000
_cell_volume 9541.100002
_symmetry_space_group_name_H-M "I 4/M C M"
_symmetry_group_IT_number 140
_symmetry_cell_setting 'tetragonal'
loop_
_space_group_symop_operation_xyz
x,y,z
-y,x,z
-x,-y,z
y,-x,z
x,-y,1/2-z
-x,y,1/2-z
y,x,1/2-z
-y,-x,1/2-z
-x,-y,-z
y,-x,-z
x,y,-z
-y,x,-z
-x,y,1/2+z
x,-y,1/2+z
-y,-x,1/2+z
y,x,1/2+z
1/2+x,1/2+y,1/2+z
1/2-y,1/2+x,1/2+z
1/2-x,1/2-y,1/2+z
1/2+y,1/2-x,1/2+z
1/2+x,1/2-y,-z
1/2-x,1/2+y,-z
1/2+y,1/2+x,-z
1/2-y,1/2-x,-z
1/2-x,1/2-y,1/2-z
1/2+y,1/2-x,1/2-z
1/2+x,1/2+y,1/2-z
1/2-y,1/2+x,1/2-z
1/2-x,1/2+y,z
1/2+x,1/2-y,z
1/2-y,1/2-x,z
1/2+y,1/2+x,z
loop_
_atom_site_type_symbol
_atom_site_label
_atom_site_fract_x
_atom_site_fract_y
_atom_site_fract_z
Si Si1 0.711112 0.668122 0.357920
Si Si2 0.909906 0.085281 0.198242
Si Si3 0.500000 0.122185 0.750000
Si Si4 0.325209 0.700851 0.951044
Si Si5 0.686716 0.060478 0.081251
Si Si6 0.667660 0.048289 0.340127
Si Si7 0.121403 0.505533 0.000000
O O1 0.744729 0.755272 0.353136
O O2 0.634415 0.650167 0.330747
O O3 0.702315 0.647802 0.410683
O O4 0.773319 0.614311 0.338879
O O5 0.896998 0.103003 0.250000
O O6 0.997187 0.105143 0.186995
O O7 0.427388 0.072613 0.740089
O O8 0.488550 0.174468 0.792172
O O9 0.268669 0.768669 0.959231
O O10 0.403047 0.733902 0.931656
O O11 0.336359 0.661496 0.000000
O O12 0.621745 0.121745 0.084430
O O13 0.690815 0.017157 0.126916
O O14 0.671179 0.999635 0.043464
O O15 0.583784 0.083784 0.349263
O O16 0.088870 0.588870 0.000000
O O17 0.057664 0.442337 0.000000
#
# Coordination Sequence:
#
# PCOD8320078 Si02
#       7
#    32  32  16  32  32  32  16
#     4  10  22  38  58  87 120 152 188 242 302 352
#     4   9  20  40  66  91 115 151 198 247 298 349
#     4   9  18  34  54  74 110 165 204 230 280 353
#     4   9  18  36  56  75 106 149 195 233 280 352
#     4  10  18  31  53  78 107 147 193 235 278 345
#     4  10  21  35  51  81 119 152 193 237 284 344
#     4   9  16  26  44  74 108 138 175 232 283 317
#
# _framework density 20.123467000000002
#
# number of rings (size 3 to 8) (size 9 to 14) (size 15 to 20)
#    0.000    2.500    0.833    1.500    2.333    3.333 
#    1.500    0.000    0.000    0.000    0.000    1.167 
#    0.000    0.000    0.000    0.000    0.000    0.000 
#
# Total GULP energy -1189314.016976 kJ/mol
# GULP energy per Si atom -12388.687677 kJ/mol
# Density = 2.007766 g / cm^3
# Si number density = 20.123467 Si / 1000 Ang^3
#
#
#
# Elastic Constant Matrix: (Units=GPa)
#
#
# Indices 1 2 3 4 5 6 
#
# 1 54.4781 21.9049 48.7922 0.0000 0.0000 0.0000
# 2 21.9049 54.4780 48.7921 0.0000 0.0000 0.0000
# 3 48.7922 48.7921 173.0653 0.0000 0.0000 0.0000
# 4 0.0000 0.0000 0.0000 2825.2569 0.0000 0.0000
# 5 0.0000 0.0000 0.0000 0.0000 2824.2457 0.0000
# 6 0.0000 0.0000 0.0000 0.0000 0.0000 -10.0615
#
#
#
# Elastic Compliance Matrix: (Units=1/GPa)
#
#
# Indices 1 2 3 4 5 6 
#
# 1 0.025581 -0.005119 -0.005769 0.000000 0.000000 0.000000
# 2 -0.005119 0.025581 -0.005769 0.000000 0.000000 0.000000
# 3 -0.005769 -0.005769 0.009031 0.000000 0.000000 0.000000
# 4 0.000000 0.000000 0.000000 0.000354 0.000000 0.000000
# 5 0.000000 0.000000 0.000000 0.000000 0.000354 0.000000
# 6 0.000000 0.000000 0.000000 0.000000 0.000000 -0.099389
#
#
# Mechanical properties :
#
#
# Convention : Reuss Voigt Hill
#
# Bulk Modulus (GPa) = 37.20289 57.88886 47.54587
# Shear Modulus (GPa) = 1320.86282 1138.72369 1229.79325
#
# Velocity S-wave (km/s) = 25.64770 23.81380 24.74774
# Velocity P-wave (km/s) = 29.92657 28.01711 28.98757
#
# Compressibility (1/GPa) = 0.02687963
#
# Stress axis : x y z
#
# Youngs Moduli (GPa) = 39.09141 39.09132 110.73005
#
# Poissons Ratio (x) = 0.20011 0.63878
# Poissons Ratio (y) = 0.20011 0.63878
# Poissons Ratio (z) = 0.22551 0.22551
#
# Static dielectric constant tensor:
#      x y z
#    x 3.574000 0.000000 0.000000 
#    y 0.000000 3.574000 0.000000 
#    z 0.000000 0.000000 5.020150 
# 
# 
# High freq. dielectric constant tensor:
#      x y z
#    x 1.762610 0.000000 0.000000 
#    y 0.000000 1.762610 0.000000 
#    z 0.000000 0.000000 1.799550 
# 
# From -- ./inp_files/11662.got.cif
#   From: 2010.06.25/outbox.cif.g09.slc.cpg/sg140_6_cif.got.tgz:11662.got - 2010.06.28 10:53:23.
