data_PCOD8320977
_publ_section_title
;
Structure prediction by ZEFSAII (Michael W. Deem and Ramdas Pophale) SiO2 
 PCOD8320977
Probable space group: I 41/A C D
;
_chemical_formula_sum "Si O2"
_cell_formula_units_Z 160
_cell_length_a 17.947736
_cell_length_b 17.947736
_cell_length_c 19.175119
_cell_angle_alpha 90.000000
_cell_angle_beta 90.000000
_cell_angle_gamma 90.000000
_cell_volume 6176.712870
_symmetry_space_group_name_H-M "I 41/A C D"
_symmetry_group_IT_number 142
_space_group.IT_coordinate_system_code '2'
_symmetry_cell_setting 'tetragonal'
loop_
_space_group_symop_operation_xyz
x,y,z
1/4-y,3/4+x,1/4+z
-x,1/2-y,z
1/4+y,1/4-x,3/4+z
x,-y,1/2-z
1/2-x,y,-z
3/4+y,1/4+x,1/4-z
1/4-y,1/4-x,1/4-z
-x,-y,-z
3/4+y,1/4-x,3/4-z
x,1/2+y,-z
3/4-y,3/4+x,1/4-z
-x,y,1/2+z
1/2+x,-y,z
1/4-y,3/4-x,3/4+z
3/4+y,3/4+x,3/4+z
1/2+x,1/2+y,1/2+z
3/4-y,1/4+x,3/4+z
1/2-x,-y,1/2+z
3/4+y,3/4-x,1/4+z
1/2+x,1/2-y,-z
-x,1/2+y,1/2-z
1/4+y,3/4+x,3/4-z
3/4-y,3/4-x,3/4-z
1/2-x,1/2-y,1/2-z
1/4+y,3/4-x,1/4-z
1/2+x,y,1/2-z
1/4-y,1/4+x,3/4-z
1/2-x,1/2+y,z
x,1/2-y,1/2+z
3/4-y,1/4-x,1/4+z
1/4+y,1/4+x,1/4+z
loop_
_atom_site_type_symbol
_atom_site_label
_atom_site_fract_x
_atom_site_fract_y
_atom_site_fract_z
Si Si1 0.000000 0.250000 0.270106
Si Si2 0.423308 0.985389 0.396279
Si Si3 0.922478 0.500000 0.750000
Si Si4 0.362498 0.335994 0.746961
Si Si5 0.250299 0.999702 0.625000
Si Si6 0.082908 0.873535 0.162430
Si Si7 0.649148 0.500000 0.750000
O O1 0.929281 0.219669 0.226357
O O2 0.988269 0.323665 0.318179
O O3 0.441634 0.043570 0.456077
O O4 0.337519 0.984800 0.368924
O O5 0.470056 0.994687 0.322946
O O6 0.435614 0.901482 0.422281
O O7 0.875222 0.576509 0.761135
O O8 0.342390 0.323761 0.665320
O O9 0.294984 0.966905 0.691329
O O10 0.094465 0.937503 0.219683
#
# Coordination Sequence:
#
# PCOD8320977 Si02
#       7
#    16  32  16  32  16  32  16
#     4  12  27  52  65  90 147 210 247 290 357 430
#     4  10  20  35  70 108 134 178 225 301 361 428
#     4  10  19  37  64 104 138 170 224 294 364 420
#     4  11  22  40  73 100 139 184 248 289 360 434
#     4  10  18  34  64 104 148 156 210 294 370 422
#     4  10  24  40  70 101 138 189 231 298 361 432
#     4  10  23  35  72 108 136 178 224 304 366 428
#
# _framework density 25.903746000000002
#
# number of rings (size 3 to 8) (size 9 to 14) (size 15 to 20)
#    0.000    1.600    2.000    2.400   14.000    1.600 
#    0.000    2.000    8.800    0.000    0.000    0.000 
#    0.000    0.000    0.000    0.000    0.000    0.000 
#
# Total GULP energy -991187.836645 kJ/mol
# GULP energy per Si atom -12389.847958 kJ/mol
# Density = 2.584479 g / cm^3
# Si number density = 25.903746 Si / 1000 Ang^3
#
#
#
# Elastic Constant Matrix: (Units=GPa)
#
#
# Indices 1 2 3 4 5 6 
#
# 1 89.2329 24.9255 46.9826 0.0000 0.0000 0.0000
# 2 24.9255 89.2337 46.9825 0.0000 0.0000 0.0000
# 3 46.9826 46.9825 165.3907 0.0000 0.0000 0.0000
# 4 0.0000 0.0000 0.0000 26.9308 0.0000 0.0000
# 5 0.0000 0.0000 0.0000 0.0000 26.9306 0.0000
# 6 0.0000 0.0000 0.0000 0.0000 0.0000 28.7951
#
#
#
# Elastic Compliance Matrix: (Units=1/GPa)
#
#
# Indices 1 2 3 4 5 6 
#
# 1 0.013492 -0.002059 -0.003248 0.000000 0.000000 0.000000
# 2 -0.002059 0.013492 -0.003248 0.000000 0.000000 0.000000
# 3 -0.003248 -0.003248 0.007891 0.000000 0.000000 0.000000
# 4 0.000000 0.000000 0.000000 0.037132 0.000000 0.000000
# 5 0.000000 0.000000 0.000000 0.000000 0.037132 0.000000
# 6 0.000000 0.000000 0.000000 0.000000 0.000000 0.034728
#
#
# Mechanical properties :
#
#
# Convention : Reuss Voigt Hill
#
# Bulk Modulus (GPa) = 56.28608 64.62649 60.45628
# Shear Modulus (GPa) = 29.95843 31.52908 30.74375
#
# Velocity S-wave (km/s) = 3.40447 3.49257 3.44880
# Velocity P-wave (km/s) = 6.10164 6.42393 6.26486
#
# Compressibility (1/GPa) = 0.01776638
#
# Stress axis : x y z
#
# Youngs Moduli (GPa) = 74.11970 74.12060 126.71899
#
# Poissons Ratio (x) = 0.15259 0.41156
# Poissons Ratio (y) = 0.15258 0.41155
# Poissons Ratio (z) = 0.24073 0.24072
#
# Static dielectric constant tensor:
#      x y z
#    x 4.861640 0.000000 0.000000 
#    y 0.000000 4.861590 0.000000 
#    z 0.000000 0.000000 4.835700 
# 
# 
# High freq. dielectric constant tensor:
#      x y z
#    x 2.043370 0.000000 0.000000 
#    y 0.000000 2.043370 0.000000 
#    z 0.000000 0.000000 2.030490 
# 
# From -- ./inp_files/7490.got.cif
#   From: 2010.03.12/outbox.cif.g09.slc.cpg/sg142_4_cif.got.tgz:7490.got - 2010.04.03 13:27:16.
