data_PCOD8320504
_publ_section_title
;
Structure prediction by ZEFSAII (Michael W. Deem and Ramdas Pophale) SiO2 
 PCOD8320504
Probable space group: I 4/M C M
;
_chemical_formula_sum "Si O2"
_cell_formula_units_Z 80
_cell_length_a 15.319204
_cell_length_b 15.319204
_cell_length_c 16.749917
_cell_angle_alpha 90.000000
_cell_angle_beta 90.000000
_cell_angle_gamma 90.000000
_cell_volume 3930.837209
_symmetry_space_group_name_H-M "I 4/M C M"
_symmetry_group_IT_number 140
_symmetry_cell_setting 'tetragonal'
loop_
_space_group_symop_operation_xyz
x,y,z
-y,x,z
-x,-y,z
y,-x,z
x,-y,1/2-z
-x,y,1/2-z
y,x,1/2-z
-y,-x,1/2-z
-x,-y,-z
y,-x,-z
x,y,-z
-y,x,-z
-x,y,1/2+z
x,-y,1/2+z
-y,-x,1/2+z
y,x,1/2+z
1/2+x,1/2+y,1/2+z
1/2-y,1/2+x,1/2+z
1/2-x,1/2-y,1/2+z
1/2+y,1/2-x,1/2+z
1/2+x,1/2-y,-z
1/2-x,1/2+y,-z
1/2+y,1/2+x,-z
1/2-y,1/2-x,-z
1/2-x,1/2-y,1/2-z
1/2+y,1/2-x,1/2-z
1/2+x,1/2+y,1/2-z
1/2-y,1/2+x,1/2-z
1/2-x,1/2+y,z
1/2+x,1/2-y,z
1/2-y,1/2-x,z
1/2+y,1/2+x,z
loop_
_atom_site_type_symbol
_atom_site_label
_atom_site_fract_x
_atom_site_fract_y
_atom_site_fract_z
Si Si1 0.189733 0.168302 0.843482
Si Si2 0.931552 0.431552 0.405084
Si Si3 0.983334 0.242314 0.406473
O O1 0.179054 0.179054 0.750000
O O2 0.262569 0.237431 0.875806
O O3 0.097754 0.179217 0.888517
O O4 0.217267 0.069601 0.859208
O O5 0.932734 0.432734 0.500000
O O6 0.956207 0.336694 0.373230
O O7 0.000000 0.500000 0.369063
O O8 0.004490 0.241918 0.500000
#
# Coordination Sequence:
#
# PCOD8320504 Si02
#       3
#    32  16  32
#     4  11  24  42  64  91 134 174 213 260 326 391
#     4   9  18  34  59  92 124 155 205 270 324 368
#     4  11  22  39  65  94 126 167 219 270 320 378
#
# _framework density 20.351899
#
# number of rings (size 3 to 8) (size 9 to 14) (size 15 to 20)
#    0.000    1.400    2.000    3.600    0.000    4.800 
#    0.000    4.000    0.000    0.000    0.000    0.000 
#    0.000    0.000    0.000    0.000    0.000    0.000 
#
# Total GULP energy -496147.849684 kJ/mol
# GULP energy per Si atom -12403.696242 kJ/mol
# Density = 2.030558 g / cm^3
# Si number density = 20.351899 Si / 1000 Ang^3
#
#
#
# Elastic Constant Matrix: (Units=GPa)
#
#
# Indices 1 2 3 4 5 6 
#
# 1 166.8966 85.9068 31.7919 0.0000 0.0000 0.0000
# 2 85.9068 166.8967 31.7919 0.0000 0.0000 0.0000
# 3 31.7919 31.7919 50.2261 0.0000 0.0000 0.0000
# 4 0.0000 0.0000 0.0000 23.6480 0.0000 0.0000
# 5 0.0000 0.0000 0.0000 0.0000 23.6479 0.0000
# 6 0.0000 0.0000 0.0000 0.0000 0.0000 45.8152
#
#
#
# Elastic Compliance Matrix: (Units=1/GPa)
#
#
# Indices 1 2 3 4 5 6 
#
# 1 0.008526 -0.003821 -0.002978 0.000000 0.000000 0.000000
# 2 -0.003821 0.008526 -0.002978 0.000000 0.000000 0.000000
# 3 -0.002978 -0.002978 0.023680 0.000000 0.000000 0.000000
# 4 0.000000 0.000000 0.000000 0.042287 0.000000 0.000000
# 5 0.000000 0.000000 0.000000 0.000000 0.042287 0.000000
# 6 0.000000 0.000000 0.000000 0.000000 0.000000 0.021827
#
#
# Mechanical properties :
#
#
# Convention : Reuss Voigt Hill
#
# Bulk Modulus (GPa) = 47.22002 75.88896 61.55449
# Shear Modulus (GPa) = 28.77766 34.25748 31.51757
#
# Velocity S-wave (km/s) = 3.76440 4.10720 3.93953
# Velocity P-wave (km/s) = 6.49203 7.73702 7.14171
#
# Compressibility (1/GPa) = 0.02117746
#
# Stress axis : x y z
#
# Youngs Moduli (GPa) = 117.28930 117.28930 42.22996
#
# Poissons Ratio (x) = 0.44820 0.12576
# Poissons Ratio (y) = 0.44820 0.12576
# Poissons Ratio (z) = 0.34928 0.34928
#
# Static dielectric constant tensor:
#      x y z
#    x 3.893900 0.000000 0.000000 
#    y 0.000000 3.893900 0.000000 
#    z 0.000000 0.000000 3.444460 
# 
# 
# High freq. dielectric constant tensor:
#      x y z
#    x 1.807650 0.000000 0.000000 
#    y 0.000000 1.807650 0.000000 
#    z 0.000000 0.000000 1.783660 
# 
# From -- ./inp_files/7476.got.cif
#   From: 2010.06.25/outbox.cif.g09.slc.cpg/sg140_4_cif.got.tgz:7476.got - 2010.06.28 10:53:23.
