data_PCOD8320522
_publ_section_title
;
Structure prediction by ZEFSAII (Michael W. Deem and Ramdas Pophale) SiO2 
 PCOD8320522
Probable space group: I 4/M C M
;
_chemical_formula_sum "Si O2"
_cell_formula_units_Z 160
_cell_length_a 17.594224
_cell_length_b 17.594224
_cell_length_c 27.549162
_cell_angle_alpha 90.000000
_cell_angle_beta 90.000000
_cell_angle_gamma 90.000000
_cell_volume 8528.028177
_symmetry_space_group_name_H-M "I 4/M C M"
_symmetry_group_IT_number 140
_symmetry_cell_setting 'tetragonal'
loop_
_space_group_symop_operation_xyz
x,y,z
-y,x,z
-x,-y,z
y,-x,z
x,-y,1/2-z
-x,y,1/2-z
y,x,1/2-z
-y,-x,1/2-z
-x,-y,-z
y,-x,-z
x,y,-z
-y,x,-z
-x,y,1/2+z
x,-y,1/2+z
-y,-x,1/2+z
y,x,1/2+z
1/2+x,1/2+y,1/2+z
1/2-y,1/2+x,1/2+z
1/2-x,1/2-y,1/2+z
1/2+y,1/2-x,1/2+z
1/2+x,1/2-y,-z
1/2-x,1/2+y,-z
1/2+y,1/2+x,-z
1/2-y,1/2-x,-z
1/2-x,1/2-y,1/2-z
1/2+y,1/2-x,1/2-z
1/2+x,1/2+y,1/2-z
1/2-y,1/2+x,1/2-z
1/2-x,1/2+y,z
1/2+x,1/2-y,z
1/2-y,1/2-x,z
1/2+y,1/2+x,z
loop_
_atom_site_type_symbol
_atom_site_label
_atom_site_fract_x
_atom_site_fract_y
_atom_site_fract_z
Si Si1 0.669609 0.047320 0.796172
Si Si2 0.994663 0.377267 0.894505
Si Si3 0.275154 0.098000 0.553125
Si Si4 0.409433 0.418633 0.307006
Si Si5 0.219304 0.159037 0.649412
O O1 0.594117 0.094117 0.781284
O O2 0.652204 0.988070 0.839317
O O3 0.733677 0.104941 0.814683
O O4 0.699762 0.000000 0.750000
O O5 0.061654 0.438347 0.895824
O O6 0.015594 0.308726 0.931087
O O7 0.914686 0.414686 0.910475
O O8 0.235481 0.090671 0.500000
O O9 0.344794 0.155207 0.549890
O O10 0.217825 0.128539 0.594019
O O11 0.494667 0.393986 0.323061
O O12 0.405707 0.405707 0.250000
O O13 0.344199 0.367713 0.332714
O O14 0.256047 0.243954 0.651549
#
# Coordination Sequence:
#
# PCOD8320522 Si02
#       5
#    32  32  32  32  32
#     4   9  16  23  35  57  89 131 168 202 248 301
#     4   8  13  20  30  49  80 120 170 218 251 290
#     4   8  14  25  41  63  92 127 167 208 254 303
#     4   9  19  35  56  78 101 136 171 201 247 301
#     4   9  18  31  49  75 102 127 162 211 256 300
#
# _framework density 18.761662999999999
#
# number of rings (size 3 to 8) (size 9 to 14) (size 15 to 20)
#    0.000    3.400    0.000    3.600    2.800    1.800 
#    0.000    2.000    0.000    2.400    0.000    1.400 
#    0.000    0.000    0.000    0.000    0.000    0.000 
#
# Total GULP energy -991197.530614 kJ/mol
# GULP energy per Si atom -12389.969133 kJ/mol
# Density = 1.871896 g / cm^3
# Si number density = 18.761663 Si / 1000 Ang^3
#
#
#
# Elastic Constant Matrix: (Units=GPa)
#
#
# Indices 1 2 3 4 5 6 
#
# 1 57.4719 21.8530 21.5395 0.0000 0.0000 0.0000
# 2 21.8530 57.4719 21.5395 0.0000 0.0000 0.0000
# 3 21.5395 21.5395 99.2648 0.0000 0.0000 0.0000
# 4 0.0000 0.0000 0.0000 13.1419 0.0000 0.0000
# 5 0.0000 0.0000 0.0000 0.0000 13.1419 0.0000
# 6 0.0000 0.0000 0.0000 0.0000 0.0000 15.3068
#
#
#
# Elastic Compliance Matrix: (Units=1/GPa)
#
#
# Indices 1 2 3 4 5 6 
#
# 1 0.021183 -0.006892 -0.003101 0.000000 0.000000 0.000000
# 2 -0.006892 0.021183 -0.003101 0.000000 0.000000 0.000000
# 3 -0.003101 -0.003101 0.011420 0.000000 0.000000 0.000000
# 4 0.000000 0.000000 0.000000 0.076093 0.000000 0.000000
# 5 0.000000 0.000000 0.000000 0.000000 0.076093 0.000000
# 6 0.000000 0.000000 0.000000 0.000000 0.000000 0.065330
#
#
# Mechanical properties :
#
#
# Convention : Reuss Voigt Hill
#
# Bulk Modulus (GPa) = 36.23578 38.23031 37.23304
# Shear Modulus (GPa) = 16.30324 18.26990 17.28657
#
# Velocity S-wave (km/s) = 2.95102 3.12394 3.03871
# Velocity P-wave (km/s) = 5.56480 5.78214 5.67451
#
# Compressibility (1/GPa) = 0.02759703
#
# Stress axis : x y z
#
# Youngs Moduli (GPa) = 47.20845 47.20845 87.56735
#
# Poissons Ratio (x) = 0.32537 0.27154
# Poissons Ratio (y) = 0.32537 0.27154
# Poissons Ratio (z) = 0.14639 0.14639
#
# Static dielectric constant tensor:
#      x y z
#    x 3.199850 0.000000 0.000000 
#    y 0.000000 3.199850 0.000000 
#    z 0.000000 0.000000 3.874210 
# 
# 
# High freq. dielectric constant tensor:
#      x y z
#    x 1.694620 0.000000 0.000000 
#    y 0.000000 1.694620 0.000000 
#    z 0.000000 0.000000 1.719270 
# 
# From -- ./inp_files/10496.got.cif
#   From: 2010.06.25/outbox.cif.g09.slc.cpg/sg140_6_cif.got.tgz:10496.got - 2010.06.28 10:53:23.
