data_PCOD8320852
_publ_section_title
;
Structure prediction by ZEFSAII (Michael W. Deem and Ramdas Pophale) SiO2 
 PCOD8320852
Probable space group: I 41/A M D
;
_chemical_formula_sum "Si O2"
_cell_formula_units_Z 176
_cell_length_a 17.723165
_cell_length_b 17.723165
_cell_length_c 27.913932
_cell_angle_alpha 90.000000
_cell_angle_beta 90.000000
_cell_angle_gamma 90.000000
_cell_volume 8768.061304
_symmetry_space_group_name_H-M "I 41/A M D"
_symmetry_group_IT_number 141
_space_group.IT_coordinate_system_code '2'
_symmetry_cell_setting 'tetragonal'
loop_
_space_group_symop_operation_xyz
x,y,z
1/4-y,3/4+x,1/4+z
-x,1/2-y,z
1/4+y,1/4-x,3/4+z
x,-y,-z
-x,1/2+y,-z
1/4+y,3/4+x,1/4-z
1/4-y,1/4-x,3/4-z
-x,-y,-z
3/4+y,1/4-x,3/4-z
x,1/2+y,-z
3/4-y,3/4+x,1/4-z
-x,y,z
x,1/2-y,z
3/4-y,1/4-x,3/4+z
3/4+y,3/4+x,1/4+z
1/2+x,1/2+y,1/2+z
3/4-y,1/4+x,3/4+z
1/2-x,-y,1/2+z
3/4+y,3/4-x,1/4+z
1/2+x,1/2-y,1/2-z
1/2-x,y,1/2-z
3/4+y,1/4+x,3/4-z
3/4-y,3/4-x,1/4-z
1/2-x,1/2-y,1/2-z
1/4+y,3/4-x,1/4-z
1/2+x,y,1/2-z
1/4-y,1/4+x,3/4-z
1/2-x,1/2+y,1/2+z
1/2+x,-y,1/2+z
1/4-y,3/4-x,1/4+z
1/4+y,1/4+x,3/4+z
loop_
_atom_site_type_symbol
_atom_site_label
_atom_site_fract_x
_atom_site_fract_y
_atom_site_fract_z
Si Si1 0.087050 0.836867 0.487034
Si Si2 0.828545 0.161532 0.334419
Si Si3 0.083138 0.161244 0.062968
Si Si4 0.410940 0.334837 0.543563
Si Si5 0.670304 0.420304 0.625000
Si Si6 0.842939 0.082662 0.601185
O O1 0.104724 0.750000 0.498596
O O2 0.108096 0.885698 0.533264
O O3 0.136899 0.862921 0.442590
O O4 0.000000 0.848576 0.472910
O O5 0.810436 0.250000 0.339150
O O6 0.888032 0.138032 0.375000
O O7 0.752911 0.113093 0.338535
O O8 0.075195 0.250000 0.064279
O O9 0.145051 0.136836 0.101000
O O10 0.000000 0.126231 0.074332
O O11 0.110796 0.137584 0.009929
O O12 0.500000 0.333070 0.549607
O O13 0.379324 0.250000 0.553843
O O14 0.378357 0.396484 0.579374
O O15 0.655841 0.506049 0.638118
#
# Coordination Sequence:
#
# PCOD8320852 Si02
#       6
#    32  32  32  32  16  32
#     4  10  22  41  67  94 118 155 210 261 303 362
#     4  11  23  42  65  91 123 163 206 255 313 369
#     4   9  19  38  65  92 117 154 206 255 302 363
#     4   9  20  41  66  90 119 160 210 258 303 359
#     4  12  26  39  56  88 129 164 204 246 300 370
#     4  12  24  40  57  90 132 168 195 251 313 375
#
# _framework density 20.072851
#
# number of rings (size 3 to 8) (size 9 to 14) (size 15 to 20)
#    0.000    1.636    0.909    4.909    0.000    9.636 
#    3.273    3.636    0.000    0.000    0.000    0.000 
#    0.000    0.000    0.000    0.000    0.000    0.000 
#
# Total GULP energy -1091437.217490 kJ/mol
# GULP energy per Si atom -12402.695653 kJ/mol
# Density = 2.002716 g / cm^3
# Si number density = 20.072851 Si / 1000 Ang^3
#
#
#
# Elastic Constant Matrix: (Units=GPa)
#
#
# Indices 1 2 3 4 5 6 
#
# 1 73.3631 58.2580 72.7611 0.0000 0.0000 0.0000
# 2 58.2580 73.3631 72.7611 0.0000 0.0000 0.0000
# 3 72.7611 72.7611 167.3011 0.0000 0.0000 0.0000
# 4 0.0000 0.0000 0.0000 20.2434 0.0000 0.0000
# 5 0.0000 0.0000 0.0000 0.0000 20.2434 0.0000
# 6 0.0000 0.0000 0.0000 0.0000 0.0000 32.3701
#
#
#
# Elastic Compliance Matrix: (Units=1/GPa)
#
#
# Indices 1 2 3 4 5 6 
#
# 1 0.040419 -0.025784 -0.006365 0.000000 0.000000 0.000000
# 2 -0.025784 0.040419 -0.006365 0.000000 0.000000 0.000000
# 3 -0.006365 -0.006365 0.011513 0.000000 0.000000 0.000000
# 4 0.000000 0.000000 0.000000 0.049399 0.000000 0.000000
# 5 0.000000 0.000000 0.000000 0.000000 0.049399 0.000000
# 6 0.000000 0.000000 0.000000 0.000000 0.000000 0.030893
#
#
# Mechanical properties :
#
#
# Convention : Reuss Voigt Hill
#
# Bulk Modulus (GPa) = 65.25897 80.17638 72.71767
# Shear Modulus (GPa) = 16.43787 21.92121 19.17954
#
# Velocity S-wave (km/s) = 2.86477 3.30825 3.09446
# Velocity P-wave (km/s) = 6.59728 7.39068 7.00522
#
# Compressibility (1/GPa) = 0.01532356
#
# Stress axis : x y z
#
# Youngs Moduli (GPa) = 24.74106 24.74106 86.85538
#
# Poissons Ratio (x) = 0.63793 0.55281
# Poissons Ratio (y) = 0.63793 0.55281
# Poissons Ratio (z) = 0.15747 0.15747
#
# Static dielectric constant tensor:
#      x y z
#    x 3.615120 0.000000 0.000000 
#    y 0.000000 3.615120 0.000000 
#    z 0.000000 0.000000 4.458000 
# 
# 
# High freq. dielectric constant tensor:
#      x y z
#    x 1.780690 0.000000 0.000000 
#    y 0.000000 1.780690 0.000000 
#    z 0.000000 0.000000 1.801370 
# 
# From -- ./inp_files/12864.got.cif
#   From: 2010.03.12/outbox.cif.g09.slc.cpg/sg141_7_cif.got.tgz:12864.got - 2010.04.03 13:18:35.
