data_PCOD8320817
_publ_section_title
;
Structure prediction by ZEFSAII (Michael W. Deem and Ramdas Pophale) SiO2 
 PCOD8320817
Probable space group: I 41/A M D
;
_chemical_formula_sum "Si O2"
_cell_formula_units_Z 160
_cell_length_a 20.747522
_cell_length_b 20.747522
_cell_length_c 17.759614
_cell_angle_alpha 90.000000
_cell_angle_beta 90.000000
_cell_angle_gamma 90.000000
_cell_volume 7644.797567
_symmetry_space_group_name_H-M "I 41/A M D"
_symmetry_group_IT_number 141
_space_group.IT_coordinate_system_code '2'
_symmetry_cell_setting 'tetragonal'
loop_
_space_group_symop_operation_xyz
x,y,z
1/4-y,3/4+x,1/4+z
-x,1/2-y,z
1/4+y,1/4-x,3/4+z
x,-y,-z
-x,1/2+y,-z
1/4+y,3/4+x,1/4-z
1/4-y,1/4-x,3/4-z
-x,-y,-z
3/4+y,1/4-x,3/4-z
x,1/2+y,-z
3/4-y,3/4+x,1/4-z
-x,y,z
x,1/2-y,z
3/4-y,1/4-x,3/4+z
3/4+y,3/4+x,1/4+z
1/2+x,1/2+y,1/2+z
3/4-y,1/4+x,3/4+z
1/2-x,-y,1/2+z
3/4+y,3/4-x,1/4+z
1/2+x,1/2-y,1/2-z
1/2-x,y,1/2-z
3/4+y,1/4+x,3/4-z
3/4-y,3/4-x,1/4-z
1/2-x,1/2-y,1/2-z
1/4+y,3/4-x,1/4-z
1/2+x,y,1/2-z
1/4-y,1/4+x,3/4-z
1/2-x,1/2+y,1/2+z
1/2+x,-y,1/2+z
1/4-y,3/4-x,1/4+z
1/4+y,1/4+x,3/4+z
loop_
_atom_site_type_symbol
_atom_site_label
_atom_site_fract_x
_atom_site_fract_y
_atom_site_fract_z
Si Si1 0.832236 0.933295 0.038587
Si Si2 0.854711 0.489301 0.337171
Si Si3 0.572530 0.601595 0.090092
Si Si4 0.928764 0.366149 0.300270
Si Si5 0.074997 0.823602 0.989147
O O1 0.809070 0.940931 0.125000
O O2 0.769002 0.912635 0.993314
O O3 0.885842 0.876781 0.036517
O O4 0.858635 0.000000 0.000000
O O5 0.792290 0.457711 0.375000
O O6 0.879538 0.543088 0.394593
O O7 0.911259 0.438713 0.322876
O O8 0.500000 0.574976 0.091523
O O9 0.581803 0.657921 0.151404
O O10 0.588029 0.628466 0.008495
O O11 0.927312 0.322689 0.375000
O O12 0.000000 0.364600 0.265192
O O13 0.091800 0.750000 0.015746
O O14 0.000000 0.837699 0.000950
#
# Coordination Sequence:
#
# PCOD8320817 Si02
#       5
#    32  32  32  32  32
#     4  11  25  41  65  93 127 166 209 266 320 370
#     4  10  24  42  64  88 126 167 212 253 312 378
#     4  10  21  40  64  91 124 166 209 257 312 376
#     4  11  24  39  61  93 125 162 207 263 320 375
#     4   9  20  41  66  93 126 167 212 255 313 384
#
# _framework density 20.929265999999998
#
# number of rings (size 3 to 8) (size 9 to 14) (size 15 to 20)
#    0.000    1.800    0.000    2.400    8.400    6.600 
#    0.000    6.000    0.000    0.000    0.000    0.000 
#    0.000    0.000    0.000    0.000    0.000    0.000 
#
# Total GULP energy -992081.338822 kJ/mol
# GULP energy per Si atom -12401.016735 kJ/mol
# Density = 2.088163 g / cm^3
# Si number density = 20.929266 Si / 1000 Ang^3
#
#
#
# Elastic Constant Matrix: (Units=GPa)
#
#
# Indices 1 2 3 4 5 6 
#
# 1 129.9202 61.6697 48.4372 0.0000 0.0000 0.0000
# 2 61.6697 129.9196 48.4378 0.0000 0.0000 0.0000
# 3 48.4372 48.4378 136.6984 0.0000 0.0000 0.0000
# 4 0.0000 0.0000 0.0000 26.7341 0.0000 0.0000
# 5 0.0000 0.0000 0.0000 0.0000 26.7346 0.0000
# 6 0.0000 0.0000 0.0000 0.0000 0.0000 31.1969
#
#
#
# Elastic Compliance Matrix: (Units=1/GPa)
#
#
# Indices 1 2 3 4 5 6 
#
# 1 0.010505 -0.004147 -0.002253 0.000000 0.000000 0.000000
# 2 -0.004147 0.010505 -0.002253 0.000000 0.000000 0.000000
# 3 -0.002253 -0.002253 0.008912 0.000000 0.000000 0.000000
# 4 0.000000 0.000000 0.000000 0.037405 0.000000 0.000000
# 5 0.000000 0.000000 0.000000 0.000000 0.037405 0.000000
# 6 0.000000 0.000000 0.000000 0.000000 0.000000 0.032054
#
#
# Mechanical properties :
#
#
# Convention : Reuss Voigt Hill
#
# Bulk Modulus (GPa) = 79.25784 79.29196 79.27490
# Shear Modulus (GPa) = 31.58580 32.79935 32.19258
#
# Velocity S-wave (km/s) = 3.88902 3.96302 3.92619
# Velocity P-wave (km/s) = 7.62349 7.67520 7.64939
#
# Compressibility (1/GPa) = 0.01261705
#
# Stress axis : x y z
#
# Youngs Moduli (GPa) = 95.18982 95.18895 112.20656
#
# Poissons Ratio (x) = 0.39471 0.25281
# Poissons Ratio (y) = 0.39471 0.25282
# Poissons Ratio (z) = 0.21447 0.21448
#
# Static dielectric constant tensor:
#      x y z
#    x 3.857000 0.000000 0.000000 
#    y 0.000000 3.857000 0.000000 
#    z 0.000000 0.000000 3.720290 
# 
# 
# High freq. dielectric constant tensor:
#      x y z
#    x 1.824750 0.000000 0.000000 
#    y 0.000000 1.824750 0.000000 
#    z 0.000000 0.000000 1.820340 
# 
# From -- ./inp_files/8581.got.cif
#   From: 2010.03.12/outbox.cif.g09.slc.cpg/sg141_5_cif.got.tgz:8581.got - 2010.04.03 13:18:35.
