data_PCOD8320674
_publ_section_title
;
Structure prediction by ZEFSAII (Michael W. Deem and Ramdas Pophale) SiO2 
 PCOD8320674
Probable space group: I 41/A M D
;
_chemical_formula_sum "Si O2"
_cell_formula_units_Z 176
_cell_length_a 18.381344
_cell_length_b 18.381344
_cell_length_c 27.898528
_cell_angle_alpha 90.000000
_cell_angle_beta 90.000000
_cell_angle_gamma 90.000000
_cell_volume 9426.181872
_symmetry_space_group_name_H-M "I 41/A M D"
_symmetry_group_IT_number 141
_space_group.IT_coordinate_system_code '2'
_symmetry_cell_setting 'tetragonal'
loop_
_space_group_symop_operation_xyz
x,y,z
1/4-y,3/4+x,1/4+z
-x,1/2-y,z
1/4+y,1/4-x,3/4+z
x,-y,-z
-x,1/2+y,-z
1/4+y,3/4+x,1/4-z
1/4-y,1/4-x,3/4-z
-x,-y,-z
3/4+y,1/4-x,3/4-z
x,1/2+y,-z
3/4-y,3/4+x,1/4-z
-x,y,z
x,1/2-y,z
3/4-y,1/4-x,3/4+z
3/4+y,3/4+x,1/4+z
1/2+x,1/2+y,1/2+z
3/4-y,1/4+x,3/4+z
1/2-x,-y,1/2+z
3/4+y,3/4-x,1/4+z
1/2+x,1/2-y,1/2-z
1/2-x,y,1/2-z
3/4+y,1/4+x,3/4-z
3/4-y,3/4-x,1/4-z
1/2-x,1/2-y,1/2-z
1/4+y,3/4-x,1/4-z
1/2+x,y,1/2-z
1/4-y,1/4+x,3/4-z
1/2-x,1/2+y,1/2+z
1/2+x,-y,1/2+z
1/4-y,3/4-x,1/4+z
1/4+y,1/4+x,3/4+z
loop_
_atom_site_type_symbol
_atom_site_label
_atom_site_fract_x
_atom_site_fract_y
_atom_site_fract_z
Si Si1 0.580338 0.444449 0.541979
Si Si2 0.656282 0.336475 0.027409
Si Si3 0.412893 0.831211 0.682010
Si Si4 0.581578 0.450089 0.729148
Si Si5 0.414832 0.164832 0.125000
Si Si6 0.918056 0.468230 0.129528
O O1 0.569791 0.500000 0.500000
O O2 0.500000 0.413962 0.556995
O O3 0.628392 0.379597 0.521183
O O4 0.620209 0.485989 0.586778
O O5 0.652001 0.250000 0.027035
O O6 0.628444 0.365812 0.078685
O O7 0.604108 0.365937 0.984787
O O8 0.739709 0.361136 0.017282
O O9 0.500000 0.834816 0.682190
O O10 0.384724 0.750000 0.669756
O O11 0.383113 0.888627 0.641832
O O12 0.500000 0.426492 0.743105
O O13 0.582778 0.484817 0.677069
O O14 0.500000 0.150204 0.116643
O O15 0.000000 0.454875 0.111225
#
# Coordination Sequence:
#
# PCOD8320674 Si02
#       6
#    32  32  32  32  16  32
#     4  10  20  33  49  69  95 121 151 200 257 307
#     4   8  14  23  38  64  98 134 169 204 238 275
#     4   8  12  20  37  63  96 131 166 196 224 269
#     4   9  17  31  51  70  93 126 162 200 243 296
#     4   9  14  20  36  66 106 144 172 202 242 281
#     4   8  15  28  46  69  95 124 154 190 237 283
#
# _framework density 18.671399999999998
#
# number of rings (size 3 to 8) (size 9 to 14) (size 15 to 20)
#    0.000    3.364    0.000    3.273    0.000    2.545 
#    0.000    0.909    4.000    6.545    0.000    0.000 
#    0.000    4.364    0.000    0.000    0.000    0.000 
#
# Total GULP energy -1090181.350324 kJ/mol
# GULP energy per Si atom -12388.424435 kJ/mol
# Density = 1.862890 g / cm^3
# Si number density = 18.671400 Si / 1000 Ang^3
#
#
#
# Elastic Constant Matrix: (Units=GPa)
#
#
# Indices 1 2 3 4 5 6 
#
# 1 79.8747 48.2240 34.0993 0.0000 0.0000 0.0000
# 2 48.2240 79.8747 34.0993 0.0000 0.0000 0.0000
# 3 34.0993 34.0993 96.3862 0.0000 0.0000 0.0000
# 4 0.0000 0.0000 0.0000 30.9351 0.0000 0.0000
# 5 0.0000 0.0000 0.0000 0.0000 30.9351 0.0000
# 6 0.0000 0.0000 0.0000 0.0000 0.0000 4.2316
#
#
#
# Elastic Compliance Matrix: (Units=1/GPa)
#
#
# Indices 1 2 3 4 5 6 
#
# 1 0.020606 -0.010988 -0.003403 0.000000 0.000000 0.000000
# 2 -0.010988 0.020606 -0.003403 0.000000 0.000000 0.000000
# 3 -0.003403 -0.003403 0.012782 0.000000 0.000000 0.000000
# 4 0.000000 0.000000 0.000000 0.032326 0.000000 0.000000
# 5 0.000000 0.000000 0.000000 0.000000 0.032326 0.000000
# 6 0.000000 0.000000 0.000000 0.000000 0.000000 0.236316
#
#
# Mechanical properties :
#
#
# Convention : Reuss Voigt Hill
#
# Bulk Modulus (GPa) = 54.32433 54.33120 54.32776
# Shear Modulus (GPa) = 12.60443 22.53457 17.56950
#
# Velocity S-wave (km/s) = 2.60102 3.47782 3.07088
# Velocity P-wave (km/s) = 6.17888 6.72969 6.46016
#
# Compressibility (1/GPa) = 0.01840796
#
# Stress axis : x y z
#
# Youngs Moduli (GPa) = 48.52844 48.52844 78.23200
#
# Poissons Ratio (x) = 0.53325 0.26620
# Poissons Ratio (y) = 0.53325 0.26620
# Poissons Ratio (z) = 0.16512 0.16512
#
# Static dielectric constant tensor:
#      x y z
#    x 3.343360 0.000000 0.000000 
#    y 0.000000 3.343360 0.000000 
#    z 0.000000 0.000000 3.615770 
# 
# 
# High freq. dielectric constant tensor:
#      x y z
#    x 1.691730 0.000000 0.000000 
#    y 0.000000 1.691730 0.000000 
#    z 0.000000 0.000000 1.727610 
# 
# From -- ./inp_files/12920.got.cif
#   From: 2010.03.12/outbox.cif.g09.slc.cpg/sg141_7_cif.got.tgz:12920.got - 2010.04.03 13:18:35.
