data_PCOD8320814
_publ_section_title
;
Structure prediction by ZEFSAII (Michael W. Deem and Ramdas Pophale) SiO2 
 PCOD8320814
Probable space group: I 41/A M D
;
_chemical_formula_sum "Si O2"
_cell_formula_units_Z 176
_cell_length_a 18.397610
_cell_length_b 18.397610
_cell_length_c 25.071022
_cell_angle_alpha 90.000000
_cell_angle_beta 90.000000
_cell_angle_gamma 90.000000
_cell_volume 8485.840305
_symmetry_space_group_name_H-M "I 41/A M D"
_symmetry_group_IT_number 141
_space_group.IT_coordinate_system_code '2'
_symmetry_cell_setting 'tetragonal'
loop_
_space_group_symop_operation_xyz
x,y,z
1/4-y,3/4+x,1/4+z
-x,1/2-y,z
1/4+y,1/4-x,3/4+z
x,-y,-z
-x,1/2+y,-z
1/4+y,3/4+x,1/4-z
1/4-y,1/4-x,3/4-z
-x,-y,-z
3/4+y,1/4-x,3/4-z
x,1/2+y,-z
3/4-y,3/4+x,1/4-z
-x,y,z
x,1/2-y,z
3/4-y,1/4-x,3/4+z
3/4+y,3/4+x,1/4+z
1/2+x,1/2+y,1/2+z
3/4-y,1/4+x,3/4+z
1/2-x,-y,1/2+z
3/4+y,3/4-x,1/4+z
1/2+x,1/2-y,1/2-z
1/2-x,y,1/2-z
3/4+y,1/4+x,3/4-z
3/4-y,3/4-x,1/4-z
1/2-x,1/2-y,1/2-z
1/4+y,3/4-x,1/4-z
1/2+x,y,1/2-z
1/4-y,1/4+x,3/4-z
1/2-x,1/2+y,1/2+z
1/2+x,-y,1/2+z
1/4-y,3/4-x,1/4+z
1/4+y,1/4+x,3/4+z
loop_
_atom_site_type_symbol
_atom_site_label
_atom_site_fract_x
_atom_site_fract_y
_atom_site_fract_z
Si Si1 0.415809 0.419761 0.922828
Si Si2 0.164806 0.958755 0.749748
Si Si3 0.309070 0.833054 0.891965
Si Si4 0.632602 0.918133 0.476471
Si Si5 0.416094 0.666094 0.375000
Si Si6 0.582208 0.169192 0.426423
O O1 0.500000 0.400865 0.936652
O O2 0.365003 0.389709 0.970405
O O3 0.407683 0.505626 0.909215
O O4 0.385091 0.379766 0.870624
O O5 0.250000 0.952146 0.750000
O O6 0.130385 0.968263 0.691580
O O7 0.144643 0.033123 0.780263
O O8 0.388293 0.861707 0.875000
O O9 0.314940 0.750000 0.910089
O O10 0.596087 0.896149 0.420266
O O11 0.588995 0.872052 0.518951
O O12 0.624986 0.000000 0.500000
O O13 0.406390 0.750000 0.395646
O O14 0.500000 0.168989 0.406531
O O15 0.611946 0.250000 0.436294
#
# Coordination Sequence:
#
# PCOD8320814 Si02
#       6
#    32  32  32  32  16  32
#     4  10  22  40  64  92 125 168 214 255 315 384
#     4  11  23  39  66  94 126 165 212 265 317 374
#     4  11  23  41  65  94 128 167 213 261 323 389
#     4  11  25  40  63  97 130 163 212 269 317 377
#     4  11  26  46  66  92 132 176 216 264 327 392
#     4  10  21  40  63  87 123 168 209 252 310 379
#
# _framework density 20.740434
#
# number of rings (size 3 to 8) (size 9 to 14) (size 15 to 20)
#    0.000    1.364    3.636    1.091    2.545    5.636 
#    0.000    0.000    0.000    0.000    0.000    0.000 
#    0.000    0.000    0.000    0.000    0.000    0.000 
#
# Total GULP energy -1090486.754817 kJ/mol
# GULP energy per Si atom -12391.894941 kJ/mol
# Density = 2.069323 g / cm^3
# Si number density = 20.740434 Si / 1000 Ang^3
#
#
#
# Elastic Constant Matrix: (Units=GPa)
#
#
# Indices 1 2 3 4 5 6 
#
# 1 90.9887 20.1263 19.8150 0.0000 0.0000 0.0000
# 2 20.1263 90.9887 19.8150 0.0000 0.0000 0.0000
# 3 19.8150 19.8150 51.2061 0.0000 0.0000 0.0000
# 4 0.0000 0.0000 0.0000 35.2739 0.0000 0.0000
# 5 0.0000 0.0000 0.0000 0.0000 35.2739 0.0000
# 6 0.0000 0.0000 0.0000 0.0000 0.0000 22.0247
#
#
#
# Elastic Compliance Matrix: (Units=1/GPa)
#
#
# Indices 1 2 3 4 5 6 
#
# 1 0.012276 -0.001836 -0.004040 0.000000 0.000000 0.000000
# 2 -0.001836 0.012276 -0.004040 0.000000 0.000000 0.000000
# 3 -0.004040 -0.004040 0.022656 0.000000 0.000000 0.000000
# 4 0.000000 0.000000 0.000000 0.028350 0.000000 0.000000
# 5 0.000000 0.000000 0.000000 0.000000 0.028350 0.000000
# 6 0.000000 0.000000 0.000000 0.000000 0.000000 0.045404
#
#
# Mechanical properties :
#
#
# Convention : Reuss Voigt Hill
#
# Bulk Modulus (GPa) = 36.52788 39.18844 37.85816
# Shear Modulus (GPa) = 28.04761 30.07632 29.06197
#
# Velocity S-wave (km/s) = 3.68137 3.81219 3.74735
# Velocity P-wave (km/s) = 5.97664 6.18973 6.08412
#
# Compressibility (1/GPa) = 0.02737635
#
# Stress axis : x y z
#
# Youngs Moduli (GPa) = 81.45811 81.45811 44.13893
#
# Poissons Ratio (x) = 0.14952 0.17833
# Poissons Ratio (y) = 0.14952 0.17833
# Poissons Ratio (z) = 0.32910 0.32910
#
# Static dielectric constant tensor:
#      x y z
#    x 3.934680 0.000000 0.000000 
#    y 0.000000 3.934680 0.000000 
#    z 0.000000 0.000000 3.727580 
# 
# 
# High freq. dielectric constant tensor:
#      x y z
#    x 1.814710 0.000000 0.000000 
#    y 0.000000 1.814710 0.000000 
#    z 0.000000 0.000000 1.803380 
# 
# From -- ./inp_files/12906.got.cif
#   From: 2010.03.12/outbox.cif.g09.slc.cpg/sg141_7_cif.got.tgz:12906.got - 2010.04.03 13:18:35.
