data_PCOD8320524
_publ_section_title
;
Structure prediction by ZEFSAII (Michael W. Deem and Ramdas Pophale) SiO2 
 PCOD8320524
Probable space group: I 4/M C M
;
_chemical_formula_sum "Si O2"
_cell_formula_units_Z 128
_cell_length_a 33.868367
_cell_length_b 33.868367
_cell_length_c 10.377795
_cell_angle_alpha 90.000000
_cell_angle_beta 90.000000
_cell_angle_gamma 90.000000
_cell_volume 11904.018739
_symmetry_space_group_name_H-M "I 4/M C M"
_symmetry_group_IT_number 140
_symmetry_cell_setting 'tetragonal'
loop_
_space_group_symop_operation_xyz
x,y,z
-y,x,z
-x,-y,z
y,-x,z
x,-y,1/2-z
-x,y,1/2-z
y,x,1/2-z
-y,-x,1/2-z
-x,-y,-z
y,-x,-z
x,y,-z
-y,x,-z
-x,y,1/2+z
x,-y,1/2+z
-y,-x,1/2+z
y,x,1/2+z
1/2+x,1/2+y,1/2+z
1/2-y,1/2+x,1/2+z
1/2-x,1/2-y,1/2+z
1/2+y,1/2-x,1/2+z
1/2+x,1/2-y,-z
1/2-x,1/2+y,-z
1/2+y,1/2+x,-z
1/2-y,1/2-x,-z
1/2-x,1/2-y,1/2-z
1/2+y,1/2-x,1/2-z
1/2+x,1/2+y,1/2-z
1/2-y,1/2+x,1/2-z
1/2-x,1/2+y,z
1/2+x,1/2-y,z
1/2-y,1/2-x,z
1/2+y,1/2+x,z
loop_
_atom_site_type_symbol
_atom_site_label
_atom_site_fract_x
_atom_site_fract_y
_atom_site_fract_z
Si Si1 0.249746 0.316951 0.500000
Si Si2 0.653523 0.779925 0.254005
Si Si3 0.162747 0.403529 0.143021
Si Si4 0.965418 0.600552 0.851177
Si Si5 0.253727 0.312801 0.000000
O O1 0.216396 0.283605 0.500000
O O2 0.245592 0.345087 0.375912
O O3 0.292694 0.296777 0.500000
O O4 0.687849 0.812152 0.253306
O O5 0.610799 0.801696 0.263988
O O6 0.659948 0.750576 0.374053
O O7 0.129786 0.370214 0.137410
O O8 0.141784 0.443996 0.188499
O O9 0.180458 0.409040 0.000000
O O10 0.935726 0.564274 0.837089
O O11 0.000000 0.593362 0.750000
O O12 0.980536 0.602812 0.000000
O O13 0.220482 0.279519 0.000000
#
# Coordination Sequence:
#
# PCOD8320524 Si02
#       5
#    16  32  32  32  16
#     4   9  16  20  24  42  65  78  95 123 144 151
#     4   9  14  21  31  42  58  79 100 119 136 156
#     4   8  13  24  39  49  58  77 100 114 130 165
#     4   9  18  31  44  56  68  79  93 114 142 182
#     4   9  14  20  30  40  55  82 105 117 134 159
#
# _framework density 10.752670999999999
#
# number of rings (size 3 to 8) (size 9 to 14) (size 15 to 20)
#    0.000    3.250    1.250    2.250    0.000    3.750 
#    2.250    1.250    0.000    0.000    0.000    0.000 
#    0.000    0.000    0.000    0.000    0.000    0.000 
#
# Total GULP energy -792937.331415 kJ/mol
# GULP energy per Si atom -12389.645803 kJ/mol
# Density = 1.072820 g / cm^3
# Si number density = 10.752671 Si / 1000 Ang^3
#
#
#
# Elastic Constant Matrix: (Units=GPa)
#
#
# Indices 1 2 3 4 5 6 
#
# 1 29.3980 29.4487 31.7697 0.0000 0.0000 0.0000
# 2 29.4487 29.3982 31.7695 0.0000 0.0000 0.0000
# 3 31.7697 31.7695 89.4371 0.0000 0.0000 0.0000
# 4 0.0000 0.0000 0.0000 10.2704 0.0000 0.0000
# 5 0.0000 0.0000 0.0000 0.0000 10.2705 0.0000
# 6 0.0000 0.0000 0.0000 0.0000 0.0000 11.9105
#
#
#
# Elastic Compliance Matrix: (Units=1/GPa)
#
#
# Indices 1 2 3 4 5 6 
#
# 1 -9.867189 9.894657 -0.009728 0.000000 0.000000 0.000000
# 2 9.894657 -9.866993 -0.009856 0.000000 0.000000 0.000000
# 3 -0.009728 -0.009856 0.018138 0.000000 0.000000 0.000000
# 4 0.000000 0.000000 0.000000 0.097367 0.000000 0.000000
# 5 0.000000 0.000000 0.000000 0.000000 0.097367 0.000000
# 6 0.000000 0.000000 0.000000 0.000000 0.000000 0.083960
#
#
# Mechanical properties :
#
#
# Convention : Reuss Voigt Hill
#
# Bulk Modulus (GPa) = 29.32394 37.13436 33.22915
# Shear Modulus (GPa) = -0.12763 10.17331 5.02284
#
# Velocity S-wave (km/s) = -0.34490 3.07924 2.16365
# Velocity P-wave (km/s) = 5.21267 6.87403 6.10017
#
# Compressibility (1/GPa) = 0.03410183
#
# Stress axis : x y z
#
# Youngs Moduli (GPa) = -0.10135 -0.10135 55.13428
#
# Poissons Ratio (x) = 1.00280 0.53636
# Poissons Ratio (y) = 1.00278 0.54338
# Poissons Ratio (z) = -0.00099 -0.00100
#
# Static dielectric constant tensor:
#      x y z
#    x 2.158060 0.000000 0.000000 
#    y 0.000000 2.158060 0.000000 
#    z 0.000000 0.000000 2.457630 
# 
# 
# High freq. dielectric constant tensor:
#      x y z
#    x 1.366730 0.000000 0.000000 
#    y 0.000000 1.366730 0.000000 
#    z 0.000000 0.000000 1.415120 
# 
# From -- ./inp_files/3311.got.cif
#   From: 2010.06.25/outbox.cif.g09.slc.cpg/sg140_2_cif.got.tgz:3311.got - 2010.06.28 10:53:23.
