data_PCOD8320462
_publ_section_title
;
Structure prediction by ZEFSAII (Michael W. Deem and Ramdas Pophale) SiO2 
 PCOD8320462
Probable space group: I 4/M C M
;
_chemical_formula_sum "Si O2"
_cell_formula_units_Z 176
_cell_length_a 24.008050
_cell_length_b 24.008050
_cell_length_c 14.708492
_cell_angle_alpha 90.000000
_cell_angle_beta 90.000000
_cell_angle_gamma 90.000000
_cell_volume 8477.775706
_symmetry_space_group_name_H-M "I 4/M C M"
_symmetry_group_IT_number 140
_symmetry_cell_setting 'tetragonal'
loop_
_space_group_symop_operation_xyz
x,y,z
-y,x,z
-x,-y,z
y,-x,z
x,-y,1/2-z
-x,y,1/2-z
y,x,1/2-z
-y,-x,1/2-z
-x,-y,-z
y,-x,-z
x,y,-z
-y,x,-z
-x,y,1/2+z
x,-y,1/2+z
-y,-x,1/2+z
y,x,1/2+z
1/2+x,1/2+y,1/2+z
1/2-y,1/2+x,1/2+z
1/2-x,1/2-y,1/2+z
1/2+y,1/2-x,1/2+z
1/2+x,1/2-y,-z
1/2-x,1/2+y,-z
1/2+y,1/2+x,-z
1/2-y,1/2-x,-z
1/2-x,1/2-y,1/2-z
1/2+y,1/2-x,1/2-z
1/2+x,1/2+y,1/2-z
1/2-y,1/2+x,1/2-z
1/2-x,1/2+y,z
1/2+x,1/2-y,z
1/2-y,1/2-x,z
1/2+y,1/2+x,z
loop_
_atom_site_type_symbol
_atom_site_label
_atom_site_fract_x
_atom_site_fract_y
_atom_site_fract_z
Si Si1 0.982921 0.089823 0.000000
Si Si2 0.531525 0.876956 0.337102
Si Si3 0.580783 0.080783 0.599292
Si Si4 0.261184 0.933818 0.897721
Si Si5 0.226122 0.136041 0.773370
Si Si6 0.026095 0.175907 0.657843
Si Si7 0.168124 0.331877 0.610722
O O1 0.975590 0.126046 0.911398
O O2 0.044012 0.064623 0.000000
O O3 0.500000 0.850963 0.250000
O O4 0.580111 0.919890 0.306557
O O5 0.484849 0.910495 0.390705
O O6 0.555427 0.827266 0.397289
O O7 0.598395 0.098395 0.500000
O O8 0.623089 0.123089 0.650842
O O9 0.248065 0.886739 0.823618
O O10 0.229531 0.991517 0.876569
O O11 0.245371 0.913507 0.000000
O O12 0.189888 0.189888 0.750000
O O13 0.190447 0.090132 0.826012
O O14 0.273579 0.151349 0.844762
O O15 0.000000 0.152312 0.750000
O O16 0.173386 0.326615 0.500000
#
# Coordination Sequence:
#
# PCOD8320462 Si02
#       7
#    16  32  16  32  32  32  16
#     4  11  26  42  70 109 147 181 226 288 354 430
#     4  12  24  40  63  94 133 177 224 276 346 405
#     4  11  23  39  64  92 127 165 221 271 335 407
#     4  11  24  44  68 100 136 181 230 287 347 412
#     4  11  26  44  69 101 134 181 235 288 351 423
#     4  10  23  43  71  98 138 184 231 282 346 423
#     4  11  25  46  70  99 133 178 232 299 350 415
#
# _framework density 20.760162000000001
#
# number of rings (size 3 to 8) (size 9 to 14) (size 15 to 20)
#    0.000    1.000    1.818    4.909    7.636    4.000 
#    0.000    0.909    0.000    0.000    0.000    0.000 
#    0.000    0.000    0.000    0.000    0.000    0.000 
#
# Total GULP energy -1091024.410781 kJ/mol
# GULP energy per Si atom -12398.004668 kJ/mol
# Density = 2.071291 g / cm^3
# Si number density = 20.760162 Si / 1000 Ang^3
#
#
#
# Elastic Constant Matrix: (Units=GPa)
#
#
# Indices 1 2 3 4 5 6 
#
# 1 -193.8094 363.6438 54.8803 0.0000 0.0000 0.0000
# 2 363.6438 -193.8114 54.8722 0.0000 0.0000 0.0000
# 3 54.8803 54.8722 159.0996 0.0000 0.0000 0.0000
# 4 0.0000 0.0000 0.0000 30.3654 0.0000 0.0000
# 5 0.0000 0.0000 0.0000 0.0000 30.3655 0.0000
# 6 0.0000 0.0000 0.0000 0.0000 0.0000 26.1817
#
#
#
# Elastic Compliance Matrix: (Units=1/GPa)
#
#
# Indices 1 2 3 4 5 6 
#
# 1 0.002892 0.004685 -0.002613 0.000000 0.000000 0.000000
# 2 0.004685 0.002892 -0.002614 0.000000 0.000000 0.000000
# 3 -0.002613 -0.002614 0.008088 0.000000 0.000000 0.000000
# 4 0.000000 0.000000 0.000000 0.032932 0.000000 0.000000
# 5 0.000000 0.000000 0.000000 0.000000 0.032932 0.000000
# 6 0.000000 0.000000 0.000000 0.000000 0.000000 0.038195
#
#
# Mechanical properties :
#
#
# Convention : Reuss Voigt Hill
#
# Bulk Modulus (GPa) = 78.19541 79.80795 79.00168
# Shear Modulus (GPa) = 40.55935 -29.41199 5.57368
#
# Velocity S-wave (km/s) = 4.42488 -3.76806 1.64031
# Velocity P-wave (km/s) = 7.99086 4.42665 6.45946
#
# Compressibility (1/GPa) = 0.01278847
#
# Stress axis : x y z
#
# Youngs Moduli (GPa) = 345.83472 345.82892 123.63662
#
# Poissons Ratio (x) = -1.62036 0.32311
# Poissons Ratio (y) = -1.62039 0.32312
# Poissons Ratio (z) = 0.90380 0.90383
#
# Static dielectric constant tensor:
#      x y z
#    x 3.796690 0.000000 0.000000 
#    y 0.000000 3.796690 0.000000 
#    z 0.000000 0.000000 3.987210 
# 
# 
# High freq. dielectric constant tensor:
#      x y z
#    x 1.814030 0.000000 0.000000 
#    y 0.000000 1.814030 0.000000 
#    z 0.000000 0.000000 1.829490 
# 
# From -- ./inp_files/4993.got.cif
#   From: 2010.06.25/outbox.cif.g09.slc.cpg/sg140_3_cif.got.tgz:4993.got - 2010.06.28 10:53:23.
