data_PCOD8320888
_publ_section_title
;
Structure prediction by ZEFSAII (Michael W. Deem and Ramdas Pophale) SiO2 
 PCOD8320888
Probable space group: I 41/A M D
;
_chemical_formula_sum "Si O2"
_cell_formula_units_Z 192
_cell_length_a 21.031255
_cell_length_b 21.031255
_cell_length_c 23.172370
_cell_angle_alpha 90.000000
_cell_angle_beta 90.000000
_cell_angle_gamma 90.000000
_cell_volume 10249.456408
_symmetry_space_group_name_H-M "I 41/A M D"
_symmetry_group_IT_number 141
_space_group.IT_coordinate_system_code '2'
_symmetry_cell_setting 'tetragonal'
loop_
_space_group_symop_operation_xyz
x,y,z
1/4-y,3/4+x,1/4+z
-x,1/2-y,z
1/4+y,1/4-x,3/4+z
x,-y,-z
-x,1/2+y,-z
1/4+y,3/4+x,1/4-z
1/4-y,1/4-x,3/4-z
-x,-y,-z
3/4+y,1/4-x,3/4-z
x,1/2+y,-z
3/4-y,3/4+x,1/4-z
-x,y,z
x,1/2-y,z
3/4-y,1/4-x,3/4+z
3/4+y,3/4+x,1/4+z
1/2+x,1/2+y,1/2+z
3/4-y,1/4+x,3/4+z
1/2-x,-y,1/2+z
3/4+y,3/4-x,1/4+z
1/2+x,1/2-y,1/2-z
1/2-x,y,1/2-z
3/4+y,1/4+x,3/4-z
3/4-y,3/4-x,1/4-z
1/2-x,1/2-y,1/2-z
1/4+y,3/4-x,1/4-z
1/2+x,y,1/2-z
1/4-y,1/4+x,3/4-z
1/2-x,1/2+y,1/2+z
1/2+x,-y,1/2+z
1/4-y,3/4-x,1/4+z
1/4+y,1/4+x,3/4+z
loop_
_atom_site_type_symbol
_atom_site_label
_atom_site_fract_x
_atom_site_fract_y
_atom_site_fract_z
Si Si1 0.380254 0.605849 0.108071
Si Si2 0.925645 0.071705 0.046774
Si Si3 0.690077 0.106951 0.685295
Si Si4 0.000000 0.554843 0.585695
Si Si5 0.782560 0.567661 0.481126
Si Si6 0.216016 0.627710 0.598820
Si Si7 0.661125 0.750000 0.709316
O O1 0.376055 0.661182 0.156179
O O2 0.315905 0.600484 0.072335
O O3 0.389776 0.539328 0.139513
O O4 0.438026 0.623478 0.065913
O O5 0.000000 0.057110 0.042708
O O6 0.888557 0.009555 0.071039
O O7 0.900476 0.095145 0.983727
O O8 0.649851 0.100150 0.625000
O O9 0.699699 0.038061 0.712317
O O10 0.938262 0.571245 0.624652
O O11 0.000000 0.598423 0.528410
O O12 0.000000 0.483715 0.561352
O O13 0.815252 0.500000 0.500000
O O14 0.789038 0.621100 0.530259
O O15 0.187831 0.562170 0.625000
#
# Coordination Sequence:
#
# PCOD8320888 Si02
#       7
#    32  32  32  16  32  32  16
#     4  11  21  36  57  88 117 154 202 244 306 368
#     4  11  23  39  60  89 128 163 199 257 318 370
#     4  11  20  35  57  87 122 158 198 248 312 375
#     4   9  20  36  52  83 118 155 190 233 315 348
#     4  12  20  30  55  90 119 150 201 253 306 362
#     4  11  20  33  56  83 117 154 192 252 301 364
#     4   9  20  36  57  82 119 154 195 242 292 376
#
# _framework density 18.732700000000001
#
# number of rings (size 3 to 8) (size 9 to 14) (size 15 to 20)
#    0.000    1.167    6.667    2.000    2.333    0.000 
#    1.500    0.417    3.667    0.250    2.167    0.000 
#    0.000    0.000    0.000    0.000    0.000    0.000 
#
# Total GULP energy -1189671.686158 kJ/mol
# GULP energy per Si atom -12392.413397 kJ/mol
# Density = 1.869006 g / cm^3
# Si number density = 18.732700 Si / 1000 Ang^3
#
#
#
# Elastic Constant Matrix: (Units=GPa)
#
#
# Indices 1 2 3 4 5 6 
#
# 1 76.3840 23.6094 47.1657 0.0000 0.0000 0.0000
# 2 23.6094 76.3881 47.1664 0.0000 0.0000 0.0000
# 3 47.1657 47.1664 155.4895 0.0000 0.0000 0.0000
# 4 0.0000 0.0000 0.0000 24.1295 0.0000 0.0000
# 5 0.0000 0.0000 0.0000 0.0000 24.1292 0.0000
# 6 0.0000 0.0000 0.0000 0.0000 0.0000 4.7938
#
#
#
# Elastic Compliance Matrix: (Units=1/GPa)
#
#
# Indices 1 2 3 4 5 6 
#
# 1 0.016479 -0.002469 -0.004250 0.000000 0.000000 0.000000
# 2 -0.002469 0.016478 -0.004249 0.000000 0.000000 0.000000
# 3 -0.004250 -0.004249 0.009009 0.000000 0.000000 0.000000
# 4 0.000000 0.000000 0.000000 0.041443 0.000000 0.000000
# 5 0.000000 0.000000 0.000000 0.000000 0.041444 0.000000
# 6 0.000000 0.000000 0.000000 0.000000 0.000000 0.208603
#
#
# Mechanical properties :
#
#
# Convention : Reuss Voigt Hill
#
# Bulk Modulus (GPa) = 49.92558 60.46051 55.19304
# Shear Modulus (GPa) = 13.80950 23.29849 18.55399
#
# Velocity S-wave (km/s) = 2.71806 3.53049 3.15057
# Velocity P-wave (km/s) = 6.04648 6.99747 6.53928
#
# Compressibility (1/GPa) = 0.02002981
#
# Stress axis : x y z
#
# Youngs Moduli (GPa) = 60.68304 60.68670 110.99468
#
# Poissons Ratio (x) = 0.14985 0.47169
# Poissons Ratio (y) = 0.14984 0.47167
# Poissons Ratio (z) = 0.25788 0.25789
#
# Static dielectric constant tensor:
#      x y z
#    x 3.277270 0.000000 0.000000 
#    y 0.000000 3.277270 0.000000 
#    z 0.000000 0.000000 3.886750 
# 
# 
# High freq. dielectric constant tensor:
#      x y z
#    x 1.694460 0.000000 0.000000 
#    y 0.000000 1.694460 0.000000 
#    z 0.000000 0.000000 1.749270 
# 
# From -- ./inp_files/11785.got.cif
#   From: 2010.03.12/outbox.cif.g09.slc.cpg/sg141_6_cif.got.tgz:11785.got - 2010.04.03 13:18:35.
