data_PCOD8320891
_publ_section_title
;
Structure prediction by ZEFSAII (Michael W. Deem and Ramdas Pophale) SiO2 
 PCOD8320891
Probable space group: I 41/A M D
;
_chemical_formula_sum "Si O2"
_cell_formula_units_Z 128
_cell_length_a 15.941046
_cell_length_b 15.941046
_cell_length_c 26.356695
_cell_angle_alpha 90.000000
_cell_angle_beta 90.000000
_cell_angle_gamma 90.000000
_cell_volume 6697.682882
_symmetry_space_group_name_H-M "I 41/A M D"
_symmetry_group_IT_number 141
_space_group.IT_coordinate_system_code '2'
_symmetry_cell_setting 'tetragonal'
loop_
_space_group_symop_operation_xyz
x,y,z
1/4-y,3/4+x,1/4+z
-x,1/2-y,z
1/4+y,1/4-x,3/4+z
x,-y,-z
-x,1/2+y,-z
1/4+y,3/4+x,1/4-z
1/4-y,1/4-x,3/4-z
-x,-y,-z
3/4+y,1/4-x,3/4-z
x,1/2+y,-z
3/4-y,3/4+x,1/4-z
-x,y,z
x,1/2-y,z
3/4-y,1/4-x,3/4+z
3/4+y,3/4+x,1/4+z
1/2+x,1/2+y,1/2+z
3/4-y,1/4+x,3/4+z
1/2-x,-y,1/2+z
3/4+y,3/4-x,1/4+z
1/2+x,1/2-y,1/2-z
1/2-x,y,1/2-z
3/4+y,1/4+x,3/4-z
3/4-y,3/4-x,1/4-z
1/2-x,1/2-y,1/2-z
1/4+y,3/4-x,1/4-z
1/2+x,y,1/2-z
1/4-y,1/4+x,3/4-z
1/2-x,1/2+y,1/2+z
1/2+x,-y,1/2+z
1/4-y,3/4-x,1/4+z
1/4+y,1/4+x,3/4+z
loop_
_atom_site_type_symbol
_atom_site_label
_atom_site_fract_x
_atom_site_fract_y
_atom_site_fract_z
Si Si1 0.829622 0.658576 0.286064
Si Si2 0.768282 0.154146 0.886140
Si Si3 0.598659 0.157034 0.180660
Si Si4 0.239731 0.598815 0.496117
O O1 0.876973 0.750000 0.284191
O O2 0.750000 0.666764 0.250000
O O3 0.801466 0.638750 0.343414
O O4 0.886242 0.578992 0.267622
O O5 0.797949 0.250000 0.887145
O O6 0.850612 0.100612 0.875000
O O7 0.725242 0.128840 0.939009
O O8 0.500000 0.166130 0.179877
O O9 0.637365 0.250000 0.192322
O O10 0.626728 0.123273 0.125000
O O11 0.624340 0.091042 0.222815
O O12 0.248402 0.500000 0.500000
#
# Coordination Sequence:
#
# PCOD8320891 Si02
#       4
#    32  32  32  32
#     4   9  18  33  53  77 111 148 186 231 280 331
#     4  11  21  35  52  82 114 149 190 233 285 338
#     4   9  20  39  60  83 114 148 182 231 292 350
#     4  11  21  32  60  86 113 145 194 234 286 341
#
# _framework density 19.111086
#
# number of rings (size 3 to 8) (size 9 to 14) (size 15 to 20)
#    0.000    2.000    5.000    1.500    3.500    0.750 
#    0.000    0.000    0.000    2.250    0.000    3.500 
#    0.000    0.000    0.000    0.000    0.000    0.000 
#
# Total GULP energy -793044.945077 kJ/mol
# GULP energy per Si atom -12391.327267 kJ/mol
# Density = 1.906759 g / cm^3
# Si number density = 19.111086 Si / 1000 Ang^3
#
#
#
# Elastic Constant Matrix: (Units=GPa)
#
#
# Indices 1 2 3 4 5 6 
#
# 1 59.7469 16.1223 45.6748 0.0000 0.0000 0.0000
# 2 16.1223 59.7463 45.6751 0.0000 0.0000 0.0000
# 3 45.6748 45.6751 167.6390 0.0000 0.0000 0.0000
# 4 0.0000 0.0000 0.0000 -214.5233 0.0000 0.0000
# 5 0.0000 0.0000 0.0000 0.0000 -214.5137 0.0000
# 6 0.0000 0.0000 0.0000 0.0000 0.0000 22.8144
#
#
#
# Elastic Compliance Matrix: (Units=1/GPa)
#
#
# Indices 1 2 3 4 5 6 
#
# 1 0.021269 -0.001654 -0.005344 0.000000 0.000000 0.000000
# 2 -0.001654 0.021270 -0.005345 0.000000 0.000000 0.000000
# 3 -0.005344 -0.005345 0.008878 0.000000 0.000000 0.000000
# 4 0.000000 0.000000 0.000000 -0.004661 0.000000 0.000000
# 5 0.000000 0.000000 0.000000 0.000000 -0.004662 0.000000
# 6 0.000000 0.000000 0.000000 0.000000 0.000000 0.043832
#
#
# Mechanical properties :
#
#
# Convention : Reuss Voigt Hill
#
# Bulk Modulus (GPa) = 37.40990 55.78631 46.59811
# Shear Modulus (GPa) = 41.83380 -69.26720 -13.71670
#
# Velocity S-wave (km/s) = 4.68373 -6.02687 -2.68196
# Velocity P-wave (km/s) = 6.99051 4.37916 3.85294
#
# Compressibility (1/GPa) = 0.02673089
#
# Stress axis : x y z
#
# Youngs Moduli (GPa) = 47.01647 47.01566 112.64404
#
# Poissons Ratio (x) = 0.07775 0.60202
# Poissons Ratio (y) = 0.07775 0.60203
# Poissons Ratio (z) = 0.25128 0.25128
#
# Static dielectric constant tensor:
#      x y z
#    x 2.829760 0.000000 0.000000 
#    y 0.000000 2.829540 0.000000 
#    z 0.000000 0.000000 3.905690 
# 
# 
# High freq. dielectric constant tensor:
#      x y z
#    x 1.724530 0.000000 0.000000 
#    y 0.000000 1.724530 0.000000 
#    z 0.000000 0.000000 1.761330 
# 
# From -- ./inp_files/11365.got.cif
#   From: 2010.03.12/outbox.cif.g09.slc.cpg/sg141_6_cif.got.tgz:11365.got - 2010.04.03 13:18:35.
