data_PCOD8320306
_publ_section_title
;
Structure prediction by ZEFSAII (Michael W. Deem and Ramdas Pophale) SiO2 
 PCOD8320306
Probable space group: I 4/M C M
;
_chemical_formula_sum "Si O2"
_cell_formula_units_Z 176
_cell_length_a 27.159469
_cell_length_b 27.159469
_cell_length_c 11.040649
_cell_angle_alpha 90.000000
_cell_angle_beta 90.000000
_cell_angle_gamma 90.000000
_cell_volume 8143.988516
_symmetry_space_group_name_H-M "I 4/M C M"
_symmetry_group_IT_number 140
_symmetry_cell_setting 'tetragonal'
loop_
_space_group_symop_operation_xyz
x,y,z
-y,x,z
-x,-y,z
y,-x,z
x,-y,1/2-z
-x,y,1/2-z
y,x,1/2-z
-y,-x,1/2-z
-x,-y,-z
y,-x,-z
x,y,-z
-y,x,-z
-x,y,1/2+z
x,-y,1/2+z
-y,-x,1/2+z
y,x,1/2+z
1/2+x,1/2+y,1/2+z
1/2-y,1/2+x,1/2+z
1/2-x,1/2-y,1/2+z
1/2+y,1/2-x,1/2+z
1/2+x,1/2-y,-z
1/2-x,1/2+y,-z
1/2+y,1/2+x,-z
1/2-y,1/2-x,-z
1/2-x,1/2-y,1/2-z
1/2+y,1/2-x,1/2-z
1/2+x,1/2+y,1/2-z
1/2-y,1/2+x,1/2-z
1/2-x,1/2+y,z
1/2+x,1/2-y,z
1/2-y,1/2-x,z
1/2+y,1/2+x,z
loop_
_atom_site_type_symbol
_atom_site_label
_atom_site_fract_x
_atom_site_fract_y
_atom_site_fract_z
Si Si1 0.365178 0.365178 0.750000
Si Si2 0.949408 0.633977 0.500000
Si Si3 0.141405 0.442077 0.000000
Si Si4 0.533967 0.346513 0.136685
Si Si5 0.328680 0.090961 0.246285
Si Si6 0.265295 0.387982 0.368066
Si Si7 0.997648 0.742695 0.374444
O O1 0.366941 0.411401 0.840579
O O2 0.315687 0.363607 0.672082
O O3 0.911956 0.588045 0.500000
O O4 0.942375 0.667542 0.377750
O O5 0.005203 0.613373 0.500000
O O6 0.174875 0.437403 0.123905
O O7 0.100024 0.399977 0.000000
O O8 0.500000 0.365170 0.250000
O O9 0.537481 0.286583 0.134929
O O10 0.517035 0.364253 0.000000
O O11 0.376889 0.123112 0.252118
O O12 0.279192 0.122953 0.227444
O O13 0.251112 0.366003 0.500000
O O14 0.272881 0.446705 0.379023
O O15 0.004989 0.710766 0.500000
O O16 0.000000 0.710034 0.250000
#
# Coordination Sequence:
#
# PCOD8320306 Si02
#       7
#    16  16  16  32  32  32  32
#     4  12  22  38  59  95 128 156 200 270 330 380
#     4  10  20  39  68  99 133 183 230 260 320 398
#     4  10  22  41  64  99 141 173 218 282 330 376
#     4  10  20  37  58  82 120 160 187 238 315 387
#     4  10  22  43  64  87 130 182 222 264 322 386
#     4  11  22  39  61  91 123 163 215 266 320 385
#     4   9  17  33  52  78 113 149 185 237 298 369
#
# _framework density 21.611032000000002
#
# number of rings (size 3 to 8) (size 9 to 14) (size 15 to 20)
#    0.000    1.818    4.545    1.091    0.000    2.364 
#    4.909    0.455    0.000    3.545    0.000    1.273 
#    0.000    0.000    0.000    0.000    0.000    0.000 
#
# Total GULP energy -1090398.948105 kJ/mol
# GULP energy per Si atom -12390.897138 kJ/mol
# Density = 2.156184 g / cm^3
# Si number density = 21.611032 Si / 1000 Ang^3
#
#
#
# Elastic Constant Matrix: (Units=GPa)
#
#
# Indices 1 2 3 4 5 6 
#
# 1 82.0552 14.9556 69.7409 0.0000 0.0000 0.0000
# 2 14.9556 82.0566 69.7395 0.0000 0.0000 0.0000
# 3 69.7409 69.7395 244.4881 0.0000 0.0000 0.0000
# 4 0.0000 0.0000 0.0000 31.2069 0.0000 0.0000
# 5 0.0000 0.0000 0.0000 0.0000 31.2070 0.0000
# 6 0.0000 0.0000 0.0000 0.0000 0.0000 13.8658
#
#
#
# Elastic Compliance Matrix: (Units=1/GPa)
#
#
# Indices 1 2 3 4 5 6 
#
# 1 0.016189 0.001286 -0.004985 0.000000 0.000000 0.000000
# 2 0.001286 0.016189 -0.004985 0.000000 0.000000 0.000000
# 3 -0.004985 -0.004985 0.006934 0.000000 0.000000 0.000000
# 4 0.000000 0.000000 0.000000 0.032044 0.000000 0.000000
# 5 0.000000 0.000000 0.000000 0.000000 0.032044 0.000000
# 6 0.000000 0.000000 0.000000 0.000000 0.000000 0.072120
#
#
# Mechanical properties :
#
#
# Convention : Reuss Voigt Hill
#
# Bulk Modulus (GPa) = 45.56851 79.71908 62.64380
# Shear Modulus (GPa) = 24.97472 32.20019 28.58745
#
# Velocity S-wave (km/s) = 3.40317 3.86422 3.64100
# Velocity P-wave (km/s) = 6.04761 7.54174 6.83562
#
# Compressibility (1/GPa) = 0.02194498
#
# Stress axis : x y z
#
# Youngs Moduli (GPa) = 61.76924 61.77135 144.21763
#
# Poissons Ratio (x) = -0.07944 0.71890
# Poissons Ratio (y) = -0.07943 0.71887
# Poissons Ratio (z) = 0.30791 0.30791
#
# Static dielectric constant tensor:
#      x y z
#    x 3.695220 0.000000 0.000000 
#    y 0.000000 3.695220 0.000000 
#    z 0.000000 0.000000 4.930640 
# 
# 
# High freq. dielectric constant tensor:
#      x y z
#    x 1.830130 0.000000 0.000000 
#    y 0.000000 1.830130 0.000000 
#    z 0.000000 0.000000 1.897720 
# 
# From -- ./inp_files/3285.got.cif
#   From: 2010.06.25/outbox.cif.g09.slc.cpg/sg140_2_cif.got.tgz:3285.got - 2010.06.28 10:53:23.
