data_PCOD8320980
_publ_section_title
;
Structure prediction by ZEFSAII (Michael W. Deem and Ramdas Pophale) SiO2 
 PCOD8320980
Probable space group: I 41/A C D
;
_chemical_formula_sum "Si O2"
_cell_formula_units_Z 176
_cell_length_a 18.231170
_cell_length_b 18.231170
_cell_length_c 29.487914
_cell_angle_alpha 90.000000
_cell_angle_beta 90.000000
_cell_angle_gamma 90.000000
_cell_volume 9801.061916
_symmetry_space_group_name_H-M "I 41/A C D"
_symmetry_group_IT_number 142
_space_group.IT_coordinate_system_code '2'
_symmetry_cell_setting 'tetragonal'
loop_
_space_group_symop_operation_xyz
x,y,z
1/4-y,3/4+x,1/4+z
-x,1/2-y,z
1/4+y,1/4-x,3/4+z
x,-y,1/2-z
1/2-x,y,-z
3/4+y,1/4+x,1/4-z
1/4-y,1/4-x,1/4-z
-x,-y,-z
3/4+y,1/4-x,3/4-z
x,1/2+y,-z
3/4-y,3/4+x,1/4-z
-x,y,1/2+z
1/2+x,-y,z
1/4-y,3/4-x,3/4+z
3/4+y,3/4+x,3/4+z
1/2+x,1/2+y,1/2+z
3/4-y,1/4+x,3/4+z
1/2-x,-y,1/2+z
3/4+y,3/4-x,1/4+z
1/2+x,1/2-y,-z
-x,1/2+y,1/2-z
1/4+y,3/4+x,3/4-z
3/4-y,3/4-x,3/4-z
1/2-x,1/2-y,1/2-z
1/4+y,3/4-x,1/4-z
1/2+x,y,1/2-z
1/4-y,1/4+x,3/4-z
1/2-x,1/2+y,z
x,1/2-y,1/2+z
3/4-y,1/4-x,1/4+z
1/4+y,1/4+x,1/4+z
loop_
_atom_site_type_symbol
_atom_site_label
_atom_site_fract_x
_atom_site_fract_y
_atom_site_fract_z
Si Si1 0.527438 0.545360 0.141548
Si Si2 0.210699 0.455579 0.293549
Si Si3 0.956800 0.064291 0.284543
Si Si4 0.895855 0.578815 0.418830
Si Si5 0.518014 0.664189 0.712780
Si Si6 0.808748 0.941253 0.375000
O O1 0.511534 0.467699 0.167816
O O2 0.473997 0.552889 0.099293
O O3 0.525950 0.615770 0.175557
O O4 0.605959 0.542500 0.118064
O O5 0.236115 0.500000 0.250000
O O6 0.129789 0.421007 0.289010
O O7 0.263844 0.387737 0.301882
O O8 0.220128 0.515565 0.332080
O O9 0.997207 0.136642 0.264080
O O10 0.972613 0.000000 0.250000
O O11 0.846762 0.596762 0.375000
O O12 0.903341 0.646296 0.453315
O O13 0.500000 0.750000 0.707310
#
# Coordination Sequence:
#
# PCOD8320980 Si02
#       6
#    32  32  32  32  32  16
#     4   9  18  32  55  78 106 143 179 225 280 325
#     4  10  20  35  55  79 109 142 183 227 275 332
#     4   8  17  34  54  72 102 146 178 216 280 337
#     4  10  20  32  52  83 110 135 179 237 274 319
#     4  10  19  33  53  80 111 142 184 230 276 329
#     4  10  18  36  57  78 103 144 182 218 274 336
#
# _framework density 17.957236999999999
#
# number of rings (size 3 to 8) (size 9 to 14) (size 15 to 20)
#    0.000    2.545    0.909    2.182    0.000    6.182 
#    0.000    3.636    4.000    0.000    0.000    0.000 
#    0.000    0.000    0.000    0.000    0.000    0.000 
#
# Total GULP energy -1090681.481588 kJ/mol
# GULP energy per Si atom -12394.107745 kJ/mol
# Density = 1.791637 g / cm^3
# Si number density = 17.957237 Si / 1000 Ang^3
#
#
#
# Elastic Constant Matrix: (Units=GPa)
#
#
# Indices 1 2 3 4 5 6 
#
# 1 75.6969 58.9175 51.1681 0.0000 0.0000 0.0000
# 2 58.9175 75.6954 51.1681 0.0000 0.0000 0.0000
# 3 51.1681 51.1681 94.5469 0.0000 0.0000 0.0000
# 4 0.0000 0.0000 0.0000 29.7651 0.0000 0.0000
# 5 0.0000 0.0000 0.0000 0.0000 29.7657 0.0000
# 6 0.0000 0.0000 0.0000 0.0000 0.0000 25.3285
#
#
#
# Elastic Compliance Matrix: (Units=1/GPa)
#
#
# Indices 1 2 3 4 5 6 
#
# 1 0.036110 -0.023489 -0.006830 0.000000 0.000000 0.000000
# 2 -0.023489 0.036111 -0.006831 0.000000 0.000000 0.000000
# 3 -0.006830 -0.006831 0.017970 0.000000 0.000000 0.000000
# 4 0.000000 0.000000 0.000000 0.033596 0.000000 0.000000
# 5 0.000000 0.000000 0.000000 0.000000 0.033596 0.000000
# 6 0.000000 0.000000 0.000000 0.000000 0.000000 0.039481
#
#
# Mechanical properties :
#
#
# Convention : Reuss Voigt Hill
#
# Bulk Modulus (GPa) = 62.93067 63.16074 63.04571
# Shear Modulus (GPa) = 18.08565 22.61757 20.35161
#
# Velocity S-wave (km/s) = 3.17701 3.55283 3.37016
# Velocity P-wave (km/s) = 6.96984 7.21660 7.09429
#
# Compressibility (1/GPa) = 0.01589050
#
# Stress axis : x y z
#
# Youngs Moduli (GPa) = 27.69314 27.69227 55.64785
#
# Poissons Ratio (x) = 0.65047 0.38009
# Poissons Ratio (y) = 0.65049 0.38013
# Poissons Ratio (z) = 0.18915 0.18916
#
# Static dielectric constant tensor:
#      x y z
#    x 3.106880 0.000000 0.000000 
#    y 0.000000 3.106880 0.000000 
#    z 0.000000 0.000000 3.398630 
# 
# 
# High freq. dielectric constant tensor:
#      x y z
#    x 1.688370 0.000000 0.000000 
#    y 0.000000 1.688370 0.000000 
#    z 0.000000 0.000000 1.684380 
# 
# From -- ./inp_files/12538.got.cif
#   From: 2010.03.12/outbox.cif.g09.slc.cpg/sg142_7_cif.got.tgz:12538.got - 2010.04.03 13:27:16.
