data_PCOD8320009
_publ_section_title
;
Structure prediction by ZEFSAII (Michael W. Deem and Ramdas Pophale) SiO2 
 PCOD8320009
Probable space group: I 4/M M M
;
_chemical_formula_sum "Si O2"
_cell_formula_units_Z 160
_cell_length_a 34.847820
_cell_length_b 34.847820
_cell_length_c 10.039868
_cell_angle_alpha 90.000000
_cell_angle_beta 90.000000
_cell_angle_gamma 90.000000
_cell_volume 12192.120113
_symmetry_space_group_name_H-M "I 4/M M M"
_symmetry_group_IT_number 139
_symmetry_cell_setting 'tetragonal'
loop_
_space_group_symop_operation_xyz
x,y,z
-y,x,z
-x,-y,z
y,-x,z
x,-y,-z
-x,y,-z
y,x,-z
-y,-x,-z
-x,-y,-z
y,-x,-z
x,y,-z
-y,x,-z
-x,y,z
x,-y,z
-y,-x,z
y,x,z
1/2+x,1/2+y,1/2+z
1/2-y,1/2+x,1/2+z
1/2-x,1/2-y,1/2+z
1/2+y,1/2-x,1/2+z
1/2+x,1/2-y,1/2-z
1/2-x,1/2+y,1/2-z
1/2+y,1/2+x,1/2-z
1/2-y,1/2-x,1/2-z
1/2-x,1/2-y,1/2-z
1/2+y,1/2-x,1/2-z
1/2+x,1/2+y,1/2-z
1/2-y,1/2+x,1/2-z
1/2-x,1/2+y,1/2+z
1/2+x,1/2-y,1/2+z
1/2-y,1/2-x,1/2+z
1/2+y,1/2+x,1/2+z
loop_
_atom_site_type_symbol
_atom_site_label
_atom_site_fract_x
_atom_site_fract_y
_atom_site_fract_z
Si Si1 0.393713 0.544198 0.347548
Si Si2 0.045675 0.256221 0.350957
Si Si3 0.829131 0.954428 0.649098
Si Si4 0.955107 0.595322 0.153598
Si Si5 0.545638 0.818293 0.647611
O O1 0.380171 0.548764 0.500000
O O2 0.402771 0.500000 0.313187
O O3 0.432502 0.567499 0.319239
O O4 0.359918 0.561345 0.254995
O O5 0.059375 0.266623 0.500000
O O6 0.060399 0.213520 0.312396
O O7 0.063579 0.287533 0.250357
O O8 0.000000 0.257222 0.343807
O O9 0.840029 0.940398 0.500000
O O10 0.829004 0.000000 0.653600
O O11 0.933178 0.566823 0.250000
O O12 0.941947 0.638717 0.187792
O O13 0.000000 0.590082 0.180522
O O14 0.945474 0.585725 0.000000
O O15 0.561054 0.808294 0.500000
O O16 0.500000 0.816036 0.647722
#
# Coordination Sequence:
#
# PCOD8320009 Si02
#       5
#    32  32  32  32  32
#     4   9  17  27  37  49  65  87 118 154 187 216
#     4   8  13  21  34  52  70  85 103 129 163 206
#     4   8  14  24  36  50  68  87 107 135 171 210
#     4   9  18  30  40  51  68  90 119 154 187 216
#     4   8  14  24  36  50  68  87 107 135 171 209
#
# _framework density 13.12323
#
# number of rings (size 3 to 8) (size 9 to 14) (size 15 to 20)
#    0.000    3.600    0.000    2.400    0.000    2.800 
#    0.000    8.000    0.000    0.000    0.000    2.800 
#    0.000    0.000    0.000    0.000    0.000    1.000 
#
# Total GULP energy -991362.608785 kJ/mol
# GULP energy per Si atom -12392.032610 kJ/mol
# Density = 1.309336 g / cm^3
# Si number density = 13.123230 Si / 1000 Ang^3
#
#
#
# Elastic Constant Matrix: (Units=GPa)
#
#
# Indices 1 2 3 4 5 6 
#
# 1 57.7632 30.6698 52.3854 0.0000 0.0000 0.0000
# 2 30.6698 57.7707 52.3869 0.0000 0.0000 0.0000
# 3 52.3854 52.3869 97.3484 0.0000 0.0000 0.0000
# 4 0.0000 0.0000 0.0000 21.5088 0.0000 0.0000
# 5 0.0000 0.0000 0.0000 0.0000 21.5086 0.0000
# 6 0.0000 0.0000 0.0000 0.0000 0.0000 0.3935
#
#
#
# Elastic Compliance Matrix: (Units=1/GPa)
#
#
# Indices 1 2 3 4 5 6 
#
# 1 0.034054 -0.002854 -0.016789 0.000000 0.000000 0.000000
# 2 -0.002854 0.034047 -0.016786 0.000000 0.000000 0.000000
# 3 -0.016789 -0.016786 0.028340 0.000000 0.000000 0.000000
# 4 0.000000 0.000000 0.000000 0.046493 0.000000 0.000000
# 5 0.000000 0.000000 0.000000 0.000000 0.046493 0.000000
# 6 0.000000 0.000000 0.000000 0.000000 0.000000 2.541126
#
#
# Mechanical properties :
#
#
# Convention : Reuss Voigt Hill
#
# Bulk Modulus (GPa) = 42.40524 53.75185 48.07855
# Shear Modulus (GPa) = 1.77855 13.84486 7.81171
#
# Velocity S-wave (km/s) = 1.16542 3.25158 2.44244
# Velocity P-wave (km/s) = 5.84758 7.42599 6.68354
#
# Compressibility (1/GPa) = 0.02358199
#
# Stress axis : x y z
#
# Youngs Moduli (GPa) = 29.36555 29.37147 35.28566
#
# Poissons Ratio (x) = 0.08383 0.59241
# Poissons Ratio (y) = 0.08381 0.59230
# Poissons Ratio (z) = 0.49302 0.49303
#
# Static dielectric constant tensor:
#      x y z
#    x 2.486680 0.000000 0.000000 
#    y 0.000000 2.486680 0.000000 
#    z 0.000000 0.000000 2.899610 
# 
# 
# High freq. dielectric constant tensor:
#      x y z
#    x 1.463750 0.000000 0.000000 
#    y 0.000000 1.463750 0.000000 
#    z 0.000000 0.000000 1.511480 
# 
# From -- ./inp_files/3876.got.cif
#   From: 2010.03.12/outbox.cif.g09.slc.cpg/sg139_2_cif.got.tgz:3876.got - 2010.04.08 09:46:31.
