data_PCOD8320575
_publ_section_title
;
Structure prediction by ZEFSAII (Michael W. Deem and Ramdas Pophale) SiO2 
 PCOD8320575
Probable space group: I 41/A M D
;
_chemical_formula_sum "Si O2"
_cell_formula_units_Z 160
_cell_length_a 17.356771
_cell_length_b 17.356771
_cell_length_c 29.229801
_cell_angle_alpha 90.000000
_cell_angle_beta 90.000000
_cell_angle_gamma 90.000000
_cell_volume 8805.696762
_symmetry_space_group_name_H-M "I 41/A M D"
_symmetry_group_IT_number 141
_space_group.IT_coordinate_system_code '2'
_symmetry_cell_setting 'tetragonal'
loop_
_space_group_symop_operation_xyz
x,y,z
1/4-y,3/4+x,1/4+z
-x,1/2-y,z
1/4+y,1/4-x,3/4+z
x,-y,-z
-x,1/2+y,-z
1/4+y,3/4+x,1/4-z
1/4-y,1/4-x,3/4-z
-x,-y,-z
3/4+y,1/4-x,3/4-z
x,1/2+y,-z
3/4-y,3/4+x,1/4-z
-x,y,z
x,1/2-y,z
3/4-y,1/4-x,3/4+z
3/4+y,3/4+x,1/4+z
1/2+x,1/2+y,1/2+z
3/4-y,1/4+x,3/4+z
1/2-x,-y,1/2+z
3/4+y,3/4-x,1/4+z
1/2+x,1/2-y,1/2-z
1/2-x,y,1/2-z
3/4+y,1/4+x,3/4-z
3/4-y,3/4-x,1/4-z
1/2-x,1/2-y,1/2-z
1/4+y,3/4-x,1/4-z
1/2+x,y,1/2-z
1/4-y,1/4+x,3/4-z
1/2-x,1/2+y,1/2+z
1/2+x,-y,1/2+z
1/4-y,3/4-x,1/4+z
1/4+y,1/4+x,3/4+z
loop_
_atom_site_type_symbol
_atom_site_label
_atom_site_fract_x
_atom_site_fract_y
_atom_site_fract_z
Si Si1 0.854087 0.974174 0.047899
Si Si2 0.414032 0.991661 0.279988
Si Si3 0.916617 0.072437 0.125063
Si Si4 0.704310 0.924218 0.944340
Si Si5 0.236579 0.339532 0.138671
O O1 0.836529 0.882819 0.042972
O O2 0.905921 0.998857 0.090893
O O3 0.773076 0.015323 0.056407
O O4 0.893090 0.000000 0.000000
O O5 0.500000 0.968111 0.262742
O O6 0.420780 0.043471 0.323892
O O7 0.370440 0.044827 0.242414
O O8 0.849342 0.135156 0.123167
O O9 0.000000 0.110044 0.112752
O O10 0.710219 0.860716 0.904449
O O11 0.629628 0.977939 0.934336
O O12 0.236605 0.250000 0.148879
#
# Coordination Sequence:
#
# PCOD8320575 Si02
#       5
#    32  32  32  32  32
#     4   9  17  32  54  73  99 137 178 220 254 314
#     4  10  18  30  52  77 103 134 173 222 269 311
#     4  10  20  32  49  77 108 137 171 217 270 320
#     4   9  18  33  52  75 100 130 184 226 254 313
#     4  10  19  33  54  75 101 139 178 222 269 315
#
# _framework density 18.170055000000001
#
# number of rings (size 3 to 8) (size 9 to 14) (size 15 to 20)
#    0.000    2.400    2.000    1.200    0.000    0.800 
#    0.000    2.000    0.000   12.000    0.000    2.800 
#    0.000    0.000    0.000    0.000    0.000    0.000 
#
# Total GULP energy -991046.502921 kJ/mol
# GULP energy per Si atom -12388.081287 kJ/mol
# Density = 1.812870 g / cm^3
# Si number density = 18.170055 Si / 1000 Ang^3
#
#
#
# Elastic Constant Matrix: (Units=GPa)
#
#
# Indices 1 2 3 4 5 6 
#
# 1 105.8282 40.6130 37.1644 0.0000 0.0000 0.0000
# 2 40.6130 105.8282 37.1644 0.0000 0.0000 0.0000
# 3 37.1644 37.1644 102.8814 0.0000 0.0000 0.0000
# 4 0.0000 0.0000 0.0000 15.0087 0.0000 0.0000
# 5 0.0000 0.0000 0.0000 0.0000 15.0087 0.0000
# 6 0.0000 0.0000 0.0000 0.0000 0.0000 13.3325
#
#
#
# Elastic Compliance Matrix: (Units=1/GPa)
#
#
# Indices 1 2 3 4 5 6 
#
# 1 0.011848 -0.003486 -0.003021 0.000000 0.000000 0.000000
# 2 -0.003486 0.011848 -0.003021 0.000000 0.000000 0.000000
# 3 -0.003021 -0.003021 0.011902 0.000000 0.000000 0.000000
# 4 0.000000 0.000000 0.000000 0.066628 0.000000 0.000000
# 5 0.000000 0.000000 0.000000 0.000000 0.066628 0.000000
# 6 0.000000 0.000000 0.000000 0.000000 0.000000 0.075005
#
#
# Mechanical properties :
#
#
# Convention : Reuss Voigt Hill
#
# Bulk Modulus (GPa) = 60.44664 60.49129 60.46896
# Shear Modulus (GPa) = 18.62697 21.97636 20.30167
#
# Velocity S-wave (km/s) = 3.20526 3.48153 3.34625
# Velocity P-wave (km/s) = 6.85840 7.03743 6.94849
#
# Compressibility (1/GPa) = 0.01654352
#
# Stress axis : x y z
#
# Youngs Moduli (GPa) = 84.40356 84.40356 84.01793
#
# Poissons Ratio (x) = 0.29423 0.25378
# Poissons Ratio (y) = 0.29423 0.25378
# Poissons Ratio (z) = 0.25495 0.25495
#
# Static dielectric constant tensor:
#      x y z
#    x 3.442020 0.000000 0.000000 
#    y 0.000000 3.442020 0.000000 
#    z 0.000000 0.000000 3.702030 
# 
# 
# High freq. dielectric constant tensor:
#      x y z
#    x 1.678790 0.000000 0.000000 
#    y 0.000000 1.678790 0.000000 
#    z 0.000000 0.000000 1.721060 
# 
# From -- ./inp_files/12714.got.cif
#   From: 2010.03.12/outbox.cif.g09.slc.cpg/sg141_7_cif.got.tgz:12714.got - 2010.04.03 13:18:35.
