data_PCOD8320756
_publ_section_title
;
Structure prediction by ZEFSAII (Michael W. Deem and Ramdas Pophale) SiO2 
 PCOD8320756
Probable space group: I 41/A M D
;
_chemical_formula_sum "Si O2"
_cell_formula_units_Z 160
_cell_length_a 25.171342
_cell_length_b 25.171342
_cell_length_c 14.184286
_cell_angle_alpha 90.000000
_cell_angle_beta 90.000000
_cell_angle_gamma 90.000000
_cell_volume 8987.113370
_symmetry_space_group_name_H-M "I 41/A M D"
_symmetry_group_IT_number 141
_space_group.IT_coordinate_system_code '2'
_symmetry_cell_setting 'tetragonal'
loop_
_space_group_symop_operation_xyz
x,y,z
1/4-y,3/4+x,1/4+z
-x,1/2-y,z
1/4+y,1/4-x,3/4+z
x,-y,-z
-x,1/2+y,-z
1/4+y,3/4+x,1/4-z
1/4-y,1/4-x,3/4-z
-x,-y,-z
3/4+y,1/4-x,3/4-z
x,1/2+y,-z
3/4-y,3/4+x,1/4-z
-x,y,z
x,1/2-y,z
3/4-y,1/4-x,3/4+z
3/4+y,3/4+x,1/4+z
1/2+x,1/2+y,1/2+z
3/4-y,1/4+x,3/4+z
1/2-x,-y,1/2+z
3/4+y,3/4-x,1/4+z
1/2+x,1/2-y,1/2-z
1/2-x,y,1/2-z
3/4+y,1/4+x,3/4-z
3/4-y,3/4-x,1/4-z
1/2-x,1/2-y,1/2-z
1/4+y,3/4-x,1/4-z
1/2+x,y,1/2-z
1/4-y,1/4+x,3/4-z
1/2-x,1/2+y,1/2+z
1/2+x,-y,1/2+z
1/4-y,3/4-x,1/4+z
1/4+y,1/4+x,3/4+z
loop_
_atom_site_type_symbol
_atom_site_label
_atom_site_fract_x
_atom_site_fract_y
_atom_site_fract_z
Si Si1 0.689062 0.579683 0.768214
Si Si2 0.626242 0.112976 0.393819
Si Si3 0.738561 0.309875 0.859543
Si Si4 0.562662 0.810014 0.268908
Si Si5 0.843979 0.464156 0.794183
O O1 0.668459 0.581542 0.875000
O O2 0.750000 0.595892 0.750000
O O3 0.653428 0.622135 0.708501
O O4 0.680095 0.520326 0.732933
O O5 0.579360 0.071244 0.377162
O O6 0.600254 0.164742 0.440891
O O7 0.673260 0.090153 0.458612
O O8 0.744387 0.250000 0.897780
O O9 0.750000 0.313481 0.750000
O O10 0.780017 0.345470 0.918844
O O11 0.500000 0.810613 0.258919
O O12 0.584082 0.750000 0.252022
O O13 0.578833 0.828833 0.375000
O O14 0.806122 0.443879 0.875000
#
# Coordination Sequence:
#
# PCOD8320756 Si02
#       5
#    32  32  32  32  32
#     4  11  22  36  54  76 108 148 189 237 273 319
#     4  11  21  34  56  78 110 146 188 226 271 338
#     4  10  21  33  47  74 112 146 176 220 272 325
#     4   9  19  36  59  88 117 143 177 226 284 344
#     4  11  21  32  50  79 108 143 185 222 274 335
#
# _framework density 17.803269
#
# number of rings (size 3 to 8) (size 9 to 14) (size 15 to 20)
#    0.000    1.600    4.000    2.400    2.800    0.800 
#    0.000    0.000    0.000    6.600    0.000    1.400 
#    0.000    0.000    0.000    0.000    0.000    0.000 
#
# Total GULP energy -991756.978340 kJ/mol
# GULP energy per Si atom -12396.962229 kJ/mol
# Density = 1.776275 g / cm^3
# Si number density = 17.803269 Si / 1000 Ang^3
#
#
#
# Elastic Constant Matrix: (Units=GPa)
#
#
# Indices 1 2 3 4 5 6 
#
# 1 74.4327 29.9178 41.8341 0.0000 0.0000 0.0000
# 2 29.9178 74.4289 41.8342 0.0000 0.0000 0.0000
# 3 41.8341 41.8342 131.7461 0.0000 0.0000 0.0000
# 4 0.0000 0.0000 0.0000 -123.3995 0.0000 0.0000
# 5 0.0000 0.0000 0.0000 0.0000 -122.9526 0.0000
# 6 0.0000 0.0000 0.0000 0.0000 0.0000 32.4478
#
#
#
# Elastic Compliance Matrix: (Units=1/GPa)
#
#
# Indices 1 2 3 4 5 6 
#
# 1 0.017660 -0.004804 -0.004082 0.000000 0.000000 0.000000
# 2 -0.004804 0.017662 -0.004083 0.000000 0.000000 0.000000
# 3 -0.004082 -0.004083 0.010183 0.000000 0.000000 0.000000
# 4 0.000000 0.000000 0.000000 -0.008104 0.000000 0.000000
# 5 0.000000 0.000000 0.000000 0.000000 -0.008133 0.000000
# 6 0.000000 0.000000 0.000000 0.000000 0.000000 0.030819
#
#
# Mechanical properties :
#
#
# Convention : Reuss Voigt Hill
#
# Bulk Modulus (GPa) = 51.10778 56.41999 53.76388
# Shear Modulus (GPa) = 54.02638 -31.64608 11.19015
#
# Velocity S-wave (km/s) = 5.51473 -4.22067 2.50980
# Velocity P-wave (km/s) = 8.32580 2.82977 6.21798
#
# Compressibility (1/GPa) = 0.01956649
#
# Stress axis : x y z
#
# Youngs Moduli (GPa) = 56.62375 56.62015 98.20281
#
# Poissons Ratio (x) = 0.27202 0.40089
# Poissons Ratio (y) = 0.27204 0.40093
# Poissons Ratio (z) = 0.23115 0.23116
#
# Static dielectric constant tensor:
#      x y z
#    x 3.326500 0.000000 0.000000 
#    y 0.000000 3.326510 0.000000 
#    z 0.000000 0.000000 3.466430 
# 
# 
# High freq. dielectric constant tensor:
#      x y z
#    x 1.682350 0.000000 0.000000 
#    y 0.000000 1.682350 0.000000 
#    z 0.000000 0.000000 1.678560 
# 
# From -- ./inp_files/6577.got.cif
#   From: 2010.03.12/outbox.cif.g09.slc.cpg/sg141_4_cif.got.tgz:6577.got - 2010.04.03 13:18:35.
