data_PCOD8320519
_publ_section_title
;
Structure prediction by ZEFSAII (Michael W. Deem and Ramdas Pophale) SiO2 
 PCOD8320519
Probable space group: I 4/M C M
;
_chemical_formula_sum "Si O2"
_cell_formula_units_Z 144
_cell_length_a 21.984161
_cell_length_b 21.984161
_cell_length_c 15.737932
_cell_angle_alpha 90.000000
_cell_angle_beta 90.000000
_cell_angle_gamma 90.000000
_cell_volume 7606.195020
_symmetry_space_group_name_H-M "I 4/M C M"
_symmetry_group_IT_number 140
_symmetry_cell_setting 'tetragonal'
loop_
_space_group_symop_operation_xyz
x,y,z
-y,x,z
-x,-y,z
y,-x,z
x,-y,1/2-z
-x,y,1/2-z
y,x,1/2-z
-y,-x,1/2-z
-x,-y,-z
y,-x,-z
x,y,-z
-y,x,-z
-x,y,1/2+z
x,-y,1/2+z
-y,-x,1/2+z
y,x,1/2+z
1/2+x,1/2+y,1/2+z
1/2-y,1/2+x,1/2+z
1/2-x,1/2-y,1/2+z
1/2+y,1/2-x,1/2+z
1/2+x,1/2-y,-z
1/2-x,1/2+y,-z
1/2+y,1/2+x,-z
1/2-y,1/2-x,-z
1/2-x,1/2-y,1/2-z
1/2+y,1/2-x,1/2-z
1/2+x,1/2+y,1/2-z
1/2-y,1/2+x,1/2-z
1/2-x,1/2+y,z
1/2+x,1/2-y,z
1/2-y,1/2-x,z
1/2+y,1/2+x,z
loop_
_atom_site_type_symbol
_atom_site_label
_atom_site_fract_x
_atom_site_fract_y
_atom_site_fract_z
Si Si1 0.726308 0.871265 0.253103
Si Si2 0.539208 0.864595 0.666616
Si Si3 0.922438 0.675364 0.593016
Si Si4 0.578446 0.562609 0.596979
Si Si5 0.135242 0.864759 0.250000
O O1 0.696361 0.803640 0.249963
O O2 0.688831 0.912489 0.318205
O O3 0.726308 0.902822 0.160121
O O4 0.795698 0.871246 0.282473
O O5 0.500000 0.878957 0.750000
O O6 0.574381 0.925620 0.637819
O O7 0.493759 0.841450 0.593946
O O8 0.905997 0.700475 0.500000
O O9 0.886116 0.613885 0.615926
O O10 0.509442 0.584132 0.611120
O O11 0.598953 0.578913 0.500000
O O12 0.620483 0.594039 0.668004
#
# Coordination Sequence:
#
# PCOD8320519 Si02
#       5
#    32  32  32  32  16
#     4   9  20  36  50  69 101 136 170 214 262 298
#     4   9  17  30  47  69 100 135 167 204 252 299
#     4   9  18  32  50  73 101 133 168 208 256 306
#     4   9  20  38  56  80 115 140 156 198 263 316
#     4  12  21  33  60  84  96 132 188 217 239 304
#
# _framework density 18.931937000000001
#
# number of rings (size 3 to 8) (size 9 to 14) (size 15 to 20)
#    0.000    2.667    0.000    3.667    0.000    9.111 
#    0.000    4.444    0.000    3.333    0.000    0.000 
#    0.000    0.000    0.000    0.000    0.000    0.000 
#
# Total GULP energy -892469.462325 kJ/mol
# GULP energy per Si atom -12395.409199 kJ/mol
# Density = 1.888885 g / cm^3
# Si number density = 18.931937 Si / 1000 Ang^3
#
#
#
# Elastic Constant Matrix: (Units=GPa)
#
#
# Indices 1 2 3 4 5 6 
#
# 1 76.8220 16.6563 8.6264 0.0000 0.0000 0.0000
# 2 16.6563 76.8224 8.6271 0.0000 0.0000 0.0000
# 3 8.6264 8.6271 55.6261 0.0000 0.0000 0.0000
# 4 0.0000 0.0000 0.0000 19.5799 0.0000 0.0000
# 5 0.0000 0.0000 0.0000 0.0000 19.5786 0.0000
# 6 0.0000 0.0000 0.0000 0.0000 0.0000 18.1392
#
#
#
# Elastic Compliance Matrix: (Units=1/GPa)
#
#
# Indices 1 2 3 4 5 6 
#
# 1 0.013817 -0.002804 -0.001708 0.000000 0.000000 0.000000
# 2 -0.002804 0.013817 -0.001708 0.000000 0.000000 0.000000
# 3 -0.001708 -0.001708 0.018507 0.000000 0.000000 0.000000
# 4 0.000000 0.000000 0.000000 0.051073 0.000000 0.000000
# 5 0.000000 0.000000 0.000000 0.000000 0.051076 0.000000
# 6 0.000000 0.000000 0.000000 0.000000 0.000000 0.055129
#
#
# Mechanical properties :
#
#
# Convention : Reuss Voigt Hill
#
# Bulk Modulus (GPa) = 29.67275 30.78781 30.23028
# Shear Modulus (GPa) = 22.01751 23.15024 22.58388
#
# Velocity S-wave (km/s) = 3.41395 3.50067 3.45758
# Velocity P-wave (km/s) = 5.58995 5.71290 5.65176
#
# Compressibility (1/GPa) = 0.03370096
#
# Stress axis : x y z
#
# Youngs Moduli (GPa) = 72.37558 72.37572 54.03378
#
# Poissons Ratio (x) = 0.20294 0.09228
# Poissons Ratio (y) = 0.20294 0.09229
# Poissons Ratio (z) = 0.12361 0.12362
#
# Static dielectric constant tensor:
#      x y z
#    x 3.382690 0.000000 0.000000 
#    y 0.000000 3.382720 0.000000 
#    z 0.000000 0.000000 3.383020 
# 
# 
# High freq. dielectric constant tensor:
#      x y z
#    x 1.727490 0.000000 0.000000 
#    y 0.000000 1.727490 0.000000 
#    z 0.000000 0.000000 1.722440 
# 
# From -- ./inp_files/6687.got.cif
#   From: 2010.06.25/outbox.cif.g09.slc.cpg/sg140_4_cif.got.tgz:6687.got - 2010.06.28 10:53:23.
