data_PCOD8320414
_publ_section_title
;
Structure prediction by ZEFSAII (Michael W. Deem and Ramdas Pophale) SiO2 
 PCOD8320414
Probable space group: I 4/M C M
;
_chemical_formula_sum "Si O2"
_cell_formula_units_Z 96
_cell_length_a 13.421905
_cell_length_b 13.421905
_cell_length_c 24.686011
_cell_angle_alpha 90.000000
_cell_angle_beta 90.000000
_cell_angle_gamma 90.000000
_cell_volume 4447.124002
_symmetry_space_group_name_H-M "I 4/M C M"
_symmetry_group_IT_number 140
_symmetry_cell_setting 'tetragonal'
loop_
_space_group_symop_operation_xyz
x,y,z
-y,x,z
-x,-y,z
y,-x,z
x,-y,1/2-z
-x,y,1/2-z
y,x,1/2-z
-y,-x,1/2-z
-x,-y,-z
y,-x,-z
x,y,-z
-y,x,-z
-x,y,1/2+z
x,-y,1/2+z
-y,-x,1/2+z
y,x,1/2+z
1/2+x,1/2+y,1/2+z
1/2-y,1/2+x,1/2+z
1/2-x,1/2-y,1/2+z
1/2+y,1/2-x,1/2+z
1/2+x,1/2-y,-z
1/2-x,1/2+y,-z
1/2+y,1/2+x,-z
1/2-y,1/2-x,-z
1/2-x,1/2-y,1/2-z
1/2+y,1/2-x,1/2-z
1/2+x,1/2+y,1/2-z
1/2-y,1/2+x,1/2-z
1/2-x,1/2+y,z
1/2+x,1/2-y,z
1/2-y,1/2-x,z
1/2+y,1/2+x,z
loop_
_atom_site_type_symbol
_atom_site_label
_atom_site_fract_x
_atom_site_fract_y
_atom_site_fract_z
Si Si1 0.083771 0.416230 0.829562
Si Si2 0.133639 0.085977 0.406508
Si Si3 0.199529 0.085992 0.712596
Si Si4 0.341944 0.841944 0.059725
O O1 0.054333 0.312183 0.802235
O O2 0.097396 0.402605 0.894469
O O3 0.000000 0.500000 0.817996
O O4 0.138036 0.100413 0.342096
O O5 0.223765 0.142153 0.435349
O O6 0.029808 0.136196 0.424391
O O7 0.186069 0.186069 0.750000
O O8 0.152669 0.000000 0.750000
O O9 0.377185 0.877185 0.000000
#
# Coordination Sequence:
#
# PCOD8320414 Si02
#       4
#    16  32  32  16
#     4  10  25  44  60  95 134 177 222 274 322 396
#     4  10  21  41  68  98 132 171 223 274 327 406
#     4  11  21  36  63  96 134 176 212 257 323 386
#     4  10  24  46  66  96 130 169 228 291 350 392
#
# _framework density 21.586984999999999
#
# number of rings (size 3 to 8) (size 9 to 14) (size 15 to 20)
#    0.000    1.667    3.333    0.500    2.333    2.000 
#   12.000    1.667    0.000    0.000    0.000    0.000 
#    0.000    0.000    0.000    0.000    0.000    0.000 
#
# Total GULP energy -594854.540797 kJ/mol
# GULP energy per Si atom -12392.802933 kJ/mol
# Density = 2.153785 g / cm^3
# Si number density = 21.586985 Si / 1000 Ang^3
#
#
#
# Elastic Constant Matrix: (Units=GPa)
#
#
# Indices 1 2 3 4 5 6 
#
# 1 113.3176 75.4164 30.1934 0.0000 0.0000 0.0000
# 2 75.4164 113.3176 30.1934 0.0000 0.0000 0.0000
# 3 30.1934 30.1934 122.3667 0.0000 0.0000 0.0000
# 4 0.0000 0.0000 0.0000 -8.6313 0.0000 0.0000
# 5 0.0000 0.0000 0.0000 0.0000 -8.6313 0.0000
# 6 0.0000 0.0000 0.0000 0.0000 0.0000 45.6108
#
#
#
# Elastic Compliance Matrix: (Units=1/GPa)
#
#
# Indices 1 2 3 4 5 6 
#
# 1 0.016068 -0.010316 -0.001419 0.000000 0.000000 0.000000
# 2 -0.010316 0.016068 -0.001419 0.000000 0.000000 0.000000
# 3 -0.001419 -0.001419 0.008873 0.000000 0.000000 0.000000
# 4 0.000000 0.000000 0.000000 -0.115857 0.000000 0.000000
# 5 0.000000 0.000000 0.000000 0.000000 -0.115857 0.000000
# 6 0.000000 0.000000 0.000000 0.000000 0.000000 0.021925
#
#
# Mechanical properties :
#
#
# Convention : Reuss Voigt Hill
#
# Bulk Modulus (GPa) = 68.02654 68.95649 68.49152
# Shear Modulus (GPa) = -36.34514 19.88287 -8.23114
#
# Velocity S-wave (km/s) = -4.10769 3.03819 -1.95481
# Velocity P-wave (km/s) = 3.01391 6.65735 5.16740
#
# Compressibility (1/GPa) = 0.01470014
#
# Stress axis : x y z
#
# Youngs Moduli (GPa) = 62.23358 62.23358 112.70607
#
# Poissons Ratio (x) = 0.64199 0.15998
# Poissons Ratio (y) = 0.64199 0.15998
# Poissons Ratio (z) = 0.08834 0.08834
#
# Static dielectric constant tensor:
#      x y z
#    x 3.783150 0.000000 0.000000 
#    y 0.000000 3.783150 0.000000 
#    z 0.000000 0.000000 3.918410 
# 
# 
# High freq. dielectric constant tensor:
#      x y z
#    x 1.840250 0.000000 0.000000 
#    y 0.000000 1.840250 0.000000 
#    z 0.000000 0.000000 1.852600 
# 
# From -- ./inp_files/7703.got.cif
#   From: 2010.06.25/outbox.cif.g09.slc.cpg/sg140_4_cif.got.tgz:7703.got - 2010.06.28 10:53:23.
