data_PCOD8320053
_publ_section_title
;
Structure prediction by ZEFSAII (Michael W. Deem and Ramdas Pophale) SiO2 
 PCOD8320053
Probable space group: I 4/M C M
;
_chemical_formula_sum "Si O2"
_cell_formula_units_Z 144
_cell_length_a 21.756167
_cell_length_b 21.756167
_cell_length_c 19.371411
_cell_angle_alpha 90.000000
_cell_angle_beta 90.000000
_cell_angle_gamma 90.000000
_cell_volume 9169.085515
_symmetry_space_group_name_H-M "I 4/M C M"
_symmetry_group_IT_number 140
_symmetry_cell_setting 'tetragonal'
loop_
_space_group_symop_operation_xyz
x,y,z
-y,x,z
-x,-y,z
y,-x,z
x,-y,1/2-z
-x,y,1/2-z
y,x,1/2-z
-y,-x,1/2-z
-x,-y,-z
y,-x,-z
x,y,-z
-y,x,-z
-x,y,1/2+z
x,-y,1/2+z
-y,-x,1/2+z
y,x,1/2+z
1/2+x,1/2+y,1/2+z
1/2-y,1/2+x,1/2+z
1/2-x,1/2-y,1/2+z
1/2+y,1/2-x,1/2+z
1/2+x,1/2-y,-z
1/2-x,1/2+y,-z
1/2+y,1/2+x,-z
1/2-y,1/2-x,-z
1/2-x,1/2-y,1/2-z
1/2+y,1/2-x,1/2-z
1/2+x,1/2+y,1/2-z
1/2-y,1/2+x,1/2-z
1/2-x,1/2+y,z
1/2+x,1/2-y,z
1/2-y,1/2-x,z
1/2+y,1/2+x,z
loop_
_atom_site_type_symbol
_atom_site_label
_atom_site_fract_x
_atom_site_fract_y
_atom_site_fract_z
Si Si1 0.669252 0.065419 0.285397
Si Si2 0.673881 0.995697 0.078815
Si Si3 0.224033 0.625375 0.575148
Si Si4 0.757244 0.843506 0.281725
Si Si5 0.050871 0.449130 0.076887
O O1 0.610052 0.110052 0.278565
O O2 0.729968 0.093300 0.248698
O O3 0.654304 0.000000 0.250000
O O4 0.689821 0.057553 0.366253
O O5 0.721803 0.051617 0.079486
O O6 0.610955 0.022867 0.112058
O O7 0.666824 0.969453 0.000000
O O8 0.251180 0.644262 0.500000
O O9 0.155705 0.655705 0.584278
O O10 0.267747 0.650184 0.635747
O O11 0.823280 0.823280 0.250000
O O12 0.708413 0.791588 0.262507
O O13 0.000000 0.500000 0.075357
O O14 0.071293 0.428707 0.000000
#
# Coordination Sequence:
#
# PCOD8320053 Si02
#       5
#    32  32  32  32  16
#     4  11  22  32  44  66  95 125 155 190 233 278
#     4  10  18  29  42  60  89 123 156 190 223 264
#     4   9  15  26  45  64  82 112 156 195 224 263
#     4   9  18  33  48  62  85 118 156 198 237 270
#     4   9  16  24  36  54  81 122 161 185 214 257
#
# _framework density 15.704947000000001
#
# number of rings (size 3 to 8) (size 9 to 14) (size 15 to 20)
#    0.000    2.333    3.333    0.667    1.556    1.556 
#    0.000    1.111    0.000    4.000    0.000    0.000 
#    0.000    0.444    0.000    0.000    0.000    6.889 
#
# Total GULP energy -891946.086981 kJ/mol
# GULP energy per Si atom -12388.140097 kJ/mol
# Density = 1.566920 g / cm^3
# Si number density = 15.704947 Si / 1000 Ang^3
#
#
#
# Elastic Constant Matrix: (Units=GPa)
#
#
# Indices 1 2 3 4 5 6 
#
# 1 40.3669 32.8851 38.5262 0.0000 0.0000 0.0000
# 2 32.8851 40.3670 38.5261 0.0000 0.0000 0.0000
# 3 38.5262 38.5261 136.5337 0.0000 0.0000 0.0000
# 4 0.0000 0.0000 0.0000 19.3013 0.0000 0.0000
# 5 0.0000 0.0000 0.0000 0.0000 19.3013 0.0000
# 6 0.0000 0.0000 0.0000 0.0000 0.0000 20.3462
#
#
#
# Elastic Compliance Matrix: (Units=1/GPa)
#
#
# Indices 1 2 3 4 5 6 
#
# 1 0.076535 -0.057121 -0.005478 0.000000 0.000000 0.000000
# 2 -0.057121 0.076535 -0.005478 0.000000 0.000000 0.000000
# 3 -0.005478 -0.005478 0.010416 0.000000 0.000000 0.000000
# 4 0.000000 0.000000 0.000000 0.051810 0.000000 0.000000
# 5 0.000000 0.000000 0.000000 0.000000 0.051810 0.000000
# 6 0.000000 0.000000 0.000000 0.000000 0.000000 0.049149
#
#
# Mechanical properties :
#
#
# Convention : Reuss Voigt Hill
#
# Bulk Modulus (GPa) = 36.58845 48.57138 42.57991
# Shear Modulus (GPa) = 10.83377 18.94512 14.88945
#
# Velocity S-wave (km/s) = 2.62931 3.47697 3.08242
# Velocity P-wave (km/s) = 5.70664 6.86394 6.31187
#
# Compressibility (1/GPa) = 0.02733103
#
# Stress axis : x y z
#
# Youngs Moduli (GPa) = 13.06589 13.06595 96.00887
#
# Poissons Ratio (x) = 0.74634 0.52595
# Poissons Ratio (y) = 0.74634 0.52593
# Poissons Ratio (z) = 0.07158 0.07157
#
# Static dielectric constant tensor:
#      x y z
#    x 2.717230 0.000000 0.000000 
#    y 0.000000 2.717230 0.000000 
#    z 0.000000 0.000000 3.375900 
# 
# 
# High freq. dielectric constant tensor:
#      x y z
#    x 1.552790 0.000000 0.000000 
#    y 0.000000 1.552790 0.000000 
#    z 0.000000 0.000000 1.626770 
# 
# From -- ./inp_files/8322.got.cif
#   From: 2010.06.25/outbox.cif.g09.slc.cpg/sg140_5_cif.got.tgz:8322.got - 2010.06.28 10:53:23.
