data_PCOD8320705
_publ_section_title
;
Structure prediction by ZEFSAII (Michael W. Deem and Ramdas Pophale) SiO2 
 PCOD8320705
Probable space group: I 41/A M D
;
_chemical_formula_sum "Si O2"
_cell_formula_units_Z 160
_cell_length_a 18.041437
_cell_length_b 18.041437
_cell_length_c 24.313155
_cell_angle_alpha 90.000000
_cell_angle_beta 90.000000
_cell_angle_gamma 90.000000
_cell_volume 7913.772678
_symmetry_space_group_name_H-M "I 41/A M D"
_symmetry_group_IT_number 141
_space_group.IT_coordinate_system_code '2'
_symmetry_cell_setting 'tetragonal'
loop_
_space_group_symop_operation_xyz
x,y,z
1/4-y,3/4+x,1/4+z
-x,1/2-y,z
1/4+y,1/4-x,3/4+z
x,-y,-z
-x,1/2+y,-z
1/4+y,3/4+x,1/4-z
1/4-y,1/4-x,3/4-z
-x,-y,-z
3/4+y,1/4-x,3/4-z
x,1/2+y,-z
3/4-y,3/4+x,1/4-z
-x,y,z
x,1/2-y,z
3/4-y,1/4-x,3/4+z
3/4+y,3/4+x,1/4+z
1/2+x,1/2+y,1/2+z
3/4-y,1/4+x,3/4+z
1/2-x,-y,1/2+z
3/4+y,3/4-x,1/4+z
1/2+x,1/2-y,1/2-z
1/2-x,y,1/2-z
3/4+y,1/4+x,3/4-z
3/4-y,3/4-x,1/4-z
1/2-x,1/2-y,1/2-z
1/4+y,3/4-x,1/4-z
1/2+x,y,1/2-z
1/4-y,1/4+x,3/4-z
1/2-x,1/2+y,1/2+z
1/2+x,-y,1/2+z
1/4-y,3/4-x,1/4+z
1/4+y,1/4+x,3/4+z
loop_
_atom_site_type_symbol
_atom_site_label
_atom_site_fract_x
_atom_site_fract_y
_atom_site_fract_z
Si Si1 0.916946 0.579703 0.266695
Si Si2 0.702248 0.566968 0.138290
Si Si3 0.416549 0.574699 0.712174
Si Si4 0.588368 0.167552 0.184754
Si Si5 0.692346 0.330347 0.701596
O O1 0.862617 0.560940 0.317069
O O2 0.921254 0.510499 0.226764
O O3 0.885456 0.644694 0.228143
O O4 0.000000 0.600247 0.287980
O O5 0.734631 0.484631 0.125000
O O6 0.664013 0.608198 0.086847
O O7 0.774199 0.613029 0.157719
O O8 0.500000 0.603130 0.696049
O O9 0.383454 0.617852 0.764920
O O10 0.500000 0.168680 0.183290
O O11 0.620155 0.250000 0.194076
O O12 0.614546 0.135455 0.125000
O O13 0.680146 0.250000 0.673248
O O14 0.750000 0.322234 0.750000
#
# Coordination Sequence:
#
# PCOD8320705 Si02
#       5
#    32  32  32  32  32
#     4  10  22  38  56  84 119 152 193 246 301 351
#     4  11  21  36  59  84 113 156 199 239 293 357
#     4  10  20  35  56  83 115 150 190 237 289 345
#     4   8  15  30  53  81 114 152 191 230 278 339
#     4   9  18  35  58  82 110 147 190 236 289 353
#
# _framework density 20.217917
#
# number of rings (size 3 to 8) (size 9 to 14) (size 15 to 20)
#    0.000    2.400    2.000    1.200    0.000    2.800 
#    0.000    0.000    0.000    0.000    0.000    8.400 
#    0.000    0.000    0.000    0.000    0.000    0.000 
#
# Total GULP energy -991433.733021 kJ/mol
# GULP energy per Si atom -12392.921663 kJ/mol
# Density = 2.017190 g / cm^3
# Si number density = 20.217917 Si / 1000 Ang^3
#
#
#
# Elastic Constant Matrix: (Units=GPa)
#
#
# Indices 1 2 3 4 5 6 
#
# 1 75.4620 18.9866 14.1309 0.0000 0.0000 0.0000
# 2 18.9866 75.4625 14.1310 0.0000 0.0000 0.0000
# 3 14.1309 14.1310 80.0964 0.0000 0.0000 0.0000
# 4 0.0000 0.0000 0.0000 35.6351 0.0000 0.0000
# 5 0.0000 0.0000 0.0000 0.0000 35.6350 0.0000
# 6 0.0000 0.0000 0.0000 0.0000 0.0000 -3.9496
#
#
#
# Elastic Compliance Matrix: (Units=1/GPa)
#
#
# Indices 1 2 3 4 5 6 
#
# 1 0.014442 -0.003264 -0.001972 0.000000 0.000000 0.000000
# 2 -0.003264 0.014442 -0.001972 0.000000 0.000000 0.000000
# 3 -0.001972 -0.001972 0.013181 0.000000 0.000000 0.000000
# 4 0.000000 0.000000 0.000000 0.028062 0.000000 0.000000
# 5 0.000000 0.000000 0.000000 0.000000 0.028062 0.000000
# 6 0.000000 0.000000 0.000000 0.000000 0.000000 -0.253190
#
#
# Mechanical properties :
#
#
# Convention : Reuss Voigt Hill
#
# Bulk Modulus (GPa) = 36.16859 36.16865 36.16862
# Shear Modulus (GPa) = -38.06142 25.71558 -6.17292
#
# Velocity S-wave (km/s) = -4.34355 3.57027 -1.74923
# Velocity P-wave (km/s) = 2.68832 5.90965 3.72135
#
# Compressibility (1/GPa) = 0.02764830
#
# Stress axis : x y z
#
# Youngs Moduli (GPa) = 69.24082 69.24129 75.86798
#
# Poissons Ratio (x) = 0.22604 0.14962
# Poissons Ratio (y) = 0.22603 0.14961
# Poissons Ratio (z) = 0.13655 0.13655
#
# Static dielectric constant tensor:
#      x y z
#    x 3.764420 0.000000 0.000000 
#    y 0.000000 3.764420 0.000000 
#    z 0.000000 0.000000 3.755870 
# 
# 
# High freq. dielectric constant tensor:
#      x y z
#    x 1.775440 0.000000 0.000000 
#    y 0.000000 1.775440 0.000000 
#    z 0.000000 0.000000 1.790630 
# 
# From -- ./inp_files/12671.got.cif
#   From: 2010.03.12/outbox.cif.g09.slc.cpg/sg141_7_cif.got.tgz:12671.got - 2010.04.03 13:18:35.
