data_PCOD8320876
_publ_section_title
;
Structure prediction by ZEFSAII (Michael W. Deem and Ramdas Pophale) SiO2 
 PCOD8320876
Probable space group: I 41/A M D
;
_chemical_formula_sum "Si O2"
_cell_formula_units_Z 112
_cell_length_a 17.125985
_cell_length_b 17.125985
_cell_length_c 18.251140
_cell_angle_alpha 90.000000
_cell_angle_beta 90.000000
_cell_angle_gamma 90.000000
_cell_volume 5353.047722
_symmetry_space_group_name_H-M "I 41/A M D"
_symmetry_group_IT_number 141
_space_group.IT_coordinate_system_code '2'
_symmetry_cell_setting 'tetragonal'
loop_
_space_group_symop_operation_xyz
x,y,z
1/4-y,3/4+x,1/4+z
-x,1/2-y,z
1/4+y,1/4-x,3/4+z
x,-y,-z
-x,1/2+y,-z
1/4+y,3/4+x,1/4-z
1/4-y,1/4-x,3/4-z
-x,-y,-z
3/4+y,1/4-x,3/4-z
x,1/2+y,-z
3/4-y,3/4+x,1/4-z
-x,y,z
x,1/2-y,z
3/4-y,1/4-x,3/4+z
3/4+y,3/4+x,1/4+z
1/2+x,1/2+y,1/2+z
3/4-y,1/4+x,3/4+z
1/2-x,-y,1/2+z
3/4+y,3/4-x,1/4+z
1/2+x,1/2-y,1/2-z
1/2-x,y,1/2-z
3/4+y,1/4+x,3/4-z
3/4-y,3/4-x,1/4-z
1/2-x,1/2-y,1/2-z
1/4+y,3/4-x,1/4-z
1/2+x,y,1/2-z
1/4-y,1/4+x,3/4-z
1/2-x,1/2+y,1/2+z
1/2+x,-y,1/2+z
1/4-y,3/4-x,1/4+z
1/4+y,1/4+x,3/4+z
loop_
_atom_site_type_symbol
_atom_site_label
_atom_site_fract_x
_atom_site_fract_y
_atom_site_fract_z
Si Si1 0.905961 0.750000 0.934393
Si Si2 0.585975 0.611896 0.802778
Si Si3 0.000000 0.587926 0.470903
Si Si4 0.698071 0.383128 0.476675
Si Si5 0.723493 0.973493 0.375000
O O1 0.846958 0.750000 0.865674
O O2 0.880291 0.670401 0.975698
O O3 0.000000 0.750000 0.919791
O O4 0.639216 0.610785 0.875000
O O5 0.500000 0.640149 0.825614
O O6 0.620451 0.671005 0.744349
O O7 0.580829 0.525771 0.769755
O O8 0.000000 0.500000 0.500000
O O9 0.706519 0.438234 0.403944
O O10 0.697048 0.425028 0.554614
#
# Coordination Sequence:
#
# PCOD8320876 Si02
#       5
#    16  32  16  32  16
#     4  12  26  48  66  98 138 183 236 293 347 413
#     4  12  22  37  62 100 145 180 217 263 335 421
#     4  12  26  38  64 106 145 188 223 271 346 430
#     4  11  23  45  67 100 130 180 228 288 353 417
#     4  10  24  42  71  96 131 168 230 290 350 418
#
# _framework density 20.92266
#
# number of rings (size 3 to 8) (size 9 to 14) (size 15 to 20)
#    0.000    0.571    4.286    4.714    4.000    0.000 
#    5.143    1.429    0.000    0.000    0.000    0.000 
#    0.000    0.000    0.000    0.000    0.000    0.000 
#
# Total GULP energy -693834.242650 kJ/mol
# GULP energy per Si atom -12389.897190 kJ/mol
# Density = 2.087504 g / cm^3
# Si number density = 20.922660 Si / 1000 Ang^3
#
#
#
# Elastic Constant Matrix: (Units=GPa)
#
#
# Indices 1 2 3 4 5 6 
#
# 1 117.1544 57.0055 25.6604 0.0000 0.0000 0.0000
# 2 57.0055 117.1544 25.6596 0.0000 0.0000 0.0000
# 3 25.6604 25.6596 94.2613 0.0000 0.0000 0.0000
# 4 0.0000 0.0000 0.0000 23.1833 0.0000 0.0000
# 5 0.0000 0.0000 0.0000 0.0000 23.1831 0.0000
# 6 0.0000 0.0000 0.0000 0.0000 0.0000 34.7738
#
#
#
# Elastic Compliance Matrix: (Units=1/GPa)
#
#
# Indices 1 2 3 4 5 6 
#
# 1 0.011434 -0.005191 -0.001699 0.000000 0.000000 0.000000
# 2 -0.005191 0.011434 -0.001699 0.000000 0.000000 0.000000
# 3 -0.001699 -0.001699 0.011534 0.000000 0.000000 0.000000
# 4 0.000000 0.000000 0.000000 0.043134 0.000000 0.000000
# 5 0.000000 0.000000 0.000000 0.000000 0.043135 0.000000
# 6 0.000000 0.000000 0.000000 0.000000 0.000000 0.028757
#
#
# Mechanical properties :
#
#
# Convention : Reuss Voigt Hill
#
# Bulk Modulus (GPa) = 58.06614 60.58012 59.32313
# Shear Modulus (GPa) = 29.01084 30.91104 29.96094
#
# Velocity S-wave (km/s) = 3.72771 3.84786 3.78826
# Velocity P-wave (km/s) = 6.80741 6.98273 6.89563
#
# Compressibility (1/GPa) = 0.01722174
#
# Stress axis : x y z
#
# Youngs Moduli (GPa) = 87.45830 87.45861 86.69998
#
# Poissons Ratio (x) = 0.45403 0.14734
# Poissons Ratio (y) = 0.45403 0.14733
# Poissons Ratio (z) = 0.14863 0.14862
#
# Static dielectric constant tensor:
#      x y z
#    x 3.909780 0.000000 0.000000 
#    y 0.000000 3.909790 0.000000 
#    z 0.000000 0.000000 3.736450 
# 
# 
# High freq. dielectric constant tensor:
#      x y z
#    x 1.821920 0.000000 0.000000 
#    y 0.000000 1.821920 0.000000 
#    z 0.000000 0.000000 1.815150 
# 
# From -- ./inp_files/7992.got.cif
#   From: 2010.03.12/outbox.cif.g09.slc.cpg/sg141_4_cif.got.tgz:7992.got - 2010.04.03 13:18:35.
