data_PCOD8320028
_publ_section_title
;
Structure prediction by ZEFSAII (Michael W. Deem and Ramdas Pophale) SiO2 
 PCOD8320028
Probable space group: I 4/M M M
;
_chemical_formula_sum "Si O2"
_cell_formula_units_Z 60
_cell_length_a 18.000000
_cell_length_b 18.000000
_cell_length_c 21.000000
_cell_angle_alpha 90.000000
_cell_angle_beta 90.000000
_cell_angle_gamma 90.000000
_cell_volume 6804.000000
_symmetry_space_group_name_H-M "I 4/M M M"
_symmetry_group_IT_number 139
_symmetry_cell_setting 'tetragonal'
loop_
_space_group_symop_operation_xyz
x,y,z
-y,x,z
-x,-y,z
y,-x,z
x,-y,-z
-x,y,-z
y,x,-z
-y,-x,-z
-x,-y,-z
y,-x,-z
x,y,-z
-y,x,-z
-x,y,z
x,-y,z
-y,-x,z
y,x,z
1/2+x,1/2+y,1/2+z
1/2-y,1/2+x,1/2+z
1/2-x,1/2-y,1/2+z
1/2+y,1/2-x,1/2+z
1/2+x,1/2-y,1/2-z
1/2-x,1/2+y,1/2-z
1/2+y,1/2+x,1/2-z
1/2-y,1/2-x,1/2-z
1/2-x,1/2-y,1/2-z
1/2+y,1/2-x,1/2-z
1/2+x,1/2+y,1/2-z
1/2-y,1/2+x,1/2-z
1/2-x,1/2+y,1/2+z
1/2+x,1/2-y,1/2+z
1/2-y,1/2-x,1/2+z
1/2+y,1/2+x,1/2+z
loop_
_atom_site_type_symbol
_atom_site_label
_atom_site_fract_x
_atom_site_fract_y
_atom_site_fract_z
Si Si1 0.738894 0.738894 0.147481
Si Si2 0.156819 0.500000 0.163923
Si Si3 0.000000 0.500000 0.668974
Si Si4 0.726015 0.500000 0.271271
Si Si5 0.137721 0.654149 0.428345
Si Si6 0.161139 0.838862 0.238540
Si Si7 0.000000 0.339335 0.887449
O O1 0.693063 0.786171 0.098355
O O2 0.790834 0.790834 0.189956
O O3 0.686263 0.686263 0.190791
O O4 0.229629 0.500000 0.205573
O O5 0.155743 0.569695 0.118890
O O6 0.079544 0.500000 0.207204
O O7 0.927333 0.500000 0.625241
O O8 0.675091 0.573567 0.273296
O O9 0.787893 0.500000 0.325381
O O10 0.113592 0.674540 0.500000
O O11 0.177982 0.573675 0.427987
#
# Coordination Sequence:
#
# PCOD8320028 Si02
#       7
#    16  16   8  16  32  16  16
#     4  11  21  36  58  90 111 145 194 238 290 343
#     4  10  21  35  54  84 115 157 194 222 284 332
#     4   8  20  29  49  80 114 148 181 213 252 362
#     4  12  22  40  62  78 112 148 194 256 296 336
#     4  11  21  36  55  83 121 156 190 228 275 348
#     4  11  24  39  62  84 112 143 196 257 288 340
#     4  10  21  35  54  84 115 157 194 222 284 332
#
# _framework density 8.8183419999999995
#
# number of rings (size 3 to 8) (size 9 to 14) (size 15 to 20)
#    0.000    1.333    5.333    1.200    0.000    5.067 
#    0.000    4.000    0.000    0.000    0.000    0.000 
#    0.000    4.267    0.000    0.000    0.000    0.000 
#
# Total GULP energy -743399.065176 kJ/mol
# GULP energy per Si atom -12389.984420 kJ/mol
# Density = 0.879827 g / cm^3
# Si number density = 8.818342 Si / 1000 Ang^3
#
#
#
# Elastic Constant Matrix: (Units=GPa)
#
#
# Indices 1 2 3 4 5 6 
#
# 1 159.0793 7.1330 27.6839 0.0000 0.0000 0.0000
# 2 7.1330 159.0793 27.6839 0.0000 0.0000 0.0000
# 3 27.6839 27.6839 80.4831 0.0000 0.0000 0.0000
# 4 0.0000 0.0000 0.0000 23.2507 0.0000 0.0000
# 5 0.0000 0.0000 0.0000 0.0000 23.2507 0.0000
# 6 0.0000 0.0000 0.0000 0.0000 0.0000 34.0472
#
#
#
# Elastic Compliance Matrix: (Units=1/GPa)
#
#
# Indices 1 2 3 4 5 6 
#
# 1 0.006688 0.000107 -0.002337 0.000000 0.000000 0.000000
# 2 0.000107 0.006688 -0.002337 0.000000 0.000000 0.000000
# 3 -0.002337 -0.002337 0.014033 0.000000 0.000000 0.000000
# 4 0.000000 0.000000 0.000000 0.043010 0.000000 0.000000
# 5 0.000000 0.000000 0.000000 0.000000 0.043010 0.000000
# 6 0.000000 0.000000 0.000000 0.000000 0.000000 0.029371
#
#
# Mechanical properties :
#
#
# Convention : Reuss Voigt Hill
#
# Bulk Modulus (GPa) = 54.72339 58.18261 56.45300
# Shear Modulus (GPa) = 31.64040 38.51911 35.07976
#
# Velocity S-wave (km/s) = 4.24017 4.67843 4.46468
# Velocity P-wave (km/s) = 7.42075 7.88954 7.65873
#
# Compressibility (1/GPa) = 0.01827372
#
# Stress axis : x y z
#
# Youngs Moduli (GPa) = 149.51866 149.51867 71.26121
#
# Poissons Ratio (x) = -0.01598 0.16656
# Poissons Ratio (y) = -0.01598 0.16656
# Poissons Ratio (z) = 0.34947 0.34947
#
# Static dielectric constant tensor:
#      x y z
#    x 3.379790 0.000000 0.000000 
#    y 0.000000 3.379790 0.000000 
#    z 0.000000 0.000000 3.153440 
# 
# 
# High freq. dielectric constant tensor:
#      x y z
#    x 1.683260 0.000000 0.000000 
#    y 0.000000 1.683260 0.000000 
#    z 0.000000 0.000000 1.676430 
# 
# From -- ./inp_files/9923.got.cif
#   From: 2010.03.12/outbox.ucp.g09.slc.cvg/sg139_5_cif.got.tgz:9923.got - 2010.05.04 20:31:31.
