data_PCOD8320378
_publ_section_title
;
Structure prediction by ZEFSAII (Michael W. Deem and Ramdas Pophale) SiO2 
 PCOD8320378
Probable space group: I 4/M C M
;
_chemical_formula_sum "Si O2"
_cell_formula_units_Z 240
_cell_length_a 22.160731
_cell_length_b 22.160731
_cell_length_c 25.491798
_cell_angle_alpha 90.000000
_cell_angle_beta 90.000000
_cell_angle_gamma 90.000000
_cell_volume 12518.970975
_symmetry_space_group_name_H-M "I 4/M C M"
_symmetry_group_IT_number 140
_symmetry_cell_setting 'tetragonal'
loop_
_space_group_symop_operation_xyz
x,y,z
-y,x,z
-x,-y,z
y,-x,z
x,-y,1/2-z
-x,y,1/2-z
y,x,1/2-z
-y,-x,1/2-z
-x,-y,-z
y,-x,-z
x,y,-z
-y,x,-z
-x,y,1/2+z
x,-y,1/2+z
-y,-x,1/2+z
y,x,1/2+z
1/2+x,1/2+y,1/2+z
1/2-y,1/2+x,1/2+z
1/2-x,1/2-y,1/2+z
1/2+y,1/2-x,1/2+z
1/2+x,1/2-y,-z
1/2-x,1/2+y,-z
1/2+y,1/2+x,-z
1/2-y,1/2-x,-z
1/2-x,1/2-y,1/2-z
1/2+y,1/2-x,1/2-z
1/2+x,1/2+y,1/2-z
1/2-y,1/2+x,1/2-z
1/2-x,1/2+y,z
1/2+x,1/2-y,z
1/2-y,1/2-x,z
1/2+y,1/2+x,z
loop_
_atom_site_type_symbol
_atom_site_label
_atom_site_fract_x
_atom_site_fract_y
_atom_site_fract_z
Si Si1 0.292344 0.888825 0.195803
Si Si2 0.352996 0.656831 0.827458
Si Si3 0.000272 0.594620 0.438398
Si Si4 0.620644 0.369364 0.558516
Si Si5 0.375957 0.780004 0.312734
Si Si6 0.008789 0.179202 0.057433
Si Si7 0.000773 0.710375 0.127640
Si Si8 0.927077 0.927077 0.250000
O O1 0.334373 0.834373 0.173427
O O2 0.222398 0.876904 0.186221
O O3 0.305387 0.897284 0.257020
O O4 0.310840 0.952597 0.170544
O O5 0.343526 0.655470 0.890856
O O6 0.286887 0.649486 0.802989
O O7 0.397465 0.605450 0.801785
O O8 0.993290 0.598617 0.500000
O O9 0.946625 0.553376 0.415010
O O10 0.994647 0.660860 0.416752
O O11 0.064429 0.564429 0.423333
O O12 0.641503 0.344360 0.500000
O O13 0.551758 0.355827 0.569383
O O14 0.627940 0.440892 0.559387
O O15 0.323401 0.823401 0.335941
O O16 0.432758 0.778474 0.350774
O O17 0.023093 0.228576 0.101239
O O18 0.006890 0.210484 0.000000
O O19 0.000000 0.914863 0.250000
#
# Coordination Sequence:
#
# PCOD8320378 Si02
#       8
#    32  32  32  32  32  32  32  16
#     4  11  24  40  60  89 120 158 208 258 307 365
#     4  12  22  41  68  84 123 167 208 253 303 368
#     4   9  19  37  60  86 116 150 192 245 307 375
#     4  10  22  39  58  89 120 156 200 245 293 357
#     4  11  24  40  60  89 120 158 208 258 307 365
#     4  10  21  37  59  84 118 155 198 244 293 352
#     4  12  21  36  61  88 118 154 197 249 308 369
#     4  11  28  42  63 100 134 160 201 264 320 359
#
# _framework density 19.170904
#
# number of rings (size 3 to 8) (size 9 to 14) (size 15 to 20)
#    0.000    1.267    4.000    2.400    3.733    1.333 
#    0.000    1.333    0.000    3.200    0.000    5.600 
#    0.000    0.000    0.000    0.000    0.000    0.000 
#
# Total GULP energy -1487280.744901 kJ/mol
# GULP energy per Si atom -12394.006208 kJ/mol
# Density = 1.912727 g / cm^3
# Si number density = 19.170904 Si / 1000 Ang^3
#
#
#
# Elastic Constant Matrix: (Units=GPa)
#
#
# Indices 1 2 3 4 5 6 
#
# 1 78.6426 40.9403 16.3363 0.0000 0.0000 0.0000
# 2 40.9403 78.6427 16.3363 0.0000 0.0000 0.0000
# 3 16.3363 16.3363 76.8341 0.0000 0.0000 0.0000
# 4 0.0000 0.0000 0.0000 43.4435 0.0000 0.0000
# 5 0.0000 0.0000 0.0000 0.0000 43.4435 0.0000
# 6 0.0000 0.0000 0.0000 0.0000 0.0000 30.6442
#
#
#
# Elastic Compliance Matrix: (Units=1/GPa)
#
#
# Indices 1 2 3 4 5 6 
#
# 1 0.017701 -0.008823 -0.001888 0.000000 0.000000 0.000000
# 2 -0.008823 0.017701 -0.001888 0.000000 0.000000 0.000000
# 3 -0.001888 -0.001888 0.013818 0.000000 0.000000 0.000000
# 4 0.000000 0.000000 0.000000 0.023018 0.000000 0.000000
# 5 0.000000 0.000000 0.000000 0.000000 0.023018 0.000000
# 6 0.000000 0.000000 0.000000 0.000000 0.000000 0.032633
#
#
# Mechanical properties :
#
#
# Convention : Reuss Voigt Hill
#
# Bulk Modulus (GPa) = 41.62601 42.37168 41.99884
# Shear Modulus (GPa) = 31.03803 34.20667 32.62235
#
# Velocity S-wave (km/s) = 4.02807 4.22868 4.12959
# Velocity P-wave (km/s) = 6.58741 6.78177 6.68530
#
# Compressibility (1/GPa) = 0.02402344
#
# Stress axis : x y z
#
# Youngs Moduli (GPa) = 56.49444 56.49445 72.37066
#
# Poissons Ratio (x) = 0.49843 0.13661
# Poissons Ratio (y) = 0.49843 0.13661
# Poissons Ratio (z) = 0.10664 0.10664
#
# Static dielectric constant tensor:
#      x y z
#    x 3.550090 0.000000 0.000000 
#    y 0.000000 3.550090 0.000000 
#    z 0.000000 0.000000 3.777820 
# 
# 
# High freq. dielectric constant tensor:
#      x y z
#    x 1.743940 0.000000 0.000000 
#    y 0.000000 1.743940 0.000000 
#    z 0.000000 0.000000 1.754280 
# 
# From -- ./inp_files/10991.got.cif
#   From: 2010.06.25/outbox.cif.g09.slc.cpg/sg140_6_cif.got.tgz:10991.got - 2010.06.28 10:53:23.
