data_PCOD8320382
_publ_section_title
;
Structure prediction by ZEFSAII (Michael W. Deem and Ramdas Pophale) SiO2 
 PCOD8320382
Probable space group: I 4/M C M
;
_chemical_formula_sum "Si O2"
_cell_formula_units_Z 176
_cell_length_a 22.826755
_cell_length_b 22.826755
_cell_length_c 17.531843
_cell_angle_alpha 90.000000
_cell_angle_beta 90.000000
_cell_angle_gamma 90.000000
_cell_volume 9135.155154
_symmetry_space_group_name_H-M "I 4/M C M"
_symmetry_group_IT_number 140
_symmetry_cell_setting 'tetragonal'
loop_
_space_group_symop_operation_xyz
x,y,z
-y,x,z
-x,-y,z
y,-x,z
x,-y,1/2-z
-x,y,1/2-z
y,x,1/2-z
-y,-x,1/2-z
-x,-y,-z
y,-x,-z
x,y,-z
-y,x,-z
-x,y,1/2+z
x,-y,1/2+z
-y,-x,1/2+z
y,x,1/2+z
1/2+x,1/2+y,1/2+z
1/2-y,1/2+x,1/2+z
1/2-x,1/2-y,1/2+z
1/2+y,1/2-x,1/2+z
1/2+x,1/2-y,-z
1/2-x,1/2+y,-z
1/2+y,1/2+x,-z
1/2-y,1/2-x,-z
1/2-x,1/2-y,1/2-z
1/2+y,1/2-x,1/2-z
1/2+x,1/2+y,1/2-z
1/2-y,1/2+x,1/2-z
1/2-x,1/2+y,z
1/2+x,1/2-y,z
1/2-y,1/2-x,z
1/2+y,1/2+x,z
loop_
_atom_site_type_symbol
_atom_site_label
_atom_site_fract_x
_atom_site_fract_y
_atom_site_fract_z
Si Si1 0.727154 0.867626 0.415043
Si Si2 0.909861 0.961006 0.000000
Si Si3 0.311325 0.282273 0.835004
Si Si4 0.485723 0.216267 0.662691
Si Si5 0.570850 0.300047 0.416460
Si Si6 0.595144 0.999053 0.587422
O O1 0.738839 0.893130 0.500000
O O2 0.665825 0.834176 0.413896
O O3 0.779721 0.824469 0.394756
O O4 0.722074 0.916796 0.350981
O O5 0.870026 0.944439 0.925201
O O6 0.969534 0.923702 0.000000
O O7 0.306229 0.306229 0.750000
O O8 0.282968 0.217033 0.839955
O O9 0.379176 0.283230 0.856353
O O10 0.500000 0.227704 0.750000
O O11 0.513468 0.267000 0.611655
O O12 0.507457 0.151831 0.639424
O O13 0.588859 0.275412 0.500000
O O14 0.614588 0.989279 0.500000
O O15 0.557939 0.057939 0.595572
O O16 0.556514 0.943487 0.614659
#
# Coordination Sequence:
#
# PCOD8320382 Si02
#       6
#    32  16  32  32  32  32
#     4  10  21  37  61  83 108 151 200 245 280 343
#     4   9  22  44  69  94 118 151 199 256 320 378
#     4  10  21  38  59  88 127 162 193 238 300 358
#     4  12  24  36  54  86 122 152 195 251 310 358
#     4  10  23  37  62  91 114 162 197 251 303 368
#     4   9  19  37  59  81 112 159 211 259 302 360
#
# _framework density 19.26623
#
# number of rings (size 3 to 8) (size 9 to 14) (size 15 to 20)
#    0.545    1.364    0.000    4.364    2.545    4.727 
#    0.000    0.909    0.000    0.000    0.000    0.000 
#    0.000    0.000    0.000    0.000    0.000    0.000 
#
# Total GULP energy -1091001.585787 kJ/mol
# GULP energy per Si atom -12397.745293 kJ/mol
# Density = 1.922238 g / cm^3
# Si number density = 19.266230 Si / 1000 Ang^3
#
#
#
# Elastic Constant Matrix: (Units=GPa)
#
#
# Indices 1 2 3 4 5 6 
#
# 1 87.9076 32.9274 27.0912 0.0000 0.0000 0.0000
# 2 32.9274 87.9076 27.0912 0.0000 0.0000 0.0000
# 3 27.0912 27.0912 87.2062 0.0000 0.0000 0.0000
# 4 0.0000 0.0000 0.0000 24.2206 0.0000 0.0000
# 5 0.0000 0.0000 0.0000 0.0000 24.2206 0.0000
# 6 0.0000 0.0000 0.0000 0.0000 0.0000 22.4992
#
#
#
# Elastic Compliance Matrix: (Units=1/GPa)
#
#
# Indices 1 2 3 4 5 6 
#
# 1 0.013902 -0.004287 -0.002987 0.000000 0.000000 0.000000
# 2 -0.004287 0.013902 -0.002987 0.000000 0.000000 0.000000
# 3 -0.002987 -0.002987 0.013323 0.000000 0.000000 0.000000
# 4 0.000000 0.000000 0.000000 0.041287 0.000000 0.000000
# 5 0.000000 0.000000 0.000000 0.000000 0.041287 0.000000
# 6 0.000000 0.000000 0.000000 0.000000 0.000000 0.044446
#
#
# Mechanical properties :
#
#
# Convention : Reuss Voigt Hill
#
# Bulk Modulus (GPa) = 48.53154 48.58237 48.55695
# Shear Modulus (GPa) = 25.57068 25.91552 25.74310
#
# Velocity S-wave (km/s) = 3.64707 3.67158 3.65934
# Velocity P-wave (km/s) = 6.55587 6.57610 6.56599
#
# Compressibility (1/GPa) = 0.02060516
#
# Stress axis : x y z
#
# Youngs Moduli (GPa) = 71.93342 71.93342 75.05849
#
# Poissons Ratio (x) = 0.30835 0.22420
# Poissons Ratio (y) = 0.30835 0.22420
# Poissons Ratio (z) = 0.21487 0.21487
#
# Static dielectric constant tensor:
#      x y z
#    x 3.456030 0.000000 0.000000 
#    y 0.000000 3.456030 0.000000 
#    z 0.000000 0.000000 3.571370 
# 
# 
# High freq. dielectric constant tensor:
#      x y z
#    x 1.749710 0.000000 0.000000 
#    y 0.000000 1.749710 0.000000 
#    z 0.000000 0.000000 1.743900 
# 
# From -- ./inp_files/4933.got.cif
#   From: 2010.06.25/outbox.cif.g09.slc.cpg/sg140_3_cif.got.tgz:4933.got - 2010.06.28 10:53:23.
