data_PCOD8320216
_publ_section_title
;
Structure prediction by ZEFSAII (Michael W. Deem and Ramdas Pophale) SiO2 
 PCOD8320216
Probable space group: I 4/M C M
;
_chemical_formula_sum "Si O2"
_cell_formula_units_Z 160
_cell_length_a 23.847979
_cell_length_b 23.847979
_cell_length_c 19.067334
_cell_angle_alpha 90.000000
_cell_angle_beta 90.000000
_cell_angle_gamma 90.000000
_cell_volume 10844.090549
_symmetry_space_group_name_H-M "I 4/M C M"
_symmetry_group_IT_number 140
_symmetry_cell_setting 'tetragonal'
loop_
_space_group_symop_operation_xyz
x,y,z
-y,x,z
-x,-y,z
y,-x,z
x,-y,1/2-z
-x,y,1/2-z
y,x,1/2-z
-y,-x,1/2-z
-x,-y,-z
y,-x,-z
x,y,-z
-y,x,-z
-x,y,1/2+z
x,-y,1/2+z
-y,-x,1/2+z
y,x,1/2+z
1/2+x,1/2+y,1/2+z
1/2-y,1/2+x,1/2+z
1/2-x,1/2-y,1/2+z
1/2+y,1/2-x,1/2+z
1/2+x,1/2-y,-z
1/2-x,1/2+y,-z
1/2+y,1/2+x,-z
1/2-y,1/2-x,-z
1/2-x,1/2-y,1/2-z
1/2+y,1/2-x,1/2-z
1/2+x,1/2+y,1/2-z
1/2-y,1/2+x,1/2-z
1/2-x,1/2+y,z
1/2+x,1/2-y,z
1/2-y,1/2-x,z
1/2+y,1/2+x,z
loop_
_atom_site_type_symbol
_atom_site_label
_atom_site_fract_x
_atom_site_fract_y
_atom_site_fract_z
Si Si1 0.734474 0.140056 0.846963
Si Si2 0.125257 0.719319 0.192756
Si Si3 0.035295 0.628875 0.180621
Si Si4 0.718961 0.313603 0.079114
Si Si5 0.060918 0.345062 0.920606
O O1 0.686921 0.186921 0.849581
O O2 0.752443 0.128065 0.766646
O O3 0.788276 0.161086 0.890513
O O4 0.710342 0.083091 0.880846
O O5 0.173721 0.673721 0.191466
O O6 0.065667 0.688848 0.186668
O O7 0.134406 0.762214 0.128219
O O8 0.079153 0.579153 0.168523
O O9 0.000000 0.616212 0.250000
O O10 0.995249 0.631165 0.113790
O O11 0.766076 0.266076 0.079371
O O12 0.708906 0.335635 0.000000
O O13 0.106962 0.393039 0.916548
O O14 0.047208 0.328254 0.000000
#
# Coordination Sequence:
#
# PCOD8320216 Si02
#       5
#    32  32  32  32  32
#     4   9  15  27  44  61  80 103 131 167 210 262
#     4   9  17  28  43  60  79 103 135 172 212 260
#     4  11  21  33  46  59  78 110 150 192 231 262
#     4   9  16  25  40  63  86 104 123 156 209 267
#     4  10  20  32  45  61  80 105 143 189 232 268
#
# _framework density 14.754581
#
# number of rings (size 3 to 8) (size 9 to 14) (size 15 to 20)
#    0.000    2.400    2.000    1.800    0.000    7.400 
#    0.000    3.000    0.000    0.000    0.000    0.000 
#    0.000    0.000    0.000    0.000    0.000    1.000 
#
# Total GULP energy -991829.466893 kJ/mol
# GULP energy per Si atom -12397.868336 kJ/mol
# Density = 1.472100 g / cm^3
# Si number density = 14.754581 Si / 1000 Ang^3
#
#
#
# Elastic Constant Matrix: (Units=GPa)
#
#
# Indices 1 2 3 4 5 6 
#
# 1 32.6921 31.8123 35.1543 0.0000 0.0000 0.0000
# 2 31.8123 32.6921 35.1543 0.0000 0.0000 0.0000
# 3 35.1543 35.1543 142.9920 0.0000 0.0000 0.0000
# 4 0.0000 0.0000 0.0000 20.8769 0.0000 0.0000
# 5 0.0000 0.0000 0.0000 0.0000 20.8769 0.0000
# 6 0.0000 0.0000 0.0000 0.0000 0.0000 20.2074
#
#
#
# Elastic Compliance Matrix: (Units=1/GPa)
#
#
# Indices 1 2 3 4 5 6 
#
# 1 0.578894 -0.557716 -0.005207 0.000000 0.000000 0.000000
# 2 -0.557716 0.578894 -0.005207 0.000000 0.000000 0.000000
# 3 -0.005207 -0.005207 0.009553 0.000000 0.000000 0.000000
# 4 0.000000 0.000000 0.000000 0.047900 0.000000 0.000000
# 5 0.000000 0.000000 0.000000 0.000000 0.047900 0.000000
# 6 0.000000 0.000000 0.000000 0.000000 0.000000 0.049487
#
#
# Mechanical properties :
#
#
# Convention : Reuss Voigt Hill
#
# Bulk Modulus (GPa) = 32.17190 45.84641 39.00916
# Shear Modulus (GPa) = 2.03314 19.47595 10.75455
#
# Velocity S-wave (km/s) = 1.17515 3.63711 2.70274
# Velocity P-wave (km/s) = 4.86758 6.98414 6.01962
#
# Compressibility (1/GPa) = 0.03108302
#
# Stress axis : x y z
#
# Youngs Moduli (GPa) = 1.72743 1.72743 104.67449
#
# Poissons Ratio (x) = 0.96342 0.54499
# Poissons Ratio (y) = 0.96342 0.54499
# Poissons Ratio (z) = 0.00899 0.00899
#
# Static dielectric constant tensor:
#      x y z
#    x 2.675750 0.000000 0.000000 
#    y 0.000000 2.675750 0.000000 
#    z 0.000000 0.000000 3.160260 
# 
# 
# High freq. dielectric constant tensor:
#      x y z
#    x 1.525620 0.000000 0.000000 
#    y 0.000000 1.525620 0.000000 
#    z 0.000000 0.000000 1.586110 
# 
# From -- ./inp_files/6854.got.cif
#   From: 2010.06.25/outbox.cif.g09.slc.cpg/sg140_4_cif.got.tgz:6854.got - 2010.06.28 10:53:23.
