data_PCOD8320177
_publ_section_title
;
Structure prediction by ZEFSAII (Michael W. Deem and Ramdas Pophale) SiO2 
 PCOD8320177
Probable space group: I 4/M C M
;
_chemical_formula_sum "Si O2"
_cell_formula_units_Z 144
_cell_length_a 18.749958
_cell_length_b 18.749958
_cell_length_c 23.641666
_cell_angle_alpha 90.000000
_cell_angle_beta 90.000000
_cell_angle_gamma 90.000000
_cell_volume 8311.485968
_symmetry_space_group_name_H-M "I 4/M C M"
_symmetry_group_IT_number 140
_symmetry_cell_setting 'tetragonal'
loop_
_space_group_symop_operation_xyz
x,y,z
-y,x,z
-x,-y,z
y,-x,z
x,-y,1/2-z
-x,y,1/2-z
y,x,1/2-z
-y,-x,1/2-z
-x,-y,-z
y,-x,-z
x,y,-z
-y,x,-z
-x,y,1/2+z
x,-y,1/2+z
-y,-x,1/2+z
y,x,1/2+z
1/2+x,1/2+y,1/2+z
1/2-y,1/2+x,1/2+z
1/2-x,1/2-y,1/2+z
1/2+y,1/2-x,1/2+z
1/2+x,1/2-y,-z
1/2-x,1/2+y,-z
1/2+y,1/2+x,-z
1/2-y,1/2-x,-z
1/2-x,1/2-y,1/2-z
1/2+y,1/2-x,1/2-z
1/2+x,1/2+y,1/2-z
1/2-y,1/2+x,1/2-z
1/2-x,1/2+y,z
1/2+x,1/2-y,z
1/2-y,1/2-x,z
1/2+y,1/2+x,z
loop_
_atom_site_type_symbol
_atom_site_label
_atom_site_fract_x
_atom_site_fract_y
_atom_site_fract_z
Si Si1 0.758676 0.625013 0.363303
Si Si2 0.141970 0.759500 0.370682
Si Si3 0.443597 0.943597 0.932753
Si Si4 0.287781 0.986736 0.933622
Si Si5 0.417053 0.699094 0.753031
O O1 0.831572 0.668429 0.371790
O O2 0.690751 0.671831 0.381392
O O3 0.758769 0.556626 0.403091
O O4 0.751721 0.603942 0.297844
O O5 0.187933 0.687933 0.375963
O O6 0.080856 0.761741 0.418576
O O7 0.104017 0.759537 0.309791
O O8 0.366420 0.967465 0.910375
O O9 0.500000 0.000000 0.908745
O O10 0.442336 0.942336 0.000000
O O11 0.286368 0.001457 0.000000
O O12 0.500000 0.680511 0.750000
O O13 0.375745 0.624256 0.750000
#
# Coordination Sequence:
#
# PCOD8320177 Si02
#       5
#    32  32  16  32  32
#     4  10  21  36  56  81 109 141 180 225 270 321
#     4  10  20  36  57  80 107 142 182 223 269 321
#     4   9  18  32  50  74 105 138 176 219 263 314
#     4  11  21  34  54  79 108 146 185 221 264 317
#     4  10  19  34  57  82 106 135 174 222 274 324
#
# _framework density 17.325420999999999
#
# number of rings (size 3 to 8) (size 9 to 14) (size 15 to 20)
#    0.000    1.889    3.333    1.333    0.000    5.111 
#    0.000    2.222    0.000    0.667    0.000    3.111 
#    0.000    0.000    0.000    0.000    0.000    0.000 
#
# Total GULP energy -892946.597707 kJ/mol
# GULP energy per Si atom -12402.036079 kJ/mol
# Density = 1.728599 g / cm^3
# Si number density = 17.325421 Si / 1000 Ang^3
#
#
#
# Elastic Constant Matrix: (Units=GPa)
#
#
# Indices 1 2 3 4 5 6 
#
# 1 108.8934 46.0235 39.7479 0.0000 0.0000 0.0000
# 2 46.0235 108.8925 39.7485 0.0000 0.0000 0.0000
# 3 39.7479 39.7485 70.5550 0.0000 0.0000 0.0000
# 4 0.0000 0.0000 0.0000 23.8886 0.0000 0.0000
# 5 0.0000 0.0000 0.0000 0.0000 23.8887 0.0000
# 6 0.0000 0.0000 0.0000 0.0000 0.0000 20.7807
#
#
#
# Elastic Compliance Matrix: (Units=1/GPa)
#
#
# Indices 1 2 3 4 5 6 
#
# 1 0.012493 -0.003413 -0.005115 0.000000 0.000000 0.000000
# 2 -0.003413 0.012493 -0.005116 0.000000 0.000000 0.000000
# 3 -0.005115 -0.005116 0.019937 0.000000 0.000000 0.000000
# 4 0.000000 0.000000 0.000000 0.041861 0.000000 0.000000
# 5 0.000000 0.000000 0.000000 0.000000 0.041861 0.000000
# 6 0.000000 0.000000 0.000000 0.000000 0.000000 0.048122
#
#
# Mechanical properties :
#
#
# Convention : Reuss Voigt Hill
#
# Bulk Modulus (GPa) = 56.70354 59.93121 58.31738
# Shear Modulus (GPa) = 23.81717 24.56632 24.19174
#
# Velocity S-wave (km/s) = 3.71171 3.76963 3.74078
# Velocity P-wave (km/s) = 7.15323 7.32212 7.23816
#
# Compressibility (1/GPa) = 0.01763558
#
# Stress axis : x y z
#
# Youngs Moduli (GPa) = 80.04531 80.04385 50.15787
#
# Poissons Ratio (x) = 0.27318 0.25657
# Poissons Ratio (y) = 0.27319 0.25659
# Poissons Ratio (z) = 0.40945 0.40947
#
# Static dielectric constant tensor:
#      x y z
#    x 3.262520 0.000000 0.000000 
#    y 0.000000 3.262520 0.000000 
#    z 0.000000 0.000000 3.124730 
# 
# 
# High freq. dielectric constant tensor:
#      x y z
#    x 1.672970 0.000000 0.000000 
#    y 0.000000 1.672970 0.000000 
#    z 0.000000 0.000000 1.662210 
# 
# From -- ./inp_files/9405.got.cif
#   From: 2010.06.25/outbox.cif.g09.slc.cpg/sg140_5_cif.got.tgz:9405.got - 2010.06.28 10:53:23.
