data_PCOD8320541
_publ_section_title
;
Structure prediction by ZEFSAII (Michael W. Deem and Ramdas Pophale) SiO2 
 PCOD8320541
Probable space group: I 41/A M D
;
_chemical_formula_sum "Si O2"
_cell_formula_units_Z 128
_cell_length_a 18.994432
_cell_length_b 18.994432
_cell_length_c 20.655143
_cell_angle_alpha 90.000000
_cell_angle_beta 90.000000
_cell_angle_gamma 90.000000
_cell_volume 7452.136966
_symmetry_space_group_name_H-M "I 41/A M D"
_symmetry_group_IT_number 141
_space_group.IT_coordinate_system_code '2'
_symmetry_cell_setting 'tetragonal'
loop_
_space_group_symop_operation_xyz
x,y,z
1/4-y,3/4+x,1/4+z
-x,1/2-y,z
1/4+y,1/4-x,3/4+z
x,-y,-z
-x,1/2+y,-z
1/4+y,3/4+x,1/4-z
1/4-y,1/4-x,3/4-z
-x,-y,-z
3/4+y,1/4-x,3/4-z
x,1/2+y,-z
3/4-y,3/4+x,1/4-z
-x,y,z
x,1/2-y,z
3/4-y,1/4-x,3/4+z
3/4+y,3/4+x,1/4+z
1/2+x,1/2+y,1/2+z
3/4-y,1/4+x,3/4+z
1/2-x,-y,1/2+z
3/4+y,3/4-x,1/4+z
1/2+x,1/2-y,1/2-z
1/2-x,y,1/2-z
3/4+y,1/4+x,3/4-z
3/4-y,3/4-x,1/4-z
1/2-x,1/2-y,1/2-z
1/4+y,3/4-x,1/4-z
1/2+x,y,1/2-z
1/4-y,1/4+x,3/4-z
1/2-x,1/2+y,1/2+z
1/2+x,-y,1/2+z
1/4-y,3/4-x,1/4+z
1/4+y,1/4+x,3/4+z
loop_
_atom_site_type_symbol
_atom_site_label
_atom_site_fract_x
_atom_site_fract_y
_atom_site_fract_z
Si Si1 0.417821 0.918280 0.001319
Si Si2 0.610676 0.750000 0.395672
Si Si3 0.583012 0.750000 0.539381
Si Si4 0.922196 0.127578 0.132727
Si Si5 0.918993 0.668993 0.625000
Si Si6 0.757740 0.750000 0.326261
O O1 0.500000 0.907832 0.016996
O O2 0.398023 0.882021 0.933672
O O3 0.372929 0.881096 0.057507
O O4 0.396843 0.000000 0.000000
O O5 0.569618 0.680382 0.375000
O O6 0.625186 0.750000 0.472282
O O7 0.683157 0.750000 0.358853
O O8 0.500000 0.750000 0.522859
O O9 0.606786 0.818492 0.579136
O O10 0.000000 0.153970 0.156742
O O11 0.930280 0.050877 0.099278
O O12 0.906986 0.750000 0.603959
O O13 0.750000 0.750000 0.250000
#
# Coordination Sequence:
#
# PCOD8320541 Si02
#       6
#    32  16  16  32  16  16
#     4  10  19  34  54  84 112 146 186 232 276 329
#     4  11  20  34  58  82 108 131 183 236 291 334
#     4  10  16  32  55  86 102 136 177 237 277 324
#     4   9  19  33  58  79 113 143 186 230 280 337
#     4   9  18  32  56  78 108 142 182 234 279 322
#     4  10  21  36  57  83 110 145 183 230 283 343
#
# _framework density 17.176280999999999
#
# number of rings (size 3 to 8) (size 9 to 14) (size 15 to 20)
#    0.750    1.500    2.500    2.250    0.000    1.000 
#    4.500    0.000    2.750    0.000    0.000    0.000 
#    0.000    0.000    0.000    0.000    0.000    0.000 
#
# Total GULP energy -793481.260923 kJ/mol
# GULP energy per Si atom -12398.144702 kJ/mol
# Density = 1.713719 g / cm^3
# Si number density = 17.176281 Si / 1000 Ang^3
#
#
#
# Elastic Constant Matrix: (Units=GPa)
#
#
# Indices 1 2 3 4 5 6 
#
# 1 106.7768 42.4220 73.8734 0.0000 0.0000 0.0000
# 2 42.4220 106.7774 73.8738 0.0000 0.0000 0.0000
# 3 73.8734 73.8738 166.2585 0.0000 0.0000 0.0000
# 4 0.0000 0.0000 0.0000 25.5373 0.0000 0.0000
# 5 0.0000 0.0000 0.0000 0.0000 25.5383 0.0000
# 6 0.0000 0.0000 0.0000 0.0000 0.0000 13.0713
#
#
#
# Elastic Compliance Matrix: (Units=1/GPa)
#
#
# Indices 1 2 3 4 5 6 
#
# 1 0.013754 -0.001785 -0.005318 0.000000 0.000000 0.000000
# 2 -0.001785 0.013754 -0.005318 0.000000 0.000000 0.000000
# 3 -0.005318 -0.005318 0.010741 0.000000 0.000000 0.000000
# 4 0.000000 0.000000 0.000000 0.039158 0.000000 0.000000
# 5 0.000000 0.000000 0.000000 0.000000 0.039157 0.000000
# 6 0.000000 0.000000 0.000000 0.000000 0.000000 0.076503
#
#
# Mechanical properties :
#
#
# Convention : Reuss Voigt Hill
#
# Bulk Modulus (GPa) = 74.59390 84.46123 79.52756
# Shear Modulus (GPa) = 22.48424 25.47228 23.97826
#
# Velocity S-wave (km/s) = 3.62197 3.85514 3.74037
# Velocity P-wave (km/s) = 7.81117 8.31240 8.06568
#
# Compressibility (1/GPa) = 0.01340592
#
# Stress axis : x y z
#
# Youngs Moduli (GPa) = 72.70707 72.70742 93.10374
#
# Poissons Ratio (x) = 0.12978 0.49513
# Poissons Ratio (y) = 0.12978 0.49513
# Poissons Ratio (z) = 0.38666 0.38666
#
# Static dielectric constant tensor:
#      x y z
#    x 2.999620 0.000000 0.000000 
#    y 0.000000 2.999590 0.000000 
#    z 0.000000 0.000000 3.270640 
# 
# 
# High freq. dielectric constant tensor:
#      x y z
#    x 1.639050 0.000000 0.000000 
#    y 0.000000 1.639050 0.000000 
#    z 0.000000 0.000000 1.675990 
# 
# From -- ./inp_files/8342.got.cif
#   From: 2010.03.12/outbox.cif.g09.slc.cpg/sg141_5_cif.got.tgz:8342.got - 2010.04.03 13:18:35.
