data_PCOD8320579
_publ_section_title
;
Structure prediction by ZEFSAII (Michael W. Deem and Ramdas Pophale) SiO2 
 PCOD8320579
Probable space group: I 41/A M D
;
_chemical_formula_sum "Si O2"
_cell_formula_units_Z 160
_cell_length_a 27.314445
_cell_length_b 27.314445
_cell_length_c 11.962736
_cell_angle_alpha 90.000000
_cell_angle_beta 90.000000
_cell_angle_gamma 90.000000
_cell_volume 8925.144984
_symmetry_space_group_name_H-M "I 41/A M D"
_symmetry_group_IT_number 141
_space_group.IT_coordinate_system_code '2'
_symmetry_cell_setting 'tetragonal'
loop_
_space_group_symop_operation_xyz
x,y,z
1/4-y,3/4+x,1/4+z
-x,1/2-y,z
1/4+y,1/4-x,3/4+z
x,-y,-z
-x,1/2+y,-z
1/4+y,3/4+x,1/4-z
1/4-y,1/4-x,3/4-z
-x,-y,-z
3/4+y,1/4-x,3/4-z
x,1/2+y,-z
3/4-y,3/4+x,1/4-z
-x,y,z
x,1/2-y,z
3/4-y,1/4-x,3/4+z
3/4+y,3/4+x,1/4+z
1/2+x,1/2+y,1/2+z
3/4-y,1/4+x,3/4+z
1/2-x,-y,1/2+z
3/4+y,3/4-x,1/4+z
1/2+x,1/2-y,1/2-z
1/2-x,y,1/2-z
3/4+y,1/4+x,3/4-z
3/4-y,3/4-x,1/4-z
1/2-x,1/2-y,1/2-z
1/4+y,3/4-x,1/4-z
1/2+x,y,1/2-z
1/4-y,1/4+x,3/4-z
1/2-x,1/2+y,1/2+z
1/2+x,-y,1/2+z
1/4-y,3/4-x,1/4+z
1/4+y,1/4+x,3/4+z
loop_
_atom_site_type_symbol
_atom_site_label
_atom_site_fract_x
_atom_site_fract_y
_atom_site_fract_z
Si Si1 0.128127 0.805404 0.806499
Si Si2 0.558300 0.024487 0.814207
Si Si3 0.135018 0.808826 0.372936
Si Si4 0.445053 0.451716 0.572259
Si Si5 0.598775 0.077135 0.150765
O O1 0.114776 0.750000 0.826001
O O2 0.178971 0.820876 0.861833
O O3 0.082088 0.831616 0.864823
O O4 0.135644 0.816780 0.675620
O O5 0.500000 0.011638 0.812645
O O6 0.580419 0.037584 0.691290
O O7 0.588422 0.980076 0.872423
O O8 0.134044 0.750000 0.382082
O O9 0.157810 0.826696 0.253945
O O10 0.167552 0.831909 0.471346
O O11 0.443389 0.500000 0.500000
O O12 0.500000 0.436453 0.602958
O O13 0.655470 0.094531 0.125000
#
# Coordination Sequence:
#
# PCOD8320579 Si02
#       5
#    32  32  32  32  32
#     4  10  21  32  46  73 106 140 173 203 249 311
#     4  10  18  31  51  72  99 130 166 214 259 296
#     4  10  19  32  50  73 102 134 173 216 252 300
#     4   9  16  28  50  74  92 120 164 210 256 292
#     4  10  19  31  49  74 101 129 167 212 261 307
#
# _framework density 17.926880000000001
#
# number of rings (size 3 to 8) (size 9 to 14) (size 15 to 20)
#    0.000    2.200    2.000    2.400    0.000    2.800 
#    0.000    0.000    0.000    3.600    0.000   11.200 
#    0.000    0.000    0.000    0.000    0.000    0.000 
#
# Total GULP energy -991131.566695 kJ/mol
# GULP energy per Si atom -12389.144584 kJ/mol
# Density = 1.788608 g / cm^3
# Si number density = 17.926880 Si / 1000 Ang^3
#
#
#
# Elastic Constant Matrix: (Units=GPa)
#
#
# Indices 1 2 3 4 5 6 
#
# 1 47.9943 26.7513 22.1549 0.0000 0.0000 0.0000
# 2 26.7513 47.9962 22.1557 0.0000 0.0000 0.0000
# 3 22.1549 22.1557 76.4908 0.0000 0.0000 0.0000
# 4 0.0000 0.0000 0.0000 23.2056 0.0000 0.0000
# 5 0.0000 0.0000 0.0000 0.0000 23.2055 0.0000
# 6 0.0000 0.0000 0.0000 0.0000 0.0000 24.7194
#
#
#
# Elastic Compliance Matrix: (Units=1/GPa)
#
#
# Indices 1 2 3 4 5 6 
#
# 1 0.031613 -0.015460 -0.004678 0.000000 0.000000 0.000000
# 2 -0.015460 0.031612 -0.004678 0.000000 0.000000 0.000000
# 3 -0.004678 -0.004678 0.015784 0.000000 0.000000 0.000000
# 4 0.000000 0.000000 0.000000 0.043093 0.000000 0.000000
# 5 0.000000 0.000000 0.000000 0.000000 0.043093 0.000000
# 6 0.000000 0.000000 0.000000 0.000000 0.000000 0.040454
#
#
# Mechanical properties :
#
#
# Convention : Reuss Voigt Hill
#
# Bulk Modulus (GPa) = 34.04367 34.95613 34.49990
# Shear Modulus (GPa) = 18.86269 20.98737 19.92503
#
# Velocity S-wave (km/s) = 3.24728 3.42529 3.33748
# Velocity P-wave (km/s) = 5.75251 5.93170 5.84279
#
# Compressibility (1/GPa) = 0.02937404
#
# Stress axis : x y z
#
# Youngs Moduli (GPa) = 31.63287 31.63396 63.35683
#
# Poissons Ratio (x) = 0.48907 0.29640
# Poissons Ratio (y) = 0.48905 0.29641
# Poissons Ratio (z) = 0.14799 0.14800
#
# Static dielectric constant tensor:
#      x y z
#    x 3.231640 0.000000 0.000000 
#    y 0.000000 3.231640 0.000000 
#    z 0.000000 0.000000 3.639690 
# 
# 
# High freq. dielectric constant tensor:
#      x y z
#    x 1.667160 0.000000 0.000000 
#    y 0.000000 1.667160 0.000000 
#    z 0.000000 0.000000 1.714650 
# 
# From -- ./inp_files/4854.got.cif
#   From: 2010.03.12/outbox.cif.g09.slc.cpg/sg141_3_cif.got.tgz:4854.got - 2010.04.03 13:18:35.
