data_PCOD8320591
_publ_section_title
;
Structure prediction by ZEFSAII (Michael W. Deem and Ramdas Pophale) SiO2 
 PCOD8320591
Probable space group: I 41/A M D
;
_chemical_formula_sum "Si O2"
_cell_formula_units_Z 192
_cell_length_a 22.798829
_cell_length_b 22.798829
_cell_length_c 19.462633
_cell_angle_alpha 90.000000
_cell_angle_beta 90.000000
_cell_angle_gamma 90.000000
_cell_volume 10116.415908
_symmetry_space_group_name_H-M "I 41/A M D"
_symmetry_group_IT_number 141
_space_group.IT_coordinate_system_code '2'
_symmetry_cell_setting 'tetragonal'
loop_
_space_group_symop_operation_xyz
x,y,z
1/4-y,3/4+x,1/4+z
-x,1/2-y,z
1/4+y,1/4-x,3/4+z
x,-y,-z
-x,1/2+y,-z
1/4+y,3/4+x,1/4-z
1/4-y,1/4-x,3/4-z
-x,-y,-z
3/4+y,1/4-x,3/4-z
x,1/2+y,-z
3/4-y,3/4+x,1/4-z
-x,y,z
x,1/2-y,z
3/4-y,1/4-x,3/4+z
3/4+y,3/4+x,1/4+z
1/2+x,1/2+y,1/2+z
3/4-y,1/4+x,3/4+z
1/2-x,-y,1/2+z
3/4+y,3/4-x,1/4+z
1/2+x,1/2-y,1/2-z
1/2-x,y,1/2-z
3/4+y,1/4+x,3/4-z
3/4-y,3/4-x,1/4-z
1/2-x,1/2-y,1/2-z
1/4+y,3/4-x,1/4-z
1/2+x,y,1/2-z
1/4-y,1/4+x,3/4-z
1/2-x,1/2+y,1/2+z
1/2+x,-y,1/2+z
1/4-y,3/4-x,1/4+z
1/4+y,1/4+x,3/4+z
loop_
_atom_site_type_symbol
_atom_site_label
_atom_site_fract_x
_atom_site_fract_y
_atom_site_fract_z
Si Si1 0.064505 0.534285 0.069822
Si Si2 0.266928 0.750000 0.670906
Si Si3 0.654007 0.750000 0.474102
Si Si4 0.646129 0.849189 0.627940
Si Si5 0.105273 0.962976 0.807607
Si Si6 0.000000 0.318079 0.655776
Si Si7 0.221241 0.250000 0.464264
Si Si8 0.627769 0.913166 0.280731
O O1 0.069368 0.482816 0.125652
O O2 0.119058 0.580012 0.071532
O O3 0.000000 0.564941 0.076943
O O4 0.069165 0.500000 0.000000
O O5 0.250000 0.750000 0.750000
O O6 0.300088 0.689508 0.653979
O O7 0.210682 0.750000 0.618572
O O8 0.594426 0.750000 0.517315
O O9 0.707501 0.750000 0.528625
O O10 0.658994 0.688175 0.431971
O O11 0.643552 0.905544 0.677322
O O12 0.588091 0.808661 0.634471
O O13 0.649376 0.871277 0.549360
O O14 0.058944 0.945520 0.748129
O O15 0.147446 0.018434 0.786986
O O16 0.000000 0.250000 0.663894
#
# Coordination Sequence:
#
# PCOD8320591 Si02
#       8
#    32  16  16  32  32  16  16  32
#     4  11  22  33  51  87 120 160 207 248 287 341
#     4  11  21  44  71  84 110 149 195 252 309 383
#     4   8  16  33  53  73 112 154 197 240 289 348
#     4  10  20  37  58  90 117 151 197 249 305 363
#     4  11  20  35  60  81 121 160 203 242 297 356
#     4   9  17  28  51  87 121 139 186 245 306 350
#     4  10  18  37  60  87 113 159 195 236 298 362
#     4  10  19  36  56  79 120 160 205 250 294 349
#
# _framework density 18.979054000000001
#
# number of rings (size 3 to 8) (size 9 to 14) (size 15 to 20)
#    0.000    1.833    7.500    0.500    1.167    2.667 
#    0.000    1.667    0.000    0.000    0.000    0.000 
#    0.000    0.000    0.000    0.000    0.000    0.000 
#
# Total GULP energy -1189445.738041 kJ/mol
# GULP energy per Si atom -12390.059771 kJ/mol
# Density = 1.893586 g / cm^3
# Si number density = 18.979054 Si / 1000 Ang^3
#
#
#
# Elastic Constant Matrix: (Units=GPa)
#
#
# Indices 1 2 3 4 5 6 
#
# 1 92.4073 40.1454 19.5184 0.0000 0.0000 0.0000
# 2 40.1454 92.4073 19.5184 0.0000 0.0000 0.0000
# 3 19.5184 19.5184 80.6999 0.0000 0.0000 0.0000
# 4 0.0000 0.0000 0.0000 22.1923 0.0000 0.0000
# 5 0.0000 0.0000 0.0000 0.0000 22.1923 0.0000
# 6 0.0000 0.0000 0.0000 0.0000 0.0000 18.6919
#
#
#
# Elastic Compliance Matrix: (Units=1/GPa)
#
#
# Indices 1 2 3 4 5 6 
#
# 1 0.013629 -0.005506 -0.001965 0.000000 0.000000 0.000000
# 2 -0.005506 0.013629 -0.001965 0.000000 0.000000 0.000000
# 3 -0.001965 -0.001965 0.013342 0.000000 0.000000 0.000000
# 4 0.000000 0.000000 0.000000 0.045061 0.000000 0.000000
# 5 0.000000 0.000000 0.000000 0.000000 0.045061 0.000000
# 6 0.000000 0.000000 0.000000 0.000000 0.000000 0.053499
#
#
# Mechanical properties :
#
#
# Convention : Reuss Voigt Hill
#
# Bulk Modulus (GPa) = 46.02143 47.09766 46.55954
# Shear Modulus (GPa) = 23.77191 25.03748 24.40470
#
# Velocity S-wave (km/s) = 3.54296 3.63604 3.58980
# Velocity P-wave (km/s) = 6.40608 6.51899 6.46278
#
# Compressibility (1/GPa) = 0.02172901
#
# Stress axis : x y z
#
# Youngs Moduli (GPa) = 73.37533 73.37533 74.95175
#
# Poissons Ratio (x) = 0.40399 0.14725
# Poissons Ratio (y) = 0.40399 0.14725
# Poissons Ratio (z) = 0.14415 0.14415
#
# Static dielectric constant tensor:
#      x y z
#    x 3.476210 0.000000 0.000000 
#    y 0.000000 3.476210 0.000000 
#    z 0.000000 0.000000 3.615130 
# 
# 
# High freq. dielectric constant tensor:
#      x y z
#    x 1.720060 0.000000 0.000000 
#    y 0.000000 1.720060 0.000000 
#    z 0.000000 0.000000 1.738110 
# 
# From -- ./inp_files/10508.got.cif
#   From: 2010.03.12/outbox.cif.g09.slc.cpg/sg141_6_cif.got.tgz:10508.got - 2010.04.03 13:18:35.
