data_PCOD8320752
_publ_section_title
;
Structure prediction by ZEFSAII (Michael W. Deem and Ramdas Pophale) SiO2 
 PCOD8320752
Probable space group: I 41/A M D
;
_chemical_formula_sum "Si O2"
_cell_formula_units_Z 132
_cell_length_a 20.777876
_cell_length_b 20.777876
_cell_length_c 14.366404
_cell_angle_alpha 90.000000
_cell_angle_beta 90.000000
_cell_angle_gamma 90.000000
_cell_volume 6202.265818
_symmetry_space_group_name_H-M "I 41/A M D"
_symmetry_group_IT_number 141
_space_group.IT_coordinate_system_code '2'
_symmetry_cell_setting 'tetragonal'
loop_
_space_group_symop_operation_xyz
x,y,z
1/4-y,3/4+x,1/4+z
-x,1/2-y,z
1/4+y,1/4-x,3/4+z
x,-y,-z
-x,1/2+y,-z
1/4+y,3/4+x,1/4-z
1/4-y,1/4-x,3/4-z
-x,-y,-z
3/4+y,1/4-x,3/4-z
x,1/2+y,-z
3/4-y,3/4+x,1/4-z
-x,y,z
x,1/2-y,z
3/4-y,1/4-x,3/4+z
3/4+y,3/4+x,1/4+z
1/2+x,1/2+y,1/2+z
3/4-y,1/4+x,3/4+z
1/2-x,-y,1/2+z
3/4+y,3/4-x,1/4+z
1/2+x,1/2-y,1/2-z
1/2-x,y,1/2-z
3/4+y,1/4+x,3/4-z
3/4-y,3/4-x,1/4-z
1/2-x,1/2-y,1/2-z
1/4+y,3/4-x,1/4-z
1/2+x,y,1/2-z
1/4-y,1/4+x,3/4-z
1/2-x,1/2+y,1/2+z
1/2+x,-y,1/2+z
1/4-y,3/4-x,1/4+z
1/4+y,1/4+x,3/4+z
loop_
_atom_site_type_symbol
_atom_site_label
_atom_site_fract_x
_atom_site_fract_y
_atom_site_fract_z
Si Si1 0.123028 0.549072 0.693057
Si Si2 0.358033 0.750000 0.863415
Si Si3 0.139297 0.324163 0.625721
Si Si4 0.000000 0.822358 0.423823
Si Si5 0.000000 0.750000 0.625000
Si Si6 0.826787 0.928245 0.016862
O O1 0.181932 0.568069 0.625000
O O2 0.059946 0.562551 0.633261
O O3 0.117746 0.590447 0.787730
O O4 0.129365 0.474427 0.720885
O O5 0.375898 0.750000 0.755060
O O6 0.426149 0.750000 0.921928
O O7 0.162404 0.250000 0.613258
O O8 0.170749 0.353868 0.718094
O O9 0.062457 0.328772 0.640414
O O10 0.000000 0.750000 0.471887
O O11 0.836483 0.913518 0.125000
O O12 0.800387 0.000000 0.000000
#
# Coordination Sequence:
#
# PCOD8320752 Si02
#       6
#    32  16  32  16   4  32
#     4  12  24  39  68 107 140 181 233 280 344 440
#     4  12  20  35  66 108 148 192 219 267 351 437
#     4  11  24  45  72 105 137 187 238 284 356 442
#     4  10  20  41  69 105 154 188 219 275 364 438
#     4  12  16  32  60 104 160 196 210 256 356 428
#     4  12  27  51  72  91 134 193 244 309 369 414
#
# _framework density 21.282544999999999
#
# number of rings (size 3 to 8) (size 9 to 14) (size 15 to 20)
#    0.000    0.485    7.879    0.727    0.000    1.455 
#    4.364    1.212    0.000    0.000    0.000    0.000 
#    0.000    0.000    0.000    0.000    0.000    0.000 
#
# Total GULP energy -818127.855634 kJ/mol
# GULP energy per Si atom -12395.876601 kJ/mol
# Density = 2.123411 g / cm^3
# Si number density = 21.282545 Si / 1000 Ang^3
#
#
#
# Elastic Constant Matrix: (Units=GPa)
#
#
# Indices 1 2 3 4 5 6 
#
# 1 91.9792 45.8939 37.3349 0.0000 0.0000 0.0000
# 2 45.8939 91.9798 37.3353 0.0000 0.0000 0.0000
# 3 37.3349 37.3353 131.1779 0.0000 0.0000 0.0000
# 4 0.0000 0.0000 0.0000 31.2114 0.0000 0.0000
# 5 0.0000 0.0000 0.0000 0.0000 31.2111 0.0000
# 6 0.0000 0.0000 0.0000 0.0000 0.0000 34.5823
#
#
#
# Elastic Compliance Matrix: (Units=1/GPa)
#
#
# Indices 1 2 3 4 5 6 
#
# 1 0.015137 -0.006562 -0.002440 0.000000 0.000000 0.000000
# 2 -0.006562 0.015137 -0.002441 0.000000 0.000000 0.000000
# 3 -0.002440 -0.002441 0.009012 0.000000 0.000000 0.000000
# 4 0.000000 0.000000 0.000000 0.032040 0.000000 0.000000
# 5 0.000000 0.000000 0.000000 0.000000 0.032040 0.000000
# 6 0.000000 0.000000 0.000000 0.000000 0.000000 0.028917
#
#
# Mechanical properties :
#
#
# Convention : Reuss Voigt Hill
#
# Bulk Modulus (GPa) = 60.97572 61.80724 61.39148
# Shear Modulus (GPa) = 31.12654 32.37247 31.74950
#
# Velocity S-wave (km/s) = 3.82846 3.90433 3.86659
# Velocity P-wave (km/s) = 6.94663 7.03061 6.98874
#
# Compressibility (1/GPa) = 0.01639997
#
# Stress axis : x y z
#
# Youngs Moduli (GPa) = 66.06415 66.06451 110.95779
#
# Poissons Ratio (x) = 0.43351 0.27079
# Poissons Ratio (y) = 0.43351 0.27079
# Poissons Ratio (z) = 0.16123 0.16123
#
# Static dielectric constant tensor:
#      x y z
#    x 3.872020 0.000000 0.000000 
#    y 0.000000 3.872030 0.000000 
#    z 0.000000 0.000000 3.696220 
# 
# 
# High freq. dielectric constant tensor:
#      x y z
#    x 1.831830 0.000000 0.000000 
#    y 0.000000 1.831830 0.000000 
#    z 0.000000 0.000000 1.824360 
# 
# From -- ./inp_files/6290.got.cif
#   From: 2010.03.12/outbox.cif.g09.slc.cpg/sg141_4_cif.got.tgz:6290.got - 2010.04.03 13:18:35.
