data_PCOD8320908
_publ_section_title
;
Structure prediction by ZEFSAII (Michael W. Deem and Ramdas Pophale) SiO2 
 PCOD8320908
Probable space group: I 41/A M D
;
_chemical_formula_sum "Si O2"
_cell_formula_units_Z 112
_cell_length_a 19.187967
_cell_length_b 19.187967
_cell_length_c 16.016890
_cell_angle_alpha 90.000000
_cell_angle_beta 90.000000
_cell_angle_gamma 90.000000
_cell_volume 5897.067769
_symmetry_space_group_name_H-M "I 41/A M D"
_symmetry_group_IT_number 141
_space_group.IT_coordinate_system_code '2'
_symmetry_cell_setting 'tetragonal'
loop_
_space_group_symop_operation_xyz
x,y,z
1/4-y,3/4+x,1/4+z
-x,1/2-y,z
1/4+y,1/4-x,3/4+z
x,-y,-z
-x,1/2+y,-z
1/4+y,3/4+x,1/4-z
1/4-y,1/4-x,3/4-z
-x,-y,-z
3/4+y,1/4-x,3/4-z
x,1/2+y,-z
3/4-y,3/4+x,1/4-z
-x,y,z
x,1/2-y,z
3/4-y,1/4-x,3/4+z
3/4+y,3/4+x,1/4+z
1/2+x,1/2+y,1/2+z
3/4-y,1/4+x,3/4+z
1/2-x,-y,1/2+z
3/4+y,3/4-x,1/4+z
1/2+x,1/2-y,1/2-z
1/2-x,y,1/2-z
3/4+y,1/4+x,3/4-z
3/4-y,3/4-x,1/4-z
1/2-x,1/2-y,1/2-z
1/4+y,3/4-x,1/4-z
1/2+x,y,1/2-z
1/4-y,1/4+x,3/4-z
1/2-x,1/2+y,1/2+z
1/2+x,-y,1/2+z
1/4-y,3/4-x,1/4+z
1/4+y,1/4+x,3/4+z
loop_
_atom_site_type_symbol
_atom_site_label
_atom_site_fract_x
_atom_site_fract_y
_atom_site_fract_z
Si Si1 0.000000 0.831408 0.860337
Si Si2 0.352551 0.379694 0.393729
Si Si3 0.500000 0.488170 0.904802
Si Si4 0.739447 0.068812 0.543950
Si Si5 0.393836 0.250000 0.086694
O O1 0.067279 0.860242 0.909400
O O2 0.000000 0.850096 0.762683
O O3 0.000000 0.750000 0.870027
O O4 0.308275 0.316953 0.359293
O O5 0.313487 0.395158 0.480277
O O6 0.358823 0.441684 0.324975
O O7 0.500000 0.561493 0.855762
O O8 0.500000 0.500000 0.000000
O O9 0.693688 0.056313 0.625000
O O10 0.769097 0.000000 0.500000
O O11 0.431038 0.181038 0.125000
#
# Coordination Sequence:
#
# PCOD8320908 Si02
#       5
#    16  32  16  32  16
#     4  12  22  40  58  81 123 161 201 249 301 356
#     4  11  22  39  61  89 121 160 203 252 305 364
#     4  12  23  34  58  91 125 166 205 240 298 366
#     4   9  20  40  63  89 119 152 199 257 304 358
#     4  11  22  38  56  87 129 170 202 247 295 362
#
# _framework density 18.992491000000001
#
# number of rings (size 3 to 8) (size 9 to 14) (size 15 to 20)
#    0.000    1.286    2.857    4.286    0.000    3.429 
#    0.000    7.857    0.000    0.000    0.000    0.000 
#    0.000    0.000    0.000    0.000    0.000    0.000 
#
# Total GULP energy -693846.206928 kJ/mol
# GULP energy per Si atom -12390.110838 kJ/mol
# Density = 1.894926 g / cm^3
# Si number density = 18.992491 Si / 1000 Ang^3
#
#
#
# Elastic Constant Matrix: (Units=GPa)
#
#
# Indices 1 2 3 4 5 6 
#
# 1 151.1926 78.5250 50.5142 0.0000 0.0000 0.0000
# 2 78.5250 151.1915 50.5152 0.0000 0.0000 0.0000
# 3 50.5142 50.5152 108.3131 0.0000 0.0000 0.0000
# 4 0.0000 0.0000 0.0000 7.5562 0.0000 0.0000
# 5 0.0000 0.0000 0.0000 0.0000 7.5574 0.0000
# 6 0.0000 0.0000 0.0000 0.0000 0.0000 35.3943
#
#
#
# Elastic Compliance Matrix: (Units=1/GPa)
#
#
# Indices 1 2 3 4 5 6 
#
# 1 0.009619 -0.004142 -0.002554 0.000000 0.000000 0.000000
# 2 -0.004142 0.009619 -0.002554 0.000000 0.000000 0.000000
# 3 -0.002554 -0.002554 0.011615 0.000000 0.000000 0.000000
# 4 0.000000 0.000000 0.000000 0.132341 0.000000 0.000000
# 5 0.000000 0.000000 0.000000 0.000000 0.132321 0.000000
# 6 0.000000 0.000000 0.000000 0.000000 0.000000 0.028253
#
#
# Mechanical properties :
#
#
# Convention : Reuss Voigt Hill
#
# Bulk Modulus (GPa) = 80.96259 85.53402 83.24830
# Shear Modulus (GPa) = 14.43478 25.51111 19.97294
#
# Velocity S-wave (km/s) = 2.75985 3.66897 3.24639
# Velocity P-wave (km/s) = 7.27165 7.94242 7.61442
#
# Compressibility (1/GPa) = 0.01235138
#
# Stress axis : x y z
#
# Youngs Moduli (GPa) = 103.96242 103.96072 86.09681
#
# Poissons Ratio (x) = 0.43065 0.21989
# Poissons Ratio (y) = 0.43066 0.21991
# Poissons Ratio (z) = 0.26552 0.26554
#
# Static dielectric constant tensor:
#      x y z
#    x 3.518280 0.000000 0.000000 
#    y 0.000000 3.518300 0.000000 
#    z 0.000000 0.000000 3.276960 
# 
# 
# High freq. dielectric constant tensor:
#      x y z
#    x 1.745920 0.000000 0.000000 
#    y 0.000000 1.745920 0.000000 
#    z 0.000000 0.000000 1.737880 
# 
# From -- ./inp_files/7984.got.cif
#   From: 2010.03.12/outbox.cif.g09.slc.cpg/sg141_4_cif.got.tgz:7984.got - 2010.04.03 13:18:35.
