data_PCOD8320475
_publ_section_title
;
Structure prediction by ZEFSAII (Michael W. Deem and Ramdas Pophale) SiO2 
 PCOD8320475
Probable space group: I 4/M C M
;
_chemical_formula_sum "Si O2"
_cell_formula_units_Z 112
_cell_length_a 15.068083
_cell_length_b 15.068083
_cell_length_c 24.288908
_cell_angle_alpha 90.000000
_cell_angle_beta 90.000000
_cell_angle_gamma 90.000000
_cell_volume 5514.726738
_symmetry_space_group_name_H-M "I 4/M C M"
_symmetry_group_IT_number 140
_symmetry_cell_setting 'tetragonal'
loop_
_space_group_symop_operation_xyz
x,y,z
-y,x,z
-x,-y,z
y,-x,z
x,-y,1/2-z
-x,y,1/2-z
y,x,1/2-z
-y,-x,1/2-z
-x,-y,-z
y,-x,-z
x,y,-z
-y,x,-z
-x,y,1/2+z
x,-y,1/2+z
-y,-x,1/2+z
y,x,1/2+z
1/2+x,1/2+y,1/2+z
1/2-y,1/2+x,1/2+z
1/2-x,1/2-y,1/2+z
1/2+y,1/2-x,1/2+z
1/2+x,1/2-y,-z
1/2-x,1/2+y,-z
1/2+y,1/2+x,-z
1/2-y,1/2-x,-z
1/2-x,1/2-y,1/2-z
1/2+y,1/2-x,1/2-z
1/2+x,1/2+y,1/2-z
1/2-y,1/2+x,1/2-z
1/2-x,1/2+y,z
1/2+x,1/2-y,z
1/2-y,1/2-x,z
1/2+y,1/2+x,z
loop_
_atom_site_type_symbol
_atom_site_label
_atom_site_fract_x
_atom_site_fract_y
_atom_site_fract_z
Si Si1 0.169680 0.181644 0.360303
Si Si2 0.732807 0.990138 0.630551
Si Si3 0.428185 0.928185 0.940144
Si Si4 0.895581 0.895581 0.750000
Si Si5 0.647551 0.000000 0.250000
O O1 0.250146 0.249854 0.364330
O O2 0.199478 0.088305 0.386693
O O3 0.145890 0.160013 0.298457
O O4 0.082238 0.222282 0.388854
O O5 0.645924 0.976517 0.595263
O O6 0.708875 0.989294 0.695849
O O7 0.500000 0.000000 0.953794
O O8 0.392749 0.892749 0.000000
O O9 0.000000 0.877140 0.750000
O O10 0.587324 0.087324 0.257584
#
# Coordination Sequence:
#
# PCOD8320475 Si02
#       5
#    32  32  16  16  16
#     4  12  23  39  62  89 134 177 226 281 329 412
#     4  12  24  41  64 100 131 177 223 268 349 396
#     4  11  24  48  74  97 132 171 229 290 339 396
#     4  11  21  36  56  86 131 193 226 260 338 416
#     4  11  20  34  60  91 132 174 218 277 324 407
#
# _framework density 20.309258
#
# number of rings (size 3 to 8) (size 9 to 14) (size 15 to 20)
#    0.000    0.429    5.714    4.714    0.000    0.571 
#    0.000    1.429    0.000    0.000    0.000    2.000 
#    0.000    0.000    0.000    0.000    0.000    0.000 
#
# Total GULP energy -694146.268919 kJ/mol
# GULP energy per Si atom -12395.469088 kJ/mol
# Density = 2.026303 g / cm^3
# Si number density = 20.309258 Si / 1000 Ang^3
#
#
#
# Elastic Constant Matrix: (Units=GPa)
#
#
# Indices 1 2 3 4 5 6 
#
# 1 123.1702 45.4553 17.5784 0.0000 0.0000 0.0000
# 2 45.4553 123.1702 17.5784 0.0000 0.0000 0.0000
# 3 17.5784 17.5784 76.5847 0.0000 0.0000 0.0000
# 4 0.0000 0.0000 0.0000 -1.6100 0.0000 0.0000
# 5 0.0000 0.0000 0.0000 0.0000 -1.6100 0.0000
# 6 0.0000 0.0000 0.0000 0.0000 0.0000 50.0540
#
#
#
# Elastic Compliance Matrix: (Units=1/GPa)
#
#
# Indices 1 2 3 4 5 6 
#
# 1 0.009548 -0.003320 -0.001430 0.000000 0.000000 0.000000
# 2 -0.003320 0.009548 -0.001430 0.000000 0.000000 0.000000
# 3 -0.001430 -0.001430 0.013714 0.000000 0.000000 0.000000
# 4 0.000000 0.000000 0.000000 -0.621129 0.000000 0.000000
# 5 0.000000 0.000000 0.000000 0.000000 -0.621129 0.000000
# 6 0.000000 0.000000 0.000000 0.000000 0.000000 0.019978
#
#
# Mechanical properties :
#
#
# Convention : Reuss Voigt Hill
#
# Bulk Modulus (GPa) = 48.89480 53.79435 51.34457
# Shear Modulus (GPa) = -4.27243 25.52101 10.62429
#
# Velocity S-wave (km/s) = -1.45198 3.54873 2.28967
# Velocity P-wave (km/s) = 4.61697 6.58304 5.68563
#
# Compressibility (1/GPa) = 0.02045207
#
# Stress axis : x y z
#
# Youngs Moduli (GPa) = 104.73448 104.73448 72.91977
#
# Poissons Ratio (x) = 0.34768 0.10424
# Poissons Ratio (y) = 0.34768 0.10424
# Poissons Ratio (z) = 0.14973 0.14973
#
# Static dielectric constant tensor:
#      x y z
#    x 4.117930 0.000000 0.000000 
#    y 0.000000 4.117930 0.000000 
#    z 0.000000 0.000000 3.377560 
# 
# 
# High freq. dielectric constant tensor:
#      x y z
#    x 1.816510 0.000000 0.000000 
#    y 0.000000 1.816510 0.000000 
#    z 0.000000 0.000000 1.741530 
# 
# From -- ./inp_files/9096.got.cif
#   From: 2010.06.25/outbox.cif.g09.slc.cpg/sg140_5_cif.got.tgz:9096.got - 2010.06.28 10:53:23.
