data_PCOD8320274
_publ_section_title
;
Structure prediction by ZEFSAII (Michael W. Deem and Ramdas Pophale) SiO2 
 PCOD8320274
Probable space group: I 4/M C M
;
_chemical_formula_sum "Si O2"
_cell_formula_units_Z 160
_cell_length_a 30.402980
_cell_length_b 30.402980
_cell_length_c 8.757751
_cell_angle_alpha 90.000000
_cell_angle_beta 90.000000
_cell_angle_gamma 90.000000
_cell_volume 8095.150006
_symmetry_space_group_name_H-M "I 4/M C M"
_symmetry_group_IT_number 140
_symmetry_cell_setting 'tetragonal'
loop_
_space_group_symop_operation_xyz
x,y,z
-y,x,z
-x,-y,z
y,-x,z
x,-y,1/2-z
-x,y,1/2-z
y,x,1/2-z
-y,-x,1/2-z
-x,-y,-z
y,-x,-z
x,y,-z
-y,x,-z
-x,y,1/2+z
x,-y,1/2+z
-y,-x,1/2+z
y,x,1/2+z
1/2+x,1/2+y,1/2+z
1/2-y,1/2+x,1/2+z
1/2-x,1/2-y,1/2+z
1/2+y,1/2-x,1/2+z
1/2+x,1/2-y,-z
1/2-x,1/2+y,-z
1/2+y,1/2+x,-z
1/2-y,1/2-x,-z
1/2-x,1/2-y,1/2-z
1/2+y,1/2-x,1/2-z
1/2+x,1/2+y,1/2-z
1/2-y,1/2+x,1/2-z
1/2-x,1/2+y,z
1/2+x,1/2-y,z
1/2-y,1/2-x,z
1/2+y,1/2+x,z
loop_
_atom_site_type_symbol
_atom_site_label
_atom_site_fract_x
_atom_site_fract_y
_atom_site_fract_z
Si Si1 0.716144 0.546467 0.321172
Si Si2 0.881477 0.618524 0.320843
Si Si3 0.884649 0.952693 0.820447
Si Si4 0.453884 0.953884 0.321007
Si Si5 0.788263 0.609476 0.820462
Si Si6 0.256326 0.313750 0.333752
O O1 0.727410 0.500000 0.250000
O O2 0.724256 0.544135 0.500000
O O3 0.665899 0.560161 0.282835
O O4 0.750136 0.579632 0.247485
O O5 0.874259 0.625742 0.500000
O O6 0.917700 0.582301 0.282162
O O7 0.836108 0.600563 0.250250
O O8 0.915425 0.915425 0.750000
O O9 0.896622 0.000000 0.750000
O O10 0.892889 0.955498 0.000000
O O11 0.500000 0.938265 0.250000
O O12 0.460250 0.960250 0.500000
O O13 0.774293 0.658458 0.778010
O O14 0.791617 0.602842 0.000000
O O15 0.302713 0.302713 0.250000
O O16 0.265266 0.336799 0.500000
O O17 0.231724 0.268277 0.366839
#
# Coordination Sequence:
#
# PCOD8320274 Si02
#       6
#    32  16  32  16  32  32
#     4  10  22  41  62  85 117 157 201 249 300 356
#     4  11  24  42  62  89 124 161 200 249 301 354
#     4  10  21  38  62  90 122 159 201 250 304 361
#     4  10  22  41  68  95 123 155 190 235 291 356
#     4  12  24  38  60  88 120 158 201 248 300 358
#     4  10  20  35  56  80 112 150 190 238 288 341
#
# _framework density 19.764921000000001
#
# number of rings (size 3 to 8) (size 9 to 14) (size 15 to 20)
#    0.000    1.500    1.000    4.500    0.000    6.600 
#    0.000    5.000    0.000    0.000    0.000    0.000 
#    0.000    0.000    0.000    0.000    0.000    0.000 
#
# Total GULP energy -991888.615431 kJ/mol
# GULP energy per Si atom -12398.607693 kJ/mol
# Density = 1.971993 g / cm^3
# Si number density = 19.764921 Si / 1000 Ang^3
#
#
#
# Elastic Constant Matrix: (Units=GPa)
#
#
# Indices 1 2 3 4 5 6 
#
# 1 93.2402 101.7182 68.3883 0.0000 0.0000 0.0000
# 2 101.7182 93.2426 68.3883 0.0000 0.0000 0.0000
# 3 68.3883 68.3883 145.4754 0.0000 0.0000 0.0000
# 4 0.0000 0.0000 0.0000 33.5438 0.0000 0.0000
# 5 0.0000 0.0000 0.0000 0.0000 33.5437 0.0000
# 6 0.0000 0.0000 0.0000 0.0000 0.0000 38.8333
#
#
#
# Elastic Compliance Matrix: (Units=1/GPa)
#
#
# Indices 1 2 3 4 5 6 
#
# 1 -0.055159 0.062811 -0.003597 0.000000 0.000000 0.000000
# 2 0.062811 -0.055157 -0.003598 0.000000 0.000000 0.000000
# 3 -0.003597 -0.003598 0.010257 0.000000 0.000000 0.000000
# 4 0.000000 0.000000 0.000000 0.029812 0.000000 0.000000
# 5 0.000000 0.000000 0.000000 0.000000 0.029812 0.000000
# 6 0.000000 0.000000 0.000000 0.000000 0.000000 0.025751
#
#
# Mechanical properties :
#
#
# Convention : Reuss Voigt Hill
#
# Bulk Modulus (GPa) = 89.50911 89.88308 89.69610
# Shear Modulus (GPa) = -40.91958 27.41507 -6.75226
#
# Velocity S-wave (km/s) = -4.55501 3.72836 -1.85032
# Velocity P-wave (km/s) = 4.20964 8.00681 6.39649
#
# Compressibility (1/GPa) = 0.01117205
#
# Stress axis : x y z
#
# Youngs Moduli (GPa) = -18.12946 -18.13017 97.49661
#
# Poissons Ratio (x) = 1.13878 0.35073
# Poissons Ratio (y) = 1.13873 0.35083
# Poissons Ratio (z) = -0.06522 -0.06524
#
# Static dielectric constant tensor:
#      x y z
#    x 3.633700 0.000000 0.000000 
#    y 0.000000 3.633690 0.000000 
#    z 0.000000 0.000000 3.881410 
# 
# 
# High freq. dielectric constant tensor:
#      x y z
#    x 1.769300 0.000000 0.000000 
#    y 0.000000 1.769300 0.000000 
#    z 0.000000 0.000000 1.793490 
# 
# From -- ./inp_files/1842.got.cif
#   From: 2010.06.25/outbox.cif.g09.slc.cpg/sg140_1_cif.got.tgz:1842.got - 2010.06.28 10:53:23.
