data_PCOD8320373
_publ_section_title
;
Structure prediction by ZEFSAII (Michael W. Deem and Ramdas Pophale) SiO2 
 PCOD8320373
Probable space group: I 4/M C M
;
_chemical_formula_sum "Si O2"
_cell_formula_units_Z 80
_cell_length_a 13.153615
_cell_length_b 13.153615
_cell_length_c 21.667149
_cell_angle_alpha 90.000000
_cell_angle_beta 90.000000
_cell_angle_gamma 90.000000
_cell_volume 3748.797849
_symmetry_space_group_name_H-M "I 4/M C M"
_symmetry_group_IT_number 140
_symmetry_cell_setting 'tetragonal'
loop_
_space_group_symop_operation_xyz
x,y,z
-y,x,z
-x,-y,z
y,-x,z
x,-y,1/2-z
-x,y,1/2-z
y,x,1/2-z
-y,-x,1/2-z
-x,-y,-z
y,-x,-z
x,y,-z
-y,x,-z
-x,y,1/2+z
x,-y,1/2+z
-y,-x,1/2+z
y,x,1/2+z
1/2+x,1/2+y,1/2+z
1/2-y,1/2+x,1/2+z
1/2-x,1/2-y,1/2+z
1/2+y,1/2-x,1/2+z
1/2+x,1/2-y,-z
1/2-x,1/2+y,-z
1/2+y,1/2+x,-z
1/2-y,1/2-x,-z
1/2-x,1/2-y,1/2-z
1/2+y,1/2-x,1/2-z
1/2+x,1/2+y,1/2-z
1/2-y,1/2+x,1/2-z
1/2-x,1/2+y,z
1/2+x,1/2-y,z
1/2-y,1/2-x,z
1/2+y,1/2+x,z
loop_
_atom_site_type_symbol
_atom_site_label
_atom_site_fract_x
_atom_site_fract_y
_atom_site_fract_z
Si Si1 0.764501 0.429028 0.125711
Si Si2 0.833593 0.496356 0.500000
Si Si3 0.874052 0.210616 0.308761
O O1 0.872342 0.372342 0.137156
O O2 0.672922 0.347413 0.131131
O O3 0.745874 0.511461 0.179135
O O4 0.763366 0.485764 0.059808
O O5 0.882832 0.382832 0.500000
O O6 0.923058 0.576943 0.500000
O O7 0.865085 0.134916 0.250000
O O8 0.812422 0.312422 0.293428
#
# Coordination Sequence:
#
# PCOD8320373 Si02
#       3
#    32  16  32
#     4  10  21  37  58  86 120 156 198 248 295 350
#     4   9  18  34  58  87 117 155 200 239 289 351
#     4  10  21  37  58  86 119 157 201 244 297 360
#
# _framework density 21.340173
#
# number of rings (size 3 to 8) (size 9 to 14) (size 15 to 20)
#    0.000    2.200    0.000    2.400    0.000    4.800 
#    0.000    8.000    0.000   16.800    0.000    0.000 
#    0.000    0.000    0.000    0.000    0.000    0.000 
#
# Total GULP energy -495800.019977 kJ/mol
# GULP energy per Si atom -12395.000499 kJ/mol
# Density = 2.129160 g / cm^3
# Si number density = 21.340173 Si / 1000 Ang^3
#
#
#
# Elastic Constant Matrix: (Units=GPa)
#
#
# Indices 1 2 3 4 5 6 
#
# 1 83.2888 43.6860 39.2646 0.0000 0.0000 0.0000
# 2 43.6860 83.2891 39.2638 0.0000 0.0000 0.0000
# 3 39.2646 39.2638 107.0649 0.0000 0.0000 0.0000
# 4 0.0000 0.0000 0.0000 35.6508 0.0000 0.0000
# 5 0.0000 0.0000 0.0000 0.0000 35.6506 0.0000
# 6 0.0000 0.0000 0.0000 0.0000 0.0000 33.1470
#
#
#
# Elastic Compliance Matrix: (Units=1/GPa)
#
#
# Indices 1 2 3 4 5 6 
#
# 1 0.017718 -0.007532 -0.003736 0.000000 0.000000 0.000000
# 2 -0.007532 0.017718 -0.003735 0.000000 0.000000 0.000000
# 3 -0.003736 -0.003735 0.012080 0.000000 0.000000 0.000000
# 4 0.000000 0.000000 0.000000 0.028050 0.000000 0.000000
# 5 0.000000 0.000000 0.000000 0.000000 0.028050 0.000000
# 6 0.000000 0.000000 0.000000 0.000000 0.000000 0.030169
#
#
# Mechanical properties :
#
#
# Convention : Reuss Voigt Hill
#
# Bulk Modulus (GPa) = 57.11125 57.56353 57.33739
# Shear Modulus (GPa) = 29.47623 30.98491 30.23057
#
# Velocity S-wave (km/s) = 3.72056 3.81458 3.76786
# Velocity P-wave (km/s) = 6.72883 6.81426 6.77168
#
# Compressibility (1/GPa) = 0.01750969
#
# Stress axis : x y z
#
# Youngs Moduli (GPa) = 56.43869 56.43940 82.78167
#
# Poissons Ratio (x) = 0.42513 0.30924
# Poissons Ratio (y) = 0.42512 0.30922
# Poissons Ratio (z) = 0.21083 0.21082
#
# Static dielectric constant tensor:
#      x y z
#    x 3.731430 0.000000 0.000000 
#    y 0.000000 3.731430 0.000000 
#    z 0.000000 0.000000 3.986130 
# 
# 
# High freq. dielectric constant tensor:
#      x y z
#    x 1.824570 0.000000 0.000000 
#    y 0.000000 1.824560 0.000000 
#    z 0.000000 0.000000 1.836050 
# 
# From -- ./inp_files/7489.got.cif
#   From: 2010.06.25/outbox.cif.g09.slc.cpg/sg140_4_cif.got.tgz:7489.got - 2010.06.28 10:53:23.
