data_PCOD8320016
_publ_section_title
;
Structure prediction by ZEFSAII (Michael W. Deem and Ramdas Pophale) SiO2 
 PCOD8320016
Probable space group: I 4/M M M
;
_chemical_formula_sum "Si O2"
_cell_formula_units_Z 176
_cell_length_a 27.782336
_cell_length_b 27.782336
_cell_length_c 14.055903
_cell_angle_alpha 90.000000
_cell_angle_beta 90.000000
_cell_angle_gamma 90.000000
_cell_volume 10849.163899
_symmetry_space_group_name_H-M "I 4/M M M"
_symmetry_group_IT_number 139
_symmetry_cell_setting 'tetragonal'
loop_
_space_group_symop_operation_xyz
x,y,z
-y,x,z
-x,-y,z
y,-x,z
x,-y,-z
-x,y,-z
y,x,-z
-y,-x,-z
-x,-y,-z
y,-x,-z
x,y,-z
-y,x,-z
-x,y,z
x,-y,z
-y,-x,z
y,x,z
1/2+x,1/2+y,1/2+z
1/2-y,1/2+x,1/2+z
1/2-x,1/2-y,1/2+z
1/2+y,1/2-x,1/2+z
1/2+x,1/2-y,1/2-z
1/2-x,1/2+y,1/2-z
1/2+y,1/2+x,1/2-z
1/2-y,1/2-x,1/2-z
1/2-x,1/2-y,1/2-z
1/2+y,1/2-x,1/2-z
1/2+x,1/2+y,1/2-z
1/2-y,1/2+x,1/2-z
1/2-x,1/2+y,1/2+z
1/2+x,1/2-y,1/2+z
1/2-y,1/2-x,1/2+z
1/2+y,1/2+x,1/2+z
loop_
_atom_site_type_symbol
_atom_site_label
_atom_site_fract_x
_atom_site_fract_y
_atom_site_fract_z
Si Si1 0.226614 0.943575 0.712370
Si Si2 0.781378 0.556583 0.606762
Si Si3 0.000000 0.445750 0.113633
Si Si4 0.366872 0.555357 0.110005
Si Si5 0.115164 0.411080 0.613185
Si Si6 0.821756 0.445078 0.112747
O O1 0.236817 0.930749 0.823266
O O2 0.176208 0.922135 0.674582
O O3 0.271077 0.924496 0.649719
O O4 0.222612 0.000000 0.695692
O O5 0.767215 0.573007 0.500000
O O6 0.792982 0.500000 0.608991
O O7 0.829224 0.583414 0.645443
O O8 0.046172 0.417669 0.153358
O O9 0.000000 0.500000 0.154053
O O10 0.000000 0.446771 0.000000
O O11 0.378206 0.500000 0.135752
O O12 0.414892 0.585109 0.132734
O O13 0.351448 0.560349 0.000000
O O14 0.114339 0.411956 0.500000
O O15 0.091073 0.362366 0.653662
O O16 0.830995 0.500000 0.148807
O O17 0.821764 0.444114 0.000000
#
# Coordination Sequence:
#
# PCOD8320016 Si02
#       6
#    32  32  16  32  32  32
#     4   9  17  28  43  63  86 117 147 180 218 255
#     4   9  16  27  41  57  78 108 151 203 246 274
#     4   9  14  20  32  50  74 106 145 189 244 305
#     4   9  17  30  50  77 107 131 146 160 185 232
#     4   9  15  23  35  53  76 107 148 195 244 290
#     4   9  16  25  37  56  82 111 146 187 231 283
#
# _framework density 16.222448
#
# number of rings (size 3 to 8) (size 9 to 14) (size 15 to 20)
#    0.000    3.000    0.909    1.091    0.000    5.273 
#    0.000    0.909    0.000    0.545    0.000    2.545 
#    0.000    4.364    0.000    7.091    0.000    0.364 
#
# Total GULP energy -1090715.080214 kJ/mol
# GULP energy per Si atom -12394.489548 kJ/mol
# Density = 1.618553 g / cm^3
# Si number density = 16.222448 Si / 1000 Ang^3
#
#
#
# Elastic Constant Matrix: (Units=GPa)
#
#
# Indices 1 2 3 4 5 6 
#
# 1 86.3512 48.0219 34.9729 0.0000 0.0000 0.0000
# 2 48.0219 86.3512 34.9729 0.0000 0.0000 0.0000
# 3 34.9729 34.9729 46.6935 0.0000 0.0000 0.0000
# 4 0.0000 0.0000 0.0000 15.2563 0.0000 0.0000
# 5 0.0000 0.0000 0.0000 0.0000 15.2563 0.0000
# 6 0.0000 0.0000 0.0000 0.0000 0.0000 10.9866
#
#
#
# Elastic Compliance Matrix: (Units=1/GPa)
#
#
# Indices 1 2 3 4 5 6 
#
# 1 0.019144 -0.006946 -0.009136 0.000000 0.000000 0.000000
# 2 -0.006946 0.019144 -0.009136 0.000000 0.000000 0.000000
# 3 -0.009136 -0.009136 0.035101 0.000000 0.000000 0.000000
# 4 0.000000 0.000000 0.000000 0.065547 0.000000 0.000000
# 5 0.000000 0.000000 0.000000 0.000000 0.065547 0.000000
# 6 0.000000 0.000000 0.000000 0.000000 0.000000 0.091020
#
#
# Mechanical properties :
#
#
# Convention : Reuss Voigt Hill
#
# Bulk Modulus (GPa) = 43.56672 50.59239 47.07955
# Shear Modulus (GPa) = 14.14074 15.06171 14.60122
#
# Velocity S-wave (km/s) = 2.95562 3.05035 3.00336
# Velocity P-wave (km/s) = 6.20981 6.60761 6.41180
#
# Compressibility (1/GPa) = 0.02295330
#
# Stress axis : x y z
#
# Youngs Moduli (GPa) = 52.23681 52.23681 28.48883
#
# Poissons Ratio (x) = 0.36284 0.26027
# Poissons Ratio (y) = 0.36284 0.26027
# Poissons Ratio (z) = 0.47722 0.47722
#
# Static dielectric constant tensor:
#      x y z
#    x 2.920660 0.000000 0.000000 
#    y 0.000000 2.920660 0.000000 
#    z 0.000000 0.000000 3.095740 
# 
# 
# High freq. dielectric constant tensor:
#      x y z
#    x 1.590420 0.000000 0.000000 
#    y 0.000000 1.590420 0.000000 
#    z 0.000000 0.000000 1.627150 
# 
# From -- ./inp_files/6392.got.cif
#   From: 2010.03.12/outbox.cif.g09.slc.cpg/sg139_4_cif.got.tgz:6392.got - 2010.04.08 09:46:31.
