data_PCOD8320732
_publ_section_title
;
Structure prediction by ZEFSAII (Michael W. Deem and Ramdas Pophale) SiO2 
 PCOD8320732
Probable space group: I 41/A M D
;
_chemical_formula_sum "Si O2"
_cell_formula_units_Z 144
_cell_length_a 29.374780
_cell_length_b 29.374780
_cell_length_c 8.231703
_cell_angle_alpha 90.000000
_cell_angle_beta 90.000000
_cell_angle_gamma 90.000000
_cell_volume 7102.952952
_symmetry_space_group_name_H-M "I 41/A M D"
_symmetry_group_IT_number 141
_space_group.IT_coordinate_system_code '2'
_symmetry_cell_setting 'tetragonal'
loop_
_space_group_symop_operation_xyz
x,y,z
1/4-y,3/4+x,1/4+z
-x,1/2-y,z
1/4+y,1/4-x,3/4+z
x,-y,-z
-x,1/2+y,-z
1/4+y,3/4+x,1/4-z
1/4-y,1/4-x,3/4-z
-x,-y,-z
3/4+y,1/4-x,3/4-z
x,1/2+y,-z
3/4-y,3/4+x,1/4-z
-x,y,z
x,1/2-y,z
3/4-y,1/4-x,3/4+z
3/4+y,3/4+x,1/4+z
1/2+x,1/2+y,1/2+z
3/4-y,1/4+x,3/4+z
1/2-x,-y,1/2+z
3/4+y,3/4-x,1/4+z
1/2+x,1/2-y,1/2-z
1/2-x,y,1/2-z
3/4+y,1/4+x,3/4-z
3/4-y,3/4-x,1/4-z
1/2-x,1/2-y,1/2-z
1/4+y,3/4-x,1/4-z
1/2+x,y,1/2-z
1/4-y,1/4+x,3/4-z
1/2-x,1/2+y,1/2+z
1/2+x,-y,1/2+z
1/4-y,3/4-x,1/4+z
1/4+y,1/4+x,3/4+z
loop_
_atom_site_type_symbol
_atom_site_label
_atom_site_fract_x
_atom_site_fract_y
_atom_site_fract_z
Si Si1 0.843599 0.697236 0.044557
Si Si2 0.183885 0.405704 0.541371
Si Si3 0.615108 0.666199 0.128634
Si Si4 0.049499 0.299499 0.375000
Si Si5 0.376670 0.977288 0.178387
O O1 0.838210 0.750000 0.998067
O O2 0.856651 0.692805 0.233883
O O3 0.884054 0.674724 0.944540
O O4 0.796312 0.672214 0.997823
O O5 0.183677 0.433677 0.375000
O O6 0.151884 0.361836 0.526002
O O7 0.164112 0.439654 0.678452
O O8 0.235727 0.388761 0.563475
O O9 0.589984 0.700034 0.006393
O O10 0.053567 0.250000 0.288641
O O11 0.385982 0.000000 0.000000
#
# Coordination Sequence:
#
# PCOD8320732 Si02
#       5
#    32  32  32  16  32
#     4  10  21  37  58  85 116 153 194 237 293 354
#     4   9  17  35  60  79 112 150 188 230 283 344
#     4  10  20  37  59  80 115 156 188 236 296 352
#     4  11  22  36  58  88 114 146 200 250 290 352
#     4   9  19  35  61  83 115 151 192 240 286 347
#
# _framework density 20.273257999999998
#
# number of rings (size 3 to 8) (size 9 to 14) (size 15 to 20)
#    0.000    2.333    1.111    1.333    0.000    1.333 
#    0.000    3.333   73.333    5.333    0.000    0.000 
#    0.000    0.000    0.000    0.000    0.000    0.000 
#
# Total GULP energy -892215.509922 kJ/mol
# GULP energy per Si atom -12391.882082 kJ/mol
# Density = 2.022712 g / cm^3
# Si number density = 20.273258 Si / 1000 Ang^3
#
#
#
# Elastic Constant Matrix: (Units=GPa)
#
#
# Indices 1 2 3 4 5 6 
#
# 1 130.7001 74.1551 28.1947 0.0000 0.0000 0.0000
# 2 74.1551 130.7001 28.1947 0.0000 0.0000 0.0000
# 3 28.1947 28.1947 61.6585 0.0000 0.0000 0.0000
# 4 0.0000 0.0000 0.0000 21.2659 0.0000 0.0000
# 5 0.0000 0.0000 0.0000 0.0000 21.2659 0.0000
# 6 0.0000 0.0000 0.0000 0.0000 0.0000 29.7796
#
#
#
# Elastic Compliance Matrix: (Units=1/GPa)
#
#
# Indices 1 2 3 4 5 6 
#
# 1 0.011635 -0.006050 -0.002554 0.000000 0.000000 0.000000
# 2 -0.006050 0.011635 -0.002554 0.000000 0.000000 0.000000
# 3 -0.002554 -0.002554 0.018554 0.000000 0.000000 0.000000
# 4 0.000000 0.000000 0.000000 0.047024 0.000000 0.000000
# 5 0.000000 0.000000 0.000000 0.000000 0.047024 0.000000
# 6 0.000000 0.000000 0.000000 0.000000 0.000000 0.033580
#
#
# Mechanical properties :
#
#
# Convention : Reuss Voigt Hill
#
# Bulk Modulus (GPa) = 51.26055 64.90531 58.08293
# Shear Modulus (GPa) = 25.21838 27.29657 26.25748
#
# Velocity S-wave (km/s) = 3.53076 3.67336 3.60276
# Velocity P-wave (km/s) = 6.47776 7.07645 6.78371
#
# Compressibility (1/GPa) = 0.01950818
#
# Stress axis : x y z
#
# Youngs Moduli (GPa) = 85.94959 85.94959 53.89746
#
# Poissons Ratio (x) = 0.52002 0.13763
# Poissons Ratio (y) = 0.52002 0.13763
# Poissons Ratio (z) = 0.21948 0.21948
#
# Static dielectric constant tensor:
#      x y z
#    x 3.684380 0.000000 0.000000 
#    y 0.000000 3.684380 0.000000 
#    z 0.000000 0.000000 3.509080 
# 
# 
# High freq. dielectric constant tensor:
#      x y z
#    x 1.790580 0.000000 0.000000 
#    y 0.000000 1.790580 0.000000 
#    z 0.000000 0.000000 1.776760 
# 
# From -- ./inp_files/3193.got.cif
#   From: 2010.03.12/outbox.cif.g09.slc.cpg/sg141_2_cif.got.tgz:3193.got - 2010.04.03 13:18:35.
