data_PCOD8320464
_publ_section_title
;
Structure prediction by ZEFSAII (Michael W. Deem and Ramdas Pophale) SiO2 
 PCOD8320464
Probable space group: I 4/M C M
;
_chemical_formula_sum "Si O2"
_cell_formula_units_Z 176
_cell_length_a 18.187853
_cell_length_b 18.187853
_cell_length_c 25.032126
_cell_angle_alpha 90.000000
_cell_angle_beta 90.000000
_cell_angle_gamma 90.000000
_cell_volume 8280.577135
_symmetry_space_group_name_H-M "I 4/M C M"
_symmetry_group_IT_number 140
_symmetry_cell_setting 'tetragonal'
loop_
_space_group_symop_operation_xyz
x,y,z
-y,x,z
-x,-y,z
y,-x,z
x,-y,1/2-z
-x,y,1/2-z
y,x,1/2-z
-y,-x,1/2-z
-x,-y,-z
y,-x,-z
x,y,-z
-y,x,-z
-x,y,1/2+z
x,-y,1/2+z
-y,-x,1/2+z
y,x,1/2+z
1/2+x,1/2+y,1/2+z
1/2-y,1/2+x,1/2+z
1/2-x,1/2-y,1/2+z
1/2+y,1/2-x,1/2+z
1/2+x,1/2-y,-z
1/2-x,1/2+y,-z
1/2+y,1/2+x,-z
1/2-y,1/2-x,-z
1/2-x,1/2-y,1/2-z
1/2+y,1/2-x,1/2-z
1/2+x,1/2+y,1/2-z
1/2-y,1/2+x,1/2-z
1/2-x,1/2+y,z
1/2+x,1/2-y,z
1/2-y,1/2-x,z
1/2+y,1/2+x,z
loop_
_atom_site_type_symbol
_atom_site_label
_atom_site_fract_x
_atom_site_fract_y
_atom_site_fract_z
Si Si1 0.783611 0.716390 0.895211
Si Si2 0.604156 0.438940 0.856311
Si Si3 0.193375 0.693375 0.272122
Si Si4 0.834502 0.456039 0.110360
Si Si5 0.562092 0.261396 0.711332
Si Si6 0.298235 0.376642 0.561583
Si Si7 0.394027 0.894027 0.938605
O O1 0.807444 0.692557 0.835960
O O2 0.697861 0.702096 0.904212
O O3 0.831629 0.668372 0.935963
O O4 0.599586 0.526418 0.846997
O O5 0.664760 0.404122 0.815834
O O6 0.633400 0.424820 0.916486
O O7 0.250000 0.750000 0.250000
O O8 0.215086 0.615637 0.248223
O O9 0.902239 0.402239 0.120550
O O10 0.791733 0.469881 0.165520
O O11 0.778486 0.420073 0.067717
O O12 0.865075 0.532770 0.089504
O O13 0.500000 0.291131 0.750000
O O14 0.311558 0.358363 0.500000
O O15 0.411785 0.911785 0.000000
#
# Coordination Sequence:
#
# PCOD8320464 Si02
#       7
#    16  32  16  32  32  32  16
#     4  12  26  45  70 102 139 173 234 296 337 423
#     4  10  25  45  65  99 137 176 228 282 336 411
#     4  12  24  42  71  99 131 177 231 279 342 406
#     4  11  23  46  67  99 140 180 230 282 338 423
#     4  11  25  42  71 100 137 184 227 279 350 405
#     4  11  24  43  71  98 134 181 226 281 348 412
#     4  12  27  42  70 104 138 179 232 293 352 409
#
# _framework density 21.254556999999998
#
# number of rings (size 3 to 8) (size 9 to 14) (size 15 to 20)
#    0.000    0.909    1.818    4.909   10.182    2.182 
#    0.000    1.818    0.000    0.000    0.000    0.000 
#    0.000    0.000    0.000    0.000    0.000    0.000 
#
# Total GULP energy -1091349.963101 kJ/mol
# GULP energy per Si atom -12401.704126 kJ/mol
# Density = 2.120618 g / cm^3
# Si number density = 21.254557 Si / 1000 Ang^3
#
#
#
# Elastic Constant Matrix: (Units=GPa)
#
#
# Indices 1 2 3 4 5 6 
#
# 1 88.0710 56.6743 40.6650 0.0000 0.0000 0.0000
# 2 56.6743 88.0710 40.6650 0.0000 0.0000 0.0000
# 3 40.6650 40.6650 151.3928 0.0000 0.0000 0.0000
# 4 0.0000 0.0000 0.0000 28.9722 0.0000 0.0000
# 5 0.0000 0.0000 0.0000 0.0000 28.9722 0.0000
# 6 0.0000 0.0000 0.0000 0.0000 0.0000 38.6256
#
#
#
# Elastic Compliance Matrix: (Units=1/GPa)
#
#
# Indices 1 2 3 4 5 6 
#
# 1 0.019994 -0.011857 -0.002186 0.000000 0.000000 0.000000
# 2 -0.011857 0.019994 -0.002186 0.000000 0.000000 0.000000
# 3 -0.002186 -0.002186 0.007779 0.000000 0.000000 0.000000
# 4 0.000000 0.000000 0.000000 0.034516 0.000000 0.000000
# 5 0.000000 0.000000 0.000000 0.000000 0.034516 0.000000
# 6 0.000000 0.000000 0.000000 0.000000 0.000000 0.025890
#
#
# Mechanical properties :
#
#
# Convention : Reuss Voigt Hill
#
# Bulk Modulus (GPa) = 65.31416 67.06035 66.18725
# Shear Modulus (GPa) = 27.73964 31.94938 29.84451
#
# Velocity S-wave (km/s) = 3.61656 3.88129 3.75126
# Velocity P-wave (km/s) = 6.94518 7.19065 7.06898
#
# Compressibility (1/GPa) = 0.01531062
#
# Stress axis : x y z
#
# Youngs Moduli (GPa) = 50.01597 50.01597 128.54387
#
# Poissons Ratio (x) = 0.59303 0.28094
# Poissons Ratio (y) = 0.59303 0.28094
# Poissons Ratio (z) = 0.10931 0.10931
#
# Static dielectric constant tensor:
#      x y z
#    x 3.852960 0.000000 0.000000 
#    y 0.000000 3.852960 0.000000 
#    z 0.000000 0.000000 3.744670 
# 
# 
# High freq. dielectric constant tensor:
#      x y z
#    x 1.840600 0.000000 0.000000 
#    y 0.000000 1.840600 0.000000 
#    z 0.000000 0.000000 1.841200 
# 
# From -- ./inp_files/10779.got.cif
#   From: 2010.06.25/outbox.cif.g09.slc.cpg/sg140_6_cif.got.tgz:10779.got - 2010.06.28 10:53:23.
