data_PCOD8320542
_publ_section_title
;
Structure prediction by ZEFSAII (Michael W. Deem and Ramdas Pophale) SiO2 
 PCOD8320542
Probable space group: I 41/A M D
;
_chemical_formula_sum "Si O2"
_cell_formula_units_Z 208
_cell_length_a 26.728674
_cell_length_b 26.728674
_cell_length_c 24.396526
_cell_angle_alpha 90.000000
_cell_angle_beta 90.000000
_cell_angle_gamma 90.000000
_cell_volume 17429.415235
_symmetry_space_group_name_H-M "I 41/A M D"
_symmetry_group_IT_number 141
_space_group.IT_coordinate_system_code '2'
_symmetry_cell_setting 'tetragonal'
loop_
_space_group_symop_operation_xyz
x,y,z
1/4-y,3/4+x,1/4+z
-x,1/2-y,z
1/4+y,1/4-x,3/4+z
x,-y,-z
-x,1/2+y,-z
1/4+y,3/4+x,1/4-z
1/4-y,1/4-x,3/4-z
-x,-y,-z
3/4+y,1/4-x,3/4-z
x,1/2+y,-z
3/4-y,3/4+x,1/4-z
-x,y,z
x,1/2-y,z
3/4-y,1/4-x,3/4+z
3/4+y,3/4+x,1/4+z
1/2+x,1/2+y,1/2+z
3/4-y,1/4+x,3/4+z
1/2-x,-y,1/2+z
3/4+y,3/4-x,1/4+z
1/2+x,1/2-y,1/2-z
1/2-x,y,1/2-z
3/4+y,1/4+x,3/4-z
3/4-y,3/4-x,1/4-z
1/2-x,1/2-y,1/2-z
1/4+y,3/4-x,1/4-z
1/2+x,y,1/2-z
1/4-y,1/4+x,3/4-z
1/2-x,1/2+y,1/2+z
1/2+x,-y,1/2+z
1/4-y,3/4-x,1/4+z
1/4+y,1/4+x,3/4+z
loop_
_atom_site_type_symbol
_atom_site_label
_atom_site_fract_x
_atom_site_fract_y
_atom_site_fract_z
Si Si1 0.776742 0.694150 0.617462
Si Si2 0.852593 0.900672 0.783007
Si Si3 0.363161 0.193829 0.032725
Si Si4 0.844100 0.025782 0.619239
Si Si5 0.719879 0.959543 0.959101
Si Si6 0.053898 0.442628 0.484675
Si Si7 0.058487 0.691514 0.625000
O O1 0.752275 0.750000 0.619594
O O2 0.811228 0.688910 0.564632
O O3 0.733379 0.652316 0.616550
O O4 0.812897 0.685986 0.669700
O O5 0.911857 0.893431 0.773516
O O6 0.832325 0.913314 0.844726
O O7 0.835626 0.944041 0.741421
O O8 0.830574 0.846787 0.770542
O O9 0.373671 0.250000 0.013217
O O10 0.408992 0.175194 0.071621
O O11 0.810651 0.016381 0.673231
O O12 0.825158 0.985595 0.574489
O O13 0.744171 0.000000 0.000000
O O14 0.051934 0.500000 0.500000
O O15 0.000000 0.417698 0.498903
O O16 0.068547 0.750000 0.638362
#
# Coordination Sequence:
#
# PCOD8320542 Si02
#       7
#    32  32  32  32  32  32  16
#     4  10  17  25  34  46  64  86 114 147 175 203
#     4  11  17  25  38  49  66  90 111 139 182 212
#     4  10  20  28  37  49  64  88 117 150 183 211
#     4  10  17  25  36  52  66  88 113 138 169 210
#     4   9  17  26  36  50  69  89 108 136 168 208
#     4  10  17  23  31  48  68  85 113 148 181 204
#     4   9  18  30  38  44  58  88 130 164 188 212
#
# _framework density 11.933847999999999
#
# number of rings (size 3 to 8) (size 9 to 14) (size 15 to 20)
#    0.000    2.077    4.615    1.385    0.000    1.846 
#    0.000    0.000    0.000    0.000    0.000    0.000 
#    0.000    0.615    0.000    0.000    0.000    0.000 
#
# Total GULP energy -1288480.305629 kJ/mol
# GULP energy per Si atom -12389.233708 kJ/mol
# Density = 1.190669 g / cm^3
# Si number density = 11.933848 Si / 1000 Ang^3
#
#
#
# Elastic Constant Matrix: (Units=GPa)
#
#
# Indices 1 2 3 4 5 6 
#
# 1 48.8615 25.4421 29.8996 0.0000 0.0000 0.0000
# 2 25.4421 48.8618 29.8996 0.0000 0.0000 0.0000
# 3 29.8996 29.8996 42.7083 0.0000 0.0000 0.0000
# 4 0.0000 0.0000 0.0000 16.4032 0.0000 0.0000
# 5 0.0000 0.0000 0.0000 0.0000 16.4035 0.0000
# 6 0.0000 0.0000 0.0000 0.0000 0.0000 10.4166
#
#
#
# Elastic Compliance Matrix: (Units=1/GPa)
#
#
# Indices 1 2 3 4 5 6 
#
# 1 0.036763 -0.005936 -0.021582 0.000000 0.000000 0.000000
# 2 -0.005936 0.036763 -0.021581 0.000000 0.000000 0.000000
# 3 -0.021582 -0.021581 0.053633 0.000000 0.000000 0.000000
# 4 0.000000 0.000000 0.000000 0.060964 0.000000 0.000000
# 5 0.000000 0.000000 0.000000 0.000000 0.060963 0.000000
# 6 0.000000 0.000000 0.000000 0.000000 0.000000 0.096001
#
#
# Mechanical properties :
#
#
# Convention : Reuss Voigt Hill
#
# Bulk Modulus (GPa) = 34.53009 34.54602 34.53806
# Shear Modulus (GPa) = 11.03903 12.32402 11.68153
#
# Velocity S-wave (km/s) = 3.04471 3.21704 3.13206
# Velocity P-wave (km/s) = 6.43100 6.54293 6.48721
#
# Compressibility (1/GPa) = 0.02896025
#
# Stress axis : x y z
#
# Youngs Moduli (GPa) = 27.20100 27.20129 18.64534
#
# Poissons Ratio (x) = 0.16147 0.40240
# Poissons Ratio (y) = 0.16147 0.40239
# Poissons Ratio (z) = 0.58705 0.58704
#
# Static dielectric constant tensor:
#      x y z
#    x 2.509990 0.000000 0.000000 
#    y 0.000000 2.509970 0.000000 
#    z 0.000000 0.000000 2.411630 
# 
# 
# High freq. dielectric constant tensor:
#      x y z
#    x 1.436430 0.000000 0.000000 
#    y 0.000000 1.436430 0.000000 
#    z 0.000000 0.000000 1.414980 
# 
# From -- ./inp_files/11918.got.cif
#   From: 2010.03.12/outbox.cif.g09.slc.cpg/sg141_6_cif.got.tgz:11918.got - 2010.04.03 13:18:35.
