data_PCOD8320293
_publ_section_title
;
Structure prediction by ZEFSAII (Michael W. Deem and Ramdas Pophale) SiO2 
 PCOD8320293
Probable space group: I 4/M C M
;
_chemical_formula_sum "Si O2"
_cell_formula_units_Z 160
_cell_length_a 30.372023
_cell_length_b 30.372023
_cell_length_c 9.248758
_cell_angle_alpha 90.000000
_cell_angle_beta 90.000000
_cell_angle_gamma 90.000000
_cell_volume 8531.607280
_symmetry_space_group_name_H-M "I 4/M C M"
_symmetry_group_IT_number 140
_symmetry_cell_setting 'tetragonal'
loop_
_space_group_symop_operation_xyz
x,y,z
-y,x,z
-x,-y,z
y,-x,z
x,-y,1/2-z
-x,y,1/2-z
y,x,1/2-z
-y,-x,1/2-z
-x,-y,-z
y,-x,-z
x,y,-z
-y,x,-z
-x,y,1/2+z
x,-y,1/2+z
-y,-x,1/2+z
y,x,1/2+z
1/2+x,1/2+y,1/2+z
1/2-y,1/2+x,1/2+z
1/2-x,1/2-y,1/2+z
1/2+y,1/2-x,1/2+z
1/2+x,1/2-y,-z
1/2-x,1/2+y,-z
1/2+y,1/2+x,-z
1/2-y,1/2-x,-z
1/2-x,1/2-y,1/2-z
1/2+y,1/2-x,1/2-z
1/2+x,1/2+y,1/2-z
1/2-y,1/2+x,1/2-z
1/2-x,1/2+y,z
1/2+x,1/2-y,z
1/2-y,1/2-x,z
1/2+y,1/2+x,z
loop_
_atom_site_type_symbol
_atom_site_label
_atom_site_fract_x
_atom_site_fract_y
_atom_site_fract_z
Si Si1 0.681786 0.926830 0.284385
Si Si2 0.441176 0.133367 0.000000
Si Si3 0.128373 0.190862 0.673626
Si Si4 0.540760 0.888672 0.500000
Si Si5 0.729852 0.160394 0.162273
Si Si6 0.957220 0.777381 0.166232
O O1 0.637804 0.942145 0.363148
O O2 0.691938 0.875631 0.309981
O O3 0.724405 0.954539 0.332367
O O4 0.669712 0.936480 0.122088
O O5 0.402909 0.097092 0.000000
O O6 0.487747 0.107550 0.000000
O O7 0.147086 0.147086 0.750000
O O8 0.126115 0.186028 0.500000
O O9 0.159196 0.232076 0.717685
O O10 0.081362 0.200124 0.743162
O O11 0.562248 0.937753 0.500000
O O12 0.708161 0.208161 0.173124
O O13 0.749586 0.152640 0.000000
O O14 0.000000 0.793730 0.250000
O O15 0.957454 0.793772 0.000000
#
# Coordination Sequence:
#
# PCOD8320293 Si02
#       6
#    32  16  32  16  32  32
#     4  11  22  37  56  79 106 134 172 230 293 350
#     4  12  26  37  50  76 101 129 173 229 290 360
#     4  11  23  39  57  82 119 160 195 232 281 334
#     4  12  22  39  58  70  93 135 175 223 290 358
#     4  10  20  36  57  79 105 142 188 236 284 343
#     4  11  22  38  62  91 118 147 189 237 285 339
#
# _framework density 18.753793000000002
#
# number of rings (size 3 to 8) (size 9 to 14) (size 15 to 20)
#    0.000    1.000    2.000    7.200    7.000    1.000 
#    0.000    0.000    0.000    2.400    0.000    0.000 
#    0.000    0.400    0.000    4.000    0.000    2.400 
#
# Total GULP energy -991693.972191 kJ/mol
# GULP energy per Si atom -12396.174652 kJ/mol
# Density = 1.871111 g / cm^3
# Si number density = 18.753793 Si / 1000 Ang^3
#
#
#
# Elastic Constant Matrix: (Units=GPa)
#
#
# Indices 1 2 3 4 5 6 
#
# 1 46.2709 64.8477 42.6205 0.0000 0.0000 0.0000
# 2 64.8477 46.2765 42.6216 0.0000 0.0000 0.0000
# 3 42.6205 42.6216 181.0269 0.0000 0.0000 0.0000
# 4 0.0000 0.0000 0.0000 20.2980 0.0000 0.0000
# 5 0.0000 0.0000 0.0000 0.0000 20.3066 0.0000
# 6 0.0000 0.0000 0.0000 0.0000 0.0000 17.5099
#
#
#
# Elastic Compliance Matrix: (Units=1/GPa)
#
#
# Indices 1 2 3 4 5 6 
#
# 1 -0.021429 0.032411 -0.002586 0.000000 0.000000 0.000000
# 2 0.032411 -0.021426 -0.002586 0.000000 0.000000 0.000000
# 3 -0.002586 -0.002586 0.006742 0.000000 0.000000 0.000000
# 4 0.000000 0.000000 0.000000 0.049266 0.000000 0.000000
# 5 0.000000 0.000000 0.000000 0.000000 0.049245 0.000000
# 6 0.000000 0.000000 0.000000 0.000000 0.000000 0.057110
#
#
# Mechanical properties :
#
#
# Convention : Reuss Voigt Hill
#
# Bulk Modulus (GPa) = 54.45441 63.75044 59.10243
# Shear Modulus (GPa) = 70.27395 19.85521 45.06458
#
# Velocity S-wave (km/s) = 6.12807 3.25734 4.90732
# Velocity P-wave (km/s) = 8.89778 6.94364 7.98075
#
# Compressibility (1/GPa) = 0.01836398
#
# Stress axis : x y z
#
# Youngs Moduli (GPa) = -46.66465 -46.67122 148.33202
#
# Poissons Ratio (x) = 1.51265 0.38352
# Poissons Ratio (y) = 1.51243 0.38358
# Poissons Ratio (z) = -0.12066 -0.12069
#
# Static dielectric constant tensor:
#      x y z
#    x 3.341010 0.000000 0.000000 
#    y 0.000000 3.341010 0.000000 
#    z 0.000000 0.000000 3.626360 
# 
# 
# High freq. dielectric constant tensor:
#      x y z
#    x 1.707860 0.000000 0.000000 
#    y 0.000000 1.707860 0.000000 
#    z 0.000000 0.000000 1.751020 
# 
# From -- ./inp_files/1835.got.cif
#   From: 2010.06.25/outbox.cif.g09.slc.cpg/sg140_1_cif.got.tgz:1835.got - 2010.06.28 10:53:23.
