data_PCOD8320050
_publ_section_title
;
Structure prediction by ZEFSAII (Michael W. Deem and Ramdas Pophale) SiO2 
 PCOD8320050
Probable space group: I 4/M C M
;
_chemical_formula_sum "Si O2"
_cell_formula_units_Z 192
_cell_length_a 17.273155
_cell_length_b 17.273155
_cell_length_c 29.708403
_cell_angle_alpha 90.000000
_cell_angle_beta 90.000000
_cell_angle_gamma 90.000000
_cell_volume 8863.855079
_symmetry_space_group_name_H-M "I 4/M C M"
_symmetry_group_IT_number 140
_symmetry_cell_setting 'tetragonal'
loop_
_space_group_symop_operation_xyz
x,y,z
-y,x,z
-x,-y,z
y,-x,z
x,-y,1/2-z
-x,y,1/2-z
y,x,1/2-z
-y,-x,1/2-z
-x,-y,-z
y,-x,-z
x,y,-z
-y,x,-z
-x,y,1/2+z
x,-y,1/2+z
-y,-x,1/2+z
y,x,1/2+z
1/2+x,1/2+y,1/2+z
1/2-y,1/2+x,1/2+z
1/2-x,1/2-y,1/2+z
1/2+y,1/2-x,1/2+z
1/2+x,1/2-y,-z
1/2-x,1/2+y,-z
1/2+y,1/2+x,-z
1/2-y,1/2-x,-z
1/2-x,1/2-y,1/2-z
1/2+y,1/2-x,1/2-z
1/2+x,1/2+y,1/2-z
1/2-y,1/2+x,1/2-z
1/2-x,1/2+y,z
1/2+x,1/2-y,z
1/2-y,1/2-x,z
1/2+y,1/2+x,z
loop_
_atom_site_type_symbol
_atom_site_label
_atom_site_fract_x
_atom_site_fract_y
_atom_site_fract_z
Si Si1 0.377666 0.002507 0.331895
Si Si2 0.930725 0.893480 0.052271
Si Si3 0.285565 0.000000 0.250000
Si Si4 0.313674 0.938679 0.585576
Si Si5 0.691145 0.316653 0.890819
Si Si6 0.850266 0.771790 0.707944
Si Si7 0.128005 0.497001 0.000000
O O1 0.434562 0.065439 0.353792
O O2 0.424862 0.924862 0.318379
O O3 0.339615 0.040178 0.287457
O O4 0.309409 0.986200 0.367776
O O5 0.891119 0.826426 0.083483
O O6 0.022143 0.894287 0.063380
O O7 0.916971 0.873430 0.000000
O O8 0.234293 0.939496 0.278143
O O9 0.396546 0.896546 0.586652
O O10 0.244900 0.877657 0.582807
O O11 0.314395 0.995835 0.542752
O O12 0.730702 0.230702 0.894975
O O13 0.679630 0.339247 0.838151
O O14 0.809843 0.809843 0.750000
O O15 0.813177 0.686824 0.698693
O O16 0.086176 0.413825 0.000000
O O17 0.065738 0.565738 0.000000
#
# Coordination Sequence:
#
# PCOD8320050 Si02
#       7
#    32  32  16  32  32  32  16
#     4  10  18  28  46  73 104 138 180 232 282 331
#     4   9  20  40  66  94 121 154 198 250 305 357
#     4  12  20  33  54  75 102 142 194 244 290 344
#     4   9  17  29  45  71 107 145 185 227 274 334
#     4  10  20  36  59  88 120 155 199 248 303 365
#     4  10  22  39  56  79 115 154 192 239 299 361
#     4   9  16  26  42  66 102 149 190 222 273 344
#
# _framework density 21.661003000000001
#
# number of rings (size 3 to 8) (size 9 to 14) (size 15 to 20)
#    0.000    2.250    1.667    2.500    1.167    4.333 
#    0.000    0.000    0.000    1.250    0.000    0.000 
#    0.000    0.000    0.000    0.000    0.000    0.000 
#
# Total GULP energy -1189737.434050 kJ/mol
# GULP energy per Si atom -12393.098271 kJ/mol
# Density = 2.161170 g / cm^3
# Si number density = 21.661003 Si / 1000 Ang^3
#
#
#
# Elastic Constant Matrix: (Units=GPa)
#
#
# Indices 1 2 3 4 5 6 
#
# 1 40.9857 10.7575 21.0860 0.0000 0.0000 0.0000
# 2 10.7575 40.9859 21.0862 0.0000 0.0000 0.0000
# 3 21.0860 21.0862 130.2638 0.0000 0.0000 0.0000
# 4 0.0000 0.0000 0.0000 29.6544 0.0000 0.0000
# 5 0.0000 0.0000 0.0000 0.0000 29.6543 0.0000
# 6 0.0000 0.0000 0.0000 0.0000 0.0000 19.3309
#
#
#
# Elastic Compliance Matrix: (Units=1/GPa)
#
#
# Indices 1 2 3 4 5 6 
#
# 1 0.027673 -0.005409 -0.003604 0.000000 0.000000 0.000000
# 2 -0.005409 0.027672 -0.003604 0.000000 0.000000 0.000000
# 3 -0.003604 -0.003604 0.008843 0.000000 0.000000 0.000000
# 4 0.000000 0.000000 0.000000 0.033722 0.000000 0.000000
# 5 0.000000 0.000000 0.000000 0.000000 0.033722 0.000000
# 6 0.000000 0.000000 0.000000 0.000000 0.000000 0.051731
#
#
# Mechanical properties :
#
#
# Convention : Reuss Voigt Hill
#
# Bulk Modulus (GPa) = 25.67068 35.34386 30.50727
# Shear Modulus (GPa) = 22.56507 26.34829 24.45668
#
# Velocity S-wave (km/s) = 3.23110 3.49147 3.36380
# Velocity P-wave (km/s) = 5.07906 5.71017 5.40383
#
# Compressibility (1/GPa) = 0.03895495
#
# Stress axis : x y z
#
# Youngs Moduli (GPa) = 36.13687 36.13702 113.07797
#
# Poissons Ratio (x) = 0.19547 0.40751
# Poissons Ratio (y) = 0.19547 0.40752
# Poissons Ratio (z) = 0.13023 0.13023
#
# Static dielectric constant tensor:
#      x y z
#    x 3.652430 0.000000 0.000000 
#    y 0.000000 3.652430 0.000000 
#    z 0.000000 0.000000 4.125030 
# 
# 
# High freq. dielectric constant tensor:
#      x y z
#    x 1.822090 0.000000 0.000000 
#    y 0.000000 1.822090 0.000000 
#    z 0.000000 0.000000 1.865160 
# 
# From -- ./inp_files/11633.got.cif
#   From: 2010.06.25/outbox.cif.g09.slc.cpg/sg140_6_cif.got.tgz:11633.got - 2010.06.28 10:53:23.
