data_PCOD8320912
_publ_section_title
;
Structure prediction by ZEFSAII (Michael W. Deem and Ramdas Pophale) SiO2 
 PCOD8320912
Probable space group: I 41/A M D
;
_chemical_formula_sum "Si O2"
_cell_formula_units_Z 128
_cell_length_a 20.726848
_cell_length_b 20.726848
_cell_length_c 14.360724
_cell_angle_alpha 90.000000
_cell_angle_beta 90.000000
_cell_angle_gamma 90.000000
_cell_volume 6169.399026
_symmetry_space_group_name_H-M "I 41/A M D"
_symmetry_group_IT_number 141
_space_group.IT_coordinate_system_code '2'
_symmetry_cell_setting 'tetragonal'
loop_
_space_group_symop_operation_xyz
x,y,z
1/4-y,3/4+x,1/4+z
-x,1/2-y,z
1/4+y,1/4-x,3/4+z
x,-y,-z
-x,1/2+y,-z
1/4+y,3/4+x,1/4-z
1/4-y,1/4-x,3/4-z
-x,-y,-z
3/4+y,1/4-x,3/4-z
x,1/2+y,-z
3/4-y,3/4+x,1/4-z
-x,y,z
x,1/2-y,z
3/4-y,1/4-x,3/4+z
3/4+y,3/4+x,1/4+z
1/2+x,1/2+y,1/2+z
3/4-y,1/4+x,3/4+z
1/2-x,-y,1/2+z
3/4+y,3/4-x,1/4+z
1/2+x,1/2-y,1/2-z
1/2-x,y,1/2-z
3/4+y,1/4+x,3/4-z
3/4-y,3/4-x,1/4-z
1/2-x,1/2-y,1/2-z
1/4+y,3/4-x,1/4-z
1/2+x,y,1/2-z
1/4-y,1/4+x,3/4-z
1/2-x,1/2+y,1/2+z
1/2+x,-y,1/2+z
1/4-y,3/4-x,1/4+z
1/4+y,1/4+x,3/4+z
loop_
_atom_site_type_symbol
_atom_site_label
_atom_site_fract_x
_atom_site_fract_y
_atom_site_fract_z
Si Si1 0.000000 0.468050 0.383873
Si Si2 0.341926 0.424538 0.516651
Si Si3 0.131282 0.542991 0.700461
Si Si4 0.369436 0.673480 0.110469
Si Si5 0.144405 0.750000 0.826985
O O1 0.062900 0.436698 0.340737
O O2 0.000000 0.441772 0.488287
O O3 0.000000 0.544686 0.352811
O O4 0.335257 0.500000 0.500000
O O5 0.343966 0.406035 0.625000
O O6 0.282409 0.390375 0.465512
O O7 0.407188 0.397593 0.468157
O O8 0.184544 0.565457 0.625000
O O9 0.128418 0.577431 0.800767
O O10 0.356502 0.750000 0.092717
O O11 0.442155 0.655556 0.086389
#
# Coordination Sequence:
#
# PCOD8320912 Si02
#       5
#    16  32  32  32  16
#     4  11  22  40  68 100 138 178 217 268 349 415
#     4  12  26  46  69  99 133 177 233 296 357 411
#     4  12  24  41  70 103 138 174 219 282 347 413
#     4  12  26  44  68  97 138 186 229 282 343 413
#     4  11  23  42  68 101 136 178 225 278 340 423
#
# _framework density 20.747564000000001
#
# number of rings (size 3 to 8) (size 9 to 14) (size 15 to 20)
#    0.000    0.250    8.750    1.125    0.000    0.500 
#    4.500    0.000    0.000    0.000    0.000    0.000 
#    0.000    0.000    0.000    0.000    0.000    0.000 
#
# Total GULP energy -792968.519083 kJ/mol
# GULP energy per Si atom -12390.133111 kJ/mol
# Density = 2.070034 g / cm^3
# Si number density = 20.747564 Si / 1000 Ang^3
#
#
#
# Elastic Constant Matrix: (Units=GPa)
#
#
# Indices 1 2 3 4 5 6 
#
# 1 81.7760 16.8303 35.4360 0.0000 0.0000 0.0000
# 2 16.8303 81.7823 35.4365 0.0000 0.0000 0.0000
# 3 35.4360 35.4365 110.1932 0.0000 0.0000 0.0000
# 4 0.0000 0.0000 0.0000 30.3297 0.0000 0.0000
# 5 0.0000 0.0000 0.0000 0.0000 30.3293 0.0000
# 6 0.0000 0.0000 0.0000 0.0000 0.0000 33.6442
#
#
#
# Elastic Compliance Matrix: (Units=1/GPa)
#
#
# Indices 1 2 3 4 5 6 
#
# 1 0.014294 -0.001104 -0.004242 0.000000 0.000000 0.000000
# 2 -0.001104 0.014293 -0.004241 0.000000 0.000000 0.000000
# 3 -0.004242 -0.004241 0.011803 0.000000 0.000000 0.000000
# 4 0.000000 0.000000 0.000000 0.032971 0.000000 0.000000
# 5 0.000000 0.000000 0.000000 0.000000 0.032971 0.000000
# 6 0.000000 0.000000 0.000000 0.000000 0.000000 0.029723
#
#
# Mechanical properties :
#
#
# Convention : Reuss Voigt Hill
#
# Bulk Modulus (GPa) = 47.13452 49.90635 48.52043
# Shear Modulus (GPa) = 30.80721 31.26388 31.03554
#
# Velocity S-wave (km/s) = 3.85757 3.88605 3.87184
# Velocity P-wave (km/s) = 6.52752 6.65143 6.58977
#
# Compressibility (1/GPa) = 0.02121587
#
# Stress axis : x y z
#
# Youngs Moduli (GPa) = 69.96088 69.96675 84.72446
#
# Poissons Ratio (x) = 0.07722 0.35937
# Poissons Ratio (y) = 0.07721 0.35935
# Poissons Ratio (z) = 0.29675 0.29675
#
# Static dielectric constant tensor:
#      x y z
#    x 3.375860 0.000000 0.000000 
#    y 0.000000 3.376160 0.000000 
#    z 0.000000 0.000000 3.946630 
# 
# 
# High freq. dielectric constant tensor:
#      x y z
#    x 1.813210 0.000000 0.000000 
#    y 0.000000 1.813210 0.000000 
#    z 0.000000 0.000000 1.816410 
# 
# From -- ./inp_files/6234.got.cif
#   From: 2010.03.12/outbox.cif.g09.slc.cpg/sg141_4_cif.got.tgz:6234.got - 2010.04.03 13:18:35.
