data_PCOD8320873
_publ_section_title
;
Structure prediction by ZEFSAII (Michael W. Deem and Ramdas Pophale) SiO2 
 PCOD8320873
Probable space group: I 41/A M D
;
_chemical_formula_sum "Si O2"
_cell_formula_units_Z 112
_cell_length_a 17.397097
_cell_length_b 17.397097
_cell_length_c 18.469586
_cell_angle_alpha 90.000000
_cell_angle_beta 90.000000
_cell_angle_gamma 90.000000
_cell_volume 5589.986134
_symmetry_space_group_name_H-M "I 41/A M D"
_symmetry_group_IT_number 141
_space_group.IT_coordinate_system_code '2'
_symmetry_cell_setting 'tetragonal'
loop_
_space_group_symop_operation_xyz
x,y,z
1/4-y,3/4+x,1/4+z
-x,1/2-y,z
1/4+y,1/4-x,3/4+z
x,-y,-z
-x,1/2+y,-z
1/4+y,3/4+x,1/4-z
1/4-y,1/4-x,3/4-z
-x,-y,-z
3/4+y,1/4-x,3/4-z
x,1/2+y,-z
3/4-y,3/4+x,1/4-z
-x,y,z
x,1/2-y,z
3/4-y,1/4-x,3/4+z
3/4+y,3/4+x,1/4+z
1/2+x,1/2+y,1/2+z
3/4-y,1/4+x,3/4+z
1/2-x,-y,1/2+z
3/4+y,3/4-x,1/4+z
1/2+x,1/2-y,1/2-z
1/2-x,y,1/2-z
3/4+y,1/4+x,3/4-z
3/4-y,3/4-x,1/4-z
1/2-x,1/2-y,1/2-z
1/4+y,3/4-x,1/4-z
1/2+x,y,1/2-z
1/4-y,1/4+x,3/4-z
1/2-x,1/2+y,1/2+z
1/2+x,-y,1/2+z
1/4-y,3/4-x,1/4+z
1/4+y,1/4+x,3/4+z
loop_
_atom_site_type_symbol
_atom_site_label
_atom_site_fract_x
_atom_site_fract_y
_atom_site_fract_z
Si Si1 0.500000 0.657494 0.203714
Si Si2 0.632474 0.454418 0.768668
Si Si3 0.136575 0.664880 0.553853
Si Si4 0.091087 0.250000 0.208410
Si Si5 0.772078 0.977923 0.125000
O O1 0.500000 0.750000 0.214996
O O2 0.579126 0.621818 0.235183
O O3 0.500000 0.626944 0.121972
O O4 0.579165 0.529574 0.769633
O O5 0.673571 0.458071 0.691754
O O6 0.687622 0.461071 0.840005
O O7 0.108135 0.750000 0.575730
O O8 0.137954 0.612047 0.625000
O O9 0.076528 0.627624 0.497434
O O10 0.000000 0.250000 0.203884
#
# Coordination Sequence:
#
# PCOD8320873 Si02
#       5
#    16  32  32  16  16
#     4  11  24  45  63  91 121 164 220 275 312 370
#     4  11  22  43  63  91 126 163 211 261 324 377
#     4  11  19  33  58  96 134 172 199 236 296 384
#     4   9  20  33  57  89 133 166 200 238 301 366
#     4  10  24  42  65  90 123 164 204 266 328 384
#
# _framework density 20.035829
#
# number of rings (size 3 to 8) (size 9 to 14) (size 15 to 20)
#    0.000    1.429    4.286    1.714    0.000    0.000 
#    5.143    2.857    0.000    0.000    0.000    0.000 
#    0.000    0.000    0.000    0.000    0.000    0.000 
#
# Total GULP energy -693778.385168 kJ/mol
# GULP energy per Si atom -12388.899735 kJ/mol
# Density = 1.999023 g / cm^3
# Si number density = 20.035829 Si / 1000 Ang^3
#
#
#
# Elastic Constant Matrix: (Units=GPa)
#
#
# Indices 1 2 3 4 5 6 
#
# 1 118.3218 45.7022 38.0532 0.0000 0.0000 0.0000
# 2 45.7022 118.3228 38.0535 0.0000 0.0000 0.0000
# 3 38.0532 38.0535 111.3460 0.0000 0.0000 0.0000
# 4 0.0000 0.0000 0.0000 21.6853 0.0000 0.0000
# 5 0.0000 0.0000 0.0000 0.0000 21.6851 0.0000
# 6 0.0000 0.0000 0.0000 0.0000 0.0000 30.1312
#
#
#
# Elastic Compliance Matrix: (Units=1/GPa)
#
#
# Indices 1 2 3 4 5 6 
#
# 1 0.010508 -0.003262 -0.002476 0.000000 0.000000 0.000000
# 2 -0.003262 0.010508 -0.002476 0.000000 0.000000 0.000000
# 3 -0.002476 -0.002476 0.010674 0.000000 0.000000 0.000000
# 4 0.000000 0.000000 0.000000 0.046114 0.000000 0.000000
# 5 0.000000 0.000000 0.000000 0.000000 0.046115 0.000000
# 6 0.000000 0.000000 0.000000 0.000000 0.000000 0.033188
#
#
# Mechanical properties :
#
#
# Convention : Reuss Voigt Hill
#
# Bulk Modulus (GPa) = 65.53159 65.73428 65.63294
# Shear Modulus (GPa) = 27.99194 29.77909 28.88552
#
# Velocity S-wave (km/s) = 3.74183 3.85943 3.80108
# Velocity P-wave (km/s) = 7.17263 7.26222 7.21756
#
# Compressibility (1/GPa) = 0.01525982
#
# Stress axis : x y z
#
# Youngs Moduli (GPa) = 95.16570 95.16637 93.68942
#
# Poissons Ratio (x) = 0.31046 0.23200
# Poissons Ratio (y) = 0.31046 0.23200
# Poissons Ratio (z) = 0.23565 0.23566
#
# Static dielectric constant tensor:
#      x y z
#    x 3.558770 0.000000 0.000000 
#    y 0.000000 3.558750 0.000000 
#    z 0.000000 0.000000 3.691590 
# 
# 
# High freq. dielectric constant tensor:
#      x y z
#    x 1.777560 0.000000 0.000000 
#    y 0.000000 1.777560 0.000000 
#    z 0.000000 0.000000 1.781290 
# 
# From -- ./inp_files/7986.got.cif
#   From: 2010.03.12/outbox.cif.g09.slc.cpg/sg141_4_cif.got.tgz:7986.got - 2010.04.03 13:18:35.
