data_PCOD8320070
_publ_section_title
;
Structure prediction by ZEFSAII (Michael W. Deem and Ramdas Pophale) SiO2 
 PCOD8320070
Probable space group: I 4/M C M
;
_chemical_formula_sum "Si O2"
_cell_formula_units_Z 160
_cell_length_a 25.395917
_cell_length_b 25.395917
_cell_length_c 13.415990
_cell_angle_alpha 90.000000
_cell_angle_beta 90.000000
_cell_angle_gamma 90.000000
_cell_volume 8652.677636
_symmetry_space_group_name_H-M "I 4/M C M"
_symmetry_group_IT_number 140
_symmetry_cell_setting 'tetragonal'
loop_
_space_group_symop_operation_xyz
x,y,z
-y,x,z
-x,-y,z
y,-x,z
x,-y,1/2-z
-x,y,1/2-z
y,x,1/2-z
-y,-x,1/2-z
-x,-y,-z
y,-x,-z
x,y,-z
-y,x,-z
-x,y,1/2+z
x,-y,1/2+z
-y,-x,1/2+z
y,x,1/2+z
1/2+x,1/2+y,1/2+z
1/2-y,1/2+x,1/2+z
1/2-x,1/2-y,1/2+z
1/2+y,1/2-x,1/2+z
1/2+x,1/2-y,-z
1/2-x,1/2+y,-z
1/2+y,1/2+x,-z
1/2-y,1/2-x,-z
1/2-x,1/2-y,1/2-z
1/2+y,1/2-x,1/2-z
1/2+x,1/2+y,1/2-z
1/2-y,1/2+x,1/2-z
1/2-x,1/2+y,z
1/2+x,1/2-y,z
1/2-y,1/2-x,z
1/2+y,1/2+x,z
loop_
_atom_site_type_symbol
_atom_site_label
_atom_site_fract_x
_atom_site_fract_y
_atom_site_fract_z
Si Si1 0.673920 0.591279 0.727109
Si Si2 0.195763 0.010218 0.610141
Si Si3 0.843410 0.425264 0.194551
Si Si4 0.237600 0.653604 0.885216
Si Si5 0.472371 0.186287 0.389695
O O1 0.617970 0.617970 0.750000
O O2 0.690865 0.565036 0.831022
O O3 0.666777 0.541757 0.652177
O O4 0.713576 0.636684 0.685869
O O5 0.173459 0.020347 0.500000
O O6 0.257678 0.997902 0.610574
O O7 0.900728 0.400728 0.207069
O O8 0.807006 0.390392 0.123687
O O9 0.816730 0.427549 0.305213
O O10 0.853653 0.481551 0.142950
O O11 0.210449 0.710449 0.855888
O O12 0.257147 0.655611 0.000000
O O13 0.449451 0.173279 0.500000
#
# Coordination Sequence:
#
# PCOD8320070 Si02
#       5
#    32  32  32  32  32
#     4  11  21  35  57  82 109 143 181 220 267 317
#     4  10  20  37  56  79 107 136 178 226 268 314
#     4  10  18  30  50  77 105 134 174 219 266 313
#     4  10  19  32  52  79 113 149 181 213 254 312
#     4  10  18  32  54  75 100 137 179 224 267 307
#
# _framework density 18.491385000000001
#
# number of rings (size 3 to 8) (size 9 to 14) (size 15 to 20)
#    0.000    1.800    4.000    2.400    0.000    3.600 
#    0.000    0.000    0.000   10.200    0.000   11.200 
#    0.000    0.000    0.000    0.000    0.000    0.000 
#
# Total GULP energy -991164.795117 kJ/mol
# GULP energy per Si atom -12389.559939 kJ/mol
# Density = 1.844930 g / cm^3
# Si number density = 18.491385 Si / 1000 Ang^3
#
#
#
# Elastic Constant Matrix: (Units=GPa)
#
#
# Indices 1 2 3 4 5 6 
#
# 1 69.4828 43.1177 36.9487 0.0000 0.0000 0.0000
# 2 43.1177 69.4828 36.9487 0.0000 0.0000 0.0000
# 3 36.9487 36.9487 137.9586 0.0000 0.0000 0.0000
# 4 0.0000 0.0000 0.0000 12.9163 0.0000 0.0000
# 5 0.0000 0.0000 0.0000 0.0000 12.9163 0.0000
# 6 0.0000 0.0000 0.0000 0.0000 0.0000 33.0748
#
#
#
# Elastic Compliance Matrix: (Units=1/GPa)
#
#
# Indices 1 2 3 4 5 6 
#
# 1 0.024352 -0.013577 -0.002886 0.000000 0.000000 0.000000
# 2 -0.013577 0.024352 -0.002886 0.000000 0.000000 0.000000
# 3 -0.002886 -0.002886 0.008794 0.000000 0.000000 0.000000
# 4 0.000000 0.000000 0.000000 0.077422 0.000000 0.000000
# 5 0.000000 0.000000 0.000000 0.000000 0.077422 0.000000
# 6 0.000000 0.000000 0.000000 0.000000 0.000000 0.030234
#
#
# Mechanical properties :
#
#
# Convention : Reuss Voigt Hill
#
# Bulk Modulus (GPa) = 53.18894 56.77272 54.98083
# Shear Modulus (GPa) = 17.38887 22.44208 19.91548
#
# Velocity S-wave (km/s) = 3.06988 3.48753 3.28535
# Velocity P-wave (km/s) = 6.43368 6.85464 6.64749
#
# Compressibility (1/GPa) = 0.01880090
#
# Stress axis : x y z
#
# Youngs Moduli (GPa) = 41.06466 41.06466 113.70987
#
# Poissons Ratio (x) = 0.55754 0.32814
# Poissons Ratio (y) = 0.55754 0.32814
# Poissons Ratio (z) = 0.11850 0.11850
#
# Static dielectric constant tensor:
#      x y z
#    x 3.185520 0.000000 0.000000 
#    y 0.000000 3.185520 0.000000 
#    z 0.000000 0.000000 3.662590 
# 
# 
# High freq. dielectric constant tensor:
#      x y z
#    x 1.688340 0.000000 0.000000 
#    y 0.000000 1.688340 0.000000 
#    z 0.000000 0.000000 1.731810 
# 
# From -- ./inp_files/4747.got.cif
#   From: 2010.06.25/outbox.cif.g09.slc.cpg/sg140_3_cif.got.tgz:4747.got - 2010.06.28 10:53:23.
