data_PCOD8320561
_publ_section_title
;
Structure prediction by ZEFSAII (Michael W. Deem and Ramdas Pophale) SiO2 
 PCOD8320561
Probable space group: I 41/A M D
;
_chemical_formula_sum "Si O2"
_cell_formula_units_Z 176
_cell_length_a 17.936810
_cell_length_b 17.936810
_cell_length_c 28.480018
_cell_angle_alpha 90.000000
_cell_angle_beta 90.000000
_cell_angle_gamma 90.000000
_cell_volume 9162.852068
_symmetry_space_group_name_H-M "I 41/A M D"
_symmetry_group_IT_number 141
_space_group.IT_coordinate_system_code '2'
_symmetry_cell_setting 'tetragonal'
loop_
_space_group_symop_operation_xyz
x,y,z
1/4-y,3/4+x,1/4+z
-x,1/2-y,z
1/4+y,1/4-x,3/4+z
x,-y,-z
-x,1/2+y,-z
1/4+y,3/4+x,1/4-z
1/4-y,1/4-x,3/4-z
-x,-y,-z
3/4+y,1/4-x,3/4-z
x,1/2+y,-z
3/4-y,3/4+x,1/4-z
-x,y,z
x,1/2-y,z
3/4-y,1/4-x,3/4+z
3/4+y,3/4+x,1/4+z
1/2+x,1/2+y,1/2+z
3/4-y,1/4+x,3/4+z
1/2-x,-y,1/2+z
3/4+y,3/4-x,1/4+z
1/2+x,1/2-y,1/2-z
1/2-x,y,1/2-z
3/4+y,1/4+x,3/4-z
3/4-y,3/4-x,1/4-z
1/2-x,1/2-y,1/2-z
1/4+y,3/4-x,1/4-z
1/2+x,y,1/2-z
1/4-y,1/4+x,3/4-z
1/2-x,1/2+y,1/2+z
1/2+x,-y,1/2+z
1/4-y,3/4-x,1/4+z
1/4+y,1/4+x,3/4+z
loop_
_atom_site_type_symbol
_atom_site_label
_atom_site_fract_x
_atom_site_fract_y
_atom_site_fract_z
Si Si1 0.582621 0.448064 0.545162
Si Si2 0.664413 0.338535 0.030747
Si Si3 0.411131 0.833662 0.688946
Si Si4 0.587070 0.418858 0.761486
Si Si5 0.412881 0.162881 0.125000
Si Si6 0.911656 0.410376 0.095579
O O1 0.577476 0.500000 0.500000
O O2 0.500000 0.416171 0.556942
O O3 0.638811 0.379859 0.535072
O O4 0.611977 0.502983 0.586770
O O5 0.659777 0.250000 0.031111
O O6 0.748560 0.366058 0.023523
O O7 0.631641 0.368427 0.079898
O O8 0.615652 0.370682 0.987743
O O9 0.500000 0.834364 0.689646
O O10 0.380733 0.750000 0.682176
O O11 0.381272 0.884755 0.646254
O O12 0.500000 0.417792 0.749323
O O13 0.603609 0.368514 0.806499
O O14 0.500000 0.147882 0.116285
O O15 0.000000 0.403677 0.092573
#
# Coordination Sequence:
#
# PCOD8320561 Si02
#       6
#    32  32  32  32  16  32
#     4   8  15  28  46  69 100 134 169 214 260 303
#     4   9  18  30  47  73 103 134 166 209 260 310
#     4   9  16  28  49  77 103 125 162 216 263 300
#     4  10  18  28  46  71 103 138 171 210 257 314
#     4   9  16  30  54  76  96 132 178 216 258 315
#     4   9  17  30  51  76  99 128 168 220 270 304
#
# _framework density 19.207992000000001
#
# number of rings (size 3 to 8) (size 9 to 14) (size 15 to 20)
#    0.000    3.000    0.000    2.727    0.000    4.364 
#    0.000    0.909   12.000    0.000    0.000    6.364 
#    0.000   14.545    0.000    0.000    0.000    0.000 
#
# Total GULP energy -1090774.152373 kJ/mol
# GULP energy per Si atom -12395.160822 kJ/mol
# Density = 1.916427 g / cm^3
# Si number density = 19.207992 Si / 1000 Ang^3
#
#
#
# Elastic Constant Matrix: (Units=GPa)
#
#
# Indices 1 2 3 4 5 6 
#
# 1 81.0485 50.1281 56.1395 0.0000 0.0000 0.0000
# 2 50.1281 81.0485 56.1395 0.0000 0.0000 0.0000
# 3 56.1395 56.1395 143.1967 0.0000 0.0000 0.0000
# 4 0.0000 0.0000 0.0000 15.1106 0.0000 0.0000
# 5 0.0000 0.0000 0.0000 0.0000 15.1106 0.0000
# 6 0.0000 0.0000 0.0000 0.0000 0.0000 13.4086
#
#
#
# Elastic Compliance Matrix: (Units=1/GPa)
#
#
# Indices 1 2 3 4 5 6 
#
# 1 0.021907 -0.010434 -0.004498 0.000000 0.000000 0.000000
# 2 -0.010434 0.021907 -0.004498 0.000000 0.000000 0.000000
# 3 -0.004498 -0.004498 0.010510 0.000000 0.000000 0.000000
# 4 0.000000 0.000000 0.000000 0.066179 0.000000 0.000000
# 5 0.000000 0.000000 0.000000 0.000000 0.066179 0.000000
# 6 0.000000 0.000000 0.000000 0.000000 0.000000 0.074579
#
#
# Mechanical properties :
#
#
# Convention : Reuss Voigt Hill
#
# Bulk Modulus (GPa) = 64.66318 70.01198 67.33758
# Shear Modulus (GPa) = 16.37860 18.25172 17.31516
#
# Velocity S-wave (km/s) = 2.92327 3.08590 3.00568
# Velocity P-wave (km/s) = 6.71802 7.01609 6.86867
#
# Compressibility (1/GPa) = 0.01546475
#
# Stress axis : x y z
#
# Youngs Moduli (GPa) = 45.64691 45.64691 95.14480
#
# Poissons Ratio (x) = 0.47628 0.42797
# Poissons Ratio (y) = 0.47628 0.42797
# Poissons Ratio (z) = 0.20532 0.20532
#
# Static dielectric constant tensor:
#      x y z
#    x 3.441610 0.000000 0.000000 
#    y 0.000000 3.441610 0.000000 
#    z 0.000000 0.000000 3.773870 
# 
# 
# High freq. dielectric constant tensor:
#      x y z
#    x 1.724420 0.000000 0.000000 
#    y 0.000000 1.724420 0.000000 
#    z 0.000000 0.000000 1.743080 
# 
# From -- ./inp_files/12919.got.cif
#   From: 2010.03.12/outbox.cif.g09.slc.cpg/sg141_7_cif.got.tgz:12919.got - 2010.04.03 13:18:35.
