data_PCOD8320435
_publ_section_title
;
Structure prediction by ZEFSAII (Michael W. Deem and Ramdas Pophale) SiO2 
 PCOD8320435
Probable space group: I 4/M C M
;
_chemical_formula_sum "Si O2"
_cell_formula_units_Z 160
_cell_length_a 20.981881
_cell_length_b 20.981881
_cell_length_c 17.885493
_cell_angle_alpha 90.000000
_cell_angle_beta 90.000000
_cell_angle_gamma 90.000000
_cell_volume 7873.897460
_symmetry_space_group_name_H-M "I 4/M C M"
_symmetry_group_IT_number 140
_symmetry_cell_setting 'tetragonal'
loop_
_space_group_symop_operation_xyz
x,y,z
-y,x,z
-x,-y,z
y,-x,z
x,-y,1/2-z
-x,y,1/2-z
y,x,1/2-z
-y,-x,1/2-z
-x,-y,-z
y,-x,-z
x,y,-z
-y,x,-z
-x,y,1/2+z
x,-y,1/2+z
-y,-x,1/2+z
y,x,1/2+z
1/2+x,1/2+y,1/2+z
1/2-y,1/2+x,1/2+z
1/2-x,1/2-y,1/2+z
1/2+y,1/2-x,1/2+z
1/2+x,1/2-y,-z
1/2-x,1/2+y,-z
1/2+y,1/2+x,-z
1/2-y,1/2-x,-z
1/2-x,1/2-y,1/2-z
1/2+y,1/2-x,1/2-z
1/2+x,1/2+y,1/2-z
1/2-y,1/2+x,1/2-z
1/2-x,1/2+y,z
1/2+x,1/2-y,z
1/2-y,1/2-x,z
1/2+y,1/2+x,z
loop_
_atom_site_type_symbol
_atom_site_label
_atom_site_fract_x
_atom_site_fract_y
_atom_site_fract_z
Si Si1 0.637119 0.033149 0.174885
Si Si2 0.920526 0.420526 0.913987
Si Si3 0.281768 0.114385 0.418147
Si Si4 0.185786 0.685786 0.088285
Si Si5 0.423703 0.434292 0.661691
Si Si6 0.667758 0.319313 0.661182
O O1 0.592756 0.092756 0.197512
O O2 0.701921 0.053346 0.132514
O O3 0.660879 0.000000 0.250000
O O4 0.598602 0.986879 0.121697
O O5 0.867331 0.367331 0.901332
O O6 0.933297 0.433297 0.000000
O O7 0.256963 0.092663 0.500000
O O8 0.346489 0.153512 0.428195
O O9 0.231264 0.157555 0.377395
O O10 0.247916 0.657503 0.130515
O O11 0.199843 0.699843 0.000000
O O12 0.493442 0.410791 0.632367
O O13 0.429573 0.429573 0.750000
O O14 0.365256 0.390099 0.634564
O O15 0.678578 0.321423 0.750000
#
# Coordination Sequence:
#
# PCOD8320435 Si02
#       6
#    32  16  32  16  32  32
#     4  11  23  39  64  91 123 163 210 260 305 358
#     4  11  25  41  60  88 126 165 200 251 318 376
#     4  10  22  40  61  86 120 168 212 251 304 373
#     4  11  25  42  59  81 122 164 197 247 311 372
#     4   8  16  34  57  87 124 155 189 241 302 363
#     4  11  22  35  63  95 119 158 206 257 308 368
#
# _framework density 20.320305999999999
#
# number of rings (size 3 to 8) (size 9 to 14) (size 15 to 20)
#    0.000    1.800    2.000    2.400    2.800    3.200 
#    3.600    0.000    0.000    3.600    0.000    5.600 
#    0.000    0.000    0.000    0.000    0.000    0.000 
#
# Total GULP energy -991782.054553 kJ/mol
# GULP energy per Si atom -12397.275682 kJ/mol
# Density = 2.027406 g / cm^3
# Si number density = 20.320306 Si / 1000 Ang^3
#
#
#
# Elastic Constant Matrix: (Units=GPa)
#
#
# Indices 1 2 3 4 5 6 
#
# 1 47.6448 35.6941 18.7043 0.0000 0.0000 0.0000
# 2 35.6941 47.6449 18.7042 0.0000 0.0000 0.0000
# 3 18.7043 18.7042 118.2265 0.0000 0.0000 0.0000
# 4 0.0000 0.0000 0.0000 21.2181 0.0000 0.0000
# 5 0.0000 0.0000 0.0000 0.0000 21.2181 0.0000
# 6 0.0000 0.0000 0.0000 0.0000 0.0000 39.8161
#
#
#
# Elastic Compliance Matrix: (Units=1/GPa)
#
#
# Indices 1 2 3 4 5 6 
#
# 1 0.048297 -0.035380 -0.002044 0.000000 0.000000 0.000000
# 2 -0.035380 0.048297 -0.002043 0.000000 0.000000 0.000000
# 3 -0.002044 -0.002043 0.009105 0.000000 0.000000 0.000000
# 4 0.000000 0.000000 0.000000 0.047130 0.000000 0.000000
# 5 0.000000 0.000000 0.000000 0.000000 0.047130 0.000000
# 6 0.000000 0.000000 0.000000 0.000000 0.000000 0.025115
#
#
# Mechanical properties :
#
#
# Convention : Reuss Voigt Hill
#
# Bulk Modulus (GPa) = 37.36373 39.96905 38.66639
# Shear Modulus (GPa) = 15.97809 25.81137 20.89473
#
# Velocity S-wave (km/s) = 2.80717 3.56789 3.21014
# Velocity P-wave (km/s) = 5.37905 6.05684 5.72798
#
# Compressibility (1/GPa) = 0.02676393
#
# Stress axis : x y z
#
# Youngs Moduli (GPa) = 20.70532 20.70541 109.83073
#
# Poissons Ratio (x) = 0.73256 0.22444
# Poissons Ratio (y) = 0.73256 0.22443
# Poissons Ratio (z) = 0.04231 0.04231
#
# Static dielectric constant tensor:
#      x y z
#    x 3.719210 0.000000 0.000000 
#    y 0.000000 3.719210 0.000000 
#    z 0.000000 0.000000 3.866770 
# 
# 
# High freq. dielectric constant tensor:
#      x y z
#    x 1.792360 0.000000 0.000000 
#    y 0.000000 1.792360 0.000000 
#    z 0.000000 0.000000 1.790740 
# 
# From -- ./inp_files/6898.got.cif
#   From: 2010.06.25/outbox.cif.g09.slc.cpg/sg140_4_cif.got.tgz:6898.got - 2010.06.28 10:53:23.
