data_PCOD8320072
_publ_section_title
;
Structure prediction by ZEFSAII (Michael W. Deem and Ramdas Pophale) SiO2 
 PCOD8320072
Probable space group: I 4/M C M
;
_chemical_formula_sum "Si O2"
_cell_formula_units_Z 160
_cell_length_a 31.829321
_cell_length_b 31.829321
_cell_length_c 8.901118
_cell_angle_alpha 90.000000
_cell_angle_beta 90.000000
_cell_angle_gamma 90.000000
_cell_volume 9017.773163
_symmetry_space_group_name_H-M "I 4/M C M"
_symmetry_group_IT_number 140
_symmetry_cell_setting 'tetragonal'
loop_
_space_group_symop_operation_xyz
x,y,z
-y,x,z
-x,-y,z
y,-x,z
x,-y,1/2-z
-x,y,1/2-z
y,x,1/2-z
-y,-x,1/2-z
-x,-y,-z
y,-x,-z
x,y,-z
-y,x,-z
-x,y,1/2+z
x,-y,1/2+z
-y,-x,1/2+z
y,x,1/2+z
1/2+x,1/2+y,1/2+z
1/2-y,1/2+x,1/2+z
1/2-x,1/2-y,1/2+z
1/2+y,1/2-x,1/2+z
1/2+x,1/2-y,-z
1/2-x,1/2+y,-z
1/2+y,1/2+x,-z
1/2-y,1/2-x,-z
1/2-x,1/2-y,1/2-z
1/2+y,1/2-x,1/2-z
1/2+x,1/2+y,1/2-z
1/2-y,1/2+x,1/2-z
1/2-x,1/2+y,z
1/2+x,1/2-y,z
1/2-y,1/2-x,z
1/2+y,1/2+x,z
loop_
_atom_site_type_symbol
_atom_site_label
_atom_site_fract_x
_atom_site_fract_y
_atom_site_fract_z
Si Si1 0.115741 0.263652 0.178194
Si Si2 0.175118 0.675118 0.823427
Si Si3 0.044267 0.105742 0.325108
Si Si4 0.113797 0.613797 0.328187
Si Si5 0.671853 0.043882 0.829448
Si Si6 0.886432 0.174974 0.175148
O O1 0.159267 0.281220 0.249139
O O2 0.077237 0.293701 0.227566
O O3 0.104590 0.218713 0.244918
O O4 0.120920 0.261222 0.000000
O O5 0.140113 0.640113 0.791407
O O6 0.181634 0.681634 0.000000
O O7 0.064757 0.064757 0.250000
O O8 0.038203 0.096373 0.500000
O O9 0.072988 0.146283 0.296480
O O10 0.000000 0.115612 0.250000
O O11 0.127190 0.627190 0.500000
O O12 0.064609 0.625206 0.305470
O O13 0.675409 0.000000 0.750000
O O14 0.680701 0.033250 0.000000
O O15 0.845626 0.154375 0.250000
O O16 0.877494 0.181688 0.000000
#
# Coordination Sequence:
#
# PCOD8320072 Si02
#       6
#    32  16  32  16  32  32
#     4  10  20  35  53  74 104 139 170 208 256 304
#     4  10  18  30  51  77 101 129 170 215 254 299
#     4  10  21  37  57  80 107 137 173 214 258 307
#     4   8  16  32  48  66  98 138 169 203 256 309
#     4   9  18  31  49  73 101 131 167 209 254 301
#     4  10  21  37  56  78 104 137 173 209 251 304
#
# _framework density 17.742739
#
# number of rings (size 3 to 8) (size 9 to 14) (size 15 to 20)
#    0.000    2.400    0.000    3.900    0.000    7.400 
#    0.000    5.500    0.000    0.300    0.000    2.100 
#    0.000    0.000    0.000    0.000    0.000    0.000 
#
# Total GULP energy -991752.412997 kJ/mol
# GULP energy per Si atom -12396.905162 kJ/mol
# Density = 1.770236 g / cm^3
# Si number density = 17.742739 Si / 1000 Ang^3
#
#
#
# Elastic Constant Matrix: (Units=GPa)
#
#
# Indices 1 2 3 4 5 6 
#
# 1 79.5001 77.6362 55.0969 0.0000 0.0000 0.0000
# 2 77.6362 79.4861 55.0931 0.0000 0.0000 0.0000
# 3 55.0969 55.0931 109.7511 0.0000 0.0000 0.0000
# 4 0.0000 0.0000 0.0000 33.5552 0.0000 0.0000
# 5 0.0000 0.0000 0.0000 0.0000 33.5553 0.0000
# 6 0.0000 0.0000 0.0000 0.0000 0.0000 13.0804
#
#
#
# Elastic Compliance Matrix: (Units=1/GPa)
#
#
# Indices 1 2 3 4 5 6 
#
# 1 0.274148 -0.264353 -0.004926 0.000000 0.000000 0.000000
# 2 -0.264353 0.274202 -0.004935 0.000000 0.000000 0.000000
# 3 -0.004926 -0.004935 0.014062 0.000000 0.000000 0.000000
# 4 0.000000 0.000000 0.000000 0.029802 0.000000 0.000000
# 5 0.000000 0.000000 0.000000 0.000000 0.029802 0.000000
# 6 0.000000 0.000000 0.000000 0.000000 0.000000 0.076450
#
#
# Mechanical properties :
#
#
# Convention : Reuss Voigt Hill
#
# Bulk Modulus (GPa) = 71.51414 71.59884 71.55649
# Shear Modulus (GPa) = 3.99503 21.43225 12.71364
#
# Velocity S-wave (km/s) = 1.50217 3.47932 2.67976
# Velocity P-wave (km/s) = 6.58805 7.52213 7.07053
#
# Compressibility (1/GPa) = 0.01398325
#
# Stress axis : x y z
#
# Youngs Moduli (GPa) = 3.64766 3.64694 71.11466
#
# Poissons Ratio (x) = 0.96408 0.35031
# Poissons Ratio (y) = 0.96427 0.35096
# Poissons Ratio (z) = 0.01797 0.01800
#
# Static dielectric constant tensor:
#      x y z
#    x 3.317200 0.000000 0.000000 
#    y 0.000000 3.317210 0.000000 
#    z 0.000000 0.000000 3.359070 
# 
# 
# High freq. dielectric constant tensor:
#      x y z
#    x 1.677550 0.000000 0.000000 
#    y 0.000000 1.677550 0.000000 
#    z 0.000000 0.000000 1.698190 
# 
# From -- ./inp_files/1832.got.cif
#   From: 2010.06.25/outbox.cif.g09.slc.cpg/sg140_1_cif.got.tgz:1832.got - 2010.06.28 10:53:23.
