data_PCOD8320971
_publ_section_title
;
Structure prediction by ZEFSAII (Michael W. Deem and Ramdas Pophale) SiO2 
 PCOD8320971
Probable space group: I 41/A C D
;
_chemical_formula_sum "Si O2"
_cell_formula_units_Z 96
_cell_length_a 17.076342
_cell_length_b 17.076342
_cell_length_c 11.352745
_cell_angle_alpha 90.000000
_cell_angle_beta 90.000000
_cell_angle_gamma 90.000000
_cell_volume 3310.476973
_symmetry_space_group_name_H-M "I 41/A C D"
_symmetry_group_IT_number 142
_space_group.IT_coordinate_system_code '2'
_symmetry_cell_setting 'tetragonal'
loop_
_space_group_symop_operation_xyz
x,y,z
1/4-y,3/4+x,1/4+z
-x,1/2-y,z
1/4+y,1/4-x,3/4+z
x,-y,1/2-z
1/2-x,y,-z
3/4+y,1/4+x,1/4-z
1/4-y,1/4-x,1/4-z
-x,-y,-z
3/4+y,1/4-x,3/4-z
x,1/2+y,-z
3/4-y,3/4+x,1/4-z
-x,y,1/2+z
1/2+x,-y,z
1/4-y,3/4-x,3/4+z
3/4+y,3/4+x,3/4+z
1/2+x,1/2+y,1/2+z
3/4-y,1/4+x,3/4+z
1/2-x,-y,1/2+z
3/4+y,3/4-x,1/4+z
1/2+x,1/2-y,-z
-x,1/2+y,1/2-z
1/4+y,3/4+x,3/4-z
3/4-y,3/4-x,3/4-z
1/2-x,1/2-y,1/2-z
1/4+y,3/4-x,1/4-z
1/2+x,y,1/2-z
1/4-y,1/4+x,3/4-z
1/2-x,1/2+y,z
x,1/2-y,1/2+z
3/4-y,1/4-x,1/4+z
1/4+y,1/4+x,1/4+z
loop_
_atom_site_type_symbol
_atom_site_label
_atom_site_fract_x
_atom_site_fract_y
_atom_site_fract_z
Si Si1 0.298389 0.868485 0.715755
Si Si2 0.914654 0.340021 0.845699
Si Si3 0.687441 0.297556 0.393983
O O1 0.306949 0.943052 0.625000
O O2 0.356767 0.891278 0.823434
O O3 0.326540 0.791889 0.643124
O O4 0.214039 0.849513 0.776791
O O5 0.890336 0.250698 0.853650
O O6 0.915697 0.359336 0.705768
O O7 0.750000 0.302062 0.500000
#
# Coordination Sequence:
#
# PCOD8320971 Si02
#       3
#    32  32  32
#     4  10  18  33  54  76 115 165 209 263 337 401
#     4  10  19  31  49  81 123 161 205 265 341 419
#     4   9  19  33  50  77 117 155 210 262 325 408
#
# _framework density 28.998840999999999
#
# number of rings (size 3 to 8) (size 9 to 14) (size 15 to 20)
#    0.000    2.333    3.333    0.000    0.000    1.333 
#    0.000    0.000    0.000    0.000    0.000    0.000 
#   30.000    0.000    0.000    0.000    0.000    0.000 
#
# Total GULP energy -594835.666889 kJ/mol
# GULP energy per Si atom -12392.409727 kJ/mol
# Density = 2.893284 g / cm^3
# Si number density = 28.998841 Si / 1000 Ang^3
#
#
#
# Elastic Constant Matrix: (Units=GPa)
#
#
# Indices 1 2 3 4 5 6 
#
# 1 75.7087 9.1572 49.8980 0.0000 0.0000 0.0000
# 2 9.1572 75.7075 49.8972 0.0000 0.0000 0.0000
# 3 49.8980 49.8972 230.4055 0.0000 0.0000 0.0000
# 4 0.0000 0.0000 0.0000 48.8664 0.0000 0.0000
# 5 0.0000 0.0000 0.0000 0.0000 48.8666 0.0000
# 6 0.0000 0.0000 0.0000 0.0000 0.0000 37.6513
#
#
#
# Elastic Compliance Matrix: (Units=1/GPa)
#
#
# Indices 1 2 3 4 5 6 
#
# 1 0.015418 0.000392 -0.003424 0.000000 0.000000 0.000000
# 2 0.000392 0.015418 -0.003424 0.000000 0.000000 0.000000
# 3 -0.003424 -0.003424 0.005823 0.000000 0.000000 0.000000
# 4 0.000000 0.000000 0.000000 0.020464 0.000000 0.000000
# 5 0.000000 0.000000 0.000000 0.000000 0.020464 0.000000
# 6 0.000000 0.000000 0.000000 0.000000 0.000000 0.026560
#
#
# Mechanical properties :
#
#
# Convention : Reuss Voigt Hill
#
# Bulk Modulus (GPa) = 42.11058 66.63626 54.37342
# Shear Modulus (GPa) = 40.00852 45.26814 42.63833
#
# Velocity S-wave (km/s) = 3.71841 3.95528 3.83867
# Velocity P-wave (km/s) = 5.74355 6.62479 6.19985
#
# Compressibility (1/GPa) = 0.02374700
#
# Stress axis : x y z
#
# Youngs Moduli (GPa) = 64.86059 64.85972 171.72968
#
# Poissons Ratio (x) = -0.02541 0.58796
# Poissons Ratio (y) = -0.02541 0.58796
# Poissons Ratio (z) = 0.22207 0.22206
#
# Static dielectric constant tensor:
#      x y z
#    x 5.129510 0.000000 0.000000 
#    y 0.000000 5.129520 0.000000 
#    z 0.000000 0.000000 6.593420 
# 
# 
# High freq. dielectric constant tensor:
#      x y z
#    x 2.167460 0.000000 0.000000 
#    y 0.000000 2.167460 0.000000 
#    z 0.000000 0.000000 2.248310 
# 
# From -- ./inp_files/3170.got.cif
#   From: 2010.03.12/outbox.cif.g09.slc.cpg/sg142_2_cif.got.tgz:3170.got - 2010.04.03 13:27:16.
