data_PCOD8320476
_publ_section_title
;
Structure prediction by ZEFSAII (Michael W. Deem and Ramdas Pophale) SiO2 
 PCOD8320476
Probable space group: I 4/M C M
;
_chemical_formula_sum "Si O2"
_cell_formula_units_Z 192
_cell_length_a 19.655222
_cell_length_b 19.655222
_cell_length_c 26.889190
_cell_angle_alpha 90.000000
_cell_angle_beta 90.000000
_cell_angle_gamma 90.000000
_cell_volume 10388.040322
_symmetry_space_group_name_H-M "I 4/M C M"
_symmetry_group_IT_number 140
_symmetry_cell_setting 'tetragonal'
loop_
_space_group_symop_operation_xyz
x,y,z
-y,x,z
-x,-y,z
y,-x,z
x,-y,1/2-z
-x,y,1/2-z
y,x,1/2-z
-y,-x,1/2-z
-x,-y,-z
y,-x,-z
x,y,-z
-y,x,-z
-x,y,1/2+z
x,-y,1/2+z
-y,-x,1/2+z
y,x,1/2+z
1/2+x,1/2+y,1/2+z
1/2-y,1/2+x,1/2+z
1/2-x,1/2-y,1/2+z
1/2+y,1/2-x,1/2+z
1/2+x,1/2-y,-z
1/2-x,1/2+y,-z
1/2+y,1/2+x,-z
1/2-y,1/2-x,-z
1/2-x,1/2-y,1/2-z
1/2+y,1/2-x,1/2-z
1/2+x,1/2+y,1/2-z
1/2-y,1/2+x,1/2-z
1/2-x,1/2+y,z
1/2+x,1/2-y,z
1/2-y,1/2-x,z
1/2+y,1/2+x,z
loop_
_atom_site_type_symbol
_atom_site_label
_atom_site_fract_x
_atom_site_fract_y
_atom_site_fract_z
Si Si1 0.000088 0.388405 0.856278
Si Si2 0.934368 0.322167 0.944846
Si Si3 0.785043 0.174141 0.803290
Si Si4 0.585462 0.428435 0.944912
Si Si5 0.748314 0.481593 0.306404
Si Si6 0.402569 0.700161 0.374900
O O1 0.934661 0.434661 0.842656
O O2 0.993114 0.357679 0.911855
O O3 0.068840 0.431161 0.854458
O O4 0.004246 0.328068 0.816395
O O5 0.871016 0.371016 0.950507
O O6 0.906994 0.255206 0.918277
O O7 0.963819 0.305275 0.000000
O O8 0.821288 0.178713 0.750000
O O9 0.713413 0.213413 0.803254
O O10 0.770961 0.096190 0.817720
O O11 0.835290 0.210781 0.842150
O O12 0.594522 0.508664 0.938233
O O13 0.627900 0.393040 0.901591
O O14 0.611123 0.407169 0.000000
O O15 0.732108 0.500000 0.250000
O O16 0.702256 0.529950 0.340920
#
# Coordination Sequence:
#
# PCOD8320476 Si02
#       6
#    32  32  32  32  32  32
#     4   9  19  34  53  79 109 142 182 230 287 347
#     4   9  18  32  52  79 108 139 178 223 270 327
#     4  11  23  38  56  79 108 148 190 232 285 339
#     4   9  18  33  54  80 106 134 172 219 273 330
#     4  11  22  37  54  79 108 147 189 239 284 341
#     4  11  20  35  56  78 108 142 185 226 275 332
#
# _framework density 18.482793000000001
#
# number of rings (size 3 to 8) (size 9 to 14) (size 15 to 20)
#    0.000    2.000    1.667    3.000    0.000    2.333 
#    0.000    2.500    0.000    1.000    0.000    0.000 
#    0.000    0.000    0.000    0.000    0.000    0.000 
#
# Total GULP energy -1190376.257323 kJ/mol
# GULP energy per Si atom -12399.752680 kJ/mol
# Density = 1.844073 g / cm^3
# Si number density = 18.482793 Si / 1000 Ang^3
#
#
#
# Elastic Constant Matrix: (Units=GPa)
#
#
# Indices 1 2 3 4 5 6 
#
# 1 62.6638 2.9288 16.3959 0.0000 0.0000 0.0000
# 2 2.9288 62.6644 16.3960 0.0000 0.0000 0.0000
# 3 16.3959 16.3960 89.9616 0.0000 0.0000 0.0000
# 4 0.0000 0.0000 0.0000 24.5124 0.0000 0.0000
# 5 0.0000 0.0000 0.0000 0.0000 24.5123 0.0000
# 6 0.0000 0.0000 0.0000 0.0000 0.0000 17.1020
#
#
#
# Elastic Compliance Matrix: (Units=1/GPa)
#
#
# Indices 1 2 3 4 5 6 
#
# 1 0.016757 0.000017 -0.003057 0.000000 0.000000 0.000000
# 2 0.000017 0.016757 -0.003057 0.000000 0.000000 0.000000
# 3 -0.003057 -0.003057 0.012230 0.000000 0.000000 0.000000
# 4 0.000000 0.000000 0.000000 0.040796 0.000000 0.000000
# 5 0.000000 0.000000 0.000000 0.000000 0.040796 0.000000
# 6 0.000000 0.000000 0.000000 0.000000 0.000000 0.058473
#
#
# Mechanical properties :
#
#
# Convention : Reuss Voigt Hill
#
# Bulk Modulus (GPa) = 29.80667 31.85900 30.83283
# Shear Modulus (GPa) = 23.90208 25.19664 24.54936
#
# Velocity S-wave (km/s) = 3.60002 3.69623 3.64844
# Velocity P-wave (km/s) = 5.78290 5.95740 5.87080
#
# Compressibility (1/GPa) = 0.03354953
#
# Stress axis : x y z
#
# Youngs Moduli (GPa) = 59.67552 59.67605 81.76477
#
# Poissons Ratio (x) = -0.00100 0.24997
# Poissons Ratio (y) = -0.00100 0.24996
# Poissons Ratio (z) = 0.18244 0.18244
#
# Static dielectric constant tensor:
#      x y z
#    x 3.318720 0.000000 0.000000 
#    y 0.000000 3.318710 0.000000 
#    z 0.000000 0.000000 3.575330 
# 
# 
# High freq. dielectric constant tensor:
#      x y z
#    x 1.711540 0.000000 0.000000 
#    y 0.000000 1.711540 0.000000 
#    z 0.000000 0.000000 1.726910 
# 
# From -- ./inp_files/9789.got.cif
#   From: 2010.06.25/outbox.cif.g09.slc.cpg/sg140_5_cif.got.tgz:9789.got - 2010.06.28 10:53:23.
