data_PCOD8320562
_publ_section_title
;
Structure prediction by ZEFSAII (Michael W. Deem and Ramdas Pophale) SiO2 
 PCOD8320562
Probable space group: I 41/A M D
;
_chemical_formula_sum "Si O2"
_cell_formula_units_Z 192
_cell_length_a 21.355899
_cell_length_b 21.355899
_cell_length_c 24.238620
_cell_angle_alpha 90.000000
_cell_angle_beta 90.000000
_cell_angle_gamma 90.000000
_cell_volume 11054.614609
_symmetry_space_group_name_H-M "I 41/A M D"
_symmetry_group_IT_number 141
_space_group.IT_coordinate_system_code '2'
_symmetry_cell_setting 'tetragonal'
loop_
_space_group_symop_operation_xyz
x,y,z
1/4-y,3/4+x,1/4+z
-x,1/2-y,z
1/4+y,1/4-x,3/4+z
x,-y,-z
-x,1/2+y,-z
1/4+y,3/4+x,1/4-z
1/4-y,1/4-x,3/4-z
-x,-y,-z
3/4+y,1/4-x,3/4-z
x,1/2+y,-z
3/4-y,3/4+x,1/4-z
-x,y,z
x,1/2-y,z
3/4-y,1/4-x,3/4+z
3/4+y,3/4+x,1/4+z
1/2+x,1/2+y,1/2+z
3/4-y,1/4+x,3/4+z
1/2-x,-y,1/2+z
3/4+y,3/4-x,1/4+z
1/2+x,1/2-y,1/2-z
1/2-x,y,1/2-z
3/4+y,1/4+x,3/4-z
3/4-y,3/4-x,1/4-z
1/2-x,1/2-y,1/2-z
1/4+y,3/4-x,1/4-z
1/2+x,y,1/2-z
1/4-y,1/4+x,3/4-z
1/2-x,1/2+y,1/2+z
1/2+x,-y,1/2+z
1/4-y,3/4-x,1/4+z
1/4+y,1/4+x,3/4+z
loop_
_atom_site_type_symbol
_atom_site_label
_atom_site_fract_x
_atom_site_fract_y
_atom_site_fract_z
Si Si1 0.430381 0.175169 0.565381
Si Si2 0.431343 0.822189 0.639803
Si Si3 0.652288 0.137692 0.265823
Si Si4 0.213195 0.323473 0.453312
Si Si5 0.143772 0.823613 0.962935
Si Si6 0.428989 0.481969 0.078903
O O1 0.403505 0.153505 0.625000
O O2 0.500000 0.148941 0.555752
O O3 0.431308 0.250000 0.564879
O O4 0.388114 0.146515 0.516943
O O5 0.500000 0.854516 0.638206
O O6 0.439593 0.750000 0.626467
O O7 0.402611 0.829088 0.700547
O O8 0.386907 0.852830 0.592687
O O9 0.622244 0.074032 0.241814
O O10 0.713107 0.131844 0.306960
O O11 0.673806 0.178780 0.213435
O O12 0.196042 0.250000 0.464661
O O13 0.284070 0.339294 0.467539
O O14 0.204781 0.340007 0.388505
O O15 0.132461 0.750000 0.961961
O O16 0.500000 0.510038 0.082152
#
# Coordination Sequence:
#
# PCOD8320562 Si02
#       6
#    32  32  32  32  32  32
#     4   8  13  22  40  68  97 123 156 197 243 302
#     4  10  18  28  46  73 103 130 160 206 260 309
#     4  11  19  31  50  73  97 130 174 214 253 306
#     4  10  20  33  49  73 102 132 172 217 257 310
#     4   9  16  28  44  66  99 133 161 195 246 308
#     4  10  20  35  54  72  99 137 173 213 264 324
#
# _framework density 17.368312
#
# number of rings (size 3 to 8) (size 9 to 14) (size 15 to 20)
#    0.000    2.333    1.667    4.000    0.000    2.000 
#    0.000    0.000    0.000    4.000    0.000   11.667 
#    0.000    6.667    0.000    0.000    0.000    0.000 
#
# Total GULP energy -1189282.515524 kJ/mol
# GULP energy per Si atom -12388.359537 kJ/mol
# Density = 1.732878 g / cm^3
# Si number density = 17.368312 Si / 1000 Ang^3
#
#
#
# Elastic Constant Matrix: (Units=GPa)
#
#
# Indices 1 2 3 4 5 6 
#
# 1 64.7343 33.8119 43.2057 0.0000 0.0000 0.0000
# 2 33.8119 64.7343 43.2057 0.0000 0.0000 0.0000
# 3 43.2057 43.2057 124.0451 0.0000 0.0000 0.0000
# 4 0.0000 0.0000 0.0000 22.9824 0.0000 0.0000
# 5 0.0000 0.0000 0.0000 0.0000 22.9824 0.0000
# 6 0.0000 0.0000 0.0000 0.0000 0.0000 19.6770
#
#
#
# Elastic Compliance Matrix: (Units=1/GPa)
#
#
# Indices 1 2 3 4 5 6 
#
# 1 0.023474 -0.008865 -0.005089 0.000000 0.000000 0.000000
# 2 -0.008865 0.023474 -0.005089 0.000000 0.000000 0.000000
# 3 -0.005089 -0.005089 0.011606 0.000000 0.000000 0.000000
# 4 0.000000 0.000000 0.000000 0.043512 0.000000 0.000000
# 5 0.000000 0.000000 0.000000 0.000000 0.043512 0.000000
# 6 0.000000 0.000000 0.000000 0.000000 0.000000 0.050821
#
#
# Mechanical properties :
#
#
# Convention : Reuss Voigt Hill
#
# Bulk Modulus (GPa) = 48.84952 54.88450 51.86701
# Shear Modulus (GPa) = 20.72055 22.01438 21.36746
#
# Velocity S-wave (km/s) = 3.45774 3.56406 3.51130
# Velocity P-wave (km/s) = 6.64289 6.97178 6.80932
#
# Compressibility (1/GPa) = 0.02047103
#
# Stress axis : x y z
#
# Youngs Moduli (GPa) = 42.59981 42.59981 86.15964
#
# Poissons Ratio (x) = 0.37764 0.43843
# Poissons Ratio (y) = 0.37764 0.43843
# Poissons Ratio (z) = 0.21677 0.21677
#
# Static dielectric constant tensor:
#      x y z
#    x 3.025440 0.000000 0.000000 
#    y 0.000000 3.025440 0.000000 
#    z 0.000000 0.000000 3.642630 
# 
# 
# High freq. dielectric constant tensor:
#      x y z
#    x 1.633500 0.000000 0.000000 
#    y 0.000000 1.633500 0.000000 
#    z 0.000000 0.000000 1.693160 
# 
# From -- ./inp_files/11727.got.cif
#   From: 2010.03.12/outbox.cif.g09.slc.cpg/sg141_6_cif.got.tgz:11727.got - 2010.04.03 13:18:35.
