data_PCOD8320638
_publ_section_title
;
Structure prediction by ZEFSAII (Michael W. Deem and Ramdas Pophale) SiO2 
 PCOD8320638
Probable space group: I 41/A M D
;
_chemical_formula_sum "Si O2"
_cell_formula_units_Z 160
_cell_length_a 20.663329
_cell_length_b 20.663329
_cell_length_c 19.925570
_cell_angle_alpha 90.000000
_cell_angle_beta 90.000000
_cell_angle_gamma 90.000000
_cell_volume 8507.683695
_symmetry_space_group_name_H-M "I 41/A M D"
_symmetry_group_IT_number 141
_space_group.IT_coordinate_system_code '2'
_symmetry_cell_setting 'tetragonal'
loop_
_space_group_symop_operation_xyz
x,y,z
1/4-y,3/4+x,1/4+z
-x,1/2-y,z
1/4+y,1/4-x,3/4+z
x,-y,-z
-x,1/2+y,-z
1/4+y,3/4+x,1/4-z
1/4-y,1/4-x,3/4-z
-x,-y,-z
3/4+y,1/4-x,3/4-z
x,1/2+y,-z
3/4-y,3/4+x,1/4-z
-x,y,z
x,1/2-y,z
3/4-y,1/4-x,3/4+z
3/4+y,3/4+x,1/4+z
1/2+x,1/2+y,1/2+z
3/4-y,1/4+x,3/4+z
1/2-x,-y,1/2+z
3/4+y,3/4-x,1/4+z
1/2+x,1/2-y,1/2-z
1/2-x,y,1/2-z
3/4+y,1/4+x,3/4-z
3/4-y,3/4-x,1/4-z
1/2-x,1/2-y,1/2-z
1/4+y,3/4-x,1/4-z
1/2+x,y,1/2-z
1/4-y,1/4+x,3/4-z
1/2-x,1/2+y,1/2+z
1/2+x,-y,1/2+z
1/4-y,3/4-x,1/4+z
1/4+y,1/4+x,3/4+z
loop_
_atom_site_type_symbol
_atom_site_label
_atom_site_fract_x
_atom_site_fract_y
_atom_site_fract_z
Si Si1 0.331854 0.824875 0.947583
Si Si2 0.426670 0.373032 0.689045
Si Si3 0.924222 0.484833 0.169232
Si Si4 0.183254 0.173503 0.716051
Si Si5 0.307589 0.324545 0.201220
O O1 0.355423 0.750000 0.954178
O O2 0.291544 0.833854 0.878081
O O3 0.392730 0.872101 0.958470
O O4 0.284075 0.846996 0.006297
O O5 0.500000 0.375042 0.717464
O O6 0.424769 0.325232 0.625000
O O7 0.403289 0.441351 0.658207
O O8 0.380506 0.355553 0.750524
O O9 0.896412 0.438062 0.110662
O O10 0.000000 0.479618 0.160898
O O11 0.175939 0.250000 0.721184
O O12 0.250000 0.150788 0.750000
O O13 0.317286 0.250000 0.220734
O O14 0.250000 0.352878 0.250000
#
# Coordination Sequence:
#
# PCOD8320638 Si02
#       5
#    32  32  32  32  32
#     4   9  18  34  55  79 108 145 187 226 273 339
#     4  11  21  34  56  83 107 139 190 241 280 328
#     4   9  19  35  53  75 107 147 184 222 277 343
#     4  10  19  34  53  74 107 146 178 219 280 337
#     4   9  18  33  56  83 111 143 180 229 286 335
#
# _framework density 18.806528
#
# number of rings (size 3 to 8) (size 9 to 14) (size 15 to 20)
#    0.000    2.400    2.000    0.600    0.000    3.400 
#    0.000    6.000    4.400    3.600    0.000    0.000 
#    0.000    0.000    0.000    0.000    0.000    0.000 
#
# Total GULP energy -991049.070671 kJ/mol
# GULP energy per Si atom -12388.113383 kJ/mol
# Density = 1.876372 g / cm^3
# Si number density = 18.806528 Si / 1000 Ang^3
#
#
#
# Elastic Constant Matrix: (Units=GPa)
#
#
# Indices 1 2 3 4 5 6 
#
# 1 81.2632 35.6143 55.2893 0.0000 0.0000 0.0000
# 2 35.6143 81.2648 55.2899 0.0000 0.0000 0.0000
# 3 55.2893 55.2899 146.0588 0.0000 0.0000 0.0000
# 4 0.0000 0.0000 0.0000 27.0618 0.0000 0.0000
# 5 0.0000 0.0000 0.0000 0.0000 27.0619 0.0000
# 6 0.0000 0.0000 0.0000 0.0000 0.0000 16.8247
#
#
#
# Elastic Compliance Matrix: (Units=1/GPa)
#
#
# Indices 1 2 3 4 5 6 
#
# 1 0.017618 -0.004288 -0.005046 0.000000 0.000000 0.000000
# 2 -0.004288 0.017618 -0.005046 0.000000 0.000000 0.000000
# 3 -0.005046 -0.005046 0.010667 0.000000 0.000000 0.000000
# 4 0.000000 0.000000 0.000000 0.036952 0.000000 0.000000
# 5 0.000000 0.000000 0.000000 0.000000 0.036952 0.000000
# 6 0.000000 0.000000 0.000000 0.000000 0.000000 0.059436
#
#
# Mechanical properties :
#
#
# Convention : Reuss Voigt Hill
#
# Bulk Modulus (GPa) = 58.33352 66.77485 62.55419
# Shear Modulus (GPa) = 23.39534 25.01592 24.20563
#
# Velocity S-wave (km/s) = 3.53087 3.65111 3.59149
# Velocity P-wave (km/s) = 6.90708 7.30462 7.10863
#
# Compressibility (1/GPa) = 0.01714280
#
# Stress axis : x y z
#
# Youngs Moduli (GPa) = 56.75983 56.76088 93.74900
#
# Poissons Ratio (x) = 0.24339 0.47305
# Poissons Ratio (y) = 0.24339 0.47305
# Poissons Ratio (z) = 0.28641 0.28641
#
# Static dielectric constant tensor:
#      x y z
#    x 3.472740 0.000000 0.000000 
#    y 0.000000 3.472750 0.000000 
#    z 0.000000 0.000000 4.064290 
# 
# 
# High freq. dielectric constant tensor:
#      x y z
#    x 1.711500 0.000000 0.000000 
#    y 0.000000 1.711500 0.000000 
#    z 0.000000 0.000000 1.745600 
# 
# From -- ./inp_files/8557.got.cif
#   From: 2010.03.12/outbox.cif.g09.slc.cpg/sg141_5_cif.got.tgz:8557.got - 2010.04.03 13:18:35.
