data_PCOD8320640
_publ_section_title
;
Structure prediction by ZEFSAII (Michael W. Deem and Ramdas Pophale) SiO2 
 PCOD8320640
Probable space group: I 41/A M D
;
_chemical_formula_sum "Si O2"
_cell_formula_units_Z 128
_cell_length_a 23.311779
_cell_length_b 23.311779
_cell_length_c 12.713616
_cell_angle_alpha 90.000000
_cell_angle_beta 90.000000
_cell_angle_gamma 90.000000
_cell_volume 6909.075276
_symmetry_space_group_name_H-M "I 41/A M D"
_symmetry_group_IT_number 141
_space_group.IT_coordinate_system_code '2'
_symmetry_cell_setting 'tetragonal'
loop_
_space_group_symop_operation_xyz
x,y,z
1/4-y,3/4+x,1/4+z
-x,1/2-y,z
1/4+y,1/4-x,3/4+z
x,-y,-z
-x,1/2+y,-z
1/4+y,3/4+x,1/4-z
1/4-y,1/4-x,3/4-z
-x,-y,-z
3/4+y,1/4-x,3/4-z
x,1/2+y,-z
3/4-y,3/4+x,1/4-z
-x,y,z
x,1/2-y,z
3/4-y,1/4-x,3/4+z
3/4+y,3/4+x,1/4+z
1/2+x,1/2+y,1/2+z
3/4-y,1/4+x,3/4+z
1/2-x,-y,1/2+z
3/4+y,3/4-x,1/4+z
1/2+x,1/2-y,1/2-z
1/2-x,y,1/2-z
3/4+y,1/4+x,3/4-z
3/4-y,3/4-x,1/4-z
1/2-x,1/2-y,1/2-z
1/4+y,3/4-x,1/4-z
1/2+x,y,1/2-z
1/4-y,1/4+x,3/4-z
1/2-x,1/2+y,1/2+z
1/2+x,-y,1/2+z
1/4-y,3/4-x,1/4+z
1/4+y,1/4+x,3/4+z
loop_
_atom_site_type_symbol
_atom_site_label
_atom_site_fract_x
_atom_site_fract_y
_atom_site_fract_z
Si Si1 0.564917 0.184252 0.248666
Si Si2 0.636738 0.595000 0.626925
Si Si3 0.433917 0.098220 0.575200
Si Si4 0.143310 0.028185 0.801231
O O1 0.500000 0.164593 0.280497
O O2 0.573689 0.250000 0.283198
O O3 0.615281 0.148045 0.303459
O O4 0.572727 0.177274 0.125000
O O5 0.587585 0.583626 0.541380
O O6 0.647792 0.540270 0.701932
O O7 0.697293 0.605749 0.567509
O O8 0.404065 0.154065 0.625000
O O9 0.500000 0.111093 0.573212
O O10 0.418391 0.044040 0.648508
O O11 0.193017 0.056984 0.875000
#
# Coordination Sequence:
#
# PCOD8320640 Si02
#       4
#    32  32  32  32
#     4   9  19  37  58  78 104 139 177 216 260 313
#     4  10  19  34  55  77 102 137 178 218 262 312
#     4   9  18  30  46  72 106 141 175 216 264 314
#     4   9  19  34  51  74 107 139 173 216 259 315
#
# _framework density 18.526357999999998
#
# number of rings (size 3 to 8) (size 9 to 14) (size 15 to 20)
#    0.000    3.250    0.000    4.500    0.000    7.250 
#    0.000    5.000    0.000    3.000    0.000    0.000 
#    0.000    0.000    0.000    0.000    0.000    0.000 
#
# Total GULP energy -793024.767191 kJ/mol
# GULP energy per Si atom -12391.011987 kJ/mol
# Density = 1.848419 g / cm^3
# Si number density = 18.526358 Si / 1000 Ang^3
#
#
#
# Elastic Constant Matrix: (Units=GPa)
#
#
# Indices 1 2 3 4 5 6 
#
# 1 104.1796 54.9675 49.2574 0.0000 0.0000 0.0000
# 2 54.9675 104.1825 49.2572 0.0000 0.0000 0.0000
# 3 49.2574 49.2572 75.6919 0.0000 0.0000 0.0000
# 4 0.0000 0.0000 0.0000 18.9216 0.0000 0.0000
# 5 0.0000 0.0000 0.0000 0.0000 18.9217 0.0000
# 6 0.0000 0.0000 0.0000 0.0000 0.0000 10.3329
#
#
#
# Elastic Compliance Matrix: (Units=1/GPa)
#
#
# Indices 1 2 3 4 5 6 
#
# 1 0.015421 -0.004899 -0.006848 0.000000 0.000000 0.000000
# 2 -0.004899 0.015420 -0.006847 0.000000 0.000000 0.000000
# 3 -0.006848 -0.006847 0.022123 0.000000 0.000000 0.000000
# 4 0.000000 0.000000 0.000000 0.052850 0.000000 0.000000
# 5 0.000000 0.000000 0.000000 0.000000 0.052850 0.000000
# 6 0.000000 0.000000 0.000000 0.000000 0.000000 0.096778
#
#
# Mechanical properties :
#
#
# Convention : Reuss Voigt Hill
#
# Bulk Modulus (GPa) = 63.37879 65.66868 64.52373
# Shear Modulus (GPa) = 16.78480 18.34002 17.56241
#
# Velocity S-wave (km/s) = 3.01324 3.14975 3.08225
# Velocity P-wave (km/s) = 6.81106 6.98219 6.89715
#
# Compressibility (1/GPa) = 0.01577815
#
# Stress axis : x y z
#
# Youngs Moduli (GPa) = 64.84609 64.84896 45.20112
#
# Poissons Ratio (x) = 0.31768 0.30952
# Poissons Ratio (y) = 0.31767 0.30949
# Poissons Ratio (z) = 0.44404 0.44402
#
# Static dielectric constant tensor:
#      x y z
#    x 3.296000 0.000000 0.000000 
#    y 0.000000 3.296010 0.000000 
#    z 0.000000 0.000000 3.291260 
# 
# 
# High freq. dielectric constant tensor:
#      x y z
#    x 1.706580 0.000000 0.000000 
#    y 0.000000 1.706580 0.000000 
#    z 0.000000 0.000000 1.707710 
# 
# From -- ./inp_files/4535.got.cif
#   From: 2010.03.12/outbox.cif.g09.slc.cpg/sg141_3_cif.got.tgz:4535.got - 2010.04.03 13:18:35.
