data_PCOD8320555
_publ_section_title
;
Structure prediction by ZEFSAII (Michael W. Deem and Ramdas Pophale) SiO2 
 PCOD8320555
Probable space group: I 41/A M D
;
_chemical_formula_sum "Si O2"
_cell_formula_units_Z 128
_cell_length_a 22.625908
_cell_length_b 22.625908
_cell_length_c 15.031358
_cell_angle_alpha 90.000000
_cell_angle_beta 90.000000
_cell_angle_gamma 90.000000
_cell_volume 7695.028847
_symmetry_space_group_name_H-M "I 41/A M D"
_symmetry_group_IT_number 141
_space_group.IT_coordinate_system_code '2'
_symmetry_cell_setting 'tetragonal'
loop_
_space_group_symop_operation_xyz
x,y,z
1/4-y,3/4+x,1/4+z
-x,1/2-y,z
1/4+y,1/4-x,3/4+z
x,-y,-z
-x,1/2+y,-z
1/4+y,3/4+x,1/4-z
1/4-y,1/4-x,3/4-z
-x,-y,-z
3/4+y,1/4-x,3/4-z
x,1/2+y,-z
3/4-y,3/4+x,1/4-z
-x,y,z
x,1/2-y,z
3/4-y,1/4-x,3/4+z
3/4+y,3/4+x,1/4+z
1/2+x,1/2+y,1/2+z
3/4-y,1/4+x,3/4+z
1/2-x,-y,1/2+z
3/4+y,3/4-x,1/4+z
1/2+x,1/2-y,1/2-z
1/2-x,y,1/2-z
3/4+y,1/4+x,3/4-z
3/4-y,3/4-x,1/4-z
1/2-x,1/2-y,1/2-z
1/4+y,3/4-x,1/4-z
1/2+x,y,1/2-z
1/4-y,1/4+x,3/4-z
1/2-x,1/2+y,1/2+z
1/2+x,-y,1/2+z
1/4-y,3/4-x,1/4+z
1/4+y,1/4+x,3/4+z
loop_
_atom_site_type_symbol
_atom_site_label
_atom_site_fract_x
_atom_site_fract_y
_atom_site_fract_z
Si Si1 0.930582 0.680582 0.625000
Si Si2 0.930214 0.382608 0.196735
Si Si3 0.435559 0.680052 0.218409
Si Si4 0.872446 0.622446 0.125000
Si Si5 0.569181 0.995724 0.394416
O O1 0.920586 0.750000 0.648002
O O2 0.888169 0.659011 0.544278
O O3 0.905051 0.334850 0.126855
O O4 0.910103 0.447154 0.162540
O O5 0.000000 0.380332 0.194874
O O6 0.500000 0.653365 0.240644
O O7 0.438185 0.750000 0.216501
O O8 0.388314 0.662443 0.291267
O O9 0.804405 0.637479 0.104754
O O10 0.500000 0.981745 0.377013
O O11 0.580816 0.000000 0.500000
#
# Coordination Sequence:
#
# PCOD8320555 Si02
#       5
#    16  32  32  16  32
#     4   9  16  28  50  79 106 135 171 208 251 300
#     4   9  17  30  48  71 102 136 169 205 246 302
#     4  10  18  27  43  73 107 129 150 196 258 308
#     4  12  20  29  48  71 100 129 171 204 243 302
#     4  10  19  33  50  71 101 136 171 205 247 303
#
# _framework density 16.634115999999999
#
# number of rings (size 3 to 8) (size 9 to 14) (size 15 to 20)
#    0.000    2.125    2.500    3.000    0.000    4.000 
#    0.000    0.000    0.000    3.000    0.000    7.000 
#    0.000    0.000    0.000    0.000    0.000    0.000 
#
# Total GULP energy -793067.526281 kJ/mol
# GULP energy per Si atom -12391.680098 kJ/mol
# Density = 1.659626 g / cm^3
# Si number density = 16.634116 Si / 1000 Ang^3
#
#
#
# Elastic Constant Matrix: (Units=GPa)
#
#
# Indices 1 2 3 4 5 6 
#
# 1 14.0528 90.4356 39.6661 0.0000 0.0000 0.0000
# 2 90.4356 14.0528 39.6661 0.0000 0.0000 0.0000
# 3 39.6661 39.6661 122.0875 0.0000 0.0000 0.0000
# 4 0.0000 0.0000 0.0000 20.5112 0.0000 0.0000
# 5 0.0000 0.0000 0.0000 0.0000 20.5112 0.0000
# 6 0.0000 0.0000 0.0000 0.0000 0.0000 19.5502
#
#
#
# Elastic Compliance Matrix: (Units=1/GPa)
#
#
# Indices 1 2 3 4 5 6 
#
# 1 -0.000194 0.012898 -0.004128 0.000000 0.000000 0.000000
# 2 0.012898 -0.000194 -0.004128 0.000000 0.000000 0.000000
# 3 -0.004128 -0.004128 0.010873 0.000000 0.000000 0.000000
# 4 0.000000 0.000000 0.000000 0.048754 0.000000 0.000000
# 5 0.000000 0.000000 0.000000 0.000000 0.048754 0.000000
# 6 0.000000 0.000000 0.000000 0.000000 0.000000 0.051150
#
#
# Mechanical properties :
#
#
# Convention : Reuss Voigt Hill
#
# Bulk Modulus (GPa) = 50.57885 54.41431 52.49658
# Shear Modulus (GPa) = 31.95945 10.80952 21.38448
#
# Velocity S-wave (km/s) = 4.38804 2.55196 3.58939
# Velocity P-wave (km/s) = 7.49306 6.43947 6.98616
#
# Compressibility (1/GPa) = 0.01977111
#
# Stress axis : x y z
#
# Youngs Moduli (GPa) = -5159.39907 -5159.39907 91.97126
#
# Poissons Ratio (x) = 66.54657 0.37962
# Poissons Ratio (y) = 66.54657 0.37962
# Poissons Ratio (z) = -21.29601 -21.29601
#
# Static dielectric constant tensor:
#      x y z
#    x 2.924510 0.000000 0.000000 
#    y 0.000000 2.924510 0.000000 
#    z 0.000000 0.000000 3.293080 
# 
# 
# High freq. dielectric constant tensor:
#      x y z
#    x 1.614450 0.000000 0.000000 
#    y 0.000000 1.614450 0.000000 
#    z 0.000000 0.000000 1.644290 
# 
# From -- ./inp_files/6240.got.cif
#   From: 2010.03.12/outbox.cif.g09.slc.cpg/sg141_4_cif.got.tgz:6240.got - 2010.04.03 13:18:35.
