data_PCOD8320875
_publ_section_title
;
Structure prediction by ZEFSAII (Michael W. Deem and Ramdas Pophale) SiO2 
 PCOD8320875
Probable space group: I 41/A M D
;
_chemical_formula_sum "Si O2"
_cell_formula_units_Z 84
_cell_length_a 10.572781
_cell_length_b 10.572781
_cell_length_c 35.020503
_cell_angle_alpha 90.000000
_cell_angle_beta 90.000000
_cell_angle_gamma 90.000000
_cell_volume 3914.721334
_symmetry_space_group_name_H-M "I 41/A M D"
_symmetry_group_IT_number 141
_space_group.IT_coordinate_system_code '2'
_symmetry_cell_setting 'tetragonal'
loop_
_space_group_symop_operation_xyz
x,y,z
1/4-y,3/4+x,1/4+z
-x,1/2-y,z
1/4+y,1/4-x,3/4+z
x,-y,-z
-x,1/2+y,-z
1/4+y,3/4+x,1/4-z
1/4-y,1/4-x,3/4-z
-x,-y,-z
3/4+y,1/4-x,3/4-z
x,1/2+y,-z
3/4-y,3/4+x,1/4-z
-x,y,z
x,1/2-y,z
3/4-y,1/4-x,3/4+z
3/4+y,3/4+x,1/4+z
1/2+x,1/2+y,1/2+z
3/4-y,1/4+x,3/4+z
1/2-x,-y,1/2+z
3/4+y,3/4-x,1/4+z
1/2+x,1/2-y,1/2-z
1/2-x,y,1/2-z
3/4+y,1/4+x,3/4-z
3/4-y,3/4-x,1/4-z
1/2-x,1/2-y,1/2-z
1/4+y,3/4-x,1/4-z
1/2+x,y,1/2-z
1/4-y,1/4+x,3/4-z
1/2-x,1/2+y,1/2+z
1/2+x,-y,1/2+z
1/4-y,3/4-x,1/4+z
1/4+y,1/4+x,3/4+z
loop_
_atom_site_type_symbol
_atom_site_label
_atom_site_fract_x
_atom_site_fract_y
_atom_site_fract_z
Si Si1 0.354829 0.750000 0.076556
Si Si2 0.748057 0.995328 0.544960
Si Si3 0.859901 0.250000 0.281313
Si Si4 0.500000 0.750000 0.375000
Si Si5 0.270357 0.250000 0.839463
O O1 0.500000 0.750000 0.062874
O O2 0.278347 0.633407 0.060062
O O3 0.351565 0.750000 0.122209
O O4 0.720742 0.000000 0.500000
O O5 0.870233 0.907206 0.555271
O O6 0.624518 0.940571 0.565721
O O7 0.750000 0.250000 0.250000
O O8 0.000000 0.250000 0.262859
O O9 0.620976 0.750000 0.347568
#
# Coordination Sequence:
#
# PCOD8320875 Si02
#       5
#    16  32  16   4  16
#     4  12  24  43  69  97 140 199 233 289 365 439
#     4  11  24  40  73 101 142 182 243 299 361 429
#     4  10  24  42  70 102 142 183 226 291 368 426
#     4  12  20  40  76  88 144 196 240 264 376 444
#     4  12  23  46  67 106 139 193 241 300 362 440
#
# _framework density 21.457464000000002
#
# number of rings (size 3 to 8) (size 9 to 14) (size 15 to 20)
#    0.000    0.762    5.714    0.571   10.667    1.524 
#    0.000    0.000    0.000    0.000    0.000    0.000 
#    0.000    0.000    0.000    0.000    0.000    0.000 
#
# Total GULP energy -520729.022998 kJ/mol
# GULP energy per Si atom -12398.310071 kJ/mol
# Density = 2.140863 g / cm^3
# Si number density = 21.457464 Si / 1000 Ang^3
#
#
#
# Elastic Constant Matrix: (Units=GPa)
#
#
# Indices 1 2 3 4 5 6 
#
# 1 163.5248 31.3091 44.7287 0.0000 0.0000 0.0000
# 2 31.3091 163.5248 44.7287 0.0000 0.0000 0.0000
# 3 44.7287 44.7287 133.9358 0.0000 0.0000 0.0000
# 4 0.0000 0.0000 0.0000 -3.9344 0.0000 0.0000
# 5 0.0000 0.0000 0.0000 0.0000 -3.9344 0.0000
# 6 0.0000 0.0000 0.0000 0.0000 0.0000 15.4623
#
#
#
# Elastic Compliance Matrix: (Units=1/GPa)
#
#
# Indices 1 2 3 4 5 6 
#
# 1 0.006813 -0.000751 -0.002024 0.000000 0.000000 0.000000
# 2 -0.000751 0.006813 -0.002024 0.000000 0.000000 0.000000
# 3 -0.002024 -0.002024 0.008818 0.000000 0.000000 0.000000
# 4 0.000000 0.000000 0.000000 -0.254170 0.000000 0.000000
# 5 0.000000 0.000000 0.000000 0.000000 -0.254168 0.000000
# 6 0.000000 0.000000 0.000000 0.000000 0.000000 0.064673
#
#
# Mechanical properties :
#
#
# Convention : Reuss Voigt Hill
#
# Bulk Modulus (GPa) = 77.85289 78.05762 77.95526
# Shear Modulus (GPa) = -12.27476 24.19996 5.96260
#
# Velocity S-wave (km/s) = -2.39435 3.36193 1.66878
# Velocity P-wave (km/s) = 5.35885 7.17823 6.33420
#
# Compressibility (1/GPa) = 0.01284474
#
# Stress axis : x y z
#
# Youngs Moduli (GPa) = 146.78349 146.78348 113.39872
#
# Poissons Ratio (x) = 0.11018 0.22957
# Poissons Ratio (y) = 0.11018 0.22957
# Poissons Ratio (z) = 0.29716 0.29716
#
# Static dielectric constant tensor:
#      x y z
#    x 4.234040 0.000000 0.000000 
#    y 0.000000 4.234040 0.000000 
#    z 0.000000 0.000000 3.868080 
# 
# 
# High freq. dielectric constant tensor:
#      x y z
#    x 1.852500 0.000000 0.000000 
#    y 0.000000 1.852500 0.000000 
#    z 0.000000 0.000000 1.826220 
# 
# From -- ./inp_files/13760.got.cif
#   From: 2010.03.12/outbox.cif.g09.slc.cpg/sg141_7_cif.got.tgz:13760.got - 2010.04.03 13:18:35.
