data_PCOD8320391
_publ_section_title
;
Structure prediction by ZEFSAII (Michael W. Deem and Ramdas Pophale) SiO2 
 PCOD8320391
Probable space group: I 4/M C M
;
_chemical_formula_sum "Si O2"
_cell_formula_units_Z 240
_cell_length_a 20.581106
_cell_length_b 20.581106
_cell_length_c 27.267282
_cell_angle_alpha 90.000000
_cell_angle_beta 90.000000
_cell_angle_gamma 90.000000
_cell_volume 11549.927777
_symmetry_space_group_name_H-M "I 4/M C M"
_symmetry_group_IT_number 140
_symmetry_cell_setting 'tetragonal'
loop_
_space_group_symop_operation_xyz
x,y,z
-y,x,z
-x,-y,z
y,-x,z
x,-y,1/2-z
-x,y,1/2-z
y,x,1/2-z
-y,-x,1/2-z
-x,-y,-z
y,-x,-z
x,y,-z
-y,x,-z
-x,y,1/2+z
x,-y,1/2+z
-y,-x,1/2+z
y,x,1/2+z
1/2+x,1/2+y,1/2+z
1/2-y,1/2+x,1/2+z
1/2-x,1/2-y,1/2+z
1/2+y,1/2-x,1/2+z
1/2+x,1/2-y,-z
1/2-x,1/2+y,-z
1/2+y,1/2+x,-z
1/2-y,1/2-x,-z
1/2-x,1/2-y,1/2-z
1/2+y,1/2-x,1/2-z
1/2+x,1/2+y,1/2-z
1/2-y,1/2+x,1/2-z
1/2-x,1/2+y,z
1/2+x,1/2-y,z
1/2-y,1/2-x,z
1/2+y,1/2+x,z
loop_
_atom_site_type_symbol
_atom_site_label
_atom_site_fract_x
_atom_site_fract_y
_atom_site_fract_z
Si Si1 0.973954 0.104806 0.640991
Si Si2 0.550563 0.949438 0.058113
Si Si3 0.823621 0.569818 0.264523
Si Si4 0.597467 0.688081 0.283936
Si Si5 0.183663 0.212487 0.872082
Si Si6 0.923865 0.193597 0.443490
Si Si7 0.518308 0.804457 0.944831
Si Si8 0.712175 0.111093 0.367830
O O1 0.961218 0.146939 0.690645
O O2 0.966378 0.145757 0.590758
O O3 0.046927 0.078684 0.641998
O O4 0.524880 0.878392 0.075535
O O5 0.500000 0.000000 0.081418
O O6 0.548013 0.951988 0.000000
O O7 0.854345 0.500000 0.250000
O O8 0.871002 0.628999 0.246523
O O9 0.749704 0.572281 0.245748
O O10 0.818001 0.571364 0.323014
O O11 0.642302 0.642302 0.250000
O O12 0.633454 0.723170 0.328802
O O13 0.221934 0.278067 0.882185
O O14 0.149447 0.193460 0.923283
O O15 0.227947 0.154792 0.850970
O O16 0.925791 0.168923 0.500000
O O17 0.948504 0.269131 0.440924
O O18 0.564322 0.761379 0.910279
O O19 0.544680 0.801766 0.000000
O O20 0.656835 0.156835 0.391497
#
# Coordination Sequence:
#
# PCOD8320391 Si02
#       8
#    32  16  32  32  32  32  32  32
#     4  10  25  45  65  95 131 166 214 268 325 398
#     4   9  18  36  62  90 122 161 202 262 336 384
#     4  11  26  43  67  97 133 176 220 268 323 392
#     4  11  23  39  69  96 128 163 214 271 338 387
#     4  10  22  39  61  90 126 163 208 267 323 378
#     4  10  24  39  60  92 128 172 217 262 318 386
#     4  10  21  38  60  90 124 160 213 267 315 381
#     4  10  21  39  63  90 120 160 211 260 312 382
#
# _framework density 20.779350000000001
#
# number of rings (size 3 to 8) (size 9 to 14) (size 15 to 20)
#    0.000    1.800    2.000    0.400    9.333    2.533 
#    0.000    4.667    0.000    0.000    0.000    0.000 
#    0.000    0.000    0.000    0.000    0.000    0.000 
#
# Total GULP energy -1487021.859026 kJ/mol
# GULP energy per Si atom -12391.848825 kJ/mol
# Density = 2.073206 g / cm^3
# Si number density = 20.779350 Si / 1000 Ang^3
#
#
#
# Elastic Constant Matrix: (Units=GPa)
#
#
# Indices 1 2 3 4 5 6 
#
# 1 91.8383 34.3864 31.5306 0.0000 0.0000 0.0000
# 2 34.3864 91.8383 31.5307 0.0000 0.0000 0.0000
# 3 31.5306 31.5307 92.9440 0.0000 0.0000 0.0000
# 4 0.0000 0.0000 0.0000 28.3965 0.0000 0.0000
# 5 0.0000 0.0000 0.0000 0.0000 28.3965 0.0000
# 6 0.0000 0.0000 0.0000 0.0000 0.0000 27.2107
#
#
#
# Elastic Compliance Matrix: (Units=1/GPa)
#
#
# Indices 1 2 3 4 5 6 
#
# 1 0.013472 -0.003933 -0.003236 0.000000 0.000000 0.000000
# 2 -0.003933 0.013472 -0.003236 0.000000 0.000000 0.000000
# 3 -0.003236 -0.003236 0.012955 0.000000 0.000000 0.000000
# 4 0.000000 0.000000 0.000000 0.035216 0.000000 0.000000
# 5 0.000000 0.000000 0.000000 0.000000 0.035216 0.000000
# 6 0.000000 0.000000 0.000000 0.000000 0.000000 0.036750
#
#
# Mechanical properties :
#
#
# Convention : Reuss Voigt Hill
#
# Bulk Modulus (GPa) = 52.38700 52.39065 52.38882
# Shear Modulus (GPa) = 28.69352 28.74558 28.71955
#
# Velocity S-wave (km/s) = 3.72003 3.72341 3.72172
# Velocity P-wave (km/s) = 6.61191 6.61457 6.61324
#
# Compressibility (1/GPa) = 0.01908871
#
# Stress axis : x y z
#
# Youngs Moduli (GPa) = 74.22530 74.22530 77.19139
#
# Poissons Ratio (x) = 0.29196 0.24980
# Poissons Ratio (y) = 0.29196 0.24980
# Poissons Ratio (z) = 0.24020 0.24020
#
# Static dielectric constant tensor:
#      x y z
#    x 3.830860 0.000000 0.000000 
#    y 0.000000 3.830860 0.000000 
#    z 0.000000 0.000000 3.717530 
# 
# 
# High freq. dielectric constant tensor:
#      x y z
#    x 1.811910 0.000000 0.000000 
#    y 0.000000 1.811910 0.000000 
#    z 0.000000 0.000000 1.812840 
# 
# From -- ./inp_files/10954.got.cif
#   From: 2010.06.25/outbox.cif.g09.slc.cpg/sg140_6_cif.got.tgz:10954.got - 2010.06.28 10:53:23.
