data_PCOD8320130
_publ_section_title
;
Structure prediction by ZEFSAII (Michael W. Deem and Ramdas Pophale) SiO2 
 PCOD8320130
Probable space group: I 4/M C M
;
_chemical_formula_sum "Si O2"
_cell_formula_units_Z 160
_cell_length_a 17.079731
_cell_length_b 17.079731
_cell_length_c 28.221732
_cell_angle_alpha 90.000000
_cell_angle_beta 90.000000
_cell_angle_gamma 90.000000
_cell_volume 8232.764950
_symmetry_space_group_name_H-M "I 4/M C M"
_symmetry_group_IT_number 140
_symmetry_cell_setting 'tetragonal'
loop_
_space_group_symop_operation_xyz
x,y,z
-y,x,z
-x,-y,z
y,-x,z
x,-y,1/2-z
-x,y,1/2-z
y,x,1/2-z
-y,-x,1/2-z
-x,-y,-z
y,-x,-z
x,y,-z
-y,x,-z
-x,y,1/2+z
x,-y,1/2+z
-y,-x,1/2+z
y,x,1/2+z
1/2+x,1/2+y,1/2+z
1/2-y,1/2+x,1/2+z
1/2-x,1/2-y,1/2+z
1/2+y,1/2-x,1/2+z
1/2+x,1/2-y,-z
1/2-x,1/2+y,-z
1/2+y,1/2+x,-z
1/2-y,1/2-x,-z
1/2-x,1/2-y,1/2-z
1/2+y,1/2-x,1/2-z
1/2+x,1/2+y,1/2-z
1/2-y,1/2+x,1/2-z
1/2-x,1/2+y,z
1/2+x,1/2-y,z
1/2-y,1/2-x,z
1/2+y,1/2+x,z
loop_
_atom_site_type_symbol
_atom_site_label
_atom_site_fract_x
_atom_site_fract_y
_atom_site_fract_z
Si Si1 0.967052 0.339215 0.198389
Si Si2 0.843705 0.656296 0.943237
Si Si3 0.309434 0.689576 0.602887
Si Si4 0.066155 0.566155 0.368996
Si Si5 0.060296 0.891606 0.944266
Si Si6 0.783796 0.844990 0.204636
O O1 0.897980 0.397980 0.186357
O O2 0.932826 0.250372 0.195749
O O3 0.000000 0.356802 0.250000
O O4 0.034185 0.357673 0.159600
O O5 0.755455 0.636110 0.924332
O O6 0.904812 0.595189 0.920604
O O7 0.848327 0.651674 0.000000
O O8 0.280873 0.780873 0.599146
O O9 0.394316 0.681225 0.578818
O O10 0.316346 0.667782 0.658500
O O11 0.000000 0.500000 0.376018
O O12 0.970652 0.895024 0.927423
O O13 0.063446 0.883159 0.000000
O O14 0.842250 0.842250 0.250000
O O15 0.710787 0.789214 0.216288
#
# Coordination Sequence:
#
# PCOD8320130 Si02
#       6
#    32  16  32  16  32  32
#     4  10  19  31  54  82 120 152 193 237 289 347
#     4  10  22  37  58  82 111 154 202 242 290 352
#     4   9  20  35  56  83 110 144 190 239 288 345
#     4  10  22  35  53  89 120 156 188 240 290 356
#     4   9  18  34  57  82 107 140 186 241 292 333
#     4   9  19  34  52  78 110 150 190 234 285 340
#
# _framework density 19.434539999999998
#
# number of rings (size 3 to 8) (size 9 to 14) (size 15 to 20)
#    0.600    2.000    1.000    1.200    2.800    1.800 
#    0.000    0.000    0.000    1.200    0.000    1.400 
#    0.000    0.000    0.000    0.000    0.000    0.000 
#
# Total GULP energy -991074.926382 kJ/mol
# GULP energy per Si atom -12388.436580 kJ/mol
# Density = 1.939031 g / cm^3
# Si number density = 19.434540 Si / 1000 Ang^3
#
#
#
# Elastic Constant Matrix: (Units=GPa)
#
#
# Indices 1 2 3 4 5 6 
#
# 1 54.1372 30.6703 42.7945 0.0000 0.0000 0.0000
# 2 30.6703 54.1372 42.7946 0.0000 0.0000 0.0000
# 3 42.7945 42.7946 135.8743 0.0000 0.0000 0.0000
# 4 0.0000 0.0000 0.0000 23.2386 0.0000 0.0000
# 5 0.0000 0.0000 0.0000 0.0000 23.2386 0.0000
# 6 0.0000 0.0000 0.0000 0.0000 0.0000 23.5403
#
#
#
# Elastic Compliance Matrix: (Units=1/GPa)
#
#
# Indices 1 2 3 4 5 6 
#
# 1 0.029950 -0.012664 -0.005444 0.000000 0.000000 0.000000
# 2 -0.012664 0.029950 -0.005444 0.000000 0.000000 0.000000
# 3 -0.005444 -0.005444 0.010789 0.000000 0.000000 0.000000
# 4 0.000000 0.000000 0.000000 0.043032 0.000000 0.000000
# 5 0.000000 0.000000 0.000000 0.000000 0.043032 0.000000
# 6 0.000000 0.000000 0.000000 0.000000 0.000000 0.042480
#
#
# Mechanical properties :
#
#
# Convention : Reuss Voigt Hill
#
# Bulk Modulus (GPa) = 42.40206 52.96303 47.68255
# Shear Modulus (GPa) = 19.66970 22.52946 21.09958
#
# Velocity S-wave (km/s) = 3.18480 3.40847 3.29853
# Velocity P-wave (km/s) = 5.94888 6.54228 6.25262
#
# Compressibility (1/GPa) = 0.02358376
#
# Stress axis : x y z
#
# Youngs Moduli (GPa) = 33.38948 33.38948 92.68535
#
# Poissons Ratio (x) = 0.42283 0.50461
# Poissons Ratio (y) = 0.42283 0.50461
# Poissons Ratio (z) = 0.18178 0.18178
#
# Static dielectric constant tensor:
#      x y z
#    x 3.459700 0.000000 0.000000 
#    y 0.000000 3.459700 0.000000 
#    z 0.000000 0.000000 3.392920 
# 
# 
# High freq. dielectric constant tensor:
#      x y z
#    x 1.730820 0.000000 0.000000 
#    y 0.000000 1.730820 0.000000 
#    z 0.000000 0.000000 1.753150 
# 
# From -- ./inp_files/11471.got.cif
#   From: 2010.06.25/outbox.cif.g09.slc.cpg/sg140_6_cif.got.tgz:11471.got - 2010.06.28 10:53:23.
