data_PCOD8320265
_publ_section_title
;
Structure prediction by ZEFSAII (Michael W. Deem and Ramdas Pophale) SiO2 
 PCOD8320265
Probable space group: I 4/M C M
;
_chemical_formula_sum "Si O2"
_cell_formula_units_Z 240
_cell_length_a 19.799920
_cell_length_b 19.799920
_cell_length_c 27.672232
_cell_angle_alpha 90.000000
_cell_angle_beta 90.000000
_cell_angle_gamma 90.000000
_cell_volume 10848.534168
_symmetry_space_group_name_H-M "I 4/M C M"
_symmetry_group_IT_number 140
_symmetry_cell_setting 'tetragonal'
loop_
_space_group_symop_operation_xyz
x,y,z
-y,x,z
-x,-y,z
y,-x,z
x,-y,1/2-z
-x,y,1/2-z
y,x,1/2-z
-y,-x,1/2-z
-x,-y,-z
y,-x,-z
x,y,-z
-y,x,-z
-x,y,1/2+z
x,-y,1/2+z
-y,-x,1/2+z
y,x,1/2+z
1/2+x,1/2+y,1/2+z
1/2-y,1/2+x,1/2+z
1/2-x,1/2-y,1/2+z
1/2+y,1/2-x,1/2+z
1/2+x,1/2-y,-z
1/2-x,1/2+y,-z
1/2+y,1/2+x,-z
1/2-y,1/2-x,-z
1/2-x,1/2-y,1/2-z
1/2+y,1/2-x,1/2-z
1/2+x,1/2+y,1/2-z
1/2-y,1/2+x,1/2-z
1/2-x,1/2+y,z
1/2+x,1/2-y,z
1/2-y,1/2-x,z
1/2+y,1/2+x,z
loop_
_atom_site_type_symbol
_atom_site_label
_atom_site_fract_x
_atom_site_fract_y
_atom_site_fract_z
Si Si1 0.896824 0.755042 0.055293
Si Si2 0.599814 0.458817 0.149286
Si Si3 0.962330 0.356430 0.615298
Si Si4 0.326640 0.060823 0.279743
Si Si5 0.833107 0.033117 0.554371
Si Si6 0.179442 0.927794 0.734111
Si Si7 0.768361 0.834008 0.943375
Si Si8 0.942859 0.442859 0.055907
O O1 0.911530 0.686077 0.082514
O O2 0.832215 0.792583 0.078573
O O3 0.959011 0.805362 0.061459
O O4 0.884848 0.735309 0.000000
O O5 0.587011 0.536549 0.164462
O O6 0.606416 0.453780 0.091287
O O7 0.668283 0.431642 0.175629
O O8 0.926947 0.426947 0.628945
O O9 0.970401 0.316140 0.666184
O O10 0.030165 0.376362 0.585139
O O11 0.372556 0.127445 0.279201
O O12 0.255765 0.079834 0.253594
O O13 0.361494 0.000000 0.250000
O O14 0.860305 0.046282 0.500000
O O15 0.772973 0.086350 0.567600
O O16 0.136451 0.863550 0.750000
O O17 0.148587 0.000000 0.750000
O O18 0.698528 0.801473 0.922740
O O19 0.772189 0.822203 0.000000
O O20 0.000000 0.500000 0.053054
O O21 0.922979 0.422979 0.000000
#
# Coordination Sequence:
#
# PCOD8320265 Si02
#       8
#    32  32  32  32  32  32  32  16
#     4  10  20  34  58  88 119 162 211 261 317 383
#     4  11  23  38  63  95 124 167 219 267 334 414
#     4  10  21  38  61  90 126 165 215 268 330 397
#     4  10  25  44  67  97 128 175 225 277 343 404
#     4  10  22  38  56  86 129 170 212 267 330 399
#     4  11  23  42  69  97 130 165 214 287 344 408
#     4   9  18  35  57  81 116 166 217 260 310 383
#     4   9  18  34  60  96 136 170 211 272 334 390
#
# _framework density 22.122805
#
# number of rings (size 3 to 8) (size 9 to 14) (size 15 to 20)
#    0.000    1.933    1.333    1.600    4.667    4.533 
#    1.200    1.333    0.000    0.000    0.000    0.000 
#    0.000    0.000    0.000    0.000    0.000    0.000 
#
# Total GULP energy -1486591.005289 kJ/mol
# GULP energy per Si atom -12388.258377 kJ/mol
# Density = 2.207245 g / cm^3
# Si number density = 22.122805 Si / 1000 Ang^3
#
#
#
# Elastic Constant Matrix: (Units=GPa)
#
#
# Indices 1 2 3 4 5 6 
#
# 1 72.3674 7.0248 37.8239 0.0000 0.0000 0.0000
# 2 7.0248 72.3686 37.8237 0.0000 0.0000 0.0000
# 3 37.8239 37.8237 134.8349 0.0000 0.0000 0.0000
# 4 0.0000 0.0000 0.0000 25.6074 0.0000 0.0000
# 5 0.0000 0.0000 0.0000 0.0000 25.6072 0.0000
# 6 0.0000 0.0000 0.0000 0.0000 0.0000 24.5522
#
#
#
# Elastic Compliance Matrix: (Units=1/GPa)
#
#
# Indices 1 2 3 4 5 6 
#
# 1 0.016247 0.000943 -0.004822 0.000000 0.000000 0.000000
# 2 0.000943 0.016247 -0.004822 0.000000 0.000000 0.000000
# 3 -0.004822 -0.004822 0.010122 0.000000 0.000000 0.000000
# 4 0.000000 0.000000 0.000000 0.039051 0.000000 0.000000
# 5 0.000000 0.000000 0.000000 0.000000 0.039052 0.000000
# 6 0.000000 0.000000 0.000000 0.000000 0.000000 0.040730
#
#
# Mechanical properties :
#
#
# Convention : Reuss Voigt Hill
#
# Bulk Modulus (GPa) = 39.66094 49.43509 44.54801
# Shear Modulus (GPa) = 26.70151 28.27992 27.49071
#
# Velocity S-wave (km/s) = 3.47791 3.57923 3.52894
# Velocity P-wave (km/s) = 5.83904 6.28295 6.06506
#
# Compressibility (1/GPa) = 0.02521373
#
# Stress axis : x y z
#
# Youngs Moduli (GPa) = 61.54890 61.55013 98.79532
#
# Poissons Ratio (x) = -0.05806 0.47642
# Poissons Ratio (y) = -0.05806 0.47641
# Poissons Ratio (z) = 0.29681 0.29681
#
# Static dielectric constant tensor:
#      x y z
#    x 3.927300 0.000000 0.000000 
#    y 0.000000 3.927300 0.000000 
#    z 0.000000 0.000000 4.066240 
# 
# 
# High freq. dielectric constant tensor:
#      x y z
#    x 1.861990 0.000000 0.000000 
#    y 0.000000 1.861990 0.000000 
#    z 0.000000 0.000000 1.863470 
# 
# From -- ./inp_files/10966.got.cif
#   From: 2010.06.25/outbox.cif.g09.slc.cpg/sg140_6_cif.got.tgz:10966.got - 2010.06.28 10:53:23.
