data_PCOD8320036
_publ_section_title
;
Structure prediction by ZEFSAII (Michael W. Deem and Ramdas Pophale) SiO2 
 PCOD8320036
Probable space group: I 4/M C M
;
_chemical_formula_sum "Si O2"
_cell_formula_units_Z 208
_cell_length_a 19.768437
_cell_length_b 19.768437
_cell_length_c 33.024445
_cell_angle_alpha 90.000000
_cell_angle_beta 90.000000
_cell_angle_gamma 90.000000
_cell_volume 12905.659235
_symmetry_space_group_name_H-M "I 4/M C M"
_symmetry_group_IT_number 140
_symmetry_cell_setting 'tetragonal'
loop_
_space_group_symop_operation_xyz
x,y,z
-y,x,z
-x,-y,z
y,-x,z
x,-y,1/2-z
-x,y,1/2-z
y,x,1/2-z
-y,-x,1/2-z
-x,-y,-z
y,-x,-z
x,y,-z
-y,x,-z
-x,y,1/2+z
x,-y,1/2+z
-y,-x,1/2+z
y,x,1/2+z
1/2+x,1/2+y,1/2+z
1/2-y,1/2+x,1/2+z
1/2-x,1/2-y,1/2+z
1/2+y,1/2-x,1/2+z
1/2+x,1/2-y,-z
1/2-x,1/2+y,-z
1/2+y,1/2+x,-z
1/2-y,1/2-x,-z
1/2-x,1/2-y,1/2-z
1/2+y,1/2-x,1/2-z
1/2+x,1/2+y,1/2-z
1/2-y,1/2+x,1/2-z
1/2-x,1/2+y,z
1/2+x,1/2-y,z
1/2-y,1/2-x,z
1/2+y,1/2+x,z
loop_
_atom_site_type_symbol
_atom_site_label
_atom_site_fract_x
_atom_site_fract_y
_atom_site_fract_z
Si Si1 0.026474 0.108148 0.954620
Si Si2 0.176751 0.938553 0.875995
Si Si3 0.367683 0.367683 0.250000
Si Si4 0.285061 0.889857 0.760694
Si Si5 0.158111 0.077633 0.165975
Si Si6 0.078538 0.688827 0.174290
Si Si7 0.067475 0.676286 0.652492
O O1 0.040358 0.168028 0.922851
O O2 0.951507 0.080026 0.947673
O O3 0.033679 0.137765 0.000000
O O4 0.125050 0.878962 0.866075
O O5 0.254073 0.913900 0.870493
O O6 0.155609 0.999428 0.846235
O O7 0.380207 0.293947 0.268347
O O8 0.375378 0.417572 0.288732
O O9 0.315298 0.815298 0.752957
O O10 0.306445 0.936835 0.722570
O O11 0.317096 0.922442 0.799948
O O12 0.235577 0.102457 0.163225
O O13 0.138275 0.638275 0.162656
O O14 0.013139 0.663464 0.148680
O O15 0.114128 0.614128 0.635649
#
# Coordination Sequence:
#
# PCOD8320036 Si02
#       7
#    32  32  16  32  32  32  32
#     4   9  17  30  52  77  99 126 162 197 235 289
#     4  11  19  33  48  71 100 129 159 202 241 285
#     4  10  17  30  40  63  92 134 176 198 226 276
#     4   9  16  27  44  63  87 120 164 211 248 282
#     4  10  21  29  47  66  94 136 166 201 238 277
#     4   9  19  33  47  65  89 124 171 212 248 287
#     4  10  20  31  47  70  94 124 161 206 256 294
#
# _framework density 16.116961
#
# number of rings (size 3 to 8) (size 9 to 14) (size 15 to 20)
#    0.000    2.308    3.077    1.154    0.000    2.462 
#    0.000    0.000    0.000    4.154    0.000    0.000 
#    0.000    9.846    0.000    5.538    0.000    0.000 
#
# Total GULP energy -1288841.943806 kJ/mol
# GULP energy per Si atom -12392.710998 kJ/mol
# Density = 1.608028 g / cm^3
# Si number density = 16.116961 Si / 1000 Ang^3
#
#
#
# Elastic Constant Matrix: (Units=GPa)
#
#
# Indices 1 2 3 4 5 6 
#
# 1 107.1838 6.1649 27.4477 0.0000 0.0000 0.0000
# 2 6.1649 107.1838 27.4477 0.0000 0.0000 0.0000
# 3 27.4477 27.4477 72.5702 0.0000 0.0000 0.0000
# 4 0.0000 0.0000 0.0000 7.7190 0.0000 0.0000
# 5 0.0000 0.0000 0.0000 0.0000 7.7190 0.0000
# 6 0.0000 0.0000 0.0000 0.0000 0.0000 25.0129
#
#
#
# Elastic Compliance Matrix: (Units=1/GPa)
#
#
# Indices 1 2 3 4 5 6 
#
# 1 0.010350 0.000451 -0.004085 0.000000 0.000000 0.000000
# 2 0.000451 0.010350 -0.004085 0.000000 0.000000 0.000000
# 3 -0.004085 -0.004085 0.016870 0.000000 0.000000 0.000000
# 4 0.000000 0.000000 0.000000 0.129551 0.000000 0.000000
# 5 0.000000 0.000000 0.000000 0.000000 0.129551 0.000000
# 6 0.000000 0.000000 0.000000 0.000000 0.000000 0.039979
#
#
# Mechanical properties :
#
#
# Convention : Reuss Voigt Hill
#
# Bulk Modulus (GPa) = 45.18535 45.45094 45.31815
# Shear Modulus (GPa) = 13.90950 23.14868 18.52909
#
# Velocity S-wave (km/s) = 2.94093 3.79396 3.39435
# Velocity P-wave (km/s) = 6.29515 6.88869 6.59860
#
# Compressibility (1/GPa) = 0.02213106
#
# Stress axis : x y z
#
# Youngs Moduli (GPa) = 96.61887 96.61887 59.27717
#
# Poissons Ratio (x) = -0.04356 0.24215
# Poissons Ratio (y) = -0.04356 0.24215
# Poissons Ratio (z) = 0.39470 0.39470
#
# Static dielectric constant tensor:
#      x y z
#    x 3.050970 0.000000 0.000000 
#    y 0.000000 3.050970 0.000000 
#    z 0.000000 0.000000 2.856950 
# 
# 
# High freq. dielectric constant tensor:
#      x y z
#    x 1.611630 0.000000 0.000000 
#    y 0.000000 1.611630 0.000000 
#    z 0.000000 0.000000 1.586060 
# 
# From -- ./inp_files/11728.got.cif
#   From: 2010.06.25/outbox.cif.g09.slc.cpg/sg140_6_cif.got.tgz:11728.got - 2010.06.28 10:53:23.
