data_PCOD8320628
_publ_section_title
;
Structure prediction by ZEFSAII (Michael W. Deem and Ramdas Pophale) SiO2 
 PCOD8320628
Probable space group: I 41/A M D
;
_chemical_formula_sum "Si O2"
_cell_formula_units_Z 128
_cell_length_a 20.154569
_cell_length_b 20.154569
_cell_length_c 18.710942
_cell_angle_alpha 90.000000
_cell_angle_beta 90.000000
_cell_angle_gamma 90.000000
_cell_volume 7600.509098
_symmetry_space_group_name_H-M "I 41/A M D"
_symmetry_group_IT_number 141
_space_group.IT_coordinate_system_code '2'
_symmetry_cell_setting 'tetragonal'
loop_
_space_group_symop_operation_xyz
x,y,z
1/4-y,3/4+x,1/4+z
-x,1/2-y,z
1/4+y,1/4-x,3/4+z
x,-y,-z
-x,1/2+y,-z
1/4+y,3/4+x,1/4-z
1/4-y,1/4-x,3/4-z
-x,-y,-z
3/4+y,1/4-x,3/4-z
x,1/2+y,-z
3/4-y,3/4+x,1/4-z
-x,y,z
x,1/2-y,z
3/4-y,1/4-x,3/4+z
3/4+y,3/4+x,1/4+z
1/2+x,1/2+y,1/2+z
3/4-y,1/4+x,3/4+z
1/2-x,-y,1/2+z
3/4+y,3/4-x,1/4+z
1/2+x,1/2-y,1/2-z
1/2-x,y,1/2-z
3/4+y,1/4+x,3/4-z
3/4-y,3/4-x,1/4-z
1/2-x,1/2-y,1/2-z
1/4+y,3/4-x,1/4-z
1/2+x,y,1/2-z
1/4-y,1/4+x,3/4-z
1/2-x,1/2+y,1/2+z
1/2+x,-y,1/2+z
1/4-y,3/4-x,1/4+z
1/4+y,1/4+x,3/4+z
loop_
_atom_site_type_symbol
_atom_site_label
_atom_site_fract_x
_atom_site_fract_y
_atom_site_fract_z
Si Si1 0.298537 0.431290 0.042428
Si Si2 0.072891 0.671464 0.047099
Si Si3 0.324111 0.178530 0.277035
Si Si4 0.187471 0.827282 0.943243
O O1 0.300703 0.449298 0.125000
O O2 0.367446 0.395627 0.017524
O O3 0.244422 0.375206 0.026997
O O4 0.284528 0.500000 0.000000
O O5 0.066444 0.750000 0.049081
O O6 0.100933 0.649068 0.125000
O O7 0.000000 0.640296 0.031780
O O8 0.121728 0.649051 0.984434
O O9 0.360744 0.250000 0.264003
O O10 0.250000 0.186522 0.250000
O O11 0.325313 0.160346 0.360182
O O12 0.205546 0.750000 0.958274
#
# Coordination Sequence:
#
# PCOD8320628 Si02
#       4
#    32  32  32  32
#     4  11  20  33  52  76 104 134 172 214 266 312
#     4   8  15  30  52  76 103 138 176 209 247 302
#     4   9  17  32  53  74  96 130 178 221 258 309
#     4  10  19  33  55  80 103 136 179 217 257 310
#
# _framework density 16.840976999999999
#
# number of rings (size 3 to 8) (size 9 to 14) (size 15 to 20)
#    0.000    2.500    5.000    0.750    0.000    1.000 
#    0.000    1.250    0.000    3.000    0.000    1.750 
#    0.000    0.000    0.000    0.000    0.000    0.000 
#
# Total GULP energy -792849.660468 kJ/mol
# GULP energy per Si atom -12388.275945 kJ/mol
# Density = 1.680265 g / cm^3
# Si number density = 16.840977 Si / 1000 Ang^3
#
#
#
# Elastic Constant Matrix: (Units=GPa)
#
#
# Indices 1 2 3 4 5 6 
#
# 1 89.6942 44.9770 51.9330 0.0000 0.0000 0.0000
# 2 44.9770 89.6949 51.9333 0.0000 0.0000 0.0000
# 3 51.9330 51.9333 136.6048 0.0000 0.0000 0.0000
# 4 0.0000 0.0000 0.0000 26.6505 0.0000 0.0000
# 5 0.0000 0.0000 0.0000 0.0000 26.6504 0.0000
# 6 0.0000 0.0000 0.0000 0.0000 0.0000 32.6581
#
#
#
# Elastic Compliance Matrix: (Units=1/GPa)
#
#
# Indices 1 2 3 4 5 6 
#
# 1 0.016434 -0.005928 -0.003994 0.000000 0.000000 0.000000
# 2 -0.005928 0.016434 -0.003994 0.000000 0.000000 0.000000
# 3 -0.003994 -0.003994 0.010357 0.000000 0.000000 0.000000
# 4 0.000000 0.000000 0.000000 0.037523 0.000000 0.000000
# 5 0.000000 0.000000 0.000000 0.000000 0.037523 0.000000
# 6 0.000000 0.000000 0.000000 0.000000 0.000000 0.030620
#
#
# Mechanical properties :
#
#
# Convention : Reuss Voigt Hill
#
# Bulk Modulus (GPa) = 64.96511 68.18670 66.57590
# Shear Modulus (GPa) = 27.49438 28.33518 27.91478
#
# Velocity S-wave (km/s) = 4.04491 4.10630 4.07572
# Velocity P-wave (km/s) = 7.77653 7.94095 7.85917
#
# Compressibility (1/GPa) = 0.01539288
#
# Stress axis : x y z
#
# Youngs Moduli (GPa) = 60.84837 60.84873 96.55102
#
# Poissons Ratio (x) = 0.36073 0.38563
# Poissons Ratio (y) = 0.36073 0.38563
# Poissons Ratio (z) = 0.24303 0.24303
#
# Static dielectric constant tensor:
#      x y z
#    x 3.414560 0.000000 0.000000 
#    y 0.000000 3.414540 0.000000 
#    z 0.000000 0.000000 3.285360 
# 
# 
# High freq. dielectric constant tensor:
#      x y z
#    x 1.628780 0.000000 0.000000 
#    y 0.000000 1.628780 0.000000 
#    z 0.000000 0.000000 1.661080 
# 
# From -- ./inp_files/11364.got.cif
#   From: 2010.03.12/outbox.cif.g09.slc.cpg/sg141_6_cif.got.tgz:11364.got - 2010.04.03 13:18:35.
