data_PCOD8320055
_publ_section_title
;
Structure prediction by ZEFSAII (Michael W. Deem and Ramdas Pophale) SiO2 
 PCOD8320055
Probable space group: I 4/M C M
;
_chemical_formula_sum "Si O2"
_cell_formula_units_Z 128
_cell_length_a 32.382970
_cell_length_b 32.382970
_cell_length_c 10.379976
_cell_angle_alpha 90.000000
_cell_angle_beta 90.000000
_cell_angle_gamma 90.000000
_cell_volume 10885.031856
_symmetry_space_group_name_H-M "I 4/M C M"
_symmetry_group_IT_number 140
_symmetry_cell_setting 'tetragonal'
loop_
_space_group_symop_operation_xyz
x,y,z
-y,x,z
-x,-y,z
y,-x,z
x,-y,1/2-z
-x,y,1/2-z
y,x,1/2-z
-y,-x,1/2-z
-x,-y,-z
y,-x,-z
x,y,-z
-y,x,-z
-x,y,1/2+z
x,-y,1/2+z
-y,-x,1/2+z
y,x,1/2+z
1/2+x,1/2+y,1/2+z
1/2-y,1/2+x,1/2+z
1/2-x,1/2-y,1/2+z
1/2+y,1/2-x,1/2+z
1/2+x,1/2-y,-z
1/2-x,1/2+y,-z
1/2+y,1/2+x,-z
1/2-y,1/2-x,-z
1/2-x,1/2-y,1/2-z
1/2+y,1/2-x,1/2-z
1/2+x,1/2+y,1/2-z
1/2-y,1/2+x,1/2-z
1/2-x,1/2+y,z
1/2+x,1/2-y,z
1/2-y,1/2-x,z
1/2+y,1/2+x,z
loop_
_atom_site_type_symbol
_atom_site_label
_atom_site_fract_x
_atom_site_fract_y
_atom_site_fract_z
Si Si1 0.382117 0.050009 0.000000
Si Si2 0.046530 0.667087 0.256964
Si Si3 0.391047 0.041402 0.500000
Si Si4 0.193468 0.237339 0.143394
Si Si5 0.804561 0.628790 0.151642
O O1 0.353972 0.056233 0.876857
O O2 0.417286 0.082715 0.000000
O O3 0.404723 0.005986 0.000000
O O4 0.050685 0.634638 0.372181
O O5 0.083842 0.699401 0.280084
O O6 0.000000 0.686927 0.250000
O O7 0.432167 0.067834 0.500000
O O8 0.201858 0.201858 0.250000
O O9 0.231478 0.268523 0.137833
O O10 0.152563 0.262257 0.185121
O O11 0.187875 0.217751 0.000000
O O12 0.844332 0.655669 0.199890
O O13 0.808785 0.622418 0.000000
#
# Coordination Sequence:
#
# PCOD8320055 Si02
#       5
#    16  32  16  32  32
#     4  10  20  29  36  52  71  79  97 141 185 213
#     4  10  19  29  40  53  68  85 109 143 175 203
#     4  10  18  29  44  50  57  85 111 133 171 219
#     4   8  14  24  37  54  73  89 106 129 157 193
#     4   9  15  25  43  56  64  89 120 135 156 209
#
# _framework density 11.759266999999999
#
# number of rings (size 3 to 8) (size 9 to 14) (size 15 to 20)
#    0.000    2.750    1.250    3.750    0.000    0.250 
#    2.250    0.000    0.000    4.500    0.000    0.000 
#    0.000    0.000    0.000    0.000    0.000    0.000 
#
# Total GULP energy -793011.547391 kJ/mol
# GULP energy per Si atom -12390.805428 kJ/mol
# Density = 1.173250 g / cm^3
# Si number density = 11.759267 Si / 1000 Ang^3
#
#
#
# Elastic Constant Matrix: (Units=GPa)
#
#
# Indices 1 2 3 4 5 6 
#
# 1 57.2717 42.9127 33.7051 0.0000 0.0000 0.0000
# 2 42.9127 57.2721 33.7053 0.0000 0.0000 0.0000
# 3 33.7051 33.7053 80.0907 0.0000 0.0000 0.0000
# 4 0.0000 0.0000 0.0000 10.9342 0.0000 0.0000
# 5 0.0000 0.0000 0.0000 0.0000 10.9481 0.0000
# 6 0.0000 0.0000 0.0000 0.0000 0.0000 23.0843
#
#
#
# Elastic Compliance Matrix: (Units=1/GPa)
#
#
# Indices 1 2 3 4 5 6 
#
# 1 0.041783 -0.027859 -0.005860 0.000000 0.000000 0.000000
# 2 -0.027859 0.041783 -0.005860 0.000000 0.000000 0.000000
# 3 -0.005860 -0.005860 0.017418 0.000000 0.000000 0.000000
# 4 0.000000 0.000000 0.000000 0.091456 0.000000 0.000000
# 5 0.000000 0.000000 0.000000 0.000000 0.091340 0.000000
# 6 0.000000 0.000000 0.000000 0.000000 0.000000 0.043319
#
#
# Mechanical properties :
#
#
# Convention : Reuss Voigt Hill
#
# Bulk Modulus (GPa) = 45.81439 46.14232 45.97835
# Shear Modulus (GPa) = 12.09093 14.61408 13.35251
#
# Velocity S-wave (km/s) = 3.21004 3.52912 3.37336
# Velocity P-wave (km/s) = 7.26526 7.47867 7.37274
#
# Compressibility (1/GPa) = 0.02182720
#
# Stress axis : x y z
#
# Youngs Moduli (GPa) = 23.93297 23.93307 57.41175
#
# Poissons Ratio (x) = 0.66675 0.33643
# Poissons Ratio (y) = 0.66674 0.33643
# Poissons Ratio (z) = 0.14025 0.14025
#
# Static dielectric constant tensor:
#      x y z
#    x 2.387050 0.000000 0.000000 
#    y 0.000000 2.387050 0.000000 
#    z 0.000000 0.000000 2.629760 
# 
# 
# High freq. dielectric constant tensor:
#      x y z
#    x 1.413330 0.000000 0.000000 
#    y 0.000000 1.413330 0.000000 
#    z 0.000000 0.000000 1.459420 
# 
# From -- ./inp_files/3325.got.cif
#   From: 2010.06.25/outbox.cif.g09.slc.cpg/sg140_2_cif.got.tgz:3325.got - 2010.06.28 10:53:23.
