data_PCOD8320527
_publ_section_title
;
Structure prediction by ZEFSAII (Michael W. Deem and Ramdas Pophale) SiO2 
 PCOD8320527
Probable space group: I 4/M C M
;
_chemical_formula_sum "Si O2"
_cell_formula_units_Z 160
_cell_length_a 24.668063
_cell_length_b 24.668063
_cell_length_c 14.204833
_cell_angle_alpha 90.000000
_cell_angle_beta 90.000000
_cell_angle_gamma 90.000000
_cell_volume 8643.830262
_symmetry_space_group_name_H-M "I 4/M C M"
_symmetry_group_IT_number 140
_symmetry_cell_setting 'tetragonal'
loop_
_space_group_symop_operation_xyz
x,y,z
-y,x,z
-x,-y,z
y,-x,z
x,-y,1/2-z
-x,y,1/2-z
y,x,1/2-z
-y,-x,1/2-z
-x,-y,-z
y,-x,-z
x,y,-z
-y,x,-z
-x,y,1/2+z
x,-y,1/2+z
-y,-x,1/2+z
y,x,1/2+z
1/2+x,1/2+y,1/2+z
1/2-y,1/2+x,1/2+z
1/2-x,1/2-y,1/2+z
1/2+y,1/2-x,1/2+z
1/2+x,1/2-y,-z
1/2-x,1/2+y,-z
1/2+y,1/2+x,-z
1/2-y,1/2-x,-z
1/2-x,1/2-y,1/2-z
1/2+y,1/2-x,1/2-z
1/2+x,1/2+y,1/2-z
1/2-y,1/2+x,1/2-z
1/2-x,1/2+y,z
1/2+x,1/2-y,z
1/2-y,1/2-x,z
1/2+y,1/2+x,z
loop_
_atom_site_type_symbol
_atom_site_label
_atom_site_fract_x
_atom_site_fract_y
_atom_site_fract_z
Si Si1 0.929775 0.192541 0.607747
Si Si2 0.752367 0.832262 0.301214
Si Si3 0.913515 0.327503 0.777285
Si Si4 0.198706 0.484679 0.109591
Si Si5 0.920780 0.032651 0.112607
O O1 0.932300 0.178436 0.500000
O O2 0.869424 0.215099 0.626084
O O3 0.974749 0.237847 0.632661
O O4 0.944422 0.135439 0.658089
O O5 0.795852 0.795852 0.250000
O O6 0.706769 0.793232 0.350474
O O7 0.721881 0.870791 0.226123
O O8 0.883927 0.383927 0.799562
O O9 0.943604 0.334706 0.676281
O O10 0.953995 0.315410 0.863121
O O11 0.184816 0.473654 0.000000
O O12 0.970713 0.070122 0.148158
O O13 0.919761 0.032812 0.000000
#
# Coordination Sequence:
#
# PCOD8320527 Si02
#       5
#    32  32  32  32  32
#     4   9  17  29  47  70  93 122 162 205 246 288
#     4   9  18  32  47  65  93 128 163 199 245 297
#     4   9  18  33  52  74 102 133 163 201 249 296
#     4   9  18  32  51  76 101 127 166 207 242 294
#     4   8  14  25  41  63  92 123 155 194 241 291
#
# _framework density 18.510311999999999
#
# number of rings (size 3 to 8) (size 9 to 14) (size 15 to 20)
#    0.000    3.200    0.000    0.600    0.000    2.800 
#    0.000    7.000    0.000    8.400    0.000    7.000 
#    0.000    0.000    0.000    0.000    0.000    0.000 
#
# Total GULP energy -991263.440065 kJ/mol
# GULP energy per Si atom -12390.793001 kJ/mol
# Density = 1.846818 g / cm^3
# Si number density = 18.510312 Si / 1000 Ang^3
#
#
#
# Elastic Constant Matrix: (Units=GPa)
#
#
# Indices 1 2 3 4 5 6 
#
# 1 123.5078 83.1531 18.9180 0.0000 0.0000 0.0000
# 2 83.1531 123.5078 18.9180 0.0000 0.0000 0.0000
# 3 18.9180 18.9180 34.9905 0.0000 0.0000 0.0000
# 4 0.0000 0.0000 0.0000 19.1053 0.0000 0.0000
# 5 0.0000 0.0000 0.0000 0.0000 19.1053 0.0000
# 6 0.0000 0.0000 0.0000 0.0000 0.0000 31.9613
#
#
#
# Elastic Compliance Matrix: (Units=1/GPa)
#
#
# Indices 1 2 3 4 5 6 
#
# 1 0.015075 -0.009705 -0.002904 0.000000 0.000000 0.000000
# 2 -0.009705 0.015075 -0.002904 0.000000 0.000000 0.000000
# 3 -0.002904 -0.002904 0.031719 0.000000 0.000000 0.000000
# 4 0.000000 0.000000 0.000000 0.052342 0.000000 0.000000
# 5 0.000000 0.000000 0.000000 0.000000 0.052342 0.000000
# 6 0.000000 0.000000 0.000000 0.000000 0.000000 0.031288
#
#
# Mechanical properties :
#
#
# Convention : Reuss Voigt Hill
#
# Bulk Modulus (GPa) = 32.41969 58.22048 45.32008
# Shear Modulus (GPa) = 20.90767 24.76883 22.83825
#
# Velocity S-wave (km/s) = 3.36447 3.66199 3.51638
# Velocity P-wave (km/s) = 5.71361 7.02862 6.40495
#
# Compressibility (1/GPa) = 0.03084545
#
# Stress axis : x y z
#
# Youngs Moduli (GPa) = 66.33348 66.33348 31.52689
#
# Poissons Ratio (x) = 0.64376 0.09154
# Poissons Ratio (y) = 0.64376 0.09154
# Poissons Ratio (z) = 0.19261 0.19261
#
# Static dielectric constant tensor:
#      x y z
#    x 3.615540 0.000000 0.000000 
#    y 0.000000 3.615540 0.000000 
#    z 0.000000 0.000000 3.120780 
# 
# 
# High freq. dielectric constant tensor:
#      x y z
#    x 1.720240 0.000000 0.000000 
#    y 0.000000 1.720240 0.000000 
#    z 0.000000 0.000000 1.687900 
# 
# From -- ./inp_files/4687.got.cif
#   From: 2010.06.25/outbox.cif.g09.slc.cpg/sg140_3_cif.got.tgz:4687.got - 2010.06.28 10:53:23.
