data_PCOD8320585
_publ_section_title
;
Structure prediction by ZEFSAII (Michael W. Deem and Ramdas Pophale) SiO2 
 PCOD8320585
Probable space group: I 41/A M D
;
_chemical_formula_sum "Si O2"
_cell_formula_units_Z 84
_cell_length_a 25.827739
_cell_length_b 25.827739
_cell_length_c 7.622276
_cell_angle_alpha 90.000000
_cell_angle_beta 90.000000
_cell_angle_gamma 90.000000
_cell_volume 5084.607672
_symmetry_space_group_name_H-M "I 41/A M D"
_symmetry_group_IT_number 141
_space_group.IT_coordinate_system_code '2'
_symmetry_cell_setting 'tetragonal'
loop_
_space_group_symop_operation_xyz
x,y,z
1/4-y,3/4+x,1/4+z
-x,1/2-y,z
1/4+y,1/4-x,3/4+z
x,-y,-z
-x,1/2+y,-z
1/4+y,3/4+x,1/4-z
1/4-y,1/4-x,3/4-z
-x,-y,-z
3/4+y,1/4-x,3/4-z
x,1/2+y,-z
3/4-y,3/4+x,1/4-z
-x,y,z
x,1/2-y,z
3/4-y,1/4-x,3/4+z
3/4+y,3/4+x,1/4+z
1/2+x,1/2+y,1/2+z
3/4-y,1/4+x,3/4+z
1/2-x,-y,1/2+z
3/4+y,3/4-x,1/4+z
1/2+x,1/2-y,1/2-z
1/2-x,y,1/2-z
3/4+y,1/4+x,3/4-z
3/4-y,3/4-x,1/4-z
1/2-x,1/2-y,1/2-z
1/4+y,3/4-x,1/4-z
1/2+x,y,1/2-z
1/4-y,1/4+x,3/4-z
1/2-x,1/2+y,1/2+z
1/2+x,-y,1/2+z
1/4-y,3/4-x,1/4+z
1/4+y,1/4+x,3/4+z
loop_
_atom_site_type_symbol
_atom_site_label
_atom_site_fract_x
_atom_site_fract_y
_atom_site_fract_z
Si Si1 0.402882 0.847119 0.375000
Si Si2 0.500000 0.652944 0.126038
Si Si3 0.500000 0.552837 0.893367
Si Si4 0.000000 0.750000 0.625000
Si Si5 0.442316 0.444887 0.443807
O O1 0.449207 0.842010 0.240725
O O2 0.404661 0.900356 0.484920
O O3 0.500000 0.598419 0.030788
O O4 0.500000 0.698777 0.988606
O O5 0.448839 0.556949 0.768382
O O6 0.500000 0.500000 0.000000
O O7 0.418215 0.500000 0.500000
O O8 0.500000 0.438541 0.531190
#
# Coordination Sequence:
#
# PCOD8320585 Si02
#       5
#    16  16  16   4  32
#     4  12  20  35  52  74 108 143 182 214 271 326
#     4  12  22  32  46  74 106 146 166 216 258 322
#     4  10  18  34  54  74 104 140 184 226 258 312
#     4  12  24  30  40  68 116 138 172 196 268 334
#     4   9  19  36  53  78 103 141 180 218 268 316
#
# _framework density 16.520447999999998
#
# number of rings (size 3 to 8) (size 9 to 14) (size 15 to 20)
#    1.143    0.381    1.905    5.714    0.000    0.000 
#    0.000    0.000    0.000    0.000    0.000    8.000 
#    0.000    0.000    0.000    0.000    0.000    0.000 
#
# Total GULP energy -520633.292836 kJ/mol
# GULP energy per Si atom -12396.030782 kJ/mol
# Density = 1.648285 g / cm^3
# Si number density = 16.520448 Si / 1000 Ang^3
#
#
#
# Elastic Constant Matrix: (Units=GPa)
#
#
# Indices 1 2 3 4 5 6 
#
# 1 128.0735 57.6201 68.2348 0.0000 0.0000 0.0000
# 2 57.6201 128.0736 68.2334 0.0000 0.0000 0.0000
# 3 68.2348 68.2334 129.5185 0.0000 0.0000 0.0000
# 4 0.0000 0.0000 0.0000 85.6683 0.0000 0.0000
# 5 0.0000 0.0000 0.0000 0.0000 85.6074 0.0000
# 6 0.0000 0.0000 0.0000 0.0000 0.0000 7.1604
#
#
#
# Elastic Compliance Matrix: (Units=1/GPa)
#
#
# Indices 1 2 3 4 5 6 
#
# 1 0.011491 -0.002703 -0.004630 0.000000 0.000000 0.000000
# 2 -0.002703 0.011491 -0.004629 0.000000 0.000000 0.000000
# 3 -0.004630 -0.004629 0.012599 0.000000 0.000000 0.000000
# 4 0.000000 0.000000 0.000000 0.011673 0.000000 0.000000
# 5 0.000000 0.000000 0.000000 0.000000 0.011681 0.000000
# 6 0.000000 0.000000 0.000000 0.000000 0.000000 0.139657
#
#
# Mechanical properties :
#
#
# Convention : Reuss Voigt Hill
#
# Bulk Modulus (GPa) = 85.79438 85.98249 85.88843
# Shear Modulus (GPa) = 22.08470 48.45905 35.27187
#
# Velocity S-wave (km/s) = 3.66021 5.42185 4.62567
# Velocity P-wave (km/s) = 8.36109 9.55795 8.97948
#
# Compressibility (1/GPa) = 0.01165577
#
# Stress axis : x y z
#
# Youngs Moduli (GPa) = 87.02672 87.02821 79.37249
#
# Poissons Ratio (x) = 0.23525 0.36747
# Poissons Ratio (y) = 0.23525 0.36745
# Poissons Ratio (z) = 0.40290 0.40289
#
# Static dielectric constant tensor:
#      x y z
#    x 2.963190 0.000000 0.000000 
#    y 0.000000 2.963190 0.000000 
#    z 0.000000 0.000000 3.265650 
# 
# 
# High freq. dielectric constant tensor:
#      x y z
#    x 1.617810 0.000000 0.000000 
#    y 0.000000 1.617810 0.000000 
#    z 0.000000 0.000000 1.653040 
# 
# From -- ./inp_files/2428.got.cif
#   From: 2010.03.12/outbox.cif.g09.slc.cpg/sg141_2_cif.got.tgz:2428.got - 2010.04.03 13:18:35.
