data_PCOD8320870
_publ_section_title
;
Structure prediction by ZEFSAII (Michael W. Deem and Ramdas Pophale) SiO2 
 PCOD8320870
Probable space group: I 41/A M D
;
_chemical_formula_sum "Si O2"
_cell_formula_units_Z 176
_cell_length_a 26.944326
_cell_length_b 26.944326
_cell_length_c 11.924889
_cell_angle_alpha 90.000000
_cell_angle_beta 90.000000
_cell_angle_gamma 90.000000
_cell_volume 8657.430105
_symmetry_space_group_name_H-M "I 41/A M D"
_symmetry_group_IT_number 141
_space_group.IT_coordinate_system_code '2'
_symmetry_cell_setting 'tetragonal'
loop_
_space_group_symop_operation_xyz
x,y,z
1/4-y,3/4+x,1/4+z
-x,1/2-y,z
1/4+y,1/4-x,3/4+z
x,-y,-z
-x,1/2+y,-z
1/4+y,3/4+x,1/4-z
1/4-y,1/4-x,3/4-z
-x,-y,-z
3/4+y,1/4-x,3/4-z
x,1/2+y,-z
3/4-y,3/4+x,1/4-z
-x,y,z
x,1/2-y,z
3/4-y,1/4-x,3/4+z
3/4+y,3/4+x,1/4+z
1/2+x,1/2+y,1/2+z
3/4-y,1/4+x,3/4+z
1/2-x,-y,1/2+z
3/4+y,3/4-x,1/4+z
1/2+x,1/2-y,1/2-z
1/2-x,y,1/2-z
3/4+y,1/4+x,3/4-z
3/4-y,3/4-x,1/4-z
1/2-x,1/2-y,1/2-z
1/4+y,3/4-x,1/4-z
1/2+x,y,1/2-z
1/4-y,1/4+x,3/4-z
1/2-x,1/2+y,1/2+z
1/2+x,-y,1/2+z
1/4-y,3/4-x,1/4+z
1/4+y,1/4+x,3/4+z
loop_
_atom_site_type_symbol
_atom_site_label
_atom_site_fract_x
_atom_site_fract_y
_atom_site_fract_z
Si Si1 0.945319 0.569762 0.376141
Si Si2 0.384266 0.018161 0.176010
Si Si3 0.772087 0.522087 0.625000
Si Si4 0.365200 0.308166 0.606606
Si Si5 0.056867 0.885883 0.612962
Si Si6 0.132622 0.536843 0.098858
O O1 0.913990 0.520710 0.400602
O O2 0.927205 0.601754 0.270628
O O3 0.943302 0.605530 0.481049
O O4 0.000000 0.549768 0.350605
O O5 0.330329 0.014514 0.124610
O O6 0.409904 0.072296 0.174723
O O7 0.384810 0.999397 0.302861
O O8 0.750000 0.503227 0.750000
O O9 0.364289 0.250000 0.634807
O O10 0.420638 0.329363 0.625000
O O11 0.324786 0.337699 0.682657
O O12 0.081951 0.831951 0.625000
O O13 0.000000 0.885380 0.659579
O O14 0.182594 0.567407 0.125000
O O15 0.146165 0.500000 0.000000
#
# Coordination Sequence:
#
# PCOD8320870 Si02
#       6
#    32  32  16  32  32  32
#     4   9  19  39  63  84 113 155 197 242 298 354
#     4  11  23  39  63  87 119 157 208 250 293 351
#     4  12  28  40  58  92 131 166 204 248 303 366
#     4   9  19  38  62  89 120 155 199 250 303 365
#     4  11  23  40  62  89 118 152 198 249 303 364
#     4  10  24  41  60  86 123 166 205 247 307 365
#
# _framework density 20.329359
#
# number of rings (size 3 to 8) (size 9 to 14) (size 15 to 20)
#    0.000    1.818    0.909    2.182    3.818    5.818 
#    0.000    2.727    0.000    3.273    0.000    0.000 
#    0.000    0.000    0.000    0.000    0.000    0.000 
#
# Total GULP energy -1090478.724640 kJ/mol
# GULP energy per Si atom -12391.803689 kJ/mol
# Density = 2.028309 g / cm^3
# Si number density = 20.329359 Si / 1000 Ang^3
#
#
#
# Elastic Constant Matrix: (Units=GPa)
#
#
# Indices 1 2 3 4 5 6 
#
# 1 130.5976 72.3074 39.3672 0.0000 0.0000 0.0000
# 2 72.3074 130.5997 39.3660 0.0000 0.0000 0.0000
# 3 39.3672 39.3660 69.8206 0.0000 0.0000 0.0000
# 4 0.0000 0.0000 0.0000 22.4448 0.0000 0.0000
# 5 0.0000 0.0000 0.0000 0.0000 22.4428 0.0000
# 6 0.0000 0.0000 0.0000 0.0000 0.0000 34.7052
#
#
#
# Elastic Compliance Matrix: (Units=1/GPa)
#
#
# Indices 1 2 3 4 5 6 
#
# 1 0.011732 -0.005423 -0.003557 0.000000 0.000000 0.000000
# 2 -0.005423 0.011732 -0.003557 0.000000 0.000000 0.000000
# 3 -0.003557 -0.003557 0.018333 0.000000 0.000000 0.000000
# 4 0.000000 0.000000 0.000000 0.044554 0.000000 0.000000
# 5 0.000000 0.000000 0.000000 0.000000 0.044558 0.000000
# 6 0.000000 0.000000 0.000000 0.000000 0.000000 0.028814
#
#
# Mechanical properties :
#
#
# Convention : Reuss Voigt Hill
#
# Bulk Modulus (GPa) = 59.79856 70.34435 65.07146
# Shear Modulus (GPa) = 26.26443 27.91704 27.09073
#
# Velocity S-wave (km/s) = 3.59826 3.70974 3.65443
# Velocity P-wave (km/s) = 6.83682 7.28197 7.06290
#
# Compressibility (1/GPa) = 0.01672281
#
# Stress axis : x y z
#
# Youngs Moduli (GPa) = 85.23639 85.23906 54.54530
#
# Poissons Ratio (x) = 0.46228 0.19403
# Poissons Ratio (y) = 0.46226 0.19400
# Poissons Ratio (z) = 0.30320 0.30317
#
# Static dielectric constant tensor:
#      x y z
#    x 3.840050 0.000000 0.000000 
#    y 0.000000 3.840040 0.000000 
#    z 0.000000 0.000000 3.918350 
# 
# 
# High freq. dielectric constant tensor:
#      x y z
#    x 1.797980 0.000000 0.000000 
#    y 0.000000 1.797980 0.000000 
#    z 0.000000 0.000000 1.787120 
# 
# From -- ./inp_files/5036.got.cif
#   From: 2010.03.12/outbox.cif.g09.slc.cpg/sg141_3_cif.got.tgz:5036.got - 2010.04.03 13:18:35.
