data_PCOD8320715
_publ_section_title
;
Structure prediction by ZEFSAII (Michael W. Deem and Ramdas Pophale) SiO2 
 PCOD8320715
Probable space group: I 41/A M D
;
_chemical_formula_sum "Si O2"
_cell_formula_units_Z 128
_cell_length_a 23.957163
_cell_length_b 23.957163
_cell_length_c 11.161995
_cell_angle_alpha 90.000000
_cell_angle_beta 90.000000
_cell_angle_gamma 90.000000
_cell_volume 6406.378576
_symmetry_space_group_name_H-M "I 41/A M D"
_symmetry_group_IT_number 141
_space_group.IT_coordinate_system_code '2'
_symmetry_cell_setting 'tetragonal'
loop_
_space_group_symop_operation_xyz
x,y,z
1/4-y,3/4+x,1/4+z
-x,1/2-y,z
1/4+y,1/4-x,3/4+z
x,-y,-z
-x,1/2+y,-z
1/4+y,3/4+x,1/4-z
1/4-y,1/4-x,3/4-z
-x,-y,-z
3/4+y,1/4-x,3/4-z
x,1/2+y,-z
3/4-y,3/4+x,1/4-z
-x,y,z
x,1/2-y,z
3/4-y,1/4-x,3/4+z
3/4+y,3/4+x,1/4+z
1/2+x,1/2+y,1/2+z
3/4-y,1/4+x,3/4+z
1/2-x,-y,1/2+z
3/4+y,3/4-x,1/4+z
1/2+x,1/2-y,1/2-z
1/2-x,y,1/2-z
3/4+y,1/4+x,3/4-z
3/4-y,3/4-x,1/4-z
1/2-x,1/2-y,1/2-z
1/4+y,3/4-x,1/4-z
1/2+x,y,1/2-z
1/4-y,1/4+x,3/4-z
1/2-x,1/2+y,1/2+z
1/2+x,-y,1/2+z
1/4-y,3/4-x,1/4+z
1/4+y,1/4+x,3/4+z
loop_
_atom_site_type_symbol
_atom_site_label
_atom_site_fract_x
_atom_site_fract_y
_atom_site_fract_z
Si Si1 0.851610 0.587528 0.367951
Si Si2 0.871430 0.685773 0.524344
Si Si3 0.250000 0.134023 0.750000
Si Si4 0.210743 0.500000 0.500000
Si Si5 0.745110 0.812240 0.504358
O O1 0.878365 0.646781 0.406755
O O2 0.805237 0.595667 0.263707
O O3 0.824512 0.557129 0.484480
O O4 0.899010 0.547756 0.320919
O O5 0.913203 0.663203 0.625000
O O6 0.887130 0.750000 0.493379
O O7 0.806467 0.681877 0.563955
O O8 0.253242 0.173455 0.635198
O O9 0.245213 0.495213 0.375000
O O10 0.722482 0.750000 0.519312
#
# Coordination Sequence:
#
# PCOD8320715 Si02
#       5
#    32  32  16  16  32
#     4  11  21  36  57  86 115 150 193 241 291 348
#     4  10  22  39  57  79 110 148 188 233 288 347
#     4  10  20  36  56  83 120 159 192 230 290 360
#     4  12  23  36  57  89 127 161 193 240 298 362
#     4  10  21  37  59  86 116 152 195 244 294 348
#
# _framework density 19.980087000000001
#
# number of rings (size 3 to 8) (size 9 to 14) (size 15 to 20)
#    0.000    1.500    0.000    7.125    0.000    2.250 
#    0.000    3.125    0.000    0.000    0.000    0.000 
#    0.000    0.000    0.000    0.000    0.000    0.000 
#
# Total GULP energy -793288.538870 kJ/mol
# GULP energy per Si atom -12395.133420 kJ/mol
# Density = 1.993461 g / cm^3
# Si number density = 19.980087 Si / 1000 Ang^3
#
#
#
# Elastic Constant Matrix: (Units=GPa)
#
#
# Indices 1 2 3 4 5 6 
#
# 1 124.4379 54.9092 43.0315 0.0000 0.0000 0.0000
# 2 54.9092 124.4379 43.0315 0.0000 0.0000 0.0000
# 3 43.0315 43.0315 93.9119 0.0000 0.0000 0.0000
# 4 0.0000 0.0000 0.0000 8.9878 0.0000 0.0000
# 5 0.0000 0.0000 0.0000 0.0000 8.9878 0.0000
# 6 0.0000 0.0000 0.0000 0.0000 0.0000 4.8553
#
#
#
# Elastic Compliance Matrix: (Units=1/GPa)
#
#
# Indices 1 2 3 4 5 6 
#
# 1 0.010765 -0.003618 -0.003275 0.000000 0.000000 0.000000
# 2 -0.003618 0.010765 -0.003275 0.000000 0.000000 0.000000
# 3 -0.003275 -0.003275 0.013650 0.000000 0.000000 0.000000
# 4 0.000000 0.000000 0.000000 0.111262 0.000000 0.000000
# 5 0.000000 0.000000 0.000000 0.000000 0.111262 0.000000
# 6 0.000000 0.000000 0.000000 0.000000 0.000000 0.205962
#
#
# Mechanical properties :
#
#
# Convention : Reuss Voigt Hill
#
# Bulk Modulus (GPa) = 67.36603 69.41466 68.39035
# Shear Modulus (GPa) = 10.22602 18.02054 14.12328
#
# Velocity S-wave (km/s) = 2.26478 3.00647 2.66158
# Velocity P-wave (km/s) = 6.37407 6.84610 6.61430
#
# Compressibility (1/GPa) = 0.01484428
#
# Stress axis : x y z
#
# Youngs Moduli (GPa) = 92.89416 92.89416 73.26244
#
# Poissons Ratio (x) = 0.33605 0.23993
# Poissons Ratio (y) = 0.33605 0.23993
# Poissons Ratio (z) = 0.30423 0.30423
#
# Static dielectric constant tensor:
#      x y z
#    x 3.749510 0.000000 0.000000 
#    y 0.000000 3.749510 0.000000 
#    z 0.000000 0.000000 3.604090 
# 
# 
# High freq. dielectric constant tensor:
#      x y z
#    x 1.778830 0.000000 0.000000 
#    y 0.000000 1.778830 0.000000 
#    z 0.000000 0.000000 1.767630 
# 
# From -- ./inp_files/4627.got.cif
#   From: 2010.03.12/outbox.cif.g09.slc.cpg/sg141_3_cif.got.tgz:4627.got - 2010.04.03 13:18:35.
