data_PCOD8320220
_publ_section_title
;
Structure prediction by ZEFSAII (Michael W. Deem and Ramdas Pophale) SiO2 
 PCOD8320220
Probable space group: I 4/M C M
;
_chemical_formula_sum "Si O2"
_cell_formula_units_Z 160
_cell_length_a 22.413713
_cell_length_b 22.413713
_cell_length_c 17.404378
_cell_angle_alpha 90.000000
_cell_angle_beta 90.000000
_cell_angle_gamma 90.000000
_cell_volume 8743.516225
_symmetry_space_group_name_H-M "I 4/M C M"
_symmetry_group_IT_number 140
_symmetry_cell_setting 'tetragonal'
loop_
_space_group_symop_operation_xyz
x,y,z
-y,x,z
-x,-y,z
y,-x,z
x,-y,1/2-z
-x,y,1/2-z
y,x,1/2-z
-y,-x,1/2-z
-x,-y,-z
y,-x,-z
x,y,-z
-y,x,-z
-x,y,1/2+z
x,-y,1/2+z
-y,-x,1/2+z
y,x,1/2+z
1/2+x,1/2+y,1/2+z
1/2-y,1/2+x,1/2+z
1/2-x,1/2-y,1/2+z
1/2+y,1/2-x,1/2+z
1/2+x,1/2-y,-z
1/2-x,1/2+y,-z
1/2+y,1/2+x,-z
1/2-y,1/2-x,-z
1/2-x,1/2-y,1/2-z
1/2+y,1/2-x,1/2-z
1/2+x,1/2+y,1/2-z
1/2-y,1/2+x,1/2-z
1/2-x,1/2+y,z
1/2+x,1/2-y,z
1/2-y,1/2-x,z
1/2+y,1/2+x,z
loop_
_atom_site_type_symbol
_atom_site_label
_atom_site_fract_x
_atom_site_fract_y
_atom_site_fract_z
Si Si1 0.140388 0.262589 0.910752
Si Si2 0.594601 0.002246 0.913796
Si Si3 0.628065 0.609079 0.910625
Si Si4 0.788346 0.520011 0.163275
Si Si5 0.660973 0.488781 0.158973
O O1 0.204175 0.295826 0.894809
O O2 0.141861 0.191499 0.892344
O O3 0.090984 0.292554 0.854881
O O4 0.121913 0.271731 0.000000
O O5 0.558368 0.941633 0.912168
O O6 0.555958 0.055958 0.875530
O O7 0.654634 0.987386 0.870223
O O8 0.609993 0.021382 0.000000
O O9 0.624813 0.539796 0.886060
O O10 0.577551 0.640499 0.860220
O O11 0.612317 0.614430 0.000000
O O12 0.786863 0.500000 0.250000
O O13 0.728089 0.494582 0.126178
O O14 0.656016 0.500000 0.250000
#
# Coordination Sequence:
#
# PCOD8320220 Si02
#       5
#    32  32  32  32  32
#     4   9  18  34  57  81 104 136 178 220 262 310
#     4   9  18  32  49  70  98 133 173 216 261 308
#     4  10  20  35  57  84 108 133 174 220 257 303
#     4  10  20  32  50  75 104 137 174 214 255 307
#     4  10  21  37  55  75 107 142 170 206 261 318
#
# _framework density 18.299274
#
# number of rings (size 3 to 8) (size 9 to 14) (size 15 to 20)
#    0.000    2.400    0.000    3.000    0.000    6.000 
#    0.000    4.000    0.000   19.200    0.000    0.000 
#    0.000    0.000    0.000    0.000    0.000    0.000 
#
# Total GULP energy -991395.075908 kJ/mol
# GULP energy per Si atom -12392.438449 kJ/mol
# Density = 1.825762 g / cm^3
# Si number density = 18.299274 Si / 1000 Ang^3
#
#
#
# Elastic Constant Matrix: (Units=GPa)
#
#
# Indices 1 2 3 4 5 6 
#
# 1 106.7188 54.5647 38.5352 0.0000 0.0000 0.0000
# 2 54.5647 106.7188 38.5352 0.0000 0.0000 0.0000
# 3 38.5352 38.5352 65.1539 0.0000 0.0000 0.0000
# 4 0.0000 0.0000 0.0000 30.0907 0.0000 0.0000
# 5 0.0000 0.0000 0.0000 0.0000 30.0907 0.0000
# 6 0.0000 0.0000 0.0000 0.0000 0.0000 15.5803
#
#
#
# Elastic Compliance Matrix: (Units=1/GPa)
#
#
# Indices 1 2 3 4 5 6 
#
# 1 0.013908 -0.005265 -0.005112 0.000000 0.000000 0.000000
# 2 -0.005265 0.013908 -0.005112 0.000000 0.000000 0.000000
# 3 -0.005112 -0.005112 0.021395 0.000000 0.000000 0.000000
# 4 0.000000 0.000000 0.000000 0.033233 0.000000 0.000000
# 5 0.000000 0.000000 0.000000 0.000000 0.033233 0.000000
# 6 0.000000 0.000000 0.000000 0.000000 0.000000 0.064184
#
#
# Mechanical properties :
#
#
# Convention : Reuss Voigt Hill
#
# Bulk Modulus (GPa) = 54.84394 60.20686 57.52540
# Shear Modulus (GPa) = 23.05019 24.94943 23.99981
#
# Velocity S-wave (km/s) = 3.55297 3.69644 3.62542
# Velocity P-wave (km/s) = 6.84595 7.15478 7.00207
#
# Compressibility (1/GPa) = 0.01823356
#
# Stress axis : x y z
#
# Youngs Moduli (GPa) = 71.89856 71.89856 46.73958
#
# Poissons Ratio (x) = 0.37858 0.23893
# Poissons Ratio (y) = 0.37858 0.23893
# Poissons Ratio (z) = 0.36754 0.36754
#
# Static dielectric constant tensor:
#      x y z
#    x 3.498630 0.000000 0.000000 
#    y 0.000000 3.498630 0.000000 
#    z 0.000000 0.000000 3.379420 
# 
# 
# High freq. dielectric constant tensor:
#      x y z
#    x 1.707860 0.000000 0.000000 
#    y 0.000000 1.707860 0.000000 
#    z 0.000000 0.000000 1.703080 
# 
# From -- ./inp_files/6859.got.cif
#   From: 2010.06.25/outbox.cif.g09.slc.cpg/sg140_4_cif.got.tgz:6859.got - 2010.06.28 10:53:23.
