data_PCOD8320068
_publ_section_title
;
Structure prediction by ZEFSAII (Michael W. Deem and Ramdas Pophale) SiO2 
 PCOD8320068
Probable space group: I 4/M C M
;
_chemical_formula_sum "Si O2"
_cell_formula_units_Z 160
_cell_length_a 31.816056
_cell_length_b 31.816056
_cell_length_c 8.665848
_cell_angle_alpha 90.000000
_cell_angle_beta 90.000000
_cell_angle_gamma 90.000000
_cell_volume 8772.103597
_symmetry_space_group_name_H-M "I 4/M C M"
_symmetry_group_IT_number 140
_symmetry_cell_setting 'tetragonal'
loop_
_space_group_symop_operation_xyz
x,y,z
-y,x,z
-x,-y,z
y,-x,z
x,-y,1/2-z
-x,y,1/2-z
y,x,1/2-z
-y,-x,1/2-z
-x,-y,-z
y,-x,-z
x,y,-z
-y,x,-z
-x,y,1/2+z
x,-y,1/2+z
-y,-x,1/2+z
y,x,1/2+z
1/2+x,1/2+y,1/2+z
1/2-y,1/2+x,1/2+z
1/2-x,1/2-y,1/2+z
1/2+y,1/2-x,1/2+z
1/2+x,1/2-y,-z
1/2-x,1/2+y,-z
1/2+y,1/2+x,-z
1/2-y,1/2-x,-z
1/2-x,1/2-y,1/2-z
1/2+y,1/2-x,1/2-z
1/2+x,1/2+y,1/2-z
1/2-y,1/2+x,1/2-z
1/2-x,1/2+y,z
1/2+x,1/2-y,z
1/2-y,1/2-x,z
1/2+y,1/2+x,z
loop_
_atom_site_type_symbol
_atom_site_label
_atom_site_fract_x
_atom_site_fract_y
_atom_site_fract_z
Si Si1 0.544863 0.166975 0.179621
Si Si2 0.667910 0.167910 0.174575
Si Si3 0.111031 0.260289 0.175056
Si Si4 0.393438 0.893438 0.677764
Si Si5 0.110466 0.172218 0.680652
Si Si6 0.609536 0.546071 0.816893
O O1 0.500000 0.177666 0.250000
O O2 0.575178 0.206153 0.218447
O O3 0.563317 0.123416 0.247468
O O4 0.539678 0.160466 0.000000
O O5 0.717199 0.156879 0.194566
O O6 0.641941 0.141941 0.299613
O O7 0.653673 0.153673 0.000000
O O8 0.108663 0.221885 0.292519
O O9 0.105317 0.243868 0.000000
O O10 0.401909 0.901909 0.500000
O O11 0.153660 0.153660 0.750000
O O12 0.108190 0.162225 0.500000
O O13 0.071102 0.150897 0.764922
O O14 0.612897 0.500000 0.750000
O O15 0.567944 0.567944 0.750000
O O16 0.606849 0.544769 0.000000
#
# Coordination Sequence:
#
# PCOD8320068 Si02
#       6
#    32  16  32  16  32  32
#     4  10  20  34  53  78 108 139 175 218 264 311
#     4   8  16  32  53  75 103 137 173 215 264 311
#     4   9  18  34  54  77 106 139 174 218 266 313
#     4  10  18  30  50  74 104 140 176 213 259 313
#     4  11  22  37  56  78 106 142 179 216 261 315
#     4  11  22  39  60  83 109 139 175 215 260 310
#
# _framework density 18.239639
#
# number of rings (size 3 to 8) (size 9 to 14) (size 15 to 20)
#    0.000    2.000    0.000    7.500    0.000    5.000 
#    0.000    3.500    0.000    0.300    0.000    2.100 
#    0.000    0.000    0.000    0.000    0.000    0.000 
#
# Total GULP energy -991928.985905 kJ/mol
# GULP energy per Si atom -12399.112324 kJ/mol
# Density = 1.819812 g / cm^3
# Si number density = 18.239639 Si / 1000 Ang^3
#
#
#
# Elastic Constant Matrix: (Units=GPa)
#
#
# Indices 1 2 3 4 5 6 
#
# 1 21.0131 135.2331 49.6692 0.0000 0.0000 0.0000
# 2 135.2331 21.0131 49.6692 0.0000 0.0000 0.0000
# 3 49.6692 49.6692 140.8199 0.0000 0.0000 0.0000
# 4 0.0000 0.0000 0.0000 31.3424 0.0000 0.0000
# 5 0.0000 0.0000 0.0000 0.0000 31.3424 0.0000
# 6 0.0000 0.0000 0.0000 0.0000 0.0000 12.6126
#
#
#
# Elastic Compliance Matrix: (Units=1/GPa)
#
#
# Indices 1 2 3 4 5 6 
#
# 1 -0.000252 0.008503 -0.002910 0.000000 0.000000 0.000000
# 2 0.008503 -0.000252 -0.002910 0.000000 0.000000 0.000000
# 3 -0.002910 -0.002910 0.009154 0.000000 0.000000 0.000000
# 4 0.000000 0.000000 0.000000 0.031906 0.000000 0.000000
# 5 0.000000 0.000000 0.000000 0.000000 0.031906 0.000000
# 6 0.000000 0.000000 0.000000 0.000000 0.000000 0.079286
#
#
# Mechanical properties :
#
#
# Convention : Reuss Voigt Hill
#
# Bulk Modulus (GPa) = 71.35392 72.44323 71.89858
# Shear Modulus (GPa) = 33.10111 11.61113 22.35612
#
# Velocity S-wave (km/s) = 4.26466 2.52581 3.50478
# Velocity P-wave (km/s) = 7.96586 6.95054 7.47546
#
# Compressibility (1/GPa) = 0.01401465
#
# Stress axis : x y z
#
# Youngs Moduli (GPa) = -3962.28205 -3962.28205 109.24120
#
# Poissons Ratio (x) = 33.68989 0.31789
# Poissons Ratio (y) = 33.68989 0.31789
# Poissons Ratio (z) = -11.53019 -11.53019
#
# Static dielectric constant tensor:
#      x y z
#    x 3.142650 0.000000 0.000000 
#    y 0.000000 3.142650 0.000000 
#    z 0.000000 0.000000 3.410270 
# 
# 
# High freq. dielectric constant tensor:
#      x y z
#    x 1.697190 0.000000 0.000000 
#    y 0.000000 1.697190 0.000000 
#    z 0.000000 0.000000 1.719970 
# 
# From -- ./inp_files/1865.got.cif
#   From: 2010.06.25/outbox.cif.g09.slc.cpg/sg140_1_cif.got.tgz:1865.got - 2010.06.28 10:53:23.
