data_PCOD8320673
_publ_section_title
;
Structure prediction by ZEFSAII (Michael W. Deem and Ramdas Pophale) SiO2 
 PCOD8320673
Probable space group: I 41/A M D
;
_chemical_formula_sum "Si O2"
_cell_formula_units_Z 84
_cell_length_a 12.129516
_cell_length_b 12.129516
_cell_length_c 27.918070
_cell_angle_alpha 90.000000
_cell_angle_beta 90.000000
_cell_angle_gamma 90.000000
_cell_volume 4107.450471
_symmetry_space_group_name_H-M "I 41/A M D"
_symmetry_group_IT_number 141
_space_group.IT_coordinate_system_code '2'
_symmetry_cell_setting 'tetragonal'
loop_
_space_group_symop_operation_xyz
x,y,z
1/4-y,3/4+x,1/4+z
-x,1/2-y,z
1/4+y,1/4-x,3/4+z
x,-y,-z
-x,1/2+y,-z
1/4+y,3/4+x,1/4-z
1/4-y,1/4-x,3/4-z
-x,-y,-z
3/4+y,1/4-x,3/4-z
x,1/2+y,-z
3/4-y,3/4+x,1/4-z
-x,y,z
x,1/2-y,z
3/4-y,1/4-x,3/4+z
3/4+y,3/4+x,1/4+z
1/2+x,1/2+y,1/2+z
3/4-y,1/4+x,3/4+z
1/2-x,-y,1/2+z
3/4+y,3/4-x,1/4+z
1/2+x,1/2-y,1/2-z
1/2-x,y,1/2-z
3/4+y,1/4+x,3/4-z
3/4-y,3/4-x,1/4-z
1/2-x,1/2-y,1/2-z
1/4+y,3/4-x,1/4-z
1/2+x,y,1/2-z
1/4-y,1/4+x,3/4-z
1/2-x,1/2+y,1/2+z
1/2+x,-y,1/2+z
1/4-y,3/4-x,1/4+z
1/4+y,1/4+x,3/4+z
loop_
_atom_site_type_symbol
_atom_site_label
_atom_site_fract_x
_atom_site_fract_y
_atom_site_fract_z
Si Si1 0.500000 0.750000 0.875000
Si Si2 0.500000 0.872942 0.785639
Si Si3 0.626139 0.622502 0.640847
Si Si4 0.202985 0.516249 0.297641
O O1 0.500000 0.860836 0.843629
O O2 0.500000 0.750000 0.761252
O O3 0.610808 0.937417 0.773461
O O4 0.500000 0.591897 0.653204
O O5 0.650035 0.750000 0.650149
O O6 0.704408 0.554079 0.675352
O O7 0.645901 0.596750 0.584559
O O8 0.250000 0.577126 0.250000
#
# Coordination Sequence:
#
# PCOD8320673 Si02
#       4
#     4  16  32  32
#     4   8  16  32  52  76 120 160 188 224 308 364
#     4  10  20  32  59  85 124 160 193 243 307 371
#     4  10  22  40  61  87 122 162 204 251 302 358
#     4  11  23  38  61  89 124 159 204 251 306 365
#
# _framework density 20.450641999999998
#
# number of rings (size 3 to 8) (size 9 to 14) (size 15 to 20)
#    0.571    1.143    1.905    3.429    2.667    3.810 
#    0.000    0.000    0.000    9.143    0.000    0.000 
#    0.000    0.000    0.000    0.000    0.000    0.000 
#
# Total GULP energy -520543.831097 kJ/mol
# GULP energy per Si atom -12393.900740 kJ/mol
# Density = 2.040410 g / cm^3
# Si number density = 20.450642 Si / 1000 Ang^3
#
#
#
# Elastic Constant Matrix: (Units=GPa)
#
#
# Indices 1 2 3 4 5 6 
#
# 1 76.7398 18.9936 -1.4107 0.0000 0.0000 0.0000
# 2 18.9936 76.7398 -1.4107 0.0000 0.0000 0.0000
# 3 -1.4107 -1.4107 72.6910 0.0000 0.0000 0.0000
# 4 0.0000 0.0000 0.0000 17.7484 0.0000 0.0000
# 5 0.0000 0.0000 0.0000 0.0000 17.7484 0.0000
# 6 0.0000 0.0000 0.0000 0.0000 0.0000 23.6549
#
#
#
# Elastic Compliance Matrix: (Units=1/GPa)
#
#
# Indices 1 2 3 4 5 6 
#
# 1 0.013884 -0.003433 0.000203 0.000000 0.000000 0.000000
# 2 -0.003433 0.013884 0.000203 0.000000 0.000000 0.000000
# 3 0.000203 0.000203 0.013765 0.000000 0.000000 0.000000
# 4 0.000000 0.000000 0.000000 0.056343 0.000000 0.000000
# 5 0.000000 0.000000 0.000000 0.000000 0.056343 0.000000
# 6 0.000000 0.000000 0.000000 0.000000 0.000000 0.042275
#
#
# Mechanical properties :
#
#
# Convention : Reuss Voigt Hill
#
# Bulk Modulus (GPa) = 28.18536 28.72386 28.45461
# Shear Modulus (GPa) = 23.32362 25.83023 24.57693
#
# Velocity S-wave (km/s) = 3.38077 3.55780 3.47041
# Velocity P-wave (km/s) = 5.38995 5.56356 5.47744
#
# Compressibility (1/GPa) = 0.03547941
#
# Stress axis : x y z
#
# Youngs Moduli (GPa) = 72.02319 72.02319 72.64939
#
# Poissons Ratio (x) = 0.24724 -0.01474
# Poissons Ratio (y) = 0.24724 -0.01474
# Poissons Ratio (z) = -0.01461 -0.01461
#
# Static dielectric constant tensor:
#      x y z
#    x 3.605430 0.000000 0.000000 
#    y 0.000000 3.605430 0.000000 
#    z 0.000000 0.000000 3.780870 
# 
# 
# High freq. dielectric constant tensor:
#      x y z
#    x 1.785260 0.000000 0.000000 
#    y 0.000000 1.785260 0.000000 
#    z 0.000000 0.000000 1.810170 
# 
# From -- ./inp_files/13718.got.cif
#   From: 2010.03.12/outbox.cif.g09.slc.cpg/sg141_7_cif.got.tgz:13718.got - 2010.04.03 13:18:35.
