data_PCOD8320473
_publ_section_title
;
Structure prediction by ZEFSAII (Michael W. Deem and Ramdas Pophale) SiO2 
 PCOD8320473
Probable space group: I 4/M C M
;
_chemical_formula_sum "Si O2"
_cell_formula_units_Z 240
_cell_length_a 27.848184
_cell_length_b 27.848184
_cell_length_c 20.126319
_cell_angle_alpha 90.000000
_cell_angle_beta 90.000000
_cell_angle_gamma 90.000000
_cell_volume 15608.390124
_symmetry_space_group_name_H-M "I 4/M C M"
_symmetry_group_IT_number 140
_symmetry_cell_setting 'tetragonal'
loop_
_space_group_symop_operation_xyz
x,y,z
-y,x,z
-x,-y,z
y,-x,z
x,-y,1/2-z
-x,y,1/2-z
y,x,1/2-z
-y,-x,1/2-z
-x,-y,-z
y,-x,-z
x,y,-z
-y,x,-z
-x,y,1/2+z
x,-y,1/2+z
-y,-x,1/2+z
y,x,1/2+z
1/2+x,1/2+y,1/2+z
1/2-y,1/2+x,1/2+z
1/2-x,1/2-y,1/2+z
1/2+y,1/2-x,1/2+z
1/2+x,1/2-y,-z
1/2-x,1/2+y,-z
1/2+y,1/2+x,-z
1/2-y,1/2-x,-z
1/2-x,1/2-y,1/2-z
1/2+y,1/2-x,1/2-z
1/2+x,1/2+y,1/2-z
1/2-y,1/2+x,1/2-z
1/2-x,1/2+y,z
1/2+x,1/2-y,z
1/2-y,1/2-x,z
1/2+y,1/2+x,z
loop_
_atom_site_type_symbol
_atom_site_label
_atom_site_fract_x
_atom_site_fract_y
_atom_site_fract_z
Si Si1 0.609791 0.691541 0.574000
Si Si2 0.560624 0.550676 0.500000
Si Si3 0.598001 0.415843 0.365893
Si Si4 0.424122 0.999090 0.420968
Si Si5 0.513923 0.358561 0.321840
Si Si6 0.178680 0.473176 0.078750
Si Si7 0.293968 0.869402 0.920707
Si Si8 0.999091 0.219069 0.073679
O O1 0.627765 0.676666 0.500000
O O2 0.614259 0.647604 0.626011
O O3 0.638394 0.738261 0.601260
O O4 0.554637 0.706434 0.568608
O O5 0.505920 0.567316 0.500000
O O6 0.586893 0.571075 0.435979
O O7 0.562552 0.390059 0.313476
O O8 0.607157 0.470880 0.346222
O O9 0.422525 0.998427 0.500000
O O10 0.454811 0.045190 0.397087
O O11 0.369981 0.002943 0.391757
O O12 0.450190 0.950190 0.395456
O O13 0.500000 0.337089 0.250000
O O14 0.525857 0.315100 0.372169
O O15 0.184744 0.419314 0.107923
O O16 0.225200 0.505752 0.096844
O O17 0.174588 0.469230 0.000000
O O18 0.325489 0.825489 0.892260
O O19 0.295630 0.871011 0.000000
O O20 0.975923 0.211519 0.000000
#
# Coordination Sequence:
#
# PCOD8320473 Si02
#       8
#    32  16  32  32  32  32  32  32
#     4   8  14  23  38  58  79 103 134 168 202 247
#     4  11  20  30  44  68  79 108 152 182 195 234
#     4  11  20  31  46  60  85 110 143 170 210 246
#     4   8  12  16  25  48  86 127 153 167 198 253
#     4  11  23  34  44  61  86 110 134 171 217 258
#     4   8  12  20  33  52  78 111 146 178 206 244
#     4   8  12  18  30  52  81 109 133 166 215 256
#     4   8  16  28  43  59  77 103 140 177 210 243
#
# _framework density 15.376346
#
# number of rings (size 3 to 8) (size 9 to 14) (size 15 to 20)
#    0.000    3.000    2.000    2.800    1.867    1.867 
#    0.000    0.667    0.000    0.000    0.000    0.933 
#    0.000   35.200    0.000    1.467    0.000    1.333 
#
# Total GULP energy -1486842.070599 kJ/mol
# GULP energy per Si atom -12390.350588 kJ/mol
# Density = 1.534135 g / cm^3
# Si number density = 15.376346 Si / 1000 Ang^3
#
#
#
# Elastic Constant Matrix: (Units=GPa)
#
#
# Indices 1 2 3 4 5 6 
#
# 1 115.7540 23.1625 17.6039 0.0000 0.0000 0.0000
# 2 23.1625 115.7540 17.6039 0.0000 0.0000 0.0000
# 3 17.6039 17.6039 33.9015 0.0000 0.0000 0.0000
# 4 0.0000 0.0000 0.0000 6.0752 0.0000 0.0000
# 5 0.0000 0.0000 0.0000 0.0000 6.0752 0.0000
# 6 0.0000 0.0000 0.0000 0.0000 0.0000 17.1995
#
#
#
# Elastic Compliance Matrix: (Units=1/GPa)
#
#
# Indices 1 2 3 4 5 6 
#
# 1 0.009545 -0.001255 -0.004304 0.000000 0.000000 0.000000
# 2 -0.001255 0.009545 -0.004304 0.000000 0.000000 0.000000
# 3 -0.004304 -0.004304 0.033968 0.000000 0.000000 0.000000
# 4 0.000000 0.000000 0.000000 0.164603 0.000000 0.000000
# 5 0.000000 0.000000 0.000000 0.000000 0.164603 0.000000
# 6 0.000000 0.000000 0.000000 0.000000 0.000000 0.058141
#
#
# Mechanical properties :
#
#
# Convention : Reuss Voigt Hill
#
# Bulk Modulus (GPa) = 30.00415 42.46113 36.23264
# Shear Modulus (GPa) = 10.61024 19.67259 15.14141
#
# Velocity S-wave (km/s) = 2.62970 3.58076 3.14143
# Velocity P-wave (km/s) = 5.36433 6.69106 6.06409
#
# Compressibility (1/GPa) = 0.03332872
#
# Stress axis : x y z
#
# Youngs Moduli (GPa) = 104.76879 104.76879 29.43981
#
# Poissons Ratio (x) = 0.13152 0.12672
# Poissons Ratio (y) = 0.13152 0.12672
# Poissons Ratio (z) = 0.45098 0.45098
#
# Static dielectric constant tensor:
#      x y z
#    x 3.130020 0.000000 0.000000 
#    y 0.000000 3.130020 0.000000 
#    z 0.000000 0.000000 2.589750 
# 
# 
# High freq. dielectric constant tensor:
#      x y z
#    x 1.574570 0.000000 0.000000 
#    y 0.000000 1.574570 0.000000 
#    z 0.000000 0.000000 1.537230 
# 
# From -- ./inp_files/8757.got.cif
#   From: 2010.06.25/outbox.cif.g09.slc.cpg/sg140_5_cif.got.tgz:8757.got - 2010.06.28 10:53:23.
