data_PCOD8320733
_publ_section_title
;
Structure prediction by ZEFSAII (Michael W. Deem and Ramdas Pophale) SiO2 
 PCOD8320733
Probable space group: I 41/A M D
;
_chemical_formula_sum "Si O2"
_cell_formula_units_Z 240
_cell_length_a 20.969747
_cell_length_b 20.969747
_cell_length_c 26.858296
_cell_angle_alpha 90.000000
_cell_angle_beta 90.000000
_cell_angle_gamma 90.000000
_cell_volume 11810.406269
_symmetry_space_group_name_H-M "I 41/A M D"
_symmetry_group_IT_number 141
_space_group.IT_coordinate_system_code '2'
_symmetry_cell_setting 'tetragonal'
loop_
_space_group_symop_operation_xyz
x,y,z
1/4-y,3/4+x,1/4+z
-x,1/2-y,z
1/4+y,1/4-x,3/4+z
x,-y,-z
-x,1/2+y,-z
1/4+y,3/4+x,1/4-z
1/4-y,1/4-x,3/4-z
-x,-y,-z
3/4+y,1/4-x,3/4-z
x,1/2+y,-z
3/4-y,3/4+x,1/4-z
-x,y,z
x,1/2-y,z
3/4-y,1/4-x,3/4+z
3/4+y,3/4+x,1/4+z
1/2+x,1/2+y,1/2+z
3/4-y,1/4+x,3/4+z
1/2-x,-y,1/2+z
3/4+y,3/4-x,1/4+z
1/2+x,1/2-y,1/2-z
1/2-x,y,1/2-z
3/4+y,1/4+x,3/4-z
3/4-y,3/4-x,1/4-z
1/2-x,1/2-y,1/2-z
1/4+y,3/4-x,1/4-z
1/2+x,y,1/2-z
1/4-y,1/4+x,3/4-z
1/2-x,1/2+y,1/2+z
1/2+x,-y,1/2+z
1/4-y,3/4-x,1/4+z
1/4+y,1/4+x,3/4+z
loop_
_atom_site_type_symbol
_atom_site_label
_atom_site_fract_x
_atom_site_fract_y
_atom_site_fract_z
Si Si1 0.321432 0.110508 0.748890
Si Si2 0.826141 0.176179 0.851705
Si Si3 0.183059 0.678383 0.350282
Si Si4 0.573932 0.871262 0.771924
Si Si5 0.569721 0.489947 0.872224
Si Si6 0.611172 0.321831 0.329383
Si Si7 0.632421 0.382421 0.125000
Si Si8 0.732151 0.178816 0.489554
O O1 0.250000 0.080428 0.750000
O O2 0.324357 0.166670 0.708100
O O3 0.338294 0.135818 0.803739
O O4 0.374311 0.058141 0.732308
O O5 0.844591 0.250000 0.863120
O O6 0.878475 0.128475 0.875000
O O7 0.753919 0.159885 0.871718
O O8 0.188359 0.750000 0.330439
O O9 0.128338 0.676371 0.392614
O O10 0.500000 0.859749 0.776222
O O11 0.601384 0.825450 0.729632
O O12 0.602010 0.852381 0.825484
O O13 0.589732 0.943889 0.757316
O O14 0.500000 0.522174 0.879942
O O15 0.582545 0.435891 0.912442
O O16 0.623911 0.542100 0.878429
O O17 0.571677 0.459160 0.817559
O O18 0.590659 0.250000 0.347207
O O19 0.719956 0.250000 0.512619
#
# Coordination Sequence:
#
# PCOD8320733 Si02
#       8
#    32  32  32  32  32  32  16  32
#     4  10  20  37  61  91 117 156 204 254 295 355
#     4  10  23  41  60  88 125 165 206 253 304 359
#     4  10  21  39  62  88 120 160 201 252 310 356
#     4  10  23  40  59  85 118 157 199 246 297 356
#     4   9  19  38  61  86 118 154 191 244 306 354
#     4  11  23  40  60  90 126 157 197 253 308 363
#     4  10  20  40  62  87 112 160 200 238 291 366
#     4   9  18  37  60  83 118 160 201 244 299 363
#
# _framework density 20.321061
#
# number of rings (size 3 to 8) (size 9 to 14) (size 15 to 20)
#    0.000    2.133    1.333    2.000    1.867    4.933 
#    6.000    1.333    0.000    4.200    0.000    0.000 
#    0.000    0.000    0.000    0.000    0.000    0.000 
#
# Total GULP energy -1487379.806708 kJ/mol
# GULP energy per Si atom -12394.831723 kJ/mol
# Density = 2.027481 g / cm^3
# Si number density = 20.321061 Si / 1000 Ang^3
#
#
#
# Elastic Constant Matrix: (Units=GPa)
#
#
# Indices 1 2 3 4 5 6 
#
# 1 101.3148 52.9050 13.2405 0.0000 0.0000 0.0000
# 2 52.9050 101.3148 13.2405 0.0000 0.0000 0.0000
# 3 13.2405 13.2405 48.8910 0.0000 0.0000 0.0000
# 4 0.0000 0.0000 0.0000 26.7022 0.0000 0.0000
# 5 0.0000 0.0000 0.0000 0.0000 26.7022 0.0000
# 6 0.0000 0.0000 0.0000 0.0000 0.0000 28.8260
#
#
#
# Elastic Compliance Matrix: (Units=1/GPa)
#
#
# Indices 1 2 3 4 5 6 
#
# 1 0.013729 -0.006928 -0.001842 0.000000 0.000000 0.000000
# 2 -0.006928 0.013729 -0.001842 0.000000 0.000000 0.000000
# 3 -0.001842 -0.001842 0.021451 0.000000 0.000000 0.000000
# 4 0.000000 0.000000 0.000000 0.037450 0.000000 0.000000
# 5 0.000000 0.000000 0.000000 0.000000 0.037450 0.000000
# 6 0.000000 0.000000 0.000000 0.000000 0.000000 0.034691
#
#
# Mechanical properties :
#
#
# Convention : Reuss Voigt Hill
#
# Bulk Modulus (GPa) = 36.12008 45.58806 40.85407
# Shear Modulus (GPa) = 26.46182 27.92172 27.19177
#
# Velocity S-wave (km/s) = 3.61250 3.71081 3.66198
# Velocity P-wave (km/s) = 5.93409 6.39083 6.16669
#
# Compressibility (1/GPa) = 0.02768543
#
# Stress axis : x y z
#
# Youngs Moduli (GPa) = 72.83996 72.83996 46.61745
#
# Poissons Ratio (x) = 0.50465 0.08585
# Poissons Ratio (y) = 0.50465 0.08585
# Poissons Ratio (z) = 0.13415 0.13415
#
# Static dielectric constant tensor:
#      x y z
#    x 3.617610 0.000000 0.000000 
#    y 0.000000 3.617610 0.000000 
#    z 0.000000 0.000000 3.833650 
# 
# 
# High freq. dielectric constant tensor:
#      x y z
#    x 1.790070 0.000000 0.000000 
#    y 0.000000 1.790070 0.000000 
#    z 0.000000 0.000000 1.790820 
# 
# From -- ./inp_files/13170.got.cif
#   From: 2010.03.12/outbox.cif.g09.slc.cpg/sg141_7_cif.got.tgz:13170.got - 2010.04.03 13:18:35.
