data_PCOD8320563
_publ_section_title
;
Structure prediction by ZEFSAII (Michael W. Deem and Ramdas Pophale) SiO2 
 PCOD8320563
Probable space group: I 41/A M D
;
_chemical_formula_sum "Si O2"
_cell_formula_units_Z 192
_cell_length_a 28.637891
_cell_length_b 28.637891
_cell_length_c 15.288394
_cell_angle_alpha 90.000000
_cell_angle_beta 90.000000
_cell_angle_gamma 90.000000
_cell_volume 12538.452239
_symmetry_space_group_name_H-M "I 41/A M D"
_symmetry_group_IT_number 141
_space_group.IT_coordinate_system_code '2'
_symmetry_cell_setting 'tetragonal'
loop_
_space_group_symop_operation_xyz
x,y,z
1/4-y,3/4+x,1/4+z
-x,1/2-y,z
1/4+y,1/4-x,3/4+z
x,-y,-z
-x,1/2+y,-z
1/4+y,3/4+x,1/4-z
1/4-y,1/4-x,3/4-z
-x,-y,-z
3/4+y,1/4-x,3/4-z
x,1/2+y,-z
3/4-y,3/4+x,1/4-z
-x,y,z
x,1/2-y,z
3/4-y,1/4-x,3/4+z
3/4+y,3/4+x,1/4+z
1/2+x,1/2+y,1/2+z
3/4-y,1/4+x,3/4+z
1/2-x,-y,1/2+z
3/4+y,3/4-x,1/4+z
1/2+x,1/2-y,1/2-z
1/2-x,y,1/2-z
3/4+y,1/4+x,3/4-z
3/4-y,3/4-x,1/4-z
1/2-x,1/2-y,1/2-z
1/4+y,3/4-x,1/4-z
1/2+x,y,1/2-z
1/4-y,1/4+x,3/4-z
1/2-x,1/2+y,1/2+z
1/2+x,-y,1/2+z
1/4-y,3/4-x,1/4+z
1/4+y,1/4+x,3/4+z
loop_
_atom_site_type_symbol
_atom_site_label
_atom_site_fract_x
_atom_site_fract_y
_atom_site_fract_z
Si Si1 0.360666 0.194628 0.783335
Si Si2 0.055012 0.939116 0.140228
Si Si3 0.791609 0.305691 0.567636
Si Si4 0.554537 0.369109 0.794672
Si Si5 0.716075 0.194498 0.124710
Si Si6 0.313744 0.195077 0.306680
O O1 0.364329 0.250000 0.781871
O O2 0.333975 0.174961 0.698048
O O3 0.332180 0.176174 0.867887
O O4 0.413711 0.176317 0.782931
O O5 0.068350 0.907532 0.222946
O O6 0.000000 0.943037 0.131719
O O7 0.075628 0.991223 0.151645
O O8 0.790293 0.250000 0.570210
O O9 0.801864 0.324625 0.469116
O O10 0.500000 0.354755 0.787411
O O11 0.567535 0.389852 0.889956
O O12 0.717541 0.250000 0.117792
O O13 0.682623 0.177984 0.205250
O O14 0.767905 0.174510 0.144992
O O15 0.306306 0.250000 0.306300
#
# Coordination Sequence:
#
# PCOD8320563 Si02
#       6
#    32  32  32  32  32  32
#     4  10  20  29  39  59  87 121 153 180 211 254
#     4   9  16  28  44  60  78 108 145 183 229 266
#     4   9  15  26  43  62  83 107 134 173 231 280
#     4  10  18  29  43  59  84 119 154 183 211 248
#     4   8  12  21  40  63  81  98 126 169 224 273
#     4   8  13  22  39  62  81 101 133 172 215 257
#
# _framework density 15.312894
#
# number of rings (size 3 to 8) (size 9 to 14) (size 15 to 20)
#    0.000    3.000    1.667    2.000    0.000    2.333 
#    0.000    0.833    0.000    3.000    0.000    0.000 
#    0.000    6.667   34.000    0.000    0.000    0.000 
#
# Total GULP energy -1189386.042653 kJ/mol
# GULP energy per Si atom -12389.437944 kJ/mol
# Density = 1.527804 g / cm^3
# Si number density = 15.312894 Si / 1000 Ang^3
#
#
#
# Elastic Constant Matrix: (Units=GPa)
#
#
# Indices 1 2 3 4 5 6 
#
# 1 45.0811 24.0331 33.8388 0.0000 0.0000 0.0000
# 2 24.0331 45.0811 33.8388 0.0000 0.0000 0.0000
# 3 33.8388 33.8388 136.0871 0.0000 0.0000 0.0000
# 4 0.0000 0.0000 0.0000 11.7785 0.0000 0.0000
# 5 0.0000 0.0000 0.0000 0.0000 11.7785 0.0000
# 6 0.0000 0.0000 0.0000 0.0000 0.0000 3.1059
#
#
#
# Elastic Compliance Matrix: (Units=1/GPa)
#
#
# Indices 1 2 3 4 5 6 
#
# 1 0.033318 -0.014192 -0.004756 0.000000 0.000000 0.000000
# 2 -0.014192 0.033318 -0.004756 0.000000 0.000000 0.000000
# 3 -0.004756 -0.004756 0.009713 0.000000 0.000000 0.000000
# 4 0.000000 0.000000 0.000000 0.084900 0.000000 0.000000
# 5 0.000000 0.000000 0.000000 0.000000 0.084900 0.000000
# 6 0.000000 0.000000 0.000000 0.000000 0.000000 0.321969
#
#
# Mechanical properties :
#
#
# Convention : Reuss Voigt Hill
#
# Bulk Modulus (GPa) = 34.55209 45.51898 40.03553
# Shear Modulus (GPa) = 7.99777 14.30181 11.14979
#
# Velocity S-wave (km/s) = 2.28785 3.05941 2.70132
# Velocity P-wave (km/s) = 5.43986 6.50157 5.99427
#
# Compressibility (1/GPa) = 0.02894181
#
# Stress axis : x y z
#
# Youngs Moduli (GPa) = 30.01374 30.01374 102.95160
#
# Poissons Ratio (x) = 0.42597 0.48961
# Poissons Ratio (y) = 0.42597 0.48961
# Poissons Ratio (z) = 0.14274 0.14274
#
# Static dielectric constant tensor:
#      x y z
#    x 2.587550 0.000000 0.000000 
#    y 0.000000 2.587550 0.000000 
#    z 0.000000 0.000000 3.531340 
# 
# 
# High freq. dielectric constant tensor:
#      x y z
#    x 1.539340 0.000000 0.000000 
#    y 0.000000 1.539340 0.000000 
#    z 0.000000 0.000000 1.613510 
# 
# From -- ./inp_files/6964.got.cif
#   From: 2010.03.12/outbox.cif.g09.slc.cpg/sg141_4_cif.got.tgz:6964.got - 2010.04.03 13:18:35.
