data_PCOD8320726
_publ_section_title
;
Structure prediction by ZEFSAII (Michael W. Deem and Ramdas Pophale) SiO2 
 PCOD8320726
Probable space group: I 41/A M D
;
_chemical_formula_sum "Si O2"
_cell_formula_units_Z 176
_cell_length_a 17.858539
_cell_length_b 17.858539
_cell_length_c 28.431375
_cell_angle_alpha 90.000000
_cell_angle_beta 90.000000
_cell_angle_gamma 90.000000
_cell_volume 9067.544940
_symmetry_space_group_name_H-M "I 41/A M D"
_symmetry_group_IT_number 141
_space_group.IT_coordinate_system_code '2'
_symmetry_cell_setting 'tetragonal'
loop_
_space_group_symop_operation_xyz
x,y,z
1/4-y,3/4+x,1/4+z
-x,1/2-y,z
1/4+y,1/4-x,3/4+z
x,-y,-z
-x,1/2+y,-z
1/4+y,3/4+x,1/4-z
1/4-y,1/4-x,3/4-z
-x,-y,-z
3/4+y,1/4-x,3/4-z
x,1/2+y,-z
3/4-y,3/4+x,1/4-z
-x,y,z
x,1/2-y,z
3/4-y,1/4-x,3/4+z
3/4+y,3/4+x,1/4+z
1/2+x,1/2+y,1/2+z
3/4-y,1/4+x,3/4+z
1/2-x,-y,1/2+z
3/4+y,3/4-x,1/4+z
1/2+x,1/2-y,1/2-z
1/2-x,y,1/2-z
3/4+y,1/4+x,3/4-z
3/4-y,3/4-x,1/4-z
1/2-x,1/2-y,1/2-z
1/4+y,3/4-x,1/4-z
1/2+x,y,1/2-z
1/4-y,1/4+x,3/4-z
1/2-x,1/2+y,1/2+z
1/2+x,-y,1/2+z
1/4-y,3/4-x,1/4+z
1/4+y,1/4+x,3/4+z
loop_
_atom_site_type_symbol
_atom_site_label
_atom_site_fract_x
_atom_site_fract_y
_atom_site_fract_z
Si Si1 0.803141 0.337677 0.900813
Si Si2 0.637987 0.923005 0.972114
Si Si3 0.856931 0.592989 0.901895
Si Si4 0.191053 0.558948 0.625000
Si Si5 0.797395 0.588410 0.997537
Si Si6 0.000000 0.333892 0.616733
Si Si7 0.000000 0.832031 0.493795
O O1 0.870088 0.379913 0.875000
O O2 0.821479 0.250000 0.903328
O O3 0.722308 0.345166 0.874043
O O4 0.809515 0.372165 0.952807
O O5 0.629346 0.934119 0.915931
O O6 0.716285 0.880832 0.981555
O O7 0.573528 0.870100 0.988255
O O8 0.630256 0.000000 0.000000
O O9 0.772604 0.566185 0.896528
O O10 0.873570 0.674488 0.881299
O O11 0.864253 0.602796 0.959075
O O12 0.789844 0.500000 0.000000
O O13 0.000000 0.250000 0.638415
O O14 0.000000 0.330384 0.561591
O O15 0.000000 0.750000 0.515482
#
# Coordination Sequence:
#
# PCOD8320726 Si02
#       7
#    32  32  32  16  32  16  16
#     4  12  24  42  69  97 134 178 222 274 337 403
#     4  10  20  36  61  87 116 158 207 265 315 383
#     4  11  21  41  66  96 128 168 220 274 332 399
#     4  10  20  38  63  92 119 160 224 264 314 388
#     4  10  20  40  68  94 122 161 224 274 321 393
#     4  11  24  39  61  93 129 164 210 275 337 392
#     4  11  23  39  53  81 127 165 205 253 328 400
#
# _framework density 19.409884999999999
#
# number of rings (size 3 to 8) (size 9 to 14) (size 15 to 20)
#    0.000    1.273    2.727    5.182    1.273    3.091 
#    6.545    2.727    0.000    0.000    0.000    0.000 
#    0.000    0.000    0.000    0.000    0.000    0.000 
#
# Total GULP energy -1090275.025838 kJ/mol
# GULP energy per Si atom -12389.488930 kJ/mol
# Density = 1.936571 g / cm^3
# Si number density = 19.409885 Si / 1000 Ang^3
#
#
#
# Elastic Constant Matrix: (Units=GPa)
#
#
# Indices 1 2 3 4 5 6 
#
# 1 109.7598 46.9035 48.0430 0.0000 0.0000 0.0000
# 2 46.9035 109.7593 48.0423 0.0000 0.0000 0.0000
# 3 48.0430 48.0423 158.1954 0.0000 0.0000 0.0000
# 4 0.0000 0.0000 0.0000 26.2526 0.0000 0.0000
# 5 0.0000 0.0000 0.0000 0.0000 26.2525 0.0000
# 6 0.0000 0.0000 0.0000 0.0000 0.0000 -20.5815
#
#
#
# Elastic Compliance Matrix: (Units=1/GPa)
#
#
# Indices 1 2 3 4 5 6 
#
# 1 0.011877 -0.004033 -0.002382 0.000000 0.000000 0.000000
# 2 -0.004033 0.011877 -0.002382 0.000000 0.000000 0.000000
# 3 -0.002382 -0.002382 0.007768 0.000000 0.000000 0.000000
# 4 0.000000 0.000000 0.000000 0.038092 0.000000 0.000000
# 5 0.000000 0.000000 0.000000 0.000000 0.038092 0.000000
# 6 0.000000 0.000000 0.000000 0.000000 0.000000 -0.048587
#
#
# Mechanical properties :
#
#
# Convention : Reuss Voigt Hill
#
# Bulk Modulus (GPa) = 71.79915 73.74356 72.77135
# Shear Modulus (GPa) = 61.45963 22.03309 41.74636
#
# Velocity S-wave (km/s) = 5.63319 3.37285 4.64268
# Velocity P-wave (km/s) = 8.90964 7.29681 8.14325
#
# Compressibility (1/GPa) = 0.01392774
#
# Stress axis : x y z
#
# Youngs Moduli (GPa) = 84.19798 84.19783 128.72965
#
# Poissons Ratio (x) = 0.33953 0.30667
# Poissons Ratio (y) = 0.33953 0.30666
# Poissons Ratio (z) = 0.20058 0.20058
#
# Static dielectric constant tensor:
#      x y z
#    x 3.576510 0.000000 0.000000 
#    y 0.000000 3.576520 0.000000 
#    z 0.000000 0.000000 4.065770 
# 
# 
# High freq. dielectric constant tensor:
#      x y z
#    x 1.746730 0.000000 0.000000 
#    y 0.000000 1.746730 0.000000 
#    z 0.000000 0.000000 1.777370 
# 
# From -- ./inp_files/12940.got.cif
#   From: 2010.03.12/outbox.cif.g09.slc.cpg/sg141_7_cif.got.tgz:12940.got - 2010.04.03 13:18:35.
