data_PCOD8320609
_publ_section_title
;
Structure prediction by ZEFSAII (Michael W. Deem and Ramdas Pophale) SiO2 
 PCOD8320609
Probable space group: I 41/A M D
;
_chemical_formula_sum "Si O2"
_cell_formula_units_Z 192
_cell_length_a 27.807322
_cell_length_b 27.807322
_cell_length_c 14.129480
_cell_angle_alpha 90.000000
_cell_angle_beta 90.000000
_cell_angle_gamma 90.000000
_cell_volume 10925.580237
_symmetry_space_group_name_H-M "I 41/A M D"
_symmetry_group_IT_number 141
_space_group.IT_coordinate_system_code '2'
_symmetry_cell_setting 'tetragonal'
loop_
_space_group_symop_operation_xyz
x,y,z
1/4-y,3/4+x,1/4+z
-x,1/2-y,z
1/4+y,1/4-x,3/4+z
x,-y,-z
-x,1/2+y,-z
1/4+y,3/4+x,1/4-z
1/4-y,1/4-x,3/4-z
-x,-y,-z
3/4+y,1/4-x,3/4-z
x,1/2+y,-z
3/4-y,3/4+x,1/4-z
-x,y,z
x,1/2-y,z
3/4-y,1/4-x,3/4+z
3/4+y,3/4+x,1/4+z
1/2+x,1/2+y,1/2+z
3/4-y,1/4+x,3/4+z
1/2-x,-y,1/2+z
3/4+y,3/4-x,1/4+z
1/2+x,1/2-y,1/2-z
1/2-x,y,1/2-z
3/4+y,1/4+x,3/4-z
3/4-y,3/4-x,1/4-z
1/2-x,1/2-y,1/2-z
1/4+y,3/4-x,1/4-z
1/2+x,y,1/2-z
1/4-y,1/4+x,3/4-z
1/2-x,1/2+y,1/2+z
1/2+x,-y,1/2+z
1/4-y,3/4-x,1/4+z
1/4+y,1/4+x,3/4+z
loop_
_atom_site_type_symbol
_atom_site_label
_atom_site_fract_x
_atom_site_fract_y
_atom_site_fract_z
Si Si1 0.805435 0.195164 0.856735
Si Si2 0.447202 0.391730 0.796567
Si Si3 0.445216 0.493571 0.894814
Si Si4 0.774488 0.859326 0.471660
Si Si5 0.113457 0.904697 0.932922
Si Si6 0.194134 0.458247 0.770432
O O1 0.788943 0.250000 0.839149
O O2 0.761034 0.164801 0.895473
O O3 0.823397 0.173492 0.758104
O O4 0.847204 0.193362 0.935073
O O5 0.500000 0.368608 0.817682
O O6 0.440842 0.439120 0.859879
O O7 0.403124 0.356438 0.820805
O O8 0.500000 0.511329 0.894820
O O9 0.417145 0.527792 0.822091
O O10 0.423217 0.500000 0.000000
O O11 0.826564 0.854606 0.423411
O O12 0.757804 0.914403 0.490262
O O13 0.168261 0.920325 0.954013
O O14 0.250000 0.468798 0.750000
O O15 0.187604 0.437604 0.875000
#
# Coordination Sequence:
#
# PCOD8320609 Si02
#       6
#    32  32  32  32  32  32
#     4  10  19  31  51  79 108 134 170 219 263 310
#     4   9  18  33  53  73  96 136 182 215 259 319
#     4   9  18  35  57  75 100 135 174 228 277 305
#     4  11  21  32  51  76 106 138 180 215 255 311
#     4  12  19  32  53  75 106 140 170 215 262 314
#     4  12  20  33  48  70 105 149 182 200 243 305
#
# _framework density 17.573436999999998
#
# number of rings (size 3 to 8) (size 9 to 14) (size 15 to 20)
#    0.000    1.500    6.667    2.500    0.000    2.000 
#    0.000    4.167    0.000    0.500    0.000    2.333 
#    0.000    0.000    0.000    4.500    0.000    8.333 
#
# Total GULP energy -1190026.120680 kJ/mol
# GULP energy per Si atom -12396.105424 kJ/mol
# Density = 1.753344 g / cm^3
# Si number density = 17.573437 Si / 1000 Ang^3
#
#
#
# Elastic Constant Matrix: (Units=GPa)
#
#
# Indices 1 2 3 4 5 6 
#
# 1 84.1591 27.3461 32.7934 0.0000 0.0000 0.0000
# 2 27.3461 84.1591 32.7934 0.0000 0.0000 0.0000
# 3 32.7934 32.7934 126.1746 0.0000 0.0000 0.0000
# 4 0.0000 0.0000 0.0000 16.8241 0.0000 0.0000
# 5 0.0000 0.0000 0.0000 0.0000 16.8241 0.0000
# 6 0.0000 0.0000 0.0000 0.0000 0.0000 8.9982
#
#
#
# Elastic Compliance Matrix: (Units=1/GPa)
#
#
# Indices 1 2 3 4 5 6 
#
# 1 0.014094 -0.003507 -0.002752 0.000000 0.000000 0.000000
# 2 -0.003507 0.014094 -0.002752 0.000000 0.000000 0.000000
# 3 -0.002752 -0.002752 0.009356 0.000000 0.000000 0.000000
# 4 0.000000 0.000000 0.000000 0.059439 0.000000 0.000000
# 5 0.000000 0.000000 0.000000 0.000000 0.059439 0.000000
# 6 0.000000 0.000000 0.000000 0.000000 0.000000 0.111133
#
#
# Mechanical properties :
#
#
# Convention : Reuss Voigt Hill
#
# Bulk Modulus (GPa) = 51.22172 53.37318 52.29745
# Shear Modulus (GPa) = 17.11841 21.96661 19.54251
#
# Velocity S-wave (km/s) = 3.12446 3.53935 3.33836
# Velocity P-wave (km/s) = 6.49822 6.86587 6.68457
#
# Compressibility (1/GPa) = 0.01952297
#
# Stress axis : x y z
#
# Youngs Moduli (GPa) = 70.95167 70.95167 106.88564
#
# Poissons Ratio (x) = 0.24886 0.29410
# Poissons Ratio (y) = 0.24886 0.29410
# Poissons Ratio (z) = 0.19522 0.19522
#
# Static dielectric constant tensor:
#      x y z
#    x 3.223600 0.000000 0.000000 
#    y 0.000000 3.223600 0.000000 
#    z 0.000000 0.000000 3.341740 
# 
# 
# High freq. dielectric constant tensor:
#      x y z
#    x 1.655930 0.000000 0.000000 
#    y 0.000000 1.655930 0.000000 
#    z 0.000000 0.000000 1.677260 
# 
# From -- ./inp_files/6953.got.cif
#   From: 2010.03.12/outbox.cif.g09.slc.cpg/sg141_4_cif.got.tgz:6953.got - 2010.04.03 13:18:35.
