data_PCOD8320204
_publ_section_title
;
Structure prediction by ZEFSAII (Michael W. Deem and Ramdas Pophale) SiO2 
 PCOD8320204
Probable space group: I 4/M C M
;
_chemical_formula_sum "Si O2"
_cell_formula_units_Z 160
_cell_length_a 17.274281
_cell_length_b 17.274281
_cell_length_c 28.018672
_cell_angle_alpha 90.000000
_cell_angle_beta 90.000000
_cell_angle_gamma 90.000000
_cell_volume 8360.793693
_symmetry_space_group_name_H-M "I 4/M C M"
_symmetry_group_IT_number 140
_symmetry_cell_setting 'tetragonal'
loop_
_space_group_symop_operation_xyz
x,y,z
-y,x,z
-x,-y,z
y,-x,z
x,-y,1/2-z
-x,y,1/2-z
y,x,1/2-z
-y,-x,1/2-z
-x,-y,-z
y,-x,-z
x,y,-z
-y,x,-z
-x,y,1/2+z
x,-y,1/2+z
-y,-x,1/2+z
y,x,1/2+z
1/2+x,1/2+y,1/2+z
1/2-y,1/2+x,1/2+z
1/2-x,1/2-y,1/2+z
1/2+y,1/2-x,1/2+z
1/2+x,1/2-y,-z
1/2-x,1/2+y,-z
1/2+y,1/2+x,-z
1/2-y,1/2-x,-z
1/2-x,1/2-y,1/2-z
1/2+y,1/2-x,1/2-z
1/2+x,1/2+y,1/2-z
1/2-y,1/2+x,1/2-z
1/2-x,1/2+y,z
1/2+x,1/2-y,z
1/2-y,1/2-x,z
1/2+y,1/2+x,z
loop_
_atom_site_type_symbol
_atom_site_label
_atom_site_fract_x
_atom_site_fract_y
_atom_site_fract_z
Si Si1 0.255032 0.489266 0.424393
Si Si2 0.502716 0.125106 0.000000
Si Si3 0.416438 0.592152 0.306384
Si Si4 0.377544 0.537231 0.000000
Si Si5 0.141933 0.234746 0.361304
Si Si6 0.841940 0.778331 0.054610
O O1 0.176000 0.489368 0.453505
O O2 0.326018 0.448025 0.452755
O O3 0.238997 0.446393 0.373539
O O4 0.278508 0.578093 0.416345
O O5 0.441670 0.058331 0.000000
O O6 0.588845 0.088845 0.000000
O O7 0.392183 0.505454 0.323094
O O8 0.406350 0.593651 0.250000
O O9 0.360586 0.659092 0.327402
O O10 0.404847 0.448701 0.000000
O O11 0.196399 0.303602 0.338911
O O12 0.172171 0.217182 0.414290
O O13 0.808778 0.691223 0.051060
O O14 0.850796 0.811487 0.000000
#
# Coordination Sequence:
#
# PCOD8320204 Si02
#       6
#    32  16  32  16  32  32
#     4  11  20  31  49  64  96 136 181 220 262 308
#     4  10  20  32  46  64  88 130 188 234 262 292
#     4   9  19  39  65  87 108 137 173 215 270 338
#     4  10  20  30  42  64  92 128 174 221 264 302
#     4  11  23  34  50  80 112 140 175 220 274 328
#     4  10  20  33  48  68 100 144 185 221 267 318
#
# _framework density 19.136938000000001
#
# number of rings (size 3 to 8) (size 9 to 14) (size 15 to 20)
#    0.000    1.800    2.000    4.200    2.800    0.400 
#    0.000    2.000    0.000    0.000    0.000    0.000 
#    0.000    0.000    0.000   10.800    0.000    0.000 
#
# Total GULP energy -991192.941625 kJ/mol
# GULP energy per Si atom -12389.911770 kJ/mol
# Density = 1.909338 g / cm^3
# Si number density = 19.136938 Si / 1000 Ang^3
#
#
#
# Elastic Constant Matrix: (Units=GPa)
#
#
# Indices 1 2 3 4 5 6 
#
# 1 73.9839 18.4289 26.2510 0.0000 0.0000 0.0000
# 2 18.4289 73.9834 26.2503 0.0000 0.0000 0.0000
# 3 26.2510 26.2503 37.7820 0.0000 0.0000 0.0000
# 4 0.0000 0.0000 0.0000 25.1521 0.0000 0.0000
# 5 0.0000 0.0000 0.0000 0.0000 25.1493 0.0000
# 6 0.0000 0.0000 0.0000 0.0000 0.0000 43.2554
#
#
#
# Elastic Compliance Matrix: (Units=1/GPa)
#
#
# Indices 1 2 3 4 5 6 
#
# 1 0.017939 -0.000061 -0.012422 0.000000 0.000000 0.000000
# 2 -0.000061 0.017939 -0.012421 0.000000 0.000000 0.000000
# 3 -0.012422 -0.012421 0.043728 0.000000 0.000000 0.000000
# 4 0.000000 0.000000 0.000000 0.039758 0.000000 0.000000
# 5 0.000000 0.000000 0.000000 0.000000 0.039763 0.000000
# 6 0.000000 0.000000 0.000000 0.000000 0.000000 0.023118
#
#
# Mechanical properties :
#
#
# Convention : Reuss Voigt Hill
#
# Bulk Modulus (GPa) = 33.55894 36.40108 34.98001
# Shear Modulus (GPa) = 20.66233 26.36597 23.51415
#
# Velocity S-wave (km/s) = 3.28946 3.71584 3.50913
# Velocity P-wave (km/s) = 5.65700 6.12149 5.89382
#
# Compressibility (1/GPa) = 0.02979832
#
# Stress axis : x y z
#
# Youngs Moduli (GPa) = 55.74409 55.74445 22.86855
#
# Poissons Ratio (x) = 0.00341 0.28406
# Poissons Ratio (y) = 0.00341 0.28406
# Poissons Ratio (z) = 0.69243 0.69241
#
# Static dielectric constant tensor:
#      x y z
#    x 3.740110 0.000000 0.000000 
#    y 0.000000 3.740110 0.000000 
#    z 0.000000 0.000000 3.025550 
# 
# 
# High freq. dielectric constant tensor:
#      x y z
#    x 1.755600 0.000000 0.000000 
#    y 0.000000 1.755600 0.000000 
#    z 0.000000 0.000000 1.695900 
# 
# From -- ./inp_files/10584.got.cif
#   From: 2010.06.25/outbox.cif.g09.slc.cpg/sg140_6_cif.got.tgz:10584.got - 2010.06.28 10:53:23.
