data_PCOD8320483
_publ_section_title
;
Structure prediction by ZEFSAII (Michael W. Deem and Ramdas Pophale) SiO2 
 PCOD8320483
Probable space group: I 4/M C M
;
_chemical_formula_sum "Si O2"
_cell_formula_units_Z 112
_cell_length_a 14.082649
_cell_length_b 14.082649
_cell_length_c 28.057062
_cell_angle_alpha 90.000000
_cell_angle_beta 90.000000
_cell_angle_gamma 90.000000
_cell_volume 5564.304673
_symmetry_space_group_name_H-M "I 4/M C M"
_symmetry_group_IT_number 140
_symmetry_cell_setting 'tetragonal'
loop_
_space_group_symop_operation_xyz
x,y,z
-y,x,z
-x,-y,z
y,-x,z
x,-y,1/2-z
-x,y,1/2-z
y,x,1/2-z
-y,-x,1/2-z
-x,-y,-z
y,-x,-z
x,y,-z
-y,x,-z
-x,y,1/2+z
x,-y,1/2+z
-y,-x,1/2+z
y,x,1/2+z
1/2+x,1/2+y,1/2+z
1/2-y,1/2+x,1/2+z
1/2-x,1/2-y,1/2+z
1/2+y,1/2-x,1/2+z
1/2+x,1/2-y,-z
1/2-x,1/2+y,-z
1/2+y,1/2+x,-z
1/2-y,1/2-x,-z
1/2-x,1/2-y,1/2-z
1/2+y,1/2-x,1/2-z
1/2+x,1/2+y,1/2-z
1/2-y,1/2+x,1/2-z
1/2-x,1/2+y,z
1/2+x,1/2-y,z
1/2-y,1/2-x,z
1/2+y,1/2+x,z
loop_
_atom_site_type_symbol
_atom_site_label
_atom_site_fract_x
_atom_site_fract_y
_atom_site_fract_z
Si Si1 0.079241 0.579241 0.446390
Si Si2 0.136009 0.073236 0.054523
Si Si3 0.154808 0.999021 0.694896
Si Si4 0.298301 0.952603 0.617393
O O1 0.111238 0.611238 0.500000
O O2 0.167946 0.537502 0.417225
O O3 0.000000 0.500000 0.451753
O O4 0.220620 0.109842 0.088235
O O5 0.038603 0.125709 0.066373
O O6 0.164864 0.089296 0.000000
O O7 0.093961 0.092523 0.682608
O O8 0.184120 0.000000 0.750000
O O9 0.251568 0.997284 0.664645
O O10 0.385052 0.885052 0.632838
#
# Coordination Sequence:
#
# PCOD8320483 Si02
#       4
#    16  32  32  32
#     4   9  20  38  56  73 110 164 202 226 271 345
#     4   9  18  34  55  78 108 147 190 234 278 328
#     4   9  19  40  65  85 111 150 190 230 284 346
#     4  11  21  35  55  83 115 147 187 234 287 338
#
# _framework density 20.128301
#
# number of rings (size 3 to 8) (size 9 to 14) (size 15 to 20)
#    0.000    2.429    0.000    4.286    0.000    4.000 
#   12.857    1.429    0.000    0.000    0.000    0.000 
#    0.000    0.000    0.000    0.000    0.000    0.000 
#
# Total GULP energy -694308.515346 kJ/mol
# GULP energy per Si atom -12398.366345 kJ/mol
# Density = 2.008249 g / cm^3
# Si number density = 20.128301 Si / 1000 Ang^3
#
#
#
# Elastic Constant Matrix: (Units=GPa)
#
#
# Indices 1 2 3 4 5 6 
#
# 1 109.2612 -9.6543 53.3782 0.0000 0.0000 0.0000
# 2 -9.6543 109.2612 53.3782 0.0000 0.0000 0.0000
# 3 53.3782 53.3782 125.0474 0.0000 0.0000 0.0000
# 4 0.0000 0.0000 0.0000 36.9817 0.0000 0.0000
# 5 0.0000 0.0000 0.0000 0.0000 36.9817 0.0000
# 6 0.0000 0.0000 0.0000 0.0000 0.0000 18.1393
#
#
#
# Elastic Compliance Matrix: (Units=1/GPa)
#
#
# Indices 1 2 3 4 5 6 
#
# 1 0.013458 0.005048 -0.007900 0.000000 0.000000 0.000000
# 2 0.005048 0.013458 -0.007900 0.000000 0.000000 0.000000
# 3 -0.007900 -0.007900 0.014741 0.000000 0.000000 0.000000
# 4 0.000000 0.000000 0.000000 0.027040 0.000000 0.000000
# 5 0.000000 0.000000 0.000000 0.000000 0.027040 0.000000
# 6 0.000000 0.000000 0.000000 0.000000 0.000000 0.055129
#
#
# Mechanical properties :
#
#
# Convention : Reuss Voigt Hill
#
# Bulk Modulus (GPa) = 49.61576 59.75267 54.68421
# Shear Modulus (GPa) = 27.91955 34.85171 31.38563
#
# Velocity S-wave (km/s) = 3.72839 4.16562 3.95305
# Velocity P-wave (km/s) = 6.57555 7.27233 6.93270
#
# Compressibility (1/GPa) = 0.02015489
#
# Stress axis : x y z
#
# Youngs Moduli (GPa) = 74.30692 74.30692 67.83773
#
# Poissons Ratio (x) = -0.37513 0.53589
# Poissons Ratio (y) = -0.37513 0.53589
# Poissons Ratio (z) = 0.58699 0.58699
#
# Static dielectric constant tensor:
#      x y z
#    x 3.458440 0.000000 0.000000 
#    y 0.000000 3.458440 0.000000 
#    z 0.000000 0.000000 3.711400 
# 
# 
# High freq. dielectric constant tensor:
#      x y z
#    x 1.765940 0.000000 0.000000 
#    y 0.000000 1.765940 0.000000 
#    z 0.000000 0.000000 1.795980 
# 
# From -- ./inp_files/11253.got.cif
#   From: 2010.06.25/outbox.cif.g09.slc.cpg/sg140_6_cif.got.tgz:11253.got - 2010.06.28 10:53:23.
