data_PCOD8320215
_publ_section_title
;
Structure prediction by ZEFSAII (Michael W. Deem and Ramdas Pophale) SiO2 
 PCOD8320215
Probable space group: I 4/M C M
;
_chemical_formula_sum "Si O2"
_cell_formula_units_Z 128
_cell_length_a 28.407464
_cell_length_b 28.407464
_cell_length_c 12.368076
_cell_angle_alpha 90.000000
_cell_angle_beta 90.000000
_cell_angle_gamma 90.000000
_cell_volume 9980.839578
_symmetry_space_group_name_H-M "I 4/M C M"
_symmetry_group_IT_number 140
_symmetry_cell_setting 'tetragonal'
loop_
_space_group_symop_operation_xyz
x,y,z
-y,x,z
-x,-y,z
y,-x,z
x,-y,1/2-z
-x,y,1/2-z
y,x,1/2-z
-y,-x,1/2-z
-x,-y,-z
y,-x,-z
x,y,-z
-y,x,-z
-x,y,1/2+z
x,-y,1/2+z
-y,-x,1/2+z
y,x,1/2+z
1/2+x,1/2+y,1/2+z
1/2-y,1/2+x,1/2+z
1/2-x,1/2-y,1/2+z
1/2+y,1/2-x,1/2+z
1/2+x,1/2-y,-z
1/2-x,1/2+y,-z
1/2+y,1/2+x,-z
1/2-y,1/2-x,-z
1/2-x,1/2-y,1/2-z
1/2+y,1/2-x,1/2-z
1/2+x,1/2+y,1/2-z
1/2-y,1/2+x,1/2-z
1/2-x,1/2+y,z
1/2+x,1/2-y,z
1/2-y,1/2-x,z
1/2+y,1/2+x,z
loop_
_atom_site_type_symbol
_atom_site_label
_atom_site_fract_x
_atom_site_fract_y
_atom_site_fract_z
Si Si1 0.270336 0.155340 0.500000
Si Si2 0.747387 0.326941 0.727271
Si Si3 0.577385 0.151371 0.000000
Si Si4 0.113717 0.692838 0.877264
Si Si5 0.947680 0.368321 0.728132
O O1 0.292201 0.207800 0.500000
O O2 0.240356 0.149105 0.390490
O O3 0.310914 0.117820 0.500000
O O4 0.697727 0.302274 0.750000
O O5 0.789755 0.289755 0.724569
O O6 0.760401 0.366761 0.816160
O O7 0.548190 0.156255 0.110362
O O8 0.599421 0.099421 0.000000
O O9 0.154402 0.654402 0.879430
O O10 0.068923 0.671348 0.813815
O O11 0.098981 0.706352 0.000000
O O12 0.912302 0.412302 0.731585
O O13 0.000000 0.387063 0.750000
#
# Coordination Sequence:
#
# PCOD8320215 Si02
#       5
#    16  32  16  32  32
#     4   9  14  24  38  50  70  95 118 139 163 203
#     4   9  16  23  35  55  75  95 115 135 161 201
#     4   9  16  30  45  55  67  90 120 147 180 226
#     4   9  17  28  39  53  74  95 113 138 177 222
#     4  10  20  32  45  57  70  90 118 155 198 241
#
# _framework density 12.824572999999999
#
# number of rings (size 3 to 8) (size 9 to 14) (size 15 to 20)
#    0.000    2.750    2.500    0.000    3.500    0.250 
#    0.000    0.000    0.000    2.250    0.000    0.000 
#    0.000    0.000    0.000    0.000    0.000    0.000 
#
# Total GULP energy -792925.569271 kJ/mol
# GULP energy per Si atom -12389.462020 kJ/mol
# Density = 1.279538 g / cm^3
# Si number density = 12.824573 Si / 1000 Ang^3
#
#
#
# Elastic Constant Matrix: (Units=GPa)
#
#
# Indices 1 2 3 4 5 6 
#
# 1 32.9153 30.9615 32.5464 0.0000 0.0000 0.0000
# 2 30.9615 32.9153 32.5457 0.0000 0.0000 0.0000
# 3 32.5464 32.5457 139.9837 0.0000 0.0000 0.0000
# 4 0.0000 0.0000 0.0000 24.8500 0.0000 0.0000
# 5 0.0000 0.0000 0.0000 0.0000 24.8524 0.0000
# 6 0.0000 0.0000 0.0000 0.0000 0.0000 10.2630
#
#
#
# Elastic Compliance Matrix: (Units=1/GPa)
#
#
# Indices 1 2 3 4 5 6 
#
# 1 0.266172 -0.245655 -0.004772 0.000000 0.000000 0.000000
# 2 -0.245655 0.266169 -0.004768 0.000000 0.000000 0.000000
# 3 -0.004772 -0.004768 0.009362 0.000000 0.000000 0.000000
# 4 0.000000 0.000000 0.000000 0.040242 0.000000 0.000000
# 5 0.000000 0.000000 0.000000 0.000000 0.040238 0.000000
# 6 0.000000 0.000000 0.000000 0.000000 0.000000 0.097438
#
#
# Mechanical properties :
#
#
# Convention : Reuss Voigt Hill
#
# Bulk Modulus (GPa) = 31.93494 44.21352 38.07423
# Shear Modulus (GPa) = 4.03081 19.31043 11.67062
#
# Velocity S-wave (km/s) = 1.77478 3.88459 3.01993
# Velocity P-wave (km/s) = 5.39956 7.39395 6.47402
#
# Compressibility (1/GPa) = 0.03131366
#
# Stress axis : x y z
#
# Youngs Moduli (GPa) = 3.75696 3.75702 106.81842
#
# Poissons Ratio (x) = 0.92293 0.50970
# Poissons Ratio (y) = 0.92292 0.50932
# Poissons Ratio (z) = 0.01793 0.01791
#
# Static dielectric constant tensor:
#      x y z
#    x 2.275910 0.000000 0.000000 
#    y 0.000000 2.275910 0.000000 
#    z 0.000000 0.000000 2.899390 
# 
# 
# High freq. dielectric constant tensor:
#      x y z
#    x 1.440070 0.000000 0.000000 
#    y 0.000000 1.440070 0.000000 
#    z 0.000000 0.000000 1.516850 
# 
# From -- ./inp_files/3315.got.cif
#   From: 2010.06.25/outbox.cif.g09.slc.cpg/sg140_2_cif.got.tgz:3315.got - 2010.06.28 10:53:23.
