data_PCOD8320121
_publ_section_title
;
Structure prediction by ZEFSAII (Michael W. Deem and Ramdas Pophale) SiO2 
 PCOD8320121
Probable space group: I 4/M C M
;
_chemical_formula_sum "Si O2"
_cell_formula_units_Z 160
_cell_length_a 31.777423
_cell_length_b 31.777423
_cell_length_c 8.992973
_cell_angle_alpha 90.000000
_cell_angle_beta 90.000000
_cell_angle_gamma 90.000000
_cell_volume 9081.145616
_symmetry_space_group_name_H-M "I 4/M C M"
_symmetry_group_IT_number 140
_symmetry_cell_setting 'tetragonal'
loop_
_space_group_symop_operation_xyz
x,y,z
-y,x,z
-x,-y,z
y,-x,z
x,-y,1/2-z
-x,y,1/2-z
y,x,1/2-z
-y,-x,1/2-z
-x,-y,-z
y,-x,-z
x,y,-z
-y,x,-z
-x,y,1/2+z
x,-y,1/2+z
-y,-x,1/2+z
y,x,1/2+z
1/2+x,1/2+y,1/2+z
1/2-y,1/2+x,1/2+z
1/2-x,1/2-y,1/2+z
1/2+y,1/2-x,1/2+z
1/2+x,1/2-y,-z
1/2-x,1/2+y,-z
1/2+y,1/2+x,-z
1/2-y,1/2-x,-z
1/2-x,1/2-y,1/2-z
1/2+y,1/2-x,1/2-z
1/2+x,1/2+y,1/2-z
1/2-y,1/2+x,1/2-z
1/2-x,1/2+y,z
1/2+x,1/2-y,z
1/2-y,1/2-x,z
1/2+y,1/2+x,z
loop_
_atom_site_type_symbol
_atom_site_label
_atom_site_fract_x
_atom_site_fract_y
_atom_site_fract_z
Si Si1 0.164115 0.455736 0.675778
Si Si2 0.325781 0.174220 0.666539
Si Si3 0.455613 0.394303 0.824115
Si Si4 0.103506 0.603506 0.668824
Si Si5 0.385950 0.768360 0.326203
Si Si6 0.386578 0.326632 0.173391
O O1 0.174319 0.500000 0.750000
O O2 0.158204 0.460605 0.500000
O O3 0.121031 0.437268 0.744959
O O4 0.203511 0.426112 0.717153
O O5 0.313292 0.186709 0.500000
O O6 0.361175 0.138826 0.670977
O O7 0.343531 0.215523 0.747373
O O8 0.500000 0.385157 0.750000
O O9 0.435878 0.435878 0.750000
O O10 0.427278 0.353976 0.783917
O O11 0.460095 0.401353 0.000000
O O12 0.091222 0.591222 0.500000
O O13 0.377240 0.771058 0.500000
O O14 0.394894 0.720903 0.272324
O O15 0.344970 0.344970 0.250000
O O16 0.377836 0.328257 0.000000
#
# Coordination Sequence:
#
# PCOD8320121 Si02
#       6
#    32  16  32  16  32  32
#     4  10  19  31  49  74 102 131 164 202 245 292
#     4   9  17  29  48  74  98 124 164 209 248 287
#     4  10  20  35  54  76 101 129 163 202 245 293
#     4   9  17  31  49  69  97 131 165 203 246 291
#     4   9  18  33  51  71  99 133 165 201 247 295
#     4   9  19  35  53  73  99 132 167 202 244 295
#
# _framework density 17.618922000000001
#
# number of rings (size 3 to 8) (size 9 to 14) (size 15 to 20)
#    0.000    2.600    0.000    1.800    0.000    5.800 
#    0.000    1.500    0.000    0.300    0.000    2.100 
#    0.000    0.000    0.000    0.000    0.000    0.000 
#
# Total GULP energy -992095.521699 kJ/mol
# GULP energy per Si atom -12401.194021 kJ/mol
# Density = 1.757882 g / cm^3
# Si number density = 17.618922 Si / 1000 Ang^3
#
#
#
# Elastic Constant Matrix: (Units=GPa)
#
#
# Indices 1 2 3 4 5 6 
#
# 1 96.3962 77.9336 52.8200 0.0000 0.0000 0.0000
# 2 77.9336 96.3966 52.8203 0.0000 0.0000 0.0000
# 3 52.8200 52.8203 85.8776 0.0000 0.0000 0.0000
# 4 0.0000 0.0000 0.0000 29.0852 0.0000 0.0000
# 5 0.0000 0.0000 0.0000 0.0000 29.0853 0.0000
# 6 0.0000 0.0000 0.0000 0.0000 0.0000 16.4597
#
#
#
# Elastic Compliance Matrix: (Units=1/GPa)
#
#
# Indices 1 2 3 4 5 6 
#
# 1 0.031654 -0.022509 -0.005624 0.000000 0.000000 0.000000
# 2 -0.022509 0.031654 -0.005625 0.000000 0.000000 0.000000
# 3 -0.005624 -0.005625 0.018563 0.000000 0.000000 0.000000
# 4 0.000000 0.000000 0.000000 0.034382 0.000000 0.000000
# 5 0.000000 0.000000 0.000000 0.000000 0.034382 0.000000
# 6 0.000000 0.000000 0.000000 0.000000 0.000000 0.060754
#
#
# Mechanical properties :
#
#
# Convention : Reuss Voigt Hill
#
# Bulk Modulus (GPa) = 69.66457 71.75758 70.71107
# Shear Modulus (GPa) = 17.62487 21.26581 19.44534
#
# Velocity S-wave (km/s) = 3.16624 3.47794 3.32575
# Velocity P-wave (km/s) = 7.27958 7.54613 7.41405
#
# Compressibility (1/GPa) = 0.01435450
#
# Stress axis : x y z
#
# Youngs Moduli (GPa) = 31.59176 31.59176 53.86976
#
# Poissons Ratio (x) = 0.71111 0.30298
# Poissons Ratio (y) = 0.71111 0.30299
# Poissons Ratio (z) = 0.17768 0.17769
#
# Static dielectric constant tensor:
#      x y z
#    x 3.293660 0.000000 0.000000 
#    y 0.000000 3.293660 0.000000 
#    z 0.000000 0.000000 3.358190 
# 
# 
# High freq. dielectric constant tensor:
#      x y z
#    x 1.672050 0.000000 0.000000 
#    y 0.000000 1.672050 0.000000 
#    z 0.000000 0.000000 1.690700 
# 
# From -- ./inp_files/1858.got.cif
#   From: 2010.06.25/outbox.cif.g09.slc.cpg/sg140_1_cif.got.tgz:1858.got - 2010.06.28 10:53:23.
