data_PCOD8320129
_publ_section_title
;
Structure prediction by ZEFSAII (Michael W. Deem and Ramdas Pophale) SiO2 
 PCOD8320129
Probable space group: I 4/M C M
;
_chemical_formula_sum "Si O2"
_cell_formula_units_Z 224
_cell_length_a 23.670033
_cell_length_b 23.670033
_cell_length_c 22.566175
_cell_angle_alpha 90.000000
_cell_angle_beta 90.000000
_cell_angle_gamma 90.000000
_cell_volume 12643.161298
_symmetry_space_group_name_H-M "I 4/M C M"
_symmetry_group_IT_number 140
_symmetry_cell_setting 'tetragonal'
loop_
_space_group_symop_operation_xyz
x,y,z
-y,x,z
-x,-y,z
y,-x,z
x,-y,1/2-z
-x,y,1/2-z
y,x,1/2-z
-y,-x,1/2-z
-x,-y,-z
y,-x,-z
x,y,-z
-y,x,-z
-x,y,1/2+z
x,-y,1/2+z
-y,-x,1/2+z
y,x,1/2+z
1/2+x,1/2+y,1/2+z
1/2-y,1/2+x,1/2+z
1/2-x,1/2-y,1/2+z
1/2+y,1/2-x,1/2+z
1/2+x,1/2-y,-z
1/2-x,1/2+y,-z
1/2+y,1/2+x,-z
1/2-y,1/2-x,-z
1/2-x,1/2-y,1/2-z
1/2+y,1/2-x,1/2-z
1/2+x,1/2+y,1/2-z
1/2-y,1/2+x,1/2-z
1/2-x,1/2+y,z
1/2+x,1/2-y,z
1/2-y,1/2-x,z
1/2+y,1/2+x,z
loop_
_atom_site_type_symbol
_atom_site_label
_atom_site_fract_x
_atom_site_fract_y
_atom_site_fract_z
Si Si1 0.448696 0.573220 0.929723
Si Si2 0.155154 0.565147 0.258855
Si Si3 0.625876 0.963283 0.432901
Si Si4 0.257288 0.152749 0.930471
Si Si5 0.630126 0.324530 0.929426
Si Si6 0.615730 0.794569 0.628862
Si Si7 0.836117 0.574271 0.373148
O O1 0.421897 0.513674 0.907164
O O2 0.412034 0.626190 0.907125
O O3 0.447418 0.572912 0.000000
O O4 0.141187 0.500000 0.250000
O O5 0.096918 0.596918 0.276098
O O6 0.200722 0.579743 0.309850
O O7 0.178253 0.585610 0.195506
O O8 0.629339 0.986430 0.500000
O O9 0.563454 0.936546 0.420540
O O10 0.671671 0.914291 0.424141
O O11 0.641936 0.011337 0.385941
O O12 0.295663 0.204338 0.904435
O O13 0.192952 0.158163 0.910460
O O14 0.279498 0.091726 0.908113
O O15 0.261480 0.153429 0.000000
O O16 0.616262 0.269832 0.890926
O O17 0.625032 0.312878 0.000000
O O18 0.678741 0.821260 0.637693
O O19 0.886248 0.613752 0.396276
#
# Coordination Sequence:
#
# PCOD8320129 Si02
#       7
#    32  32  32  32  32  32  32
#     4   8  15  29  47  70 104 137 164 203 252 302
#     4  10  20  36  55  74  99 138 184 230 273 310
#     4  10  20  32  48  73 105 139 172 211 266 324
#     4   9  18  32  49  73 106 139 171 211 259 315
#     4  10  19  31  52  79 105 139 177 208 255 326
#     4  10  20  34  50  72 103 135 173 224 269 309
#     4  10  20  34  52  72  99 137 178 220 266 308
#
# _framework density 17.717088
#
# number of rings (size 3 to 8) (size 9 to 14) (size 15 to 20)
#    0.000    2.429    1.429    1.714    0.000    3.857 
#    0.000    5.714    0.000    3.429    0.000    0.000 
#    0.000    0.000    0.000    0.000    0.000    0.000 
#
# Total GULP energy -1388003.006741 kJ/mol
# GULP energy per Si atom -12392.883989 kJ/mol
# Density = 1.767676 g / cm^3
# Si number density = 17.717088 Si / 1000 Ang^3
#
#
#
# Elastic Constant Matrix: (Units=GPa)
#
#
# Indices 1 2 3 4 5 6 
#
# 1 108.1074 83.8524 36.7661 0.0000 0.0000 0.0000
# 2 83.8524 108.1074 36.7661 0.0000 0.0000 0.0000
# 3 36.7661 36.7661 55.4794 0.0000 0.0000 0.0000
# 4 0.0000 0.0000 0.0000 21.4118 0.0000 0.0000
# 5 0.0000 0.0000 0.0000 0.0000 21.4118 0.0000
# 6 0.0000 0.0000 0.0000 0.0000 0.0000 23.5161
#
#
#
# Elastic Compliance Matrix: (Units=1/GPa)
#
#
# Indices 1 2 3 4 5 6 
#
# 1 0.024105 -0.017123 -0.004627 0.000000 0.000000 0.000000
# 2 -0.017123 0.024105 -0.004627 0.000000 0.000000 0.000000
# 3 -0.004627 -0.004627 0.024157 0.000000 0.000000 0.000000
# 4 0.000000 0.000000 0.000000 0.046703 0.000000 0.000000
# 5 0.000000 0.000000 0.000000 0.000000 0.046703 0.000000
# 6 0.000000 0.000000 0.000000 0.000000 0.000000 0.042524
#
#
# Mechanical properties :
#
#
# Convention : Reuss Voigt Hill
#
# Bulk Modulus (GPa) = 50.98559 65.16259 58.07409
# Shear Modulus (GPa) = 18.68530 20.88857 19.78693
#
# Velocity S-wave (km/s) = 3.25106 3.43739 3.34552
# Velocity P-wave (km/s) = 6.55230 7.25352 6.91181
#
# Compressibility (1/GPa) = 0.01961339
#
# Stress axis : x y z
#
# Youngs Moduli (GPa) = 41.48476 41.48476 41.39575
#
# Poissons Ratio (x) = 0.71036 0.19153
# Poissons Ratio (y) = 0.71036 0.19153
# Poissons Ratio (z) = 0.19194 0.19194
#
# Static dielectric constant tensor:
#      x y z
#    x 3.359950 0.000000 0.000000 
#    y 0.000000 3.359950 0.000000 
#    z 0.000000 0.000000 3.174660 
# 
# 
# High freq. dielectric constant tensor:
#      x y z
#    x 1.679340 0.000000 0.000000 
#    y 0.000000 1.679340 0.000000 
#    z 0.000000 0.000000 1.662840 
# 
# From -- ./inp_files/9994.got.cif
#   From: 2010.06.25/outbox.cif.g09.slc.cpg/sg140_5_cif.got.tgz:9994.got - 2010.06.28 10:53:23.
