data_PCOD8320710
_publ_section_title
;
Structure prediction by ZEFSAII (Michael W. Deem and Ramdas Pophale) SiO2 
 PCOD8320710
Probable space group: I 41/A M D
;
_chemical_formula_sum "Si O2"
_cell_formula_units_Z 128
_cell_length_a 19.979799
_cell_length_b 19.979799
_cell_length_c 17.601426
_cell_angle_alpha 90.000000
_cell_angle_beta 90.000000
_cell_angle_gamma 90.000000
_cell_volume 7026.354927
_symmetry_space_group_name_H-M "I 41/A M D"
_symmetry_group_IT_number 141
_space_group.IT_coordinate_system_code '2'
_symmetry_cell_setting 'tetragonal'
loop_
_space_group_symop_operation_xyz
x,y,z
1/4-y,3/4+x,1/4+z
-x,1/2-y,z
1/4+y,1/4-x,3/4+z
x,-y,-z
-x,1/2+y,-z
1/4+y,3/4+x,1/4-z
1/4-y,1/4-x,3/4-z
-x,-y,-z
3/4+y,1/4-x,3/4-z
x,1/2+y,-z
3/4-y,3/4+x,1/4-z
-x,y,z
x,1/2-y,z
3/4-y,1/4-x,3/4+z
3/4+y,3/4+x,1/4+z
1/2+x,1/2+y,1/2+z
3/4-y,1/4+x,3/4+z
1/2-x,-y,1/2+z
3/4+y,3/4-x,1/4+z
1/2+x,1/2-y,1/2-z
1/2-x,y,1/2-z
3/4+y,1/4+x,3/4-z
3/4-y,3/4-x,1/4-z
1/2-x,1/2-y,1/2-z
1/4+y,3/4-x,1/4-z
1/2+x,y,1/2-z
1/4-y,1/4+x,3/4-z
1/2-x,1/2+y,1/2+z
1/2+x,-y,1/2+z
1/4-y,3/4-x,1/4+z
1/4+y,1/4+x,3/4+z
loop_
_atom_site_type_symbol
_atom_site_label
_atom_site_fract_x
_atom_site_fract_y
_atom_site_fract_z
Si Si1 0.308028 0.431560 0.535907
Si Si2 0.165739 0.675369 0.926721
Si Si3 0.803200 0.379714 0.441971
Si Si4 0.576923 0.326478 0.283021
O O1 0.334401 0.500000 0.500000
O O2 0.318603 0.431397 0.625000
O O3 0.352881 0.373007 0.497348
O O4 0.229610 0.419733 0.513583
O O5 0.146266 0.750000 0.950952
O O6 0.246021 0.670980 0.909972
O O7 0.123865 0.653861 0.853167
O O8 0.818050 0.431951 0.375000
O O9 0.871591 0.342257 0.465269
O O10 0.500000 0.334171 0.308144
O O11 0.591234 0.250000 0.255482
#
# Coordination Sequence:
#
# PCOD8320710 Si02
#       4
#    32  32  32  32
#     4  10  20  35  58  84 111 146 184 232 283 337
#     4   9  21  37  57  82 112 148 188 234 278 332
#     4  10  22  34  57  83 114 145 186 234 279 333
#     4  10  21  37  55  79 115 155 191 229 281 338
#
# _framework density 18.217126
#
# number of rings (size 3 to 8) (size 9 to 14) (size 15 to 20)
#    1.500    0.750    0.000    3.000    3.500    2.000 
#    0.000    5.000    0.000    3.000    0.000    0.000 
#    0.000    0.000    0.000    0.000    0.000    0.000 
#
# Total GULP energy -792931.773712 kJ/mol
# GULP energy per Si atom -12389.558964 kJ/mol
# Density = 1.817566 g / cm^3
# Si number density = 18.217126 Si / 1000 Ang^3
#
#
#
# Elastic Constant Matrix: (Units=GPa)
#
#
# Indices 1 2 3 4 5 6 
#
# 1 92.5713 22.1616 40.7774 0.0000 0.0000 0.0000
# 2 22.1616 92.5705 40.7780 0.0000 0.0000 0.0000
# 3 40.7774 40.7780 91.4224 0.0000 0.0000 0.0000
# 4 0.0000 0.0000 0.0000 28.0647 0.0000 0.0000
# 5 0.0000 0.0000 0.0000 0.0000 28.0649 0.0000
# 6 0.0000 0.0000 0.0000 0.0000 0.0000 17.4493
#
#
#
# Elastic Compliance Matrix: (Units=1/GPa)
#
#
# Indices 1 2 3 4 5 6 
#
# 1 0.013482 -0.000720 -0.005692 0.000000 0.000000 0.000000
# 2 -0.000720 0.013483 -0.005693 0.000000 0.000000 0.000000
# 3 -0.005692 -0.005693 0.016016 0.000000 0.000000 0.000000
# 4 0.000000 0.000000 0.000000 0.035632 0.000000 0.000000
# 5 0.000000 0.000000 0.000000 0.000000 0.035632 0.000000
# 6 0.000000 0.000000 0.000000 0.000000 0.000000 0.057309
#
#
# Mechanical properties :
#
#
# Convention : Reuss Voigt Hill
#
# Bulk Modulus (GPa) = 53.27332 53.77757 53.52544
# Shear Modulus (GPa) = 24.74991 26.23894 25.49442
#
# Velocity S-wave (km/s) = 3.68993 3.79930 3.74502
# Velocity P-wave (km/s) = 6.88920 6.98790 6.93873
#
# Compressibility (1/GPa) = 0.01877112
#
# Stress axis : x y z
#
# Youngs Moduli (GPa) = 74.17098 74.16968 62.43636
#
# Poissons Ratio (x) = 0.05342 0.35541
# Poissons Ratio (y) = 0.05342 0.35542
# Poissons Ratio (z) = 0.42221 0.42221
#
# Static dielectric constant tensor:
#      x y z
#    x 3.285120 0.000000 0.000000 
#    y 0.000000 3.285120 0.000000 
#    z 0.000000 0.000000 3.233930 
# 
# 
# High freq. dielectric constant tensor:
#      x y z
#    x 1.701030 0.000000 0.000000 
#    y 0.000000 1.701030 0.000000 
#    z 0.000000 0.000000 1.691340 
# 
# From -- ./inp_files/8267.got.cif
#   From: 2010.03.12/outbox.cif.g09.slc.cpg/sg141_5_cif.got.tgz:8267.got - 2010.04.03 13:18:35.
