data_PCOD8320517
_publ_section_title
;
Structure prediction by ZEFSAII (Michael W. Deem and Ramdas Pophale) SiO2 
 PCOD8320517
Probable space group: I 4/M C M
;
_chemical_formula_sum "Si O2"
_cell_formula_units_Z 144
_cell_length_a 17.063138
_cell_length_b 17.063138
_cell_length_c 26.046811
_cell_angle_alpha 90.000000
_cell_angle_beta 90.000000
_cell_angle_gamma 90.000000
_cell_volume 7583.546693
_symmetry_space_group_name_H-M "I 4/M C M"
_symmetry_group_IT_number 140
_symmetry_cell_setting 'tetragonal'
loop_
_space_group_symop_operation_xyz
x,y,z
-y,x,z
-x,-y,z
y,-x,z
x,-y,1/2-z
-x,y,1/2-z
y,x,1/2-z
-y,-x,1/2-z
-x,-y,-z
y,-x,-z
x,y,-z
-y,x,-z
-x,y,1/2+z
x,-y,1/2+z
-y,-x,1/2+z
y,x,1/2+z
1/2+x,1/2+y,1/2+z
1/2-y,1/2+x,1/2+z
1/2-x,1/2-y,1/2+z
1/2+y,1/2-x,1/2+z
1/2+x,1/2-y,-z
1/2-x,1/2+y,-z
1/2+y,1/2+x,-z
1/2-y,1/2-x,-z
1/2-x,1/2-y,1/2-z
1/2+y,1/2-x,1/2-z
1/2+x,1/2+y,1/2-z
1/2-y,1/2+x,1/2-z
1/2-x,1/2+y,z
1/2+x,1/2-y,z
1/2-y,1/2-x,z
1/2+y,1/2+x,z
loop_
_atom_site_type_symbol
_atom_site_label
_atom_site_fract_x
_atom_site_fract_y
_atom_site_fract_z
Si Si1 0.370600 0.259814 0.180241
Si Si2 0.121813 0.969649 0.060449
Si Si3 0.065122 0.565122 0.440451
Si Si4 0.750133 0.877711 0.707018
Si Si5 0.222616 0.517149 0.616958
O O1 0.308233 0.191768 0.174080
O O2 0.330245 0.346345 0.179793
O O3 0.414612 0.259210 0.235921
O O4 0.428475 0.244951 0.132285
O O5 0.204198 0.947350 0.086016
O O6 0.056452 0.906500 0.077290
O O7 0.134062 0.967155 0.000000
O O8 0.082211 0.582211 0.500000
O O9 0.144183 0.529988 0.415763
O O10 0.000000 0.500000 0.432612
O O11 0.698820 0.801181 0.715183
O O12 0.708202 0.939048 0.670414
#
# Coordination Sequence:
#
# PCOD8320517 Si02
#       5
#    32  32  16  32  32
#     4   9  19  33  53  76 111 141 173 215 268 328
#     4   9  19  35  55  81 110 137 172 224 284 335
#     4  11  26  42  54  73 108 150 194 238 285 325
#     4   9  18  34  51  79 108 140 173 215 267 321
#     4  12  19  34  57  81 101 144 187 226 265 322
#
# _framework density 18.988477
#
# number of rings (size 3 to 8) (size 9 to 14) (size 15 to 20)
#    0.000    2.111    1.111    5.333    0.000    0.000 
#    0.000    0.000    0.000    0.000    0.000    9.333 
#    0.000    0.000    0.000    0.000    0.000    0.000 
#
# Total GULP energy -892017.714771 kJ/mol
# GULP energy per Si atom -12389.134927 kJ/mol
# Density = 1.894526 g / cm^3
# Si number density = 18.988477 Si / 1000 Ang^3
#
#
#
# Elastic Constant Matrix: (Units=GPa)
#
#
# Indices 1 2 3 4 5 6 
#
# 1 71.1560 5.1585 28.6825 0.0000 0.0000 0.0000
# 2 5.1585 71.1560 28.6825 0.0000 0.0000 0.0000
# 3 28.6825 28.6825 72.9253 0.0000 0.0000 0.0000
# 4 0.0000 0.0000 0.0000 30.3396 0.0000 0.0000
# 5 0.0000 0.0000 0.0000 0.0000 30.3396 0.0000
# 6 0.0000 0.0000 0.0000 0.0000 0.0000 21.6916
#
#
#
# Elastic Compliance Matrix: (Units=1/GPa)
#
#
# Indices 1 2 3 4 5 6 
#
# 1 0.016878 0.001726 -0.007317 0.000000 0.000000 0.000000
# 2 0.001726 0.016878 -0.007317 0.000000 0.000000 0.000000
# 3 -0.007317 -0.007317 0.019469 0.000000 0.000000 0.000000
# 4 0.000000 0.000000 0.000000 0.032960 0.000000 0.000000
# 5 0.000000 0.000000 0.000000 0.000000 0.032960 0.000000
# 6 0.000000 0.000000 0.000000 0.000000 0.000000 0.046101
#
#
# Mechanical properties :
#
#
# Convention : Reuss Voigt Hill
#
# Bulk Modulus (GPa) = 36.48608 37.80936 37.14772
# Shear Modulus (GPa) = 24.97519 26.65507 25.81513
#
# Velocity S-wave (km/s) = 3.63062 3.75073 3.69116
# Velocity P-wave (km/s) = 6.06891 6.22192 6.14589
#
# Compressibility (1/GPa) = 0.02740772
#
# Stress axis : x y z
#
# Youngs Moduli (GPa) = 59.24868 59.24868 51.36490
#
# Poissons Ratio (x) = -0.10226 0.37585
# Poissons Ratio (y) = -0.10226 0.37585
# Poissons Ratio (z) = 0.43353 0.43353
#
# Static dielectric constant tensor:
#      x y z
#    x 3.353280 0.000000 0.000000 
#    y 0.000000 3.353280 0.000000 
#    z 0.000000 0.000000 3.467320 
# 
# 
# High freq. dielectric constant tensor:
#      x y z
#    x 1.730700 0.000000 0.000000 
#    y 0.000000 1.730700 0.000000 
#    z 0.000000 0.000000 1.742830 
# 
# From -- ./inp_files/9423.got.cif
#   From: 2010.06.25/outbox.cif.g09.slc.cpg/sg140_5_cif.got.tgz:9423.got - 2010.06.28 10:53:23.
