data_PCOD8320122
_publ_section_title
;
Structure prediction by ZEFSAII (Michael W. Deem and Ramdas Pophale) SiO2 
 PCOD8320122
Probable space group: I 4/M C M
;
_chemical_formula_sum "Si O2"
_cell_formula_units_Z 160
_cell_length_a 31.027838
_cell_length_b 31.027838
_cell_length_c 9.353065
_cell_angle_alpha 90.000000
_cell_angle_beta 90.000000
_cell_angle_gamma 90.000000
_cell_volume 9004.445692
_symmetry_space_group_name_H-M "I 4/M C M"
_symmetry_group_IT_number 140
_symmetry_cell_setting 'tetragonal'
loop_
_space_group_symop_operation_xyz
x,y,z
-y,x,z
-x,-y,z
y,-x,z
x,-y,1/2-z
-x,y,1/2-z
y,x,1/2-z
-y,-x,1/2-z
-x,-y,-z
y,-x,-z
x,y,-z
-y,x,-z
-x,y,1/2+z
x,-y,1/2+z
-y,-x,1/2+z
y,x,1/2+z
1/2+x,1/2+y,1/2+z
1/2-y,1/2+x,1/2+z
1/2-x,1/2-y,1/2+z
1/2+y,1/2-x,1/2+z
1/2+x,1/2-y,-z
1/2-x,1/2+y,-z
1/2+y,1/2+x,-z
1/2-y,1/2-x,-z
1/2-x,1/2-y,1/2-z
1/2+y,1/2-x,1/2-z
1/2+x,1/2+y,1/2-z
1/2-y,1/2+x,1/2-z
1/2-x,1/2+y,z
1/2+x,1/2-y,z
1/2-y,1/2-x,z
1/2+y,1/2+x,z
loop_
_atom_site_type_symbol
_atom_site_label
_atom_site_fract_x
_atom_site_fract_y
_atom_site_fract_z
Si Si1 0.174479 0.232872 0.835943
Si Si2 0.462526 0.560410 0.500000
Si Si3 0.304154 0.129610 0.162039
Si Si4 0.090686 0.909315 0.750000
Si Si5 0.586488 0.312383 0.840044
Si Si6 0.542739 0.760857 0.168018
O O1 0.215750 0.215750 0.750000
O O2 0.159573 0.277657 0.768782
O O3 0.136450 0.198426 0.820586
O O4 0.187661 0.240636 0.000000
O O5 0.441185 0.513579 0.500000
O O6 0.447431 0.586653 0.363148
O O7 0.354271 0.145730 0.174686
O O8 0.297393 0.079187 0.200304
O O9 0.287154 0.136738 0.000000
O O10 0.082923 0.863139 0.679990
O O11 0.557918 0.285696 0.726989
O O12 0.570705 0.300211 0.000000
O O13 0.500000 0.776311 0.250000
O O14 0.533275 0.756264 0.000000
#
# Coordination Sequence:
#
# PCOD8320122 Si02
#       6
#    32  16  32  16  32  32
#     4  10  19  31  50  72 104 137 171 213 263 307
#     4  11  26  44  56  70  92 120 157 206 270 330
#     4   9  19  36  55  76 103 141 184 219 256 306
#     4  12  22  39  62  76  95 124 162 216 266 328
#     4  10  21  36  53  79 105 132 167 213 261 320
#     4  10  21  36  57  82 113 144 173 217 265 312
#
# _framework density 17.768999999999998
#
# number of rings (size 3 to 8) (size 9 to 14) (size 15 to 20)
#    0.000    1.900    2.000    1.800    1.400    4.800 
#    0.000    0.000    0.000    0.000    0.000    0.000 
#    0.000    0.400    0.000    5.000    0.000    0.000 
#
# Total GULP energy -991860.855582 kJ/mol
# GULP energy per Si atom -12398.260695 kJ/mol
# Density = 1.772856 g / cm^3
# Si number density = 17.769000 Si / 1000 Ang^3
#
#
#
# Elastic Constant Matrix: (Units=GPa)
#
#
# Indices 1 2 3 4 5 6 
#
# 1 69.8287 57.4735 38.4187 0.0000 0.0000 0.0000
# 2 57.4735 69.8250 38.4178 0.0000 0.0000 0.0000
# 3 38.4187 38.4178 117.3009 0.0000 0.0000 0.0000
# 4 0.0000 0.0000 0.0000 19.0191 0.0000 0.0000
# 5 0.0000 0.0000 0.0000 0.0000 19.0191 0.0000
# 6 0.0000 0.0000 0.0000 0.0000 0.0000 26.7912
#
#
#
# Elastic Compliance Matrix: (Units=1/GPa)
#
#
# Indices 1 2 3 4 5 6 
#
# 1 0.045369 -0.035579 -0.003207 0.000000 0.000000 0.000000
# 2 -0.035579 0.045372 -0.003207 0.000000 0.000000 0.000000
# 3 -0.003207 -0.003207 0.010626 0.000000 0.000000 0.000000
# 4 0.000000 0.000000 0.000000 0.052579 0.000000 0.000000
# 5 0.000000 0.000000 0.000000 0.000000 0.052579 0.000000
# 6 0.000000 0.000000 0.000000 0.000000 0.000000 0.037326
#
#
# Mechanical properties :
#
#
# Convention : Reuss Voigt Hill
#
# Bulk Modulus (GPa) = 57.53527 58.39717 57.96622
# Shear Modulus (GPa) = 14.98672 21.14219 18.06445
#
# Velocity S-wave (km/s) = 2.90732 3.45314 3.19192
# Velocity P-wave (km/s) = 6.61210 6.98820 6.80275
#
# Compressibility (1/GPa) = 0.01738064
#
# Stress axis : x y z
#
# Youngs Moduli (GPa) = 22.04140 22.04023 94.11221
#
# Poissons Ratio (x) = 0.78418 0.30178
# Poissons Ratio (y) = 0.78422 0.30180
# Poissons Ratio (z) = 0.07068 0.07068
#
# Static dielectric constant tensor:
#      x y z
#    x 3.210110 0.000000 0.000000 
#    y 0.000000 3.210150 0.000000 
#    z 0.000000 0.000000 3.451220 
# 
# 
# High freq. dielectric constant tensor:
#      x y z
#    x 1.668780 0.000000 0.000000 
#    y 0.000000 1.668790 0.000000 
#    z 0.000000 0.000000 1.706390 
# 
# From -- ./inp_files/1805.got.cif
#   From: 2010.06.25/outbox.cif.g09.slc.cpg/sg140_1_cif.got.tgz:1805.got - 2010.06.28 10:53:23.
