data_PCOD8320338
_publ_section_title
;
Structure prediction by ZEFSAII (Michael W. Deem and Ramdas Pophale) SiO2 
 PCOD8320338
Probable space group: I 4/M C M
;
_chemical_formula_sum "Si O2"
_cell_formula_units_Z 192
_cell_length_a 19.208755
_cell_length_b 19.208755
_cell_length_c 27.362645
_cell_angle_alpha 90.000000
_cell_angle_beta 90.000000
_cell_angle_gamma 90.000000
_cell_volume 10096.166652
_symmetry_space_group_name_H-M "I 4/M C M"
_symmetry_group_IT_number 140
_symmetry_cell_setting 'tetragonal'
loop_
_space_group_symop_operation_xyz
x,y,z
-y,x,z
-x,-y,z
y,-x,z
x,-y,1/2-z
-x,y,1/2-z
y,x,1/2-z
-y,-x,1/2-z
-x,-y,-z
y,-x,-z
x,y,-z
-y,x,-z
-x,y,1/2+z
x,-y,1/2+z
-y,-x,1/2+z
y,x,1/2+z
1/2+x,1/2+y,1/2+z
1/2-y,1/2+x,1/2+z
1/2-x,1/2-y,1/2+z
1/2+y,1/2-x,1/2+z
1/2+x,1/2-y,-z
1/2-x,1/2+y,-z
1/2+y,1/2+x,-z
1/2-y,1/2-x,-z
1/2-x,1/2-y,1/2-z
1/2+y,1/2-x,1/2-z
1/2+x,1/2+y,1/2-z
1/2-y,1/2+x,1/2-z
1/2-x,1/2+y,z
1/2+x,1/2-y,z
1/2-y,1/2-x,z
1/2+y,1/2+x,z
loop_
_atom_site_type_symbol
_atom_site_label
_atom_site_fract_x
_atom_site_fract_y
_atom_site_fract_z
Si Si1 0.095451 0.782430 0.800476
Si Si2 0.488334 0.387904 0.148541
Si Si3 0.999701 0.799554 0.554916
Si Si4 0.259185 0.131002 0.902570
Si Si5 0.358232 0.253949 0.405760
Si Si6 0.759789 0.854625 0.297556
O O1 0.024028 0.824505 0.813472
O O2 0.110001 0.730246 0.845618
O O3 0.091141 0.743999 0.747427
O O4 0.159509 0.835526 0.796903
O O5 0.560943 0.424049 0.158548
O O6 0.488362 0.362801 0.092472
O O7 0.994589 0.829049 0.500000
O O8 0.074398 0.761893 0.560408
O O9 0.937477 0.744477 0.563828
O O10 0.325627 0.174374 0.920397
O O11 0.188823 0.176630 0.908272
O O12 0.312621 0.187380 0.422782
O O13 0.387331 0.242226 0.350447
O O14 0.715341 0.784660 0.289805
#
# Coordination Sequence:
#
# PCOD8320338 Si02
#       6
#    32  32  32  32  32  32
#     4   9  15  27  48  71  97 130 169 209 250 299
#     4  10  21  35  47  65 101 146 185 217 255 310
#     4  11  22  35  53  75  98 129 175 229 279 323
#     4   9  18  33  52  75 104 135 169 212 260 315
#     4   9  19  36  56  79 106 134 169 218 273 326
#     4   9  15  27  50  75  98 127 167 215 263 310
#
# _framework density 19.017119000000001
#
# number of rings (size 3 to 8) (size 9 to 14) (size 15 to 20)
#    0.000    2.500    0.000    6.000    0.000    3.333 
#    0.000   17.500    0.000    8.500    0.000    1.167 
#    0.000    0.000    0.000    9.333    0.000    1.167 
#
# Total GULP energy -1189501.168938 kJ/mol
# GULP energy per Si atom -12390.637176 kJ/mol
# Density = 1.897383 g / cm^3
# Si number density = 19.017119 Si / 1000 Ang^3
#
#
#
# Elastic Constant Matrix: (Units=GPa)
#
#
# Indices 1 2 3 4 5 6 
#
# 1 62.2025 24.5433 10.9949 0.0000 0.0000 0.0000
# 2 24.5433 62.2025 10.9949 0.0000 0.0000 0.0000
# 3 10.9949 10.9949 83.4393 0.0000 0.0000 0.0000
# 4 0.0000 0.0000 0.0000 17.3232 0.0000 0.0000
# 5 0.0000 0.0000 0.0000 0.0000 17.3232 0.0000
# 6 0.0000 0.0000 0.0000 0.0000 0.0000 7.4244
#
#
#
# Elastic Compliance Matrix: (Units=1/GPa)
#
#
# Indices 1 2 3 4 5 6 
#
# 1 0.019240 -0.007314 -0.001572 0.000000 0.000000 0.000000
# 2 -0.007314 0.019240 -0.001572 0.000000 0.000000 0.000000
# 3 -0.001572 -0.001572 0.012399 0.000000 0.000000 0.000000
# 4 0.000000 0.000000 0.000000 0.057726 0.000000 0.000000
# 5 0.000000 0.000000 0.000000 0.000000 0.057726 0.000000
# 6 0.000000 0.000000 0.000000 0.000000 0.000000 0.134690
#
#
# Mechanical properties :
#
#
# Convention : Reuss Voigt Hill
#
# Bulk Modulus (GPa) = 33.37182 33.43448 33.40315
# Shear Modulus (GPa) = 15.06370 19.16825 17.11597
#
# Velocity S-wave (km/s) = 2.81750 3.17826 3.00330
# Velocity P-wave (km/s) = 5.30762 5.57565 5.44329
#
# Compressibility (1/GPa) = 0.02996540
#
# Stress axis : x y z
#
# Youngs Moduli (GPa) = 51.97468 51.97468 80.65212
#
# Poissons Ratio (x) = 0.38013 0.12675
# Poissons Ratio (y) = 0.38013 0.12675
# Poissons Ratio (z) = 0.08168 0.08168
#
# Static dielectric constant tensor:
#      x y z
#    x 3.299140 0.000000 0.000000 
#    y 0.000000 3.299140 0.000000 
#    z 0.000000 0.000000 3.766540 
# 
# 
# High freq. dielectric constant tensor:
#      x y z
#    x 1.708880 0.000000 0.000000 
#    y 0.000000 1.708880 0.000000 
#    z 0.000000 0.000000 1.746860 
# 
# From -- ./inp_files/10843.got.cif
#   From: 2010.06.25/outbox.cif.g09.slc.cpg/sg140_6_cif.got.tgz:10843.got - 2010.06.28 10:53:23.
