data_PCOD8320567
_publ_section_title
;
Structure prediction by ZEFSAII (Michael W. Deem and Ramdas Pophale) SiO2 
 PCOD8320567
Probable space group: I 41/A M D
;
_chemical_formula_sum "Si O2"
_cell_formula_units_Z 224
_cell_length_a 22.936417
_cell_length_b 22.936417
_cell_length_c 25.723367
_cell_angle_alpha 90.000000
_cell_angle_beta 90.000000
_cell_angle_gamma 90.000000
_cell_volume 13532.528971
_symmetry_space_group_name_H-M "I 41/A M D"
_symmetry_group_IT_number 141
_space_group.IT_coordinate_system_code '2'
_symmetry_cell_setting 'tetragonal'
loop_
_space_group_symop_operation_xyz
x,y,z
1/4-y,3/4+x,1/4+z
-x,1/2-y,z
1/4+y,1/4-x,3/4+z
x,-y,-z
-x,1/2+y,-z
1/4+y,3/4+x,1/4-z
1/4-y,1/4-x,3/4-z
-x,-y,-z
3/4+y,1/4-x,3/4-z
x,1/2+y,-z
3/4-y,3/4+x,1/4-z
-x,y,z
x,1/2-y,z
3/4-y,1/4-x,3/4+z
3/4+y,3/4+x,1/4+z
1/2+x,1/2+y,1/2+z
3/4-y,1/4+x,3/4+z
1/2-x,-y,1/2+z
3/4+y,3/4-x,1/4+z
1/2+x,1/2-y,1/2-z
1/2-x,y,1/2-z
3/4+y,1/4+x,3/4-z
3/4-y,3/4-x,1/4-z
1/2-x,1/2-y,1/2-z
1/4+y,3/4-x,1/4-z
1/2+x,y,1/2-z
1/4-y,1/4+x,3/4-z
1/2-x,1/2+y,1/2+z
1/2+x,-y,1/2+z
1/4-y,3/4-x,1/4+z
1/4+y,1/4+x,3/4+z
loop_
_atom_site_type_symbol
_atom_site_label
_atom_site_fract_x
_atom_site_fract_y
_atom_site_fract_z
Si Si1 0.109379 0.818790 0.071044
Si Si2 0.670582 0.905560 0.018271
Si Si3 0.500000 0.180901 0.503512
Si Si4 0.065486 0.137322 0.577576
Si Si5 0.567899 0.478506 0.737775
Si Si6 0.500000 0.180710 0.387374
Si Si7 0.830701 0.479113 0.418501
Si Si8 0.435295 0.476825 0.857417
O O1 0.103846 0.853846 0.125000
O O2 0.103419 0.750000 0.082295
O O3 0.057841 0.840520 0.033177
O O4 0.170673 0.834414 0.044271
O O5 0.606617 0.879738 0.029583
O O6 0.718083 0.856802 0.032285
O O7 0.685105 0.960493 0.054411
O O8 0.669583 0.925233 0.958472
O O9 0.500000 0.250000 0.499790
O O10 0.500000 0.153744 0.445456
O O11 0.091191 0.194148 0.605651
O O12 0.065662 0.088109 0.621073
O O13 0.000000 0.147221 0.555683
O O14 0.500000 0.493817 0.730092
O O15 0.584042 0.469778 0.797932
O O16 0.500000 0.250000 0.391728
O O17 0.781743 0.468258 0.375000
O O18 0.893678 0.481197 0.390708
O O19 0.500000 0.504141 0.861636
#
# Coordination Sequence:
#
# PCOD8320567 Si02
#       8
#    32  32  16  32  32  16  32  32
#     4  10  18  29  47  73 103 136 171 219 260 295
#     4  10  21  33  52  76  98 133 163 207 255 296
#     4   9  16  26  48  73 101 131 173 214 257 294
#     4   9  18  31  49  74 104 127 162 202 251 303
#     4  10  20  32  49  74 102 131 169 204 254 311
#     4   9  16  28  46  73 101 135 167 202 246 302
#     4  10  19  35  54  73 100 126 170 209 244 299
#     4   9  17  32  52  74 100 128 158 212 258 294
#
# _framework density 16.552707999999999
#
# number of rings (size 3 to 8) (size 9 to 14) (size 15 to 20)
#    0.000    2.429    2.143    0.857    1.000    4.571 
#    0.000    2.857    0.000    0.000    0.000    1.000 
#    0.000    0.000    0.000    0.000    0.000    0.000 
#
# Total GULP energy -1388634.637011 kJ/mol
# GULP energy per Si atom -12398.523545 kJ/mol
# Density = 1.651503 g / cm^3
# Si number density = 16.552708 Si / 1000 Ang^3
#
#
#
# Elastic Constant Matrix: (Units=GPa)
#
#
# Indices 1 2 3 4 5 6 
#
# 1 82.3964 50.0166 48.4572 0.0000 0.0000 0.0000
# 2 50.0166 82.3950 48.4566 0.0000 0.0000 0.0000
# 3 48.4572 48.4566 108.7565 0.0000 0.0000 0.0000
# 4 0.0000 0.0000 0.0000 19.8647 0.0000 0.0000
# 5 0.0000 0.0000 0.0000 0.0000 19.8656 0.0000
# 6 0.0000 0.0000 0.0000 0.0000 0.0000 26.3709
#
#
#
# Elastic Compliance Matrix: (Units=1/GPa)
#
#
# Indices 1 2 3 4 5 6 
#
# 1 0.021045 -0.009839 -0.004993 0.000000 0.000000 0.000000
# 2 -0.009839 0.021046 -0.004993 0.000000 0.000000 0.000000
# 3 -0.004993 -0.004993 0.013644 0.000000 0.000000 0.000000
# 4 0.000000 0.000000 0.000000 0.050341 0.000000 0.000000
# 5 0.000000 0.000000 0.000000 0.000000 0.050338 0.000000
# 6 0.000000 0.000000 0.000000 0.000000 0.000000 0.037921
#
#
# Mechanical properties :
#
#
# Convention : Reuss Voigt Hill
#
# Bulk Modulus (GPa) = 62.16975 63.04541 62.60758
# Shear Modulus (GPa) = 20.89021 21.66141 21.27581
#
# Velocity S-wave (km/s) = 3.55638 3.62143 3.58905
# Velocity P-wave (km/s) = 7.38268 7.46034 7.42161
#
# Compressibility (1/GPa) = 0.01608499
#
# Stress axis : x y z
#
# Youngs Moduli (GPa) = 47.51653 47.51588 73.29035
#
# Poissons Ratio (x) = 0.46749 0.36596
# Poissons Ratio (y) = 0.46750 0.36595
# Poissons Ratio (z) = 0.23726 0.23726
#
# Static dielectric constant tensor:
#      x y z
#    x 3.050420 0.000000 0.000000 
#    y 0.000000 3.050420 0.000000 
#    z 0.000000 0.000000 3.175840 
# 
# 
# High freq. dielectric constant tensor:
#      x y z
#    x 1.624930 0.000000 0.000000 
#    y 0.000000 1.624930 0.000000 
#    z 0.000000 0.000000 1.641610 
# 
# From -- ./inp_files/11907.got.cif
#   From: 2010.03.12/outbox.cif.g09.slc.cpg/sg141_6_cif.got.tgz:11907.got - 2010.04.03 13:18:35.
