data_PCOD8320271
_publ_section_title
;
Structure prediction by ZEFSAII (Michael W. Deem and Ramdas Pophale) SiO2 
 PCOD8320271
Probable space group: I 4/M C M
;
_chemical_formula_sum "Si O2"
_cell_formula_units_Z 144
_cell_length_a 20.704930
_cell_length_b 20.704930
_cell_length_c 18.126157
_cell_angle_alpha 90.000000
_cell_angle_beta 90.000000
_cell_angle_gamma 90.000000
_cell_volume 7770.577038
_symmetry_space_group_name_H-M "I 4/M C M"
_symmetry_group_IT_number 140
_symmetry_cell_setting 'tetragonal'
loop_
_space_group_symop_operation_xyz
x,y,z
-y,x,z
-x,-y,z
y,-x,z
x,-y,1/2-z
-x,y,1/2-z
y,x,1/2-z
-y,-x,1/2-z
-x,-y,-z
y,-x,-z
x,y,-z
-y,x,-z
-x,y,1/2+z
x,-y,1/2+z
-y,-x,1/2+z
y,x,1/2+z
1/2+x,1/2+y,1/2+z
1/2-y,1/2+x,1/2+z
1/2-x,1/2-y,1/2+z
1/2+y,1/2-x,1/2+z
1/2+x,1/2-y,-z
1/2-x,1/2+y,-z
1/2+y,1/2+x,-z
1/2-y,1/2-x,-z
1/2-x,1/2-y,1/2-z
1/2+y,1/2-x,1/2-z
1/2+x,1/2+y,1/2-z
1/2-y,1/2+x,1/2-z
1/2-x,1/2+y,z
1/2+x,1/2-y,z
1/2-y,1/2-x,z
1/2+y,1/2+x,z
loop_
_atom_site_type_symbol
_atom_site_label
_atom_site_fract_x
_atom_site_fract_y
_atom_site_fract_z
Si Si1 0.054986 0.554986 0.411453
Si Si2 0.633978 0.622546 0.915333
Si Si3 0.691415 0.490648 0.913298
Si Si4 0.163690 0.766425 0.690223
Si Si5 0.036762 0.687496 0.676017
O O1 0.062190 0.562190 0.500000
O O2 0.037679 0.624440 0.376171
O O3 0.000000 0.500000 0.393578
O O4 0.638562 0.546499 0.898533
O O5 0.571636 0.655836 0.879106
O O6 0.700159 0.653542 0.888016
O O7 0.628839 0.638267 0.000000
O O8 0.757340 0.499270 0.868701
O O9 0.708650 0.486974 0.000000
O O10 0.175559 0.824442 0.750000
O O11 0.230421 0.730421 0.682980
O O12 0.105789 0.715524 0.703899
O O13 0.000000 0.667307 0.750000
#
# Coordination Sequence:
#
# PCOD8320271 Si02
#       5
#    16  32  32  32  32
#     4  11  26  44  61  84 114 148 191 242 289 338
#     4   9  18  32  52  78 109 148 187 231 277 336
#     4   9  18  34  54  81 115 149 190 232 284 338
#     4  10  20  35  53  81 113 142 184 238 287 340
#     4  11  22  37  61  85 110 152 189 236 288 345
#
# _framework density 18.531442999999999
#
# number of rings (size 3 to 8) (size 9 to 14) (size 15 to 20)
#    0.000    2.111    1.111    2.000    1.556    1.778 
#    0.000    3.333    0.000    1.333    0.000    3.111 
#    0.000    0.000    0.000    0.000    0.000    0.000 
#
# Total GULP energy -892034.688687 kJ/mol
# GULP energy per Si atom -12389.370676 kJ/mol
# Density = 1.848926 g / cm^3
# Si number density = 18.531443 Si / 1000 Ang^3
#
#
#
# Elastic Constant Matrix: (Units=GPa)
#
#
# Indices 1 2 3 4 5 6 
#
# 1 114.5400 57.5330 53.0771 0.0000 0.0000 0.0000
# 2 57.5330 114.5406 53.0776 0.0000 0.0000 0.0000
# 3 53.0771 53.0776 62.6758 0.0000 0.0000 0.0000
# 4 0.0000 0.0000 0.0000 28.4487 0.0000 0.0000
# 5 0.0000 0.0000 0.0000 0.0000 28.4489 0.0000
# 6 0.0000 0.0000 0.0000 0.0000 0.0000 34.9333
#
#
#
# Elastic Compliance Matrix: (Units=1/GPa)
#
#
# Indices 1 2 3 4 5 6 
#
# 1 0.014855 -0.002686 -0.010305 0.000000 0.000000 0.000000
# 2 -0.002686 0.014855 -0.010306 0.000000 0.000000 0.000000
# 3 -0.010305 -0.010306 0.033410 0.000000 0.000000 0.000000
# 4 0.000000 0.000000 0.000000 0.035151 0.000000 0.000000
# 5 0.000000 0.000000 0.000000 0.000000 0.035151 0.000000
# 6 0.000000 0.000000 0.000000 0.000000 0.000000 0.028626
#
#
# Mechanical properties :
#
#
# Convention : Reuss Voigt Hill
#
# Bulk Modulus (GPa) = 60.51098 68.79242 64.65170
# Shear Modulus (GPa) = 23.34801 26.90409 25.12605
#
# Velocity S-wave (km/s) = 3.55338 3.81439 3.68620
# Velocity P-wave (km/s) = 7.03984 7.52343 7.28565
#
# Compressibility (1/GPa) = 0.01652593
#
# Stress axis : x y z
#
# Youngs Moduli (GPa) = 67.31602 67.31570 29.93154
#
# Poissons Ratio (x) = 0.18083 0.30845
# Poissons Ratio (y) = 0.18083 0.30846
# Poissons Ratio (z) = 0.69371 0.69373
#
# Static dielectric constant tensor:
#      x y z
#    x 3.525280 0.000000 0.000000 
#    y 0.000000 3.525280 0.000000 
#    z 0.000000 0.000000 3.496990 
# 
# 
# High freq. dielectric constant tensor:
#      x y z
#    x 1.724470 0.000000 0.000000 
#    y 0.000000 1.724470 0.000000 
#    z 0.000000 0.000000 1.716440 
# 
# From -- ./inp_files/6667.got.cif
#   From: 2010.06.25/outbox.cif.g09.slc.cpg/sg140_4_cif.got.tgz:6667.got - 2010.06.28 10:53:23.
