data_PCOD8320731
_publ_section_title
;
Structure prediction by ZEFSAII (Michael W. Deem and Ramdas Pophale) SiO2 
 PCOD8320731
Probable space group: I 41/A M D
;
_chemical_formula_sum "Si O2"
_cell_formula_units_Z 176
_cell_length_a 18.116097
_cell_length_b 18.116097
_cell_length_c 27.606214
_cell_angle_alpha 90.000000
_cell_angle_beta 90.000000
_cell_angle_gamma 90.000000
_cell_volume 9060.165377
_symmetry_space_group_name_H-M "I 41/A M D"
_symmetry_group_IT_number 141
_space_group.IT_coordinate_system_code '2'
_symmetry_cell_setting 'tetragonal'
loop_
_space_group_symop_operation_xyz
x,y,z
1/4-y,3/4+x,1/4+z
-x,1/2-y,z
1/4+y,1/4-x,3/4+z
x,-y,-z
-x,1/2+y,-z
1/4+y,3/4+x,1/4-z
1/4-y,1/4-x,3/4-z
-x,-y,-z
3/4+y,1/4-x,3/4-z
x,1/2+y,-z
3/4-y,3/4+x,1/4-z
-x,y,z
x,1/2-y,z
3/4-y,1/4-x,3/4+z
3/4+y,3/4+x,1/4+z
1/2+x,1/2+y,1/2+z
3/4-y,1/4+x,3/4+z
1/2-x,-y,1/2+z
3/4+y,3/4-x,1/4+z
1/2+x,1/2-y,1/2-z
1/2-x,y,1/2-z
3/4+y,1/4+x,3/4-z
3/4-y,3/4-x,1/4-z
1/2-x,1/2-y,1/2-z
1/4+y,3/4-x,1/4-z
1/2+x,y,1/2-z
1/4-y,1/4+x,3/4-z
1/2-x,1/2+y,1/2+z
1/2+x,-y,1/2+z
1/4-y,3/4-x,1/4+z
1/4+y,1/4+x,3/4+z
loop_
_atom_site_type_symbol
_atom_site_label
_atom_site_fract_x
_atom_site_fract_y
_atom_site_fract_z
Si Si1 0.802091 0.836380 0.538207
Si Si2 0.720018 0.832777 0.303390
Si Si3 0.081713 0.163174 0.541579
Si Si4 0.637972 0.553587 0.641310
Si Si5 0.698383 0.448383 0.125000
Si Si6 0.916551 0.066633 0.788058
O O1 0.813171 0.750000 0.549879
O O2 0.866067 0.865720 0.501928
O O3 0.807324 0.880965 0.587829
O O4 0.721705 0.850146 0.513888
O O5 0.710804 0.750000 0.323463
O O6 0.750000 0.833047 0.250000
O O7 0.780772 0.876317 0.335367
O O8 0.639398 0.869115 0.302652
O O9 0.076151 0.250000 0.538707
O O10 0.115105 0.141113 0.594227
O O11 0.000000 0.128006 0.536489
O O12 0.724636 0.553368 0.654144
O O13 0.590188 0.496272 0.671865
O O14 0.000000 0.098322 0.788712
#
# Coordination Sequence:
#
# PCOD8320731 Si02
#       6
#    32  32  32  32  16  32
#     4   9  21  38  56  83 117 151 193 240 291 349
#     4  11  22  36  56  83 115 146 183 233 287 345
#     4   9  19  38  62  84 113 155 198 243 294 347
#     4  11  21  36  56  85 112 146 194 238 280 346
#     4  12  22  34  58  85 117 158 190 238 300 354
#     4  10  20  37  59  79 110 151 190 236 284 338
#
# _framework density 19.425694
#
# number of rings (size 3 to 8) (size 9 to 14) (size 15 to 20)
#    0.000    1.818    1.818    3.818    0.000    4.000 
#    0.000    1.818    0.000    3.273    0.000    0.000 
#    0.000    0.000    0.000    0.000    0.000    0.000 
#
# Total GULP energy -1090951.793511 kJ/mol
# GULP energy per Si atom -12397.179472 kJ/mol
# Density = 1.938148 g / cm^3
# Si number density = 19.425694 Si / 1000 Ang^3
#
#
#
# Elastic Constant Matrix: (Units=GPa)
#
#
# Indices 1 2 3 4 5 6 
#
# 1 88.2110 32.6827 30.9790 0.0000 0.0000 0.0000
# 2 32.6827 88.2110 30.9790 0.0000 0.0000 0.0000
# 3 30.9790 30.9790 91.7971 0.0000 0.0000 0.0000
# 4 0.0000 0.0000 0.0000 22.3400 0.0000 0.0000
# 5 0.0000 0.0000 0.0000 0.0000 22.3400 0.0000
# 6 0.0000 0.0000 0.0000 0.0000 0.0000 27.8862
#
#
#
# Elastic Compliance Matrix: (Units=1/GPa)
#
#
# Indices 1 2 3 4 5 6 
#
# 1 0.014005 -0.004004 -0.003375 0.000000 0.000000 0.000000
# 2 -0.004004 0.014005 -0.003375 0.000000 0.000000 0.000000
# 3 -0.003375 -0.003375 0.013172 0.000000 0.000000 0.000000
# 4 0.000000 0.000000 0.000000 0.044763 0.000000 0.000000
# 5 0.000000 0.000000 0.000000 0.000000 0.044763 0.000000
# 6 0.000000 0.000000 0.000000 0.000000 0.000000 0.035860
#
#
# Mechanical properties :
#
#
# Convention : Reuss Voigt Hill
#
# Bulk Modulus (GPa) = 50.82903 50.83339 50.83121
# Shear Modulus (GPa) = 25.68929 26.08515 25.88722
#
# Velocity S-wave (km/s) = 3.64048 3.66842 3.65448
# Velocity P-wave (km/s) = 6.62521 6.64590 6.63557
#
# Compressibility (1/GPa) = 0.01967380
#
# Stress axis : x y z
#
# Youngs Moduli (GPa) = 71.40207 71.40207 75.92033
#
# Poissons Ratio (x) = 0.28587 0.25625
# Poissons Ratio (y) = 0.28587 0.25625
# Poissons Ratio (z) = 0.24100 0.24100
#
# Static dielectric constant tensor:
#      x y z
#    x 3.830490 0.000000 0.000000 
#    y 0.000000 3.830490 0.000000 
#    z 0.000000 0.000000 3.494430 
# 
# 
# High freq. dielectric constant tensor:
#      x y z
#    x 1.753200 0.000000 0.000000 
#    y 0.000000 1.753200 0.000000 
#    z 0.000000 0.000000 1.750480 
# 
# From -- ./inp_files/12854.got.cif
#   From: 2010.03.12/outbox.cif.g09.slc.cpg/sg141_7_cif.got.tgz:12854.got - 2010.04.03 13:18:35.
