data_PCOD8320060
_publ_section_title
;
Structure prediction by ZEFSAII (Michael W. Deem and Ramdas Pophale) SiO2 
 PCOD8320060
Probable space group: I 4/M C M
;
_chemical_formula_sum "Si O2"
_cell_formula_units_Z 160
_cell_length_a 26.238690
_cell_length_b 26.238690
_cell_length_c 16.240187
_cell_angle_alpha 90.000000
_cell_angle_beta 90.000000
_cell_angle_gamma 90.000000
_cell_volume 11180.862915
_symmetry_space_group_name_H-M "I 4/M C M"
_symmetry_group_IT_number 140
_symmetry_cell_setting 'tetragonal'
loop_
_space_group_symop_operation_xyz
x,y,z
-y,x,z
-x,-y,z
y,-x,z
x,-y,1/2-z
-x,y,1/2-z
y,x,1/2-z
-y,-x,1/2-z
-x,-y,-z
y,-x,-z
x,y,-z
-y,x,-z
-x,y,1/2+z
x,-y,1/2+z
-y,-x,1/2+z
y,x,1/2+z
1/2+x,1/2+y,1/2+z
1/2-y,1/2+x,1/2+z
1/2-x,1/2-y,1/2+z
1/2+y,1/2-x,1/2+z
1/2+x,1/2-y,-z
1/2-x,1/2+y,-z
1/2+y,1/2+x,-z
1/2-y,1/2-x,-z
1/2-x,1/2-y,1/2-z
1/2+y,1/2-x,1/2-z
1/2+x,1/2+y,1/2-z
1/2-y,1/2+x,1/2-z
1/2-x,1/2+y,z
1/2+x,1/2-y,z
1/2-y,1/2-x,z
1/2+y,1/2+x,z
loop_
_atom_site_type_symbol
_atom_site_label
_atom_site_fract_x
_atom_site_fract_y
_atom_site_fract_z
Si Si1 0.686363 0.727656 0.332091
Si Si2 0.723284 0.690756 0.500000
Si Si3 0.191091 0.391920 0.813913
Si Si4 0.695325 0.109748 0.500000
Si Si5 0.959927 0.378098 0.594320
Si Si6 0.065318 0.349082 0.655918
O O1 0.693335 0.693335 0.250000
O O2 0.729631 0.770370 0.334656
O O3 0.689622 0.695043 0.416578
O O4 0.629529 0.752123 0.328851
O O5 0.765700 0.734301 0.500000
O O6 0.748902 0.634986 0.500000
O O7 0.156941 0.343060 0.793584
O O8 0.170712 0.422730 0.893378
O O9 0.186647 0.429847 0.736073
O O10 0.653764 0.153764 0.500000
O O11 0.688541 0.074365 0.579440
O O12 0.976945 0.380929 0.500000
O O13 0.929086 0.429086 0.620645
O O14 0.009320 0.373772 0.651533
O O15 0.104578 0.395423 0.657618
#
# Coordination Sequence:
#
# PCOD8320060 Si02
#       6
#    32  16  32  16  32  32
#     4   9  16  26  40  60  80  99 122 151 191 246
#     4   9  16  24  39  59  80 101 122 150 194 246
#     4   9  18  29  42  56  76  99 123 158 204 252
#     4   9  16  26  40  58  77  98 125 161 201 245
#     4  10  20  31  42  57  76 100 134 174 216 256
#     4  10  18  30  44  57  74 101 135 173 215 252
#
# _framework density 14.310165
#
# number of rings (size 3 to 8) (size 9 to 14) (size 15 to 20)
#    0.000    2.600    1.000    1.800    1.400    5.200 
#    0.000    1.000    0.000    3.600    0.000    0.000 
#    0.000    0.000    0.000    0.000    0.000    0.000 
#
# Total GULP energy -991550.065569 kJ/mol
# GULP energy per Si atom -12394.375820 kJ/mol
# Density = 1.427759 g / cm^3
# Si number density = 14.310165 Si / 1000 Ang^3
#
#
#
# Elastic Constant Matrix: (Units=GPa)
#
#
# Indices 1 2 3 4 5 6 
#
# 1 43.3428 42.1523 24.1633 0.0000 0.0000 0.0000
# 2 42.1523 43.3430 24.1632 0.0000 0.0000 0.0000
# 3 24.1633 24.1632 84.0566 0.0000 0.0000 0.0000
# 4 0.0000 0.0000 0.0000 17.9521 0.0000 0.0000
# 5 0.0000 0.0000 0.0000 0.0000 17.9522 0.0000
# 6 0.0000 0.0000 0.0000 0.0000 0.0000 21.2458
#
#
#
# Elastic Compliance Matrix: (Units=1/GPa)
#
#
# Indices 1 2 3 4 5 6 
#
# 1 0.426956 -0.412988 -0.004016 0.000000 0.000000 0.000000
# 2 -0.412988 0.426953 -0.004014 0.000000 0.000000 0.000000
# 3 -0.004016 -0.004014 0.014205 0.000000 0.000000 0.000000
# 4 0.000000 0.000000 0.000000 0.055704 0.000000 0.000000
# 5 0.000000 0.000000 0.000000 0.000000 0.055704 0.000000
# 6 0.000000 0.000000 0.000000 0.000000 0.000000 0.047068
#
#
# Mechanical properties :
#
#
# Convention : Reuss Voigt Hill
#
# Bulk Modulus (GPa) = 38.34664 39.07779 38.71222
# Shear Modulus (GPa) = 2.66337 16.78092 9.72215
#
# Velocity S-wave (km/s) = 1.36573 3.42812 2.60933
# Velocity P-wave (km/s) = 5.41682 6.56021 6.01574
#
# Compressibility (1/GPa) = 0.02607790
#
# Stress axis : x y z
#
# Youngs Moduli (GPa) = 2.34216 2.34218 70.39821
#
# Poissons Ratio (x) = 0.96729 0.28269
# Poissons Ratio (y) = 0.96729 0.28256
# Poissons Ratio (z) = 0.00941 0.00940
#
# Static dielectric constant tensor:
#      x y z
#    x 2.603760 0.000000 0.000000 
#    y 0.000000 2.603760 0.000000 
#    z 0.000000 0.000000 3.026380 
# 
# 
# High freq. dielectric constant tensor:
#      x y z
#    x 1.505360 0.000000 0.000000 
#    y 0.000000 1.505360 0.000000 
#    z 0.000000 0.000000 1.567830 
# 
# From -- ./inp_files/7207.got.cif
#   From: 2010.06.25/outbox.cif.g09.slc.cpg/sg140_4_cif.got.tgz:7207.got - 2010.06.28 10:53:23.
