data_PCOD8320768
_publ_section_title
;
Structure prediction by ZEFSAII (Michael W. Deem and Ramdas Pophale) SiO2 
 PCOD8320768
Probable space group: I 41/A M D
;
_chemical_formula_sum "Si O2"
_cell_formula_units_Z 64
_cell_length_a 9.330075
_cell_length_b 9.330075
_cell_length_c 40.046565
_cell_angle_alpha 90.000000
_cell_angle_beta 90.000000
_cell_angle_gamma 90.000000
_cell_volume 3486.065477
_symmetry_space_group_name_H-M "I 41/A M D"
_symmetry_group_IT_number 141
_space_group.IT_coordinate_system_code '2'
_symmetry_cell_setting 'tetragonal'
loop_
_space_group_symop_operation_xyz
x,y,z
1/4-y,3/4+x,1/4+z
-x,1/2-y,z
1/4+y,1/4-x,3/4+z
x,-y,-z
-x,1/2+y,-z
1/4+y,3/4+x,1/4-z
1/4-y,1/4-x,3/4-z
-x,-y,-z
3/4+y,1/4-x,3/4-z
x,1/2+y,-z
3/4-y,3/4+x,1/4-z
-x,y,z
x,1/2-y,z
3/4-y,1/4-x,3/4+z
3/4+y,3/4+x,1/4+z
1/2+x,1/2+y,1/2+z
3/4-y,1/4+x,3/4+z
1/2-x,-y,1/2+z
3/4+y,3/4-x,1/4+z
1/2+x,1/2-y,1/2-z
1/2-x,y,1/2-z
3/4+y,1/4+x,3/4-z
3/4-y,3/4-x,1/4-z
1/2-x,1/2-y,1/2-z
1/4+y,3/4-x,1/4-z
1/2+x,y,1/2-z
1/4-y,1/4+x,3/4-z
1/2-x,1/2+y,1/2+z
1/2+x,-y,1/2+z
1/4-y,3/4-x,1/4+z
1/4+y,1/4+x,3/4+z
loop_
_atom_site_type_symbol
_atom_site_label
_atom_site_fract_x
_atom_site_fract_y
_atom_site_fract_z
Si Si1 0.834703 0.581807 0.217546
Si Si2 0.166362 0.087485 0.413555
O O1 0.813117 0.750000 0.212737
O O2 0.750000 0.526108 0.250000
O O3 0.774018 0.506637 0.184827
O O4 0.000000 0.539924 0.222082
O O5 0.196762 0.053238 0.375000
O O6 0.214099 0.250000 0.421898
O O7 0.000000 0.067307 0.421913
#
# Coordination Sequence:
#
# PCOD8320768 Si02
#       2
#    32  32
#     4  10  21  36  54  77 105 138 176 216 259 308
#     4   9  19  36  56  78 105 137 173 213 258 309
#
# _framework density 18.358805
#
# number of rings (size 3 to 8) (size 9 to 14) (size 15 to 20)
#    0.000    2.500    0.000    3.000    0.000    7.000 
#    0.000    7.500    0.000    0.000    0.000    0.000 
#    0.000    0.000    0.000    0.000    0.000    0.000 
#
# Total GULP energy -396903.406455 kJ/mol
# GULP energy per Si atom -12403.231452 kJ/mol
# Density = 1.831702 g / cm^3
# Si number density = 18.358805 Si / 1000 Ang^3
#
#
#
# Elastic Constant Matrix: (Units=GPa)
#
#
# Indices 1 2 3 4 5 6 
#
# 1 94.5772 61.7092 69.1455 0.0000 0.0000 0.0000
# 2 61.7092 94.5771 69.1455 0.0000 0.0000 0.0000
# 3 69.1455 69.1455 112.4437 0.0000 0.0000 0.0000
# 4 0.0000 0.0000 0.0000 38.8420 0.0000 0.0000
# 5 0.0000 0.0000 0.0000 0.0000 38.8421 0.0000
# 6 0.0000 0.0000 0.0000 0.0000 0.0000 35.1477
#
#
#
# Elastic Compliance Matrix: (Units=1/GPa)
#
#
# Indices 1 2 3 4 5 6 
#
# 1 0.022230 -0.008195 -0.008631 0.000000 0.000000 0.000000
# 2 -0.008195 0.022230 -0.008631 0.000000 0.000000 0.000000
# 3 -0.008631 -0.008631 0.019508 0.000000 0.000000 0.000000
# 4 0.000000 0.000000 0.000000 0.025745 0.000000 0.000000
# 5 0.000000 0.000000 0.000000 0.000000 0.025745 0.000000
# 6 0.000000 0.000000 0.000000 0.000000 0.000000 0.028451
#
#
# Mechanical properties :
#
#
# Convention : Reuss Voigt Hill
#
# Bulk Modulus (GPa) = 76.59509 77.95537 77.27523
# Shear Modulus (GPa) = 25.10340 29.33954 27.22147
#
# Velocity S-wave (km/s) = 3.70182 4.00198 3.85482
# Velocity P-wave (km/s) = 7.75132 7.99430 7.87375
#
# Compressibility (1/GPa) = 0.01305567
#
# Stress axis : x y z
#
# Youngs Moduli (GPa) = 44.98369 44.98368 51.25991
#
# Poissons Ratio (x) = 0.36862 0.44243
# Poissons Ratio (y) = 0.36862 0.44243
# Poissons Ratio (z) = 0.38826 0.38826
#
# Static dielectric constant tensor:
#      x y z
#    x 3.317750 0.000000 0.000000 
#    y 0.000000 3.317750 0.000000 
#    z 0.000000 0.000000 3.347510 
# 
# 
# High freq. dielectric constant tensor:
#      x y z
#    x 1.710760 0.000000 0.000000 
#    y 0.000000 1.710760 0.000000 
#    z 0.000000 0.000000 1.719320 
# 
# From -- ./inp_files/12130.got.cif
#   From: 2010.03.12/outbox.cif.g09.slc.cpg/sg141_7_cif.got.tgz:12130.got - 2010.04.03 13:18:35.
