data_PCOD8320269
_publ_section_title
;
Structure prediction by ZEFSAII (Michael W. Deem and Ramdas Pophale) SiO2 
 PCOD8320269
Probable space group: I 4/M C M
;
_chemical_formula_sum "Si O2"
_cell_formula_units_Z 176
_cell_length_a 20.324032
_cell_length_b 20.324032
_cell_length_c 25.035184
_cell_angle_alpha 90.000000
_cell_angle_beta 90.000000
_cell_angle_gamma 90.000000
_cell_volume 10341.190242
_symmetry_space_group_name_H-M "I 4/M C M"
_symmetry_group_IT_number 140
_symmetry_cell_setting 'tetragonal'
loop_
_space_group_symop_operation_xyz
x,y,z
-y,x,z
-x,-y,z
y,-x,z
x,-y,1/2-z
-x,y,1/2-z
y,x,1/2-z
-y,-x,1/2-z
-x,-y,-z
y,-x,-z
x,y,-z
-y,x,-z
-x,y,1/2+z
x,-y,1/2+z
-y,-x,1/2+z
y,x,1/2+z
1/2+x,1/2+y,1/2+z
1/2-y,1/2+x,1/2+z
1/2-x,1/2-y,1/2+z
1/2+y,1/2-x,1/2+z
1/2+x,1/2-y,-z
1/2-x,1/2+y,-z
1/2+y,1/2+x,-z
1/2-y,1/2-x,-z
1/2-x,1/2-y,1/2-z
1/2+y,1/2-x,1/2-z
1/2+x,1/2+y,1/2-z
1/2-y,1/2+x,1/2-z
1/2-x,1/2+y,z
1/2+x,1/2-y,z
1/2-y,1/2-x,z
1/2+y,1/2+x,z
loop_
_atom_site_type_symbol
_atom_site_label
_atom_site_fract_x
_atom_site_fract_y
_atom_site_fract_z
Si Si1 0.574506 0.817271 0.500000
Si Si2 0.577542 0.317208 0.192641
Si Si3 0.898737 0.954877 0.000000
Si Si4 0.297794 0.610380 0.077154
Si Si5 0.178396 0.926558 0.690075
Si Si6 0.248024 0.143734 0.594456
Si Si7 0.078333 0.685149 0.000000
O O1 0.614856 0.885144 0.500000
O O2 0.590880 0.774848 0.447590
O O3 0.497990 0.833927 0.500000
O O4 0.609261 0.388974 0.188425
O O5 0.502731 0.333462 0.180972
O O6 0.587407 0.286570 0.252528
O O7 0.606846 0.266681 0.149933
O O8 0.854806 0.937029 0.947651
O O9 0.966963 0.913667 0.000000
O O10 0.280875 0.599129 0.139444
O O11 0.321629 0.684844 0.068185
O O12 0.227613 0.598124 0.051158
O O13 0.301601 0.198400 0.607703
O O14 0.116803 0.616803 0.000000
#
# Coordination Sequence:
#
# PCOD8320269 Si02
#       7
#    16  32  16  32  32  32  16
#     4  10  21  35  56  77  97 130 170 203 255 319
#     4   9  18  32  48  70 101 130 171 205 247 290
#     4  10  23  34  45  75 108 141 179 211 249 298
#     4  10  21  32  54  71 104 133 173 206 256 300
#     4   9  18  31  48  72  97 135 168 206 243 294
#     4  10  20  35  53  75 100 131 169 211 257 310
#     4  11  22  35  52  75 102 129 162 210 264 309
#
# _framework density 17.019317999999998
#
# number of rings (size 3 to 8) (size 9 to 14) (size 15 to 20)
#    0.000    2.273    0.000    2.727   10.182    1.273 
#    0.000   10.000    0.000    0.000    0.000    0.000 
#    0.000    0.000    0.000    9.636    0.000    0.182 
#
# Total GULP energy -1090685.749388 kJ/mol
# GULP energy per Si atom -12394.156243 kJ/mol
# Density = 1.698058 g / cm^3
# Si number density = 17.019318 Si / 1000 Ang^3
#
#
#
# Elastic Constant Matrix: (Units=GPa)
#
#
# Indices 1 2 3 4 5 6 
#
# 1 101.9361 52.5544 58.3903 0.0000 0.0000 0.0000
# 2 52.5544 101.9361 58.3903 0.0000 0.0000 0.0000
# 3 58.3903 58.3903 129.5516 0.0000 0.0000 0.0000
# 4 0.0000 0.0000 0.0000 17.4718 0.0000 0.0000
# 5 0.0000 0.0000 0.0000 0.0000 17.4718 0.0000
# 6 0.0000 0.0000 0.0000 0.0000 0.0000 12.4003
#
#
#
# Elastic Compliance Matrix: (Units=1/GPa)
#
#
# Indices 1 2 3 4 5 6 
#
# 1 0.015034 -0.005216 -0.004425 0.000000 0.000000 0.000000
# 2 -0.005216 0.015034 -0.004425 0.000000 0.000000 0.000000
# 3 -0.004425 -0.004425 0.011708 0.000000 0.000000 0.000000
# 4 0.000000 0.000000 0.000000 0.057235 0.000000 0.000000
# 5 0.000000 0.000000 0.000000 0.000000 0.057235 0.000000
# 6 0.000000 0.000000 0.000000 0.000000 0.000000 0.080643
#
#
# Mechanical properties :
#
#
# Convention : Reuss Voigt Hill
#
# Bulk Modulus (GPa) = 73.29587 74.67710 73.98648
# Shear Modulus (GPa) = 18.54807 20.40802 19.47804
#
# Velocity S-wave (km/s) = 3.30483 3.46657 3.38667
# Velocity P-wave (km/s) = 7.59752 7.74570 7.67197
#
# Compressibility (1/GPa) = 0.01364333
#
# Stress axis : x y z
#
# Youngs Moduli (GPa) = 66.51551 66.51551 85.41389
#
# Poissons Ratio (x) = 0.34697 0.37795
# Poissons Ratio (y) = 0.34697 0.37795
# Poissons Ratio (z) = 0.29433 0.29433
#
# Static dielectric constant tensor:
#      x y z
#    x 3.030250 0.000000 0.000000 
#    y 0.000000 3.030250 0.000000 
#    z 0.000000 0.000000 3.607500 
# 
# 
# High freq. dielectric constant tensor:
#      x y z
#    x 1.640920 0.000000 0.000000 
#    y 0.000000 1.640920 0.000000 
#    z 0.000000 0.000000 1.675650 
# 
# From -- ./inp_files/10746.got.cif
#   From: 2010.06.25/outbox.cif.g09.slc.cpg/sg140_6_cif.got.tgz:10746.got - 2010.06.28 10:53:23.
