data_PCOD8320548
_publ_section_title
;
Structure prediction by ZEFSAII (Michael W. Deem and Ramdas Pophale) SiO2 
 PCOD8320548
Probable space group: I 41/A M D
;
_chemical_formula_sum "Si O2"
_cell_formula_units_Z 208
_cell_length_a 19.969819
_cell_length_b 19.969819
_cell_length_c 33.645365
_cell_angle_alpha 90.000000
_cell_angle_beta 90.000000
_cell_angle_gamma 90.000000
_cell_volume 13417.558617
_symmetry_space_group_name_H-M "I 41/A M D"
_symmetry_group_IT_number 141
_space_group.IT_coordinate_system_code '2'
_symmetry_cell_setting 'tetragonal'
loop_
_space_group_symop_operation_xyz
x,y,z
1/4-y,3/4+x,1/4+z
-x,1/2-y,z
1/4+y,1/4-x,3/4+z
x,-y,-z
-x,1/2+y,-z
1/4+y,3/4+x,1/4-z
1/4-y,1/4-x,3/4-z
-x,-y,-z
3/4+y,1/4-x,3/4-z
x,1/2+y,-z
3/4-y,3/4+x,1/4-z
-x,y,z
x,1/2-y,z
3/4-y,1/4-x,3/4+z
3/4+y,3/4+x,1/4+z
1/2+x,1/2+y,1/2+z
3/4-y,1/4+x,3/4+z
1/2-x,-y,1/2+z
3/4+y,3/4-x,1/4+z
1/2+x,1/2-y,1/2-z
1/2-x,y,1/2-z
3/4+y,1/4+x,3/4-z
3/4-y,3/4-x,1/4-z
1/2-x,1/2-y,1/2-z
1/4+y,3/4-x,1/4-z
1/2+x,y,1/2-z
1/4-y,1/4+x,3/4-z
1/2-x,1/2+y,1/2+z
1/2+x,-y,1/2+z
1/4-y,3/4-x,1/4+z
1/4+y,1/4+x,3/4+z
loop_
_atom_site_type_symbol
_atom_site_label
_atom_site_fract_x
_atom_site_fract_y
_atom_site_fract_z
Si Si1 0.793739 0.824860 0.580810
Si Si2 0.845799 0.440536 0.259207
Si Si3 0.827735 0.060723 0.640717
Si Si4 0.575853 0.173739 0.874260
Si Si5 0.076098 0.173546 0.217854
Si Si6 0.269416 0.016952 0.310252
Si Si7 0.425551 0.324450 0.125000
O O1 0.769476 0.750000 0.588914
O O2 0.779862 0.842384 0.534532
O O3 0.752185 0.872313 0.609876
O O4 0.872672 0.835021 0.589552
O O5 0.868003 0.370588 0.239809
O O6 0.784362 0.430702 0.290811
O O7 0.824122 0.494530 0.224939
O O8 0.869476 0.128363 0.648777
O O9 0.795828 0.060515 0.597198
O O10 0.770824 0.049840 0.675072
O O11 0.500000 0.154528 0.861443
O O12 0.590993 0.250000 0.862261
O O13 0.584182 0.163089 0.921012
O O14 0.087475 0.250000 0.230929
O O15 0.000000 0.151328 0.228905
O O16 0.416930 0.250000 0.143595
#
# Coordination Sequence:
#
# PCOD8320548 Si02
#       7
#    32  32  32  32  32  32  16
#     4  10  19  28  44  63  82 115 153 194 236 267
#     4  10  17  30  40  59  85 111 151 188 223 267
#     4  10  17  32  46  62  85 111 147 187 224 271
#     4   9  17  29  46  66  86 111 141 177 225 274
#     4   9  17  28  41  57  82 115 147 183 227 268
#     4   9  19  28  44  60  81 115 147 181 220 256
#     4   9  18  32  44  58  86 126 174 218 244 265
#
# _framework density 15.502074
#
# number of rings (size 3 to 8) (size 9 to 14) (size 15 to 20)
#    0.000    2.538    1.538    3.692    0.000    0.615 
#    0.000    4.615    0.000    0.000    0.000    8.615 
#    0.000    0.000    0.000    0.000    0.000   14.923 
#
# Total GULP energy -1288391.912497 kJ/mol
# GULP energy per Si atom -12388.383774 kJ/mol
# Density = 1.546679 g / cm^3
# Si number density = 15.502074 Si / 1000 Ang^3
#
#
#
# Elastic Constant Matrix: (Units=GPa)
#
#
# Indices 1 2 3 4 5 6 
#
# 1 59.3753 31.4279 24.3886 0.0000 0.0000 0.0000
# 2 31.4279 59.3751 24.3889 0.0000 0.0000 0.0000
# 3 24.3886 24.3889 63.9287 0.0000 0.0000 0.0000
# 4 0.0000 0.0000 0.0000 19.7525 0.0000 0.0000
# 5 0.0000 0.0000 0.0000 0.0000 19.7522 0.0000
# 6 0.0000 0.0000 0.0000 0.0000 0.0000 25.2934
#
#
#
# Elastic Compliance Matrix: (Units=1/GPa)
#
#
# Indices 1 2 3 4 5 6 
#
# 1 0.024816 -0.010965 -0.005284 0.000000 0.000000 0.000000
# 2 -0.010965 0.024817 -0.005284 0.000000 0.000000 0.000000
# 3 -0.005284 -0.005284 0.019674 0.000000 0.000000 0.000000
# 4 0.000000 0.000000 0.000000 0.050626 0.000000 0.000000
# 5 0.000000 0.000000 0.000000 0.000000 0.050627 0.000000
# 6 0.000000 0.000000 0.000000 0.000000 0.000000 0.039536
#
#
# Mechanical properties :
#
#
# Convention : Reuss Voigt Hill
#
# Bulk Modulus (GPa) = 38.10975 38.12109 38.11542
# Shear Modulus (GPa) = 19.09043 19.79120 19.44081
#
# Velocity S-wave (km/s) = 3.51305 3.57694 3.54514
# Velocity P-wave (km/s) = 6.41033 6.45784 6.43413
#
# Compressibility (1/GPa) = 0.02624000
#
# Stress axis : x y z
#
# Youngs Moduli (GPa) = 40.29589 40.29551 50.82760
#
# Poissons Ratio (x) = 0.44184 0.26858
# Poissons Ratio (y) = 0.44185 0.26860
# Poissons Ratio (z) = 0.21293 0.21294
#
# Static dielectric constant tensor:
#      x y z
#    x 2.928640 0.000000 0.000000 
#    y 0.000000 2.928650 0.000000 
#    z 0.000000 0.000000 2.954690 
# 
# 
# High freq. dielectric constant tensor:
#      x y z
#    x 1.572500 0.000000 0.000000 
#    y 0.000000 1.572500 0.000000 
#    z 0.000000 0.000000 1.584190 
# 
# From -- ./inp_files/14570.got.cif
#   From: 2010.03.12/outbox.cif.g09.slc.cpg/sg141_8_cif.got.tgz:14570.got - 2010.04.03 13:18:35.
