data_PCOD8320369
_publ_section_title
;
Structure prediction by ZEFSAII (Michael W. Deem and Ramdas Pophale) SiO2 
 PCOD8320369
Probable space group: I 4/M C M
;
_chemical_formula_sum "Si O2"
_cell_formula_units_Z 160
_cell_length_a 21.700388
_cell_length_b 21.700388
_cell_length_c 17.284423
_cell_angle_alpha 90.000000
_cell_angle_beta 90.000000
_cell_angle_gamma 90.000000
_cell_volume 8139.353005
_symmetry_space_group_name_H-M "I 4/M C M"
_symmetry_group_IT_number 140
_symmetry_cell_setting 'tetragonal'
loop_
_space_group_symop_operation_xyz
x,y,z
-y,x,z
-x,-y,z
y,-x,z
x,-y,1/2-z
-x,y,1/2-z
y,x,1/2-z
-y,-x,1/2-z
-x,-y,-z
y,-x,-z
x,y,-z
-y,x,-z
-x,y,1/2+z
x,-y,1/2+z
-y,-x,1/2+z
y,x,1/2+z
1/2+x,1/2+y,1/2+z
1/2-y,1/2+x,1/2+z
1/2-x,1/2-y,1/2+z
1/2+y,1/2-x,1/2+z
1/2+x,1/2-y,-z
1/2-x,1/2+y,-z
1/2+y,1/2+x,-z
1/2-y,1/2-x,-z
1/2-x,1/2-y,1/2-z
1/2+y,1/2-x,1/2-z
1/2+x,1/2+y,1/2-z
1/2-y,1/2+x,1/2-z
1/2-x,1/2+y,z
1/2+x,1/2-y,z
1/2-y,1/2-x,z
1/2+y,1/2+x,z
loop_
_atom_site_type_symbol
_atom_site_label
_atom_site_fract_x
_atom_site_fract_y
_atom_site_fract_z
Si Si1 0.781788 0.379808 0.643810
Si Si2 0.711975 0.687815 0.585142
Si Si3 0.794618 0.395495 0.822995
Si Si4 0.598771 0.502527 0.591788
Si Si5 0.496668 0.740204 0.587332
O O1 0.843329 0.343329 0.617072
O O2 0.722787 0.336383 0.638126
O O3 0.787388 0.401286 0.731842
O O4 0.768113 0.434962 0.585739
O O5 0.685442 0.667961 0.500000
O O6 0.771080 0.728921 0.569723
O O7 0.732646 0.630419 0.636507
O O8 0.856035 0.356035 0.843693
O O9 0.792643 0.463010 0.860365
O O10 0.559843 0.562835 0.620187
O O11 0.600707 0.500808 0.500000
O O12 0.669873 0.504266 0.622242
O O13 0.470459 0.740380 0.500000
#
# Coordination Sequence:
#
# PCOD8320369 Si02
#       5
#    32  32  32  32  32
#     4  10  21  37  55  77 110 149 186 227 281 342
#     4   9  17  31  53  79 106 137 178 229 279 328
#     4  10  21  37  55  77 110 149 186 227 281 342
#     4   8  16  32  51  74 109 149 186 224 267 320
#     4  11  22  33  56  87 111 144 188 236 284 331
#
# _framework density 19.657582999999999
#
# number of rings (size 3 to 8) (size 9 to 14) (size 15 to 20)
#    0.000    2.400    0.000    3.000    2.800    4.800 
#    0.000    0.000    0.000    0.600    0.000    9.800 
#    0.000    0.000    0.000    0.000    0.000    0.000 
#
# Total GULP energy -991089.350240 kJ/mol
# GULP energy per Si atom -12388.616878 kJ/mol
# Density = 1.961284 g / cm^3
# Si number density = 19.657583 Si / 1000 Ang^3
#
#
#
# Elastic Constant Matrix: (Units=GPa)
#
#
# Indices 1 2 3 4 5 6 
#
# 1 66.9869 36.1409 12.9609 0.0000 0.0000 0.0000
# 2 36.1409 66.9869 12.9609 0.0000 0.0000 0.0000
# 3 12.9609 12.9609 43.4078 0.0000 0.0000 0.0000
# 4 0.0000 0.0000 0.0000 25.1275 0.0000 0.0000
# 5 0.0000 0.0000 0.0000 0.0000 25.1275 0.0000
# 6 0.0000 0.0000 0.0000 0.0000 0.0000 23.9891
#
#
#
# Elastic Compliance Matrix: (Units=1/GPa)
#
#
# Indices 1 2 3 4 5 6 
#
# 1 0.021451 -0.010968 -0.003130 0.000000 0.000000 0.000000
# 2 -0.010968 0.021451 -0.003130 0.000000 0.000000 0.000000
# 3 -0.003130 -0.003130 0.024907 0.000000 0.000000 0.000000
# 4 0.000000 0.000000 0.000000 0.039797 0.000000 0.000000
# 5 0.000000 0.000000 0.000000 0.000000 0.039797 0.000000
# 6 0.000000 0.000000 0.000000 0.000000 0.000000 0.041686
#
#
# Mechanical properties :
#
#
# Convention : Reuss Voigt Hill
#
# Bulk Modulus (GPa) = 29.98251 33.50077 31.74164
# Shear Modulus (GPa) = 21.30716 22.53675 21.92195
#
# Velocity S-wave (km/s) = 3.29586 3.38962 3.34307
# Velocity P-wave (km/s) = 5.45610 5.69197 5.57529
#
# Compressibility (1/GPa) = 0.03335278
#
# Stress axis : x y z
#
# Youngs Moduli (GPa) = 46.61722 46.61722 40.14998
#
# Poissons Ratio (x) = 0.51129 0.12568
# Poissons Ratio (y) = 0.51129 0.12568
# Poissons Ratio (z) = 0.14592 0.14592
#
# Static dielectric constant tensor:
#      x y z
#    x 3.624500 0.000000 0.000000 
#    y 0.000000 3.624500 0.000000 
#    z 0.000000 0.000000 3.505350 
# 
# 
# High freq. dielectric constant tensor:
#      x y z
#    x 1.754130 0.000000 0.000000 
#    y 0.000000 1.754130 0.000000 
#    z 0.000000 0.000000 1.750790 
# 
# From -- ./inp_files/4762.got.cif
#   From: 2010.06.25/outbox.cif.g09.slc.cpg/sg140_3_cif.got.tgz:4762.got - 2010.06.28 10:53:23.
