data_PCOD8320425
_publ_section_title
;
Structure prediction by ZEFSAII (Michael W. Deem and Ramdas Pophale) SiO2 
 PCOD8320425
Probable space group: I 4/M C M
;
_chemical_formula_sum "Si O2"
_cell_formula_units_Z 160
_cell_length_a 20.088582
_cell_length_b 20.088582
_cell_length_c 20.499073
_cell_angle_alpha 90.000000
_cell_angle_beta 90.000000
_cell_angle_gamma 90.000000
_cell_volume 8272.424007
_symmetry_space_group_name_H-M "I 4/M C M"
_symmetry_group_IT_number 140
_symmetry_cell_setting 'tetragonal'
loop_
_space_group_symop_operation_xyz
x,y,z
-y,x,z
-x,-y,z
y,-x,z
x,-y,1/2-z
-x,y,1/2-z
y,x,1/2-z
-y,-x,1/2-z
-x,-y,-z
y,-x,-z
x,y,-z
-y,x,-z
-x,y,1/2+z
x,-y,1/2+z
-y,-x,1/2+z
y,x,1/2+z
1/2+x,1/2+y,1/2+z
1/2-y,1/2+x,1/2+z
1/2-x,1/2-y,1/2+z
1/2+y,1/2-x,1/2+z
1/2+x,1/2-y,-z
1/2-x,1/2+y,-z
1/2+y,1/2+x,-z
1/2-y,1/2-x,-z
1/2-x,1/2-y,1/2-z
1/2+y,1/2-x,1/2-z
1/2+x,1/2+y,1/2-z
1/2-y,1/2+x,1/2-z
1/2-x,1/2+y,z
1/2+x,1/2-y,z
1/2-y,1/2-x,z
1/2+y,1/2+x,z
loop_
_atom_site_type_symbol
_atom_site_label
_atom_site_fract_x
_atom_site_fract_y
_atom_site_fract_z
Si Si1 0.407367 0.198837 0.122626
Si Si2 0.366818 0.755649 0.000000
Si Si3 0.752568 0.044613 0.875068
Si Si4 0.238075 0.848509 0.500000
Si Si5 0.251036 0.644906 0.741584
Si Si6 0.508175 0.391982 0.924235
O O1 0.373995 0.126006 0.108802
O O2 0.487283 0.195647 0.128004
O O3 0.378285 0.227998 0.188222
O O4 0.392172 0.250356 0.064216
O O5 0.409421 0.765881 0.935485
O O6 0.336927 0.680501 0.000000
O O7 0.309605 0.809605 0.000000
O O8 0.750802 0.083849 0.807638
O O9 0.825731 0.012317 0.881063
O O10 0.286532 0.786532 0.500000
O O11 0.324772 0.675229 0.750000
O O12 0.201572 0.701572 0.713597
O O13 0.570347 0.439705 0.907668
O O14 0.509603 0.371274 0.000000
#
# Coordination Sequence:
#
# PCOD8320425 Si02
#       6
#    32  16  32  16  32  32
#     4  10  22  39  58  85 116 148 197 243 293 351
#     4  11  23  36  55  90 120 144 192 246 288 343
#     4  12  22  34  62  87 114 160 195 238 293 347
#     4   9  19  36  60  84 113 149 188 245 297 340
#     4  10  22  40  59  83 117 153 192 248 303 349
#     4   9  20  36  53  82 124 164 199 233 273 339
#
# _framework density 19.341369
#
# number of rings (size 3 to 8) (size 9 to 14) (size 15 to 20)
#    0.000    1.800    1.000    3.600    5.600    3.200 
#    0.000    0.000    0.000    3.000    0.000    5.600 
#    0.000    0.000    0.000    0.000    0.000    0.000 
#
# Total GULP energy -992101.018940 kJ/mol
# GULP energy per Si atom -12401.262737 kJ/mol
# Density = 1.929735 g / cm^3
# Si number density = 19.341369 Si / 1000 Ang^3
#
#
#
# Elastic Constant Matrix: (Units=GPa)
#
#
# Indices 1 2 3 4 5 6 
#
# 1 105.5358 48.2071 41.5803 0.0000 0.0000 0.0000
# 2 48.2071 105.5369 41.5806 0.0000 0.0000 0.0000
# 3 41.5803 41.5806 108.6339 0.0000 0.0000 0.0000
# 4 0.0000 0.0000 0.0000 32.5050 0.0000 0.0000
# 5 0.0000 0.0000 0.0000 0.0000 32.5049 0.0000
# 6 0.0000 0.0000 0.0000 0.0000 0.0000 21.2890
#
#
#
# Elastic Compliance Matrix: (Units=1/GPa)
#
#
# Indices 1 2 3 4 5 6 
#
# 1 0.012823 -0.004620 -0.003140 0.000000 0.000000 0.000000
# 2 -0.004620 0.012823 -0.003140 0.000000 0.000000 0.000000
# 3 -0.003140 -0.003140 0.011609 0.000000 0.000000 0.000000
# 4 0.000000 0.000000 0.000000 0.030764 0.000000 0.000000
# 5 0.000000 0.000000 0.000000 0.000000 0.030765 0.000000
# 6 0.000000 0.000000 0.000000 0.000000 0.000000 0.046973
#
#
# Mechanical properties :
#
#
# Convention : Reuss Voigt Hill
#
# Bulk Modulus (GPa) = 64.70232 64.71584 64.70908
# Shear Modulus (GPa) = 28.95083 29.81570 29.38326
#
# Velocity S-wave (km/s) = 3.87309 3.93052 3.90191
# Velocity P-wave (km/s) = 7.31618 7.35738 7.33681
#
# Compressibility (1/GPa) = 0.01545540
#
# Stress axis : x y z
#
# Youngs Moduli (GPa) = 77.98552 77.98622 86.14273
#
# Poissons Ratio (x) = 0.36032 0.27045
# Poissons Ratio (y) = 0.36031 0.27045
# Poissons Ratio (z) = 0.24484 0.24485
#
# Static dielectric constant tensor:
#      x y z
#    x 3.645080 0.000000 0.000000 
#    y 0.000000 3.645080 0.000000 
#    z 0.000000 0.000000 3.403200 
# 
# 
# High freq. dielectric constant tensor:
#      x y z
#    x 1.748190 0.000000 0.000000 
#    y 0.000000 1.748190 0.000000 
#    z 0.000000 0.000000 1.755250 
# 
# From -- ./inp_files/6893.got.cif
#   From: 2010.06.25/outbox.cif.g09.slc.cpg/sg140_4_cif.got.tgz:6893.got - 2010.06.28 10:53:23.
