data_PCOD8320071
_publ_section_title
;
Structure prediction by ZEFSAII (Michael W. Deem and Ramdas Pophale) SiO2 
 PCOD8320071
Probable space group: I 4/M C M
;
_chemical_formula_sum "Si O2"
_cell_formula_units_Z 112
_cell_length_a 19.007849
_cell_length_b 19.007849
_cell_length_c 16.772331
_cell_angle_alpha 90.000000
_cell_angle_beta 90.000000
_cell_angle_gamma 90.000000
_cell_volume 6059.815073
_symmetry_space_group_name_H-M "I 4/M C M"
_symmetry_group_IT_number 140
_symmetry_cell_setting 'tetragonal'
loop_
_space_group_symop_operation_xyz
x,y,z
-y,x,z
-x,-y,z
y,-x,z
x,-y,1/2-z
-x,y,1/2-z
y,x,1/2-z
-y,-x,1/2-z
-x,-y,-z
y,-x,-z
x,y,-z
-y,x,-z
-x,y,1/2+z
x,-y,1/2+z
-y,-x,1/2+z
y,x,1/2+z
1/2+x,1/2+y,1/2+z
1/2-y,1/2+x,1/2+z
1/2-x,1/2-y,1/2+z
1/2+y,1/2-x,1/2+z
1/2+x,1/2-y,-z
1/2-x,1/2+y,-z
1/2+y,1/2+x,-z
1/2-y,1/2-x,-z
1/2-x,1/2-y,1/2-z
1/2+y,1/2-x,1/2-z
1/2+x,1/2+y,1/2-z
1/2-y,1/2+x,1/2-z
1/2-x,1/2+y,z
1/2+x,1/2-y,z
1/2-y,1/2-x,z
1/2+y,1/2+x,z
loop_
_atom_site_type_symbol
_atom_site_label
_atom_site_fract_x
_atom_site_fract_y
_atom_site_fract_z
Si Si1 0.555950 0.944051 0.905988
Si Si2 0.784385 0.534076 0.404998
Si Si3 0.729659 0.120907 0.908557
Si Si4 0.667632 0.717236 0.167230
O O1 0.539173 0.865242 0.878319
O O2 0.500000 0.000000 0.868393
O O3 0.550338 0.949663 0.000000
O O4 0.774962 0.546818 0.500000
O O5 0.760439 0.457173 0.373986
O O6 0.735524 0.588123 0.356379
O O7 0.665069 0.165069 0.867347
O O8 0.800964 0.165495 0.899824
O O9 0.710164 0.111624 0.000000
O O10 0.674416 0.674416 0.250000
O O11 0.709629 0.790372 0.171402
#
# Coordination Sequence:
#
# PCOD8320071 Si02
#       4
#    16  32  32  32
#     4   9  16  26  45  76 108 132 164 208 260 317
#     4  10  18  30  51  76 102 136 173 218 268 314
#     4   9  18  32  51  76 105 133 167 215 268 320
#     4  10  20  33  49  72 100 140 182 217 255 309
#
# _framework density 18.482412
#
# number of rings (size 3 to 8) (size 9 to 14) (size 15 to 20)
#    0.000    2.429    1.429    1.714    0.000    5.714 
#    0.000    0.000    0.000    0.857    0.000    6.000 
#    0.000    0.000    0.000    0.000    0.000    0.286 
#
# Total GULP energy -694006.617965 kJ/mol
# GULP energy per Si atom -12392.975321 kJ/mol
# Density = 1.844035 g / cm^3
# Si number density = 18.482412 Si / 1000 Ang^3
#
#
#
# Elastic Constant Matrix: (Units=GPa)
#
#
# Indices 1 2 3 4 5 6 
#
# 1 132.0858 90.3610 29.6288 0.0000 0.0000 0.0000
# 2 90.3610 132.0858 29.6288 0.0000 0.0000 0.0000
# 3 29.6288 29.6288 37.9749 0.0000 0.0000 0.0000
# 4 0.0000 0.0000 0.0000 19.0073 0.0000 0.0000
# 5 0.0000 0.0000 0.0000 0.0000 19.0073 0.0000
# 6 0.0000 0.0000 0.0000 0.0000 0.0000 28.9259
#
#
#
# Elastic Compliance Matrix: (Units=1/GPa)
#
#
# Indices 1 2 3 4 5 6 
#
# 1 0.014821 -0.009146 -0.004428 0.000000 0.000000 0.000000
# 2 -0.009146 0.014821 -0.004428 0.000000 0.000000 0.000000
# 3 -0.004428 -0.004428 0.033242 0.000000 0.000000 0.000000
# 4 0.000000 0.000000 0.000000 0.052611 0.000000 0.000000
# 5 0.000000 0.000000 0.000000 0.000000 0.052611 0.000000
# 6 0.000000 0.000000 0.000000 0.000000 0.000000 0.034571
#
#
# Mechanical properties :
#
#
# Convention : Reuss Voigt Hill
#
# Bulk Modulus (GPa) = 37.20045 66.82041 52.01043
# Shear Modulus (GPa) = 20.19055 23.55662 21.87358
#
# Velocity S-wave (km/s) = 3.30876 3.57395 3.44391
# Velocity P-wave (km/s) = 5.89647 7.29814 6.63442
#
# Compressibility (1/GPa) = 0.02688139
#
# Stress axis : x y z
#
# Youngs Moduli (GPa) = 67.47291 67.47288 30.08212
#
# Poissons Ratio (x) = 0.61709 0.13319
# Poissons Ratio (y) = 0.61709 0.13320
# Poissons Ratio (z) = 0.29875 0.29875
#
# Static dielectric constant tensor:
#      x y z
#    x 3.426880 0.000000 0.000000 
#    y 0.000000 3.426870 0.000000 
#    z 0.000000 0.000000 3.176860 
# 
# 
# High freq. dielectric constant tensor:
#      x y z
#    x 1.708490 0.000000 0.000000 
#    y 0.000000 1.708480 0.000000 
#    z 0.000000 0.000000 1.692580 
# 
# From -- ./inp_files/6072.got.cif
#   From: 2010.06.25/outbox.cif.g09.slc.cpg/sg140_4_cif.got.tgz:6072.got - 2010.06.28 10:53:23.
