data_PCOD8320263
_publ_section_title
;
Structure prediction by ZEFSAII (Michael W. Deem and Ramdas Pophale) SiO2 
 PCOD8320263
Probable space group: I 4/M C M
;
_chemical_formula_sum "Si O2"
_cell_formula_units_Z 160
_cell_length_a 22.035852
_cell_length_b 22.035852
_cell_length_c 15.090663
_cell_angle_alpha 90.000000
_cell_angle_beta 90.000000
_cell_angle_gamma 90.000000
_cell_volume 7327.705629
_symmetry_space_group_name_H-M "I 4/M C M"
_symmetry_group_IT_number 140
_symmetry_cell_setting 'tetragonal'
loop_
_space_group_symop_operation_xyz
x,y,z
-y,x,z
-x,-y,z
y,-x,z
x,-y,1/2-z
-x,y,1/2-z
y,x,1/2-z
-y,-x,1/2-z
-x,-y,-z
y,-x,-z
x,y,-z
-y,x,-z
-x,y,1/2+z
x,-y,1/2+z
-y,-x,1/2+z
y,x,1/2+z
1/2+x,1/2+y,1/2+z
1/2-y,1/2+x,1/2+z
1/2-x,1/2-y,1/2+z
1/2+y,1/2-x,1/2+z
1/2+x,1/2-y,-z
1/2-x,1/2+y,-z
1/2+y,1/2+x,-z
1/2-y,1/2-x,-z
1/2-x,1/2-y,1/2-z
1/2+y,1/2-x,1/2-z
1/2+x,1/2+y,1/2-z
1/2-y,1/2+x,1/2-z
1/2-x,1/2+y,z
1/2+x,1/2-y,z
1/2-y,1/2-x,z
1/2+y,1/2+x,z
loop_
_atom_site_type_symbol
_atom_site_label
_atom_site_fract_x
_atom_site_fract_y
_atom_site_fract_z
Si Si1 0.266105 0.966141 0.401030
Si Si2 0.780078 0.375442 0.251249
Si Si3 0.966442 0.374886 0.665198
Si Si4 0.701070 0.409280 0.400526
Si Si5 0.926836 0.061453 0.854497
O O1 0.253503 0.942656 0.500000
O O2 0.253443 0.909991 0.335028
O O3 0.337099 0.987826 0.397229
O O4 0.221440 0.021783 0.376098
O O5 0.811347 0.311347 0.224277
O O6 0.828164 0.417664 0.298555
O O7 0.728031 0.364033 0.325696
O O8 0.930339 0.430339 0.615949
O O9 0.000000 0.403430 0.750000
O O10 0.723886 0.392522 0.500000
O O11 0.628351 0.401271 0.397070
O O12 0.929085 0.070916 0.750000
O O13 0.992194 0.083960 0.887568
#
# Coordination Sequence:
#
# PCOD8320263 Si02
#       5
#    32  32  32  32  32
#     4   9  18  30  48  76 106 142 194 246 294 350
#     4   9  18  32  52  75 106 148 193 247 297 338
#     4   8  14  25  40  62  96 137 181 231 288 348
#     4  10  20  34  57  87 118 156 199 241 284 340
#     4   9  20  36  58  90 125 161 186 217 271 341
#
# _framework density 21.834938000000001
#
# number of rings (size 3 to 8) (size 9 to 14) (size 15 to 20)
#    0.000    3.000    0.000    2.400    5.600    2.200 
#    0.000    5.000    0.000    0.600    0.000    5.600 
#    0.000    0.000    0.000    0.000    0.000    0.000 
#
# Total GULP energy -991047.586923 kJ/mol
# GULP energy per Si atom -12388.094837 kJ/mol
# Density = 2.178524 g / cm^3
# Si number density = 21.834938 Si / 1000 Ang^3
#
#
#
# Elastic Constant Matrix: (Units=GPa)
#
#
# Indices 1 2 3 4 5 6 
#
# 1 40.3057 19.0240 18.1539 0.0000 0.0000 0.0000
# 2 19.0240 40.3055 18.1541 0.0000 0.0000 0.0000
# 3 18.1539 18.1541 99.5138 0.0000 0.0000 0.0000
# 4 0.0000 0.0000 0.0000 15.5125 0.0000 0.0000
# 5 0.0000 0.0000 0.0000 0.0000 15.5128 0.0000
# 6 0.0000 0.0000 0.0000 0.0000 0.0000 7.1803
#
#
#
# Elastic Compliance Matrix: (Units=1/GPa)
#
#
# Indices 1 2 3 4 5 6 
#
# 1 0.032981 -0.014008 -0.003461 0.000000 0.000000 0.000000
# 2 -0.014008 0.032981 -0.003461 0.000000 0.000000 0.000000
# 3 -0.003461 -0.003461 0.011312 0.000000 0.000000 0.000000
# 4 0.000000 0.000000 0.000000 0.064464 0.000000 0.000000
# 5 0.000000 0.000000 0.000000 0.000000 0.064463 0.000000
# 6 0.000000 0.000000 0.000000 0.000000 0.000000 0.139270
#
#
# Mechanical properties :
#
#
# Convention : Reuss Voigt Hill
#
# Bulk Modulus (GPa) = 28.23808 32.30989 30.27399
# Shear Modulus (GPa) = 12.52707 15.96066 14.24386
#
# Velocity S-wave (km/s) = 2.39784 2.70658 2.55687
# Velocity P-wave (km/s) = 4.54167 4.95952 4.75519
#
# Compressibility (1/GPa) = 0.03541317
#
# Stress axis : x y z
#
# Youngs Moduli (GPa) = 30.32057 30.32035 88.40407
#
# Poissons Ratio (x) = 0.42472 0.30598
# Poissons Ratio (y) = 0.42473 0.30599
# Poissons Ratio (z) = 0.10494 0.10495
#
# Static dielectric constant tensor:
#      x y z
#    x 3.950120 0.000000 0.000000 
#    y 0.000000 3.950110 0.000000 
#    z 0.000000 0.000000 3.758470 
# 
# 
# High freq. dielectric constant tensor:
#      x y z
#    x 1.832270 0.000000 0.000000 
#    y 0.000000 1.832270 0.000000 
#    z 0.000000 0.000000 1.841360 
# 
# From -- ./inp_files/4715.got.cif
#   From: 2010.06.25/outbox.cif.g09.slc.cpg/sg140_3_cif.got.tgz:4715.got - 2010.06.28 10:53:23.
