data_PCOD8320227
_publ_section_title
;
Structure prediction by ZEFSAII (Michael W. Deem and Ramdas Pophale) SiO2 
 PCOD8320227
Probable space group: I 4/M C M
;
_chemical_formula_sum "Si O2"
_cell_formula_units_Z 192
_cell_length_a 22.594370
_cell_length_b 22.594370
_cell_length_c 22.382141
_cell_angle_alpha 90.000000
_cell_angle_beta 90.000000
_cell_angle_gamma 90.000000
_cell_volume 11426.207329
_symmetry_space_group_name_H-M "I 4/M C M"
_symmetry_group_IT_number 140
_symmetry_cell_setting 'tetragonal'
loop_
_space_group_symop_operation_xyz
x,y,z
-y,x,z
-x,-y,z
y,-x,z
x,-y,1/2-z
-x,y,1/2-z
y,x,1/2-z
-y,-x,1/2-z
-x,-y,-z
y,-x,-z
x,y,-z
-y,x,-z
-x,y,1/2+z
x,-y,1/2+z
-y,-x,1/2+z
y,x,1/2+z
1/2+x,1/2+y,1/2+z
1/2-y,1/2+x,1/2+z
1/2-x,1/2-y,1/2+z
1/2+y,1/2-x,1/2+z
1/2+x,1/2-y,-z
1/2-x,1/2+y,-z
1/2+y,1/2+x,-z
1/2-y,1/2-x,-z
1/2-x,1/2-y,1/2-z
1/2+y,1/2-x,1/2-z
1/2+x,1/2+y,1/2-z
1/2-y,1/2+x,1/2-z
1/2-x,1/2+y,z
1/2+x,1/2-y,z
1/2-y,1/2-x,z
1/2+y,1/2+x,z
loop_
_atom_site_type_symbol
_atom_site_label
_atom_site_fract_x
_atom_site_fract_y
_atom_site_fract_z
Si Si1 0.705811 0.205811 0.932508
Si Si2 0.296065 0.382464 0.121308
Si Si3 0.695162 0.195162 0.565846
Si Si4 0.003168 0.833181 0.931454
Si Si5 0.907059 0.023177 0.678870
Si Si6 0.776370 0.109239 0.374196
Si Si7 0.687349 0.592120 0.747475
O O1 0.649656 0.234402 0.897456
O O2 0.755236 0.255236 0.937062
O O3 0.686962 0.186962 0.000000
O O4 0.311450 0.435528 0.076049
O O5 0.350781 0.336329 0.120020
O O6 0.287368 0.416109 0.185582
O O7 0.675848 0.175848 0.500000
O O8 0.718195 0.138664 0.600460
O O9 0.021212 0.889684 0.890739
O O10 0.048937 0.782154 0.911945
O O11 0.013140 0.851251 0.000000
O O12 0.852706 0.038210 0.722264
O O13 0.957187 0.071262 0.693856
O O14 0.762491 0.098251 0.303778
O O15 0.653870 0.653870 0.750000
#
# Coordination Sequence:
#
# PCOD8320227 Si02
#       7
#    16  32  16  32  32  32  32
#     4   9  18  33  51  69  89 117 152 189 238 299
#     4  10  20  33  50  69  90 120 155 197 247 294
#     4   9  16  29  47  65  89 119 152 185 226 287
#     4  11  21  32  46  65  91 121 160 207 249 290
#     4  10  21  33  45  62  88 130 174 206 238 278
#     4   9  19  31  46  67  90 120 153 191 238 284
#     4   9  18  31  45  63  87 113 153 199 237 278
#
# _framework density 16.803476
#
# number of rings (size 3 to 8) (size 9 to 14) (size 15 to 20)
#    0.000    2.333    0.000    4.000    0.000   12.000 
#    0.000    6.667    0.000    0.000    0.000    0.000 
#    0.000    0.667    0.000    3.333    0.000    8.500 
#
# Total GULP energy -1189297.839578 kJ/mol
# GULP energy per Si atom -12388.519162 kJ/mol
# Density = 1.676523 g / cm^3
# Si number density = 16.803476 Si / 1000 Ang^3
#
#
#
# Elastic Constant Matrix: (Units=GPa)
#
#
# Indices 1 2 3 4 5 6 
#
# 1 45.1855 23.6054 25.4127 0.0000 0.0000 0.0000
# 2 23.6054 45.1855 25.4127 0.0000 0.0000 0.0000
# 3 25.4127 25.4127 145.5567 0.0000 0.0000 0.0000
# 4 0.0000 0.0000 0.0000 21.6251 0.0000 0.0000
# 5 0.0000 0.0000 0.0000 0.0000 21.6251 0.0000
# 6 0.0000 0.0000 0.0000 0.0000 0.0000 13.8156
#
#
#
# Elastic Compliance Matrix: (Units=1/GPa)
#
#
# Indices 1 2 3 4 5 6 
#
# 1 0.031514 -0.014825 -0.002914 0.000000 0.000000 0.000000
# 2 -0.014825 0.031514 -0.002914 0.000000 0.000000 0.000000
# 3 -0.002914 -0.002914 0.007888 0.000000 0.000000 0.000000
# 4 0.000000 0.000000 0.000000 0.046242 0.000000 0.000000
# 5 0.000000 0.000000 0.000000 0.000000 0.046242 0.000000
# 6 0.000000 0.000000 0.000000 0.000000 0.000000 0.072382
#
#
# Mechanical properties :
#
#
# Convention : Reuss Voigt Hill
#
# Bulk Modulus (GPa) = 33.77058 42.75439 38.26249
# Shear Modulus (GPa) = 17.42413 22.17963 19.80188
#
# Velocity S-wave (km/s) = 3.22364 3.63704 3.43656
# Velocity P-wave (km/s) = 5.83068 6.56784 6.21021
#
# Compressibility (1/GPa) = 0.02961157
#
# Stress axis : x y z
#
# Youngs Moduli (GPa) = 31.73158 31.73158 126.78074
#
# Poissons Ratio (x) = 0.47041 0.36942
# Poissons Ratio (y) = 0.47041 0.36942
# Poissons Ratio (z) = 0.09246 0.09246
#
# Static dielectric constant tensor:
#      x y z
#    x 2.989470 0.000000 0.000000 
#    y 0.000000 2.989470 0.000000 
#    z 0.000000 0.000000 3.626570 
# 
# 
# High freq. dielectric constant tensor:
#      x y z
#    x 1.607880 0.000000 0.000000 
#    y 0.000000 1.607880 0.000000 
#    z 0.000000 0.000000 1.676900 
# 
# From -- ./inp_files/8648.got.cif
#   From: 2010.06.25/outbox.cif.g09.slc.cpg/sg140_5_cif.got.tgz:8648.got - 2010.06.28 10:53:23.
