data_PCOD8320949
_publ_section_title
;
Structure prediction by ZEFSAII (Michael W. Deem and Ramdas Pophale) SiO2 
 PCOD8320949
Probable space group: I 41/A C D
;
_chemical_formula_sum "Si O2"
_cell_formula_units_Z 208
_cell_length_a 19.419839
_cell_length_b 19.419839
_cell_length_c 31.125025
_cell_angle_alpha 90.000000
_cell_angle_beta 90.000000
_cell_angle_gamma 90.000000
_cell_volume 11738.185247
_symmetry_space_group_name_H-M "I 41/A C D"
_symmetry_group_IT_number 142
_space_group.IT_coordinate_system_code '2'
_symmetry_cell_setting 'tetragonal'
loop_
_space_group_symop_operation_xyz
x,y,z
1/4-y,3/4+x,1/4+z
-x,1/2-y,z
1/4+y,1/4-x,3/4+z
x,-y,1/2-z
1/2-x,y,-z
3/4+y,1/4+x,1/4-z
1/4-y,1/4-x,1/4-z
-x,-y,-z
3/4+y,1/4-x,3/4-z
x,1/2+y,-z
3/4-y,3/4+x,1/4-z
-x,y,1/2+z
1/2+x,-y,z
1/4-y,3/4-x,3/4+z
3/4+y,3/4+x,3/4+z
1/2+x,1/2+y,1/2+z
3/4-y,1/4+x,3/4+z
1/2-x,-y,1/2+z
3/4+y,3/4-x,1/4+z
1/2+x,1/2-y,-z
-x,1/2+y,1/2-z
1/4+y,3/4+x,3/4-z
3/4-y,3/4-x,3/4-z
1/2-x,1/2-y,1/2-z
1/4+y,3/4-x,1/4-z
1/2+x,y,1/2-z
1/4-y,1/4+x,3/4-z
1/2-x,1/2+y,z
x,1/2-y,1/2+z
3/4-y,1/4-x,1/4+z
1/4+y,1/4+x,1/4+z
loop_
_atom_site_type_symbol
_atom_site_label
_atom_site_fract_x
_atom_site_fract_y
_atom_site_fract_z
Si Si1 0.817593 0.567593 0.375000
Si Si2 0.816436 0.918489 0.589681
Si Si3 0.150611 0.292381 0.470616
Si Si4 0.943325 0.552244 0.312960
Si Si5 0.921431 0.175330 0.389211
Si Si6 0.828327 0.652726 0.911336
Si Si7 0.896878 0.421257 0.755053
O O1 0.816874 0.499000 0.402865
O O2 0.882575 0.572182 0.344358
O O3 0.873047 0.881369 0.618107
O O4 0.743867 0.882785 0.600785
O O5 0.833483 0.915017 0.538737
O O6 0.221272 0.305780 0.445413
O O7 0.155060 0.321502 0.519020
O O8 0.090779 0.325752 0.441069
O O9 0.131405 0.211513 0.474428
O O10 0.014992 0.573139 0.335451
O O11 0.903916 0.250505 0.370027
O O12 0.883858 0.633858 0.875000
O O13 0.855184 0.624198 0.957877
O O14 0.924301 0.500000 0.750000
#
# Coordination Sequence:
#
# PCOD8320949 Si02
#       7
#    16  32  32  32  32  32  32
#     4  12  24  36  55  88 116 151 188 240 282 338
#     4  11  20  35  54  86 119 141 188 239 284 331
#     4  10  16  36  60  79 106 159 190 219 272 360
#     4  10  20  37  59  79 115 153 192 226 284 334
#     4  11  21  33  58  88 115 147 184 235 297 343
#     4  10  19  37  61  85 105 150 194 234 276 338
#     4   9  16  33  58  80 112 147 186 229 282 331
#
# _framework density 17.719944999999999
#
# number of rings (size 3 to 8) (size 9 to 14) (size 15 to 20)
#    0.000    1.692    8.462    0.000    0.000    0.000 
#   11.077    1.923    0.000    1.846    0.000    0.000 
#    0.000    0.000    0.000    0.000    0.000    0.000 
#
# Total GULP energy -1289124.643406 kJ/mol
# GULP energy per Si atom -12395.429264 kJ/mol
# Density = 1.767961 g / cm^3
# Si number density = 17.719945 Si / 1000 Ang^3
#
#
#
# Elastic Constant Matrix: (Units=GPa)
#
#
# Indices 1 2 3 4 5 6 
#
# 1 82.7679 41.8045 61.8789 0.0000 0.0000 0.0000
# 2 41.8045 82.7679 61.8789 0.0000 0.0000 0.0000
# 3 61.8789 61.8789 140.8139 0.0000 0.0000 0.0000
# 4 0.0000 0.0000 0.0000 30.4767 0.0000 0.0000
# 5 0.0000 0.0000 0.0000 0.0000 30.4767 0.0000
# 6 0.0000 0.0000 0.0000 0.0000 0.0000 11.7114
#
#
#
# Elastic Compliance Matrix: (Units=1/GPa)
#
#
# Indices 1 2 3 4 5 6 
#
# 1 0.019330 -0.005082 -0.006261 0.000000 0.000000 0.000000
# 2 -0.005082 0.019330 -0.006261 0.000000 0.000000 0.000000
# 3 -0.006261 -0.006261 0.012604 0.000000 0.000000 0.000000
# 4 0.000000 0.000000 0.000000 0.032812 0.000000 0.000000
# 5 0.000000 0.000000 0.000000 0.000000 0.032812 0.000000
# 6 0.000000 0.000000 0.000000 0.000000 0.000000 0.085387
#
#
# Mechanical properties :
#
#
# Convention : Reuss Voigt Hill
#
# Bulk Modulus (GPa) = 62.28412 70.83048 66.55730
# Shear Modulus (GPa) = 20.59024 23.91881 22.25453
#
# Velocity S-wave (km/s) = 3.41248 3.67798 3.54772
# Velocity P-wave (km/s) = 7.12406 7.62205 7.37726
#
# Compressibility (1/GPa) = 0.01605546
#
# Stress axis : x y z
#
# Youngs Moduli (GPa) = 51.73395 51.73395 79.33970
#
# Poissons Ratio (x) = 0.26293 0.49673
# Poissons Ratio (y) = 0.26293 0.49673
# Poissons Ratio (z) = 0.32390 0.32390
#
# Static dielectric constant tensor:
#      x y z
#    x 3.131300 0.000000 0.000000 
#    y 0.000000 3.131300 0.000000 
#    z 0.000000 0.000000 3.510300 
# 
# 
# High freq. dielectric constant tensor:
#      x y z
#    x 1.666370 0.000000 0.000000 
#    y 0.000000 1.666370 0.000000 
#    z 0.000000 0.000000 1.699540 
# 
# From -- ./inp_files/12691.got.cif
#   From: 2010.03.12/outbox.cif.g09.slc.cpg/sg142_7_cif.got.tgz:12691.got - 2010.04.03 13:27:16.
