data_PCOD8320331
_publ_section_title
;
Structure prediction by ZEFSAII (Michael W. Deem and Ramdas Pophale) SiO2 
 PCOD8320331
Probable space group: I 4/M C M
;
_chemical_formula_sum "Si O2"
_cell_formula_units_Z 192
_cell_length_a 20.500079
_cell_length_b 20.500079
_cell_length_c 23.527553
_cell_angle_alpha 90.000000
_cell_angle_beta 90.000000
_cell_angle_gamma 90.000000
_cell_volume 9887.530354
_symmetry_space_group_name_H-M "I 4/M C M"
_symmetry_group_IT_number 140
_symmetry_cell_setting 'tetragonal'
loop_
_space_group_symop_operation_xyz
x,y,z
-y,x,z
-x,-y,z
y,-x,z
x,-y,1/2-z
-x,y,1/2-z
y,x,1/2-z
-y,-x,1/2-z
-x,-y,-z
y,-x,-z
x,y,-z
-y,x,-z
-x,y,1/2+z
x,-y,1/2+z
-y,-x,1/2+z
y,x,1/2+z
1/2+x,1/2+y,1/2+z
1/2-y,1/2+x,1/2+z
1/2-x,1/2-y,1/2+z
1/2+y,1/2-x,1/2+z
1/2+x,1/2-y,-z
1/2-x,1/2+y,-z
1/2+y,1/2+x,-z
1/2-y,1/2-x,-z
1/2-x,1/2-y,1/2-z
1/2+y,1/2-x,1/2-z
1/2+x,1/2+y,1/2-z
1/2-y,1/2+x,1/2-z
1/2-x,1/2+y,z
1/2+x,1/2-y,z
1/2-y,1/2-x,z
1/2+y,1/2+x,z
loop_
_atom_site_type_symbol
_atom_site_label
_atom_site_fract_x
_atom_site_fract_y
_atom_site_fract_z
Si Si1 0.155663 0.447050 0.566294
Si Si2 0.588174 0.810147 0.433370
Si Si3 0.084362 0.939074 0.598375
Si Si4 0.639139 0.760025 0.853660
Si Si5 0.845687 0.066936 0.285621
Si Si6 0.658188 0.318191 0.936193
O O1 0.173475 0.445079 0.500000
O O2 0.082851 0.417150 0.576685
O O3 0.162977 0.519931 0.591765
O O4 0.209169 0.404617 0.597530
O O5 0.585537 0.821357 0.500000
O O6 0.646602 0.853399 0.406877
O O7 0.601407 0.733816 0.419513
O O8 0.100616 0.941087 0.665230
O O9 0.133569 0.892954 0.564474
O O10 0.014107 0.910541 0.580773
O O11 0.684524 0.815477 0.823514
O O12 0.591796 0.724472 0.808601
O O13 0.688428 0.712226 0.887445
O O14 0.872999 0.127002 0.250000
O O15 0.836638 0.000000 0.250000
O O16 0.684421 0.302594 0.000000
#
# Coordination Sequence:
#
# PCOD8320331 Si02
#       6
#    32  32  32  32  32  32
#     4   9  18  33  55  81 111 147 183 223 271 327
#     4   9  18  31  48  73 107 147 187 223 263 312
#     4  10  21  35  53  79 110 147 193 234 275 332
#     4  10  22  37  56  82 111 143 188 230 274 344
#     4  11  22  37  60  82 105 140 182 238 298 340
#     4  10  21  33  52  79 116 157 188 221 271 330
#
# _framework density 19.418398
#
# number of rings (size 3 to 8) (size 9 to 14) (size 15 to 20)
#    0.000    2.167    1.667    1.000    4.667    3.167 
#    0.000    2.500    0.000    1.000    0.000    0.000 
#    0.000    0.000    0.000    0.000    0.000    0.000 
#
# Total GULP energy -1189459.301834 kJ/mol
# GULP energy per Si atom -12390.201061 kJ/mol
# Density = 1.937420 g / cm^3
# Si number density = 19.418398 Si / 1000 Ang^3
#
#
#
# Elastic Constant Matrix: (Units=GPa)
#
#
# Indices 1 2 3 4 5 6 
#
# 1 102.3284 53.9208 25.6023 0.0000 0.0000 0.0000
# 2 53.9208 102.3272 25.6023 0.0000 0.0000 0.0000
# 3 25.6023 25.6023 49.5473 0.0000 0.0000 0.0000
# 4 0.0000 0.0000 0.0000 19.2310 0.0000 0.0000
# 5 0.0000 0.0000 0.0000 0.0000 19.2312 0.0000
# 6 0.0000 0.0000 0.0000 0.0000 0.0000 34.9608
#
#
#
# Elastic Compliance Matrix: (Units=1/GPa)
#
#
# Indices 1 2 3 4 5 6 
#
# 1 0.014181 -0.006477 -0.003981 0.000000 0.000000 0.000000
# 2 -0.006477 0.014182 -0.003981 0.000000 0.000000 0.000000
# 3 -0.003981 -0.003981 0.024297 0.000000 0.000000 0.000000
# 4 0.000000 0.000000 0.000000 0.051999 0.000000 0.000000
# 5 0.000000 0.000000 0.000000 0.000000 0.051999 0.000000
# 6 0.000000 0.000000 0.000000 0.000000 0.000000 0.028603
#
#
# Mechanical properties :
#
#
# Convention : Reuss Voigt Hill
#
# Bulk Modulus (GPa) = 42.04913 51.60597 46.82755
# Shear Modulus (GPa) = 22.51570 24.62310 23.56940
#
# Velocity S-wave (km/s) = 3.40884 3.56480 3.48769
# Velocity P-wave (km/s) = 6.09876 6.60131 6.35500
#
# Compressibility (1/GPa) = 0.02378171
#
# Stress axis : x y z
#
# Youngs Moduli (GPa) = 70.51507 70.51414 41.15709
#
# Poissons Ratio (x) = 0.45670 0.16385
# Poissons Ratio (y) = 0.45670 0.16386
# Poissons Ratio (z) = 0.28073 0.28074
#
# Static dielectric constant tensor:
#      x y z
#    x 3.703340 0.000000 0.000000 
#    y 0.000000 3.703340 0.000000 
#    z 0.000000 0.000000 3.211740 
# 
# 
# High freq. dielectric constant tensor:
#      x y z
#    x 1.760860 0.000000 0.000000 
#    y 0.000000 1.760860 0.000000 
#    z 0.000000 0.000000 1.714690 
# 
# From -- ./inp_files/9746.got.cif
#   From: 2010.06.25/outbox.cif.g09.slc.cpg/sg140_5_cif.got.tgz:9746.got - 2010.06.28 10:53:23.
