data_PCOD8320088
_publ_section_title
;
Structure prediction by ZEFSAII (Michael W. Deem and Ramdas Pophale) SiO2 
 PCOD8320088
Probable space group: I 4/M C M
;
_chemical_formula_sum "Si O2"
_cell_formula_units_Z 112
_cell_length_a 13.012809
_cell_length_b 13.012809
_cell_length_c 32.097484
_cell_angle_alpha 90.000000
_cell_angle_beta 90.000000
_cell_angle_gamma 90.000000
_cell_volume 5435.169616
_symmetry_space_group_name_H-M "I 4/M C M"
_symmetry_group_IT_number 140
_symmetry_cell_setting 'tetragonal'
loop_
_space_group_symop_operation_xyz
x,y,z
-y,x,z
-x,-y,z
y,-x,z
x,-y,1/2-z
-x,y,1/2-z
y,x,1/2-z
-y,-x,1/2-z
-x,-y,-z
y,-x,-z
x,y,-z
-y,x,-z
-x,y,1/2+z
x,-y,1/2+z
-y,-x,1/2+z
y,x,1/2+z
1/2+x,1/2+y,1/2+z
1/2-y,1/2+x,1/2+z
1/2-x,1/2-y,1/2+z
1/2+y,1/2-x,1/2+z
1/2+x,1/2-y,-z
1/2-x,1/2+y,-z
1/2+y,1/2+x,-z
1/2-y,1/2-x,-z
1/2-x,1/2-y,1/2-z
1/2+y,1/2-x,1/2-z
1/2+x,1/2+y,1/2-z
1/2-y,1/2+x,1/2-z
1/2-x,1/2+y,z
1/2+x,1/2-y,z
1/2-y,1/2-x,z
1/2+y,1/2+x,z
loop_
_atom_site_type_symbol
_atom_site_label
_atom_site_fract_x
_atom_site_fract_y
_atom_site_fract_z
Si Si1 0.224592 0.554661 0.163308
Si Si2 0.500000 0.829473 0.250000
Si Si3 0.414520 0.914520 0.107964
Si Si4 0.903166 0.134389 0.093707
Si Si5 0.279096 0.779096 0.951172
O O1 0.142535 0.642535 0.168746
O O2 0.245211 0.511724 0.209794
O O3 0.176918 0.465593 0.134341
O O4 0.326894 0.603892 0.142051
O O5 0.599053 0.900948 0.257503
O O6 0.359603 0.859603 0.068875
O O7 0.500000 0.000000 0.094306
O O8 0.839002 0.205709 0.062762
O O9 0.022899 0.141052 0.084242
O O10 0.290454 0.790454 0.000000
#
# Coordination Sequence:
#
# PCOD8320088 Si02
#       5
#    32  16  16  32  16
#     4  10  18  35  64  95 134 175 217 267 325 380
#     4   9  16  28  56 103 138 170 220 273 311 382
#     4  10  20  39  67  97 128 166 217 275 326 374
#     4  11  24  43  66  91 128 176 213 262 331 398
#     4  12  26  45  69  96 125 165 222 276 331 402
#
# _framework density 20.606532999999999
#
# number of rings (size 3 to 8) (size 9 to 14) (size 15 to 20)
#    0.000    1.571    5.714    0.000    0.000    1.429 
#    0.000    2.857    0.000    6.857    0.000    0.000 
#    0.000    0.000    0.000    0.000    0.000    0.000 
#
# Total GULP energy -693850.710898 kJ/mol
# GULP energy per Si atom -12390.191266 kJ/mol
# Density = 2.055963 g / cm^3
# Si number density = 20.606533 Si / 1000 Ang^3
#
#
#
# Elastic Constant Matrix: (Units=GPa)
#
#
# Indices 1 2 3 4 5 6 
#
# 1 102.4284 34.2011 70.5084 0.0000 0.0000 0.0000
# 2 34.2011 102.4284 70.5084 0.0000 0.0000 0.0000
# 3 70.5084 70.5084 164.2072 0.0000 0.0000 0.0000
# 4 0.0000 0.0000 0.0000 25.0070 0.0000 0.0000
# 5 0.0000 0.0000 0.0000 0.0000 25.0070 0.0000
# 6 0.0000 0.0000 0.0000 0.0000 0.0000 11.5815
#
#
#
# Elastic Compliance Matrix: (Units=1/GPa)
#
#
# Indices 1 2 3 4 5 6 
#
# 1 0.013901 -0.000756 -0.005644 0.000000 0.000000 0.000000
# 2 -0.000756 0.013901 -0.005644 0.000000 0.000000 0.000000
# 3 -0.005644 -0.005644 0.010937 0.000000 0.000000 0.000000
# 4 0.000000 0.000000 0.000000 0.039989 0.000000 0.000000
# 5 0.000000 0.000000 0.000000 0.000000 0.039989 0.000000
# 6 0.000000 0.000000 0.000000 0.000000 0.000000 0.086344
#
#
# Mechanical properties :
#
#
# Convention : Reuss Voigt Hill
#
# Bulk Modulus (GPa) = 68.26213 79.94441 74.10327
# Shear Modulus (GPa) = 21.36463 25.24218 23.30340
#
# Velocity S-wave (km/s) = 3.22341 3.50374 3.36650
# Velocity P-wave (km/s) = 6.85946 7.43291 7.15194
#
# Compressibility (1/GPa) = 0.01464941
#
# Stress axis : x y z
#
# Youngs Moduli (GPa) = 71.93942 71.93941 91.43470
#
# Poissons Ratio (x) = 0.05441 0.51606
# Poissons Ratio (y) = 0.05441 0.51606
# Poissons Ratio (z) = 0.40602 0.40602
#
# Static dielectric constant tensor:
#      x y z
#    x 3.843560 0.000000 0.000000 
#    y 0.000000 3.843560 0.000000 
#    z 0.000000 0.000000 3.766880 
# 
# 
# High freq. dielectric constant tensor:
#      x y z
#    x 1.803160 0.000000 0.000000 
#    y 0.000000 1.803160 0.000000 
#    z 0.000000 0.000000 1.788460 
# 
# From -- ./inp_files/10321.got.cif
#   From: 2010.06.25/outbox.cif.g09.slc.cpg/sg140_6_cif.got.tgz:10321.got - 2010.06.28 10:53:23.
