data_PCOD8320976
_publ_section_title
;
Structure prediction by ZEFSAII (Michael W. Deem and Ramdas Pophale) SiO2 
 PCOD8320976
Probable space group: I 41/A C D
;
_chemical_formula_sum "Si O2"
_cell_formula_units_Z 160
_cell_length_a 21.195615
_cell_length_b 21.195615
_cell_length_c 17.344488
_cell_angle_alpha 90.000000
_cell_angle_beta 90.000000
_cell_angle_gamma 90.000000
_cell_volume 7792.082264
_symmetry_space_group_name_H-M "I 41/A C D"
_symmetry_group_IT_number 142
_space_group.IT_coordinate_system_code '2'
_symmetry_cell_setting 'tetragonal'
loop_
_space_group_symop_operation_xyz
x,y,z
1/4-y,3/4+x,1/4+z
-x,1/2-y,z
1/4+y,1/4-x,3/4+z
x,-y,1/2-z
1/2-x,y,-z
3/4+y,1/4+x,1/4-z
1/4-y,1/4-x,1/4-z
-x,-y,-z
3/4+y,1/4-x,3/4-z
x,1/2+y,-z
3/4-y,3/4+x,1/4-z
-x,y,1/2+z
1/2+x,-y,z
1/4-y,3/4-x,3/4+z
3/4+y,3/4+x,3/4+z
1/2+x,1/2+y,1/2+z
3/4-y,1/4+x,3/4+z
1/2-x,-y,1/2+z
3/4+y,3/4-x,1/4+z
1/2+x,1/2-y,-z
-x,1/2+y,1/2-z
1/4+y,3/4+x,3/4-z
3/4-y,3/4-x,3/4-z
1/2-x,1/2-y,1/2-z
1/4+y,3/4-x,1/4-z
1/2+x,y,1/2-z
1/4-y,1/4+x,3/4-z
1/2-x,1/2+y,z
x,1/2-y,1/2+z
3/4-y,1/4-x,1/4+z
1/4+y,1/4+x,1/4+z
loop_
_atom_site_type_symbol
_atom_site_label
_atom_site_fract_x
_atom_site_fract_y
_atom_site_fract_z
Si Si1 0.629007 0.975566 0.420342
Si Si2 0.003641 0.649167 0.387292
Si Si3 0.818324 0.251322 0.786143
Si Si4 0.363778 0.566265 0.943130
Si Si5 0.809619 0.174760 0.546079
O O1 0.567159 0.929089 0.417453
O O2 0.684846 0.933910 0.380518
O O3 0.646862 0.001934 0.505765
O O4 0.615262 0.037900 0.370505
O O5 0.954049 0.704049 0.375000
O O6 0.987049 0.596587 0.323547
O O7 0.074357 0.675644 0.375000
O O8 0.999529 0.623018 0.473166
O O9 0.750000 0.250000 0.750000
O O10 0.822538 0.186546 0.836092
O O11 0.350336 0.628265 0.993657
O O12 0.750000 0.201367 0.500000
#
# Coordination Sequence:
#
# PCOD8320976 Si02
#       5
#    32  32  32  32  32
#     4  10  20  35  61  92 115 167 204 267 300 375
#     4  11  20  35  57  87 122 155 202 258 318 373
#     4  10  19  36  58  80 120 162 205 249 308 373
#     4  10  19  35  61  88 121 157 217 249 308 375
#     4  10  18  34  61  89 112 159 213 247 305 383
#
# _framework density 20.533664999999999
#
# number of rings (size 3 to 8) (size 9 to 14) (size 15 to 20)
#    0.000    1.800    6.000    0.600    0.000    0.000 
#    7.200    0.000    0.000   33.600    0.000    0.000 
#    0.000    0.000    0.000    0.000    0.000    0.000 
#
# Total GULP energy -991116.038461 kJ/mol
# GULP energy per Si atom -12388.950481 kJ/mol
# Density = 2.048693 g / cm^3
# Si number density = 20.533665 Si / 1000 Ang^3
#
#
#
# Elastic Constant Matrix: (Units=GPa)
#
#
# Indices 1 2 3 4 5 6 
#
# 1 92.5646 49.8371 31.5281 0.0000 0.0000 0.0000
# 2 49.8371 92.5658 31.5284 0.0000 0.0000 0.0000
# 3 31.5281 31.5284 60.6235 0.0000 0.0000 0.0000
# 4 0.0000 0.0000 0.0000 32.6235 0.0000 0.0000
# 5 0.0000 0.0000 0.0000 0.0000 32.6227 0.0000
# 6 0.0000 0.0000 0.0000 0.0000 0.0000 42.6834
#
#
#
# Elastic Compliance Matrix: (Units=1/GPa)
#
#
# Indices 1 2 3 4 5 6 
#
# 1 0.016264 -0.007140 -0.004745 0.000000 0.000000 0.000000
# 2 -0.007140 0.016263 -0.004745 0.000000 0.000000 0.000000
# 3 -0.004745 -0.004745 0.021430 0.000000 0.000000 0.000000
# 4 0.000000 0.000000 0.000000 0.030653 0.000000 0.000000
# 5 0.000000 0.000000 0.000000 0.000000 0.030653 0.000000
# 6 0.000000 0.000000 0.000000 0.000000 0.000000 0.023428
#
#
# Mechanical properties :
#
#
# Convention : Reuss Voigt Hill
#
# Bulk Modulus (GPa) = 48.31357 52.39349 50.35353
# Shear Modulus (GPa) = 27.95623 30.44328 29.19975
#
# Velocity S-wave (km/s) = 3.69383 3.85464 3.77509
# Velocity P-wave (km/s) = 6.46317 6.73663 6.60132
#
# Compressibility (1/GPa) = 0.02069812
#
# Stress axis : x y z
#
# Youngs Moduli (GPa) = 61.48669 61.48744 46.66262
#
# Poissons Ratio (x) = 0.43903 0.22140
# Poissons Ratio (y) = 0.43903 0.22140
# Poissons Ratio (z) = 0.29174 0.29174
#
# Static dielectric constant tensor:
#      x y z
#    x 4.203600 0.000000 0.000000 
#    y 0.000000 4.203590 0.000000 
#    z 0.000000 0.000000 3.599240 
# 
# 
# High freq. dielectric constant tensor:
#      x y z
#    x 1.795720 0.000000 0.000000 
#    y 0.000000 1.795720 0.000000 
#    z 0.000000 0.000000 1.778590 
# 
# From -- ./inp_files/7352.got.cif
#   From: 2010.03.12/outbox.cif.g09.slc.cpg/sg142_4_cif.got.tgz:7352.got - 2010.04.03 13:27:16.
