data_PCOD8320471
_publ_section_title
;
Structure prediction by ZEFSAII (Michael W. Deem and Ramdas Pophale) SiO2 
 PCOD8320471
Probable space group: I 4/M C M
;
_chemical_formula_sum "Si O2"
_cell_formula_units_Z 192
_cell_length_a 22.727522
_cell_length_b 22.727522
_cell_length_c 23.449255
_cell_angle_alpha 90.000000
_cell_angle_beta 90.000000
_cell_angle_gamma 90.000000
_cell_volume 12112.484187
_symmetry_space_group_name_H-M "I 4/M C M"
_symmetry_group_IT_number 140
_symmetry_cell_setting 'tetragonal'
loop_
_space_group_symop_operation_xyz
x,y,z
-y,x,z
-x,-y,z
y,-x,z
x,-y,1/2-z
-x,y,1/2-z
y,x,1/2-z
-y,-x,1/2-z
-x,-y,-z
y,-x,-z
x,y,-z
-y,x,-z
-x,y,1/2+z
x,-y,1/2+z
-y,-x,1/2+z
y,x,1/2+z
1/2+x,1/2+y,1/2+z
1/2-y,1/2+x,1/2+z
1/2-x,1/2-y,1/2+z
1/2+y,1/2-x,1/2+z
1/2+x,1/2-y,-z
1/2-x,1/2+y,-z
1/2+y,1/2+x,-z
1/2-y,1/2-x,-z
1/2-x,1/2-y,1/2-z
1/2+y,1/2-x,1/2-z
1/2+x,1/2+y,1/2-z
1/2-y,1/2+x,1/2-z
1/2-x,1/2+y,z
1/2+x,1/2-y,z
1/2-y,1/2-x,z
1/2+y,1/2+x,z
loop_
_atom_site_type_symbol
_atom_site_label
_atom_site_fract_x
_atom_site_fract_y
_atom_site_fract_z
Si Si1 0.647243 0.244497 0.000000
Si Si2 0.128620 0.727500 0.157799
Si Si3 0.529026 0.124447 0.809270
Si Si4 0.051046 0.644619 0.093056
Si Si5 0.781350 0.182086 0.119016
Si Si6 0.217816 0.379324 0.213637
Si Si7 0.852206 0.451781 0.500000
O O1 0.648969 0.284252 0.942423
O O2 0.704640 0.204640 0.000000
O O3 0.589246 0.204598 0.000000
O O4 0.175364 0.675364 0.161395
O O5 0.078531 0.707378 0.112491
O O6 0.156799 0.786293 0.131470
O O7 0.103518 0.739679 0.222075
O O8 0.500000 0.133113 0.750000
O O9 0.565805 0.065805 0.813556
O O10 0.474799 0.115370 0.850907
O O11 0.569294 0.182107 0.818709
O O12 0.100940 0.600940 0.066785
O O13 0.994801 0.652069 0.053322
O O14 0.728153 0.228153 0.118196
O O15 0.771459 0.136099 0.171001
O O16 0.177813 0.322188 0.221306
O O17 0.912297 0.412297 0.500000
#
# Coordination Sequence:
#
# PCOD8320471 Si02
#       7
#    16  32  32  32  32  32  16
#     4   9  18  32  46  65  82 103 146 190 228 275
#     4   9  17  29  44  65  88 108 140 187 237 285
#     4  11  20  30  44  61  86 119 159 206 236 256
#     4  11  22  34  45  62  88 120 161 204 237 270
#     4   9  16  27  47  66  84 107 135 183 238 285
#     4   9  16  28  44  64  86 111 145 187 234 278
#     4  11  23  37  49  60  84 123 165 205 235 272
#
# _framework density 15.851414
#
# number of rings (size 3 to 8) (size 9 to 14) (size 15 to 20)
#    0.000    2.167    1.667    2.750    0.000    7.833 
#    0.000    2.500    0.000    0.000    0.000    0.000 
#    0.000    0.000    0.000    0.000    0.000   34.167 
#
# Total GULP energy -1189498.703917 kJ/mol
# GULP energy per Si atom -12390.611499 kJ/mol
# Density = 1.581534 g / cm^3
# Si number density = 15.851414 Si / 1000 Ang^3
#
#
#
# Elastic Constant Matrix: (Units=GPa)
#
#
# Indices 1 2 3 4 5 6 
#
# 1 43.6124 40.6432 24.0724 0.0000 0.0000 0.0000
# 2 40.6432 43.6124 24.0724 0.0000 0.0000 0.0000
# 3 24.0724 24.0724 91.8106 0.0000 0.0000 0.0000
# 4 0.0000 0.0000 0.0000 24.7916 0.0000 0.0000
# 5 0.0000 0.0000 0.0000 0.0000 24.7916 0.0000
# 6 0.0000 0.0000 0.0000 0.0000 0.0000 19.5059
#
#
#
# Elastic Compliance Matrix: (Units=1/GPa)
#
#
# Indices 1 2 3 4 5 6 
#
# 1 0.175376 -0.161416 -0.003660 0.000000 0.000000 0.000000
# 2 -0.161416 0.175376 -0.003660 0.000000 0.000000 0.000000
# 3 -0.003660 -0.003660 0.012811 0.000000 0.000000 0.000000
# 4 0.000000 0.000000 0.000000 0.040336 0.000000 0.000000
# 5 0.000000 0.000000 0.000000 0.000000 0.040336 0.000000
# 6 0.000000 0.000000 0.000000 0.000000 0.000000 0.051266
#
#
# Mechanical properties :
#
#
# Convention : Reuss Voigt Hill
#
# Bulk Modulus (GPa) = 38.32800 39.62349 38.97574
# Shear Modulus (GPa) = 5.94056 19.83430 12.88743
#
# Velocity S-wave (km/s) = 1.93799 3.54116 2.85443
# Velocity P-wave (km/s) = 5.40738 6.46303 5.95863
#
# Compressibility (1/GPa) = 0.02609059
#
# Stress axis : x y z
#
# Youngs Moduli (GPa) = 5.70204 5.70204 78.05530
#
# Poissons Ratio (x) = 0.92040 0.28571
# Poissons Ratio (y) = 0.92040 0.28571
# Poissons Ratio (z) = 0.02087 0.02087
#
# Static dielectric constant tensor:
#      x y z
#    x 2.904770 0.000000 0.000000 
#    y 0.000000 2.904770 0.000000 
#    z 0.000000 0.000000 3.302680 
# 
# 
# High freq. dielectric constant tensor:
#      x y z
#    x 1.572080 0.000000 0.000000 
#    y 0.000000 1.572080 0.000000 
#    z 0.000000 0.000000 1.628720 
# 
# From -- ./inp_files/8669.got.cif
#   From: 2010.06.25/outbox.cif.g09.slc.cpg/sg140_5_cif.got.tgz:8669.got - 2010.06.28 10:53:23.
