data_PCOD8320279
_publ_section_title
;
Structure prediction by ZEFSAII (Michael W. Deem and Ramdas Pophale) SiO2 
 PCOD8320279
Probable space group: I 4/M C M
;
_chemical_formula_sum "Si O2"
_cell_formula_units_Z 160
_cell_length_a 30.338586
_cell_length_b 30.338586
_cell_length_c 10.027800
_cell_angle_alpha 90.000000
_cell_angle_beta 90.000000
_cell_angle_gamma 90.000000
_cell_volume 9229.885953
_symmetry_space_group_name_H-M "I 4/M C M"
_symmetry_group_IT_number 140
_symmetry_cell_setting 'tetragonal'
loop_
_space_group_symop_operation_xyz
x,y,z
-y,x,z
-x,-y,z
y,-x,z
x,-y,1/2-z
-x,y,1/2-z
y,x,1/2-z
-y,-x,1/2-z
-x,-y,-z
y,-x,-z
x,y,-z
-y,x,-z
-x,y,1/2+z
x,-y,1/2+z
-y,-x,1/2+z
y,x,1/2+z
1/2+x,1/2+y,1/2+z
1/2-y,1/2+x,1/2+z
1/2-x,1/2-y,1/2+z
1/2+y,1/2-x,1/2+z
1/2+x,1/2-y,-z
1/2-x,1/2+y,-z
1/2+y,1/2+x,-z
1/2-y,1/2-x,-z
1/2-x,1/2-y,1/2-z
1/2+y,1/2-x,1/2-z
1/2+x,1/2+y,1/2-z
1/2-y,1/2+x,1/2-z
1/2-x,1/2+y,z
1/2+x,1/2-y,z
1/2-y,1/2-x,z
1/2+y,1/2+x,z
loop_
_atom_site_type_symbol
_atom_site_label
_atom_site_fract_x
_atom_site_fract_y
_atom_site_fract_z
Si Si1 0.656495 0.775171 0.847302
Si Si2 0.616427 0.954497 0.000000
Si Si3 0.536422 0.274657 0.348160
Si Si4 0.630275 0.055242 0.000000
Si Si5 0.180845 0.572168 0.767568
Si Si6 0.818169 0.129113 0.651901
O O1 0.705841 0.794160 0.834207
O O2 0.623854 0.806883 0.765638
O O3 0.656636 0.724787 0.798785
O O4 0.638954 0.775564 0.000000
O O5 0.642628 0.938824 0.870706
O O6 0.608189 0.006943 0.000000
O O7 0.568589 0.931412 0.000000
O O8 0.500000 0.295024 0.250000
O O9 0.519212 0.274269 0.500000
O O10 0.545610 0.224851 0.302921
O O11 0.577940 0.306849 0.334261
O O12 0.662824 0.059362 0.875839
O O13 0.591861 0.091861 0.000000
O O14 0.858189 0.141812 0.750000
O O15 0.831360 0.140950 0.500000
#
# Coordination Sequence:
#
# PCOD8320279 Si02
#       6
#    32  16  32  16  32  32
#     4   9  16  31  54  73  94 131 174 210 247 304
#     4  12  22  37  58  68  85 127 165 201 262 336
#     4  10  20  35  57  84 108 134 174 218 258 304
#     4  12  26  37  48  72  99 119 155 217 272 322
#     4  11  21  36  54  76  98 123 160 212 271 319
#     4   9  19  34  49  73 108 144 176 208 251 300
#
# _framework density 17.334993000000001
#
# number of rings (size 3 to 8) (size 9 to 14) (size 15 to 20)
#    0.000    1.800    2.000    4.800    1.400    1.400 
#    5.400    0.000    0.000    2.400    0.000    0.000 
#    0.000    0.400    0.000    4.400    0.000    3.200 
#
# Total GULP energy -991907.113728 kJ/mol
# GULP energy per Si atom -12398.838922 kJ/mol
# Density = 1.729554 g / cm^3
# Si number density = 17.334993 Si / 1000 Ang^3
#
#
#
# Elastic Constant Matrix: (Units=GPa)
#
#
# Indices 1 2 3 4 5 6 
#
# 1 61.7689 39.7262 48.4539 0.0000 0.0000 0.0000
# 2 39.7262 61.7731 48.4545 0.0000 0.0000 0.0000
# 3 48.4539 48.4545 131.6600 0.0000 0.0000 0.0000
# 4 0.0000 0.0000 0.0000 23.3211 0.0000 0.0000
# 5 0.0000 0.0000 0.0000 0.0000 23.3219 0.0000
# 6 0.0000 0.0000 0.0000 0.0000 0.0000 21.3170
#
#
#
# Elastic Compliance Matrix: (Units=1/GPa)
#
#
# Indices 1 2 3 4 5 6 
#
# 1 0.030277 -0.015086 -0.005591 0.000000 0.000000 0.000000
# 2 -0.015086 0.030275 -0.005590 0.000000 0.000000 0.000000
# 3 -0.005591 -0.005590 0.011710 0.000000 0.000000 0.000000
# 4 0.000000 0.000000 0.000000 0.042880 0.000000 0.000000
# 5 0.000000 0.000000 0.000000 0.000000 0.042878 0.000000
# 6 0.000000 0.000000 0.000000 0.000000 0.000000 0.046911
#
#
# Mechanical properties :
#
#
# Convention : Reuss Voigt Hill
#
# Bulk Modulus (GPa) = 50.68701 58.71901 54.70301
# Shear Modulus (GPa) = 18.93647 21.49650 20.21649
#
# Velocity S-wave (km/s) = 3.30871 3.52527 3.41871
# Velocity P-wave (km/s) = 6.62570 7.10751 6.87083
#
# Compressibility (1/GPa) = 0.01972892
#
# Stress axis : x y z
#
# Youngs Moduli (GPa) = 33.02793 33.03070 85.39650
#
# Poissons Ratio (x) = 0.49830 0.47742
# Poissons Ratio (y) = 0.49826 0.47736
# Poissons Ratio (z) = 0.18465 0.18464
#
# Static dielectric constant tensor:
#      x y z
#    x 3.079720 0.000000 0.000000 
#    y 0.000000 3.079710 0.000000 
#    z 0.000000 0.000000 3.249840 
# 
# 
# High freq. dielectric constant tensor:
#      x y z
#    x 1.651400 0.000000 0.000000 
#    y 0.000000 1.651400 0.000000 
#    z 0.000000 0.000000 1.672140 
# 
# From -- ./inp_files/1789.got.cif
#   From: 2010.06.25/outbox.cif.g09.slc.cpg/sg140_1_cif.got.tgz:1789.got - 2010.06.28 10:53:23.
