data_PCOD8320430
_publ_section_title
;
Structure prediction by ZEFSAII (Michael W. Deem and Ramdas Pophale) SiO2 
 PCOD8320430
Probable space group: I 4/M C M
;
_chemical_formula_sum "Si O2"
_cell_formula_units_Z 160
_cell_length_a 20.564222
_cell_length_b 20.564222
_cell_length_c 19.540322
_cell_angle_alpha 90.000000
_cell_angle_beta 90.000000
_cell_angle_gamma 90.000000
_cell_volume 8263.352575
_symmetry_space_group_name_H-M "I 4/M C M"
_symmetry_group_IT_number 140
_symmetry_cell_setting 'tetragonal'
loop_
_space_group_symop_operation_xyz
x,y,z
-y,x,z
-x,-y,z
y,-x,z
x,-y,1/2-z
-x,y,1/2-z
y,x,1/2-z
-y,-x,1/2-z
-x,-y,-z
y,-x,-z
x,y,-z
-y,x,-z
-x,y,1/2+z
x,-y,1/2+z
-y,-x,1/2+z
y,x,1/2+z
1/2+x,1/2+y,1/2+z
1/2-y,1/2+x,1/2+z
1/2-x,1/2-y,1/2+z
1/2+y,1/2-x,1/2+z
1/2+x,1/2-y,-z
1/2-x,1/2+y,-z
1/2+y,1/2+x,-z
1/2-y,1/2-x,-z
1/2-x,1/2-y,1/2-z
1/2+y,1/2-x,1/2-z
1/2+x,1/2+y,1/2-z
1/2-y,1/2+x,1/2-z
1/2-x,1/2+y,z
1/2+x,1/2-y,z
1/2-y,1/2-x,z
1/2+y,1/2+x,z
loop_
_atom_site_type_symbol
_atom_site_label
_atom_site_fract_x
_atom_site_fract_y
_atom_site_fract_z
Si Si1 0.355179 0.037848 0.178376
Si Si2 0.926509 0.679895 0.075602
Si Si3 0.405440 0.548353 0.577744
Si Si4 0.373928 0.300836 0.654381
Si Si5 0.643340 0.248224 0.700489
O O1 0.423382 0.076619 0.172003
O O2 0.295103 0.086793 0.168879
O O3 0.353576 0.000000 0.250000
O O4 0.344971 0.988345 0.117205
O O5 0.881969 0.618032 0.068620
O O6 0.884347 0.736003 0.111014
O O7 0.948947 0.703290 0.000000
O O8 0.413929 0.472234 0.590990
O O9 0.382018 0.561055 0.500000
O O10 0.352781 0.572786 0.631409
O O11 0.301023 0.330553 0.645019
O O12 0.385378 0.285353 0.733914
O O13 0.703018 0.203018 0.724874
#
# Coordination Sequence:
#
# PCOD8320430 Si02
#       5
#    32  32  32  32  32
#     4  11  23  41  65  93 126 168 213 261 316 378
#     4  11  24  41  62  91 127 164 210 265 317 374
#     4   9  20  38  57  82 120 161 197 239 296 362
#     4  11  20  36  63  89 119 158 202 248 306 370
#     4  10  22  39  61  88 123 158 198 253 310 368
#
# _framework density 19.362601999999999
#
# number of rings (size 3 to 8) (size 9 to 14) (size 15 to 20)
#    0.000    1.600    2.000    4.200    2.800    1.800 
#    0.000    2.000    0.000    7.200    0.000    0.000 
#    0.000    0.000    0.000    0.000    0.000    0.000 
#
# Total GULP energy -991887.138505 kJ/mol
# GULP energy per Si atom -12398.589231 kJ/mol
# Density = 1.931853 g / cm^3
# Si number density = 19.362602 Si / 1000 Ang^3
#
#
#
# Elastic Constant Matrix: (Units=GPa)
#
#
# Indices 1 2 3 4 5 6 
#
# 1 98.8297 49.4016 44.4703 0.0000 0.0000 0.0000
# 2 49.4016 98.8297 44.4703 0.0000 0.0000 0.0000
# 3 44.4703 44.4703 98.1190 0.0000 0.0000 0.0000
# 4 0.0000 0.0000 0.0000 23.0842 0.0000 0.0000
# 5 0.0000 0.0000 0.0000 0.0000 23.0842 0.0000
# 6 0.0000 0.0000 0.0000 0.0000 0.0000 41.1450
#
#
#
# Elastic Compliance Matrix: (Units=1/GPa)
#
#
# Indices 1 2 3 4 5 6 
#
# 1 0.014749 -0.005483 -0.004200 0.000000 0.000000 0.000000
# 2 -0.005483 0.014749 -0.004200 0.000000 0.000000 0.000000
# 3 -0.004200 -0.004200 0.013998 0.000000 0.000000 0.000000
# 4 0.000000 0.000000 0.000000 0.043320 0.000000 0.000000
# 5 0.000000 0.000000 0.000000 0.000000 0.043320 0.000000
# 6 0.000000 0.000000 0.000000 0.000000 0.000000 0.024304
#
#
# Mechanical properties :
#
#
# Convention : Reuss Voigt Hill
#
# Bulk Modulus (GPa) = 63.56453 63.60699 63.58576
# Shear Modulus (GPa) = 26.67411 27.95840 27.31626
#
# Velocity S-wave (km/s) = 3.71564 3.80404 3.76010
# Velocity P-wave (km/s) = 7.16294 7.22607 7.19458
#
# Compressibility (1/GPa) = 0.01573205
#
# Stress axis : x y z
#
# Youngs Moduli (GPa) = 67.80248 67.80248 71.43625
#
# Poissons Ratio (x) = 0.37174 0.30001
# Poissons Ratio (y) = 0.37174 0.30001
# Poissons Ratio (z) = 0.28475 0.28475
#
# Static dielectric constant tensor:
#      x y z
#    x 3.702090 0.000000 0.000000 
#    y 0.000000 3.702090 0.000000 
#    z 0.000000 0.000000 3.511200 
# 
# 
# High freq. dielectric constant tensor:
#      x y z
#    x 1.764920 0.000000 0.000000 
#    y 0.000000 1.764920 0.000000 
#    z 0.000000 0.000000 1.738550 
# 
# From -- ./inp_files/6852.got.cif
#   From: 2010.06.25/outbox.cif.g09.slc.cpg/sg140_4_cif.got.tgz:6852.got - 2010.06.28 10:53:23.
