data_PCOD8320632
_publ_section_title
;
Structure prediction by ZEFSAII (Michael W. Deem and Ramdas Pophale) SiO2 
 PCOD8320632
Probable space group: I 41/A M D
;
_chemical_formula_sum "Si O2"
_cell_formula_units_Z 160
_cell_length_a 17.839077
_cell_length_b 17.839077
_cell_length_c 24.303616
_cell_angle_alpha 90.000000
_cell_angle_beta 90.000000
_cell_angle_gamma 90.000000
_cell_volume 7734.204567
_symmetry_space_group_name_H-M "I 41/A M D"
_symmetry_group_IT_number 141
_space_group.IT_coordinate_system_code '2'
_symmetry_cell_setting 'tetragonal'
loop_
_space_group_symop_operation_xyz
x,y,z
1/4-y,3/4+x,1/4+z
-x,1/2-y,z
1/4+y,1/4-x,3/4+z
x,-y,-z
-x,1/2+y,-z
1/4+y,3/4+x,1/4-z
1/4-y,1/4-x,3/4-z
-x,-y,-z
3/4+y,1/4-x,3/4-z
x,1/2+y,-z
3/4-y,3/4+x,1/4-z
-x,y,z
x,1/2-y,z
3/4-y,1/4-x,3/4+z
3/4+y,3/4+x,1/4+z
1/2+x,1/2+y,1/2+z
3/4-y,1/4+x,3/4+z
1/2-x,-y,1/2+z
3/4+y,3/4-x,1/4+z
1/2+x,1/2-y,1/2-z
1/2-x,y,1/2-z
3/4+y,1/4+x,3/4-z
3/4-y,3/4-x,1/4-z
1/2-x,1/2-y,1/2-z
1/4+y,3/4-x,1/4-z
1/2+x,y,1/2-z
1/4-y,1/4+x,3/4-z
1/2-x,1/2+y,1/2+z
1/2+x,-y,1/2+z
1/4-y,3/4-x,1/4+z
1/4+y,1/4+x,3/4+z
loop_
_atom_site_type_symbol
_atom_site_label
_atom_site_fract_x
_atom_site_fract_y
_atom_site_fract_z
Si Si1 0.308590 0.661624 0.037790
Si Si2 0.584629 0.665374 0.240041
Si Si3 0.195428 0.421026 0.799277
Si Si4 0.842641 0.917885 0.360039
Si Si5 0.086670 0.070839 0.338238
O O1 0.299090 0.750000 0.047399
O O2 0.231871 0.619797 0.051077
O O3 0.364740 0.626621 0.083881
O O4 0.336603 0.644157 0.975941
O O5 0.500000 0.644093 0.259103
O O6 0.588107 0.750000 0.219605
O O7 0.646702 0.654662 0.288408
O O8 0.607718 0.613459 0.189406
O O9 0.250000 0.443434 0.750000
O O10 0.251300 0.410792 0.851250
O O11 0.864012 0.004554 0.364811
O O12 0.106298 0.143703 0.375000
O O13 0.000000 0.050792 0.344760
#
# Coordination Sequence:
#
# PCOD8320632 Si02
#       5
#    32  32  32  32  32
#     4  11  22  38  60  90 123 158 201 256 313 369
#     4  10  20  35  55  83 125 172 211 253 313 377
#     4  10  19  33  57  85 119 160 204 254 301 363
#     4  11  22  36  62  93 122 159 209 264 308 366
#     4  11  24  43  67  90 123 162 203 254 321 384
#
# _framework density 20.687325000000001
#
# number of rings (size 3 to 8) (size 9 to 14) (size 15 to 20)
#    0.000    1.400    4.000    3.600    0.000    4.600 
#    0.000    3.000    0.000    2.400    0.000    2.800 
#    0.000    0.000    0.000    0.000    0.000    0.000 
#
# Total GULP energy -991241.827565 kJ/mol
# GULP energy per Si atom -12390.522845 kJ/mol
# Density = 2.064024 g / cm^3
# Si number density = 20.687325 Si / 1000 Ang^3
#
#
#
# Elastic Constant Matrix: (Units=GPa)
#
#
# Indices 1 2 3 4 5 6 
#
# 1 88.3243 34.9199 43.6976 0.0000 0.0000 0.0000
# 2 34.9199 88.3203 43.6968 0.0000 0.0000 0.0000
# 3 43.6976 43.6968 126.2295 0.0000 0.0000 0.0000
# 4 0.0000 0.0000 0.0000 22.0949 0.0000 0.0000
# 5 0.0000 0.0000 0.0000 0.0000 22.0949 0.0000
# 6 0.0000 0.0000 0.0000 0.0000 0.0000 30.7738
#
#
#
# Elastic Compliance Matrix: (Units=1/GPa)
#
#
# Indices 1 2 3 4 5 6 
#
# 1 0.014740 -0.003986 -0.003723 0.000000 0.000000 0.000000
# 2 -0.003986 0.014740 -0.003723 0.000000 0.000000 0.000000
# 3 -0.003723 -0.003723 0.010499 0.000000 0.000000 0.000000
# 4 0.000000 0.000000 0.000000 0.045259 0.000000 0.000000
# 5 0.000000 0.000000 0.000000 0.000000 0.045259 0.000000
# 6 0.000000 0.000000 0.000000 0.000000 0.000000 0.032495
#
#
# Mechanical properties :
#
#
# Convention : Reuss Voigt Hill
#
# Bulk Modulus (GPa) = 58.42304 60.83364 59.62834
# Shear Modulus (GPa) = 26.10131 27.03004 26.56568
#
# Velocity S-wave (km/s) = 3.55590 3.61861 3.58739
# Velocity P-wave (km/s) = 6.72023 6.85049 6.78568
#
# Compressibility (1/GPa) = 0.01711654
#
# Stress axis : x y z
#
# Youngs Moduli (GPa) = 67.84478 67.84160 95.24270
#
# Poissons Ratio (x) = 0.27041 0.35456
# Poissons Ratio (y) = 0.27042 0.35457
# Poissons Ratio (z) = 0.25256 0.25256
#
# Static dielectric constant tensor:
#      x y z
#    x 3.803680 0.000000 0.000000 
#    y 0.000000 3.803680 0.000000 
#    z 0.000000 0.000000 4.270080 
# 
# 
# High freq. dielectric constant tensor:
#      x y z
#    x 1.803460 0.000000 0.000000 
#    y 0.000000 1.803460 0.000000 
#    z 0.000000 0.000000 1.812520 
# 
# From -- ./inp_files/12716.got.cif
#   From: 2010.03.12/outbox.cif.g09.slc.cpg/sg141_7_cif.got.tgz:12716.got - 2010.04.03 13:18:35.
