data_PCOD8320670
_publ_section_title
;
Structure prediction by ZEFSAII (Michael W. Deem and Ramdas Pophale) SiO2 
 PCOD8320670
Probable space group: I 41/A M D
;
_chemical_formula_sum "Si O2"
_cell_formula_units_Z 144
_cell_length_a 22.282336
_cell_length_b 22.282336
_cell_length_c 17.784327
_cell_angle_alpha 90.000000
_cell_angle_beta 90.000000
_cell_angle_gamma 90.000000
_cell_volume 8829.962774
_symmetry_space_group_name_H-M "I 41/A M D"
_symmetry_group_IT_number 141
_space_group.IT_coordinate_system_code '2'
_symmetry_cell_setting 'tetragonal'
loop_
_space_group_symop_operation_xyz
x,y,z
1/4-y,3/4+x,1/4+z
-x,1/2-y,z
1/4+y,1/4-x,3/4+z
x,-y,-z
-x,1/2+y,-z
1/4+y,3/4+x,1/4-z
1/4-y,1/4-x,3/4-z
-x,-y,-z
3/4+y,1/4-x,3/4-z
x,1/2+y,-z
3/4-y,3/4+x,1/4-z
-x,y,z
x,1/2-y,z
3/4-y,1/4-x,3/4+z
3/4+y,3/4+x,1/4+z
1/2+x,1/2+y,1/2+z
3/4-y,1/4+x,3/4+z
1/2-x,-y,1/2+z
3/4+y,3/4-x,1/4+z
1/2+x,1/2-y,1/2-z
1/2-x,y,1/2-z
3/4+y,1/4+x,3/4-z
3/4-y,3/4-x,1/4-z
1/2-x,1/2-y,1/2-z
1/4+y,3/4-x,1/4-z
1/2+x,y,1/2-z
1/4-y,1/4+x,3/4-z
1/2-x,1/2+y,1/2+z
1/2+x,-y,1/2+z
1/4-y,3/4-x,1/4+z
1/4+y,1/4+x,3/4+z
loop_
_atom_site_type_symbol
_atom_site_label
_atom_site_fract_x
_atom_site_fract_y
_atom_site_fract_z
Si Si1 0.750000 0.508525 0.250000
Si Si2 0.671723 0.318743 0.961170
Si Si3 0.180511 0.067689 0.622375
Si Si4 0.118688 0.682239 0.695595
Si Si5 0.740360 0.681690 0.885503
O O1 0.794562 0.551595 0.295787
O O2 0.713989 0.466783 0.306301
O O3 0.666149 0.250000 0.934208
O O4 0.607949 0.344761 0.987092
O O5 0.719779 0.324838 0.028031
O O6 0.688307 0.360679 0.890042
O O7 0.111196 0.046404 0.618412
O O8 0.118634 0.750000 0.724504
O O9 0.073917 0.676084 0.625000
O O10 0.185394 0.662676 0.668798
O O11 0.760289 0.750000 0.868983
#
# Coordination Sequence:
#
# PCOD8320670 Si02
#       5
#    16  32  32  32  32
#     4  10  22  30  54  76  98 124 162 206 264 290
#     4  10  20  32  47  67  98 133 165 205 247 286
#     4  11  19  35  50  75  99 130 163 213 245 305
#     4   9  17  28  43  67 100 138 174 201 231 281
#     4   9  18  31  48  71 101 137 167 196 241 296
#
# _framework density 16.308109000000002
#
# number of rings (size 3 to 8) (size 9 to 14) (size 15 to 20)
#    0.000    2.222    2.222    3.333    6.222    2.444 
#    0.000    3.333    0.000    0.000    0.000    0.000 
#    0.000    0.000    0.000    0.000    0.000    0.000 
#
# Total GULP energy -892600.614611 kJ/mol
# GULP energy per Si atom -12397.230758 kJ/mol
# Density = 1.627099 g / cm^3
# Si number density = 16.308109 Si / 1000 Ang^3
#
#
#
# Elastic Constant Matrix: (Units=GPa)
#
#
# Indices 1 2 3 4 5 6 
#
# 1 88.8164 48.8204 32.1772 0.0000 0.0000 0.0000
# 2 48.8204 88.8153 32.1773 0.0000 0.0000 0.0000
# 3 32.1772 32.1773 54.5019 0.0000 0.0000 0.0000
# 4 0.0000 0.0000 0.0000 18.1569 0.0000 0.0000
# 5 0.0000 0.0000 0.0000 0.0000 18.1571 0.0000
# 6 0.0000 0.0000 0.0000 0.0000 0.0000 16.3829
#
#
#
# Elastic Compliance Matrix: (Units=1/GPa)
#
#
# Indices 1 2 3 4 5 6 
#
# 1 0.017519 -0.007483 -0.005925 0.000000 0.000000 0.000000
# 2 -0.007483 0.017520 -0.005925 0.000000 0.000000 0.000000
# 3 -0.005925 -0.005925 0.025344 0.000000 0.000000 0.000000
# 4 0.000000 0.000000 0.000000 0.055075 0.000000 0.000000
# 5 0.000000 0.000000 0.000000 0.000000 0.055075 0.000000
# 6 0.000000 0.000000 0.000000 0.000000 0.000000 0.061039
#
#
# Mechanical properties :
#
#
# Convention : Reuss Voigt Hill
#
# Bulk Modulus (GPa) = 46.04964 50.94258 48.49611
# Shear Modulus (GPa) = 18.01945 18.46998 18.24472
#
# Velocity S-wave (km/s) = 3.32767 3.36901 3.34840
# Velocity P-wave (km/s) = 6.56224 6.81462 6.68962
#
# Compressibility (1/GPa) = 0.02171570
#
# Stress axis : x y z
#
# Youngs Moduli (GPa) = 57.08022 57.07917 39.45680
#
# Poissons Ratio (x) = 0.42715 0.23378
# Poissons Ratio (y) = 0.42716 0.23379
# Poissons Ratio (z) = 0.33820 0.33821
#
# Static dielectric constant tensor:
#      x y z
#    x 3.078410 0.000000 0.000000 
#    y 0.000000 3.078410 0.000000 
#    z 0.000000 0.000000 2.933310 
# 
# 
# High freq. dielectric constant tensor:
#      x y z
#    x 1.620230 0.000000 0.000000 
#    y 0.000000 1.620230 0.000000 
#    z 0.000000 0.000000 1.595370 
# 
# From -- ./inp_files/10338.got.cif
#   From: 2010.03.12/outbox.cif.g09.slc.cpg/sg141_6_cif.got.tgz:10338.got - 2010.04.03 13:18:35.
