data_PCOD8320511
_publ_section_title
;
Structure prediction by ZEFSAII (Michael W. Deem and Ramdas Pophale) SiO2 
 PCOD8320511
Probable space group: I 4/M C M
;
_chemical_formula_sum "Si O2"
_cell_formula_units_Z 80
_cell_length_a 12.847393
_cell_length_b 12.847393
_cell_length_c 23.699171
_cell_angle_alpha 90.000000
_cell_angle_beta 90.000000
_cell_angle_gamma 90.000000
_cell_volume 3911.678682
_symmetry_space_group_name_H-M "I 4/M C M"
_symmetry_group_IT_number 140
_symmetry_cell_setting 'tetragonal'
loop_
_space_group_symop_operation_xyz
x,y,z
-y,x,z
-x,-y,z
y,-x,z
x,-y,1/2-z
-x,y,1/2-z
y,x,1/2-z
-y,-x,1/2-z
-x,-y,-z
y,-x,-z
x,y,-z
-y,x,-z
-x,y,1/2+z
x,-y,1/2+z
-y,-x,1/2+z
y,x,1/2+z
1/2+x,1/2+y,1/2+z
1/2-y,1/2+x,1/2+z
1/2-x,1/2-y,1/2+z
1/2+y,1/2-x,1/2+z
1/2+x,1/2-y,-z
1/2-x,1/2+y,-z
1/2+y,1/2+x,-z
1/2-y,1/2-x,-z
1/2-x,1/2-y,1/2-z
1/2+y,1/2-x,1/2-z
1/2+x,1/2+y,1/2-z
1/2-y,1/2+x,1/2-z
1/2-x,1/2+y,z
1/2+x,1/2-y,z
1/2-y,1/2-x,z
1/2+y,1/2+x,z
loop_
_atom_site_type_symbol
_atom_site_label
_atom_site_fract_x
_atom_site_fract_y
_atom_site_fract_z
Si Si1 0.333167 0.477945 0.593331
Si Si2 0.003543 0.333146 0.000000
Si Si3 0.236913 0.907650 0.713637
O O1 0.411621 0.385065 0.578559
O O2 0.230762 0.474972 0.555823
O O3 0.306156 0.464860 0.658617
O O4 0.932154 0.432154 0.000000
O O5 0.123353 0.376648 0.000000
O O6 0.144215 0.855786 0.750000
O O7 0.322820 0.822820 0.696751
O O8 0.288879 0.000000 0.750000
#
# Coordination Sequence:
#
# PCOD8320511 Si02
#       3
#    32  16  32
#     4  11  23  41  69  97 126 167 221 275 325 390
#     4  11  26  45  64  92 134 177 216 269 336 400
#     4  11  23  40  65  96 132 174 218 271 335 395
#
# _framework density 20.451578000000001
#
# number of rings (size 3 to 8) (size 9 to 14) (size 15 to 20)
#    0.000    1.000    4.000    2.400    0.000    8.800 
#    0.000    0.000    0.000    0.000    0.000    0.000 
#    0.000    0.000    0.000    0.000    0.000    0.000 
#
# Total GULP energy -495960.094859 kJ/mol
# GULP energy per Si atom -12399.002371 kJ/mol
# Density = 2.040503 g / cm^3
# Si number density = 20.451578 Si / 1000 Ang^3
#
#
#
# Elastic Constant Matrix: (Units=GPa)
#
#
# Indices 1 2 3 4 5 6 
#
# 1 104.0174 46.2633 48.0253 0.0000 0.0000 0.0000
# 2 46.2633 104.0185 48.0263 0.0000 0.0000 0.0000
# 3 48.0253 48.0263 118.5631 0.0000 0.0000 0.0000
# 4 0.0000 0.0000 0.0000 19.2571 0.0000 0.0000
# 5 0.0000 0.0000 0.0000 0.0000 19.2558 0.0000
# 6 0.0000 0.0000 0.0000 0.0000 0.0000 14.5912
#
#
#
# Elastic Compliance Matrix: (Units=1/GPa)
#
#
# Indices 1 2 3 4 5 6 
#
# 1 0.013147 -0.004168 -0.003637 0.000000 0.000000 0.000000
# 2 -0.004168 0.013147 -0.003637 0.000000 0.000000 0.000000
# 3 -0.003637 -0.003637 0.011381 0.000000 0.000000 0.000000
# 4 0.000000 0.000000 0.000000 0.051929 0.000000 0.000000
# 5 0.000000 0.000000 0.000000 0.000000 0.051932 0.000000
# 6 0.000000 0.000000 0.000000 0.000000 0.000000 0.068534
#
#
# Mechanical properties :
#
#
# Convention : Reuss Voigt Hill
#
# Bulk Modulus (GPa) = 67.61173 67.91432 67.76303
# Shear Modulus (GPa) = 21.01868 22.90643 21.96255
#
# Velocity S-wave (km/s) = 3.20930 3.35032 3.28057
# Velocity P-wave (km/s) = 6.84573 6.94591 6.89600
#
# Compressibility (1/GPa) = 0.01479033
#
# Stress axis : x y z
#
# Youngs Moduli (GPa) = 76.06464 76.06490 87.86762
#
# Poissons Ratio (x) = 0.31703 0.31957
# Poissons Ratio (y) = 0.31703 0.31958
# Poissons Ratio (z) = 0.27664 0.27665
#
# Static dielectric constant tensor:
#      x y z
#    x 3.708800 0.000000 0.000000 
#    y 0.000000 3.708800 0.000000 
#    z 0.000000 0.000000 3.758830 
# 
# 
# High freq. dielectric constant tensor:
#      x y z
#    x 1.802500 0.000000 0.000000 
#    y 0.000000 1.802500 0.000000 
#    z 0.000000 0.000000 1.811090 
# 
# From -- ./inp_files/7500.got.cif
#   From: 2010.06.25/outbox.cif.g09.slc.cpg/sg140_4_cif.got.tgz:7500.got - 2010.06.28 10:53:23.
