data_PCOD8320058
_publ_section_title
;
Structure prediction by ZEFSAII (Michael W. Deem and Ramdas Pophale) SiO2 
 PCOD8320058
Probable space group: I 4/M C M
;
_chemical_formula_sum "Si O2"
_cell_formula_units_Z 128
_cell_length_a 28.710371
_cell_length_b 28.710371
_cell_length_c 9.938002
_cell_angle_alpha 90.000000
_cell_angle_beta 90.000000
_cell_angle_gamma 90.000000
_cell_volume 8191.749983
_symmetry_space_group_name_H-M "I 4/M C M"
_symmetry_group_IT_number 140
_symmetry_cell_setting 'tetragonal'
loop_
_space_group_symop_operation_xyz
x,y,z
-y,x,z
-x,-y,z
y,-x,z
x,-y,1/2-z
-x,y,1/2-z
y,x,1/2-z
-y,-x,1/2-z
-x,-y,-z
y,-x,-z
x,y,-z
-y,x,-z
-x,y,1/2+z
x,-y,1/2+z
-y,-x,1/2+z
y,x,1/2+z
1/2+x,1/2+y,1/2+z
1/2-y,1/2+x,1/2+z
1/2-x,1/2-y,1/2+z
1/2+y,1/2-x,1/2+z
1/2+x,1/2-y,-z
1/2-x,1/2+y,-z
1/2+y,1/2+x,-z
1/2-y,1/2-x,-z
1/2-x,1/2-y,1/2-z
1/2+y,1/2-x,1/2-z
1/2+x,1/2+y,1/2-z
1/2-y,1/2+x,1/2-z
1/2-x,1/2+y,z
1/2+x,1/2-y,z
1/2-y,1/2-x,z
1/2+y,1/2+x,z
loop_
_atom_site_type_symbol
_atom_site_label
_atom_site_fract_x
_atom_site_fract_y
_atom_site_fract_z
Si Si1 0.140899 0.965134 0.642674
Si Si2 0.461460 0.748556 0.347303
Si Si3 0.720053 0.220053 0.849533
Si Si4 0.236996 0.122010 0.348814
Si Si5 0.364068 0.364068 0.250000
O O1 0.118039 0.978355 0.500000
O O2 0.195361 0.976585 0.636822
O O3 0.133854 0.910352 0.661364
O O4 0.116955 0.000000 0.750000
O O5 0.500000 0.773400 0.250000
O O6 0.458434 0.770425 0.500000
O O7 0.412696 0.752526 0.268971
O O8 0.750000 0.250000 0.750000
O O9 0.729829 0.165929 0.825558
O O10 0.734717 0.234717 0.000000
O O11 0.244505 0.101313 0.500000
O O12 0.182510 0.135964 0.339855
#
# Coordination Sequence:
#
# PCOD8320058 Si02
#       5
#    32  32  16  32  16
#     4   9  18  29  42  61  80 100 124 160 207 255
#     4   9  17  29  45  64  85 108 138 175 217 259
#     4  10  20  32  44  62  88 122 156 187 218 257
#     4  10  19  30  45  64  88 115 146 182 218 257
#     4  10  18  29  48  63  80 102 140 172 212 258
#
# _framework density 15.625476000000001
#
# number of rings (size 3 to 8) (size 9 to 14) (size 15 to 20)
#    0.000    2.500    1.250    1.500    0.000    9.000 
#    0.000    0.000    0.000    0.375    0.000    1.750 
#    0.000    0.000    0.000    0.000    0.000    0.625 
#
# Total GULP energy -792865.858259 kJ/mol
# GULP energy per Si atom -12388.529035 kJ/mol
# Density = 1.558991 g / cm^3
# Si number density = 15.625476 Si / 1000 Ang^3
#
#
#
# Elastic Constant Matrix: (Units=GPa)
#
#
# Indices 1 2 3 4 5 6 
#
# 1 53.3283 38.3466 48.3193 0.0000 0.0000 0.0000
# 2 38.3466 53.3283 48.3193 0.0000 0.0000 0.0000
# 3 48.3193 48.3193 163.3001 0.0000 0.0000 0.0000
# 4 0.0000 0.0000 0.0000 13.0919 0.0000 0.0000
# 5 0.0000 0.0000 0.0000 0.0000 13.0919 0.0000
# 6 0.0000 0.0000 0.0000 0.0000 0.0000 8.8604
#
#
#
# Elastic Compliance Matrix: (Units=1/GPa)
#
#
# Indices 1 2 3 4 5 6 
#
# 1 0.041301 -0.025448 -0.004691 0.000000 0.000000 0.000000
# 2 -0.025448 0.041301 -0.004691 0.000000 0.000000 0.000000
# 3 -0.004691 -0.004691 0.008900 0.000000 0.000000 0.000000
# 4 0.000000 0.000000 0.000000 0.076383 0.000000 0.000000
# 5 0.000000 0.000000 0.000000 0.000000 0.076383 0.000000
# 6 0.000000 0.000000 0.000000 0.000000 0.000000 0.112862
#
#
# Mechanical properties :
#
#
# Convention : Reuss Voigt Hill
#
# Bulk Modulus (GPa) = 45.78270 59.99190 52.88730
# Shear Modulus (GPa) = 11.51894 16.00694 13.76294
#
# Velocity S-wave (km/s) = 2.71807 3.20412 2.97105
# Velocity P-wave (km/s) = 6.26212 7.22257 6.75943
#
# Compressibility (1/GPa) = 0.02184231
#
# Stress axis : x y z
#
# Youngs Moduli (GPa) = 24.21273 24.21273 112.36449
#
# Poissons Ratio (x) = 0.61616 0.52707
# Poissons Ratio (y) = 0.61616 0.52707
# Poissons Ratio (z) = 0.11358 0.11358
#
# Static dielectric constant tensor:
#      x y z
#    x 2.738970 0.000000 0.000000 
#    y 0.000000 2.738970 0.000000 
#    z 0.000000 0.000000 3.469070 
# 
# 
# High freq. dielectric constant tensor:
#      x y z
#    x 1.560480 0.000000 0.000000 
#    y 0.000000 1.560480 0.000000 
#    z 0.000000 0.000000 1.625940 
# 
# From -- ./inp_files/1527.got.cif
#   From: 2010.06.25/outbox.cif.g09.slc.cpg/sg140_1_cif.got.tgz:1527.got - 2010.06.28 10:53:23.
