data_PCOD8320073
_publ_section_title
;
Structure prediction by ZEFSAII (Michael W. Deem and Ramdas Pophale) SiO2 
 PCOD8320073
Probable space group: I 4/M C M
;
_chemical_formula_sum "Si O2"
_cell_formula_units_Z 160
_cell_length_a 32.091532
_cell_length_b 32.091532
_cell_length_c 8.587337
_cell_angle_alpha 90.000000
_cell_angle_beta 90.000000
_cell_angle_gamma 90.000000
_cell_volume 8843.810066
_symmetry_space_group_name_H-M "I 4/M C M"
_symmetry_group_IT_number 140
_symmetry_cell_setting 'tetragonal'
loop_
_space_group_symop_operation_xyz
x,y,z
-y,x,z
-x,-y,z
y,-x,z
x,-y,1/2-z
-x,y,1/2-z
y,x,1/2-z
-y,-x,1/2-z
-x,-y,-z
y,-x,-z
x,y,-z
-y,x,-z
-x,y,1/2+z
x,-y,1/2+z
-y,-x,1/2+z
y,x,1/2+z
1/2+x,1/2+y,1/2+z
1/2-y,1/2+x,1/2+z
1/2-x,1/2-y,1/2+z
1/2+y,1/2-x,1/2+z
1/2+x,1/2-y,-z
1/2-x,1/2+y,-z
1/2+y,1/2+x,-z
1/2-y,1/2-x,-z
1/2-x,1/2-y,1/2-z
1/2+y,1/2-x,1/2-z
1/2+x,1/2+y,1/2-z
1/2-y,1/2+x,1/2-z
1/2-x,1/2+y,z
1/2+x,1/2-y,z
1/2-y,1/2-x,z
1/2+y,1/2+x,z
loop_
_atom_site_type_symbol
_atom_site_label
_atom_site_fract_x
_atom_site_fract_y
_atom_site_fract_z
Si Si1 0.114790 0.262759 0.184254
Si Si2 0.175592 0.675592 0.819084
Si Si3 0.045929 0.109082 0.184489
Si Si4 0.113886 0.613886 0.320876
Si Si5 0.672149 0.044942 0.822210
Si Si6 0.889973 0.172171 0.183696
O O1 0.159138 0.282337 0.236129
O O2 0.077161 0.293045 0.239737
O O3 0.108075 0.220399 0.275989
O O4 0.114914 0.255205 0.000000
O O5 0.140485 0.640485 0.799867
O O6 0.184278 0.684278 0.000000
O O7 0.067643 0.067643 0.250000
O O8 0.070542 0.150035 0.238200
O O9 0.000000 0.112004 0.250000
O O10 0.045115 0.106936 0.000000
O O11 0.126512 0.626512 0.500000
O O12 0.065291 0.625832 0.294193
O O13 0.675193 0.000000 0.750000
O O14 0.681125 0.037229 0.000000
O O15 0.847314 0.152687 0.250000
O O16 0.891817 0.165087 0.000000
#
# Coordination Sequence:
#
# PCOD8320073 Si02
#       6
#    32  16  32  16  32  32
#     4  10  20  36  54  75 106 143 175 214 264 315
#     4  10  18  30  51  79 103 131 174 221 262 309
#     4  11  22  39  60  84 111 143 180 221 267 318
#     4   8  16  32  48  66  98 140 171 205 260 317
#     4   9  18  31  50  74 102 132 169 212 259 308
#     4  11  22  38  58  81 108 142 179 217 261 316
#
# _framework density 18.091750999999999
#
# number of rings (size 3 to 8) (size 9 to 14) (size 15 to 20)
#    0.000    2.000    0.000    7.500    0.000    5.000 
#    0.000    3.500    0.000    0.300    0.000    2.100 
#    0.000    0.000    0.000    0.000    0.000    0.000 
#
# Total GULP energy -991684.658703 kJ/mol
# GULP energy per Si atom -12396.058234 kJ/mol
# Density = 1.805057 g / cm^3
# Si number density = 18.091751 Si / 1000 Ang^3
#
#
#
# Elastic Constant Matrix: (Units=GPa)
#
#
# Indices 1 2 3 4 5 6 
#
# 1 54.2219 124.7517 40.3744 0.0000 0.0000 0.0000
# 2 124.7517 54.1846 40.3610 0.0000 0.0000 0.0000
# 3 40.3744 40.3610 116.3620 0.0000 0.0000 0.0000
# 4 0.0000 0.0000 0.0000 31.9120 0.0000 0.0000
# 5 0.0000 0.0000 0.0000 0.0000 31.9123 0.0000
# 6 0.0000 0.0000 0.0000 0.0000 0.0000 14.6933
#
#
#
# Elastic Compliance Matrix: (Units=1/GPa)
#
#
# Indices 1 2 3 4 5 6 
#
# 1 -0.003774 0.010400 -0.002298 0.000000 0.000000 0.000000
# 2 0.010400 -0.003776 -0.002299 0.000000 0.000000 0.000000
# 3 -0.002298 -0.002299 0.010188 0.000000 0.000000 0.000000
# 4 0.000000 0.000000 0.000000 0.031336 0.000000 0.000000
# 5 0.000000 0.000000 0.000000 0.000000 0.031336 0.000000
# 6 0.000000 0.000000 0.000000 0.000000 0.000000 0.068058
#
#
# Mechanical properties :
#
#
# Convention : Reuss Voigt Hill
#
# Bulk Modulus (GPa) = 70.19936 70.63807 70.41872
# Shear Modulus (GPa) = 39.52225 16.98894 28.25560
#
# Velocity S-wave (km/s) = 4.67898 3.06771 3.95624
# Velocity P-wave (km/s) = 8.25085 7.18866 7.73801
#
# Compressibility (1/GPa) = 0.01424514
#
# Stress axis : x y z
#
# Youngs Moduli (GPa) = -265.00000 -264.81547 98.15013
#
# Poissons Ratio (x) = 2.75402 0.22554
# Poissons Ratio (y) = 2.75594 0.22561
# Poissons Ratio (z) = -0.60894 -0.60871
#
# Static dielectric constant tensor:
#      x y z
#    x 2.434770 0.000000 0.000000 
#    y 0.000000 2.434670 0.000000 
#    z 0.000000 0.000000 3.421380 
# 
# 
# High freq. dielectric constant tensor:
#      x y z
#    x 1.693570 0.000000 0.000000 
#    y 0.000000 1.693570 0.000000 
#    z 0.000000 0.000000 1.713830 
# 
# From -- ./inp_files/1873.got.cif
#   From: 2010.06.25/outbox.cif.g09.slc.cpg/sg140_1_cif.got.tgz:1873.got - 2010.06.28 10:53:23.
