data_PCOD8320056
_publ_section_title
;
Structure prediction by ZEFSAII (Michael W. Deem and Ramdas Pophale) SiO2 
 PCOD8320056
Probable space group: I 4/M C M
;
_chemical_formula_sum "Si O2"
_cell_formula_units_Z 192
_cell_length_a 23.725426
_cell_length_b 23.725426
_cell_length_c 24.148351
_cell_angle_alpha 90.000000
_cell_angle_beta 90.000000
_cell_angle_gamma 90.000000
_cell_volume 13593.006294
_symmetry_space_group_name_H-M "I 4/M C M"
_symmetry_group_IT_number 140
_symmetry_cell_setting 'tetragonal'
loop_
_space_group_symop_operation_xyz
x,y,z
-y,x,z
-x,-y,z
y,-x,z
x,-y,1/2-z
-x,y,1/2-z
y,x,1/2-z
-y,-x,1/2-z
-x,-y,-z
y,-x,-z
x,y,-z
-y,x,-z
-x,y,1/2+z
x,-y,1/2+z
-y,-x,1/2+z
y,x,1/2+z
1/2+x,1/2+y,1/2+z
1/2-y,1/2+x,1/2+z
1/2-x,1/2-y,1/2+z
1/2+y,1/2-x,1/2+z
1/2+x,1/2-y,-z
1/2-x,1/2+y,-z
1/2+y,1/2+x,-z
1/2-y,1/2-x,-z
1/2-x,1/2-y,1/2-z
1/2+y,1/2-x,1/2-z
1/2+x,1/2+y,1/2-z
1/2-y,1/2+x,1/2-z
1/2-x,1/2+y,z
1/2+x,1/2-y,z
1/2-y,1/2-x,z
1/2+y,1/2+x,z
loop_
_atom_site_type_symbol
_atom_site_label
_atom_site_fract_x
_atom_site_fract_y
_atom_site_fract_z
Si Si1 0.658435 0.064565 0.383719
Si Si2 0.782448 0.376992 0.693881
Si Si3 0.188750 0.406281 0.500000
Si Si4 0.808617 0.786402 0.883307
Si Si5 0.626754 0.032246 0.192030
Si Si6 0.233645 0.361385 0.314907
Si Si7 0.720387 0.684695 0.500000
O O1 0.615270 0.115270 0.386044
O O2 0.681876 0.054054 0.445854
O O3 0.710209 0.081975 0.343876
O O4 0.626200 0.010348 0.359630
O O5 0.828445 0.328445 0.694486
O O6 0.738898 0.366000 0.643314
O O7 0.813352 0.436505 0.687867
O O8 0.748943 0.375651 0.752002
O O9 0.142132 0.357869 0.500000
O O10 0.250260 0.376729 0.500000
O O11 0.760362 0.739639 0.882650
O O12 0.788713 0.839609 0.846855
O O13 0.819232 0.807428 0.946032
O O14 0.574475 0.074475 0.185555
O O15 0.620794 0.000000 0.250000
O O16 0.185683 0.314318 0.316235
O O17 0.769035 0.730966 0.500000
#
# Coordination Sequence:
#
# PCOD8320056 Si02
#       7
#    32  32  16  32  32  32  16
#     4  10  18  29  44  61  77  99 138 187 225 249
#     4   9  17  27  38  57  81 103 127 164 213 259
#     4   9  16  28  44  60  79  98 127 174 216 254
#     4   9  15  23  38  60  83 100 120 155 204 260
#     4  11  21  32  44  57  77 108 149 192 228 256
#     4   9  14  23  40  60  80  97 119 162 216 260
#     4   9  14  22  39  61  80 101 124 151 195 255
#
# _framework density 14.124911000000001
#
# number of rings (size 3 to 8) (size 9 to 14) (size 15 to 20)
#    0.000    2.500    3.333    1.000    0.000    3.167 
#    0.000    1.250    0.000    3.500    0.000    0.000 
#    0.000    0.000    0.000    0.000    0.000    0.833 
#
# Total GULP energy -1189783.701831 kJ/mol
# GULP energy per Si atom -12393.580227 kJ/mol
# Density = 1.409276 g / cm^3
# Si number density = 14.124911 Si / 1000 Ang^3
#
#
#
# Elastic Constant Matrix: (Units=GPa)
#
#
# Indices 1 2 3 4 5 6 
#
# 1 29.1745 28.2916 30.4725 0.0000 0.0000 0.0000
# 2 28.2916 29.1749 30.4723 0.0000 0.0000 0.0000
# 3 30.4725 30.4723 130.1588 0.0000 0.0000 0.0000
# 4 0.0000 0.0000 0.0000 17.5013 0.0000 0.0000
# 5 0.0000 0.0000 0.0000 0.0000 17.5012 0.0000
# 6 0.0000 0.0000 0.0000 0.0000 0.0000 20.7033
#
#
#
# Elastic Compliance Matrix: (Units=1/GPa)
#
#
# Indices 1 2 3 4 5 6 
#
# 1 0.577748 -0.554593 -0.005421 0.000000 0.000000 0.000000
# 2 -0.554593 0.577737 -0.005418 0.000000 0.000000 0.000000
# 3 -0.005421 -0.005418 0.010221 0.000000 0.000000 0.000000
# 4 0.000000 0.000000 0.000000 0.057138 0.000000 0.000000
# 5 0.000000 0.000000 0.000000 0.000000 0.057139 0.000000
# 6 0.000000 0.000000 0.000000 0.000000 0.000000 0.048301
#
#
# Mechanical properties :
#
#
# Convention : Reuss Voigt Hill
#
# Bulk Modulus (GPa) = 28.70226 40.77566 34.73896
# Shear Modulus (GPa) = 2.02367 17.75929 9.89148
#
# Velocity S-wave (km/s) = 1.19825 3.54969 2.64916
# Velocity P-wave (km/s) = 4.72005 6.76247 5.83137
#
# Compressibility (1/GPa) = 0.03484046
#
# Stress axis : x y z
#
# Youngs Moduli (GPa) = 1.73086 1.73089 97.84182
#
# Poissons Ratio (x) = 0.95994 0.53044
# Poissons Ratio (y) = 0.95992 0.53009
# Poissons Ratio (z) = 0.00938 0.00938
#
# Static dielectric constant tensor:
#      x y z
#    x 2.545260 0.000000 0.000000 
#    y 0.000000 2.545260 0.000000 
#    z 0.000000 0.000000 3.131130 
# 
# 
# High freq. dielectric constant tensor:
#      x y z
#    x 1.495890 0.000000 0.000000 
#    y 0.000000 1.495890 0.000000 
#    z 0.000000 0.000000 1.556760 
# 
# From -- ./inp_files/9905.got.cif
#   From: 2010.06.25/outbox.cif.g09.slc.cpg/sg140_5_cif.got.tgz:9905.got - 2010.06.28 10:53:23.
