data_PCOD8320895
_publ_section_title
;
Structure prediction by ZEFSAII (Michael W. Deem and Ramdas Pophale) SiO2 
 PCOD8320895
Probable space group: I 41/A M D
;
_chemical_formula_sum "Si O2"
_cell_formula_units_Z 84
_cell_length_a 22.588232
_cell_length_b 22.588232
_cell_length_c 8.438772
_cell_angle_alpha 90.000000
_cell_angle_beta 90.000000
_cell_angle_gamma 90.000000
_cell_volume 4305.699658
_symmetry_space_group_name_H-M "I 41/A M D"
_symmetry_group_IT_number 141
_space_group.IT_coordinate_system_code '2'
_symmetry_cell_setting 'tetragonal'
loop_
_space_group_symop_operation_xyz
x,y,z
1/4-y,3/4+x,1/4+z
-x,1/2-y,z
1/4+y,1/4-x,3/4+z
x,-y,-z
-x,1/2+y,-z
1/4+y,3/4+x,1/4-z
1/4-y,1/4-x,3/4-z
-x,-y,-z
3/4+y,1/4-x,3/4-z
x,1/2+y,-z
3/4-y,3/4+x,1/4-z
-x,y,z
x,1/2-y,z
3/4-y,1/4-x,3/4+z
3/4+y,3/4+x,1/4+z
1/2+x,1/2+y,1/2+z
3/4-y,1/4+x,3/4+z
1/2-x,-y,1/2+z
3/4+y,3/4-x,1/4+z
1/2+x,1/2-y,1/2-z
1/2-x,y,1/2-z
3/4+y,1/4+x,3/4-z
3/4-y,3/4-x,1/4-z
1/2-x,1/2-y,1/2-z
1/4+y,3/4-x,1/4-z
1/2+x,y,1/2-z
1/4-y,1/4+x,3/4-z
1/2-x,1/2+y,1/2+z
1/2+x,-y,1/2+z
1/4-y,3/4-x,1/4+z
1/4+y,1/4+x,3/4+z
loop_
_atom_site_type_symbol
_atom_site_label
_atom_site_fract_x
_atom_site_fract_y
_atom_site_fract_z
Si Si1 0.000000 0.750000 0.125000
Si Si2 0.500000 0.152854 0.107697
Si Si3 0.379954 0.750000 0.197449
Si Si4 0.500000 0.950633 0.133319
Si Si5 0.098029 0.442751 0.893750
O O1 0.948265 0.750000 0.254167
O O2 0.441317 0.191317 0.125000
O O3 0.500000 0.112348 0.263179
O O4 0.500000 0.114564 0.947050
O O5 0.354107 0.809749 0.263425
O O6 0.560807 0.958069 0.234092
O O7 0.500000 0.000000 0.000000
O O8 0.162705 0.412705 0.875000
O O9 0.108165 0.500000 0.000000
#
# Coordination Sequence:
#
# PCOD8320895 Si02
#       5
#     4  16  16  16  32
#     4  12  20  32  66  96 132 168 202 252 296 388
#     4  11  22  32  53  88 126 156 190 240 293 359
#     4  11  21  37  59  92 127 163 202 241 311 379
#     4  11  23  40  60  89 123 155 197 252 318 361
#     4  11  23  41  64  86 118 164 213 255 309 374
#
# _framework density 19.509025000000001
#
# number of rings (size 3 to 8) (size 9 to 14) (size 15 to 20)
#    0.000    0.952    1.905    8.000    5.333    0.000 
#    0.000    1.905    0.000    0.000    0.000    0.000 
#    0.000    0.000    0.000    0.000    0.000    0.000 
#
# Total GULP energy -520529.131069 kJ/mol
# GULP energy per Si atom -12393.550740 kJ/mol
# Density = 1.946462 g / cm^3
# Si number density = 19.509025 Si / 1000 Ang^3
#
#
#
# Elastic Constant Matrix: (Units=GPa)
#
#
# Indices 1 2 3 4 5 6 
#
# 1 131.6964 62.9070 56.0126 0.0000 0.0000 0.0000
# 2 62.9070 131.6964 56.0126 0.0000 0.0000 0.0000
# 3 56.0126 56.0126 140.4222 0.0000 0.0000 0.0000
# 4 0.0000 0.0000 0.0000 -72.5303 0.0000 0.0000
# 5 0.0000 0.0000 0.0000 0.0000 -72.5303 0.0000
# 6 0.0000 0.0000 0.0000 0.0000 0.0000 29.6454
#
#
#
# Elastic Compliance Matrix: (Units=1/GPa)
#
#
# Indices 1 2 3 4 5 6 
#
# 1 0.010604 -0.003933 -0.002661 0.000000 0.000000 0.000000
# 2 -0.003933 0.010604 -0.002661 0.000000 0.000000 0.000000
# 3 -0.002661 -0.002661 0.009244 0.000000 0.000000 0.000000
# 4 0.000000 0.000000 0.000000 -0.013787 0.000000 0.000000
# 5 0.000000 0.000000 0.000000 0.000000 -0.013787 0.000000
# 6 0.000000 0.000000 0.000000 0.000000 0.000000 0.033732
#
#
# Mechanical properties :
#
#
# Convention : Reuss Voigt Hill
#
# Bulk Modulus (GPa) = 83.73919 83.74216 83.74067
# Shear Modulus (GPa) = 84.60365 -7.82421 38.38972
#
# Velocity S-wave (km/s) = 6.59246 -2.00481 4.44079
# Velocity P-wave (km/s) = 10.04808 6.13669 8.32535
#
# Compressibility (1/GPa) = 0.01194184
#
# Stress axis : x y z
#
# Youngs Moduli (GPa) = 94.30647 94.30647 108.17799
#
# Poissons Ratio (x) = 0.37095 0.28783
# Poissons Ratio (y) = 0.37095 0.28783
# Poissons Ratio (z) = 0.25092 0.25092
#
# Static dielectric constant tensor:
#      x y z
#    x 3.402060 0.000000 0.000000 
#    y 0.000000 3.402060 0.000000 
#    z 0.000000 0.000000 3.974900 
# 
# 
# High freq. dielectric constant tensor:
#      x y z
#    x 1.756840 0.000000 0.000000 
#    y 0.000000 1.756840 0.000000 
#    z 0.000000 0.000000 1.777540 
# 
# From -- ./inp_files/2417.got.cif
#   From: 2010.03.12/outbox.cif.g09.slc.cpg/sg141_2_cif.got.tgz:2417.got - 2010.04.03 13:18:35.
