data_PCOD8320806
_publ_section_title
;
Structure prediction by ZEFSAII (Michael W. Deem and Ramdas Pophale) SiO2 
 PCOD8320806
Probable space group: I 41/A M D
;
_chemical_formula_sum "Si O2"
_cell_formula_units_Z 176
_cell_length_a 26.635310
_cell_length_b 26.635310
_cell_length_c 12.011676
_cell_angle_alpha 90.000000
_cell_angle_beta 90.000000
_cell_angle_gamma 90.000000
_cell_volume 8521.560284
_symmetry_space_group_name_H-M "I 41/A M D"
_symmetry_group_IT_number 141
_space_group.IT_coordinate_system_code '2'
_symmetry_cell_setting 'tetragonal'
loop_
_space_group_symop_operation_xyz
x,y,z
1/4-y,3/4+x,1/4+z
-x,1/2-y,z
1/4+y,1/4-x,3/4+z
x,-y,-z
-x,1/2+y,-z
1/4+y,3/4+x,1/4-z
1/4-y,1/4-x,3/4-z
-x,-y,-z
3/4+y,1/4-x,3/4-z
x,1/2+y,-z
3/4-y,3/4+x,1/4-z
-x,y,z
x,1/2-y,z
3/4-y,1/4-x,3/4+z
3/4+y,3/4+x,1/4+z
1/2+x,1/2+y,1/2+z
3/4-y,1/4+x,3/4+z
1/2-x,-y,1/2+z
3/4+y,3/4-x,1/4+z
1/2+x,1/2-y,1/2-z
1/2-x,y,1/2-z
3/4+y,1/4+x,3/4-z
3/4-y,3/4-x,1/4-z
1/2-x,1/2-y,1/2-z
1/4+y,3/4-x,1/4-z
1/2+x,y,1/2-z
1/4-y,1/4+x,3/4-z
1/2-x,1/2+y,1/2+z
1/2+x,-y,1/2+z
1/4-y,3/4-x,1/4+z
1/4+y,1/4+x,3/4+z
loop_
_atom_site_type_symbol
_atom_site_label
_atom_site_fract_x
_atom_site_fract_y
_atom_site_fract_z
Si Si1 0.443416 0.494290 0.869606
Si Si2 0.693750 0.577606 0.210921
Si Si3 0.441619 0.116253 0.821115
Si Si4 0.345086 0.533994 0.783289
Si Si5 0.059838 0.693924 0.501408
Si Si6 0.377905 0.872096 0.375000
O O1 0.500000 0.502210 0.819763
O O2 0.420519 0.439256 0.845088
O O3 0.404010 0.533777 0.817691
O O4 0.446046 0.500000 0.000000
O O5 0.750000 0.583138 0.250000
O O6 0.675166 0.521855 0.237854
O O7 0.663575 0.620234 0.278877
O O8 0.685898 0.589710 0.081251
O O9 0.500000 0.116068 0.842495
O O10 0.417764 0.156619 0.907372
O O11 0.430581 0.127664 0.691240
O O12 0.311350 0.561350 0.875000
O O13 0.081318 0.750000 0.479151
O O14 0.075581 0.674420 0.625000
O O15 0.000000 0.695906 0.496541
#
# Coordination Sequence:
#
# PCOD8320806 Si02
#       6
#    32  32  32  32  32  16
#     4  10  21  41  62  87 126 166 202 247 309 373
#     4  12  21  39  60  87 127 158 193 261 324 372
#     4  10  21  39  61  85 124 172 212 253 306 373
#     4  12  23  37  65  98 121 154 207 259 316 383
#     4   8  15  32  61  94 125 157 199 259 322 368
#     4  12  24  40  58  85 122 168 212 252 316 366
#
# _framework density 20.653493999999998
#
# number of rings (size 3 to 8) (size 9 to 14) (size 15 to 20)
#    0.000    1.455    3.636    3.273    0.000    0.727 
#    3.273    0.909    0.000    3.273    0.000    0.000 
#    0.000    0.364    0.000    0.000    0.000    0.000 
#
# Total GULP energy -1090884.262135 kJ/mol
# GULP energy per Si atom -12396.412070 kJ/mol
# Density = 2.060649 g / cm^3
# Si number density = 20.653494 Si / 1000 Ang^3
#
#
#
# Elastic Constant Matrix: (Units=GPa)
#
#
# Indices 1 2 3 4 5 6 
#
# 1 34.3361 23.6961 21.3471 0.0000 0.0000 0.0000
# 2 23.6961 34.3360 21.3463 0.0000 0.0000 0.0000
# 3 21.3471 21.3463 145.3405 0.0000 0.0000 0.0000
# 4 0.0000 0.0000 0.0000 37.2898 0.0000 0.0000
# 5 0.0000 0.0000 0.0000 0.0000 37.2903 0.0000
# 6 0.0000 0.0000 0.0000 0.0000 0.0000 11.7873
#
#
#
# Elastic Compliance Matrix: (Units=1/GPa)
#
#
# Indices 1 2 3 4 5 6 
#
# 1 0.056652 -0.037333 -0.002838 0.000000 0.000000 0.000000
# 2 -0.037333 0.056652 -0.002837 0.000000 0.000000 0.000000
# 3 -0.002838 -0.002837 0.007714 0.000000 0.000000 0.000000
# 4 0.000000 0.000000 0.000000 0.026817 0.000000 0.000000
# 5 0.000000 0.000000 0.000000 0.000000 0.026817 0.000000
# 6 0.000000 0.000000 0.000000 0.000000 0.000000 0.084837
#
#
# Mechanical properties :
#
#
# Convention : Reuss Voigt Hill
#
# Bulk Modulus (GPa) = 28.56933 38.53238 33.55086
# Shear Modulus (GPa) = 13.99883 27.11501 20.55692
#
# Velocity S-wave (km/s) = 2.60627 3.62726 3.15830
# Velocity P-wave (km/s) = 4.78744 6.01995 5.43872
#
# Compressibility (1/GPa) = 0.03500257
#
# Stress axis : x y z
#
# Youngs Moduli (GPa) = 17.65151 17.65159 129.63605
#
# Poissons Ratio (x) = 0.65899 0.36788
# Poissons Ratio (y) = 0.65898 0.36781
# Poissons Ratio (z) = 0.05009 0.05008
#
# Static dielectric constant tensor:
#      x y z
#    x 3.923140 0.000000 0.000000 
#    y 0.000000 3.923170 0.000000 
#    z 0.000000 0.000000 3.968570 
# 
# 
# High freq. dielectric constant tensor:
#      x y z
#    x 1.799560 0.000000 0.000000 
#    y 0.000000 1.799560 0.000000 
#    z 0.000000 0.000000 1.813780 
# 
# From -- ./inp_files/5044.got.cif
#   From: 2010.03.12/outbox.cif.g09.slc.cpg/sg141_3_cif.got.tgz:5044.got - 2010.04.03 13:18:35.
