data_PCOD8320392
_publ_section_title
;
Structure prediction by ZEFSAII (Michael W. Deem and Ramdas Pophale) SiO2 
 PCOD8320392
Probable space group: I 4/M C M
;
_chemical_formula_sum "Si O2"
_cell_formula_units_Z 160
_cell_length_a 21.753414
_cell_length_b 21.753414
_cell_length_c 16.646267
_cell_angle_alpha 90.000000
_cell_angle_beta 90.000000
_cell_angle_gamma 90.000000
_cell_volume 7877.196997
_symmetry_space_group_name_H-M "I 4/M C M"
_symmetry_group_IT_number 140
_symmetry_cell_setting 'tetragonal'
loop_
_space_group_symop_operation_xyz
x,y,z
-y,x,z
-x,-y,z
y,-x,z
x,-y,1/2-z
-x,y,1/2-z
y,x,1/2-z
-y,-x,1/2-z
-x,-y,-z
y,-x,-z
x,y,-z
-y,x,-z
-x,y,1/2+z
x,-y,1/2+z
-y,-x,1/2+z
y,x,1/2+z
1/2+x,1/2+y,1/2+z
1/2-y,1/2+x,1/2+z
1/2-x,1/2-y,1/2+z
1/2+y,1/2-x,1/2+z
1/2+x,1/2-y,-z
1/2-x,1/2+y,-z
1/2+y,1/2+x,-z
1/2-y,1/2-x,-z
1/2-x,1/2-y,1/2-z
1/2+y,1/2-x,1/2-z
1/2+x,1/2+y,1/2-z
1/2-y,1/2+x,1/2-z
1/2-x,1/2+y,z
1/2+x,1/2-y,z
1/2-y,1/2-x,z
1/2+y,1/2+x,z
loop_
_atom_site_type_symbol
_atom_site_label
_atom_site_fract_x
_atom_site_fract_y
_atom_site_fract_z
Si Si1 0.408008 0.342367 0.904340
Si Si2 0.155846 0.752569 0.208643
Si Si3 0.047834 0.714013 0.685991
Si Si4 0.997386 0.400173 0.910050
Si Si5 0.168439 0.044590 0.593001
O O1 0.384782 0.279212 0.864036
O O2 0.370825 0.400324 0.867766
O O3 0.478173 0.354841 0.877944
O O4 0.401592 0.333618 0.000000
O O5 0.190697 0.809304 0.250000
O O6 0.205483 0.705483 0.171804
O O7 0.114475 0.713152 0.271479
O O8 0.020932 0.649385 0.654446
O O9 0.053015 0.759861 0.611299
O O10 0.000000 0.741441 0.750000
O O11 0.047799 0.452202 0.913782
O O12 0.932219 0.432219 0.883546
O O13 0.989980 0.371582 0.000000
O O14 0.157919 0.051320 0.500000
#
# Coordination Sequence:
#
# PCOD8320392 Si02
#       5
#    32  32  32  32  32
#     4  10  21  40  63  88 121 158 198 246 305 368
#     4  11  23  39  59  87 123 160 204 255 304 363
#     4  12  22  36  61  86 119 160 204 250 308 368
#     4   9  20  40  62  85 117 156 203 260 314 367
#     4  10  21  38  61  88 118 154 197 245 299 367
#
# _framework density 20.311793000000002
#
# number of rings (size 3 to 8) (size 9 to 14) (size 15 to 20)
#    0.000    1.600    4.000    1.800    0.000    2.400 
#    0.000    3.000    0.000    0.000    0.000    0.000 
#    0.000    0.000    0.000    0.000    0.000    0.000 
#
# Total GULP energy -991486.795492 kJ/mol
# GULP energy per Si atom -12393.584944 kJ/mol
# Density = 2.026556 g / cm^3
# Si number density = 20.311793 Si / 1000 Ang^3
#
#
#
# Elastic Constant Matrix: (Units=GPa)
#
#
# Indices 1 2 3 4 5 6 
#
# 1 119.9752 55.3481 45.8949 0.0000 0.0000 0.0000
# 2 55.3481 119.9746 45.8948 0.0000 0.0000 0.0000
# 3 45.8949 45.8948 53.9867 0.0000 0.0000 0.0000
# 4 0.0000 0.0000 0.0000 31.8300 0.0000 0.0000
# 5 0.0000 0.0000 0.0000 0.0000 31.8304 0.0000
# 6 0.0000 0.0000 0.0000 0.0000 0.0000 41.2120
#
#
#
# Elastic Compliance Matrix: (Units=1/GPa)
#
#
# Indices 1 2 3 4 5 6 
#
# 1 0.012876 -0.002598 -0.008738 0.000000 0.000000 0.000000
# 2 -0.002598 0.012876 -0.008738 0.000000 0.000000 0.000000
# 3 -0.008738 -0.008738 0.033379 0.000000 0.000000 0.000000
# 4 0.000000 0.000000 0.000000 0.031417 0.000000 0.000000
# 5 0.000000 0.000000 0.000000 0.000000 0.031417 0.000000
# 6 0.000000 0.000000 0.000000 0.000000 0.000000 0.024265
#
#
# Mechanical properties :
#
#
# Convention : Reuss Voigt Hill
#
# Bulk Modulus (GPa) = 52.67340 65.35688 59.01514
# Shear Modulus (GPa) = 25.94652 30.76105 28.35379
#
# Velocity S-wave (km/s) = 3.57797 3.89581 3.74026
# Velocity P-wave (km/s) = 6.56185 7.24452 6.91162
#
# Compressibility (1/GPa) = 0.01898491
#
# Stress axis : x y z
#
# Youngs Moduli (GPa) = 77.66447 77.66413 29.95862
#
# Poissons Ratio (x) = 0.20173 0.26177
# Poissons Ratio (y) = 0.20173 0.26177
# Poissons Ratio (z) = 0.67862 0.67862
#
# Static dielectric constant tensor:
#      x y z
#    x 3.839650 0.000000 0.000000 
#    y 0.000000 3.839660 0.000000 
#    z 0.000000 0.000000 3.626490 
# 
# 
# High freq. dielectric constant tensor:
#      x y z
#    x 1.797780 0.000000 0.000000 
#    y 0.000000 1.797780 0.000000 
#    z 0.000000 0.000000 1.782620 
# 
# From -- ./inp_files/6857.got.cif
#   From: 2010.06.25/outbox.cif.g09.slc.cpg/sg140_4_cif.got.tgz:6857.got - 2010.06.28 10:53:23.
