data_PCOD8320586
_publ_section_title
;
Structure prediction by ZEFSAII (Michael W. Deem and Ramdas Pophale) SiO2 
 PCOD8320586
Probable space group: I 41/A M D
;
_chemical_formula_sum "Si O2"
_cell_formula_units_Z 192
_cell_length_a 19.569885
_cell_length_b 19.569885
_cell_length_c 27.845552
_cell_angle_alpha 90.000000
_cell_angle_beta 90.000000
_cell_angle_gamma 90.000000
_cell_volume 10664.300613
_symmetry_space_group_name_H-M "I 41/A M D"
_symmetry_group_IT_number 141
_space_group.IT_coordinate_system_code '2'
_symmetry_cell_setting 'tetragonal'
loop_
_space_group_symop_operation_xyz
x,y,z
1/4-y,3/4+x,1/4+z
-x,1/2-y,z
1/4+y,1/4-x,3/4+z
x,-y,-z
-x,1/2+y,-z
1/4+y,3/4+x,1/4-z
1/4-y,1/4-x,3/4-z
-x,-y,-z
3/4+y,1/4-x,3/4-z
x,1/2+y,-z
3/4-y,3/4+x,1/4-z
-x,y,z
x,1/2-y,z
3/4-y,1/4-x,3/4+z
3/4+y,3/4+x,1/4+z
1/2+x,1/2+y,1/2+z
3/4-y,1/4+x,3/4+z
1/2-x,-y,1/2+z
3/4+y,3/4-x,1/4+z
1/2+x,1/2-y,1/2-z
1/2-x,y,1/2-z
3/4+y,1/4+x,3/4-z
3/4-y,3/4-x,1/4-z
1/2-x,1/2-y,1/2-z
1/4+y,3/4-x,1/4-z
1/2+x,y,1/2-z
1/4-y,1/4+x,3/4-z
1/2-x,1/2+y,1/2+z
1/2+x,-y,1/2+z
1/4-y,3/4-x,1/4+z
1/4+y,1/4+x,3/4+z
loop_
_atom_site_type_symbol
_atom_site_label
_atom_site_fract_x
_atom_site_fract_y
_atom_site_fract_z
Si Si1 0.679534 0.578533 0.009820
Si Si2 0.168283 0.826191 0.248206
Si Si3 0.249357 0.079995 0.083501
Si Si4 0.079658 0.622250 0.337207
Si Si5 0.578476 0.324893 0.941135
Si Si6 0.190378 0.557906 0.180426
O O1 0.613176 0.617755 0.026737
O O2 0.735784 0.590134 0.051636
O O3 0.660844 0.500000 0.000000
O O4 0.704308 0.609807 0.959198
O O5 0.144582 0.750000 0.233043
O O6 0.250000 0.827530 0.250000
O O7 0.127086 0.845260 0.296218
O O8 0.150653 0.881670 0.207608
O O9 0.295488 0.045488 0.125000
O O10 0.203582 0.142981 0.101802
O O11 0.197902 0.022545 0.060545
O O12 0.088806 0.667572 0.384255
O O13 0.000000 0.618506 0.321170
O O14 0.500000 0.331124 0.954711
O O15 0.607143 0.250000 0.954870
O O16 0.177454 0.572547 0.125000
#
# Coordination Sequence:
#
# PCOD8320586 Si02
#       6
#    32  32  32  32  32  32
#     4  10  19  34  57  82 111 146 185 236 287 339
#     4  11  21  35  55  80 113 154 198 243 293 347
#     4  10  19  35  59  85 114 146 185 238 294 344
#     4  11  21  37  57  83 118 155 195 242 295 353
#     4  10  22  38  56  82 116 149 185 233 289 352
#     4  10  18  34  55  80 115 145 189 241 287 336
#
# _framework density 18.003993000000001
#
# number of rings (size 3 to 8) (size 9 to 14) (size 15 to 20)
#    0.000    1.667    3.333    4.000    0.000    2.000 
#    0.000    1.667    0.000    0.000    0.000    1.167 
#    0.000    0.000    0.000    0.000    0.000    0.000 
#
# Total GULP energy -1189759.162583 kJ/mol
# GULP energy per Si atom -12393.324610 kJ/mol
# Density = 1.796302 g / cm^3
# Si number density = 18.003993 Si / 1000 Ang^3
#
#
#
# Elastic Constant Matrix: (Units=GPa)
#
#
# Indices 1 2 3 4 5 6 
#
# 1 95.9376 58.4173 45.7275 0.0000 0.0000 0.0000
# 2 58.4173 95.9376 45.7275 0.0000 0.0000 0.0000
# 3 45.7275 45.7275 90.0651 0.0000 0.0000 0.0000
# 4 0.0000 0.0000 0.0000 26.5688 0.0000 0.0000
# 5 0.0000 0.0000 0.0000 0.0000 26.5688 0.0000
# 6 0.0000 0.0000 0.0000 0.0000 0.0000 15.4885
#
#
#
# Elastic Compliance Matrix: (Units=1/GPa)
#
#
# Indices 1 2 3 4 5 6 
#
# 1 0.017959 -0.008693 -0.004704 0.000000 0.000000 0.000000
# 2 -0.008693 0.017959 -0.004704 0.000000 0.000000 0.000000
# 3 -0.004704 -0.004704 0.015880 0.000000 0.000000 0.000000
# 4 0.000000 0.000000 0.000000 0.037638 0.000000 0.000000
# 5 0.000000 0.000000 0.000000 0.000000 0.037638 0.000000
# 6 0.000000 0.000000 0.000000 0.000000 0.000000 0.064564
#
#
# Mechanical properties :
#
#
# Convention : Reuss Voigt Hill
#
# Bulk Modulus (GPa) = 64.12652 64.63167 64.37909
# Shear Modulus (GPa) = 21.45548 22.52977 21.99262
#
# Velocity S-wave (km/s) = 3.45586 3.54132 3.49885
# Velocity P-wave (km/s) = 7.18465 7.25932 7.22208
#
# Compressibility (1/GPa) = 0.01559417
#
# Stress axis : x y z
#
# Youngs Moduli (GPa) = 55.68216 55.68212 62.97163
#
# Poissons Ratio (x) = 0.48405 0.29625
# Poissons Ratio (y) = 0.48405 0.29625
# Poissons Ratio (z) = 0.26196 0.26196
#
# Static dielectric constant tensor:
#      x y z
#    x 3.319470 0.000000 0.000000 
#    y 0.000000 3.319470 0.000000 
#    z 0.000000 0.000000 3.288410 
# 
# 
# High freq. dielectric constant tensor:
#      x y z
#    x 1.684950 0.000000 0.000000 
#    y 0.000000 1.684950 0.000000 
#    z 0.000000 0.000000 1.697370 
# 
# From -- ./inp_files/13056.got.cif
#   From: 2010.03.12/outbox.cif.g09.slc.cpg/sg141_7_cif.got.tgz:13056.got - 2010.04.03 13:18:35.
