data_PCOD8320829
_publ_section_title
;
Structure prediction by ZEFSAII (Michael W. Deem and Ramdas Pophale) SiO2 
 PCOD8320829
Probable space group: I 41/A M D
;
_chemical_formula_sum "Si O2"
_cell_formula_units_Z 176
_cell_length_a 17.703300
_cell_length_b 17.703300
_cell_length_c 27.850299
_cell_angle_alpha 90.000000
_cell_angle_beta 90.000000
_cell_angle_gamma 90.000000
_cell_volume 8728.473949
_symmetry_space_group_name_H-M "I 41/A M D"
_symmetry_group_IT_number 141
_space_group.IT_coordinate_system_code '2'
_symmetry_cell_setting 'tetragonal'
loop_
_space_group_symop_operation_xyz
x,y,z
1/4-y,3/4+x,1/4+z
-x,1/2-y,z
1/4+y,1/4-x,3/4+z
x,-y,-z
-x,1/2+y,-z
1/4+y,3/4+x,1/4-z
1/4-y,1/4-x,3/4-z
-x,-y,-z
3/4+y,1/4-x,3/4-z
x,1/2+y,-z
3/4-y,3/4+x,1/4-z
-x,y,z
x,1/2-y,z
3/4-y,1/4-x,3/4+z
3/4+y,3/4+x,1/4+z
1/2+x,1/2+y,1/2+z
3/4-y,1/4+x,3/4+z
1/2-x,-y,1/2+z
3/4+y,3/4-x,1/4+z
1/2+x,1/2-y,1/2-z
1/2-x,y,1/2-z
3/4+y,1/4+x,3/4-z
3/4-y,3/4-x,1/4-z
1/2-x,1/2-y,1/2-z
1/4+y,3/4-x,1/4-z
1/2+x,y,1/2-z
1/4-y,1/4+x,3/4-z
1/2-x,1/2+y,1/2+z
1/2+x,-y,1/2+z
1/4-y,3/4-x,1/4+z
1/4+y,1/4+x,3/4+z
loop_
_atom_site_type_symbol
_atom_site_label
_atom_site_fract_x
_atom_site_fract_y
_atom_site_fract_z
Si Si1 0.792825 0.336014 0.887391
Si Si2 0.641250 0.920541 0.974628
Si Si3 0.851124 0.596112 0.915233
Si Si4 0.189360 0.560641 0.625000
Si Si5 0.785039 0.661864 0.002606
Si Si6 0.000000 0.334081 0.626327
Si Si7 0.000000 0.834614 0.486326
O O1 0.864187 0.385814 0.875000
O O2 0.819860 0.250000 0.884907
O O3 0.720581 0.342678 0.851660
O O4 0.774770 0.360130 0.941937
O O5 0.627512 0.931441 0.917398
O O6 0.705517 0.857430 0.979030
O O7 0.569355 0.884816 0.998344
O O8 0.662530 0.000000 0.000000
O O9 0.770910 0.566476 0.898254
O O10 0.871525 0.675128 0.890935
O O11 0.848190 0.611909 0.973273
O O12 0.804311 0.750000 0.995524
O O13 0.000000 0.250000 0.649638
O O14 0.000000 0.325752 0.569939
O O15 0.000000 0.750000 0.509367
#
# Coordination Sequence:
#
# PCOD8320829 Si02
#       7
#    32  32  32  16  32  16  16
#     4  11  24  43  68  95 129 171 215 265 324 393
#     4  11  22  37  60  89 118 161 214 264 312 380
#     4  11  21  40  64  96 127 167 213 266 324 384
#     4  10  22  36  59  90 121 162 208 260 310 378
#     4  10  22  41  64  91 129 166 207 264 330 384
#     4  11  22  37  63  93 125 160 212 273 323 376
#     4  11  23  39  55  81 127 171 211 263 324 382
#
# _framework density 20.163889999999999
#
# number of rings (size 3 to 8) (size 9 to 14) (size 15 to 20)
#    0.000    1.273    1.818    4.636    2.545    3.818 
#    3.273    2.727    0.000    0.000    0.000    0.000 
#    0.000    0.000    0.000    0.000    0.000    0.000 
#
# Total GULP energy -1090629.982684 kJ/mol
# GULP energy per Si atom -12393.522531 kJ/mol
# Density = 2.011800 g / cm^3
# Si number density = 20.163890 Si / 1000 Ang^3
#
#
#
# Elastic Constant Matrix: (Units=GPa)
#
#
# Indices 1 2 3 4 5 6 
#
# 1 83.6459 39.0374 31.6087 0.0000 0.0000 0.0000
# 2 39.0374 83.6484 31.6044 0.0000 0.0000 0.0000
# 3 31.6087 31.6044 106.6400 0.0000 0.0000 0.0000
# 4 0.0000 0.0000 0.0000 16.3025 0.0000 0.0000
# 5 0.0000 0.0000 0.0000 0.0000 16.3015 0.0000
# 6 0.0000 0.0000 0.0000 0.0000 0.0000 47.9843
#
#
#
# Elastic Compliance Matrix: (Units=1/GPa)
#
#
# Indices 1 2 3 4 5 6 
#
# 1 0.016019 -0.006398 -0.002852 0.000000 0.000000 0.000000
# 2 -0.006398 0.016018 -0.002851 0.000000 0.000000 0.000000
# 3 -0.002852 -0.002851 0.011067 0.000000 0.000000 0.000000
# 4 0.000000 0.000000 0.000000 0.061340 0.000000 0.000000
# 5 0.000000 0.000000 0.000000 0.000000 0.061344 0.000000
# 6 0.000000 0.000000 0.000000 0.000000 0.000000 0.020840
#
#
# Mechanical properties :
#
#
# Convention : Reuss Voigt Hill
#
# Bulk Modulus (GPa) = 52.90265 53.15948 53.03106
# Shear Modulus (GPa) = 23.02758 27.56326 25.29542
#
# Velocity S-wave (km/s) = 3.38305 3.70126 3.54572
# Velocity P-wave (km/s) = 6.44618 6.68481 6.56658
#
# Compressibility (1/GPa) = 0.01890265
#
# Stress axis : x y z
#
# Youngs Moduli (GPa) = 62.42627 62.43056 90.35474
#
# Poissons Ratio (x) = 0.39945 0.25768
# Poissons Ratio (y) = 0.39942 0.25757
# Poissons Ratio (z) = 0.17803 0.17797
#
# Static dielectric constant tensor:
#      x y z
#    x 3.841780 0.000000 0.000000 
#    y 0.000000 3.841780 0.000000 
#    z 0.000000 0.000000 4.440580 
# 
# 
# High freq. dielectric constant tensor:
#      x y z
#    x 1.786430 0.000000 0.000000 
#    y 0.000000 1.786430 0.000000 
#    z 0.000000 0.000000 1.796470 
# 
# From -- ./inp_files/12941.got.cif
#   From: 2010.03.12/outbox.cif.g09.slc.cpg/sg141_7_cif.got.tgz:12941.got - 2010.04.03 13:18:35.
