data_PCOD8320587
_publ_section_title
;
Structure prediction by ZEFSAII (Michael W. Deem and Ramdas Pophale) SiO2 
 PCOD8320587
Probable space group: I 41/A M D
;
_chemical_formula_sum "Si O2"
_cell_formula_units_Z 176
_cell_length_a 18.378278
_cell_length_b 18.378278
_cell_length_c 29.225929
_cell_angle_alpha 90.000000
_cell_angle_beta 90.000000
_cell_angle_gamma 90.000000
_cell_volume 9871.381993
_symmetry_space_group_name_H-M "I 41/A M D"
_symmetry_group_IT_number 141
_space_group.IT_coordinate_system_code '2'
_symmetry_cell_setting 'tetragonal'
loop_
_space_group_symop_operation_xyz
x,y,z
1/4-y,3/4+x,1/4+z
-x,1/2-y,z
1/4+y,1/4-x,3/4+z
x,-y,-z
-x,1/2+y,-z
1/4+y,3/4+x,1/4-z
1/4-y,1/4-x,3/4-z
-x,-y,-z
3/4+y,1/4-x,3/4-z
x,1/2+y,-z
3/4-y,3/4+x,1/4-z
-x,y,z
x,1/2-y,z
3/4-y,1/4-x,3/4+z
3/4+y,3/4+x,1/4+z
1/2+x,1/2+y,1/2+z
3/4-y,1/4+x,3/4+z
1/2-x,-y,1/2+z
3/4+y,3/4-x,1/4+z
1/2+x,1/2-y,1/2-z
1/2-x,y,1/2-z
3/4+y,1/4+x,3/4-z
3/4-y,3/4-x,1/4-z
1/2-x,1/2-y,1/2-z
1/4+y,3/4-x,1/4-z
1/2+x,y,1/2-z
1/4-y,1/4+x,3/4-z
1/2-x,1/2+y,1/2+z
1/2+x,-y,1/2+z
1/4-y,3/4-x,1/4+z
1/4+y,1/4+x,3/4+z
loop_
_atom_site_type_symbol
_atom_site_label
_atom_site_fract_x
_atom_site_fract_y
_atom_site_fract_z
Si Si1 0.916595 0.983219 0.313765
Si Si2 0.870821 0.969742 0.859019
Si Si3 0.788041 0.665872 0.202403
Si Si4 0.580389 0.670222 0.608316
Si Si5 0.287890 0.037890 0.125000
Si Si6 0.418647 0.069227 0.718343
O O1 0.909175 0.896494 0.323098
O O2 0.896198 0.985229 0.260020
O O3 0.000000 0.009630 0.323588
O O4 0.860485 0.034069 0.342781
O O5 0.909626 0.891346 0.853241
O O6 0.785888 0.962450 0.844467
O O7 0.872712 0.997636 0.911741
O O8 0.915598 0.023133 0.827686
O O9 0.787572 0.750000 0.189221
O O10 0.750000 0.648770 0.250000
O O11 0.870057 0.639760 0.209998
O O12 0.500000 0.660725 0.584682
O O13 0.585255 0.750000 0.631402
O O14 0.500000 0.098119 0.726815
#
# Coordination Sequence:
#
# PCOD8320587 Si02
#       6
#    32  32  32  32  16  32
#     4   9  20  34  52  80 104 129 173 219 262 314
#     4  11  20  33  51  76 103 138 180 213 260 314
#     4  11  22  35  51  72 101 138 182 223 253 298
#     4   9  17  31  51  73  99 130 168 217 264 301
#     4  10  18  34  58  73  99 136 170 216 262 310
#     4  11  22  34  50  74 106 138 172 216 262 315
#
# _framework density 17.829317
#
# number of rings (size 3 to 8) (size 9 to 14) (size 15 to 20)
#    0.000    1.818    1.818    3.818    0.000    2.545 
#    0.000    1.818    0.000    3.545    0.000    7.636 
#    0.000    0.000    0.000    0.000    0.000    0.000 
#
# Total GULP energy -1090269.559307 kJ/mol
# GULP energy per Si atom -12389.426810 kJ/mol
# Density = 1.778874 g / cm^3
# Si number density = 17.829317 Si / 1000 Ang^3
#
#
#
# Elastic Constant Matrix: (Units=GPa)
#
#
# Indices 1 2 3 4 5 6 
#
# 1 102.9148 36.7555 33.6280 0.0000 0.0000 0.0000
# 2 36.7555 102.9148 33.6280 0.0000 0.0000 0.0000
# 3 33.6280 33.6280 66.4648 0.0000 0.0000 0.0000
# 4 0.0000 0.0000 0.0000 12.5419 0.0000 0.0000
# 5 0.0000 0.0000 0.0000 0.0000 12.5419 0.0000
# 6 0.0000 0.0000 0.0000 0.0000 0.0000 24.5370
#
#
#
# Elastic Compliance Matrix: (Units=1/GPa)
#
#
# Indices 1 2 3 4 5 6 
#
# 1 0.012290 -0.002825 -0.004789 0.000000 0.000000 0.000000
# 2 -0.002825 0.012290 -0.004789 0.000000 0.000000 0.000000
# 3 -0.004789 -0.004789 0.019892 0.000000 0.000000 0.000000
# 4 0.000000 0.000000 0.000000 0.079733 0.000000 0.000000
# 5 0.000000 0.000000 0.000000 0.000000 0.079733 0.000000
# 6 0.000000 0.000000 0.000000 0.000000 0.000000 0.040755
#
#
# Mechanical properties :
#
#
# Convention : Reuss Voigt Hill
#
# Bulk Modulus (GPa) = 50.84787 53.36862 52.10824
# Shear Modulus (GPa) = 18.11232 21.14301 19.62767
#
# Velocity S-wave (km/s) = 3.19073 3.44736 3.32153
# Velocity P-wave (km/s) = 6.49273 6.77080 6.63322
#
# Compressibility (1/GPa) = 0.01966651
#
# Stress axis : x y z
#
# Youngs Moduli (GPa) = 81.36379 81.36379 50.27172
#
# Poissons Ratio (x) = 0.22982 0.24077
# Poissons Ratio (y) = 0.22982 0.24077
# Poissons Ratio (z) = 0.38968 0.38968
#
# Static dielectric constant tensor:
#      x y z
#    x 3.448980 0.000000 0.000000 
#    y 0.000000 3.448980 0.000000 
#    z 0.000000 0.000000 3.123960 
# 
# 
# High freq. dielectric constant tensor:
#      x y z
#    x 1.690390 0.000000 0.000000 
#    y 0.000000 1.690390 0.000000 
#    z 0.000000 0.000000 1.661620 
# 
# From -- ./inp_files/12880.got.cif
#   From: 2010.03.12/outbox.cif.g09.slc.cpg/sg141_7_cif.got.tgz:12880.got - 2010.04.03 13:18:35.
