data_PCOD8320831
_publ_section_title
;
Structure prediction by ZEFSAII (Michael W. Deem and Ramdas Pophale) SiO2 
 PCOD8320831
Probable space group: I 41/A M D
;
_chemical_formula_sum "Si O2"
_cell_formula_units_Z 160
_cell_length_a 17.563020
_cell_length_b 17.563020
_cell_length_c 25.223082
_cell_angle_alpha 90.000000
_cell_angle_beta 90.000000
_cell_angle_gamma 90.000000
_cell_volume 7780.303588
_symmetry_space_group_name_H-M "I 41/A M D"
_symmetry_group_IT_number 141
_space_group.IT_coordinate_system_code '2'
_symmetry_cell_setting 'tetragonal'
loop_
_space_group_symop_operation_xyz
x,y,z
1/4-y,3/4+x,1/4+z
-x,1/2-y,z
1/4+y,1/4-x,3/4+z
x,-y,-z
-x,1/2+y,-z
1/4+y,3/4+x,1/4-z
1/4-y,1/4-x,3/4-z
-x,-y,-z
3/4+y,1/4-x,3/4-z
x,1/2+y,-z
3/4-y,3/4+x,1/4-z
-x,y,z
x,1/2-y,z
3/4-y,1/4-x,3/4+z
3/4+y,3/4+x,1/4+z
1/2+x,1/2+y,1/2+z
3/4-y,1/4+x,3/4+z
1/2-x,-y,1/2+z
3/4+y,3/4-x,1/4+z
1/2+x,1/2-y,1/2-z
1/2-x,y,1/2-z
3/4+y,1/4+x,3/4-z
3/4-y,3/4-x,1/4-z
1/2-x,1/2-y,1/2-z
1/4+y,3/4-x,1/4-z
1/2+x,y,1/2-z
1/4-y,1/4+x,3/4-z
1/2-x,1/2+y,1/2+z
1/2+x,-y,1/2+z
1/4-y,3/4-x,1/4+z
1/4+y,1/4+x,3/4+z
loop_
_atom_site_type_symbol
_atom_site_label
_atom_site_fract_x
_atom_site_fract_y
_atom_site_fract_z
Si Si1 0.589970 0.946362 0.841435
Si Si2 0.166503 0.538691 0.765787
Si Si3 0.000000 0.834891 0.926618
Si Si4 0.139933 0.061171 0.929925
Si Si5 0.908636 0.750000 0.206646
Si Si6 0.157900 0.390022 0.632188
O O1 0.500000 0.943844 0.852015
O O2 0.629117 0.879117 0.875000
O O3 0.606794 0.936027 0.779068
O O4 0.625325 0.026631 0.857877
O O5 0.250000 0.570891 0.750000
O O6 0.171680 0.446509 0.771030
O O7 0.134926 0.570762 0.820627
O O8 0.074920 0.846154 0.891364
O O9 0.000000 0.750000 0.946806
O O10 0.000000 0.875995 0.983923
O O11 0.186159 0.063842 0.875000
O O12 0.073196 0.122606 0.928362
O O13 0.115246 0.972678 0.925789
O O14 0.000000 0.750000 0.198468
#
# Coordination Sequence:
#
# PCOD8320831 Si02
#       6
#    32  32  16  32  16  32
#     4  12  25  44  71  98 132 173 217 277 339 407
#     4  11  21  42  70  96 123 162 223 270 330 403
#     4  11  25  41  59  93 135 173 221 276 332 387
#     4  10  22  37  62  94 128 174 223 275 320 389
#     4  11  25  39  57  89 139 191 225 271 331 391
#     4  11  22  42  67  97 131 172 222 276 332 400
#
# _framework density 20.56475
#
# number of rings (size 3 to 8) (size 9 to 14) (size 15 to 20)
#    0.000    1.000    4.000    3.000    2.800    3.400 
#    0.000    3.000    0.000    0.000    0.000    0.000 
#    0.000    0.000    0.000    0.000    0.000    0.000 
#
# Total GULP energy -991540.108516 kJ/mol
# GULP energy per Si atom -12394.251356 kJ/mol
# Density = 2.051794 g / cm^3
# Si number density = 20.564750 Si / 1000 Ang^3
#
#
#
# Elastic Constant Matrix: (Units=GPa)
#
#
# Indices 1 2 3 4 5 6 
#
# 1 113.0539 34.3906 34.7270 0.0000 0.0000 0.0000
# 2 34.3906 113.0546 34.7273 0.0000 0.0000 0.0000
# 3 34.7270 34.7273 109.8262 0.0000 0.0000 0.0000
# 4 0.0000 0.0000 0.0000 28.4243 0.0000 0.0000
# 5 0.0000 0.0000 0.0000 0.0000 28.4239 0.0000
# 6 0.0000 0.0000 0.0000 0.0000 0.0000 24.9149
#
#
#
# Elastic Compliance Matrix: (Units=1/GPa)
#
#
# Indices 1 2 3 4 5 6 
#
# 1 0.010341 -0.002372 -0.002520 0.000000 0.000000 0.000000
# 2 -0.002372 0.010341 -0.002520 0.000000 0.000000 0.000000
# 3 -0.002520 -0.002520 0.010699 0.000000 0.000000 0.000000
# 4 0.000000 0.000000 0.000000 0.035181 0.000000 0.000000
# 5 0.000000 0.000000 0.000000 0.000000 0.035182 0.000000
# 6 0.000000 0.000000 0.000000 0.000000 0.000000 0.040137
#
#
# Mechanical properties :
#
#
# Convention : Reuss Voigt Hill
#
# Bulk Modulus (GPa) = 60.39459 60.40273 60.39866
# Shear Modulus (GPa) = 30.82198 31.82525 31.32362
#
# Velocity S-wave (km/s) = 3.87560 3.93818 3.90702
# Velocity P-wave (km/s) = 7.03270 7.07917 7.05597
#
# Compressibility (1/GPa) = 0.01655777
#
# Stress axis : x y z
#
# Youngs Moduli (GPa) = 96.70432 96.70484 93.46782
#
# Poissons Ratio (x) = 0.22934 0.23553
# Poissons Ratio (y) = 0.22934 0.23553
# Poissons Ratio (z) = 0.24368 0.24368
#
# Static dielectric constant tensor:
#      x y z
#    x 3.584060 0.000000 0.000000 
#    y 0.000000 3.584060 0.000000 
#    z 0.000000 0.000000 3.846650 
# 
# 
# High freq. dielectric constant tensor:
#      x y z
#    x 1.794500 0.000000 0.000000 
#    y 0.000000 1.794500 0.000000 
#    z 0.000000 0.000000 1.821810 
# 
# From -- ./inp_files/12786.got.cif
#   From: 2010.03.12/outbox.cif.g09.slc.cpg/sg141_7_cif.got.tgz:12786.got - 2010.04.03 13:18:35.
