data_PCOD8320139
_publ_section_title
;
Structure prediction by ZEFSAII (Michael W. Deem and Ramdas Pophale) SiO2 
 PCOD8320139
Probable space group: I 4/M C M
;
_chemical_formula_sum "Si O2"
_cell_formula_units_Z 160
_cell_length_a 32.158581
_cell_length_b 32.158581
_cell_length_c 8.562614
_cell_angle_alpha 90.000000
_cell_angle_beta 90.000000
_cell_angle_gamma 90.000000
_cell_volume 8855.235613
_symmetry_space_group_name_H-M "I 4/M C M"
_symmetry_group_IT_number 140
_symmetry_cell_setting 'tetragonal'
loop_
_space_group_symop_operation_xyz
x,y,z
-y,x,z
-x,-y,z
y,-x,z
x,-y,1/2-z
-x,y,1/2-z
y,x,1/2-z
-y,-x,1/2-z
-x,-y,-z
y,-x,-z
x,y,-z
-y,x,-z
-x,y,1/2+z
x,-y,1/2+z
-y,-x,1/2+z
y,x,1/2+z
1/2+x,1/2+y,1/2+z
1/2-y,1/2+x,1/2+z
1/2-x,1/2-y,1/2+z
1/2+y,1/2-x,1/2+z
1/2+x,1/2-y,-z
1/2-x,1/2+y,-z
1/2+y,1/2+x,-z
1/2-y,1/2-x,-z
1/2-x,1/2-y,1/2-z
1/2+y,1/2-x,1/2-z
1/2+x,1/2+y,1/2-z
1/2-y,1/2+x,1/2-z
1/2-x,1/2+y,z
1/2+x,1/2-y,z
1/2-y,1/2-x,z
1/2+y,1/2+x,z
loop_
_atom_site_type_symbol
_atom_site_label
_atom_site_fract_x
_atom_site_fract_y
_atom_site_fract_z
Si Si1 0.827072 0.545849 0.184746
Si Si2 0.609524 0.890477 0.319002
Si Si3 0.609850 0.671370 0.316732
Si Si4 0.826977 0.673024 0.681840
Si Si5 0.738512 0.888961 0.815687
Si Si6 0.045705 0.891563 0.815662
O O1 0.823579 0.500000 0.250000
O O2 0.874112 0.563204 0.226745
O O3 0.792280 0.573976 0.267271
O O4 0.819069 0.545910 0.000000
O O5 0.615007 0.884994 0.500000
O O6 0.640921 0.859080 0.245906
O O7 0.652976 0.652976 0.250000
O O8 0.607688 0.662889 0.500000
O O9 0.606874 0.719855 0.282373
O O10 0.571139 0.648982 0.235350
O O11 0.830749 0.669252 0.500000
O O12 0.843219 0.719010 0.730450
O O13 0.747766 0.892037 0.000000
O O14 0.066746 0.933255 0.750000
O O15 0.000000 0.887294 0.750000
O O16 0.044389 0.894320 0.000000
#
# Coordination Sequence:
#
# PCOD8320139 Si02
#       6
#    32  16  32  16  32  32
#     4  10  19  32  50  76 104 134 170 213 259 309
#     4   8  16  30  48  68  98 134 169 207 255 307
#     4  11  22  38  57  79 106 141 177 213 257 310
#     4   8  16  30  51  75 101 131 169 211 257 305
#     4  10  19  34  54  78 105 136 171 214 260 308
#     4  11  22  39  60  84 110 140 175 215 259 308
#
# _framework density 18.068406
#
# number of rings (size 3 to 8) (size 9 to 14) (size 15 to 20)
#    0.000    2.000    0.000    6.000    0.000    2.600 
#    0.000    5.500    0.000    0.300    0.000    2.100 
#    0.000    0.000    0.000    0.000    0.000    0.000 
#
# Total GULP energy -991204.816663 kJ/mol
# GULP energy per Si atom -12390.060208 kJ/mol
# Density = 1.802728 g / cm^3
# Si number density = 18.068406 Si / 1000 Ang^3
#
#
#
# Elastic Constant Matrix: (Units=GPa)
#
#
# Indices 1 2 3 4 5 6 
#
# 1 17.7387 140.8224 32.7879 0.0000 0.0000 0.0000
# 2 140.8224 17.6589 32.7681 0.0000 0.0000 0.0000
# 3 32.7879 32.7681 99.9122 0.0000 0.0000 0.0000
# 4 0.0000 0.0000 0.0000 24.6278 0.0000 0.0000
# 5 0.0000 0.0000 0.0000 0.0000 24.6279 0.0000
# 6 0.0000 0.0000 0.0000 0.0000 0.0000 14.8549
#
#
#
# Elastic Compliance Matrix: (Units=1/GPa)
#
#
# Indices 1 2 3 4 5 6 
#
# 1 -0.000410 0.007710 -0.002394 0.000000 0.000000 0.000000
# 2 0.007710 -0.000414 -0.002395 0.000000 0.000000 0.000000
# 3 -0.002394 -0.002395 0.011580 0.000000 0.000000 0.000000
# 4 0.000000 0.000000 0.000000 0.040605 0.000000 0.000000
# 5 0.000000 0.000000 0.000000 0.000000 0.040604 0.000000
# 6 0.000000 0.000000 0.000000 0.000000 0.000000 0.067318
#
#
# Mechanical properties :
#
#
# Convention : Reuss Voigt Hill
#
# Bulk Modulus (GPa) = 60.24377 60.89629 60.57003
# Shear Modulus (GPa) = 31.45176 8.08421 19.76799
#
# Velocity S-wave (km/s) = 4.17670 2.11753 3.31125
# Velocity P-wave (km/s) = 7.52823 6.30515 6.94367
#
# Compressibility (1/GPa) = 0.01659923
#
# Stress axis : x y z
#
# Youngs Moduli (GPa) = -2440.62699 -2417.27791 86.35692
#
# Poissons Ratio (x) = 18.63773 0.20676
# Poissons Ratio (y) = 18.81775 0.20679
# Poissons Ratio (z) = -5.84347 -5.78833
#
# Static dielectric constant tensor:
#      x y z
#    x 3.654340 0.000000 0.000000 
#    y 0.000000 3.654140 0.000000 
#    z 0.000000 0.000000 3.491460 
# 
# 
# High freq. dielectric constant tensor:
#      x y z
#    x 1.694720 0.000000 0.000000 
#    y 0.000000 1.694720 0.000000 
#    z 0.000000 0.000000 1.718990 
# 
# From -- ./inp_files/1830.got.cif
#   From: 2010.06.25/outbox.cif.g09.slc.cpg/sg140_1_cif.got.tgz:1830.got - 2010.06.28 10:53:23.
