data_PCOD8320307
_publ_section_title
;
Structure prediction by ZEFSAII (Michael W. Deem and Ramdas Pophale) SiO2 
 PCOD8320307
Probable space group: I 4/M C M
;
_chemical_formula_sum "Si O2"
_cell_formula_units_Z 116
_cell_length_a 24.243495
_cell_length_b 24.243495
_cell_length_c 10.453207
_cell_angle_alpha 90.000000
_cell_angle_beta 90.000000
_cell_angle_gamma 90.000000
_cell_volume 6143.841575
_symmetry_space_group_name_H-M "I 4/M C M"
_symmetry_group_IT_number 140
_symmetry_cell_setting 'tetragonal'
loop_
_space_group_symop_operation_xyz
x,y,z
-y,x,z
-x,-y,z
y,-x,z
x,-y,1/2-z
-x,y,1/2-z
y,x,1/2-z
-y,-x,1/2-z
-x,-y,-z
y,-x,-z
x,y,-z
-y,x,-z
-x,y,1/2+z
x,-y,1/2+z
-y,-x,1/2+z
y,x,1/2+z
1/2+x,1/2+y,1/2+z
1/2-y,1/2+x,1/2+z
1/2-x,1/2-y,1/2+z
1/2+y,1/2-x,1/2+z
1/2+x,1/2-y,-z
1/2-x,1/2+y,-z
1/2+y,1/2+x,-z
1/2-y,1/2-x,-z
1/2-x,1/2-y,1/2-z
1/2+y,1/2-x,1/2-z
1/2+x,1/2+y,1/2-z
1/2-y,1/2+x,1/2-z
1/2-x,1/2+y,z
1/2+x,1/2-y,z
1/2-y,1/2-x,z
1/2+y,1/2+x,z
loop_
_atom_site_type_symbol
_atom_site_label
_atom_site_fract_x
_atom_site_fract_y
_atom_site_fract_z
Si Si1 0.387149 0.382739 0.000000
Si Si2 0.085072 0.414929 0.849948
Si Si3 0.500000 0.000000 0.750000
Si Si4 0.261864 0.567379 0.000000
Si Si5 0.936085 0.936085 0.250000
Si Si6 0.204753 0.437463 0.755701
Si Si7 0.065622 0.231336 0.000000
O O1 0.413652 0.407772 0.874961
O O2 0.324265 0.400266 0.000000
O O3 0.396891 0.317429 0.000000
O O4 0.139537 0.433569 0.775508
O O5 0.038293 0.461708 0.839000
O O6 0.095996 0.404005 0.000000
O O7 0.225613 0.587731 0.121561
O O8 0.275173 0.501359 0.000000
O O9 0.000000 0.922632 0.250000
O O10 0.223119 0.500000 0.750000
O O11 0.236037 0.411504 0.876636
#
# Coordination Sequence:
#
# PCOD8320307 Si02
#       7
#    16  16   4  16  16  32  16
#     4  12  22  37  60  83 120 160 216 272 302 360
#     4  12  23  42  64  97 134 165 191 237 308 372
#     4  12  26  36  68 110 136 154 192 240 298 406
#     4  10  22  37  57  89 117 161 216 259 307 355
#     4  11  22  34  52  84 122 159 194 252 340 399
#     4  10  21  38  61  86 122 162 203 243 301 375
#     4  10  20  37  59  83 115 163 208 253 311 367
#
# _framework density 18.880693999999998
#
# number of rings (size 3 to 8) (size 9 to 14) (size 15 to 20)
#    0.000    1.241    2.759    4.345    0.000    3.862 
#    2.483    0.000    0.000    4.966    0.000    0.000 
#    0.000    0.000    0.000    0.000    0.000    0.000 
#
# Total GULP energy -718968.906382 kJ/mol
# GULP energy per Si atom -12396.015627 kJ/mol
# Density = 1.883772 g / cm^3
# Si number density = 18.880694 Si / 1000 Ang^3
#
#
#
# Elastic Constant Matrix: (Units=GPa)
#
#
# Indices 1 2 3 4 5 6 
#
# 1 121.3933 29.7723 61.1041 0.0000 0.0000 0.0000
# 2 29.7723 121.3935 61.1042 0.0000 0.0000 0.0000
# 3 61.1041 61.1042 195.4895 0.0000 0.0000 0.0000
# 4 0.0000 0.0000 0.0000 31.0038 0.0000 0.0000
# 5 0.0000 0.0000 0.0000 0.0000 31.0039 0.0000
# 6 0.0000 0.0000 0.0000 0.0000 0.0000 26.1507
#
#
#
# Elastic Compliance Matrix: (Units=1/GPa)
#
#
# Indices 1 2 3 4 5 6 
#
# 1 0.009883 -0.001031 -0.002767 0.000000 0.000000 0.000000
# 2 -0.001031 0.009883 -0.002767 0.000000 0.000000 0.000000
# 3 -0.002767 -0.002767 0.006845 0.000000 0.000000 0.000000
# 4 0.000000 0.000000 0.000000 0.032254 0.000000 0.000000
# 5 0.000000 0.000000 0.000000 0.000000 0.032254 0.000000
# 6 0.000000 0.000000 0.000000 0.000000 0.000000 0.038240
#
#
# Mechanical properties :
#
#
# Convention : Reuss Voigt Hill
#
# Bulk Modulus (GPa) = 74.17464 82.47084 78.32274
# Shear Modulus (GPa) = 34.01738 36.71806 35.36772
#
# Velocity S-wave (km/s) = 4.24925 4.41471 4.33277
# Velocity P-wave (km/s) = 7.96531 8.35230 8.16110
#
# Compressibility (1/GPa) = 0.01348170
#
# Stress axis : x y z
#
# Youngs Moduli (GPa) = 101.18045 101.18056 146.09056
#
# Poissons Ratio (x) = 0.10434 0.40422
# Poissons Ratio (y) = 0.10434 0.40422
# Poissons Ratio (z) = 0.27996 0.27996
#
# Static dielectric constant tensor:
#      x y z
#    x 3.348170 0.000000 0.000000 
#    y 0.000000 3.348170 0.000000 
#    z 0.000000 0.000000 3.980760 
# 
# 
# High freq. dielectric constant tensor:
#      x y z
#    x 1.719920 0.000000 0.000000 
#    y 0.000000 1.719920 0.000000 
#    z 0.000000 0.000000 1.760730 
# 
# From -- ./inp_files/1281.got.cif
#   From: 2010.06.25/outbox.cif.g09.slc.cpg/sg140_1_cif.got.tgz:1281.got - 2010.06.28 10:53:23.
