data_PCOD8320006
_publ_section_title
;
Structure prediction by ZEFSAII (Michael W. Deem and Ramdas Pophale) SiO2 
 PCOD8320006
Probable space group: I 4/M M M
;
_chemical_formula_sum "Si O2"
_cell_formula_units_Z 96
_cell_length_a 29.158947
_cell_length_b 29.158947
_cell_length_c 9.351104
_cell_angle_alpha 90.000000
_cell_angle_beta 90.000000
_cell_angle_gamma 90.000000
_cell_volume 7950.721847
_symmetry_space_group_name_H-M "I 4/M M M"
_symmetry_group_IT_number 139
_symmetry_cell_setting 'tetragonal'
loop_
_space_group_symop_operation_xyz
x,y,z
-y,x,z
-x,-y,z
y,-x,z
x,-y,-z
-x,y,-z
y,x,-z
-y,-x,-z
-x,-y,-z
y,-x,-z
x,y,-z
-y,x,-z
-x,y,z
x,-y,z
-y,-x,z
y,x,z
1/2+x,1/2+y,1/2+z
1/2-y,1/2+x,1/2+z
1/2-x,1/2-y,1/2+z
1/2+y,1/2-x,1/2+z
1/2+x,1/2-y,1/2-z
1/2-x,1/2+y,1/2-z
1/2+y,1/2+x,1/2-z
1/2-y,1/2-x,1/2-z
1/2-x,1/2-y,1/2-z
1/2+y,1/2-x,1/2-z
1/2+x,1/2+y,1/2-z
1/2-y,1/2+x,1/2-z
1/2-x,1/2+y,1/2+z
1/2+x,1/2-y,1/2+z
1/2-y,1/2-x,1/2+z
1/2+y,1/2+x,1/2+z
loop_
_atom_site_type_symbol
_atom_site_label
_atom_site_fract_x
_atom_site_fract_y
_atom_site_fract_z
Si Si1 0.123679 0.051288 0.170525
Si Si2 0.302323 0.620661 0.659186
Si Si3 0.819428 0.742070 0.338802
O O1 0.080092 0.080092 0.229454
O O2 0.171401 0.075432 0.217742
O O3 0.121756 0.000000 0.234593
O O4 0.121776 0.050544 0.000000
O O5 0.282126 0.612133 0.500000
O O6 0.338480 0.661521 0.650228
O O7 0.261143 0.634139 0.765595
O O8 0.830964 0.726539 0.500000
O O9 0.780953 0.780953 0.339706
O O10 0.801700 0.698301 0.250000
#
# Coordination Sequence:
#
# PCOD8320006 Si02
#       3
#    32  32  32
#     4   8  13  20  30  44  60  78 101 130 164 198
#     4   8  13  21  31  42  58  78  97 118 146 180
#     4   9  15  21  30  44  60  76  93 112 136 170
#
# _framework density 12.074375
#
# number of rings (size 3 to 8) (size 9 to 14) (size 15 to 20)
#    0.000    3.667    0.000    3.000    0.000    4.333 
#    0.000    1.667    0.000    1.000    0.000    0.000 
#    0.000    0.000    0.000   13.000    0.000   13.333 
#
# Total GULP energy -594762.517569 kJ/mol
# GULP energy per Si atom -12390.885783 kJ/mol
# Density = 1.204689 g / cm^3
# Si number density = 12.074375 Si / 1000 Ang^3
#
#
#
# Elastic Constant Matrix: (Units=GPa)
#
#
# Indices 1 2 3 4 5 6 
#
# 1 54.0171 52.7693 31.3482 0.0000 0.0000 0.0000
# 2 52.7693 54.0182 31.3485 0.0000 0.0000 0.0000
# 3 31.3482 31.3485 63.7236 0.0000 0.0000 0.0000
# 4 0.0000 0.0000 0.0000 9.7711 0.0000 0.0000
# 5 0.0000 0.0000 0.0000 0.0000 9.7710 0.0000
# 6 0.0000 0.0000 0.0000 0.0000 0.0000 15.1710
#
#
#
# Elastic Compliance Matrix: (Units=1/GPa)
#
#
# Indices 1 2 3 4 5 6 
#
# 1 0.407107 -0.393936 -0.006477 0.000000 0.000000 0.000000
# 2 -0.393936 0.407100 -0.006478 0.000000 0.000000 0.000000
# 3 -0.006477 -0.006478 0.022066 0.000000 0.000000 0.000000
# 4 0.000000 0.000000 0.000000 0.102342 0.000000 0.000000
# 5 0.000000 0.000000 0.000000 0.000000 0.102344 0.000000
# 6 0.000000 0.000000 0.000000 0.000000 0.000000 0.065915
#
#
# Mechanical properties :
#
#
# Convention : Reuss Voigt Hill
#
# Bulk Modulus (GPa) = 44.46322 44.74343 44.60332
# Shear Modulus (GPa) = 2.59315 10.69547 6.64431
#
# Velocity S-wave (km/s) = 1.46708 2.97947 2.34835
# Velocity P-wave (km/s) = 6.30667 6.99809 6.66136
#
# Compressibility (1/GPa) = 0.02249050
#
# Stress axis : x y z
#
# Youngs Moduli (GPa) = 2.45635 2.45640 45.31835
#
# Poissons Ratio (x) = 0.96766 0.29354
# Poissons Ratio (y) = 0.96765 0.29357
# Poissons Ratio (z) = 0.01591 0.01591
#
# Static dielectric constant tensor:
#      x y z
#    x 2.449910 0.000000 0.000000 
#    y 0.000000 2.449910 0.000000 
#    z 0.000000 0.000000 2.474030 
# 
# 
# High freq. dielectric constant tensor:
#      x y z
#    x 1.422560 0.000000 0.000000 
#    y 0.000000 1.422560 0.000000 
#    z 0.000000 0.000000 1.442990 
# 
# From -- ./inp_files/1259.got.cif
#   From: 2010.03.12/outbox.cif.g09.slc.cpg/sg139_1_cif.got.tgz:1259.got - 2010.04.08 09:46:31.
