data_PCOD8320065
_publ_section_title
;
Structure prediction by ZEFSAII (Michael W. Deem and Ramdas Pophale) SiO2 
 PCOD8320065
Probable space group: I 4/M C M
;
_chemical_formula_sum "Si O2"
_cell_formula_units_Z 144
_cell_length_a 21.979624
_cell_length_b 21.979624
_cell_length_c 19.674532
_cell_angle_alpha 90.000000
_cell_angle_beta 90.000000
_cell_angle_gamma 90.000000
_cell_volume 9504.842573
_symmetry_space_group_name_H-M "I 4/M C M"
_symmetry_group_IT_number 140
_symmetry_cell_setting 'tetragonal'
loop_
_space_group_symop_operation_xyz
x,y,z
-y,x,z
-x,-y,z
y,-x,z
x,-y,1/2-z
-x,y,1/2-z
y,x,1/2-z
-y,-x,1/2-z
-x,-y,-z
y,-x,-z
x,y,-z
-y,x,-z
-x,y,1/2+z
x,-y,1/2+z
-y,-x,1/2+z
y,x,1/2+z
1/2+x,1/2+y,1/2+z
1/2-y,1/2+x,1/2+z
1/2-x,1/2-y,1/2+z
1/2+y,1/2-x,1/2+z
1/2+x,1/2-y,-z
1/2-x,1/2+y,-z
1/2+y,1/2+x,-z
1/2-y,1/2-x,-z
1/2-x,1/2-y,1/2-z
1/2+y,1/2-x,1/2-z
1/2+x,1/2+y,1/2-z
1/2-y,1/2+x,1/2-z
1/2-x,1/2+y,z
1/2+x,1/2-y,z
1/2-y,1/2-x,z
1/2+y,1/2+x,z
loop_
_atom_site_type_symbol
_atom_site_label
_atom_site_fract_x
_atom_site_fract_y
_atom_site_fract_z
Si Si1 0.949142 0.449142 0.580674
Si Si2 0.184453 0.215288 0.680198
Si Si3 0.355835 0.754056 0.077251
Si Si4 0.321805 0.043845 0.348801
Si Si5 0.588552 0.815474 0.198303
O O1 0.941278 0.441278 0.500000
O O2 0.966846 0.386002 0.614948
O O3 0.000000 0.500000 0.597955
O O4 0.177533 0.177533 0.750000
O O5 0.244788 0.255213 0.683890
O O6 0.194810 0.168559 0.617934
O O7 0.125582 0.256916 0.673035
O O8 0.312606 0.812606 0.085897
O O9 0.422741 0.773990 0.102179
O O10 0.360214 0.732629 0.000000
O O11 0.323737 0.083074 0.279600
O O12 0.301181 0.975652 0.334877
O O13 0.623542 0.876459 0.172066
#
# Coordination Sequence:
#
# PCOD8320065 Si02
#       5
#    16  32  32  32  32
#     4  11  22  34  44  59  92 136 176 207 234 273
#     4   9  16  29  48  68  91 116 152 199 247 292
#     4  10  18  30  49  69  89 121 163 201 237 286
#     4  11  19  30  46  68  93 125 166 202 240 277
#     4  10  19  31  46  68  97 123 158 204 246 283
#
# _framework density 15.150172
#
# number of rings (size 3 to 8) (size 9 to 14) (size 15 to 20)
#    0.000    1.889    4.444    1.333    0.000    0.000 
#    0.000    2.222    0.000    5.333    0.000    0.000 
#    0.000    0.889    1.778    2.000    0.000    0.000 
#
# Total GULP energy -892235.411212 kJ/mol
# GULP energy per Si atom -12392.158489 kJ/mol
# Density = 1.511569 g / cm^3
# Si number density = 15.150172 Si / 1000 Ang^3
#
#
#
# Elastic Constant Matrix: (Units=GPa)
#
#
# Indices 1 2 3 4 5 6 
#
# 1 66.3293 53.6296 50.5236 0.0000 0.0000 0.0000
# 2 53.6296 66.3293 50.5236 0.0000 0.0000 0.0000
# 3 50.5236 50.5236 114.6528 0.0000 0.0000 0.0000
# 4 0.0000 0.0000 0.0000 21.9692 0.0000 0.0000
# 5 0.0000 0.0000 0.0000 0.0000 21.9692 0.0000
# 6 0.0000 0.0000 0.0000 0.0000 0.0000 26.6743
#
#
#
# Elastic Compliance Matrix: (Units=1/GPa)
#
#
# Indices 1 2 3 4 5 6 
#
# 1 0.046000 -0.032742 -0.005842 0.000000 0.000000 0.000000
# 2 -0.032742 0.046000 -0.005842 0.000000 0.000000 0.000000
# 3 -0.005842 -0.005842 0.013871 0.000000 0.000000 0.000000
# 4 0.000000 0.000000 0.000000 0.045518 0.000000 0.000000
# 5 0.000000 0.000000 0.000000 0.000000 0.045518 0.000000
# 6 0.000000 0.000000 0.000000 0.000000 0.000000 0.037489
#
#
# Mechanical properties :
#
#
# Convention : Reuss Voigt Hill
#
# Bulk Modulus (GPa) = 58.76432 61.85163 60.30798
# Shear Modulus (GPa) = 15.20124 20.29818 17.74971
#
# Velocity S-wave (km/s) = 3.17104 3.66430 3.42656
# Velocity P-wave (km/s) = 7.23045 7.66923 7.45307
#
# Compressibility (1/GPa) = 0.01701713
#
# Stress axis : x y z
#
# Youngs Moduli (GPa) = 21.73936 21.73936 72.09432
#
# Poissons Ratio (x) = 0.71180 0.42117
# Poissons Ratio (y) = 0.71180 0.42117
# Poissons Ratio (z) = 0.12700 0.12700
#
# Static dielectric constant tensor:
#      x y z
#    x 2.746370 0.000000 0.000000 
#    y 0.000000 2.746370 0.000000 
#    z 0.000000 0.000000 3.043590 
# 
# 
# High freq. dielectric constant tensor:
#      x y z
#    x 1.558290 0.000000 0.000000 
#    y 0.000000 1.558290 0.000000 
#    z 0.000000 0.000000 1.586260 
# 
# From -- ./inp_files/7042.got.cif
#   From: 2010.06.25/outbox.cif.g09.slc.cpg/sg140_4_cif.got.tgz:7042.got - 2010.06.28 10:53:23.
