data_PCOD8320627
_publ_section_title
;
Structure prediction by ZEFSAII (Michael W. Deem and Ramdas Pophale) SiO2 
 PCOD8320627
Probable space group: I 41/A M D
;
_chemical_formula_sum "Si O2"
_cell_formula_units_Z 176
_cell_length_a 17.398091
_cell_length_b 17.398091
_cell_length_c 28.388810
_cell_angle_alpha 90.000000
_cell_angle_beta 90.000000
_cell_angle_gamma 90.000000
_cell_volume 8593.110260
_symmetry_space_group_name_H-M "I 41/A M D"
_symmetry_group_IT_number 141
_space_group.IT_coordinate_system_code '2'
_symmetry_cell_setting 'tetragonal'
loop_
_space_group_symop_operation_xyz
x,y,z
1/4-y,3/4+x,1/4+z
-x,1/2-y,z
1/4+y,1/4-x,3/4+z
x,-y,-z
-x,1/2+y,-z
1/4+y,3/4+x,1/4-z
1/4-y,1/4-x,3/4-z
-x,-y,-z
3/4+y,1/4-x,3/4-z
x,1/2+y,-z
3/4-y,3/4+x,1/4-z
-x,y,z
x,1/2-y,z
3/4-y,1/4-x,3/4+z
3/4+y,3/4+x,1/4+z
1/2+x,1/2+y,1/2+z
3/4-y,1/4+x,3/4+z
1/2-x,-y,1/2+z
3/4+y,3/4-x,1/4+z
1/2+x,1/2-y,1/2-z
1/2-x,y,1/2-z
3/4+y,1/4+x,3/4-z
3/4-y,3/4-x,1/4-z
1/2-x,1/2-y,1/2-z
1/4+y,3/4-x,1/4-z
1/2+x,y,1/2-z
1/4-y,1/4+x,3/4-z
1/2-x,1/2+y,1/2+z
1/2+x,-y,1/2+z
1/4-y,3/4-x,1/4+z
1/4+y,1/4+x,3/4+z
loop_
_atom_site_type_symbol
_atom_site_label
_atom_site_fract_x
_atom_site_fract_y
_atom_site_fract_z
Si Si1 0.692987 0.840359 0.992258
Si Si2 0.341775 0.913704 0.479891
Si Si3 0.915487 0.543491 0.548931
Si Si4 0.195599 0.054402 0.875000
Si Si5 0.350831 0.393648 0.343890
Si Si6 0.500000 0.335564 0.393034
Si Si7 0.000000 0.411359 0.012078
O O1 0.679036 0.750000 0.984800
O O2 0.782835 0.861080 0.990569
O O3 0.667569 0.869241 0.043058
O O4 0.646437 0.886806 0.951493
O O5 0.335240 0.908655 0.423335
O O6 0.423631 0.874413 0.490387
O O7 0.333232 0.000000 0.500000
O O8 0.909070 0.500000 0.500000
O O9 0.902565 0.479526 0.589439
O O10 0.000000 0.579901 0.555998
O O11 0.285300 0.076849 0.872799
O O12 0.420992 0.344124 0.364091
O O13 0.500000 0.250000 0.414576
O O14 0.500000 0.401280 0.432039
O O15 0.000000 0.500000 0.000000
#
# Coordination Sequence:
#
# PCOD8320627 Si02
#       7
#    32  32  32  16  32  16  16
#     4  10  19  33  54  84 118 161 202 255 303 364
#     4  10  20  38  59  87 118 156 206 260 310 375
#     4   9  18  32  52  79 117 156 192 240 303 360
#     4  10  20  34  64  88 113 165 214 252 304 386
#     4  10  19  36  54  85 118 156 208 252 304 377
#     4  12  24  36  60  92 128 160 204 268 336 378
#     4  10  22  40  60  82 116 156 196 256 320 378
#
# _framework density 20.481524
#
# number of rings (size 3 to 8) (size 9 to 14) (size 15 to 20)
#    0.000    2.000    0.909    5.455    0.000    1.818 
#    1.636    0.000    0.000    1.091    0.000    0.000 
#    0.000    0.000    0.000    0.000    0.000    0.000 
#
# Total GULP energy -1090358.150103 kJ/mol
# GULP energy per Si atom -12390.433524 kJ/mol
# Density = 2.043491 g / cm^3
# Si number density = 20.481524 Si / 1000 Ang^3
#
#
#
# Elastic Constant Matrix: (Units=GPa)
#
#
# Indices 1 2 3 4 5 6 
#
# 1 145.8268 59.5573 27.2878 0.0000 0.0000 0.0000
# 2 59.5573 145.8257 27.2876 0.0000 0.0000 0.0000
# 3 27.2878 27.2876 56.3319 0.0000 0.0000 0.0000
# 4 0.0000 0.0000 0.0000 16.2464 0.0000 0.0000
# 5 0.0000 0.0000 0.0000 0.0000 16.2467 0.0000
# 6 0.0000 0.0000 0.0000 0.0000 0.0000 21.3825
#
#
#
# Elastic Compliance Matrix: (Units=1/GPa)
#
#
# Indices 1 2 3 4 5 6 
#
# 1 0.008590 -0.003002 -0.002707 0.000000 0.000000 0.000000
# 2 -0.003002 0.008590 -0.002707 0.000000 0.000000 0.000000
# 3 -0.002707 -0.002707 0.020375 0.000000 0.000000 0.000000
# 4 0.000000 0.000000 0.000000 0.061552 0.000000 0.000000
# 5 0.000000 0.000000 0.000000 0.000000 0.061551 0.000000
# 6 0.000000 0.000000 0.000000 0.000000 0.000000 0.046767
#
#
# Mechanical properties :
#
#
# Convention : Reuss Voigt Hill
#
# Bulk Modulus (GPa) = 48.25552 64.02777 56.14164
# Shear Modulus (GPa) = 21.62967 26.36522 23.99745
#
# Velocity S-wave (km/s) = 3.25323 3.59174 3.42667
# Velocity P-wave (km/s) = 6.14191 6.96634 6.56707
#
# Compressibility (1/GPa) = 0.02072302
#
# Stress axis : x y z
#
# Youngs Moduli (GPa) = 116.41542 116.41460 49.08090
#
# Poissons Ratio (x) = 0.34944 0.13286
# Poissons Ratio (y) = 0.34944 0.13286
# Poissons Ratio (z) = 0.31514 0.31513
#
# Static dielectric constant tensor:
#      x y z
#    x 4.009070 0.000000 0.000000 
#    y 0.000000 4.009070 0.000000 
#    z 0.000000 0.000000 3.506870 
# 
# 
# High freq. dielectric constant tensor:
#      x y z
#    x 1.798060 0.000000 0.000000 
#    y 0.000000 1.798060 0.000000 
#    z 0.000000 0.000000 1.782770 
# 
# From -- ./inp_files/12965.got.cif
#   From: 2010.03.12/outbox.cif.g09.slc.cpg/sg141_7_cif.got.tgz:12965.got - 2010.04.03 13:18:35.
