data_PCOD8320613
_publ_section_title
;
Structure prediction by ZEFSAII (Michael W. Deem and Ramdas Pophale) SiO2 
 PCOD8320613
Probable space group: I 41/A M D
;
_chemical_formula_sum "Si O2"
_cell_formula_units_Z 64
_cell_length_a 19.207090
_cell_length_b 19.207090
_cell_length_c 7.384707
_cell_angle_alpha 90.000000
_cell_angle_beta 90.000000
_cell_angle_gamma 90.000000
_cell_volume 2724.309290
_symmetry_space_group_name_H-M "I 41/A M D"
_symmetry_group_IT_number 141
_space_group.IT_coordinate_system_code '2'
_symmetry_cell_setting 'tetragonal'
loop_
_space_group_symop_operation_xyz
x,y,z
1/4-y,3/4+x,1/4+z
-x,1/2-y,z
1/4+y,1/4-x,3/4+z
x,-y,-z
-x,1/2+y,-z
1/4+y,3/4+x,1/4-z
1/4-y,1/4-x,3/4-z
-x,-y,-z
3/4+y,1/4-x,3/4-z
x,1/2+y,-z
3/4-y,3/4+x,1/4-z
-x,y,z
x,1/2-y,z
3/4-y,1/4-x,3/4+z
3/4+y,3/4+x,1/4+z
1/2+x,1/2+y,1/2+z
3/4-y,1/4+x,3/4+z
1/2-x,-y,1/2+z
3/4+y,3/4-x,1/4+z
1/2+x,1/2-y,1/2-z
1/2-x,y,1/2-z
3/4+y,1/4+x,3/4-z
3/4-y,3/4-x,1/4-z
1/2-x,1/2-y,1/2-z
1/4+y,3/4-x,1/4-z
1/2+x,y,1/2-z
1/4-y,1/4+x,3/4-z
1/2-x,1/2+y,1/2+z
1/2+x,-y,1/2+z
1/4-y,3/4-x,1/4+z
1/4+y,1/4+x,3/4+z
loop_
_atom_site_type_symbol
_atom_site_label
_atom_site_fract_x
_atom_site_fract_y
_atom_site_fract_z
Si Si1 0.579798 0.171964 0.912559
Si Si2 0.173713 0.950407 0.342429
O O1 0.500000 0.161763 0.855828
O O2 0.604048 0.250000 0.859623
O O3 0.624773 0.115369 0.804076
O O4 0.590006 0.159995 0.125000
O O5 0.251099 0.925057 0.409811
O O6 0.142350 0.000000 0.500000
#
# Coordination Sequence:
#
# PCOD8320613 Si02
#       2
#    32  32
#     4   9  17  29  47  74 101 123 159 210 251 283
#     4  10  19  32  49  72 102 133 161 199 243 292
#
# _framework density 23.492191999999999
#
# number of rings (size 3 to 8) (size 9 to 14) (size 15 to 20)
#    0.000    2.500    5.000    1.500    0.000    3.000 
#    0.000    0.000    0.000   16.500    0.000    0.000 
#    0.000   72.000    0.000    0.000    0.000    0.000 
#
# Total GULP energy -396540.446228 kJ/mol
# GULP energy per Si atom -12391.888945 kJ/mol
# Density = 2.343872 g / cm^3
# Si number density = 23.492192 Si / 1000 Ang^3
#
#
#
# Elastic Constant Matrix: (Units=GPa)
#
#
# Indices 1 2 3 4 5 6 
#
# 1 138.9366 139.2163 41.9250 0.0000 0.0000 0.0000
# 2 139.2163 138.9367 41.9248 0.0000 0.0000 0.0000
# 3 41.9250 41.9248 134.0390 0.0000 0.0000 0.0000
# 4 0.0000 0.0000 0.0000 8.1255 0.0000 0.0000
# 5 0.0000 0.0000 0.0000 0.0000 8.1254 0.0000
# 6 0.0000 0.0000 0.0000 0.0000 0.0000 72.4990
#
#
#
# Elastic Compliance Matrix: (Units=1/GPa)
#
#
# Indices 1 2 3 4 5 6 
#
# 1 -1.785906 1.789874 -0.001239 0.000000 0.000000 0.000000
# 2 1.789874 -1.785904 -0.001244 0.000000 0.000000 0.000000
# 3 -0.001239 -0.001244 0.008237 0.000000 0.000000 0.000000
# 4 0.000000 0.000000 0.000000 0.123070 0.000000 0.000000
# 5 0.000000 0.000000 0.000000 0.000000 0.123070 0.000000
# 6 0.000000 0.000000 0.000000 0.000000 0.000000 0.013793
#
#
# Mechanical properties :
#
#
# Convention : Reuss Voigt Hill
#
# Bulk Modulus (GPa) = 89.20781 95.33829 92.27305
# Shear Modulus (GPa) = -0.72731 30.33973 14.80621
#
# Velocity S-wave (km/s) = -0.55702 3.59762 2.51322
# Velocity P-wave (km/s) = 6.13532 7.61106 6.91268
#
# Compressibility (1/GPa) = 0.01120978
#
# Stress axis : x y z
#
# Youngs Moduli (GPa) = -0.55994 -0.55994 121.40067
#
# Poissons Ratio (x) = 1.00222 0.15047
# Poissons Ratio (y) = 1.00222 0.15098
# Poissons Ratio (z) = -0.00069 -0.00070
#
# Static dielectric constant tensor:
#      x y z
#    x 4.199450 0.000000 0.000000 
#    y 0.000000 4.199470 0.000000 
#    z 0.000000 0.000000 4.414000 
# 
# 
# High freq. dielectric constant tensor:
#      x y z
#    x 1.921640 0.000000 0.000000 
#    y 0.000000 1.921640 0.000000 
#    z 0.000000 0.000000 1.955270 
# 
# From -- ./inp_files/1978.got.cif
#   From: 2010.03.12/outbox.cif.g09.slc.cpg/sg141_1_cif.got.tgz:1978.got - 2010.04.03 13:18:35.
