data_PCOD8320439
_publ_section_title
;
Structure prediction by ZEFSAII (Michael W. Deem and Ramdas Pophale) SiO2 
 PCOD8320439
Probable space group: I 4/M C M
;
_chemical_formula_sum "Si O2"
_cell_formula_units_Z 160
_cell_length_a 29.427858
_cell_length_b 29.427858
_cell_length_c 8.780055
_cell_angle_alpha 90.000000
_cell_angle_beta 90.000000
_cell_angle_gamma 90.000000
_cell_volume 7603.517326
_symmetry_space_group_name_H-M "I 4/M C M"
_symmetry_group_IT_number 140
_symmetry_cell_setting 'tetragonal'
loop_
_space_group_symop_operation_xyz
x,y,z
-y,x,z
-x,-y,z
y,-x,z
x,-y,1/2-z
-x,y,1/2-z
y,x,1/2-z
-y,-x,1/2-z
-x,-y,-z
y,-x,-z
x,y,-z
-y,x,-z
-x,y,1/2+z
x,-y,1/2+z
-y,-x,1/2+z
y,x,1/2+z
1/2+x,1/2+y,1/2+z
1/2-y,1/2+x,1/2+z
1/2-x,1/2-y,1/2+z
1/2+y,1/2-x,1/2+z
1/2+x,1/2-y,-z
1/2-x,1/2+y,-z
1/2+y,1/2+x,-z
1/2-y,1/2-x,-z
1/2-x,1/2-y,1/2-z
1/2+y,1/2-x,1/2-z
1/2+x,1/2+y,1/2-z
1/2-y,1/2+x,1/2-z
1/2-x,1/2+y,z
1/2+x,1/2-y,z
1/2-y,1/2-x,z
1/2+y,1/2+x,z
loop_
_atom_site_type_symbol
_atom_site_label
_atom_site_fract_x
_atom_site_fract_y
_atom_site_fract_z
Si Si1 0.570947 0.720362 0.328029
Si Si2 0.700230 0.200230 0.824502
Si Si3 0.840427 0.217920 0.174543
Si Si4 0.866653 0.633348 0.322059
Si Si5 0.321408 0.045251 0.674181
Si Si6 0.617349 0.452811 0.678465
O O1 0.591342 0.717996 0.500000
O O2 0.607444 0.729605 0.196391
O O3 0.541477 0.766149 0.312379
O O4 0.547688 0.671997 0.289795
O O5 0.752076 0.190414 0.787284
O O6 0.671120 0.171120 0.706188
O O7 0.688558 0.188558 0.000000
O O8 0.832046 0.167955 0.250000
O O9 0.826259 0.222564 0.000000
O O10 0.874141 0.625860 0.500000
O O11 0.912701 0.653098 0.251491
O O12 0.336110 0.046934 0.500000
O O13 0.341383 0.000000 0.750000
O O14 0.599032 0.500000 0.750000
O O15 0.590245 0.409756 0.750000
O O16 0.607107 0.452745 0.500000
#
# Coordination Sequence:
#
# PCOD8320439 Si02
#       6
#    32  16  32  16  32  32
#     4  10  22  40  63  92 128 166 207 257 315 374
#     4  12  23  39  58  82 120 163 211 264 315 367
#     4  12  24  37  56  83 120 167 216 261 311 370
#     4  12  24  41  65  97 131 170 218 264 319 380
#     4  11  23  41  67  98 134 174 214 262 315 372
#     4  11  24  43  66  93 123 161 206 261 322 386
#
# _framework density 21.042891999999998
#
# number of rings (size 3 to 8) (size 9 to 14) (size 15 to 20)
#    0.000    0.800    2.000    6.300    0.000    4.200 
#    0.000    1.000    0.000    0.300    0.000    2.100 
#    0.000    0.000    0.000    0.000    0.000    0.000 
#
# Total GULP energy -991251.028861 kJ/mol
# GULP energy per Si atom -12390.637861 kJ/mol
# Density = 2.099500 g / cm^3
# Si number density = 21.042892 Si / 1000 Ang^3
#
#
#
# Elastic Constant Matrix: (Units=GPa)
#
#
# Indices 1 2 3 4 5 6 
#
# 1 85.9125 49.6511 51.4901 0.0000 0.0000 0.0000
# 2 49.6511 85.9210 51.4905 0.0000 0.0000 0.0000
# 3 51.4901 51.4905 159.5984 0.0000 0.0000 0.0000
# 4 0.0000 0.0000 0.0000 38.4337 0.0000 0.0000
# 5 0.0000 0.0000 0.0000 0.0000 38.4328 0.0000
# 6 0.0000 0.0000 0.0000 0.0000 0.0000 19.3605
#
#
#
# Elastic Compliance Matrix: (Units=1/GPa)
#
#
# Indices 1 2 3 4 5 6 
#
# 1 0.018674 -0.008902 -0.003153 0.000000 0.000000 0.000000
# 2 -0.008902 0.018672 -0.003152 0.000000 0.000000 0.000000
# 3 -0.003153 -0.003152 0.008300 0.000000 0.000000 0.000000
# 4 0.000000 0.000000 0.000000 0.026019 0.000000 0.000000
# 5 0.000000 0.000000 0.000000 0.000000 0.026019 0.000000
# 6 0.000000 0.000000 0.000000 0.000000 0.000000 0.051652
#
#
# Mechanical properties :
#
#
# Convention : Reuss Voigt Hill
#
# Bulk Modulus (GPa) = 65.64984 70.74391 68.19688
# Shear Modulus (GPa) = 27.05260 31.16541 29.10900
#
# Velocity S-wave (km/s) = 3.58941 3.85261 3.72333
# Velocity P-wave (km/s) = 6.96019 7.31314 7.13885
#
# Compressibility (1/GPa) = 0.01523233
#
# Stress axis : x y z
#
# Youngs Moduli (GPa) = 53.55116 53.55748 120.48512
#
# Poissons Ratio (x) = 0.47675 0.37985
# Poissons Ratio (y) = 0.47669 0.37977
# Poissons Ratio (z) = 0.16883 0.16881
#
# Static dielectric constant tensor:
#      x y z
#    x 3.747600 0.000000 0.000000 
#    y 0.000000 3.747590 0.000000 
#    z 0.000000 0.000000 3.848500 
# 
# 
# High freq. dielectric constant tensor:
#      x y z
#    x 1.816700 0.000000 0.000000 
#    y 0.000000 1.816700 0.000000 
#    z 0.000000 0.000000 1.837960 
# 
# From -- ./inp_files/1852.got.cif
#   From: 2010.06.25/outbox.cif.g09.slc.cpg/sg140_1_cif.got.tgz:1852.got - 2010.06.28 10:53:23.
