data_PCOD8320366
_publ_section_title
;
Structure prediction by ZEFSAII (Michael W. Deem and Ramdas Pophale) SiO2 
 PCOD8320366
Probable space group: I 4/M C M
;
_chemical_formula_sum "Si O2"
_cell_formula_units_Z 160
_cell_length_a 31.472438
_cell_length_b 31.472438
_cell_length_c 9.199365
_cell_angle_alpha 90.000000
_cell_angle_beta 90.000000
_cell_angle_gamma 90.000000
_cell_volume 9112.103077
_symmetry_space_group_name_H-M "I 4/M C M"
_symmetry_group_IT_number 140
_symmetry_cell_setting 'tetragonal'
loop_
_space_group_symop_operation_xyz
x,y,z
-y,x,z
-x,-y,z
y,-x,z
x,-y,1/2-z
-x,y,1/2-z
y,x,1/2-z
-y,-x,1/2-z
-x,-y,-z
y,-x,-z
x,y,-z
-y,x,-z
-x,y,1/2+z
x,-y,1/2+z
-y,-x,1/2+z
y,x,1/2+z
1/2+x,1/2+y,1/2+z
1/2-y,1/2+x,1/2+z
1/2-x,1/2-y,1/2+z
1/2+y,1/2-x,1/2+z
1/2+x,1/2-y,-z
1/2-x,1/2+y,-z
1/2+y,1/2+x,-z
1/2-y,1/2-x,-z
1/2-x,1/2-y,1/2-z
1/2+y,1/2-x,1/2-z
1/2+x,1/2+y,1/2-z
1/2-y,1/2+x,1/2-z
1/2-x,1/2+y,z
1/2+x,1/2-y,z
1/2-y,1/2-x,z
1/2+y,1/2+x,z
loop_
_atom_site_type_symbol
_atom_site_label
_atom_site_fract_x
_atom_site_fract_y
_atom_site_fract_z
Si Si1 0.283056 0.041875 0.673696
Si Si2 0.000000 0.872209 0.750000
Si Si3 0.061775 0.800483 0.835929
Si Si4 0.068370 0.983298 0.000000
Si Si5 0.693344 0.124397 0.329920
Si Si6 0.655642 0.284678 0.334376
O O1 0.286505 0.039118 0.500000
O O2 0.233561 0.044790 0.719848
O O3 0.309509 0.081958 0.733487
O O4 0.302694 0.000000 0.750000
O O5 0.963938 0.843992 0.674597
O O6 0.975520 0.902253 0.861727
O O7 0.111412 0.809517 0.804882
O O8 0.056859 0.781769 0.000000
O O9 0.031083 0.949283 0.000000
O O10 0.695156 0.112095 0.500000
O O11 0.652475 0.152475 0.292432
O O12 0.735659 0.150327 0.286338
O O13 0.694142 0.305859 0.250000
O O14 0.669379 0.287327 0.500000
#
# Coordination Sequence:
#
# PCOD8320366 Si02
#       6
#    32  16  32  16  32  32
#     4  11  21  33  56  82 113 145 175 220 269 314
#     4  12  22  39  62  78  94 128 168 216 275 340
#     4  10  21  37  53  78 104 129 166 213 268 332
#     4  11  26  44  58  72  94 124 162 212 274 344
#     4   9  19  37  57  77 108 151 190 225 269 319
#     4   9  19  34  50  74 107 139 175 220 267 317
#
# _framework density 17.559063999999999
#
# number of rings (size 3 to 8) (size 9 to 14) (size 15 to 20)
#    0.000    1.900    2.000    3.600    1.400    6.400 
#    0.000    0.000    0.000    0.000    0.000    0.000 
#    0.000    0.400    0.000    4.200    0.000    1.800 
#
# Total GULP energy -991994.336590 kJ/mol
# GULP energy per Si atom -12399.929207 kJ/mol
# Density = 1.751910 g / cm^3
# Si number density = 17.559064 Si / 1000 Ang^3
#
#
#
# Elastic Constant Matrix: (Units=GPa)
#
#
# Indices 1 2 3 4 5 6 
#
# 1 88.0657 52.3629 46.9290 0.0000 0.0000 0.0000
# 2 52.3629 88.0684 46.9297 0.0000 0.0000 0.0000
# 3 46.9290 46.9297 113.4844 0.0000 0.0000 0.0000
# 4 0.0000 0.0000 0.0000 26.3234 0.0000 0.0000
# 5 0.0000 0.0000 0.0000 0.0000 26.3232 0.0000
# 6 0.0000 0.0000 0.0000 0.0000 0.0000 27.4522
#
#
#
# Elastic Compliance Matrix: (Units=1/GPa)
#
#
# Indices 1 2 3 4 5 6 
#
# 1 0.018925 -0.009084 -0.004070 0.000000 0.000000 0.000000
# 2 -0.009084 0.018924 -0.004069 0.000000 0.000000 0.000000
# 3 -0.004070 -0.004069 0.012178 0.000000 0.000000 0.000000
# 4 0.000000 0.000000 0.000000 0.037989 0.000000 0.000000
# 5 0.000000 0.000000 0.000000 0.000000 0.037989 0.000000
# 6 0.000000 0.000000 0.000000 0.000000 0.000000 0.036427
#
#
# Mechanical properties :
#
#
# Convention : Reuss Voigt Hill
#
# Bulk Modulus (GPa) = 64.17964 64.67355 64.42660
# Shear Modulus (GPa) = 24.74384 25.57956 25.16170
#
# Velocity S-wave (km/s) = 3.75797 3.82091 3.78957
# Velocity P-wave (km/s) = 7.44714 7.50851 7.47789
#
# Compressibility (1/GPa) = 0.01558126
#
# Stress axis : x y z
#
# Youngs Moduli (GPa) = 52.84094 52.84255 82.11843
#
# Poissons Ratio (x) = 0.48000 0.33419
# Poissons Ratio (y) = 0.47998 0.33418
# Poissons Ratio (z) = 0.21504 0.21504
#
# Static dielectric constant tensor:
#      x y z
#    x 3.165410 0.000000 0.000000 
#    y 0.000000 3.165410 0.000000 
#    z 0.000000 0.000000 3.204320 
# 
# 
# High freq. dielectric constant tensor:
#      x y z
#    x 1.662670 0.000000 0.000000 
#    y 0.000000 1.662670 0.000000 
#    z 0.000000 0.000000 1.684910 
# 
# From -- ./inp_files/1868.got.cif
#   From: 2010.06.25/outbox.cif.g09.slc.cpg/sg140_1_cif.got.tgz:1868.got - 2010.06.28 10:53:23.
