data_PCOD8320152
_publ_section_title
;
Structure prediction by ZEFSAII (Michael W. Deem and Ramdas Pophale) SiO2 
 PCOD8320152
Probable space group: I 4/M C M
;
_chemical_formula_sum "Si O2"
_cell_formula_units_Z 128
_cell_length_a 28.906288
_cell_length_b 28.906288
_cell_length_c 9.067272
_cell_angle_alpha 90.000000
_cell_angle_beta 90.000000
_cell_angle_gamma 90.000000
_cell_volume 7576.372073
_symmetry_space_group_name_H-M "I 4/M C M"
_symmetry_group_IT_number 140
_symmetry_cell_setting 'tetragonal'
loop_
_space_group_symop_operation_xyz
x,y,z
-y,x,z
-x,-y,z
y,-x,z
x,-y,1/2-z
-x,y,1/2-z
y,x,1/2-z
-y,-x,1/2-z
-x,-y,-z
y,-x,-z
x,y,-z
-y,x,-z
-x,y,1/2+z
x,-y,1/2+z
-y,-x,1/2+z
y,x,1/2+z
1/2+x,1/2+y,1/2+z
1/2-y,1/2+x,1/2+z
1/2-x,1/2-y,1/2+z
1/2+y,1/2-x,1/2+z
1/2+x,1/2-y,-z
1/2-x,1/2+y,-z
1/2+y,1/2+x,-z
1/2-y,1/2-x,-z
1/2-x,1/2-y,1/2-z
1/2+y,1/2-x,1/2-z
1/2+x,1/2+y,1/2-z
1/2-y,1/2+x,1/2-z
1/2-x,1/2+y,z
1/2+x,1/2-y,z
1/2-y,1/2-x,z
1/2+y,1/2+x,z
loop_
_atom_site_type_symbol
_atom_site_label
_atom_site_fract_x
_atom_site_fract_y
_atom_site_fract_z
Si Si1 0.229158 0.044092 0.662300
Si Si2 0.148588 0.785946 0.322225
Si Si3 0.704848 0.795153 0.834930
Si Si4 0.662065 0.042684 0.837398
Si Si5 0.871095 0.371095 0.161063
O O1 0.206702 0.042427 0.500000
O O2 0.219598 0.095080 0.731316
O O3 0.283507 0.036497 0.650706
O O4 0.207646 0.000000 0.750000
O O5 0.165954 0.834047 0.250000
O O6 0.151792 0.785451 0.500000
O O7 0.182285 0.746407 0.257691
O O8 0.666923 0.833078 0.861516
O O9 0.721395 0.778606 0.000000
O O10 0.651460 0.088387 0.750928
O O11 0.639472 0.000000 0.750000
O O12 0.639852 0.044889 0.000000
O O13 0.888211 0.388211 0.000000
#
# Coordination Sequence:
#
# PCOD8320152 Si02
#       5
#    32  32  16  32  16
#     4   9  19  33  51  72  97 127 164 206 249 290
#     4  11  22  36  51  72 102 138 173 208 248 295
#     4  11  22  34  49  71  99 137 175 210 245 289
#     4  10  19  33  51  72  96 124 159 205 254 300
#     4  11  21  32  50  74  98 126 165 206 249 300
#
# _framework density 16.894628999999998
#
# number of rings (size 3 to 8) (size 9 to 14) (size 15 to 20)
#    0.000    1.750    2.500    2.625    0.000    4.000 
#    0.000    0.000    0.000    0.375    0.000    2.625 
#    0.000    0.500    0.000    5.500    0.000    4.000 
#
# Total GULP energy -793085.799650 kJ/mol
# GULP energy per Si atom -12391.965620 kJ/mol
# Density = 1.685618 g / cm^3
# Si number density = 16.894629 Si / 1000 Ang^3
#
#
#
# Elastic Constant Matrix: (Units=GPa)
#
#
# Indices 1 2 3 4 5 6 
#
# 1 71.9592 26.4118 36.8955 0.0000 0.0000 0.0000
# 2 26.4118 71.9516 36.8939 0.0000 0.0000 0.0000
# 3 36.8955 36.8939 126.7705 0.0000 0.0000 0.0000
# 4 0.0000 0.0000 0.0000 28.7850 0.0000 0.0000
# 5 0.0000 0.0000 0.0000 0.0000 28.7854 0.0000
# 6 0.0000 0.0000 0.0000 0.0000 0.0000 13.3177
#
#
#
# Elastic Compliance Matrix: (Units=1/GPa)
#
#
# Indices 1 2 3 4 5 6 
#
# 1 0.017480 -0.004476 -0.003785 0.000000 0.000000 0.000000
# 2 -0.004476 0.017482 -0.003785 0.000000 0.000000 0.000000
# 3 -0.003785 -0.003785 0.010091 0.000000 0.000000 0.000000
# 4 0.000000 0.000000 0.000000 0.034740 0.000000 0.000000
# 5 0.000000 0.000000 0.000000 0.000000 0.034740 0.000000
# 6 0.000000 0.000000 0.000000 0.000000 0.000000 0.075088
#
#
# Mechanical properties :
#
#
# Convention : Reuss Voigt Hill
#
# Bulk Modulus (GPa) = 47.70542 52.34263 50.02402
# Shear Modulus (GPa) = 22.65506 25.54294 24.09900
#
# Velocity S-wave (km/s) = 3.66589 3.89253 3.78091
# Velocity P-wave (km/s) = 6.79828 7.15901 6.98098
#
# Compressibility (1/GPa) = 0.02096198
#
# Stress axis : x y z
#
# Youngs Moduli (GPa) = 57.20765 57.20140 99.09419
#
# Poissons Ratio (x) = 0.25603 0.37506
# Poissons Ratio (y) = 0.25605 0.37509
# Poissons Ratio (z) = 0.21652 0.21652
#
# Static dielectric constant tensor:
#      x y z
#    x 3.014000 0.000000 0.000000 
#    y 0.000000 3.014000 0.000000 
#    z 0.000000 0.000000 3.207570 
# 
# 
# High freq. dielectric constant tensor:
#      x y z
#    x 1.627700 0.000000 0.000000 
#    y 0.000000 1.627700 0.000000 
#    z 0.000000 0.000000 1.672090 
# 
# From -- ./inp_files/1483.got.cif
#   From: 2010.06.25/outbox.cif.g09.slc.cpg/sg140_1_cif.got.tgz:1483.got - 2010.06.28 10:53:23.
