data_PCOD8320484
_publ_section_title
;
Structure prediction by ZEFSAII (Michael W. Deem and Ramdas Pophale) SiO2 
 PCOD8320484
Probable space group: I 4/M C M
;
_chemical_formula_sum "Si O2"
_cell_formula_units_Z 80
_cell_length_a 14.631256
_cell_length_b 14.631256
_cell_length_c 18.981070
_cell_angle_alpha 90.000000
_cell_angle_beta 90.000000
_cell_angle_gamma 90.000000
_cell_volume 4063.346976
_symmetry_space_group_name_H-M "I 4/M C M"
_symmetry_group_IT_number 140
_symmetry_cell_setting 'tetragonal'
loop_
_space_group_symop_operation_xyz
x,y,z
-y,x,z
-x,-y,z
y,-x,z
x,-y,1/2-z
-x,y,1/2-z
y,x,1/2-z
-y,-x,1/2-z
-x,-y,-z
y,-x,-z
x,y,-z
-y,x,-z
-x,y,1/2+z
x,-y,1/2+z
-y,-x,1/2+z
y,x,1/2+z
1/2+x,1/2+y,1/2+z
1/2-y,1/2+x,1/2+z
1/2-x,1/2-y,1/2+z
1/2+y,1/2-x,1/2+z
1/2+x,1/2-y,-z
1/2-x,1/2+y,-z
1/2+y,1/2+x,-z
1/2-y,1/2-x,-z
1/2-x,1/2-y,1/2-z
1/2+y,1/2-x,1/2-z
1/2+x,1/2+y,1/2-z
1/2-y,1/2+x,1/2-z
1/2-x,1/2+y,z
1/2+x,1/2-y,z
1/2-y,1/2-x,z
1/2+y,1/2+x,z
loop_
_atom_site_type_symbol
_atom_site_label
_atom_site_fract_x
_atom_site_fract_y
_atom_site_fract_z
Si Si1 0.145926 0.042295 0.000000
Si Si2 0.893239 0.893239 0.750000
Si Si3 0.892364 0.756825 0.363007
Si Si4 0.500000 0.145374 0.750000
O O1 0.208672 0.057515 0.067602
O O2 0.061501 0.111841 0.000000
O O3 0.852373 0.843643 0.680822
O O4 0.000000 0.872586 0.750000
O O5 0.808894 0.691107 0.383932
O O6 0.967449 0.705890 0.315448
O O7 0.416779 0.083222 0.721870
#
# Coordination Sequence:
#
# PCOD8320484 Si02
#       4
#    16  16  32  16
#     4  11  25  44  60  85 127 169 202 249 314 375
#     4  11  21  36  58  88 123 163 202 242 302 367
#     4  11  22  40  64  92 121 158 212 260 304 364
#     4   9  20  40  65  92 124 160 205 260 312 363
#
# _framework density 19.688203000000001
#
# number of rings (size 3 to 8) (size 9 to 14) (size 15 to 20)
#    0.000    1.400    2.000    3.600    0.000    3.200 
#    0.000    3.000    0.000    4.800    0.000    0.000 
#    0.000    0.000    0.000    0.000    0.000    0.000 
#
# Total GULP energy -495967.611505 kJ/mol
# GULP energy per Si atom -12399.190288 kJ/mol
# Density = 1.964339 g / cm^3
# Si number density = 19.688203 Si / 1000 Ang^3
#
#
#
# Elastic Constant Matrix: (Units=GPa)
#
#
# Indices 1 2 3 4 5 6 
#
# 1 126.8487 59.4919 64.4442 0.0000 0.0000 0.0000
# 2 59.4919 126.8487 64.4443 0.0000 0.0000 0.0000
# 3 64.4442 64.4443 154.4408 0.0000 0.0000 0.0000
# 4 0.0000 0.0000 0.0000 4.7088 0.0000 0.0000
# 5 0.0000 0.0000 0.0000 0.0000 4.7088 0.0000
# 6 0.0000 0.0000 0.0000 0.0000 0.0000 22.2035
#
#
#
# Elastic Compliance Matrix: (Units=1/GPa)
#
#
# Indices 1 2 3 4 5 6 
#
# 1 0.011195 -0.003651 -0.003148 0.000000 0.000000 0.000000
# 2 -0.003651 0.011195 -0.003148 0.000000 0.000000 0.000000
# 3 -0.003148 -0.003148 0.009102 0.000000 0.000000 0.000000
# 4 0.000000 0.000000 0.000000 0.212368 0.000000 0.000000
# 5 0.000000 0.000000 0.000000 0.000000 0.212369 0.000000
# 6 0.000000 0.000000 0.000000 0.000000 0.000000 0.045038
#
#
# Mechanical properties :
#
#
# Convention : Reuss Voigt Hill
#
# Bulk Modulus (GPa) = 86.21975 87.21099 86.71537
# Shear Modulus (GPa) = 9.52332 20.97474 15.24903
#
# Velocity S-wave (km/s) = 2.20172 3.26750 2.78605
# Velocity P-wave (km/s) = 7.09585 7.65687 7.38169
#
# Compressibility (1/GPa) = 0.01159827
#
# Stress axis : x y z
#
# Youngs Moduli (GPa) = 89.32503 89.32503 109.86581
#
# Poissons Ratio (x) = 0.32615 0.34584
# Poissons Ratio (y) = 0.32615 0.34584
# Poissons Ratio (z) = 0.28118 0.28118
#
# Static dielectric constant tensor:
#      x y z
#    x 3.765660 0.000000 0.000000 
#    y 0.000000 3.765660 0.000000 
#    z 0.000000 0.000000 3.530180 
# 
# 
# High freq. dielectric constant tensor:
#      x y z
#    x 1.778910 0.000000 0.000000 
#    y 0.000000 1.778910 0.000000 
#    z 0.000000 0.000000 1.758710 
# 
# From -- ./inp_files/7538.got.cif
#   From: 2010.06.25/outbox.cif.g09.slc.cpg/sg140_4_cif.got.tgz:7538.got - 2010.06.28 10:53:23.
