data_PCOD8320797
_publ_section_title
;
Structure prediction by ZEFSAII (Michael W. Deem and Ramdas Pophale) SiO2 
 PCOD8320797
Probable space group: I 41/A M D
;
_chemical_formula_sum "Si O2"
_cell_formula_units_Z 240
_cell_length_a 20.377237
_cell_length_b 20.377237
_cell_length_c 30.301430
_cell_angle_alpha 90.000000
_cell_angle_beta 90.000000
_cell_angle_gamma 90.000000
_cell_volume 12582.116950
_symmetry_space_group_name_H-M "I 41/A M D"
_symmetry_group_IT_number 141
_space_group.IT_coordinate_system_code '2'
_symmetry_cell_setting 'tetragonal'
loop_
_space_group_symop_operation_xyz
x,y,z
1/4-y,3/4+x,1/4+z
-x,1/2-y,z
1/4+y,1/4-x,3/4+z
x,-y,-z
-x,1/2+y,-z
1/4+y,3/4+x,1/4-z
1/4-y,1/4-x,3/4-z
-x,-y,-z
3/4+y,1/4-x,3/4-z
x,1/2+y,-z
3/4-y,3/4+x,1/4-z
-x,y,z
x,1/2-y,z
3/4-y,1/4-x,3/4+z
3/4+y,3/4+x,1/4+z
1/2+x,1/2+y,1/2+z
3/4-y,1/4+x,3/4+z
1/2-x,-y,1/2+z
3/4+y,3/4-x,1/4+z
1/2+x,1/2-y,1/2-z
1/2-x,y,1/2-z
3/4+y,1/4+x,3/4-z
3/4-y,3/4-x,1/4-z
1/2-x,1/2-y,1/2-z
1/4+y,3/4-x,1/4-z
1/2+x,y,1/2-z
1/4-y,1/4+x,3/4-z
1/2-x,1/2+y,1/2+z
1/2+x,-y,1/2+z
1/4-y,3/4-x,1/4+z
1/4+y,1/4+x,3/4+z
loop_
_atom_site_type_symbol
_atom_site_label
_atom_site_fract_x
_atom_site_fract_y
_atom_site_fract_z
Si Si1 0.215329 0.323170 0.043724
Si Si2 0.427345 0.902305 0.739745
Si Si3 0.862107 0.967668 0.837900
Si Si4 0.424714 0.058093 0.028993
Si Si5 0.792157 0.824005 0.169352
Si Si6 0.427788 0.822213 0.375000
Si Si7 0.184300 0.568375 0.232882
Si Si8 0.133550 0.489361 0.384203
O O1 0.182293 0.250000 0.043779
O O2 0.233909 0.342152 0.093271
O O3 0.279320 0.320646 0.014340
O O4 0.169669 0.379769 0.021497
O O5 0.500000 0.869775 0.739837
O O6 0.406454 0.915122 0.688871
O O7 0.377121 0.857846 0.766847
O O8 0.795126 0.932693 0.850097
O O9 0.898048 0.995311 0.880964
O O10 0.847305 0.029912 0.807571
O O11 0.500000 0.067153 0.016781
O O12 0.417664 0.035314 0.079281
O O13 0.392405 0.000000 0.000000
O O14 0.769335 0.750000 0.177542
O O15 0.869814 0.828729 0.159923
O O16 0.785074 0.863702 0.214696
O O17 0.500000 0.828066 0.351669
O O18 0.250000 0.529910 0.250000
O O19 0.175209 0.425209 0.375000
#
# Coordination Sequence:
#
# PCOD8320797 Si02
#       8
#    32  32  32  32  32  16  32  32
#     4  10  22  37  57  85 117 156 197 240 300 361
#     4  10  21  38  58  83 119 157 194 239 296 364
#     4  11  21  35  57  88 117 152 193 248 305 361
#     4  11  23  40  61  88 118 150 196 251 300 357
#     4  11  21  36  56  83 115 151 197 247 301 359
#     4   9  18  32  50  74 106 142 182 232 290 351
#     4  11  22  36  55  84 118 152 197 246 300 361
#     4  12  21  35  61  87 120 154 193 250 304 365
#
# _framework density 19.074691000000001
#
# number of rings (size 3 to 8) (size 9 to 14) (size 15 to 20)
#    0.000    1.267    4.000    3.200    1.867    1.600 
#    0.000    0.000    0.000    0.000    0.000    0.000 
#    0.000    0.000    0.000    0.000    0.000    0.000 
#
# Total GULP energy -1487298.038061 kJ/mol
# GULP energy per Si atom -12394.150317 kJ/mol
# Density = 1.903128 g / cm^3
# Si number density = 19.074691 Si / 1000 Ang^3
#
#
#
# Elastic Constant Matrix: (Units=GPa)
#
#
# Indices 1 2 3 4 5 6 
#
# 1 84.0651 12.6482 32.6064 0.0000 0.0000 0.0000
# 2 12.6482 84.0646 32.6064 0.0000 0.0000 0.0000
# 3 32.6064 32.6064 112.0338 0.0000 0.0000 0.0000
# 4 0.0000 0.0000 0.0000 22.5250 0.0000 0.0000
# 5 0.0000 0.0000 0.0000 0.0000 22.5248 0.0000
# 6 0.0000 0.0000 0.0000 0.0000 0.0000 62.4063
#
#
#
# Elastic Compliance Matrix: (Units=1/GPa)
#
#
# Indices 1 2 3 4 5 6 
#
# 1 0.013433 -0.000569 -0.003744 0.000000 0.000000 0.000000
# 2 -0.000569 0.013433 -0.003744 0.000000 0.000000 0.000000
# 3 -0.003744 -0.003744 0.011105 0.000000 0.000000 0.000000
# 4 0.000000 0.000000 0.000000 0.044395 0.000000 0.000000
# 5 0.000000 0.000000 0.000000 0.000000 0.044396 0.000000
# 6 0.000000 0.000000 0.000000 0.000000 0.000000 0.016024
#
#
# Mechanical properties :
#
#
# Convention : Reuss Voigt Hill
#
# Bulk Modulus (GPa) = 45.75014 48.43170 47.09092
# Shear Modulus (GPa) = 30.08661 34.97806 32.53233
#
# Velocity S-wave (km/s) = 3.97584 4.28687 4.13428
# Velocity P-wave (km/s) = 6.71664 7.06744 6.89427
#
# Compressibility (1/GPa) = 0.02185785
#
# Stress axis : x y z
#
# Youngs Moduli (GPa) = 74.44155 74.44105 90.04758
#
# Poissons Ratio (x) = 0.04235 0.33714
# Poissons Ratio (y) = 0.04235 0.33715
# Poissons Ratio (z) = 0.27871 0.27871
#
# Static dielectric constant tensor:
#      x y z
#    x 3.652200 0.000000 0.000000 
#    y 0.000000 3.652210 0.000000 
#    z 0.000000 0.000000 3.574540 
# 
# 
# High freq. dielectric constant tensor:
#      x y z
#    x 1.736490 0.000000 0.000000 
#    y 0.000000 1.736490 0.000000 
#    z 0.000000 0.000000 1.744020 
# 
# From -- ./inp_files/13162.got.cif
#   From: 2010.03.12/outbox.cif.g09.slc.cpg/sg141_7_cif.got.tgz:13162.got - 2010.04.03 13:18:35.
