data_PCOD8320630
_publ_section_title
;
Structure prediction by ZEFSAII (Michael W. Deem and Ramdas Pophale) SiO2 
 PCOD8320630
Probable space group: I 41/A M D
;
_chemical_formula_sum "Si O2"
_cell_formula_units_Z 160
_cell_length_a 21.439553
_cell_length_b 21.439553
_cell_length_c 18.719193
_cell_angle_alpha 90.000000
_cell_angle_beta 90.000000
_cell_angle_gamma 90.000000
_cell_volume 8604.360042
_symmetry_space_group_name_H-M "I 41/A M D"
_symmetry_group_IT_number 141
_space_group.IT_coordinate_system_code '2'
_symmetry_cell_setting 'tetragonal'
loop_
_space_group_symop_operation_xyz
x,y,z
1/4-y,3/4+x,1/4+z
-x,1/2-y,z
1/4+y,1/4-x,3/4+z
x,-y,-z
-x,1/2+y,-z
1/4+y,3/4+x,1/4-z
1/4-y,1/4-x,3/4-z
-x,-y,-z
3/4+y,1/4-x,3/4-z
x,1/2+y,-z
3/4-y,3/4+x,1/4-z
-x,y,z
x,1/2-y,z
3/4-y,1/4-x,3/4+z
3/4+y,3/4+x,1/4+z
1/2+x,1/2+y,1/2+z
3/4-y,1/4+x,3/4+z
1/2-x,-y,1/2+z
3/4+y,3/4-x,1/4+z
1/2+x,1/2-y,1/2-z
1/2-x,y,1/2-z
3/4+y,1/4+x,3/4-z
3/4-y,3/4-x,1/4-z
1/2-x,1/2-y,1/2-z
1/4+y,3/4-x,1/4-z
1/2+x,y,1/2-z
1/4-y,1/4+x,3/4-z
1/2-x,1/2+y,1/2+z
1/2+x,-y,1/2+z
1/4-y,3/4-x,1/4+z
1/4+y,1/4+x,3/4+z
loop_
_atom_site_type_symbol
_atom_site_label
_atom_site_fract_x
_atom_site_fract_y
_atom_site_fract_z
Si Si1 0.428234 0.607570 0.313419
Si Si2 0.500000 0.408718 0.932393
Si Si3 0.643134 0.132881 0.406523
Si Si4 0.710692 0.872201 0.913590
Si Si5 0.500000 0.056556 0.086286
Si Si6 0.072871 0.537334 0.816063
O O1 0.500000 0.626201 0.307026
O O2 0.397652 0.647652 0.375000
O O3 0.396693 0.624347 0.238101
O O4 0.420554 0.535359 0.333335
O O5 0.440576 0.376865 0.895245
O O6 0.500000 0.482775 0.925164
O O7 0.500000 0.398208 0.017330
O O8 0.716287 0.119928 0.399364
O O9 0.601024 0.074518 0.382980
O O10 0.682143 0.932143 0.875000
O O11 0.678091 0.811846 0.879715
O O12 0.696379 0.866044 0.997713
O O13 0.000000 0.554053 0.802480
#
# Coordination Sequence:
#
# PCOD8320630 Si02
#       6
#    32  16  32  32  16  32
#     4  10  22  41  62  83 111 147 190 239 288 341
#     4   9  16  30  53  80 108 142 189 231 261 320
#     4  10  20  36  58  83 112 148 190 234 280 337
#     4  10  19  33  55  83 115 151 190 230 274 334
#     4   9  16  28  50  79 109 149 187 218 268 324
#     4  10  21  38  57  82 119 154 183 229 293 342
#
# _framework density 18.595224000000002
#
# number of rings (size 3 to 8) (size 9 to 14) (size 15 to 20)
#    0.000    2.200    2.000    1.200    0.000    5.000 
#    0.000    6.500    0.000    0.300    0.000    0.000 
#    0.000    0.000    0.000    0.000    0.000    0.000 
#
# Total GULP energy -991826.397415 kJ/mol
# GULP energy per Si atom -12397.829968 kJ/mol
# Density = 1.855290 g / cm^3
# Si number density = 18.595224 Si / 1000 Ang^3
#
#
#
# Elastic Constant Matrix: (Units=GPa)
#
#
# Indices 1 2 3 4 5 6 
#
# 1 61.6705 44.0854 45.1315 0.0000 0.0000 0.0000
# 2 44.0854 61.6705 45.1315 0.0000 0.0000 0.0000
# 3 45.1315 45.1315 110.9910 0.0000 0.0000 0.0000
# 4 0.0000 0.0000 0.0000 33.7634 0.0000 0.0000
# 5 0.0000 0.0000 0.0000 0.0000 33.7634 0.0000
# 6 0.0000 0.0000 0.0000 0.0000 0.0000 14.9623
#
#
#
# Elastic Compliance Matrix: (Units=1/GPa)
#
#
# Indices 1 2 3 4 5 6 
#
# 1 0.035674 -0.021192 -0.005889 0.000000 0.000000 0.000000
# 2 -0.021192 0.035674 -0.005889 0.000000 0.000000 0.000000
# 3 -0.005889 -0.005889 0.013799 0.000000 0.000000 0.000000
# 4 0.000000 0.000000 0.000000 0.029618 0.000000 0.000000
# 5 0.000000 0.000000 0.000000 0.000000 0.029618 0.000000
# 6 0.000000 0.000000 0.000000 0.000000 0.000000 0.066835
#
#
# Mechanical properties :
#
#
# Convention : Reuss Voigt Hill
#
# Bulk Modulus (GPa) = 52.06269 55.89207 53.97738
# Shear Modulus (GPa) = 17.63308 23.16341 20.39824
#
# Velocity S-wave (km/s) = 3.08272 3.53323 3.31563
# Velocity P-wave (km/s) = 6.38197 6.83867 6.61426
#
# Compressibility (1/GPa) = 0.01920761
#
# Stress axis : x y z
#
# Youngs Moduli (GPa) = 28.03170 28.03170 72.47122
#
# Poissons Ratio (x) = 0.59406 0.42675
# Poissons Ratio (y) = 0.59406 0.42675
# Poissons Ratio (z) = 0.16507 0.16507
#
# Static dielectric constant tensor:
#      x y z
#    x 3.276650 0.000000 0.000000 
#    y 0.000000 3.276650 0.000000 
#    z 0.000000 0.000000 3.509970 
# 
# 
# High freq. dielectric constant tensor:
#      x y z
#    x 1.709070 0.000000 0.000000 
#    y 0.000000 1.709070 0.000000 
#    z 0.000000 0.000000 1.731890 
# 
# From -- ./inp_files/8658.got.cif
#   From: 2010.03.12/outbox.cif.g09.slc.cpg/sg141_5_cif.got.tgz:8658.got - 2010.04.03 13:18:35.
