data_PCOD8320953
_publ_section_title
;
Structure prediction by ZEFSAII (Michael W. Deem and Ramdas Pophale) SiO2 
 PCOD8320953
Probable space group: I 41/A C D
;
_chemical_formula_sum "Si O2"
_cell_formula_units_Z 136
_cell_length_a 23.769083
_cell_length_b 23.769083
_cell_length_c 11.641454
_cell_angle_alpha 90.000000
_cell_angle_beta 90.000000
_cell_angle_gamma 90.000000
_cell_volume 6577.064195
_symmetry_space_group_name_H-M "I 41/A C D"
_symmetry_group_IT_number 142
_space_group.IT_coordinate_system_code '2'
_symmetry_cell_setting 'tetragonal'
loop_
_space_group_symop_operation_xyz
x,y,z
1/4-y,3/4+x,1/4+z
-x,1/2-y,z
1/4+y,1/4-x,3/4+z
x,-y,1/2-z
1/2-x,y,-z
3/4+y,1/4+x,1/4-z
1/4-y,1/4-x,1/4-z
-x,-y,-z
3/4+y,1/4-x,3/4-z
x,1/2+y,-z
3/4-y,3/4+x,1/4-z
-x,y,1/2+z
1/2+x,-y,z
1/4-y,3/4-x,3/4+z
3/4+y,3/4+x,3/4+z
1/2+x,1/2+y,1/2+z
3/4-y,1/4+x,3/4+z
1/2-x,-y,1/2+z
3/4+y,3/4-x,1/4+z
1/2+x,1/2-y,-z
-x,1/2+y,1/2-z
1/4+y,3/4+x,3/4-z
3/4-y,3/4-x,3/4-z
1/2-x,1/2-y,1/2-z
1/4+y,3/4-x,1/4-z
1/2+x,y,1/2-z
1/4-y,1/4+x,3/4-z
1/2-x,1/2+y,z
x,1/2-y,1/2+z
3/4-y,1/4-x,1/4+z
1/4+y,1/4+x,1/4+z
loop_
_atom_site_type_symbol
_atom_site_label
_atom_site_fract_x
_atom_site_fract_y
_atom_site_fract_z
Si Si1 0.000000 0.250000 0.125000
Si Si2 0.653444 0.096557 0.375000
Si Si3 0.937182 0.059639 0.802275
Si Si4 0.640088 0.481210 0.501038
Si Si5 0.995276 0.168751 0.818087
Si Si6 0.341914 0.000000 0.250000
O O1 0.997803 0.190883 0.190089
O O2 0.600789 0.094427 0.288411
O O3 0.707432 0.096699 0.295805
O O4 0.908575 0.048897 0.925603
O O5 0.990146 0.100998 0.824695
O O6 0.957148 0.000000 0.750000
O O7 0.621951 0.486726 0.365935
O O8 0.696569 0.446895 0.521764
O O9 0.938329 0.199259 0.863750
#
# Coordination Sequence:
#
# PCOD8320953 Si02
#       6
#     8  16  32  32  32  16
#     4   8  16  36  68  94 106 160 214 276 292 344
#     4  10  17  30  48  77 115 156 204 240 298 370
#     4  10  20  32  57  91 124 160 202 254 321 374
#     4  10  18  28  47  75 113 164 211 254 293 368
#     4   9  19  38  66  90 116 151 212 262 306 373
#     4  10  18  28  46  68 120 166 214 254 292 356
#
# _framework density 20.677918999999999
#
# number of rings (size 3 to 8) (size 9 to 14) (size 15 to 20)
#    0.000    2.588    2.353    2.118    1.647    0.000 
#    0.000    9.412    2.588   22.588    0.000    0.000 
#    0.000    0.000    0.000    0.000    0.000    0.000 
#
# Total GULP energy -842504.848317 kJ/mol
# GULP energy per Si atom -12389.777181 kJ/mol
# Density = 2.063086 g / cm^3
# Si number density = 20.677919 Si / 1000 Ang^3
#
#
#
# Elastic Constant Matrix: (Units=GPa)
#
#
# Indices 1 2 3 4 5 6 
#
# 1 66.3818 41.9636 26.2733 0.0000 0.0000 0.0000
# 2 41.9636 66.3820 26.2706 0.0000 0.0000 0.0000
# 3 26.2733 26.2706 142.9269 0.0000 0.0000 0.0000
# 4 0.0000 0.0000 0.0000 17.7392 0.0000 0.0000
# 5 0.0000 0.0000 0.0000 0.0000 17.7402 0.0000
# 6 0.0000 0.0000 0.0000 0.0000 0.0000 35.1916
#
#
#
# Elastic Compliance Matrix: (Units=1/GPa)
#
#
# Indices 1 2 3 4 5 6 
#
# 1 0.025543 -0.015410 -0.001863 0.000000 0.000000 0.000000
# 2 -0.015410 0.025543 -0.001862 0.000000 0.000000 0.000000
# 3 -0.001863 -0.001862 0.007681 0.000000 0.000000 0.000000
# 4 0.000000 0.000000 0.000000 0.056372 0.000000 0.000000
# 5 0.000000 0.000000 0.000000 0.000000 0.056369 0.000000
# 6 0.000000 0.000000 0.000000 0.000000 0.000000 0.028416
#
#
# Mechanical properties :
#
#
# Convention : Reuss Voigt Hill
#
# Bulk Modulus (GPa) = 48.78761 51.63397 50.21079
# Shear Modulus (GPa) = 20.40588 26.21306 23.30947
#
# Velocity S-wave (km/s) = 3.14482 3.56432 3.36112
# Velocity P-wave (km/s) = 6.06892 6.47796 6.27677
#
# Compressibility (1/GPa) = 0.02049701
#
# Stress axis : x y z
#
# Youngs Moduli (GPa) = 39.14932 39.15007 130.18585
#
# Poissons Ratio (x) = 0.60330 0.24254
# Poissons Ratio (y) = 0.60329 0.24243
# Poissons Ratio (z) = 0.07294 0.07290
#
# Static dielectric constant tensor:
#      x y z
#    x 3.403620 0.000000 0.000000 
#    y 0.000000 3.403630 0.000000 
#    z 0.000000 0.000000 4.099070 
# 
# 
# High freq. dielectric constant tensor:
#      x y z
#    x 1.782910 0.000000 0.000000 
#    y 0.000000 1.782910 0.000000 
#    z 0.000000 0.000000 1.829620 
# 
# From -- ./inp_files/3676.got.cif
#   From: 2010.03.12/outbox.cif.g09.slc.cpg/sg142_2_cif.got.tgz:3676.got - 2010.04.03 13:27:16.
