data_PCOD8320157
_publ_section_title
;
Structure prediction by ZEFSAII (Michael W. Deem and Ramdas Pophale) SiO2 
 PCOD8320157
Probable space group: I 4/M C M
;
_chemical_formula_sum "Si O2"
_cell_formula_units_Z 128
_cell_length_a 21.364243
_cell_length_b 21.364243
_cell_length_c 15.154079
_cell_angle_alpha 90.000000
_cell_angle_beta 90.000000
_cell_angle_gamma 90.000000
_cell_volume 6916.789598
_symmetry_space_group_name_H-M "I 4/M C M"
_symmetry_group_IT_number 140
_symmetry_cell_setting 'tetragonal'
loop_
_space_group_symop_operation_xyz
x,y,z
-y,x,z
-x,-y,z
y,-x,z
x,-y,1/2-z
-x,y,1/2-z
y,x,1/2-z
-y,-x,1/2-z
-x,-y,-z
y,-x,-z
x,y,-z
-y,x,-z
-x,y,1/2+z
x,-y,1/2+z
-y,-x,1/2+z
y,x,1/2+z
1/2+x,1/2+y,1/2+z
1/2-y,1/2+x,1/2+z
1/2-x,1/2-y,1/2+z
1/2+y,1/2-x,1/2+z
1/2+x,1/2-y,-z
1/2-x,1/2+y,-z
1/2+y,1/2+x,-z
1/2-y,1/2-x,-z
1/2-x,1/2-y,1/2-z
1/2+y,1/2-x,1/2-z
1/2+x,1/2+y,1/2-z
1/2-y,1/2+x,1/2-z
1/2-x,1/2+y,z
1/2+x,1/2-y,z
1/2-y,1/2-x,z
1/2+y,1/2+x,z
loop_
_atom_site_type_symbol
_atom_site_label
_atom_site_fract_x
_atom_site_fract_y
_atom_site_fract_z
Si Si1 0.671921 0.724451 0.840053
Si Si2 0.597076 0.998535 0.354759
Si Si3 0.637924 0.635665 0.500000
Si Si4 0.767814 0.467682 0.156948
Si Si5 0.999238 0.181316 0.000000
O O1 0.688634 0.688634 0.750000
O O2 0.726306 0.773695 0.865274
O O3 0.665444 0.672096 0.915289
O O4 0.607134 0.762812 0.831141
O O5 0.552116 0.052116 0.393140
O O6 0.666477 0.012480 0.387868
O O7 0.597395 0.000000 0.250000
O O8 0.569388 0.930613 0.385635
O O9 0.564761 0.647287 0.500000
O O10 0.636470 0.560644 0.500000
O O11 0.756201 0.500000 0.250000
O O12 0.719156 0.495972 0.089888
#
# Coordination Sequence:
#
# PCOD8320157 Si02
#       5
#    32  32  16  32  16
#     4  10  20  34  55  81 109 143 178 214 262 314
#     4   8  14  26  45  69  99 136 174 209 246 291
#     4  10  21  39  56  78 106 132 172 219 265 318
#     4  10  19  33  53  76 105 138 174 215 256 305
#     4  10  22  37  56  77 100 130 166 214 270 322
#
# _framework density 18.505694999999999
#
# number of rings (size 3 to 8) (size 9 to 14) (size 15 to 20)
#    0.000    2.500    0.000    3.375    0.000    1.250 
#    0.000    5.000    0.000    1.500    0.000    3.500 
#    0.000    0.000    0.000    0.000    0.000    0.000 
#
# Total GULP energy -793126.788204 kJ/mol
# GULP energy per Si atom -12392.606066 kJ/mol
# Density = 1.846358 g / cm^3
# Si number density = 18.505695 Si / 1000 Ang^3
#
#
#
# Elastic Constant Matrix: (Units=GPa)
#
#
# Indices 1 2 3 4 5 6 
#
# 1 150.5851 90.7772 54.3423 0.0000 0.0000 0.0000
# 2 90.7772 150.5851 54.3423 0.0000 0.0000 0.0000
# 3 54.3423 54.3423 93.8068 0.0000 0.0000 0.0000
# 4 0.0000 0.0000 0.0000 44.1361 0.0000 0.0000
# 5 0.0000 0.0000 0.0000 0.0000 44.1361 0.0000
# 6 0.0000 0.0000 0.0000 0.0000 0.0000 29.5779
#
#
#
# Elastic Compliance Matrix: (Units=1/GPa)
#
#
# Indices 1 2 3 4 5 6 
#
# 1 0.011163 -0.005557 -0.003247 0.000000 0.000000 0.000000
# 2 -0.005557 0.011163 -0.003247 0.000000 0.000000 0.000000
# 3 -0.003247 -0.003247 0.014422 0.000000 0.000000 0.000000
# 4 0.000000 0.000000 0.000000 0.022657 0.000000 0.000000
# 5 0.000000 0.000000 0.000000 0.000000 0.022657 0.000000
# 6 0.000000 0.000000 0.000000 0.000000 0.000000 0.033809
#
#
# Mechanical properties :
#
#
# Convention : Reuss Voigt Hill
#
# Bulk Modulus (GPa) = 79.08658 88.21116 83.64887
# Shear Modulus (GPa) = 34.67657 36.60439 35.64048
#
# Velocity S-wave (km/s) = 4.33347 4.45230 4.39329
# Velocity P-wave (km/s) = 8.23819 8.61401 8.42820
#
# Compressibility (1/GPa) = 0.01264437
#
# Stress axis : x y z
#
# Youngs Moduli (GPa) = 89.58350 89.58350 69.33669
#
# Poissons Ratio (x) = 0.49785 0.22515
# Poissons Ratio (y) = 0.49785 0.22515
# Poissons Ratio (z) = 0.29089 0.29089
#
# Static dielectric constant tensor:
#      x y z
#    x 3.565640 0.000000 0.000000 
#    y 0.000000 3.565640 0.000000 
#    z 0.000000 0.000000 3.450960 
# 
# 
# High freq. dielectric constant tensor:
#      x y z
#    x 1.718820 0.000000 0.000000 
#    y 0.000000 1.718820 0.000000 
#    z 0.000000 0.000000 1.718540 
# 
# From -- ./inp_files/6564.got.cif
#   From: 2010.06.25/outbox.cif.g09.slc.cpg/sg140_4_cif.got.tgz:6564.got - 2010.06.28 10:53:23.
