data_PCOD8320809
_publ_section_title
;
Structure prediction by ZEFSAII (Michael W. Deem and Ramdas Pophale) SiO2 
 PCOD8320809
Probable space group: I 41/A M D
;
_chemical_formula_sum "Si O2"
_cell_formula_units_Z 176
_cell_length_a 17.538710
_cell_length_b 17.538710
_cell_length_c 27.274894
_cell_angle_alpha 90.000000
_cell_angle_beta 90.000000
_cell_angle_gamma 90.000000
_cell_volume 8389.930548
_symmetry_space_group_name_H-M "I 41/A M D"
_symmetry_group_IT_number 141
_space_group.IT_coordinate_system_code '2'
_symmetry_cell_setting 'tetragonal'
loop_
_space_group_symop_operation_xyz
x,y,z
1/4-y,3/4+x,1/4+z
-x,1/2-y,z
1/4+y,1/4-x,3/4+z
x,-y,-z
-x,1/2+y,-z
1/4+y,3/4+x,1/4-z
1/4-y,1/4-x,3/4-z
-x,-y,-z
3/4+y,1/4-x,3/4-z
x,1/2+y,-z
3/4-y,3/4+x,1/4-z
-x,y,z
x,1/2-y,z
3/4-y,1/4-x,3/4+z
3/4+y,3/4+x,1/4+z
1/2+x,1/2+y,1/2+z
3/4-y,1/4+x,3/4+z
1/2-x,-y,1/2+z
3/4+y,3/4-x,1/4+z
1/2+x,1/2-y,1/2-z
1/2-x,y,1/2-z
3/4+y,1/4+x,3/4-z
3/4-y,3/4-x,1/4-z
1/2-x,1/2-y,1/2-z
1/4+y,3/4-x,1/4-z
1/2+x,y,1/2-z
1/4-y,1/4+x,3/4-z
1/2-x,1/2+y,1/2+z
1/2+x,-y,1/2+z
1/4-y,3/4-x,1/4+z
1/4+y,1/4+x,3/4+z
loop_
_atom_site_type_symbol
_atom_site_label
_atom_site_fract_x
_atom_site_fract_y
_atom_site_fract_z
Si Si1 0.203198 0.338250 0.888688
Si Si2 0.306250 0.665599 0.204963
Si Si3 0.678156 0.468124 0.275320
Si Si4 0.777864 0.338821 0.055315
Si Si5 0.914366 0.335635 0.375000
Si Si6 0.258753 0.836860 0.833903
O O1 0.196944 0.250000 0.904301
O O2 0.119020 0.369020 0.875000
O O3 0.260968 0.351507 0.844657
O O4 0.232713 0.390385 0.932680
O O5 0.342697 0.750000 0.201957
O O6 0.250000 0.660844 0.250000
O O7 0.375321 0.607393 0.212080
O O8 0.750000 0.512903 0.250000
O O9 0.617770 0.459527 0.230684
O O10 0.712287 0.387908 0.295126
O O11 0.785384 0.250000 0.049405
O O12 0.761207 0.362734 0.110933
O O13 0.904231 0.250000 0.397784
O O14 0.851261 0.345877 0.331669
O O15 0.233615 0.750000 0.823231
#
# Coordination Sequence:
#
# PCOD8320809 Si02
#       6
#    32  32  32  32  16  32
#     4  11  23  40  63  93 132 172 217 269 331 392
#     4  10  21  39  62  90 124 166 214 268 330 395
#     4  12  24  38  65  93 130 172 222 273 327 387
#     4  11  22  39  63  93 128 168 220 272 326 397
#     4   9  18  34  58  88 122 166 217 268 324 382
#     4  10  22  40  63  94 131 173 222 275 332 393
#
# _framework density 20.977526999999998
#
# number of rings (size 3 to 8) (size 9 to 14) (size 15 to 20)
#    0.000    1.364    1.818    4.364    1.273    0.909 
#    0.000    1.818    0.000    8.727    0.000    0.000 
#    0.000    0.000    0.000    0.000    0.000    0.000 
#
# Total GULP energy -1090497.280615 kJ/mol
# GULP energy per Si atom -12392.014552 kJ/mol
# Density = 2.092978 g / cm^3
# Si number density = 20.977527 Si / 1000 Ang^3
#
#
#
# Elastic Constant Matrix: (Units=GPa)
#
#
# Indices 1 2 3 4 5 6 
#
# 1 117.8156 82.4737 59.5327 0.0000 0.0000 0.0000
# 2 82.4737 117.8154 59.5330 0.0000 0.0000 0.0000
# 3 59.5327 59.5330 130.9264 0.0000 0.0000 0.0000
# 4 0.0000 0.0000 0.0000 31.2688 0.0000 0.0000
# 5 0.0000 0.0000 0.0000 0.0000 31.2683 0.0000
# 6 0.0000 0.0000 0.0000 0.0000 0.0000 27.3488
#
#
#
# Elastic Compliance Matrix: (Units=1/GPa)
#
#
# Indices 1 2 3 4 5 6 
#
# 1 0.017569 -0.010726 -0.003111 0.000000 0.000000 0.000000
# 2 -0.010726 0.017569 -0.003111 0.000000 0.000000 0.000000
# 3 -0.003111 -0.003111 0.010467 0.000000 0.000000 0.000000
# 4 0.000000 0.000000 0.000000 0.031981 0.000000 0.000000
# 5 0.000000 0.000000 0.000000 0.000000 0.031981 0.000000
# 6 0.000000 0.000000 0.000000 0.000000 0.000000 0.036565
#
#
# Mechanical properties :
#
#
# Convention : Reuss Voigt Hill
#
# Bulk Modulus (GPa) = 85.41929 85.51514 85.46721
# Shear Modulus (GPa) = 27.18403 28.97837 28.08120
#
# Velocity S-wave (km/s) = 3.60372 3.72075 3.66270
# Velocity P-wave (km/s) = 7.62388 7.70145 7.66276
#
# Compressibility (1/GPa) = 0.01170696
#
# Stress axis : x y z
#
# Youngs Moduli (GPa) = 56.91953 56.91927 95.53600
#
# Poissons Ratio (x) = 0.61054 0.29723
# Poissons Ratio (y) = 0.61054 0.29724
# Poissons Ratio (z) = 0.17709 0.17709
#
# Static dielectric constant tensor:
#      x y z
#    x 3.738500 0.000000 0.000000 
#    y 0.000000 3.738500 0.000000 
#    z 0.000000 0.000000 3.978140 
# 
# 
# High freq. dielectric constant tensor:
#      x y z
#    x 1.822750 0.000000 0.000000 
#    y 0.000000 1.822750 0.000000 
#    z 0.000000 0.000000 1.827640 
# 
# From -- ./inp_files/12900.got.cif
#   From: 2010.03.12/outbox.cif.g09.slc.cpg/sg141_7_cif.got.tgz:12900.got - 2010.04.03 13:18:35.
