data_PCOD8320930
_publ_section_title
;
Structure prediction by ZEFSAII (Michael W. Deem and Ramdas Pophale) SiO2 
 PCOD8320930
Probable space group: I 41/A M D
;
_chemical_formula_sum "Si O2"
_cell_formula_units_Z 132
_cell_length_a 21.498235
_cell_length_b 21.498235
_cell_length_c 14.138869
_cell_angle_alpha 90.000000
_cell_angle_beta 90.000000
_cell_angle_gamma 90.000000
_cell_volume 6534.619170
_symmetry_space_group_name_H-M "I 41/A M D"
_symmetry_group_IT_number 141
_space_group.IT_coordinate_system_code '2'
_symmetry_cell_setting 'tetragonal'
loop_
_space_group_symop_operation_xyz
x,y,z
1/4-y,3/4+x,1/4+z
-x,1/2-y,z
1/4+y,1/4-x,3/4+z
x,-y,-z
-x,1/2+y,-z
1/4+y,3/4+x,1/4-z
1/4-y,1/4-x,3/4-z
-x,-y,-z
3/4+y,1/4-x,3/4-z
x,1/2+y,-z
3/4-y,3/4+x,1/4-z
-x,y,z
x,1/2-y,z
3/4-y,1/4-x,3/4+z
3/4+y,3/4+x,1/4+z
1/2+x,1/2+y,1/2+z
3/4-y,1/4+x,3/4+z
1/2-x,-y,1/2+z
3/4+y,3/4-x,1/4+z
1/2+x,1/2-y,1/2-z
1/2-x,y,1/2-z
3/4+y,1/4+x,3/4-z
3/4-y,3/4-x,1/4-z
1/2-x,1/2-y,1/2-z
1/4+y,3/4-x,1/4-z
1/2+x,y,1/2-z
1/4-y,1/4+x,3/4-z
1/2-x,1/2+y,1/2+z
1/2+x,-y,1/2+z
1/4-y,3/4-x,1/4+z
1/4+y,1/4+x,3/4+z
loop_
_atom_site_type_symbol
_atom_site_label
_atom_site_fract_x
_atom_site_fract_y
_atom_site_fract_z
Si Si1 0.806651 0.378868 0.463844
Si Si2 0.500000 0.750000 0.875000
Si Si3 0.678872 0.750000 0.724238
Si Si4 0.875660 0.419824 0.638882
Si Si5 0.000000 0.616269 0.680524
Si Si6 0.929044 0.179160 0.985669
O O1 0.839569 0.410432 0.375000
O O2 0.819911 0.414821 0.562340
O O3 0.733213 0.379868 0.447286
O O4 0.832676 0.309325 0.476073
O O5 0.559362 0.750000 0.946794
O O6 0.750000 0.750000 0.750000
O O7 0.663671 0.689279 0.666747
O O8 0.637898 0.750000 0.817558
O O9 0.877288 0.363173 0.712941
O O10 0.910235 0.250000 0.013049
O O11 0.919709 0.169709 0.875000
O O12 0.000000 0.166456 0.015474
#
# Coordination Sequence:
#
# PCOD8320930 Si02
#       6
#    32   4  16  32  16  32
#     4  12  24  40  61  91 135 177 218 260 324 396
#     4  12  20  36  52  92 128 160 214 276 312 356
#     4  12  18  38  62  87 128 169 211 253 334 396
#     4  12  23  40  66  94 126 175 219 262 322 392
#     4  12  22  38  58  91 138 174 204 279 328 384
#     4   9  20  42  68  96 129 164 211 271 330 384
#
# _framework density 20.200106000000002
#
# number of rings (size 3 to 8) (size 9 to 14) (size 15 to 20)
#    0.000    0.727    7.273    1.455    1.697    0.000 
#    2.182    4.848    0.000    2.909    0.000    0.000 
#    0.000    0.000    0.000    0.000    0.000    0.000 
#
# Total GULP energy -818495.797408 kJ/mol
# GULP energy per Si atom -12401.451476 kJ/mol
# Density = 2.015413 g / cm^3
# Si number density = 20.200106 Si / 1000 Ang^3
#
#
#
# Elastic Constant Matrix: (Units=GPa)
#
#
# Indices 1 2 3 4 5 6 
#
# 1 120.6076 40.6216 49.9714 0.0000 0.0000 0.0000
# 2 40.6216 120.6094 49.9716 0.0000 0.0000 0.0000
# 3 49.9714 49.9716 84.2047 0.0000 0.0000 0.0000
# 4 0.0000 0.0000 0.0000 23.1369 0.0000 0.0000
# 5 0.0000 0.0000 0.0000 0.0000 23.1387 0.0000
# 6 0.0000 0.0000 0.0000 0.0000 0.0000 6.2335
#
#
#
# Elastic Compliance Matrix: (Units=1/GPa)
#
#
# Indices 1 2 3 4 5 6 
#
# 1 0.011157 -0.001345 -0.005823 0.000000 0.000000 0.000000
# 2 -0.001345 0.011157 -0.005823 0.000000 0.000000 0.000000
# 3 -0.005823 -0.005823 0.018787 0.000000 0.000000 0.000000
# 4 0.000000 0.000000 0.000000 0.043221 0.000000 0.000000
# 5 0.000000 0.000000 0.000000 0.000000 0.043218 0.000000
# 6 0.000000 0.000000 0.000000 0.000000 0.000000 0.160422
#
#
# Mechanical properties :
#
#
# Convention : Reuss Voigt Hill
#
# Bulk Modulus (GPa) = 66.14103 67.39454 66.76778
# Shear Modulus (GPa) = 15.67482 22.82565 19.25023
#
# Velocity S-wave (km/s) = 2.78866 3.36516 3.09038
# Velocity P-wave (km/s) = 6.57136 6.96670 6.77192
#
# Compressibility (1/GPa) = 0.01511921
#
# Stress axis : x y z
#
# Youngs Moduli (GPa) = 89.62983 89.63146 53.22841
#
# Poissons Ratio (x) = 0.12057 0.30994
# Poissons Ratio (y) = 0.12057 0.30994
# Poissons Ratio (z) = 0.52190 0.52190
#
# Static dielectric constant tensor:
#      x y z
#    x 3.633310 0.000000 0.000000 
#    y 0.000000 3.633330 0.000000 
#    z 0.000000 0.000000 3.510780 
# 
# 
# High freq. dielectric constant tensor:
#      x y z
#    x 1.785810 0.000000 0.000000 
#    y 0.000000 1.785810 0.000000 
#    z 0.000000 0.000000 1.780400 
# 
# From -- ./inp_files/6319.got.cif
#   From: 2010.03.12/outbox.cif.g09.slc.cpg/sg141_4_cif.got.tgz:6319.got - 2010.04.03 13:18:35.
