data_PCOD8320344
_publ_section_title
;
Structure prediction by ZEFSAII (Michael W. Deem and Ramdas Pophale) SiO2 
 PCOD8320344
Probable space group: I 4/M C M
;
_chemical_formula_sum "Si O2"
_cell_formula_units_Z 112
_cell_length_a 14.126045
_cell_length_b 14.126045
_cell_length_c 31.793227
_cell_angle_alpha 90.000000
_cell_angle_beta 90.000000
_cell_angle_gamma 90.000000
_cell_volume 6344.184166
_symmetry_space_group_name_H-M "I 4/M C M"
_symmetry_group_IT_number 140
_symmetry_cell_setting 'tetragonal'
loop_
_space_group_symop_operation_xyz
x,y,z
-y,x,z
-x,-y,z
y,-x,z
x,-y,1/2-z
-x,y,1/2-z
y,x,1/2-z
-y,-x,1/2-z
-x,-y,-z
y,-x,-z
x,y,-z
-y,x,-z
-x,y,1/2+z
x,-y,1/2+z
-y,-x,1/2+z
y,x,1/2+z
1/2+x,1/2+y,1/2+z
1/2-y,1/2+x,1/2+z
1/2-x,1/2-y,1/2+z
1/2+y,1/2-x,1/2+z
1/2+x,1/2-y,-z
1/2-x,1/2+y,-z
1/2+y,1/2+x,-z
1/2-y,1/2-x,-z
1/2-x,1/2-y,1/2-z
1/2+y,1/2-x,1/2-z
1/2+x,1/2+y,1/2-z
1/2-y,1/2+x,1/2-z
1/2-x,1/2+y,z
1/2+x,1/2-y,z
1/2-y,1/2-x,z
1/2+y,1/2+x,z
loop_
_atom_site_type_symbol
_atom_site_label
_atom_site_fract_x
_atom_site_fract_y
_atom_site_fract_z
Si Si1 0.892320 0.392320 0.742466
Si Si2 0.039735 0.850983 0.048458
Si Si3 0.345697 0.845697 0.849465
Si Si4 0.308247 0.957490 0.385456
Si Si5 0.307050 0.192951 0.821616
O O1 0.865619 0.500000 0.750000
O O2 0.885571 0.385571 0.693108
O O3 0.824774 0.324774 0.771537
O O4 0.113774 0.934059 0.058706
O O5 0.066839 0.760855 0.076182
O O6 0.047575 0.820591 0.000000
O O7 0.430553 0.804393 0.877648
O O8 0.269984 0.769984 0.833990
O O9 0.413245 0.913245 0.396149
O O10 0.272023 0.905356 0.342927
#
# Coordination Sequence:
#
# PCOD8320344 Si02
#       5
#    16  32  16  32  16
#     4  11  19  36  59  82 112 149 188 230 281 340
#     4   9  18  35  58  81 111 153 193 230 279 342
#     4  12  21  37  59  79 117 144 192 234 283 347
#     4  10  21  35  54  85 112 145 185 235 282 333
#     4  10  22  34  55  87 106 155 182 228 289 329
#
# _framework density 17.653963999999998
#
# number of rings (size 3 to 8) (size 9 to 14) (size 15 to 20)
#    0.857    1.000    2.857    3.429    2.000    0.571 
#    0.000    0.714    0.000    1.714    0.000    2.000 
#    0.000    0.000    0.000    0.000    0.000    0.000 
#
# Total GULP energy -693737.578789 kJ/mol
# GULP energy per Si atom -12388.171050 kJ/mol
# Density = 1.761378 g / cm^3
# Si number density = 17.653964 Si / 1000 Ang^3
#
#
#
# Elastic Constant Matrix: (Units=GPa)
#
#
# Indices 1 2 3 4 5 6 
#
# 1 59.6160 33.4906 15.5600 0.0000 0.0000 0.0000
# 2 33.4906 59.6160 15.5600 0.0000 0.0000 0.0000
# 3 15.5600 15.5600 71.8740 0.0000 0.0000 0.0000
# 4 0.0000 0.0000 0.0000 36.1875 0.0000 0.0000
# 5 0.0000 0.0000 0.0000 0.0000 36.1875 0.0000
# 6 0.0000 0.0000 0.0000 0.0000 0.0000 24.9198
#
#
#
# Elastic Compliance Matrix: (Units=1/GPa)
#
#
# Indices 1 2 3 4 5 6 
#
# 1 0.024928 -0.013349 -0.002507 0.000000 0.000000 0.000000
# 2 -0.013349 0.024928 -0.002507 0.000000 0.000000 0.000000
# 3 -0.002507 -0.002507 0.014999 0.000000 0.000000 0.000000
# 4 0.000000 0.000000 0.000000 0.027634 0.000000 0.000000
# 5 0.000000 0.000000 0.000000 0.000000 0.027634 0.000000
# 6 0.000000 0.000000 0.000000 0.000000 0.000000 0.040129
#
#
# Mechanical properties :
#
#
# Convention : Reuss Voigt Hill
#
# Bulk Modulus (GPa) = 35.55096 35.59192 35.57144
# Shear Modulus (GPa) = 24.23053 27.89198 26.06126
#
# Velocity S-wave (km/s) = 3.70878 3.97914 3.84634
# Velocity P-wave (km/s) = 6.20657 6.42776 6.31813
#
# Compressibility (1/GPa) = 0.02812863
#
# Stress axis : x y z
#
# Youngs Moduli (GPa) = 40.11629 40.11629 66.67317
#
# Poissons Ratio (x) = 0.53553 0.16712
# Poissons Ratio (y) = 0.53553 0.16712
# Poissons Ratio (z) = 0.10055 0.10055
#
# Static dielectric constant tensor:
#      x y z
#    x 3.179300 0.000000 0.000000 
#    y 0.000000 3.179300 0.000000 
#    z 0.000000 0.000000 3.281990 
# 
# 
# High freq. dielectric constant tensor:
#      x y z
#    x 1.673680 0.000000 0.000000 
#    y 0.000000 1.673680 0.000000 
#    z 0.000000 0.000000 1.686050 
# 
# From -- ./inp_files/10323.got.cif
#   From: 2010.06.25/outbox.cif.g09.slc.cpg/sg140_6_cif.got.tgz:10323.got - 2010.06.28 10:53:23.
