data_PCOD8320185
_publ_section_title
;
Structure prediction by ZEFSAII (Michael W. Deem and Ramdas Pophale) SiO2 
 PCOD8320185
Probable space group: I 4/M C M
;
_chemical_formula_sum "Si O2"
_cell_formula_units_Z 240
_cell_length_a 29.262018
_cell_length_b 29.262018
_cell_length_c 14.551079
_cell_angle_alpha 90.000000
_cell_angle_beta 90.000000
_cell_angle_gamma 90.000000
_cell_volume 12459.589808
_symmetry_space_group_name_H-M "I 4/M C M"
_symmetry_group_IT_number 140
_symmetry_cell_setting 'tetragonal'
loop_
_space_group_symop_operation_xyz
x,y,z
-y,x,z
-x,-y,z
y,-x,z
x,-y,1/2-z
-x,y,1/2-z
y,x,1/2-z
-y,-x,1/2-z
-x,-y,-z
y,-x,-z
x,y,-z
-y,x,-z
-x,y,1/2+z
x,-y,1/2+z
-y,-x,1/2+z
y,x,1/2+z
1/2+x,1/2+y,1/2+z
1/2-y,1/2+x,1/2+z
1/2-x,1/2-y,1/2+z
1/2+y,1/2-x,1/2+z
1/2+x,1/2-y,-z
1/2-x,1/2+y,-z
1/2+y,1/2+x,-z
1/2-y,1/2-x,-z
1/2-x,1/2-y,1/2-z
1/2+y,1/2-x,1/2-z
1/2+x,1/2+y,1/2-z
1/2-y,1/2+x,1/2-z
1/2-x,1/2+y,z
1/2+x,1/2-y,z
1/2-y,1/2-x,z
1/2+y,1/2+x,z
loop_
_atom_site_type_symbol
_atom_site_label
_atom_site_fract_x
_atom_site_fract_y
_atom_site_fract_z
Si Si1 0.438771 0.537462 0.609486
Si Si2 0.367151 0.608640 0.395612
Si Si3 0.795548 0.087815 0.399165
Si Si4 0.346924 0.984738 0.850485
Si Si5 0.992026 0.753952 0.102302
Si Si6 0.686012 0.112411 0.894734
Si Si7 0.076973 0.499992 0.000000
Si Si8 0.901248 0.774738 0.798613
O O1 0.437886 0.485274 0.645319
O O2 0.439315 0.539222 0.500000
O O3 0.394640 0.565131 0.645301
O O4 0.350919 0.599594 0.500000
O O5 0.401526 0.651115 0.391212
O O6 0.323078 0.617902 0.333308
O O7 0.776980 0.105142 0.500000
O O8 0.789075 0.033570 0.392227
O O9 0.769799 0.108914 0.310777
O O10 0.339848 0.930189 0.849298
O O11 0.389601 0.999695 0.912637
O O12 0.361372 0.000000 0.750000
O O13 0.298619 0.008067 0.879923
O O14 0.955071 0.769543 0.177785
O O15 0.970226 0.756450 0.000000
O O16 0.657290 0.157290 0.881548
O O17 0.733823 0.125282 0.847577
O O18 0.694305 0.099465 0.000000
O O19 0.045047 0.454954 0.000000
O O20 0.045680 0.545680 0.000000
#
# Coordination Sequence:
#
# PCOD8320185 Si02
#       8
#    32  32  32  32  32  32  16  32
#     4   8  15  28  46  71 107 152 194 228 273 340
#     4  10  20  32  52  81 115 153 188 238 296 349
#     4  10  22  36  52  76 111 153 189 229 295 348
#     4  11  20  36  61  88 118 154 196 238 286 332
#     4  10  19  35  59  86 111 143 186 241 296 345
#     4  10  20  37  64  93 118 148 185 238 299 345
#     4  11  24  40  56  82 124 164 196 230 269 330
#     4  11  20  35  56  85 113 141 190 246 288 344
#
# _framework density 19.262271999999999
#
# number of rings (size 3 to 8) (size 9 to 14) (size 15 to 20)
#    0.000    1.933    1.333    5.200    1.867    1.067 
#    0.000    0.667    0.000    2.000    0.000    5.600 
#    0.000    0.000    0.000    0.000    0.000    0.000 
#
# Total GULP energy -1487289.551083 kJ/mol
# GULP energy per Si atom -12394.079592 kJ/mol
# Density = 1.921843 g / cm^3
# Si number density = 19.262272 Si / 1000 Ang^3
#
#
#
# Elastic Constant Matrix: (Units=GPa)
#
#
# Indices 1 2 3 4 5 6 
#
# 1 82.7010 41.4554 41.7581 0.0000 0.0000 0.0000
# 2 41.4554 82.7015 41.7579 0.0000 0.0000 0.0000
# 3 41.7581 41.7579 142.3541 0.0000 0.0000 0.0000
# 4 0.0000 0.0000 0.0000 13.6696 0.0000 0.0000
# 5 0.0000 0.0000 0.0000 0.0000 13.6711 0.0000
# 6 0.0000 0.0000 0.0000 0.0000 0.0000 29.1823
#
#
#
# Elastic Compliance Matrix: (Units=1/GPa)
#
#
# Indices 1 2 3 4 5 6 
#
# 1 0.017140 -0.007105 -0.002943 0.000000 0.000000 0.000000
# 2 -0.007105 0.017140 -0.002943 0.000000 0.000000 0.000000
# 3 -0.002943 -0.002943 0.008752 0.000000 0.000000 0.000000
# 4 0.000000 0.000000 0.000000 0.073155 0.000000 0.000000
# 5 0.000000 0.000000 0.000000 0.000000 0.073147 0.000000
# 6 0.000000 0.000000 0.000000 0.000000 0.000000 0.034267
#
#
# Mechanical properties :
#
#
# Convention : Reuss Voigt Hill
#
# Bulk Modulus (GPa) = 58.66347 61.96662 60.31505
# Shear Modulus (GPa) = 19.58734 23.49026 21.53880
#
# Velocity S-wave (km/s) = 3.19231 3.49592 3.34756
# Velocity P-wave (km/s) = 6.64146 6.96671 6.80603
#
# Compressibility (1/GPa) = 0.01704638
#
# Stress axis : x y z
#
# Youngs Moduli (GPa) = 58.34416 58.34470 114.26481
#
# Poissons Ratio (x) = 0.41456 0.33634
# Poissons Ratio (y) = 0.41455 0.33633
# Poissons Ratio (z) = 0.17174 0.17173
#
# Static dielectric constant tensor:
#      x y z
#    x 3.430140 0.000000 0.000000 
#    y 0.000000 3.430140 0.000000 
#    z 0.000000 0.000000 3.795260 
# 
# 
# High freq. dielectric constant tensor:
#      x y z
#    x 1.730520 0.000000 0.000000 
#    y 0.000000 1.730520 0.000000 
#    z 0.000000 0.000000 1.761050 
# 
# From -- ./inp_files/5387.got.cif
#   From: 2010.06.25/outbox.cif.g09.slc.cpg/sg140_3_cif.got.tgz:5387.got - 2010.06.28 10:53:23.
