data_PCOD8320844
_publ_section_title
;
Structure prediction by ZEFSAII (Michael W. Deem and Ramdas Pophale) SiO2 
 PCOD8320844
Probable space group: I 41/A M D
;
_chemical_formula_sum "Si O2"
_cell_formula_units_Z 80
_cell_length_a 14.584000
_cell_length_b 14.584000
_cell_length_c 17.058845
_cell_angle_alpha 90.000000
_cell_angle_beta 90.000000
_cell_angle_gamma 90.000000
_cell_volume 3628.297875
_symmetry_space_group_name_H-M "I 41/A M D"
_symmetry_group_IT_number 141
_space_group.IT_coordinate_system_code '2'
_symmetry_cell_setting 'tetragonal'
loop_
_space_group_symop_operation_xyz
x,y,z
1/4-y,3/4+x,1/4+z
-x,1/2-y,z
1/4+y,1/4-x,3/4+z
x,-y,-z
-x,1/2+y,-z
1/4+y,3/4+x,1/4-z
1/4-y,1/4-x,3/4-z
-x,-y,-z
3/4+y,1/4-x,3/4-z
x,1/2+y,-z
3/4-y,3/4+x,1/4-z
-x,y,z
x,1/2-y,z
3/4-y,1/4-x,3/4+z
3/4+y,3/4+x,1/4+z
1/2+x,1/2+y,1/2+z
3/4-y,1/4+x,3/4+z
1/2-x,-y,1/2+z
3/4+y,3/4-x,1/4+z
1/2+x,1/2-y,1/2-z
1/2-x,y,1/2-z
3/4+y,1/4+x,3/4-z
3/4-y,3/4-x,1/4-z
1/2-x,1/2-y,1/2-z
1/4+y,3/4-x,1/4-z
1/2+x,y,1/2-z
1/4-y,1/4+x,3/4-z
1/2-x,1/2+y,1/2+z
1/2+x,-y,1/2+z
1/4-y,3/4-x,1/4+z
1/4+y,1/4+x,3/4+z
loop_
_atom_site_type_symbol
_atom_site_label
_atom_site_fract_x
_atom_site_fract_y
_atom_site_fract_z
Si Si1 0.393438 0.856562 0.375000
Si Si2 0.757590 0.357978 0.339661
Si Si3 0.396546 0.859757 0.543605
O O1 0.500000 0.877123 0.377576
O O2 0.356980 0.896966 0.458683
O O3 0.849148 0.400853 0.375000
O O4 0.767377 0.250000 0.349334
O O5 0.750000 0.387807 0.250000
O O6 0.668404 0.395507 0.386562
O O7 0.500000 0.895924 0.559904
O O8 0.398110 0.750000 0.540850
#
# Coordination Sequence:
#
# PCOD8320844 Si02
#       3
#    16  32  32
#     4   7  10  20  44  80 114 138 166 215 286 362
#     4  10  22  40  60  85 120 162 208 257 304 358
#     4   8  14  28  54  86 116 146 185 238 301 365
#
# _framework density 22.048907
#
# number of rings (size 3 to 8) (size 9 to 14) (size 15 to 20)
#    0.000    3.400    0.000    2.400    0.000    2.000 
#    3.600    4.000    0.000    1.200    0.000    0.000 
#    0.000    0.800    0.000    0.000    0.000    0.000 
#
# Total GULP energy -495523.991852 kJ/mol
# GULP energy per Si atom -12388.099796 kJ/mol
# Density = 2.199872 g / cm^3
# Si number density = 22.048907 Si / 1000 Ang^3
#
#
#
# Elastic Constant Matrix: (Units=GPa)
#
#
# Indices 1 2 3 4 5 6 
#
# 1 36.2842 33.6232 63.4659 0.0000 0.0000 0.0000
# 2 33.6232 36.2966 63.4672 0.0000 0.0000 0.0000
# 3 63.4659 63.4672 248.9549 0.0000 0.0000 0.0000
# 4 0.0000 0.0000 0.0000 28.2890 0.0000 0.0000
# 5 0.0000 0.0000 0.0000 0.0000 28.2897 0.0000
# 6 0.0000 0.0000 0.0000 0.0000 0.0000 19.0208
#
#
#
# Elastic Compliance Matrix: (Units=1/GPa)
#
#
# Indices 1 2 3 4 5 6 
#
# 1 0.200838 -0.174152 -0.006802 0.000000 0.000000 0.000000
# 2 -0.174152 0.200721 -0.006774 0.000000 0.000000 0.000000
# 3 -0.006802 -0.006774 0.007478 0.000000 0.000000 0.000000
# 4 0.000000 0.000000 0.000000 0.035349 0.000000 0.000000
# 5 0.000000 0.000000 0.000000 0.000000 0.035349 0.000000
# 6 0.000000 0.000000 0.000000 0.000000 0.000000 0.052574
#
#
# Mechanical properties :
#
#
# Convention : Reuss Voigt Hill
#
# Bulk Modulus (GPa) = 29.77899 71.40536 50.59217
# Shear Modulus (GPa) = 5.44093 25.85187 15.64640
#
# Velocity S-wave (km/s) = 1.57258 3.42786 2.66676
# Velocity P-wave (km/s) = 4.10275 6.93702 5.69890
#
# Compressibility (1/GPa) = 0.03358072
#
# Stress axis : x y z
#
# Youngs Moduli (GPa) = 4.97913 4.98203 133.72689
#
# Poissons Ratio (x) = 0.86763 0.90966
# Poissons Ratio (y) = 0.86712 0.90591
# Poissons Ratio (z) = 0.03387 0.03375
#
# Static dielectric constant tensor:
#      x y z
#    x 3.653700 0.000000 0.000000 
#    y 0.000000 3.653720 0.000000 
#    z 0.000000 0.000000 5.172460 
# 
# 
# High freq. dielectric constant tensor:
#      x y z
#    x 1.841630 0.000000 0.000000 
#    y 0.000000 1.841630 0.000000 
#    z 0.000000 0.000000 1.891190 
# 
# From -- ./inp_files/5780.got.cif
#   From: 2010.03.12/outbox.cif.g09.slc.cpg/sg141_3_cif.got.tgz:5780.got - 2010.04.03 13:18:35.
