data_PCOD8320607
_publ_section_title
;
Structure prediction by ZEFSAII (Michael W. Deem and Ramdas Pophale) SiO2 
 PCOD8320607
Probable space group: I 41/A M D
;
_chemical_formula_sum "Si O2"
_cell_formula_units_Z 128
_cell_length_a 20.734516
_cell_length_b 20.734516
_cell_length_c 16.050566
_cell_angle_alpha 90.000000
_cell_angle_beta 90.000000
_cell_angle_gamma 90.000000
_cell_volume 6900.461803
_symmetry_space_group_name_H-M "I 41/A M D"
_symmetry_group_IT_number 141
_space_group.IT_coordinate_system_code '2'
_symmetry_cell_setting 'tetragonal'
loop_
_space_group_symop_operation_xyz
x,y,z
1/4-y,3/4+x,1/4+z
-x,1/2-y,z
1/4+y,1/4-x,3/4+z
x,-y,-z
-x,1/2+y,-z
1/4+y,3/4+x,1/4-z
1/4-y,1/4-x,3/4-z
-x,-y,-z
3/4+y,1/4-x,3/4-z
x,1/2+y,-z
3/4-y,3/4+x,1/4-z
-x,y,z
x,1/2-y,z
3/4-y,1/4-x,3/4+z
3/4+y,3/4+x,1/4+z
1/2+x,1/2+y,1/2+z
3/4-y,1/4+x,3/4+z
1/2-x,-y,1/2+z
3/4+y,3/4-x,1/4+z
1/2+x,1/2-y,1/2-z
1/2-x,y,1/2-z
3/4+y,1/4+x,3/4-z
3/4-y,3/4-x,1/4-z
1/2-x,1/2-y,1/2-z
1/4+y,3/4-x,1/4-z
1/2+x,y,1/2-z
1/4-y,1/4+x,3/4-z
1/2-x,1/2+y,1/2+z
1/2+x,-y,1/2+z
1/4-y,3/4-x,1/4+z
1/4+y,1/4+x,3/4+z
loop_
_atom_site_type_symbol
_atom_site_label
_atom_site_fract_x
_atom_site_fract_y
_atom_site_fract_z
Si Si1 0.322558 0.530437 0.733376
Si Si2 0.358686 0.939427 0.546600
Si Si3 0.925615 0.377436 0.292738
Si Si4 0.929426 0.174852 0.635031
O O1 0.250000 0.557098 0.750000
O O2 0.340060 0.541597 0.638900
O O3 0.326528 0.454561 0.744747
O O4 0.375591 0.562861 0.794279
O O5 0.400975 0.874648 0.549953
O O6 0.394305 0.000000 0.500000
O O7 0.915724 0.334277 0.375000
O O8 0.908241 0.335932 0.211095
O O9 0.000000 0.401740 0.289681
O O10 0.933036 0.250000 0.647750
O O11 0.000000 0.144325 0.655426
#
# Coordination Sequence:
#
# PCOD8320607 Si02
#       4
#    32  32  32  32
#     4  10  19  33  51  73 102 133 166 206 254 302
#     4  10  19  32  53  75  97 130 168 208 253 302
#     4  10  19  31  50  76 105 137 171 204 242 297
#     4   9  19  34  50  71 100 133 167 206 256 306
#
# _framework density 18.549482999999999
#
# number of rings (size 3 to 8) (size 9 to 14) (size 15 to 20)
#    0.000    2.250    0.000    5.250    0.000    2.750 
#    0.000    0.000    0.000   12.750    0.000    7.000 
#    0.000    0.000    0.000    0.000    0.000    0.000 
#
# Total GULP energy -793222.245818 kJ/mol
# GULP energy per Si atom -12394.097591 kJ/mol
# Density = 1.850726 g / cm^3
# Si number density = 18.549483 Si / 1000 Ang^3
#
#
#
# Elastic Constant Matrix: (Units=GPa)
#
#
# Indices 1 2 3 4 5 6 
#
# 1 94.4882 50.2127 20.9214 0.0000 0.0000 0.0000
# 2 50.2127 94.4889 20.9218 0.0000 0.0000 0.0000
# 3 20.9214 20.9218 41.3466 0.0000 0.0000 0.0000
# 4 0.0000 0.0000 0.0000 24.8764 0.0000 0.0000
# 5 0.0000 0.0000 0.0000 0.0000 24.8768 0.0000
# 6 0.0000 0.0000 0.0000 0.0000 0.0000 31.9977
#
#
#
# Elastic Compliance Matrix: (Units=1/GPa)
#
#
# Indices 1 2 3 4 5 6 
#
# 1 0.015341 -0.007245 -0.004096 0.000000 0.000000 0.000000
# 2 -0.007245 0.015340 -0.004096 0.000000 0.000000 0.000000
# 3 -0.004096 -0.004096 0.028331 0.000000 0.000000 0.000000
# 4 0.000000 0.000000 0.000000 0.040199 0.000000 0.000000
# 5 0.000000 0.000000 0.000000 0.000000 0.040198 0.000000
# 6 0.000000 0.000000 0.000000 0.000000 0.000000 0.031252
#
#
# Mechanical properties :
#
#
# Convention : Reuss Voigt Hill
#
# Bulk Modulus (GPa) = 35.54064 46.04839 40.79451
# Shear Modulus (GPa) = 23.70618 25.56806 24.63712
#
# Velocity S-wave (km/s) = 3.57879 3.71667 3.64838
# Velocity P-wave (km/s) = 6.02316 6.58002 6.30774
#
# Compressibility (1/GPa) = 0.02813680
#
# Stress axis : x y z
#
# Youngs Moduli (GPa) = 65.18687 65.18709 35.29674
#
# Poissons Ratio (x) = 0.47229 0.14458
# Poissons Ratio (y) = 0.47229 0.14459
# Poissons Ratio (z) = 0.26702 0.26703
#
# Static dielectric constant tensor:
#      x y z
#    x 3.838870 0.000000 0.000000 
#    y 0.000000 3.838880 0.000000 
#    z 0.000000 0.000000 3.233130 
# 
# 
# High freq. dielectric constant tensor:
#      x y z
#    x 1.714430 0.000000 0.000000 
#    y 0.000000 1.714430 0.000000 
#    z 0.000000 0.000000 1.716340 
# 
# From -- ./inp_files/8231.got.cif
#   From: 2010.03.12/outbox.cif.g09.slc.cpg/sg141_5_cif.got.tgz:8231.got - 2010.04.03 13:18:35.
