data_PCOD8320550
_publ_section_title
;
Structure prediction by ZEFSAII (Michael W. Deem and Ramdas Pophale) SiO2 
 PCOD8320550
Probable space group: I 41/A M D
;
_chemical_formula_sum "Si O2"
_cell_formula_units_Z 176
_cell_length_a 29.054530
_cell_length_b 29.054530
_cell_length_c 10.864725
_cell_angle_alpha 90.000000
_cell_angle_beta 90.000000
_cell_angle_gamma 90.000000
_cell_volume 9171.628332
_symmetry_space_group_name_H-M "I 41/A M D"
_symmetry_group_IT_number 141
_space_group.IT_coordinate_system_code '2'
_symmetry_cell_setting 'tetragonal'
loop_
_space_group_symop_operation_xyz
x,y,z
1/4-y,3/4+x,1/4+z
-x,1/2-y,z
1/4+y,1/4-x,3/4+z
x,-y,-z
-x,1/2+y,-z
1/4+y,3/4+x,1/4-z
1/4-y,1/4-x,3/4-z
-x,-y,-z
3/4+y,1/4-x,3/4-z
x,1/2+y,-z
3/4-y,3/4+x,1/4-z
-x,y,z
x,1/2-y,z
3/4-y,1/4-x,3/4+z
3/4+y,3/4+x,1/4+z
1/2+x,1/2+y,1/2+z
3/4-y,1/4+x,3/4+z
1/2-x,-y,1/2+z
3/4+y,3/4-x,1/4+z
1/2+x,1/2-y,1/2-z
1/2-x,y,1/2-z
3/4+y,1/4+x,3/4-z
3/4-y,3/4-x,1/4-z
1/2-x,1/2-y,1/2-z
1/4+y,3/4-x,1/4-z
1/2+x,y,1/2-z
1/4-y,1/4+x,3/4-z
1/2-x,1/2+y,1/2+z
1/2+x,-y,1/2+z
1/4-y,3/4-x,1/4+z
1/4+y,1/4+x,3/4+z
loop_
_atom_site_type_symbol
_atom_site_label
_atom_site_fract_x
_atom_site_fract_y
_atom_site_fract_z
Si Si1 0.947994 0.923365 0.132139
Si Si2 0.750000 0.860573 0.250000
Si Si3 0.631136 0.803569 0.637467
Si Si4 0.816545 0.117794 0.552153
Si Si5 0.390350 0.552007 0.972313
Si Si6 0.121579 0.696896 0.358482
O O1 0.928545 0.906483 0.263438
O O2 0.000000 0.940932 0.148458
O O3 0.919801 0.966650 0.083901
O O4 0.945959 0.880349 0.038186
O O5 0.777579 0.892700 0.346134
O O6 0.622784 0.750000 0.635776
O O7 0.663472 0.816451 0.755060
O O8 0.579922 0.824959 0.644029
O O9 0.798582 0.121229 0.414523
O O10 0.851646 0.074851 0.561540
O O11 0.837287 0.168483 0.578251
O O12 0.404401 0.500000 0.000000
O O13 0.119692 0.750000 0.406121
#
# Coordination Sequence:
#
# PCOD8320550 Si02
#       6
#    32  16  32  32  32  32
#     4   9  17  29  47  75 107 136 175 222 270 320
#     4  10  17  32  56  80 102 134 176 226 269 312
#     4  10  20  32  49  77 106 138 184 226 264 324
#     4   9  20  35  56  80 103 135 177 214 265 325
#     4  10  20  37  56  74 106 144 169 213 273 325
#     4   9  18  33  52  74 105 143 176 218 272 322
#
# _framework density 19.189613000000001
#
# number of rings (size 3 to 8) (size 9 to 14) (size 15 to 20)
#    0.000    2.545    0.000    1.909    0.000    2.182 
#    0.000    2.727    8.000    3.273    0.000    5.091 
#    0.000    0.000    0.000    0.000    0.000    0.000 
#
# Total GULP energy -1090466.289230 kJ/mol
# GULP energy per Si atom -12391.662378 kJ/mol
# Density = 1.914594 g / cm^3
# Si number density = 19.189613 Si / 1000 Ang^3
#
#
#
# Elastic Constant Matrix: (Units=GPa)
#
#
# Indices 1 2 3 4 5 6 
#
# 1 97.8212 32.5494 20.2799 0.0000 0.0000 0.0000
# 2 32.5494 97.8212 20.2799 0.0000 0.0000 0.0000
# 3 20.2799 20.2799 62.6648 0.0000 0.0000 0.0000
# 4 0.0000 0.0000 0.0000 24.4651 0.0000 0.0000
# 5 0.0000 0.0000 0.0000 0.0000 24.4651 0.0000
# 6 0.0000 0.0000 0.0000 0.0000 0.0000 16.6178
#
#
#
# Elastic Compliance Matrix: (Units=1/GPa)
#
#
# Indices 1 2 3 4 5 6 
#
# 1 0.011925 -0.003396 -0.002760 0.000000 0.000000 0.000000
# 2 -0.003396 0.011925 -0.002760 0.000000 0.000000 0.000000
# 3 -0.002760 -0.002760 0.017745 0.000000 0.000000 0.000000
# 4 0.000000 0.000000 0.000000 0.040875 0.000000 0.000000
# 5 0.000000 0.000000 0.000000 0.000000 0.040875 0.000000
# 6 0.000000 0.000000 0.000000 0.000000 0.000000 0.060177
#
#
# Mechanical properties :
#
#
# Convention : Reuss Voigt Hill
#
# Bulk Modulus (GPa) = 42.08429 44.94730 43.51580
# Shear Modulus (GPa) = 23.89222 25.45610 24.67416
#
# Velocity S-wave (km/s) = 3.53237 3.64614 3.58971
# Velocity P-wave (km/s) = 6.21411 6.41867 6.31722
#
# Compressibility (1/GPa) = 0.02376183
#
# Stress axis : x y z
#
# Youngs Moduli (GPa) = 83.85827 83.85827 56.35548
#
# Poissons Ratio (x) = 0.28476 0.15556
# Poissons Ratio (y) = 0.28476 0.15556
# Poissons Ratio (z) = 0.23147 0.23147
#
# Static dielectric constant tensor:
#      x y z
#    x 3.424270 0.000000 0.000000 
#    y 0.000000 3.424270 0.000000 
#    z 0.000000 0.000000 3.739760 
# 
# 
# High freq. dielectric constant tensor:
#      x y z
#    x 1.733770 0.000000 0.000000 
#    y 0.000000 1.733770 0.000000 
#    z 0.000000 0.000000 1.749700 
# 
# From -- ./inp_files/5016.got.cif
#   From: 2010.03.12/outbox.cif.g09.slc.cpg/sg141_3_cif.got.tgz:5016.got - 2010.04.03 13:18:35.
