data_PCOD8320766
_publ_section_title
;
Structure prediction by ZEFSAII (Michael W. Deem and Ramdas Pophale) SiO2 
 PCOD8320766
Probable space group: I 41/A M D
;
_chemical_formula_sum "Si O2"
_cell_formula_units_Z 160
_cell_length_a 25.798697
_cell_length_b 25.798697
_cell_length_c 13.964742
_cell_angle_alpha 90.000000
_cell_angle_beta 90.000000
_cell_angle_gamma 90.000000
_cell_volume 9294.551972
_symmetry_space_group_name_H-M "I 41/A M D"
_symmetry_group_IT_number 141
_space_group.IT_coordinate_system_code '2'
_symmetry_cell_setting 'tetragonal'
loop_
_space_group_symop_operation_xyz
x,y,z
1/4-y,3/4+x,1/4+z
-x,1/2-y,z
1/4+y,1/4-x,3/4+z
x,-y,-z
-x,1/2+y,-z
1/4+y,3/4+x,1/4-z
1/4-y,1/4-x,3/4-z
-x,-y,-z
3/4+y,1/4-x,3/4-z
x,1/2+y,-z
3/4-y,3/4+x,1/4-z
-x,y,z
x,1/2-y,z
3/4-y,1/4-x,3/4+z
3/4+y,3/4+x,1/4+z
1/2+x,1/2+y,1/2+z
3/4-y,1/4+x,3/4+z
1/2-x,-y,1/2+z
3/4+y,3/4-x,1/4+z
1/2+x,1/2-y,1/2-z
1/2-x,y,1/2-z
3/4+y,1/4+x,3/4-z
3/4-y,3/4-x,1/4-z
1/2-x,1/2-y,1/2-z
1/4+y,3/4-x,1/4-z
1/2+x,y,1/2-z
1/4-y,1/4+x,3/4-z
1/2-x,1/2+y,1/2+z
1/2+x,-y,1/2+z
1/4-y,3/4-x,1/4+z
1/4+y,1/4+x,3/4+z
loop_
_atom_site_type_symbol
_atom_site_label
_atom_site_fract_x
_atom_site_fract_y
_atom_site_fract_z
Si Si1 0.621167 0.608499 0.641944
Si Si2 0.757712 0.310691 0.643102
Si Si3 0.060394 0.309805 0.485275
Si Si4 0.636175 0.060482 0.713368
Si Si5 0.207713 0.440961 0.479091
O O1 0.576804 0.564965 0.639659
O O2 0.597586 0.658396 0.694339
O O3 0.642177 0.624568 0.536758
O O4 0.669677 0.584838 0.697967
O O5 0.752707 0.250000 0.638211
O O6 0.750000 0.332526 0.750000
O O7 0.711884 0.332097 0.576070
O O8 0.074751 0.250000 0.506273
O O9 0.073452 0.323452 0.375000
O O10 0.000000 0.319361 0.505452
O O11 0.670894 0.079107 0.625000
O O12 0.664213 0.013460 0.766416
O O13 0.218913 0.500000 0.500000
O O14 0.183072 0.433072 0.375000
#
# Coordination Sequence:
#
# PCOD8320766 Si02
#       5
#    32  32  32  32  32
#     4  11  21  34  58  80 111 144 183 225 279 329
#     4  10  21  36  53  75 107 146 186 226 269 324
#     4   9  19  38  63  86 106 135 182 236 285 335
#     4  11  22  34  51  79 109 147 186 226 268 314
#     4  11  21  33  51  77 110 146 182 221 263 318
#
# _framework density 17.214386000000001
#
# number of rings (size 3 to 8) (size 9 to 14) (size 15 to 20)
#    0.000    1.600    4.000    2.400    2.800    0.800 
#    0.000    0.000    0.000    0.600    0.000    1.400 
#    0.000    0.000    0.000    0.000    0.000    0.000 
#
# Total GULP energy -991999.545601 kJ/mol
# GULP energy per Si atom -12399.994320 kJ/mol
# Density = 1.717521 g / cm^3
# Si number density = 17.214386 Si / 1000 Ang^3
#
#
#
# Elastic Constant Matrix: (Units=GPa)
#
#
# Indices 1 2 3 4 5 6 
#
# 1 79.8662 38.6048 43.1416 0.0000 0.0000 0.0000
# 2 38.6048 79.8678 43.1423 0.0000 0.0000 0.0000
# 3 43.1416 43.1423 108.0081 0.0000 0.0000 0.0000
# 4 0.0000 0.0000 0.0000 31.0341 0.0000 0.0000
# 5 0.0000 0.0000 0.0000 0.0000 31.0341 0.0000
# 6 0.0000 0.0000 0.0000 0.0000 0.0000 10.8252
#
#
#
# Elastic Compliance Matrix: (Units=1/GPa)
#
#
# Indices 1 2 3 4 5 6 
#
# 1 0.018070 -0.006166 -0.004755 0.000000 0.000000 0.000000
# 2 -0.006166 0.018069 -0.004755 0.000000 0.000000 0.000000
# 3 -0.004755 -0.004755 0.013057 0.000000 0.000000 0.000000
# 4 0.000000 0.000000 0.000000 0.032223 0.000000 0.000000
# 5 0.000000 0.000000 0.000000 0.000000 0.032223 0.000000
# 6 0.000000 0.000000 0.000000 0.000000 0.000000 0.092377
#
#
# Mechanical properties :
#
#
# Convention : Reuss Voigt Hill
#
# Bulk Modulus (GPa) = 56.03660 57.50216 56.76938
# Shear Modulus (GPa) = 20.54928 24.10222 22.32575
#
# Velocity S-wave (km/s) = 3.45878 3.74588 3.60519
# Velocity P-wave (km/s) = 6.96949 7.22391 7.09784
#
# Compressibility (1/GPa) = 0.01784548
#
# Stress axis : x y z
#
# Youngs Moduli (GPa) = 55.34147 55.34233 76.58750
#
# Poissons Ratio (x) = 0.34123 0.36415
# Poissons Ratio (y) = 0.34122 0.36416
# Poissons Ratio (z) = 0.26313 0.26314
#
# Static dielectric constant tensor:
#      x y z
#    x 3.083990 0.000000 0.000000 
#    y 0.000000 3.083990 0.000000 
#    z 0.000000 0.000000 3.667760 
# 
# 
# High freq. dielectric constant tensor:
#      x y z
#    x 1.659620 0.000000 0.000000 
#    y 0.000000 1.659620 0.000000 
#    z 0.000000 0.000000 1.674790 
# 
# From -- ./inp_files/4862.got.cif
#   From: 2010.03.12/outbox.cif.g09.slc.cpg/sg141_3_cif.got.tgz:4862.got - 2010.04.03 13:18:35.
