data_PCOD8320691
_publ_section_title
;
Structure prediction by ZEFSAII (Michael W. Deem and Ramdas Pophale) SiO2 
 PCOD8320691
Probable space group: I 41/A M D
;
_chemical_formula_sum "Si O2"
_cell_formula_units_Z 160
_cell_length_a 15.581273
_cell_length_b 15.581273
_cell_length_c 33.391224
_cell_angle_alpha 90.000000
_cell_angle_beta 90.000000
_cell_angle_gamma 90.000000
_cell_volume 8106.590078
_symmetry_space_group_name_H-M "I 41/A M D"
_symmetry_group_IT_number 141
_space_group.IT_coordinate_system_code '2'
_symmetry_cell_setting 'tetragonal'
loop_
_space_group_symop_operation_xyz
x,y,z
1/4-y,3/4+x,1/4+z
-x,1/2-y,z
1/4+y,1/4-x,3/4+z
x,-y,-z
-x,1/2+y,-z
1/4+y,3/4+x,1/4-z
1/4-y,1/4-x,3/4-z
-x,-y,-z
3/4+y,1/4-x,3/4-z
x,1/2+y,-z
3/4-y,3/4+x,1/4-z
-x,y,z
x,1/2-y,z
3/4-y,1/4-x,3/4+z
3/4+y,3/4+x,1/4+z
1/2+x,1/2+y,1/2+z
3/4-y,1/4+x,3/4+z
1/2-x,-y,1/2+z
3/4+y,3/4-x,1/4+z
1/2+x,1/2-y,1/2-z
1/2-x,y,1/2-z
3/4+y,1/4+x,3/4-z
3/4-y,3/4-x,1/4-z
1/2-x,1/2-y,1/2-z
1/4+y,3/4-x,1/4-z
1/2+x,y,1/2-z
1/4-y,1/4+x,3/4-z
1/2-x,1/2+y,1/2+z
1/2+x,-y,1/2+z
1/4-y,3/4-x,1/4+z
1/4+y,1/4+x,3/4+z
loop_
_atom_site_type_symbol
_atom_site_label
_atom_site_fract_x
_atom_site_fract_y
_atom_site_fract_z
Si Si1 0.344826 0.847202 0.733921
Si Si2 0.168837 0.154050 0.778406
Si Si3 0.902882 0.654123 0.851715
Si Si4 0.778633 0.932030 0.341357
Si Si5 0.594285 0.011910 0.774872
O O1 0.379522 0.750000 0.742019
O O2 0.250000 0.858577 0.750000
O O3 0.342673 0.866037 0.686347
O O4 0.403720 0.917895 0.754987
O O5 0.128114 0.250000 0.783546
O O6 0.250000 0.161814 0.750000
O O7 0.198300 0.117492 0.821584
O O8 0.103320 0.086771 0.758604
O O9 0.885262 0.750000 0.867783
O O10 0.887554 0.590447 0.888423
O O11 0.000000 0.643853 0.836649
O O12 0.831914 0.984019 0.308123
O O13 0.747890 0.997890 0.375000
O O14 0.500000 0.022725 0.794230
#
# Coordination Sequence:
#
# PCOD8320691 Si02
#       5
#    32  32  32  32  32
#     4  10  20  36  58  81 107 142 187 237 285 337
#     4   9  19  36  57  80 106 140 183 228 276 331
#     4  10  20  34  54  80 107 136 177 229 279 327
#     4  11  21  35  55  80 113 148 183 225 277 338
#     4  11  22  36  56  81 111 148 190 234 281 336
#
# _framework density 19.737027999999999
#
# number of rings (size 3 to 8) (size 9 to 14) (size 15 to 20)
#    0.000    1.800    0.000    6.000    0.000    2.400 
#    0.000    2.000    0.000    0.000    0.000    0.000 
#    0.000    0.000    0.000    0.000    0.000    0.000 
#
# Total GULP energy -991897.470994 kJ/mol
# GULP energy per Si atom -12398.718387 kJ/mol
# Density = 1.969211 g / cm^3
# Si number density = 19.737028 Si / 1000 Ang^3
#
#
#
# Elastic Constant Matrix: (Units=GPa)
#
#
# Indices 1 2 3 4 5 6 
#
# 1 96.3793 29.1593 38.0939 0.0000 0.0000 0.0000
# 2 29.1593 96.3793 38.0939 0.0000 0.0000 0.0000
# 3 38.0939 38.0939 101.8357 0.0000 0.0000 0.0000
# 4 0.0000 0.0000 0.0000 28.3519 0.0000 0.0000
# 5 0.0000 0.0000 0.0000 0.0000 28.3519 0.0000
# 6 0.0000 0.0000 0.0000 0.0000 0.0000 17.6641
#
#
#
# Elastic Compliance Matrix: (Units=1/GPa)
#
#
# Indices 1 2 3 4 5 6 
#
# 1 0.012591 -0.002286 -0.003855 0.000000 0.000000 0.000000
# 2 -0.002286 0.012591 -0.003855 0.000000 0.000000 0.000000
# 3 -0.003855 -0.003855 0.012704 0.000000 0.000000 0.000000
# 4 0.000000 0.000000 0.000000 0.035271 0.000000 0.000000
# 5 0.000000 0.000000 0.000000 0.000000 0.035271 0.000000
# 6 0.000000 0.000000 0.000000 0.000000 0.000000 0.056612
#
#
# Mechanical properties :
#
#
# Convention : Reuss Voigt Hill
#
# Bulk Modulus (GPa) = 55.88292 56.14319 56.01305
# Shear Modulus (GPa) = 26.17865 27.49004 26.83435
#
# Velocity S-wave (km/s) = 3.64589 3.73609 3.69127
# Velocity P-wave (km/s) = 6.78959 6.86430 6.82705
#
# Compressibility (1/GPa) = 0.01789455
#
# Stress axis : x y z
#
# Youngs Moduli (GPa) = 79.42281 79.42281 78.71695
#
# Poissons Ratio (x) = 0.18154 0.30344
# Poissons Ratio (y) = 0.18154 0.30344
# Poissons Ratio (z) = 0.30617 0.30617
#
# Static dielectric constant tensor:
#      x y z
#    x 3.621030 0.000000 0.000000 
#    y 0.000000 3.621030 0.000000 
#    z 0.000000 0.000000 3.580270 
# 
# 
# High freq. dielectric constant tensor:
#      x y z
#    x 1.766830 0.000000 0.000000 
#    y 0.000000 1.766830 0.000000 
#    z 0.000000 0.000000 1.763960 
# 
# From -- ./inp_files/12715.got.cif
#   From: 2010.03.12/outbox.cif.g09.slc.cpg/sg141_7_cif.got.tgz:12715.got - 2010.04.03 13:18:35.
