data_PCOD8320763
_publ_section_title
;
Structure prediction by ZEFSAII (Michael W. Deem and Ramdas Pophale) SiO2 
 PCOD8320763
Probable space group: I 41/A M D
;
_chemical_formula_sum "Si O2"
_cell_formula_units_Z 128
_cell_length_a 19.938945
_cell_length_b 19.938945
_cell_length_c 18.048411
_cell_angle_alpha 90.000000
_cell_angle_beta 90.000000
_cell_angle_gamma 90.000000
_cell_volume 7175.353850
_symmetry_space_group_name_H-M "I 41/A M D"
_symmetry_group_IT_number 141
_space_group.IT_coordinate_system_code '2'
_symmetry_cell_setting 'tetragonal'
loop_
_space_group_symop_operation_xyz
x,y,z
1/4-y,3/4+x,1/4+z
-x,1/2-y,z
1/4+y,1/4-x,3/4+z
x,-y,-z
-x,1/2+y,-z
1/4+y,3/4+x,1/4-z
1/4-y,1/4-x,3/4-z
-x,-y,-z
3/4+y,1/4-x,3/4-z
x,1/2+y,-z
3/4-y,3/4+x,1/4-z
-x,y,z
x,1/2-y,z
3/4-y,1/4-x,3/4+z
3/4+y,3/4+x,1/4+z
1/2+x,1/2+y,1/2+z
3/4-y,1/4+x,3/4+z
1/2-x,-y,1/2+z
3/4+y,3/4-x,1/4+z
1/2+x,1/2-y,1/2-z
1/2-x,y,1/2-z
3/4+y,1/4+x,3/4-z
3/4-y,3/4-x,1/4-z
1/2-x,1/2-y,1/2-z
1/4+y,3/4-x,1/4-z
1/2+x,y,1/2-z
1/4-y,1/4+x,3/4-z
1/2-x,1/2+y,1/2+z
1/2+x,-y,1/2+z
1/4-y,3/4-x,1/4+z
1/4+y,1/4+x,3/4+z
loop_
_atom_site_type_symbol
_atom_site_label
_atom_site_fract_x
_atom_site_fract_y
_atom_site_fract_z
Si Si1 0.685500 0.672846 0.383591
Si Si2 0.877794 0.020621 0.711025
Si Si3 0.353638 0.000000 0.500000
Si Si4 0.000000 0.093413 0.457028
Si Si5 0.698078 0.750000 0.636434
Si Si6 0.368568 0.618568 0.875000
O O1 0.615629 0.634372 0.375000
O O2 0.666844 0.750000 0.385092
O O3 0.730453 0.653862 0.454823
O O4 0.728142 0.654213 0.312805
O O5 0.806358 0.057242 0.712007
O O6 0.932827 0.061034 0.662487
O O7 0.868291 0.946385 0.678095
O O8 0.000000 0.104516 0.545983
O O9 0.067629 0.126571 0.427589
O O10 0.000000 0.018252 0.427907
#
# Coordination Sequence:
#
# PCOD8320763 Si02
#       6
#    32  32  16  16  16  16
#     4  10  21  39  59  85 115 152 189 239 292 348
#     4  10  21  35  56  85 118 148 190 242 294 350
#     4  10  23  34  58  89 114 146 190 246 296 343
#     4   9  20  35  54  80 108 154 192 231 283 339
#     4   9  18  36  54  79 114 151 184 228 290 353
#     4  10  22  35  56  82 116 156 195 236 288 346
#
# _framework density 17.838842
#
# number of rings (size 3 to 8) (size 9 to 14) (size 15 to 20)
#    0.000    2.250    1.250    0.375    8.750    2.500 
#    0.000    0.000    0.000    0.000    3.250    0.000 
#    0.000    0.000    0.000    0.000    0.000    0.000 
#
# Total GULP energy -793210.627667 kJ/mol
# GULP energy per Si atom -12393.916057 kJ/mol
# Density = 1.779824 g / cm^3
# Si number density = 17.838842 Si / 1000 Ang^3
#
#
#
# Elastic Constant Matrix: (Units=GPa)
#
#
# Indices 1 2 3 4 5 6 
#
# 1 116.9006 35.0052 56.5481 0.0000 0.0000 0.0000
# 2 35.0052 116.9057 56.5527 0.0000 0.0000 0.0000
# 3 56.5481 56.5527 130.2414 0.0000 0.0000 0.0000
# 4 0.0000 0.0000 0.0000 11.2261 0.0000 0.0000
# 5 0.0000 0.0000 0.0000 0.0000 11.2243 0.0000
# 6 0.0000 0.0000 0.0000 0.0000 0.0000 11.0870
#
#
#
# Elastic Compliance Matrix: (Units=1/GPa)
#
#
# Indices 1 2 3 4 5 6 
#
# 1 0.010969 -0.001241 -0.004224 0.000000 0.000000 0.000000
# 2 -0.001241 0.010969 -0.004224 0.000000 0.000000 0.000000
# 3 -0.004224 -0.004224 0.011346 0.000000 0.000000 0.000000
# 4 0.000000 0.000000 0.000000 0.089078 0.000000 0.000000
# 5 0.000000 0.000000 0.000000 0.000000 0.089092 0.000000
# 6 0.000000 0.000000 0.000000 0.000000 0.000000 0.090196
#
#
# Mechanical properties :
#
#
# Convention : Reuss Voigt Hill
#
# Bulk Modulus (GPa) = 71.90986 73.36221 72.63604
# Shear Modulus (GPa) = 15.35328 21.10357 18.22843
#
# Velocity S-wave (km/s) = 2.93689 3.44323 3.20009
# Velocity P-wave (km/s) = 7.20408 7.55129 7.37973
#
# Compressibility (1/GPa) = 0.01390630
#
# Stress axis : x y z
#
# Youngs Moduli (GPa) = 91.16581 91.16688 88.13768
#
# Poissons Ratio (x) = 0.11317 0.37225
# Poissons Ratio (y) = 0.11317 0.37228
# Poissons Ratio (z) = 0.38504 0.38508
#
# Static dielectric constant tensor:
#      x y z
#    x 3.338820 0.000000 0.000000 
#    y 0.000000 3.338790 0.000000 
#    z 0.000000 0.000000 3.642720 
# 
# 
# High freq. dielectric constant tensor:
#      x y z
#    x 1.682590 0.000000 0.000000 
#    y 0.000000 1.682590 0.000000 
#    z 0.000000 0.000000 1.712060 
# 
# From -- ./inp_files/6321.got.cif
#   From: 2010.03.12/outbox.cif.g09.slc.cpg/sg141_4_cif.got.tgz:6321.got - 2010.04.03 13:18:35.
