data_PCOD8320617
_publ_section_title
;
Structure prediction by ZEFSAII (Michael W. Deem and Ramdas Pophale) SiO2 
 PCOD8320617
Probable space group: I 41/A M D
;
_chemical_formula_sum "Si O2"
_cell_formula_units_Z 160
_cell_length_a 27.093318
_cell_length_b 27.093318
_cell_length_c 12.457777
_cell_angle_alpha 90.000000
_cell_angle_beta 90.000000
_cell_angle_gamma 90.000000
_cell_volume 9144.604799
_symmetry_space_group_name_H-M "I 41/A M D"
_symmetry_group_IT_number 141
_space_group.IT_coordinate_system_code '2'
_symmetry_cell_setting 'tetragonal'
loop_
_space_group_symop_operation_xyz
x,y,z
1/4-y,3/4+x,1/4+z
-x,1/2-y,z
1/4+y,1/4-x,3/4+z
x,-y,-z
-x,1/2+y,-z
1/4+y,3/4+x,1/4-z
1/4-y,1/4-x,3/4-z
-x,-y,-z
3/4+y,1/4-x,3/4-z
x,1/2+y,-z
3/4-y,3/4+x,1/4-z
-x,y,z
x,1/2-y,z
3/4-y,1/4-x,3/4+z
3/4+y,3/4+x,1/4+z
1/2+x,1/2+y,1/2+z
3/4-y,1/4+x,3/4+z
1/2-x,-y,1/2+z
3/4+y,3/4-x,1/4+z
1/2+x,1/2-y,1/2-z
1/2-x,y,1/2-z
3/4+y,1/4+x,3/4-z
3/4-y,3/4-x,1/4-z
1/2-x,1/2-y,1/2-z
1/4+y,3/4-x,1/4-z
1/2+x,y,1/2-z
1/4-y,1/4+x,3/4-z
1/2-x,1/2+y,1/2+z
1/2+x,-y,1/2+z
1/4-y,3/4-x,1/4+z
1/4+y,1/4+x,3/4+z
loop_
_atom_site_type_symbol
_atom_site_label
_atom_site_fract_x
_atom_site_fract_y
_atom_site_fract_z
Si Si1 0.886828 0.445477 0.534624
Si Si2 0.605573 0.928479 0.677402
Si Si3 0.441571 0.472220 0.753028
Si Si4 0.056256 0.381870 0.362644
Si Si5 0.053350 0.557443 0.026649
O O1 0.869409 0.500000 0.500000
O O2 0.837927 0.412355 0.554025
O O3 0.922443 0.446644 0.638570
O O4 0.916882 0.422248 0.436572
O O5 0.566555 0.894146 0.738942
O O6 0.595284 0.920330 0.550618
O O7 0.595003 0.982913 0.722968
O O8 0.500000 0.487822 0.765187
O O9 0.435459 0.434222 0.653200
O O10 0.076732 0.326732 0.375000
O O11 0.000000 0.382564 0.394308
O O12 0.000000 0.581482 0.999971
O O13 0.049886 0.500000 0.000000
#
# Coordination Sequence:
#
# PCOD8320617 Si02
#       5
#    32  32  32  32  32
#     4  11  22  32  49  75 106 138 174 216 253 308
#     4  10  19  32  51  74 100 134 171 218 262 305
#     4  10  19  33  56  77  98 132 175 221 267 310
#     4  10  20  33  51  77 103 133 169 207 261 316
#     4   8  15  29  51  77  98 122 166 218 262 309
#
# _framework density 17.496656000000002
#
# number of rings (size 3 to 8) (size 9 to 14) (size 15 to 20)
#    0.000    2.200    2.000    3.600    0.000    1.800 
#    0.000    0.000    0.000   10.800    0.000    0.000 
#    0.000    0.000    0.000   47.600    0.000    0.000 
#
# Total GULP energy -991074.114361 kJ/mol
# GULP energy per Si atom -12388.426430 kJ/mol
# Density = 1.745683 g / cm^3
# Si number density = 17.496656 Si / 1000 Ang^3
#
#
#
# Elastic Constant Matrix: (Units=GPa)
#
#
# Indices 1 2 3 4 5 6 
#
# 1 84.1613 59.2371 34.6171 0.0000 0.0000 0.0000
# 2 59.2371 84.1613 34.6171 0.0000 0.0000 0.0000
# 3 34.6171 34.6171 110.8031 0.0000 0.0000 0.0000
# 4 0.0000 0.0000 0.0000 22.3068 0.0000 0.0000
# 5 0.0000 0.0000 0.0000 0.0000 22.3068 0.0000
# 6 0.0000 0.0000 0.0000 0.0000 0.0000 11.6809
#
#
#
# Elastic Compliance Matrix: (Units=1/GPa)
#
#
# Indices 1 2 3 4 5 6 
#
# 1 0.024167 -0.015955 -0.002566 0.000000 0.000000 0.000000
# 2 -0.015955 0.024167 -0.002566 0.000000 0.000000 0.000000
# 3 -0.002566 -0.002566 0.010628 0.000000 0.000000 0.000000
# 4 0.000000 0.000000 0.000000 0.044829 0.000000 0.000000
# 5 0.000000 0.000000 0.000000 0.000000 0.044829 0.000000
# 6 0.000000 0.000000 0.000000 0.000000 0.000000 0.085610
#
#
# Mechanical properties :
#
#
# Convention : Reuss Voigt Hill
#
# Bulk Modulus (GPa) = 59.55915 59.56316 59.56115
# Shear Modulus (GPa) = 17.73052 21.30252 19.51652
#
# Velocity S-wave (km/s) = 3.18680 3.49308 3.34345
# Velocity P-wave (km/s) = 6.90327 7.09826 7.00144
#
# Compressibility (1/GPa) = 0.01679003
#
# Stress axis : x y z
#
# Youngs Moduli (GPa) = 41.37881 41.37881 94.08961
#
# Poissons Ratio (x) = 0.66018 0.24141
# Poissons Ratio (y) = 0.66018 0.24141
# Poissons Ratio (z) = 0.10617 0.10617
#
# Static dielectric constant tensor:
#      x y z
#    x 3.090180 0.000000 0.000000 
#    y 0.000000 3.090180 0.000000 
#    z 0.000000 0.000000 3.729680 
# 
# 
# High freq. dielectric constant tensor:
#      x y z
#    x 1.648580 0.000000 0.000000 
#    y 0.000000 1.648580 0.000000 
#    z 0.000000 0.000000 1.701020 
# 
# From -- ./inp_files/4891.got.cif
#   From: 2010.03.12/outbox.cif.g09.slc.cpg/sg141_3_cif.got.tgz:4891.got - 2010.04.03 13:18:35.
