data_PCOD8320702
_publ_section_title
;
Structure prediction by ZEFSAII (Michael W. Deem and Ramdas Pophale) SiO2 
 PCOD8320702
Probable space group: I 41/A M D
;
_chemical_formula_sum "Si O2"
_cell_formula_units_Z 176
_cell_length_a 18.063611
_cell_length_b 18.063611
_cell_length_c 27.973324
_cell_angle_alpha 90.000000
_cell_angle_beta 90.000000
_cell_angle_gamma 90.000000
_cell_volume 9127.528966
_symmetry_space_group_name_H-M "I 41/A M D"
_symmetry_group_IT_number 141
_space_group.IT_coordinate_system_code '2'
_symmetry_cell_setting 'tetragonal'
loop_
_space_group_symop_operation_xyz
x,y,z
1/4-y,3/4+x,1/4+z
-x,1/2-y,z
1/4+y,1/4-x,3/4+z
x,-y,-z
-x,1/2+y,-z
1/4+y,3/4+x,1/4-z
1/4-y,1/4-x,3/4-z
-x,-y,-z
3/4+y,1/4-x,3/4-z
x,1/2+y,-z
3/4-y,3/4+x,1/4-z
-x,y,z
x,1/2-y,z
3/4-y,1/4-x,3/4+z
3/4+y,3/4+x,1/4+z
1/2+x,1/2+y,1/2+z
3/4-y,1/4+x,3/4+z
1/2-x,-y,1/2+z
3/4+y,3/4-x,1/4+z
1/2+x,1/2-y,1/2-z
1/2-x,y,1/2-z
3/4+y,1/4+x,3/4-z
3/4-y,3/4-x,1/4-z
1/2-x,1/2-y,1/2-z
1/4+y,3/4-x,1/4-z
1/2+x,y,1/2-z
1/4-y,1/4+x,3/4-z
1/2-x,1/2+y,1/2+z
1/2+x,-y,1/2+z
1/4-y,3/4-x,1/4+z
1/4+y,1/4+x,3/4+z
loop_
_atom_site_type_symbol
_atom_site_label
_atom_site_fract_x
_atom_site_fract_y
_atom_site_fract_z
Si Si1 0.413937 0.429387 0.902143
Si Si2 0.163871 0.930085 0.757504
Si Si3 0.415920 0.902398 0.918074
Si Si4 0.665806 0.837638 0.471586
Si Si5 0.413778 0.836223 0.375000
Si Si6 0.582543 0.162024 0.435420
O O1 0.500000 0.412160 0.908840
O O2 0.373549 0.397742 0.948382
O O3 0.398445 0.516479 0.896789
O O4 0.381703 0.387686 0.855519
O O5 0.250000 0.946279 0.750000
O O6 0.131335 0.889299 0.710899
O O7 0.122310 0.005346 0.767959
O O8 0.405152 0.844849 0.875000
O O9 0.500000 0.898197 0.937189
O O10 0.674254 0.750000 0.472809
O O11 0.633392 0.863584 0.420593
O O12 0.610279 0.865405 0.512920
O O13 0.500000 0.850143 0.386027
O O14 0.500000 0.130431 0.426653
O O15 0.581655 0.250000 0.434210
#
# Coordination Sequence:
#
# PCOD8320702 Si02
#       6
#    32  32  32  32  16  32
#     4   9  18  34  55  78 106 143 188 231 270 322
#     4  10  21  37  55  79 108 149 185 225 274 331
#     4  10  20  35  55  80 110 145 186 229 275 324
#     4  10  20  36  57  82 111 143 183 226 271 329
#     4   9  18  36  62  86 110 144 184 228 277 328
#     4   9  17  31  54  81 106 136 176 221 269 321
#
# _framework density 19.282326999999999
#
# number of rings (size 3 to 8) (size 9 to 14) (size 15 to 20)
#    0.000    2.455    0.000    2.182    0.000    7.455 
#    9.818    0.000    0.000    4.364    0.000    0.000 
#    0.000    0.000    0.000    0.000    0.000    0.000 
#
# Total GULP energy -1091241.205689 kJ/mol
# GULP energy per Si atom -12400.468246 kJ/mol
# Density = 1.923844 g / cm^3
# Si number density = 19.282327 Si / 1000 Ang^3
#
#
#
# Elastic Constant Matrix: (Units=GPa)
#
#
# Indices 1 2 3 4 5 6 
#
# 1 69.9833 37.1178 60.5576 0.0000 0.0000 0.0000
# 2 37.1178 69.9838 60.5586 0.0000 0.0000 0.0000
# 3 60.5576 60.5586 173.5588 0.0000 0.0000 0.0000
# 4 0.0000 0.0000 0.0000 30.0884 0.0000 0.0000
# 5 0.0000 0.0000 0.0000 0.0000 30.0881 0.0000
# 6 0.0000 0.0000 0.0000 0.0000 0.0000 30.9256
#
#
#
# Elastic Compliance Matrix: (Units=1/GPa)
#
#
# Indices 1 2 3 4 5 6 
#
# 1 0.022924 -0.007502 -0.005381 0.000000 0.000000 0.000000
# 2 -0.007502 0.022925 -0.005381 0.000000 0.000000 0.000000
# 3 -0.005381 -0.005381 0.009517 0.000000 0.000000 0.000000
# 4 0.000000 0.000000 0.000000 0.033235 0.000000 0.000000
# 5 0.000000 0.000000 0.000000 0.000000 0.033236 0.000000
# 6 0.000000 0.000000 0.000000 0.000000 0.000000 0.032336
#
#
# Mechanical properties :
#
#
# Convention : Reuss Voigt Hill
#
# Bulk Modulus (GPa) = 53.08738 69.99931 61.54335
# Shear Modulus (GPa) = 25.38319 28.57320 26.97820
#
# Velocity S-wave (km/s) = 3.63215 3.85364 3.74453
# Velocity P-wave (km/s) = 6.72171 7.49545 7.11910
#
# Compressibility (1/GPa) = 0.01883687
#
# Stress axis : x y z
#
# Youngs Moduli (GPa) = 43.62150 43.62140 105.07628
#
# Poissons Ratio (x) = 0.32726 0.56542
# Poissons Ratio (y) = 0.32726 0.56544
# Poissons Ratio (z) = 0.23473 0.23474
#
# Static dielectric constant tensor:
#      x y z
#    x 3.379510 0.000000 0.000000 
#    y 0.000000 3.379520 0.000000 
#    z 0.000000 0.000000 3.759000 
# 
# 
# High freq. dielectric constant tensor:
#      x y z
#    x 1.735600 0.000000 0.000000 
#    y 0.000000 1.735600 0.000000 
#    z 0.000000 0.000000 1.765730 
# 
# From -- ./inp_files/12908.got.cif
#   From: 2010.03.12/outbox.cif.g09.slc.cpg/sg141_7_cif.got.tgz:12908.got - 2010.04.03 13:18:35.
