data_PCOD8320989
_publ_section_title
;
Structure prediction by ZEFSAII (Michael W. Deem and Ramdas Pophale) SiO2 
 PCOD8320989
Probable space group: I 41/A C D
;
_chemical_formula_sum "Si O2"
_cell_formula_units_Z 112
_cell_length_a 18.791845
_cell_length_b 18.791845
_cell_length_c 15.053805
_cell_angle_alpha 90.000000
_cell_angle_beta 90.000000
_cell_angle_gamma 90.000000
_cell_volume 5316.001922
_symmetry_space_group_name_H-M "I 41/A C D"
_symmetry_group_IT_number 142
_space_group.IT_coordinate_system_code '2'
_symmetry_cell_setting 'tetragonal'
loop_
_space_group_symop_operation_xyz
x,y,z
1/4-y,3/4+x,1/4+z
-x,1/2-y,z
1/4+y,1/4-x,3/4+z
x,-y,1/2-z
1/2-x,y,-z
3/4+y,1/4+x,1/4-z
1/4-y,1/4-x,1/4-z
-x,-y,-z
3/4+y,1/4-x,3/4-z
x,1/2+y,-z
3/4-y,3/4+x,1/4-z
-x,y,1/2+z
1/2+x,-y,z
1/4-y,3/4-x,3/4+z
3/4+y,3/4+x,3/4+z
1/2+x,1/2+y,1/2+z
3/4-y,1/4+x,3/4+z
1/2-x,-y,1/2+z
3/4+y,3/4-x,1/4+z
1/2+x,1/2-y,-z
-x,1/2+y,1/2-z
1/4+y,3/4+x,3/4-z
3/4-y,3/4-x,3/4-z
1/2-x,1/2-y,1/2-z
1/4+y,3/4-x,1/4-z
1/2+x,y,1/2-z
1/4-y,1/4+x,3/4-z
1/2-x,1/2+y,z
x,1/2-y,1/2+z
3/4-y,1/4-x,1/4+z
1/4+y,1/4+x,1/4+z
loop_
_atom_site_type_symbol
_atom_site_label
_atom_site_fract_x
_atom_site_fract_y
_atom_site_fract_z
Si Si1 0.734630 0.916639 0.761685
Si Si2 0.868513 0.110352 0.834710
Si Si3 0.377797 0.627797 0.625000
Si Si4 0.666678 0.727837 0.978633
O O1 0.816737 0.895690 0.750001
O O2 0.712701 0.891750 0.859935
O O3 0.690205 0.872991 0.689098
O O4 0.717906 0.000000 0.750000
O O5 0.846923 0.176586 0.895489
O O6 0.947259 0.117719 0.796903
O O7 0.449126 0.624895 0.684437
O O8 0.750000 0.733333 0.000000
#
# Coordination Sequence:
#
# PCOD8320989 Si02
#       4
#    32  32  16  32
#     4  11  18  37  68 103 125 167 224 293 329 396
#     4  11  23  38  69  97 138 170 229 276 344 404
#     4  10  18  40  68  93 126 170 220 271 342 394
#     4  11  23  43  68  97 131 180 220 281 341 408
#
# _framework density 21.068466000000001
#
# number of rings (size 3 to 8) (size 9 to 14) (size 15 to 20)
#    0.000    1.143    5.714    2.571    0.000    1.714 
#    0.000    0.000    6.286    0.000    0.000    0.000 
#    0.000    0.000    0.000    0.000    0.000    0.000 
#
# Total GULP energy -694507.001964 kJ/mol
# GULP energy per Si atom -12401.910749 kJ/mol
# Density = 2.102051 g / cm^3
# Si number density = 21.068466 Si / 1000 Ang^3
#
#
#
# Elastic Constant Matrix: (Units=GPa)
#
#
# Indices 1 2 3 4 5 6 
#
# 1 126.8388 13.9634 40.7429 0.0000 0.0000 0.0000
# 2 13.9634 126.8388 40.7429 0.0000 0.0000 0.0000
# 3 40.7429 40.7429 67.0414 0.0000 0.0000 0.0000
# 4 0.0000 0.0000 0.0000 36.5944 0.0000 0.0000
# 5 0.0000 0.0000 0.0000 0.0000 36.5944 0.0000
# 6 0.0000 0.0000 0.0000 0.0000 0.0000 -0.4019
#
#
#
# Elastic Compliance Matrix: (Units=1/GPa)
#
#
# Indices 1 2 3 4 5 6 
#
# 1 0.009907 0.001048 -0.006658 0.000000 0.000000 0.000000
# 2 0.001048 0.009907 -0.006658 0.000000 0.000000 0.000000
# 3 -0.006658 -0.006658 0.023008 0.000000 0.000000 0.000000
# 4 0.000000 0.000000 0.000000 0.027327 0.000000 0.000000
# 5 0.000000 0.000000 0.000000 0.000000 0.027327 0.000000
# 6 0.000000 0.000000 0.000000 0.000000 0.000000 -2.488365
#
#
# Mechanical properties :
#
#
# Convention : Reuss Voigt Hill
#
# Bulk Modulus (GPa) = 54.68161 56.84634 55.76397
# Shear Modulus (GPa) = -2.11841 29.57536 13.72848
#
# Velocity S-wave (km/s) = -1.00383 3.75076 2.55544
# Velocity P-wave (km/s) = 4.96659 6.76742 5.93569
#
# Compressibility (1/GPa) = 0.01828768
#
# Stress axis : x y z
#
# Youngs Moduli (GPa) = 100.93613 100.93613 43.46242
#
# Poissons Ratio (x) = -0.10577 0.28936
# Poissons Ratio (y) = -0.10577 0.28936
# Poissons Ratio (z) = 0.67201 0.67201
#
# Static dielectric constant tensor:
#      x y z
#    x 3.737530 0.000000 0.000000 
#    y 0.000000 3.737530 0.000000 
#    z 0.000000 0.000000 3.995750 
# 
# 
# High freq. dielectric constant tensor:
#      x y z
#    x 1.813500 0.000000 0.000000 
#    y 0.000000 1.813500 0.000000 
#    z 0.000000 0.000000 1.833590 
# 
# From -- ./inp_files/6839.got.cif
#   From: 2010.03.12/outbox.cif.g09.slc.cpg/sg142_4_cif.got.tgz:6839.got - 2010.04.03 13:27:16.
