data_PCOD8320994
_publ_section_title
;
Structure prediction by ZEFSAII (Michael W. Deem and Ramdas Pophale) SiO2 
 PCOD8320994
Probable space group: I 41/A C D
;
_chemical_formula_sum "Si O2"
_cell_formula_units_Z 144
_cell_length_a 17.747777
_cell_length_b 17.747777
_cell_length_c 24.568310
_cell_angle_alpha 90.000000
_cell_angle_beta 90.000000
_cell_angle_gamma 90.000000
_cell_volume 7738.614446
_symmetry_space_group_name_H-M "I 41/A C D"
_symmetry_group_IT_number 142
_space_group.IT_coordinate_system_code '2'
_symmetry_cell_setting 'tetragonal'
loop_
_space_group_symop_operation_xyz
x,y,z
1/4-y,3/4+x,1/4+z
-x,1/2-y,z
1/4+y,1/4-x,3/4+z
x,-y,1/2-z
1/2-x,y,-z
3/4+y,1/4+x,1/4-z
1/4-y,1/4-x,1/4-z
-x,-y,-z
3/4+y,1/4-x,3/4-z
x,1/2+y,-z
3/4-y,3/4+x,1/4-z
-x,y,1/2+z
1/2+x,-y,z
1/4-y,3/4-x,3/4+z
3/4+y,3/4+x,3/4+z
1/2+x,1/2+y,1/2+z
3/4-y,1/4+x,3/4+z
1/2-x,-y,1/2+z
3/4+y,3/4-x,1/4+z
1/2+x,1/2-y,-z
-x,1/2+y,1/2-z
1/4+y,3/4+x,3/4-z
3/4-y,3/4-x,3/4-z
1/2-x,1/2-y,1/2-z
1/4+y,3/4-x,1/4-z
1/2+x,y,1/2-z
1/4-y,1/4+x,3/4-z
1/2-x,1/2+y,z
x,1/2-y,1/2+z
3/4-y,1/4-x,1/4+z
1/4+y,1/4+x,1/4+z
loop_
_atom_site_type_symbol
_atom_site_label
_atom_site_fract_x
_atom_site_fract_y
_atom_site_fract_z
Si Si1 0.913940 0.108617 0.435440
Si Si2 0.922075 0.221939 0.233929
Si Si3 0.866158 0.562628 0.931847
Si Si4 0.484853 0.397418 0.680135
Si Si5 0.750000 0.855348 0.500000
O O1 0.849907 0.173953 0.434160
O O2 0.964957 0.117481 0.382170
O O3 0.962831 0.122384 0.489113
O O4 0.879687 0.025673 0.439392
O O5 0.866697 0.189197 0.187293
O O6 0.949043 0.166209 0.281671
O O7 0.000000 0.250000 0.205602
O O8 0.824907 0.574907 0.875000
O O9 0.815253 0.588789 0.981893
O O10 0.449188 0.476623 0.699802
#
# Coordination Sequence:
#
# PCOD8320994 Si02
#       5
#    32  32  32  32  16
#     4  11  19  34  58  85 108 146 193 238 283 333
#     4   9  20  35  56  84 109 141 191 239 273 334
#     4  11  22  36  57  82 117 155 182 233 297 344
#     4  10  19  33  59  80 109 143 190 238 279 334
#     4  10  22  40  52  80 116 150 192 232 292 352
#
# _framework density 18.607983000000001
#
# number of rings (size 3 to 8) (size 9 to 14) (size 15 to 20)
#    0.000    1.778    4.444    0.667    0.000    1.333 
#    0.000    0.000    0.000    0.000    0.000    0.000 
#    0.000    0.000    0.000    0.000    0.000    0.000 
#
# Total GULP energy -892357.619119 kJ/mol
# GULP energy per Si atom -12393.855821 kJ/mol
# Density = 1.856563 g / cm^3
# Si number density = 18.607983 Si / 1000 Ang^3
#
#
#
# Elastic Constant Matrix: (Units=GPa)
#
#
# Indices 1 2 3 4 5 6 
#
# 1 121.8683 62.7608 23.5610 0.0000 0.0000 0.0000
# 2 62.7608 121.8683 23.5610 0.0000 0.0000 0.0000
# 3 23.5610 23.5610 38.9972 0.0000 0.0000 0.0000
# 4 0.0000 0.0000 0.0000 22.2642 0.0000 0.0000
# 5 0.0000 0.0000 0.0000 0.0000 22.2642 0.0000
# 6 0.0000 0.0000 0.0000 0.0000 0.0000 27.0930
#
#
#
# Elastic Compliance Matrix: (Units=1/GPa)
#
#
# Indices 1 2 3 4 5 6 
#
# 1 0.011661 -0.005257 -0.003869 0.000000 0.000000 0.000000
# 2 -0.005257 0.011661 -0.003869 0.000000 0.000000 0.000000
# 3 -0.003869 -0.003869 0.030318 0.000000 0.000000 0.000000
# 4 0.000000 0.000000 0.000000 0.044915 0.000000 0.000000
# 5 0.000000 0.000000 0.000000 0.000000 0.044915 0.000000
# 6 0.000000 0.000000 0.000000 0.000000 0.000000 0.036910
#
#
# Mechanical properties :
#
#
# Convention : Reuss Voigt Hill
#
# Bulk Modulus (GPa) = 36.16698 55.83325 46.00011
# Shear Modulus (GPa) = 23.19251 25.84770 24.52010
#
# Velocity S-wave (km/s) = 3.53423 3.73106 3.63398
# Velocity P-wave (km/s) = 6.01106 6.97361 6.51015
#
# Compressibility (1/GPa) = 0.02764953
#
# Stress axis : x y z
#
# Youngs Moduli (GPa) = 85.75580 85.75579 32.98387
#
# Poissons Ratio (x) = 0.45084 0.12761
# Poissons Ratio (y) = 0.45084 0.12761
# Poissons Ratio (z) = 0.33178 0.33178
#
# Static dielectric constant tensor:
#      x y z
#    x 3.528520 0.000000 0.000000 
#    y 0.000000 3.528520 0.000000 
#    z 0.000000 0.000000 3.272530 
# 
# 
# High freq. dielectric constant tensor:
#      x y z
#    x 1.719560 0.000000 0.000000 
#    y 0.000000 1.719560 0.000000 
#    z 0.000000 0.000000 1.713000 
# 
# From -- ./inp_files/10131.got.cif
#   From: 2010.03.12/outbox.cif.g09.slc.cpg/sg142_6_cif.got.tgz:10131.got - 2010.04.03 13:27:16.
