data_PCOD8320463
_publ_section_title
;
Structure prediction by ZEFSAII (Michael W. Deem and Ramdas Pophale) SiO2 
 PCOD8320463
Probable space group: I 4/M C M
;
_chemical_formula_sum "Si O2"
_cell_formula_units_Z 128
_cell_length_a 20.492360
_cell_length_b 20.492360
_cell_length_c 13.574448
_cell_angle_alpha 90.000000
_cell_angle_beta 90.000000
_cell_angle_gamma 90.000000
_cell_volume 5700.410504
_symmetry_space_group_name_H-M "I 4/M C M"
_symmetry_group_IT_number 140
_symmetry_cell_setting 'tetragonal'
loop_
_space_group_symop_operation_xyz
x,y,z
-y,x,z
-x,-y,z
y,-x,z
x,-y,1/2-z
-x,y,1/2-z
y,x,1/2-z
-y,-x,1/2-z
-x,-y,-z
y,-x,-z
x,y,-z
-y,x,-z
-x,y,1/2+z
x,-y,1/2+z
-y,-x,1/2+z
y,x,1/2+z
1/2+x,1/2+y,1/2+z
1/2-y,1/2+x,1/2+z
1/2-x,1/2-y,1/2+z
1/2+y,1/2-x,1/2+z
1/2+x,1/2-y,-z
1/2-x,1/2+y,-z
1/2+y,1/2+x,-z
1/2-y,1/2-x,-z
1/2-x,1/2-y,1/2-z
1/2+y,1/2-x,1/2-z
1/2+x,1/2+y,1/2-z
1/2-y,1/2+x,1/2-z
1/2-x,1/2+y,z
1/2+x,1/2-y,z
1/2-y,1/2-x,z
1/2+y,1/2+x,z
loop_
_atom_site_type_symbol
_atom_site_label
_atom_site_fract_x
_atom_site_fract_y
_atom_site_fract_z
Si Si1 0.223367 0.091103 0.792952
Si Si2 0.102429 0.026200 0.885015
Si Si3 0.445547 0.945547 0.114478
Si Si4 0.284326 0.677892 0.388247
Si Si5 0.500000 0.163701 0.250000
O O1 0.166267 0.041136 0.821571
O O2 0.223769 0.153576 0.864854
O O3 0.213685 0.114159 0.679976
O O4 0.292238 0.054870 0.802434
O O5 0.046137 0.078243 0.857539
O O6 0.119002 0.031676 0.000000
O O7 0.468707 0.878771 0.163549
O O8 0.500000 0.000000 0.132316
O O9 0.432349 0.932349 0.000000
O O10 0.288181 0.653205 0.500000
O O11 0.218853 0.718853 0.368551
#
# Coordination Sequence:
#
# PCOD8320463 Si02
#       5
#    32  32  16  32  16
#     4  11  24  40  71 103 137 184 233 293 348 421
#     4   9  20  41  69 101 140 188 240 293 350 412
#     4  11  26  52  82 111 148 184 226 296 371 440
#     4  10  24  45  67  96 139 185 232 290 354 421
#     4  12  27  46  74 111 144 182 238 290 356 441
#
# _framework density 22.454525
#
# number of rings (size 3 to 8) (size 9 to 14) (size 15 to 20)
#    0.000    1.625    1.250    3.000   10.500    3.000 
#    0.000    2.500    0.000    0.000    0.000    1.750 
#    0.000    0.000    0.000    0.000    0.000    0.000 
#
# Total GULP energy -793889.430036 kJ/mol
# GULP energy per Si atom -12404.522344 kJ/mol
# Density = 2.240342 g / cm^3
# Si number density = 22.454525 Si / 1000 Ang^3
#
#
#
# Elastic Constant Matrix: (Units=GPa)
#
#
# Indices 1 2 3 4 5 6 
#
# 1 138.1324 65.3608 74.4624 0.0000 0.0000 0.0000
# 2 65.3608 138.1324 74.4624 0.0000 0.0000 0.0000
# 3 74.4624 74.4624 152.9886 0.0000 0.0000 0.0000
# 4 0.0000 0.0000 0.0000 28.9773 0.0000 0.0000
# 5 0.0000 0.0000 0.0000 0.0000 28.9773 0.0000
# 6 0.0000 0.0000 0.0000 0.0000 0.0000 46.2862
#
#
#
# Elastic Compliance Matrix: (Units=1/GPa)
#
#
# Indices 1 2 3 4 5 6 
#
# 1 0.010687 -0.003054 -0.003715 0.000000 0.000000 0.000000
# 2 -0.003054 0.010687 -0.003715 0.000000 0.000000 0.000000
# 3 -0.003715 -0.003715 0.010153 0.000000 0.000000 0.000000
# 4 0.000000 0.000000 0.000000 0.034510 0.000000 0.000000
# 5 0.000000 0.000000 0.000000 0.000000 0.034510 0.000000
# 6 0.000000 0.000000 0.000000 0.000000 0.000000 0.021605
#
#
# Mechanical properties :
#
#
# Convention : Reuss Voigt Hill
#
# Bulk Modulus (GPa) = 94.71110 95.31383 95.01247
# Shear Modulus (GPa) = 34.09697 35.17934 34.63816
#
# Velocity S-wave (km/s) = 3.90101 3.96244 3.93184
# Velocity P-wave (km/s) = 7.90956 7.96707 7.93837
#
# Compressibility (1/GPa) = 0.01055842
#
# Stress axis : x y z
#
# Youngs Moduli (GPa) = 93.56860 93.56860 98.49393
#
# Poissons Ratio (x) = 0.28578 0.36592
# Poissons Ratio (y) = 0.28578 0.36592
# Poissons Ratio (z) = 0.34762 0.34762
#
# Static dielectric constant tensor:
#      x y z
#    x 4.039130 0.000000 0.000000 
#    y 0.000000 4.039130 0.000000 
#    z 0.000000 0.000000 4.118140 
# 
# 
# High freq. dielectric constant tensor:
#      x y z
#    x 1.887430 0.000000 0.000000 
#    y 0.000000 1.887430 0.000000 
#    z 0.000000 0.000000 1.895790 
# 
# From -- ./inp_files/4379.got.cif
#   From: 2010.06.25/outbox.cif.g09.slc.cpg/sg140_3_cif.got.tgz:4379.got - 2010.06.28 10:53:23.
