data_PCOD8320363
_publ_section_title
;
Structure prediction by ZEFSAII (Michael W. Deem and Ramdas Pophale) SiO2 
 PCOD8320363
Probable space group: I 4/M C M
;
_chemical_formula_sum "Si O2"
_cell_formula_units_Z 176
_cell_length_a 22.787654
_cell_length_b 22.787654
_cell_length_c 16.334260
_cell_angle_alpha 90.000000
_cell_angle_beta 90.000000
_cell_angle_gamma 90.000000
_cell_volume 8482.008386
_symmetry_space_group_name_H-M "I 4/M C M"
_symmetry_group_IT_number 140
_symmetry_cell_setting 'tetragonal'
loop_
_space_group_symop_operation_xyz
x,y,z
-y,x,z
-x,-y,z
y,-x,z
x,-y,1/2-z
-x,y,1/2-z
y,x,1/2-z
-y,-x,1/2-z
-x,-y,-z
y,-x,-z
x,y,-z
-y,x,-z
-x,y,1/2+z
x,-y,1/2+z
-y,-x,1/2+z
y,x,1/2+z
1/2+x,1/2+y,1/2+z
1/2-y,1/2+x,1/2+z
1/2-x,1/2-y,1/2+z
1/2+y,1/2-x,1/2+z
1/2+x,1/2-y,-z
1/2-x,1/2+y,-z
1/2+y,1/2+x,-z
1/2-y,1/2-x,-z
1/2-x,1/2-y,1/2-z
1/2+y,1/2-x,1/2-z
1/2+x,1/2+y,1/2-z
1/2-y,1/2+x,1/2-z
1/2-x,1/2+y,z
1/2+x,1/2-y,z
1/2-y,1/2-x,z
1/2+y,1/2+x,z
loop_
_atom_site_type_symbol
_atom_site_label
_atom_site_fract_x
_atom_site_fract_y
_atom_site_fract_z
Si Si1 0.231500 0.636606 0.903119
Si Si2 0.284555 0.989882 0.661672
Si Si3 0.138747 0.171914 0.098092
Si Si4 0.515197 0.594148 0.000000
Si Si5 0.850783 0.982209 0.662335
Si Si6 0.301084 0.108985 0.594022
O O1 0.189846 0.689846 0.873632
O O2 0.204811 0.576122 0.868698
O O3 0.298061 0.647899 0.871964
O O4 0.231995 0.632494 0.000000
O O5 0.314139 0.000000 0.750000
O O6 0.216772 0.003968 0.668276
O O7 0.312996 0.039370 0.603554
O O8 0.086472 0.136123 0.143095
O O9 0.131354 0.238867 0.129350
O O10 0.130963 0.165950 0.000000
O O11 0.451695 0.566509 0.000000
O O12 0.522220 0.629860 0.915361
O O13 0.880964 0.000000 0.750000
O O14 0.299995 0.124267 0.500000
O O15 0.353224 0.146777 0.636483
#
# Coordination Sequence:
#
# PCOD8320363 Si02
#       6
#    32  32  32  16  32  32
#     4  10  21  36  61  94 124 155 193 249 313 371
#     4  10  22  37  54  82 116 157 199 233 295 360
#     4   9  17  33  60  90 121 157 193 245 309 364
#     4  11  26  42  58  82 110 158 216 261 317 347
#     4  10  22  39  60  87 117 161 209 255 303 362
#     4   9  17  32  56  84 113 149 194 237 281 346
#
# _framework density 20.749803
#
# number of rings (size 3 to 8) (size 9 to 14) (size 15 to 20)
#    0.000    2.273    0.909    1.091    5.091    3.636 
#    3.273    3.636    0.000   11.455    0.000    3.818 
#    0.000    0.000    0.000    0.000    0.000    0.000 
#
# Total GULP energy -1090461.326047 kJ/mol
# GULP energy per Si atom -12391.605978 kJ/mol
# Density = 2.070258 g / cm^3
# Si number density = 20.749803 Si / 1000 Ang^3
#
#
#
# Elastic Constant Matrix: (Units=GPa)
#
#
# Indices 1 2 3 4 5 6 
#
# 1 95.0769 32.6527 26.8015 0.0000 0.0000 0.0000
# 2 32.6527 95.0769 26.8015 0.0000 0.0000 0.0000
# 3 26.8015 26.8015 86.7127 0.0000 0.0000 0.0000
# 4 0.0000 0.0000 0.0000 17.5386 0.0000 0.0000
# 5 0.0000 0.0000 0.0000 0.0000 17.5386 0.0000
# 6 0.0000 0.0000 0.0000 0.0000 0.0000 28.8486
#
#
#
# Elastic Compliance Matrix: (Units=1/GPa)
#
#
# Indices 1 2 3 4 5 6 
#
# 1 0.012508 -0.003512 -0.002780 0.000000 0.000000 0.000000
# 2 -0.003512 0.012508 -0.002780 0.000000 0.000000 0.000000
# 3 -0.002780 -0.002780 0.013251 0.000000 0.000000 0.000000
# 4 0.000000 0.000000 0.000000 0.057017 0.000000 0.000000
# 5 0.000000 0.000000 0.000000 0.000000 0.057017 0.000000
# 6 0.000000 0.000000 0.000000 0.000000 0.000000 0.034664
#
#
# Mechanical properties :
#
#
# Convention : Reuss Voigt Hill
#
# Bulk Modulus (GPa) = 49.69935 49.93088 49.81512
# Shear Modulus (GPa) = 23.60530 25.49255 24.54892
#
# Velocity S-wave (km/s) = 3.37651 3.50890 3.44334
# Velocity P-wave (km/s) = 6.26138 6.36648 6.31415
#
# Compressibility (1/GPa) = 0.02012099
#
# Stress axis : x y z
#
# Youngs Moduli (GPa) = 79.95092 79.95092 75.46521
#
# Poissons Ratio (x) = 0.28077 0.20983
# Poissons Ratio (y) = 0.28077 0.20983
# Poissons Ratio (z) = 0.22230 0.22230
#
# Static dielectric constant tensor:
#      x y z
#    x 3.885840 0.000000 0.000000 
#    y 0.000000 3.885840 0.000000 
#    z 0.000000 0.000000 4.700620 
# 
# 
# High freq. dielectric constant tensor:
#      x y z
#    x 1.797880 0.000000 0.000000 
#    y 0.000000 1.797880 0.000000 
#    z 0.000000 0.000000 1.804300 
# 
# From -- ./inp_files/4889.got.cif
#   From: 2010.06.25/outbox.cif.g09.slc.cpg/sg140_3_cif.got.tgz:4889.got - 2010.06.28 10:53:23.
