data_PCOD8320936
_publ_section_title
;
Structure prediction by ZEFSAII (Michael W. Deem and Ramdas Pophale) SiO2 
 PCOD8320936
Probable space group: I 41/A M D
;
_chemical_formula_sum "Si O2"
_cell_formula_units_Z 84
_cell_length_a 14.134872
_cell_length_b 14.134872
_cell_length_c 20.071617
_cell_angle_alpha 90.000000
_cell_angle_beta 90.000000
_cell_angle_gamma 90.000000
_cell_volume 4010.200819
_symmetry_space_group_name_H-M "I 41/A M D"
_symmetry_group_IT_number 141
_space_group.IT_coordinate_system_code '2'
_symmetry_cell_setting 'tetragonal'
loop_
_space_group_symop_operation_xyz
x,y,z
1/4-y,3/4+x,1/4+z
-x,1/2-y,z
1/4+y,1/4-x,3/4+z
x,-y,-z
-x,1/2+y,-z
1/4+y,3/4+x,1/4-z
1/4-y,1/4-x,3/4-z
-x,-y,-z
3/4+y,1/4-x,3/4-z
x,1/2+y,-z
3/4-y,3/4+x,1/4-z
-x,y,z
x,1/2-y,z
3/4-y,1/4-x,3/4+z
3/4+y,3/4+x,1/4+z
1/2+x,1/2+y,1/2+z
3/4-y,1/4+x,3/4+z
1/2-x,-y,1/2+z
3/4+y,3/4-x,1/4+z
1/2+x,1/2-y,1/2-z
1/2-x,y,1/2-z
3/4+y,1/4+x,3/4-z
3/4-y,3/4-x,1/4-z
1/2-x,1/2-y,1/2-z
1/4+y,3/4-x,1/4-z
1/2+x,y,1/2-z
1/4-y,1/4+x,3/4-z
1/2-x,1/2+y,1/2+z
1/2+x,-y,1/2+z
1/4-y,3/4-x,1/4+z
1/4+y,1/4+x,3/4+z
loop_
_atom_site_type_symbol
_atom_site_label
_atom_site_fract_x
_atom_site_fract_y
_atom_site_fract_z
Si Si1 0.193603 0.750000 0.040961
Si Si2 0.500000 0.250000 0.625000
Si Si3 0.159034 0.088684 0.210983
Si Si4 0.783518 0.750000 0.885285
Si Si5 0.398845 0.750000 0.807419
O O1 0.252098 0.843230 0.062225
O O2 0.092306 0.750000 0.077503
O O3 0.183739 0.750000 0.961256
O O4 0.250000 0.046663 0.250000
O O5 0.178735 0.152424 0.146319
O O6 0.110199 0.156618 0.263761
O O7 0.671461 0.750000 0.870928
O O8 0.500000 0.750000 0.841254
#
# Coordination Sequence:
#
# PCOD8320936 Si02
#       5
#    16   4  32  16  16
#     4  12  25  48  68  87 123 176 234 292 338 366
#     4  12  36  52  60  84 104 172 280 334 292 332
#     4   9  20  39  65 102 144 173 204 249 330 419
#     4   9  22  39  65 107 142 171 210 248 333 442
#     4   9  15  34  62 115 154 169 184 236 327 434
#
# _framework density 20.946581999999999
#
# number of rings (size 3 to 8) (size 9 to 14) (size 15 to 20)
#    0.000    2.286    1.905    2.286    0.000   10.667 
#    6.857    2.857    0.000    0.000    0.000    0.000 
#    0.000    0.000    0.000    0.000    0.000    0.000 
#
# Total GULP energy -520305.247843 kJ/mol
# GULP energy per Si atom -12388.220187 kJ/mol
# Density = 2.089891 g / cm^3
# Si number density = 20.946582 Si / 1000 Ang^3
#
#
#
# Elastic Constant Matrix: (Units=GPa)
#
#
# Indices 1 2 3 4 5 6 
#
# 1 157.1909 83.0601 57.4204 0.0000 0.0000 0.0000
# 2 83.0601 157.1909 57.4204 0.0000 0.0000 0.0000
# 3 57.4204 57.4204 135.0206 0.0000 0.0000 0.0000
# 4 0.0000 0.0000 0.0000 25.3061 0.0000 0.0000
# 5 0.0000 0.0000 0.0000 0.0000 25.3061 0.0000
# 6 0.0000 0.0000 0.0000 0.0000 0.0000 -9.4399
#
#
#
# Elastic Compliance Matrix: (Units=1/GPa)
#
#
# Indices 1 2 3 4 5 6 
#
# 1 0.009357 -0.004133 -0.002222 0.000000 0.000000 0.000000
# 2 -0.004133 0.009357 -0.002222 0.000000 0.000000 0.000000
# 3 -0.002222 -0.002222 0.009296 0.000000 0.000000 0.000000
# 4 0.000000 0.000000 0.000000 0.039516 0.000000 0.000000
# 5 0.000000 0.000000 0.000000 0.000000 0.039516 0.000000
# 6 0.000000 0.000000 0.000000 0.000000 0.000000 -0.105933
#
#
# Mechanical properties :
#
#
# Convention : Reuss Voigt Hill
#
# Bulk Modulus (GPa) = 92.10140 93.91158 93.00649
# Shear Modulus (GPa) = 228.51464 25.00124 126.75794
#
# Velocity S-wave (km/s) = 10.45614 3.45856 7.78757
# Velocity P-wave (km/s) = 13.77823 7.80256 11.19642
#
# Compressibility (1/GPa) = 0.01085760
#
# Stress axis : x y z
#
# Youngs Moduli (GPa) = 106.87198 106.87198 107.57341
#
# Poissons Ratio (x) = 0.44167 0.23900
# Poissons Ratio (y) = 0.44167 0.23900
# Poissons Ratio (z) = 0.23744 0.23744
#
# Static dielectric constant tensor:
#      x y z
#    x 3.893840 0.000000 0.000000 
#    y 0.000000 3.893840 0.000000 
#    z 0.000000 0.000000 3.606330 
# 
# 
# High freq. dielectric constant tensor:
#      x y z
#    x 1.817940 0.000000 0.000000 
#    y 0.000000 1.817940 0.000000 
#    z 0.000000 0.000000 1.826540 
# 
# From -- ./inp_files/9667.got.cif
#   From: 2010.03.12/outbox.cif.g09.slc.cpg/sg141_5_cif.got.tgz:9667.got - 2010.04.03 13:18:35.
