data_PCOD8320536
_publ_section_title
;
Structure prediction by ZEFSAII (Michael W. Deem and Ramdas Pophale) SiO2 
 PCOD8320536
Probable space group: I 41/A M D
;
_chemical_formula_sum "Si O2"
_cell_formula_units_Z 160
_cell_length_a 23.555968
_cell_length_b 23.555968
_cell_length_c 16.677166
_cell_angle_alpha 90.000000
_cell_angle_beta 90.000000
_cell_angle_gamma 90.000000
_cell_volume 9253.886382
_symmetry_space_group_name_H-M "I 41/A M D"
_symmetry_group_IT_number 141
_space_group.IT_coordinate_system_code '2'
_symmetry_cell_setting 'tetragonal'
loop_
_space_group_symop_operation_xyz
x,y,z
1/4-y,3/4+x,1/4+z
-x,1/2-y,z
1/4+y,1/4-x,3/4+z
x,-y,-z
-x,1/2+y,-z
1/4+y,3/4+x,1/4-z
1/4-y,1/4-x,3/4-z
-x,-y,-z
3/4+y,1/4-x,3/4-z
x,1/2+y,-z
3/4-y,3/4+x,1/4-z
-x,y,z
x,1/2-y,z
3/4-y,1/4-x,3/4+z
3/4+y,3/4+x,1/4+z
1/2+x,1/2+y,1/2+z
3/4-y,1/4+x,3/4+z
1/2-x,-y,1/2+z
3/4+y,3/4-x,1/4+z
1/2+x,1/2-y,1/2-z
1/2-x,y,1/2-z
3/4+y,1/4+x,3/4-z
3/4-y,3/4-x,1/4-z
1/2-x,1/2-y,1/2-z
1/4+y,3/4-x,1/4-z
1/2+x,y,1/2-z
1/4-y,1/4+x,3/4-z
1/2-x,1/2+y,1/2+z
1/2+x,-y,1/2+z
1/4-y,3/4-x,1/4+z
1/4+y,1/4+x,3/4+z
loop_
_atom_site_type_symbol
_atom_site_label
_atom_site_fract_x
_atom_site_fract_y
_atom_site_fract_z
Si Si1 0.892988 0.683458 0.545013
Si Si2 0.934723 0.873655 0.008020
Si Si3 0.432760 0.250000 0.304142
Si Si4 0.564633 0.062502 0.346521
Si Si5 0.500000 0.182566 0.769683
Si Si6 0.140652 0.531409 0.081173
O O1 0.894540 0.644540 0.625000
O O2 0.899534 0.750000 0.567882
O O3 0.944960 0.661567 0.492132
O O4 0.836586 0.672840 0.492465
O O5 0.926741 0.888672 0.913734
O O6 0.914069 0.808480 0.024390
O O7 0.000000 0.881384 0.032984
O O8 0.898169 0.914467 0.063111
O O9 0.500000 0.250000 0.311768
O O10 0.404964 0.250000 0.392090
O O11 0.500000 0.040156 0.351633
O O12 0.606488 0.010139 0.360206
O O13 0.500000 0.250000 0.777676
O O14 0.197838 0.552163 0.125000
O O15 0.158672 0.500000 0.000000
#
# Coordination Sequence:
#
# PCOD8320536 Si02
#       6
#    32  32  16  32  16  32
#     4  10  16  22  38  69 108 148 178 201 232 281
#     4   9  16  29  50  74 103 133 159 193 243 307
#     4   9  14  20  34  62 107 147 170 192 231 287
#     4   9  17  30  49  71 100 137 171 204 245 294
#     4   9  14  24  42  70 106 139 163 184 236 311
#     4  10  21  38  56  73  92 120 169 216 257 296
#
# _framework density 17.290032
#
# number of rings (size 3 to 8) (size 9 to 14) (size 15 to 20)
#    0.000    2.600    3.000    0.600    0.000    2.400 
#    3.600    1.000    0.000    0.000    0.000    0.000 
#    0.000    8.800    0.000    0.000    0.000    0.000 
#
# Total GULP energy -991583.509913 kJ/mol
# GULP energy per Si atom -12394.793874 kJ/mol
# Density = 1.725068 g / cm^3
# Si number density = 17.290032 Si / 1000 Ang^3
#
#
#
# Elastic Constant Matrix: (Units=GPa)
#
#
# Indices 1 2 3 4 5 6 
#
# 1 92.5034 49.2670 41.9385 0.0000 0.0000 0.0000
# 2 49.2670 92.5044 41.9390 0.0000 0.0000 0.0000
# 3 41.9385 41.9390 73.3810 0.0000 0.0000 0.0000
# 4 0.0000 0.0000 0.0000 20.2022 0.0000 0.0000
# 5 0.0000 0.0000 0.0000 0.0000 20.2011 0.0000
# 6 0.0000 0.0000 0.0000 0.0000 0.0000 24.1940
#
#
#
# Elastic Compliance Matrix: (Units=1/GPa)
#
#
# Indices 1 2 3 4 5 6 
#
# 1 0.016893 -0.006236 -0.006091 0.000000 0.000000 0.000000
# 2 -0.006236 0.016893 -0.006091 0.000000 0.000000 0.000000
# 3 -0.006091 -0.006091 0.020590 0.000000 0.000000 0.000000
# 4 0.000000 0.000000 0.000000 0.049500 0.000000 0.000000
# 5 0.000000 0.000000 0.000000 0.000000 0.049502 0.000000
# 6 0.000000 0.000000 0.000000 0.000000 0.000000 0.041333
#
#
# Mechanical properties :
#
#
# Convention : Reuss Voigt Hill
#
# Bulk Modulus (GPa) = 57.01023 58.29756 57.65389
# Shear Modulus (GPa) = 21.06231 21.26908 21.16570
#
# Velocity S-wave (km/s) = 3.49402 3.51113 3.50259
# Velocity P-wave (km/s) = 7.02297 7.08717 7.05514
#
# Compressibility (1/GPa) = 0.01754071
#
# Stress axis : x y z
#
# Youngs Moduli (GPa) = 59.19661 59.19696 48.56833
#
# Poissons Ratio (x) = 0.36913 0.29582
# Poissons Ratio (y) = 0.36913 0.29582
# Poissons Ratio (z) = 0.36055 0.36056
#
# Static dielectric constant tensor:
#      x y z
#    x 3.027130 0.000000 0.000000 
#    y 0.000000 3.027120 0.000000 
#    z 0.000000 0.000000 3.232820 
# 
# 
# High freq. dielectric constant tensor:
#      x y z
#    x 1.638550 0.000000 0.000000 
#    y 0.000000 1.638550 0.000000 
#    z 0.000000 0.000000 1.670000 
# 
# From -- ./inp_files/8657.got.cif
#   From: 2010.03.12/outbox.cif.g09.slc.cpg/sg141_5_cif.got.tgz:8657.got - 2010.04.03 13:18:35.
