data_PCOD8320982
_publ_section_title
;
Structure prediction by ZEFSAII (Michael W. Deem and Ramdas Pophale) SiO2 
 PCOD8320982
Probable space group: I 41/A C D
;
_chemical_formula_sum "Si O2"
_cell_formula_units_Z 240
_cell_length_a 19.654818
_cell_length_b 19.654818
_cell_length_c 30.040486
_cell_angle_alpha 90.000000
_cell_angle_beta 90.000000
_cell_angle_gamma 90.000000
_cell_volume 11604.996341
_symmetry_space_group_name_H-M "I 41/A C D"
_symmetry_group_IT_number 142
_space_group.IT_coordinate_system_code '2'
_symmetry_cell_setting 'tetragonal'
loop_
_space_group_symop_operation_xyz
x,y,z
1/4-y,3/4+x,1/4+z
-x,1/2-y,z
1/4+y,1/4-x,3/4+z
x,-y,1/2-z
1/2-x,y,-z
3/4+y,1/4+x,1/4-z
1/4-y,1/4-x,1/4-z
-x,-y,-z
3/4+y,1/4-x,3/4-z
x,1/2+y,-z
3/4-y,3/4+x,1/4-z
-x,y,1/2+z
1/2+x,-y,z
1/4-y,3/4-x,3/4+z
3/4+y,3/4+x,3/4+z
1/2+x,1/2+y,1/2+z
3/4-y,1/4+x,3/4+z
1/2-x,-y,1/2+z
3/4+y,3/4-x,1/4+z
1/2+x,1/2-y,-z
-x,1/2+y,1/2-z
1/4+y,3/4+x,3/4-z
3/4-y,3/4-x,3/4-z
1/2-x,1/2-y,1/2-z
1/4+y,3/4-x,1/4-z
1/2+x,y,1/2-z
1/4-y,1/4+x,3/4-z
1/2-x,1/2+y,z
x,1/2-y,1/2+z
3/4-y,1/4-x,1/4+z
1/4+y,1/4+x,1/4+z
loop_
_atom_site_type_symbol
_atom_site_label
_atom_site_fract_x
_atom_site_fract_y
_atom_site_fract_z
Si Si1 0.784988 0.595257 0.334149
Si Si2 0.961074 0.888205 0.273624
Si Si3 0.354776 0.786400 0.768944
Si Si4 0.000000 0.750000 0.003784
Si Si5 0.351814 0.444625 0.711935
Si Si6 0.177075 0.640723 0.986449
Si Si7 0.506377 0.524794 0.570314
Si Si8 0.203027 0.646219 0.393430
O O1 0.791266 0.541266 0.375000
O O2 0.722615 0.583556 0.299796
O O3 0.858417 0.589998 0.311121
O O4 0.774928 0.673726 0.348786
O O5 0.992950 0.813939 0.278431
O O6 0.906433 0.891541 0.232574
O O7 0.924971 0.902341 0.319731
O O8 0.027174 0.935376 0.265289
O O9 0.429554 0.756416 0.781636
O O10 0.363458 0.868560 0.770212
O O11 0.327726 0.760286 0.720790
O O12 0.302033 0.760565 0.805382
O O13 0.341167 0.500000 0.750000
O O14 0.384111 0.473944 0.666378
O O15 0.250000 0.610390 0.000000
O O16 0.446623 0.546392 0.602417
O O17 0.175439 0.574562 0.375000
#
# Coordination Sequence:
#
# PCOD8320982 Si02
#       8
#    32  32  32  16  32  32  32  32
#     4  11  22  35  56  84 117 149 186 237 292 350
#     4  10  21  38  59  83 114 150 187 240 294 345
#     4   9  20  35  59  84 115 157 193 237 288 346
#     4  10  18  36  61  87 112 150 202 232 280 355
#     4  10  22  39  59  83 113 150 193 240 291 346
#     4  10  20  35  56  82 110 147 193 235 281 339
#     4  10  21  39  56  83 120 154 191 238 296 348
#     4  11  22  36  58  84 112 146 189 238 291 347
#
# _framework density 20.680747
#
# number of rings (size 3 to 8) (size 9 to 14) (size 15 to 20)
#    0.000    1.867    0.000    4.400    0.000    7.467 
#    0.000    6.333    0.000    0.800    0.000    0.000 
#    0.000    0.000    0.000    0.000    0.000    0.000 
#
# Total GULP energy -1486873.320350 kJ/mol
# GULP energy per Si atom -12390.611003 kJ/mol
# Density = 2.063368 g / cm^3
# Si number density = 20.680747 Si / 1000 Ang^3
#
#
#
# Elastic Constant Matrix: (Units=GPa)
#
#
# Indices 1 2 3 4 5 6 
#
# 1 116.9656 32.7853 36.2968 0.0000 0.0000 0.0000
# 2 32.7853 116.9678 36.2968 0.0000 0.0000 0.0000
# 3 36.2968 36.2968 77.5587 0.0000 0.0000 0.0000
# 4 0.0000 0.0000 0.0000 22.3906 0.0000 0.0000
# 5 0.0000 0.0000 0.0000 0.0000 22.3896 0.0000
# 6 0.0000 0.0000 0.0000 0.0000 0.0000 30.3259
#
#
#
# Elastic Compliance Matrix: (Units=1/GPa)
#
#
# Indices 1 2 3 4 5 6 
#
# 1 0.010258 -0.001621 -0.004042 0.000000 0.000000 0.000000
# 2 -0.001621 0.010258 -0.004042 0.000000 0.000000 0.000000
# 3 -0.004042 -0.004042 0.016677 0.000000 0.000000 0.000000
# 4 0.000000 0.000000 0.000000 0.044662 0.000000 0.000000
# 5 0.000000 0.000000 0.000000 0.000000 0.044664 0.000000
# 6 0.000000 0.000000 0.000000 0.000000 0.000000 0.032975
#
#
# Mechanical properties :
#
#
# Convention : Reuss Voigt Hill
#
# Bulk Modulus (GPa) = 56.23455 58.02778 57.13116
# Shear Modulus (GPa) = 27.05168 28.76209 27.90689
#
# Velocity S-wave (km/s) = 3.62064 3.73334 3.67742
# Velocity P-wave (km/s) = 6.68801 6.83400 6.76140
#
# Compressibility (1/GPa) = 0.01778266
#
# Stress axis : x y z
#
# Youngs Moduli (GPa) = 97.48256 97.48471 59.96346
#
# Poissons Ratio (x) = 0.15802 0.24238
# Poissons Ratio (y) = 0.15802 0.24238
# Poissons Ratio (z) = 0.39404 0.39404
#
# Static dielectric constant tensor:
#      x y z
#    x 3.970540 0.000000 0.000000 
#    y 0.000000 3.970540 0.000000 
#    z 0.000000 0.000000 3.449540 
# 
# 
# High freq. dielectric constant tensor:
#      x y z
#    x 1.823030 0.000000 0.000000 
#    y 0.000000 1.823030 0.000000 
#    z 0.000000 0.000000 1.772600 
# 
# From -- ./inp_files/11666.got.cif
#   From: 2010.03.12/outbox.cif.g09.slc.cpg/sg142_6_cif.got.tgz:11666.got - 2010.04.03 13:27:16.
