data_PCOD8320631
_publ_section_title
;
Structure prediction by ZEFSAII (Michael W. Deem and Ramdas Pophale) SiO2 
 PCOD8320631
Probable space group: I 41/A M D
;
_chemical_formula_sum "Si O2"
_cell_formula_units_Z 96
_cell_length_a 14.255229
_cell_length_b 14.255229
_cell_length_c 17.021113
_cell_angle_alpha 90.000000
_cell_angle_beta 90.000000
_cell_angle_gamma 90.000000
_cell_volume 3458.886821
_symmetry_space_group_name_H-M "I 41/A M D"
_symmetry_group_IT_number 141
_space_group.IT_coordinate_system_code '2'
_symmetry_cell_setting 'tetragonal'
loop_
_space_group_symop_operation_xyz
x,y,z
1/4-y,3/4+x,1/4+z
-x,1/2-y,z
1/4+y,1/4-x,3/4+z
x,-y,-z
-x,1/2+y,-z
1/4+y,3/4+x,1/4-z
1/4-y,1/4-x,3/4-z
-x,-y,-z
3/4+y,1/4-x,3/4-z
x,1/2+y,-z
3/4-y,3/4+x,1/4-z
-x,y,z
x,1/2-y,z
3/4-y,1/4-x,3/4+z
3/4+y,3/4+x,1/4+z
1/2+x,1/2+y,1/2+z
3/4-y,1/4+x,3/4+z
1/2-x,-y,1/2+z
3/4+y,3/4-x,1/4+z
1/2+x,1/2-y,1/2-z
1/2-x,y,1/2-z
3/4+y,1/4+x,3/4-z
3/4-y,3/4-x,1/4-z
1/2-x,1/2-y,1/2-z
1/4+y,3/4-x,1/4-z
1/2+x,y,1/2-z
1/4-y,1/4+x,3/4-z
1/2-x,1/2+y,1/2+z
1/2+x,-y,1/2+z
1/4-y,3/4-x,1/4+z
1/4+y,1/4+x,3/4+z
loop_
_atom_site_type_symbol
_atom_site_label
_atom_site_fract_x
_atom_site_fract_y
_atom_site_fract_z
Si Si1 0.898606 0.984892 0.344362
Si Si2 0.389556 0.139988 0.983997
Si Si3 0.648179 0.356535 0.712518
O O1 0.848959 0.921151 0.411212
O O2 0.916598 0.920405 0.267606
O O3 0.000000 0.013926 0.377695
O O4 0.849714 0.082590 0.311079
O O5 0.500000 0.126175 0.997207
O O6 0.365769 0.250000 0.969995
O O7 0.647734 0.397734 0.625000
O O8 0.610616 0.250000 0.712256
O O9 0.750000 0.364416 0.750000
#
# Coordination Sequence:
#
# PCOD8320631 Si02
#       3
#    32  32  32
#     4  10  19  33  55  84 121 163 204 252 319 391
#     4   9  18  33  56  90 128 162 204 262 324 389
#     4  11  23  37  55  85 127 171 213 259 318 391
#
# _framework density 27.754593
#
# number of rings (size 3 to 8) (size 9 to 14) (size 15 to 20)
#    0.000    2.000    0.000    4.000    0.000    9.000 
#    0.000    0.000    0.000    1.000    0.000   28.000 
#    0.000    0.000    0.000    0.000    0.000    0.000 
#
# Total GULP energy -594724.281501 kJ/mol
# GULP energy per Si atom -12390.089198 kJ/mol
# Density = 2.769142 g / cm^3
# Si number density = 27.754593 Si / 1000 Ang^3
#
#
#
# Elastic Constant Matrix: (Units=GPa)
#
#
# Indices 1 2 3 4 5 6 
#
# 1 155.3498 18.6747 64.2432 0.0000 0.0000 0.0000
# 2 18.6747 155.3499 64.2432 0.0000 0.0000 0.0000
# 3 64.2432 64.2432 244.0476 0.0000 0.0000 0.0000
# 4 0.0000 0.0000 0.0000 39.7340 0.0000 0.0000
# 5 0.0000 0.0000 0.0000 0.0000 39.7340 0.0000
# 6 0.0000 0.0000 0.0000 0.0000 0.0000 28.8905
#
#
#
# Elastic Compliance Matrix: (Units=1/GPa)
#
#
# Indices 1 2 3 4 5 6 
#
# 1 0.007225 -0.000092 -0.001878 0.000000 0.000000 0.000000
# 2 -0.000092 0.007225 -0.001878 0.000000 0.000000 0.000000
# 3 -0.001878 -0.001878 0.005086 0.000000 0.000000 0.000000
# 4 0.000000 0.000000 0.000000 0.025167 0.000000 0.000000
# 5 0.000000 0.000000 0.000000 0.000000 0.025167 0.000000
# 6 0.000000 0.000000 0.000000 0.000000 0.000000 0.034614
#
#
# Mechanical properties :
#
#
# Convention : Reuss Voigt Hill
#
# Bulk Modulus (GPa) = 84.45305 94.34105 89.39705
# Shear Modulus (GPa) = 43.05711 48.84410 45.95061
#
# Velocity S-wave (km/s) = 3.94299 4.19962 4.07333
# Velocity P-wave (km/s) = 7.15710 7.58819 7.37580
#
# Compressibility (1/GPa) = 0.01184090
#
# Stress axis : x y z
#
# Youngs Moduli (GPa) = 138.41598 138.41599 196.61531
#
# Poissons Ratio (x) = 0.01274 0.36916
# Poissons Ratio (y) = 0.01274 0.36916
# Poissons Ratio (z) = 0.25989 0.25989
#
# Static dielectric constant tensor:
#      x y z
#    x 5.082390 0.000000 0.000000 
#    y 0.000000 5.082390 0.000000 
#    z 0.000000 0.000000 5.321620 
# 
# 
# High freq. dielectric constant tensor:
#      x y z
#    x 2.126520 0.000000 0.000000 
#    y 0.000000 2.126520 0.000000 
#    z 0.000000 0.000000 2.145780 
# 
# From -- ./inp_files/7644.got.cif
#   From: 2010.03.12/outbox.cif.g09.slc.cpg/sg141_4_cif.got.tgz:7644.got - 2010.04.03 13:18:35.
