data_PCOD8320904
_publ_section_title
;
Structure prediction by ZEFSAII (Michael W. Deem and Ramdas Pophale) SiO2 
 PCOD8320904
Probable space group: I 41/A M D
;
_chemical_formula_sum "Si O2"
_cell_formula_units_Z 192
_cell_length_a 18.590985
_cell_length_b 18.590985
_cell_length_c 30.647796
_cell_angle_alpha 90.000000
_cell_angle_beta 90.000000
_cell_angle_gamma 90.000000
_cell_volume 10592.636011
_symmetry_space_group_name_H-M "I 41/A M D"
_symmetry_group_IT_number 141
_space_group.IT_coordinate_system_code '2'
_symmetry_cell_setting 'tetragonal'
loop_
_space_group_symop_operation_xyz
x,y,z
1/4-y,3/4+x,1/4+z
-x,1/2-y,z
1/4+y,1/4-x,3/4+z
x,-y,-z
-x,1/2+y,-z
1/4+y,3/4+x,1/4-z
1/4-y,1/4-x,3/4-z
-x,-y,-z
3/4+y,1/4-x,3/4-z
x,1/2+y,-z
3/4-y,3/4+x,1/4-z
-x,y,z
x,1/2-y,z
3/4-y,1/4-x,3/4+z
3/4+y,3/4+x,1/4+z
1/2+x,1/2+y,1/2+z
3/4-y,1/4+x,3/4+z
1/2-x,-y,1/2+z
3/4+y,3/4-x,1/4+z
1/2+x,1/2-y,1/2-z
1/2-x,y,1/2-z
3/4+y,1/4+x,3/4-z
3/4-y,3/4-x,1/4-z
1/2-x,1/2-y,1/2-z
1/4+y,3/4-x,1/4-z
1/2+x,y,1/2-z
1/4-y,1/4+x,3/4-z
1/2-x,1/2+y,1/2+z
1/2+x,-y,1/2+z
1/4-y,3/4-x,1/4+z
1/4+y,1/4+x,3/4+z
loop_
_atom_site_type_symbol
_atom_site_label
_atom_site_fract_x
_atom_site_fract_y
_atom_site_fract_z
Si Si1 0.418512 0.665650 0.825017
Si Si2 0.083735 0.432819 0.745361
Si Si3 0.669539 0.914180 0.996610
Si Si4 0.328287 0.830650 0.407806
Si Si5 0.919447 0.834615 0.918101
Si Si6 0.660329 0.166863 0.917736
O O1 0.500000 0.638706 0.815076
O O2 0.413784 0.750000 0.816409
O O3 0.398086 0.648086 0.875000
O O4 0.360589 0.627327 0.794430
O O5 0.135079 0.500491 0.739601
O O6 0.094406 0.395456 0.792575
O O7 0.109543 0.376464 0.709352
O O8 0.000000 0.456377 0.740012
O O9 0.636689 0.880431 0.040832
O O10 0.669491 0.000000 0.000000
O O11 0.364185 0.885815 0.375000
O O12 0.348487 0.750000 0.392930
O O13 0.243507 0.842912 0.406723
O O14 0.918779 0.750000 0.913358
O O15 0.886926 0.866854 0.873717
O O16 0.000000 0.864290 0.925169
O O17 0.641548 0.250000 0.927862
#
# Coordination Sequence:
#
# PCOD8320904 Si02
#       6
#    32  32  32  32  32  32
#     4   9  19  37  59  80 104 137 174 212 260 314
#     4   9  19  36  54  73 104 141 171 207 263 320
#     4  11  22  34  52  79 108 139 176 215 253 300
#     4   9  18  32  50  71  97 132 169 207 254 309
#     4   9  18  33  55  80 100 126 172 222 260 301
#     4   9  19  36  52  69 102 141 170 203 258 320
#
# _framework density 18.125800000000002
#
# number of rings (size 3 to 8) (size 9 to 14) (size 15 to 20)
#    0.000    2.667    0.000    3.000    0.000    5.833 
#    0.000    5.833    0.000    3.500    0.000    0.000 
#    0.000    0.000    0.000    0.000    0.000    0.000 
#
# Total GULP energy -1190326.596817 kJ/mol
# GULP energy per Si atom -12399.235384 kJ/mol
# Density = 1.808455 g / cm^3
# Si number density = 18.125800 Si / 1000 Ang^3
#
#
#
# Elastic Constant Matrix: (Units=GPa)
#
#
# Indices 1 2 3 4 5 6 
#
# 1 65.5907 42.3152 59.1709 0.0000 0.0000 0.0000
# 2 42.3152 65.5907 59.1709 0.0000 0.0000 0.0000
# 3 59.1709 59.1709 140.8235 0.0000 0.0000 0.0000
# 4 0.0000 0.0000 0.0000 30.0250 0.0000 0.0000
# 5 0.0000 0.0000 0.0000 0.0000 30.0250 0.0000
# 6 0.0000 0.0000 0.0000 0.0000 0.0000 23.6731
#
#
#
# Elastic Compliance Matrix: (Units=1/GPa)
#
#
# Indices 1 2 3 4 5 6 
#
# 1 0.030076 -0.012888 -0.007222 0.000000 0.000000 0.000000
# 2 -0.012888 0.030076 -0.007222 0.000000 0.000000 0.000000
# 3 -0.007222 -0.007222 0.013170 0.000000 0.000000 0.000000
# 4 0.000000 0.000000 0.000000 0.033306 0.000000 0.000000
# 5 0.000000 0.000000 0.000000 0.000000 0.033306 0.000000
# 6 0.000000 0.000000 0.000000 0.000000 0.000000 0.042242
#
#
# Mechanical properties :
#
#
# Convention : Reuss Voigt Hill
#
# Bulk Modulus (GPa) = 53.59672 65.92430 59.76051
# Shear Modulus (GPa) = 20.57129 24.16780 22.36955
#
# Velocity S-wave (km/s) = 3.37251 3.65545 3.51683
# Velocity P-wave (km/s) = 6.69317 7.36653 7.03791
#
# Compressibility (1/GPa) = 0.01865786
#
# Stress axis : x y z
#
# Youngs Moduli (GPa) = 33.24954 33.24954 75.93004
#
# Poissons Ratio (x) = 0.42852 0.54836
# Poissons Ratio (y) = 0.42852 0.54836
# Poissons Ratio (z) = 0.24012 0.24012
#
# Static dielectric constant tensor:
#      x y z
#    x 3.238520 0.000000 0.000000 
#    y 0.000000 3.238520 0.000000 
#    z 0.000000 0.000000 3.547470 
# 
# 
# High freq. dielectric constant tensor:
#      x y z
#    x 1.690440 0.000000 0.000000 
#    y 0.000000 1.690440 0.000000 
#    z 0.000000 0.000000 1.715810 
# 
# From -- ./inp_files/11711.got.cif
#   From: 2010.03.12/outbox.cif.g09.slc.cpg/sg141_6_cif.got.tgz:11711.got - 2010.04.03 13:18:35.
