data_PCOD8320957
_publ_section_title
;
Structure prediction by ZEFSAII (Michael W. Deem and Ramdas Pophale) SiO2 
 PCOD8320957
Probable space group: I 41/A C D
;
_chemical_formula_sum "Si O2"
_cell_formula_units_Z 160
_cell_length_a 23.839738
_cell_length_b 23.839738
_cell_length_c 15.690835
_cell_angle_alpha 90.000000
_cell_angle_beta 90.000000
_cell_angle_gamma 90.000000
_cell_volume 8917.621021
_symmetry_space_group_name_H-M "I 41/A C D"
_symmetry_group_IT_number 142
_space_group.IT_coordinate_system_code '2'
_symmetry_cell_setting 'tetragonal'
loop_
_space_group_symop_operation_xyz
x,y,z
1/4-y,3/4+x,1/4+z
-x,1/2-y,z
1/4+y,1/4-x,3/4+z
x,-y,1/2-z
1/2-x,y,-z
3/4+y,1/4+x,1/4-z
1/4-y,1/4-x,1/4-z
-x,-y,-z
3/4+y,1/4-x,3/4-z
x,1/2+y,-z
3/4-y,3/4+x,1/4-z
-x,y,1/2+z
1/2+x,-y,z
1/4-y,3/4-x,3/4+z
3/4+y,3/4+x,3/4+z
1/2+x,1/2+y,1/2+z
3/4-y,1/4+x,3/4+z
1/2-x,-y,1/2+z
3/4+y,3/4-x,1/4+z
1/2+x,1/2-y,-z
-x,1/2+y,1/2-z
1/4+y,3/4+x,3/4-z
3/4-y,3/4-x,3/4-z
1/2-x,1/2-y,1/2-z
1/4+y,3/4-x,1/4-z
1/2+x,y,1/2-z
1/4-y,1/4+x,3/4-z
1/2-x,1/2+y,z
x,1/2-y,1/2+z
3/4-y,1/4-x,1/4+z
1/4+y,1/4+x,1/4+z
loop_
_atom_site_type_symbol
_atom_site_label
_atom_site_fract_x
_atom_site_fract_y
_atom_site_fract_z
Si Si1 0.700028 0.469151 0.162344
Si Si2 0.739271 0.660599 0.145630
Si Si3 0.195535 0.244911 0.948564
Si Si4 0.822361 0.345117 0.809940
Si Si5 0.627636 0.326200 0.451768
O O1 0.684435 0.500000 0.250000
O O2 0.758148 0.491853 0.125000
O O3 0.649920 0.481764 0.095346
O O4 0.708082 0.402976 0.168154
O O5 0.785332 0.703221 0.109908
O O6 0.715630 0.683163 0.235886
O O7 0.686724 0.650619 0.082658
O O8 0.173050 0.194443 0.891587
O O9 0.250000 0.223344 0.000000
O O10 0.143319 0.264355 0.010280
O O11 0.885602 0.356264 0.779053
O O12 0.580604 0.330604 0.375000
#
# Coordination Sequence:
#
# PCOD8320957 Si02
#       5
#    32  32  32  32  32
#     4  12  19  31  51  79 115 148 184 227 284 360
#     4  10  17  33  54  79 106 143 187 239 277 340
#     4  10  20  34  51  79 120 146 186 240 290 349
#     4  11  20  31  53  81 109 145 191 235 292 341
#     4   9  17  32  57  80 102 139 189 238 282 325
#
# _framework density 17.942005000000002
#
# number of rings (size 3 to 8) (size 9 to 14) (size 15 to 20)
#    0.000    1.600    6.000    1.800    0.000    0.800 
#    0.000    0.000    0.000    0.600    0.000    4.200 
#    0.000    0.000    0.000    0.000    0.000    0.000 
#
# Total GULP energy -991441.100134 kJ/mol
# GULP energy per Si atom -12393.013752 kJ/mol
# Density = 1.790117 g / cm^3
# Si number density = 17.942005 Si / 1000 Ang^3
#
#
#
# Elastic Constant Matrix: (Units=GPa)
#
#
# Indices 1 2 3 4 5 6 
#
# 1 75.8648 31.3065 47.7463 0.0000 0.0000 0.0000
# 2 31.3065 75.8660 47.7457 0.0000 0.0000 0.0000
# 3 47.7463 47.7457 96.9595 0.0000 0.0000 0.0000
# 4 0.0000 0.0000 0.0000 28.3538 0.0000 0.0000
# 5 0.0000 0.0000 0.0000 0.0000 28.3547 0.0000
# 6 0.0000 0.0000 0.0000 0.0000 0.0000 16.3664
#
#
#
# Elastic Compliance Matrix: (Units=1/GPa)
#
#
# Indices 1 2 3 4 5 6 
#
# 1 0.019534 -0.002908 -0.008187 0.000000 0.000000 0.000000
# 2 -0.002908 0.019533 -0.008187 0.000000 0.000000 0.000000
# 3 -0.008187 -0.008187 0.018377 0.000000 0.000000 0.000000
# 4 0.000000 0.000000 0.000000 0.035269 0.000000 0.000000
# 5 0.000000 0.000000 0.000000 0.000000 0.035268 0.000000
# 6 0.000000 0.000000 0.000000 0.000000 0.000000 0.061101
#
#
# Mechanical properties :
#
#
# Convention : Reuss Voigt Hill
#
# Bulk Modulus (GPa) = 52.96646 55.80970 54.38808
# Shear Modulus (GPa) = 21.37311 22.74112 22.05711
#
# Velocity S-wave (km/s) = 3.45517 3.56403 3.51002
# Velocity P-wave (km/s) = 6.74556 6.93610 6.84150
#
# Compressibility (1/GPa) = 0.01887987
#
# Stress axis : x y z
#
# Youngs Moduli (GPa) = 51.19233 51.19411 54.41704
#
# Poissons Ratio (x) = 0.14889 0.44552
# Poissons Ratio (y) = 0.14888 0.44550
# Poissons Ratio (z) = 0.41912 0.41911
#
# Static dielectric constant tensor:
#      x y z
#    x 3.106980 0.000000 0.000000 
#    y 0.000000 3.106980 0.000000 
#    z 0.000000 0.000000 3.547800 
# 
# 
# High freq. dielectric constant tensor:
#      x y z
#    x 1.666150 0.000000 0.000000 
#    y 0.000000 1.666150 0.000000 
#    z 0.000000 0.000000 1.695060 
# 
# From -- ./inp_files/5398.got.cif
#   From: 2010.03.12/outbox.cif.g09.slc.cpg/sg142_3_cif.got.tgz:5398.got - 2010.04.03 13:27:16.
