data_PCOD8320569
_publ_section_title
;
Structure prediction by ZEFSAII (Michael W. Deem and Ramdas Pophale) SiO2 
 PCOD8320569
Probable space group: I 41/A M D
;
_chemical_formula_sum "Si O2"
_cell_formula_units_Z 192
_cell_length_a 21.961950
_cell_length_b 21.961950
_cell_length_c 25.343609
_cell_angle_alpha 90.000000
_cell_angle_beta 90.000000
_cell_angle_gamma 90.000000
_cell_volume 12223.913178
_symmetry_space_group_name_H-M "I 41/A M D"
_symmetry_group_IT_number 141
_space_group.IT_coordinate_system_code '2'
_symmetry_cell_setting 'tetragonal'
loop_
_space_group_symop_operation_xyz
x,y,z
1/4-y,3/4+x,1/4+z
-x,1/2-y,z
1/4+y,1/4-x,3/4+z
x,-y,-z
-x,1/2+y,-z
1/4+y,3/4+x,1/4-z
1/4-y,1/4-x,3/4-z
-x,-y,-z
3/4+y,1/4-x,3/4-z
x,1/2+y,-z
3/4-y,3/4+x,1/4-z
-x,y,z
x,1/2-y,z
3/4-y,1/4-x,3/4+z
3/4+y,3/4+x,1/4+z
1/2+x,1/2+y,1/2+z
3/4-y,1/4+x,3/4+z
1/2-x,-y,1/2+z
3/4+y,3/4-x,1/4+z
1/2+x,1/2-y,1/2-z
1/2-x,y,1/2-z
3/4+y,1/4+x,3/4-z
3/4-y,3/4-x,1/4-z
1/2-x,1/2-y,1/2-z
1/4+y,3/4-x,1/4-z
1/2+x,y,1/2-z
1/4-y,1/4+x,3/4-z
1/2-x,1/2+y,1/2+z
1/2+x,-y,1/2+z
1/4-y,3/4-x,1/4+z
1/4+y,1/4+x,3/4+z
loop_
_atom_site_type_symbol
_atom_site_label
_atom_site_fract_x
_atom_site_fract_y
_atom_site_fract_z
Si Si1 0.871892 0.923888 0.886744
Si Si2 0.103192 0.899339 0.204238
Si Si3 0.256459 0.956235 0.926852
Si Si4 0.932274 0.819635 0.300073
Si Si5 0.802919 0.817911 0.154381
Si Si6 0.727672 0.412915 0.965182
O O1 0.808510 0.923794 0.918879
O O2 0.908385 0.864564 0.904920
O O3 0.861224 0.923245 0.822786
O O4 0.910556 0.984078 0.897424
O O5 0.066503 0.861975 0.248096
O O6 0.166174 0.862775 0.196272
O O7 0.066831 0.907207 0.149500
O O8 0.115452 0.967845 0.223480
O O9 0.299110 0.950891 0.875000
O O10 0.243609 0.027679 0.936935
O O11 0.295026 0.927832 0.975513
O O12 0.916687 0.750000 0.284086
O O13 0.000000 0.823400 0.324693
O O14 0.802322 0.750000 0.177712
#
# Coordination Sequence:
#
# PCOD8320569 Si02
#       6
#    32  32  32  32  32  32
#     4  10  18  30  46  65  92 121 154 193 231 275
#     4  10  18  31  45  61  89 120 155 200 243 270
#     4   9  15  26  45  72  97 118 137 177 237 293
#     4  11  23  35  45  60  88 129 171 199 224 269
#     4  10  19  29  44  65  86 118 162 204 238 267
#     4   9  16  27  46  70  94 116 144 183 234 284
#
# _framework density 15.706918
#
# number of rings (size 3 to 8) (size 9 to 14) (size 15 to 20)
#    0.000    2.167    3.333    1.500    0.000    0.667 
#    0.000    1.667    0.000    4.000    0.000    9.333 
#    0.000    0.000    0.000    1.833    0.000    0.000 
#
# Total GULP energy -1189527.041754 kJ/mol
# GULP energy per Si atom -12390.906685 kJ/mol
# Density = 1.567117 g / cm^3
# Si number density = 15.706918 Si / 1000 Ang^3
#
#
#
# Elastic Constant Matrix: (Units=GPa)
#
#
# Indices 1 2 3 4 5 6 
#
# 1 60.4353 24.1601 29.3268 0.0000 0.0000 0.0000
# 2 24.1601 60.4356 29.3269 0.0000 0.0000 0.0000
# 3 29.3268 29.3269 91.3578 0.0000 0.0000 0.0000
# 4 0.0000 0.0000 0.0000 16.9479 0.0000 0.0000
# 5 0.0000 0.0000 0.0000 0.0000 16.9478 0.0000
# 6 0.0000 0.0000 0.0000 0.0000 0.0000 17.6170
#
#
#
# Elastic Compliance Matrix: (Units=1/GPa)
#
#
# Indices 1 2 3 4 5 6 
#
# 1 0.021386 -0.006181 -0.004881 0.000000 0.000000 0.000000
# 2 -0.006181 0.021386 -0.004881 0.000000 0.000000 0.000000
# 3 -0.004881 -0.004881 0.014080 0.000000 0.000000 0.000000
# 4 0.000000 0.000000 0.000000 0.059005 0.000000 0.000000
# 5 0.000000 0.000000 0.000000 0.000000 0.059005 0.000000
# 6 0.000000 0.000000 0.000000 0.000000 0.000000 0.056763
#
#
# Mechanical properties :
#
#
# Convention : Reuss Voigt Hill
#
# Bulk Modulus (GPa) = 40.05458 41.98404 41.01931
# Shear Modulus (GPa) = 18.39370 18.93019 18.66195
#
# Velocity S-wave (km/s) = 3.42578 3.47539 3.45067
# Velocity P-wave (km/s) = 6.41908 6.54920 6.48447
#
# Compressibility (1/GPa) = 0.02496593
#
# Stress axis : x y z
#
# Youngs Moduli (GPa) = 46.75933 46.75953 71.02420
#
# Poissons Ratio (x) = 0.28902 0.34667
# Poissons Ratio (y) = 0.28901 0.34667
# Poissons Ratio (z) = 0.22823 0.22823
#
# Static dielectric constant tensor:
#      x y z
#    x 2.772980 0.000000 0.000000 
#    y 0.000000 2.772980 0.000000 
#    z 0.000000 0.000000 3.113160 
# 
# 
# High freq. dielectric constant tensor:
#      x y z
#    x 1.576020 0.000000 0.000000 
#    y 0.000000 1.576020 0.000000 
#    z 0.000000 0.000000 1.598500 
# 
# From -- ./inp_files/13053.got.cif
#   From: 2010.03.12/outbox.cif.g09.slc.cpg/sg141_7_cif.got.tgz:13053.got - 2010.04.03 13:18:35.
