data_PCOD8320408
_publ_section_title
;
Structure prediction by ZEFSAII (Michael W. Deem and Ramdas Pophale) SiO2 
 PCOD8320408
Probable space group: I 4/M C M
;
_chemical_formula_sum "Si O2"
_cell_formula_units_Z 176
_cell_length_a 18.155946
_cell_length_b 18.155946
_cell_length_c 26.927535
_cell_angle_alpha 90.000000
_cell_angle_beta 90.000000
_cell_angle_gamma 90.000000
_cell_volume 8876.348884
_symmetry_space_group_name_H-M "I 4/M C M"
_symmetry_group_IT_number 140
_symmetry_cell_setting 'tetragonal'
loop_
_space_group_symop_operation_xyz
x,y,z
-y,x,z
-x,-y,z
y,-x,z
x,-y,1/2-z
-x,y,1/2-z
y,x,1/2-z
-y,-x,1/2-z
-x,-y,-z
y,-x,-z
x,y,-z
-y,x,-z
-x,y,1/2+z
x,-y,1/2+z
-y,-x,1/2+z
y,x,1/2+z
1/2+x,1/2+y,1/2+z
1/2-y,1/2+x,1/2+z
1/2-x,1/2-y,1/2+z
1/2+y,1/2-x,1/2+z
1/2+x,1/2-y,-z
1/2-x,1/2+y,-z
1/2+y,1/2+x,-z
1/2-y,1/2-x,-z
1/2-x,1/2-y,1/2-z
1/2+y,1/2-x,1/2-z
1/2+x,1/2+y,1/2-z
1/2-y,1/2+x,1/2-z
1/2-x,1/2+y,z
1/2+x,1/2-y,z
1/2-y,1/2-x,z
1/2+y,1/2+x,z
loop_
_atom_site_type_symbol
_atom_site_label
_atom_site_fract_x
_atom_site_fract_y
_atom_site_fract_z
Si Si1 0.644623 0.855378 0.442637
Si Si2 0.213786 0.499346 0.405070
Si Si3 0.345567 0.154434 0.058564
Si Si4 0.997861 0.221745 0.694517
Si Si5 0.618668 0.502414 0.941333
Si Si6 0.843860 0.846585 0.194322
Si Si7 0.246456 0.746456 0.379003
O O1 0.662654 0.837346 0.500000
O O2 0.559980 0.836387 0.431825
O O3 0.691145 0.808856 0.404287
O O4 0.177261 0.424063 0.420982
O O5 0.210825 0.505465 0.344902
O O6 0.300347 0.505156 0.418111
O O7 0.286467 0.213534 0.076005
O O8 0.346476 0.153525 0.000000
O O9 0.067721 0.169952 0.685360
O O10 0.000000 0.256481 0.750000
O O11 0.929651 0.167566 0.686165
O O12 0.571747 0.574732 0.925083
O O13 0.628490 0.502278 0.000000
O O14 0.821328 0.821328 0.250000
O O15 0.796334 0.803367 0.154745
#
# Coordination Sequence:
#
# PCOD8320408 Si02
#       7
#    16  32  16  32  32  32  16
#     4  12  27  44  67  95 130 174 223 275 332 397
#     4  12  25  45  65  94 130 171 218 276 331 391
#     4  12  27  44  67  95 130 174 223 275 332 397
#     4  10  22  40  63  95 131 171 214 261 323 394
#     4   9  20  38  61  89 124 168 211 254 318 398
#     4  10  21  40  65  95 131 171 216 267 326 391
#     4  12  22  40  64 102 128 164 212 278 336 384
#
# _framework density 19.827973
#
# number of rings (size 3 to 8) (size 9 to 14) (size 15 to 20)
#    0.000    1.273    3.636    2.727    5.091    0.727 
#    0.000    3.636    0.000    0.000    0.000    1.273 
#    0.000    0.000    0.000    0.000    0.000    0.000 
#
# Total GULP energy -1091181.914089 kJ/mol
# GULP energy per Si atom -12399.794478 kJ/mol
# Density = 1.978284 g / cm^3
# Si number density = 19.827973 Si / 1000 Ang^3
#
#
#
# Elastic Constant Matrix: (Units=GPa)
#
#
# Indices 1 2 3 4 5 6 
#
# 1 64.2713 59.3409 31.4101 0.0000 0.0000 0.0000
# 2 59.3409 64.2750 31.4121 0.0000 0.0000 0.0000
# 3 31.4101 31.4121 121.6408 0.0000 0.0000 0.0000
# 4 0.0000 0.0000 0.0000 23.4623 0.0000 0.0000
# 5 0.0000 0.0000 0.0000 0.0000 23.4621 0.0000
# 6 0.0000 0.0000 0.0000 0.0000 0.0000 30.6199
#
#
#
# Elastic Compliance Matrix: (Units=1/GPa)
#
#
# Indices 1 2 3 4 5 6 
#
# 1 0.106032 -0.096718 -0.002404 0.000000 0.000000 0.000000
# 2 -0.096718 0.106027 -0.002406 0.000000 0.000000 0.000000
# 3 -0.002404 -0.002406 0.009463 0.000000 0.000000 0.000000
# 4 0.000000 0.000000 0.000000 0.042622 0.000000 0.000000
# 5 0.000000 0.000000 0.000000 0.000000 0.042622 0.000000
# 6 0.000000 0.000000 0.000000 0.000000 0.000000 0.032658
#
#
# Mechanical properties :
#
#
# Convention : Reuss Voigt Hill
#
# Bulk Modulus (GPa) = 54.14770 54.94594 54.54682
# Shear Modulus (GPa) = 9.11356 24.04380 16.57868
#
# Velocity S-wave (km/s) = 2.14623 3.48605 2.89472
# Velocity P-wave (km/s) = 5.78876 6.63135 6.22433
#
# Compressibility (1/GPa) = 0.01846800
#
# Stress axis : x y z
#
# Youngs Moduli (GPa) = 9.43112 9.43158 105.67727
#
# Poissons Ratio (x) = 0.91220 0.25400
# Poissons Ratio (y) = 0.91216 0.25421
# Poissons Ratio (z) = 0.02267 0.02269
#
# Static dielectric constant tensor:
#      x y z
#    x 3.591840 0.000000 0.000000 
#    y 0.000000 3.591840 0.000000 
#    z 0.000000 0.000000 4.078860 
# 
# 
# High freq. dielectric constant tensor:
#      x y z
#    x 1.767100 0.000000 0.000000 
#    y 0.000000 1.767100 0.000000 
#    z 0.000000 0.000000 1.798870 
# 
# From -- ./inp_files/10755.got.cif
#   From: 2010.06.25/outbox.cif.g09.slc.cpg/sg140_6_cif.got.tgz:10755.got - 2010.06.28 10:53:23.
