data_PCOD8320007
_publ_section_title
;
Structure prediction by ZEFSAII (Michael W. Deem and Ramdas Pophale) SiO2 
 PCOD8320007
Probable space group: I 4/M M M
;
_chemical_formula_sum "Si O2"
_cell_formula_units_Z 128
_cell_length_a 30.167297
_cell_length_b 30.167297
_cell_length_c 10.015845
_cell_angle_alpha 90.000000
_cell_angle_beta 90.000000
_cell_angle_gamma 90.000000
_cell_volume 9115.078076
_symmetry_space_group_name_H-M "I 4/M M M"
_symmetry_group_IT_number 139
_symmetry_cell_setting 'tetragonal'
loop_
_space_group_symop_operation_xyz
x,y,z
-y,x,z
-x,-y,z
y,-x,z
x,-y,-z
-x,y,-z
y,x,-z
-y,-x,-z
-x,-y,-z
y,-x,-z
x,y,-z
-y,x,-z
-x,y,z
x,-y,z
-y,-x,z
y,x,z
1/2+x,1/2+y,1/2+z
1/2-y,1/2+x,1/2+z
1/2-x,1/2-y,1/2+z
1/2+y,1/2-x,1/2+z
1/2+x,1/2-y,1/2-z
1/2-x,1/2+y,1/2-z
1/2+y,1/2+x,1/2-z
1/2-y,1/2-x,1/2-z
1/2-x,1/2-y,1/2-z
1/2+y,1/2-x,1/2-z
1/2+x,1/2+y,1/2-z
1/2-y,1/2+x,1/2-z
1/2-x,1/2+y,1/2+z
1/2+x,1/2-y,1/2+z
1/2-y,1/2-x,1/2+z
1/2+y,1/2+x,1/2+z
loop_
_atom_site_type_symbol
_atom_site_label
_atom_site_fract_x
_atom_site_fract_y
_atom_site_fract_z
Si Si1 0.552696 0.717802 0.148442
Si Si2 0.110317 0.448200 0.654013
Si Si3 0.119470 0.049405 0.659053
Si Si4 0.789758 0.552682 0.352078
O O1 0.500000 0.721550 0.142420
O O2 0.565371 0.668708 0.201562
O O3 0.573194 0.754633 0.247514
O O4 0.572229 0.726017 0.000000
O O5 0.099449 0.437064 0.500000
O O6 0.103814 0.500000 0.681268
O O7 0.077507 0.422494 0.750000
O O8 0.160511 0.433442 0.688724
O O9 0.117128 0.048388 0.500000
O O10 0.083353 0.083353 0.719337
O O11 0.109402 0.000000 0.714803
O O12 0.778524 0.570913 0.500000
O O13 0.786410 0.500000 0.353582
#
# Coordination Sequence:
#
# PCOD8320007 Si02
#       4
#    32  32  32  32
#     4   8  13  21  34  52  71  91 119 155 191 223
#     4   9  18  30  41  55  76 101 128 155 181 212
#     4   8  13  20  30  47  73 103 132 160 187 216
#     4   8  14  25  39  53  70  92 118 150 187 222
#
# _framework density 14.042666000000001
#
# number of rings (size 3 to 8) (size 9 to 14) (size 15 to 20)
#    0.000    3.750    0.000    3.000    0.000    2.000 
#    0.000    5.000    0.000    0.750    0.000    0.000 
#    0.000    1.000    0.000   12.000    0.000   13.500 
#
# Total GULP energy -793024.250233 kJ/mol
# GULP energy per Si atom -12391.003910 kJ/mol
# Density = 1.401070 g / cm^3
# Si number density = 14.042666 Si / 1000 Ang^3
#
#
#
# Elastic Constant Matrix: (Units=GPa)
#
#
# Indices 1 2 3 4 5 6 
#
# 1 74.7273 47.0901 49.4458 0.0000 0.0000 0.0000
# 2 47.0901 74.7183 49.4451 0.0000 0.0000 0.0000
# 3 49.4458 49.4451 69.5210 0.0000 0.0000 0.0000
# 4 0.0000 0.0000 0.0000 12.8822 0.0000 0.0000
# 5 0.0000 0.0000 0.0000 0.0000 12.8820 0.0000
# 6 0.0000 0.0000 0.0000 0.0000 0.0000 0.5925
#
#
#
# Elastic Compliance Matrix: (Units=1/GPa)
#
#
# Indices 1 2 3 4 5 6 
#
# 1 0.027804 -0.008382 -0.013814 0.000000 0.000000 0.000000
# 2 -0.008382 0.027810 -0.013818 0.000000 0.000000 0.000000
# 3 -0.013814 -0.013818 0.034037 0.000000 0.000000 0.000000
# 4 0.000000 0.000000 0.000000 0.077627 0.000000 0.000000
# 5 0.000000 0.000000 0.000000 0.000000 0.077627 0.000000
# 6 0.000000 0.000000 0.000000 0.000000 0.000000 1.687884
#
#
# Mechanical properties :
#
#
# Convention : Reuss Voigt Hill
#
# Bulk Modulus (GPa) = 56.74130 56.76985 56.75558
# Shear Modulus (GPa) = 2.48671 10.13705 6.31188
#
# Velocity S-wave (km/s) = 1.33217 2.68969 2.12239
# Velocity P-wave (km/s) = 6.54678 7.08240 6.81985
#
# Compressibility (1/GPa) = 0.01762385
#
# Stress axis : x y z
#
# Youngs Moduli (GPa) = 35.96554 35.95820 29.37997
#
# Poissons Ratio (x) = 0.30139 0.40586
# Poissons Ratio (y) = 0.30146 0.40597
# Poissons Ratio (z) = 0.49683 0.49686
#
# Static dielectric constant tensor:
#      x y z
#    x 2.719000 0.000000 0.000000 
#    y 0.000000 2.718990 0.000000 
#    z 0.000000 0.000000 2.836180 
# 
# 
# High freq. dielectric constant tensor:
#      x y z
#    x 1.510270 0.000000 0.000000 
#    y 0.000000 1.510270 0.000000 
#    z 0.000000 0.000000 1.519660 
# 
# From -- ./inp_files/3421.got.cif
#   From: 2010.03.12/outbox.cif.g09.slc.cpg/sg139_2_cif.got.tgz:3421.got - 2010.04.08 09:46:31.
