data_PCOD8320010
_publ_section_title
;
Structure prediction by ZEFSAII (Michael W. Deem and Ramdas Pophale) SiO2 
 PCOD8320010
Probable space group: I 4/M M M
;
_chemical_formula_sum "Si O2"
_cell_formula_units_Z 144
_cell_length_a 19.838883
_cell_length_b 19.838883
_cell_length_c 25.279380
_cell_angle_alpha 90.000000
_cell_angle_beta 90.000000
_cell_angle_gamma 90.000000
_cell_volume 9949.490705
_symmetry_space_group_name_H-M "I 4/M M M"
_symmetry_group_IT_number 139
_symmetry_cell_setting 'tetragonal'
loop_
_space_group_symop_operation_xyz
x,y,z
-y,x,z
-x,-y,z
y,-x,z
x,-y,-z
-x,y,-z
y,x,-z
-y,-x,-z
-x,-y,-z
y,-x,-z
x,y,-z
-y,x,-z
-x,y,z
x,-y,z
-y,-x,z
y,x,z
1/2+x,1/2+y,1/2+z
1/2-y,1/2+x,1/2+z
1/2-x,1/2-y,1/2+z
1/2+y,1/2-x,1/2+z
1/2+x,1/2-y,1/2-z
1/2-x,1/2+y,1/2-z
1/2+y,1/2+x,1/2-z
1/2-y,1/2-x,1/2-z
1/2-x,1/2-y,1/2-z
1/2+y,1/2-x,1/2-z
1/2+x,1/2+y,1/2-z
1/2-y,1/2+x,1/2-z
1/2-x,1/2+y,1/2+z
1/2+x,1/2-y,1/2+z
1/2-y,1/2-x,1/2+z
1/2+y,1/2+x,1/2+z
loop_
_atom_site_type_symbol
_atom_site_label
_atom_site_fract_x
_atom_site_fract_y
_atom_site_fract_z
Si Si1 0.079264 0.333174 0.288446
Si Si2 0.575144 0.318739 0.088354
Si Si3 0.925348 0.818861 0.714094
Si Si4 0.080475 0.423985 0.500000
Si Si5 0.169809 0.580107 0.906958
O O1 0.115434 0.384567 0.250000
O O2 0.095269 0.256957 0.269746
O O3 0.107342 0.345454 0.348003
O O4 0.000000 0.347493 0.285971
O O5 0.500000 0.331655 0.065391
O O6 0.625794 0.374207 0.063998
O O7 0.572941 0.323950 0.151241
O O8 0.601997 0.244215 0.072938
O O9 0.871454 0.871454 0.738385
O O10 0.000000 0.836347 0.736248
O O11 0.108768 0.500000 0.500000
O O12 0.107916 0.386063 0.447706
O O13 0.000000 0.423648 0.500000
O O14 0.169407 0.500000 0.904493
#
# Coordination Sequence:
#
# PCOD8320010 Si02
#       5
#    32  32  32  16  32
#     4   9  17  27  38  54  77 103 128 154 186 226
#     4   8  13  22  36  53  75 101 126 153 183 216
#     4   8  14  24  37  54  75  98 126 158 189 223
#     4   9  16  26  41  56  67  85 118 157 191 224
#     4   8  15  27  39  53  74  96 120 153 191 223
#
# _framework density 14.473102000000001
#
# number of rings (size 3 to 8) (size 9 to 14) (size 15 to 20)
#    0.000    3.667    0.000    2.667    0.000    2.000 
#    0.000    5.000    0.000    0.000    0.000    0.000 
#    0.000    4.444    0.000    0.444    0.000    0.000 
#
# Total GULP energy -892199.484175 kJ/mol
# GULP energy per Si atom -12391.659502 kJ/mol
# Density = 1.444016 g / cm^3
# Si number density = 14.473102 Si / 1000 Ang^3
#
#
#
# Elastic Constant Matrix: (Units=GPa)
#
#
# Indices 1 2 3 4 5 6 
#
# 1 84.1556 52.5795 36.1370 0.0000 0.0000 0.0000
# 2 52.5795 84.1521 36.1359 0.0000 0.0000 0.0000
# 3 36.1370 36.1359 54.7356 0.0000 0.0000 0.0000
# 4 0.0000 0.0000 0.0000 11.5040 0.0000 0.0000
# 5 0.0000 0.0000 0.0000 0.0000 11.5043 0.0000
# 6 0.0000 0.0000 0.0000 0.0000 0.0000 19.7082
#
#
#
# Elastic Compliance Matrix: (Units=1/GPa)
#
#
# Indices 1 2 3 4 5 6 
#
# 1 0.021452 -0.010219 -0.007416 0.000000 0.000000 0.000000
# 2 -0.010219 0.021453 -0.007416 0.000000 0.000000 0.000000
# 3 -0.007416 -0.007416 0.028062 0.000000 0.000000 0.000000
# 4 0.000000 0.000000 0.000000 0.086926 0.000000 0.000000
# 5 0.000000 0.000000 0.000000 0.000000 0.086924 0.000000
# 6 0.000000 0.000000 0.000000 0.000000 0.000000 0.050740
#
#
# Mechanical properties :
#
#
# Convention : Reuss Voigt Hill
#
# Bulk Modulus (GPa) = 47.92991 52.52756 50.22874
# Shear Modulus (GPa) = 14.17974 15.08935 14.63454
#
# Velocity S-wave (km/s) = 3.13346 3.23240 3.18332
# Velocity P-wave (km/s) = 6.80293 7.09248 6.94921
#
# Compressibility (1/GPa) = 0.02086380
#
# Stress axis : x y z
#
# Youngs Moduli (GPa) = 46.61551 46.61390 35.63501
#
# Poissons Ratio (x) = 0.47634 0.26429
# Poissons Ratio (y) = 0.47636 0.26428
# Poissons Ratio (z) = 0.34572 0.34570
#
# Static dielectric constant tensor:
#      x y z
#    x 2.881480 0.000000 0.000000 
#    y 0.000000 2.881480 0.000000 
#    z 0.000000 0.000000 2.629870 
# 
# 
# High freq. dielectric constant tensor:
#      x y z
#    x 1.535850 0.000000 0.000000 
#    y 0.000000 1.535850 0.000000 
#    z 0.000000 0.000000 1.521430 
# 
# From -- ./inp_files/11721.got.cif
#   From: 2010.03.12/outbox.cif.g09.slc.cpg/sg139_6_cif.got.tgz:11721.got - 2010.04.08 09:46:31.
