data_PCOD8320061
_publ_section_title
;
Structure prediction by ZEFSAII (Michael W. Deem and Ramdas Pophale) SiO2 
 PCOD8320061
Probable space group: I 4/M C M
;
_chemical_formula_sum "Si O2"
_cell_formula_units_Z 132
_cell_length_a 20.170307
_cell_length_b 20.170307
_cell_length_c 20.382819
_cell_angle_alpha 90.000000
_cell_angle_beta 90.000000
_cell_angle_gamma 90.000000
_cell_volume 8292.572263
_symmetry_space_group_name_H-M "I 4/M C M"
_symmetry_group_IT_number 140
_symmetry_cell_setting 'tetragonal'
loop_
_space_group_symop_operation_xyz
x,y,z
-y,x,z
-x,-y,z
y,-x,z
x,-y,1/2-z
-x,y,1/2-z
y,x,1/2-z
-y,-x,1/2-z
-x,-y,-z
y,-x,-z
x,y,-z
-y,x,-z
-x,y,1/2+z
x,-y,1/2+z
-y,-x,1/2+z
y,x,1/2+z
1/2+x,1/2+y,1/2+z
1/2-y,1/2+x,1/2+z
1/2-x,1/2-y,1/2+z
1/2+y,1/2-x,1/2+z
1/2+x,1/2-y,-z
1/2-x,1/2+y,-z
1/2+y,1/2+x,-z
1/2-y,1/2-x,-z
1/2-x,1/2-y,1/2-z
1/2+y,1/2-x,1/2-z
1/2+x,1/2+y,1/2-z
1/2-y,1/2+x,1/2-z
1/2-x,1/2+y,z
1/2+x,1/2-y,z
1/2-y,1/2-x,z
1/2+y,1/2+x,z
loop_
_atom_site_type_symbol
_atom_site_label
_atom_site_fract_x
_atom_site_fract_y
_atom_site_fract_z
Si Si1 0.172423 0.182469 0.422447
Si Si2 0.666578 0.833423 0.077071
Si Si3 0.934225 0.434225 0.131978
Si Si4 0.077584 0.930073 0.578119
Si Si5 0.500000 0.000000 0.750000
Si Si6 0.075170 0.424831 0.923137
Si Si7 0.180180 0.680180 0.578354
O O1 0.173341 0.175140 0.500000
O O2 0.151428 0.257281 0.404687
O O3 0.119201 0.132111 0.390834
O O4 0.245622 0.163366 0.396089
O O5 0.621550 0.878451 0.124485
O O6 0.652126 0.847875 0.000000
O O7 0.952400 0.452400 0.206990
O O8 0.906663 0.500784 0.097993
O O9 0.080365 0.928052 0.500000
O O10 0.004766 0.907456 0.602335
O O11 0.127572 0.372429 0.892017
O O12 0.080443 0.419558 0.000000
O O13 0.178945 0.678945 0.500000
#
# Coordination Sequence:
#
# PCOD8320061 Si02
#       7
#    32  16  16  32   4  16  16
#     4   8  14  23  33  50  79 110 136 160 189 230
#     4   9  16  25  39  60  83 104 130 164 199 237
#     4  10  18  30  44  59  77 102 136 170 204 243
#     4   8  13  20  29  42  64  99 139 166 180 206
#     4   8  20  36  46  56  76 104 136 170 212 256
#     4   9  16  25  39  60  84 105 127 162 204 244
#     4   8  14  23  33  49  78 111 132 151 190 239
#
# _framework density 15.917859
#
# number of rings (size 3 to 8) (size 9 to 14) (size 15 to 20)
#    0.000    3.636    0.000    3.636    0.000    1.939 
#    0.000    7.273    0.000    0.000    0.000   13.576 
#    0.000    0.000    0.000    0.000    0.000    6.788 
#
# Total GULP energy -817753.579667 kJ/mol
# GULP energy per Si atom -12390.205753 kJ/mol
# Density = 1.588163 g / cm^3
# Si number density = 15.917859 Si / 1000 Ang^3
#
#
#
# Elastic Constant Matrix: (Units=GPa)
#
#
# Indices 1 2 3 4 5 6 
#
# 1 129.8173 110.7749 18.4393 0.0000 0.0000 0.0000
# 2 110.7749 129.8174 18.4391 0.0000 0.0000 0.0000
# 3 18.4393 18.4391 28.4877 0.0000 0.0000 0.0000
# 4 0.0000 0.0000 0.0000 2.9737 0.0000 0.0000
# 5 0.0000 0.0000 0.0000 0.0000 2.9738 0.0000
# 6 0.0000 0.0000 0.0000 0.0000 0.0000 43.8786
#
#
#
# Elastic Compliance Matrix: (Units=1/GPa)
#
#
# Indices 1 2 3 4 5 6 
#
# 1 0.028564 -0.023950 -0.002987 0.000000 0.000000 0.000000
# 2 -0.023950 0.028564 -0.002986 0.000000 0.000000 0.000000
# 3 -0.002987 -0.002986 0.038969 0.000000 0.000000 0.000000
# 4 0.000000 0.000000 0.000000 0.336277 0.000000 0.000000
# 5 0.000000 0.000000 0.000000 0.000000 0.336274 0.000000
# 6 0.000000 0.000000 0.000000 0.000000 0.000000 0.022790
#
#
# Mechanical properties :
#
#
# Convention : Reuss Voigt Hill
#
# Bulk Modulus (GPa) = 27.58537 64.82542 46.20540
# Shear Modulus (GPa) = 5.79127 19.32983 12.56055
#
# Velocity S-wave (km/s) = 1.90948 3.48853 2.81211
# Velocity P-wave (km/s) = 4.71476 7.55247 6.29558
#
# Compressibility (1/GPa) = 0.03625110
#
# Stress axis : x y z
#
# Youngs Moduli (GPa) = 35.00878 35.00889 25.66128
#
# Poissons Ratio (x) = 0.83846 0.07665
# Poissons Ratio (y) = 0.83846 0.07664
# Poissons Ratio (z) = 0.10457 0.10455
#
# Static dielectric constant tensor:
#      x y z
#    x 3.415450 0.000000 0.000000 
#    y 0.000000 3.415420 0.000000 
#    z 0.000000 0.000000 2.333480 
# 
# 
# High freq. dielectric constant tensor:
#      x y z
#    x 1.619700 0.000000 0.000000 
#    y 0.000000 1.619700 0.000000 
#    z 0.000000 0.000000 1.526790 
# 
# From -- ./inp_files/8312.got.cif
#   From: 2010.06.25/outbox.cif.g09.slc.cpg/sg140_5_cif.got.tgz:8312.got - 2010.06.28 10:53:23.
