data_PCOD8320142
_publ_section_title
;
Structure prediction by ZEFSAII (Michael W. Deem and Ramdas Pophale) SiO2 
 PCOD8320142
Probable space group: I 4/M C M
;
_chemical_formula_sum "Si O2"
_cell_formula_units_Z 160
_cell_length_a 18.807485
_cell_length_b 18.807485
_cell_length_c 24.937701
_cell_angle_alpha 90.000000
_cell_angle_beta 90.000000
_cell_angle_gamma 90.000000
_cell_volume 8821.000805
_symmetry_space_group_name_H-M "I 4/M C M"
_symmetry_group_IT_number 140
_symmetry_cell_setting 'tetragonal'
loop_
_space_group_symop_operation_xyz
x,y,z
-y,x,z
-x,-y,z
y,-x,z
x,-y,1/2-z
-x,y,1/2-z
y,x,1/2-z
-y,-x,1/2-z
-x,-y,-z
y,-x,-z
x,y,-z
-y,x,-z
-x,y,1/2+z
x,-y,1/2+z
-y,-x,1/2+z
y,x,1/2+z
1/2+x,1/2+y,1/2+z
1/2-y,1/2+x,1/2+z
1/2-x,1/2-y,1/2+z
1/2+y,1/2-x,1/2+z
1/2+x,1/2-y,-z
1/2-x,1/2+y,-z
1/2+y,1/2+x,-z
1/2-y,1/2-x,-z
1/2-x,1/2-y,1/2-z
1/2+y,1/2-x,1/2-z
1/2+x,1/2+y,1/2-z
1/2-y,1/2+x,1/2-z
1/2-x,1/2+y,z
1/2+x,1/2-y,z
1/2-y,1/2-x,z
1/2+y,1/2+x,z
loop_
_atom_site_type_symbol
_atom_site_label
_atom_site_fract_x
_atom_site_fract_y
_atom_site_fract_z
Si Si1 0.603401 0.312269 0.000000
Si Si2 0.000000 0.610152 0.250000
Si Si3 0.186427 0.521289 0.355903
Si Si4 0.439998 0.060003 0.435683
Si Si5 0.378969 0.760516 0.607378
Si Si6 0.266182 0.349707 0.112005
Si Si7 0.798071 0.936885 0.000000
O O1 0.636724 0.269755 0.950991
O O2 0.627808 0.394406 0.000000
O O3 0.519298 0.315199 0.000000
O O4 0.938572 0.561429 0.276339
O O5 0.964175 0.653318 0.201964
O O6 0.132126 0.533917 0.405859
O O7 0.215018 0.440635 0.352558
O O8 0.253931 0.574635 0.359319
O O9 0.426497 0.073504 0.500000
O O10 0.500000 0.000000 0.428245
O O11 0.321356 0.821356 0.598937
O O12 0.339205 0.689771 0.630331
O O13 0.417317 0.748484 0.551139
O O14 0.198248 0.301753 0.125254
#
# Coordination Sequence:
#
# PCOD8320142 Si02
#       7
#    16  16  32  16  32  32  16
#     4  10  19  32  51  76 110 146 185 230 290 340
#     4  11  22  38  58  84 120 153 188 224 284 359
#     4  12  22  38  60  82 114 155 189 233 286 340
#     4  11  24  36  54  88 119 146 186 235 290 347
#     4  10  21  35  53  79 111 146 189 237 285 341
#     4  10  20  35  54  78 109 148 192 231 285 343
#     4  10  19  32  51  76 110 148 181 234 286 348
#
# _framework density 18.138532000000001
#
# number of rings (size 3 to 8) (size 9 to 14) (size 15 to 20)
#    0.000    1.400    4.000    2.400    2.800    2.600 
#    0.000    1.000    0.000    4.200    0.000    0.000 
#    0.000    1.600    0.000    0.000    0.000    0.000 
#
# Total GULP energy -991686.913234 kJ/mol
# GULP energy per Si atom -12396.086415 kJ/mol
# Density = 1.809725 g / cm^3
# Si number density = 18.138532 Si / 1000 Ang^3
#
#
#
# Elastic Constant Matrix: (Units=GPa)
#
#
# Indices 1 2 3 4 5 6 
#
# 1 93.0640 41.2910 19.8525 0.0000 0.0000 0.0000
# 2 41.2910 93.0640 19.8525 0.0000 0.0000 0.0000
# 3 19.8525 19.8525 69.4588 0.0000 0.0000 0.0000
# 4 0.0000 0.0000 0.0000 29.1957 0.0000 0.0000
# 5 0.0000 0.0000 0.0000 0.0000 29.1951 0.0000
# 6 0.0000 0.0000 0.0000 0.0000 0.0000 34.9141
#
#
#
# Elastic Compliance Matrix: (Units=1/GPa)
#
#
# Indices 1 2 3 4 5 6 
#
# 1 0.013722 -0.005593 -0.002324 0.000000 0.000000 0.000000
# 2 -0.005593 0.013722 -0.002324 0.000000 0.000000 0.000000
# 3 -0.002324 -0.002324 0.015725 0.000000 0.000000 0.000000
# 4 0.000000 0.000000 0.000000 0.034252 0.000000 0.000000
# 5 0.000000 0.000000 0.000000 0.000000 0.034252 0.000000
# 6 0.000000 0.000000 0.000000 0.000000 0.000000 0.028642
#
#
# Mechanical properties :
#
#
# Convention : Reuss Voigt Hill
#
# Bulk Modulus (GPa) = 44.07189 46.39764 45.23477
# Shear Modulus (GPa) = 29.69846 30.30036 29.99941
#
# Velocity S-wave (km/s) = 4.05076 4.09160 4.07123
# Velocity P-wave (km/s) = 6.79914 6.92508 6.86240
#
# Compressibility (1/GPa) = 0.02269020
#
# Stress axis : x y z
#
# Youngs Moduli (GPa) = 72.87377 72.87370 63.59191
#
# Poissons Ratio (x) = 0.40756 0.14776
# Poissons Ratio (y) = 0.40756 0.14776
# Poissons Ratio (z) = 0.16933 0.16933
#
# Static dielectric constant tensor:
#      x y z
#    x 3.496810 0.000000 0.000000 
#    y 0.000000 3.496810 0.000000 
#    z 0.000000 0.000000 3.054090 
# 
# 
# High freq. dielectric constant tensor:
#      x y z
#    x 1.706490 0.000000 0.000000 
#    y 0.000000 1.706490 0.000000 
#    z 0.000000 0.000000 1.674360 
# 
# From -- ./inp_files/10641.got.cif
#   From: 2010.06.25/outbox.cif.g09.slc.cpg/sg140_6_cif.got.tgz:10641.got - 2010.06.28 10:53:23.
