data_PCOD8320186
_publ_section_title
;
Structure prediction by ZEFSAII (Michael W. Deem and Ramdas Pophale) SiO2 
 PCOD8320186
Probable space group: I 4/M C M
;
_chemical_formula_sum "Si O2"
_cell_formula_units_Z 160
_cell_length_a 20.128838
_cell_length_b 20.128838
_cell_length_c 20.351220
_cell_angle_alpha 90.000000
_cell_angle_beta 90.000000
_cell_angle_gamma 90.000000
_cell_volume 8245.706234
_symmetry_space_group_name_H-M "I 4/M C M"
_symmetry_group_IT_number 140
_symmetry_cell_setting 'tetragonal'
loop_
_space_group_symop_operation_xyz
x,y,z
-y,x,z
-x,-y,z
y,-x,z
x,-y,1/2-z
-x,y,1/2-z
y,x,1/2-z
-y,-x,1/2-z
-x,-y,-z
y,-x,-z
x,y,-z
-y,x,-z
-x,y,1/2+z
x,-y,1/2+z
-y,-x,1/2+z
y,x,1/2+z
1/2+x,1/2+y,1/2+z
1/2-y,1/2+x,1/2+z
1/2-x,1/2-y,1/2+z
1/2+y,1/2-x,1/2+z
1/2+x,1/2-y,-z
1/2-x,1/2+y,-z
1/2+y,1/2+x,-z
1/2-y,1/2-x,-z
1/2-x,1/2-y,1/2-z
1/2+y,1/2-x,1/2-z
1/2+x,1/2+y,1/2-z
1/2-y,1/2+x,1/2-z
1/2-x,1/2+y,z
1/2+x,1/2-y,z
1/2-y,1/2-x,z
1/2+y,1/2+x,z
loop_
_atom_site_type_symbol
_atom_site_label
_atom_site_fract_x
_atom_site_fract_y
_atom_site_fract_z
Si Si1 0.707011 0.101495 0.636657
Si Si2 0.749538 0.138090 0.500000
Si Si3 0.378878 0.773858 0.859351
Si Si4 0.243696 0.145482 0.500000
Si Si5 0.683931 0.578606 0.251011
Si Si6 0.381495 0.983452 0.824840
O O1 0.674226 0.174226 0.646247
O O2 0.740975 0.093598 0.565268
O O3 0.764827 0.093935 0.690135
O O4 0.646232 0.048404 0.638928
O O5 0.694041 0.194041 0.500000
O O6 0.823050 0.170028 0.500000
O O7 0.304001 0.804001 0.856672
O O8 0.398423 0.755040 0.934469
O O9 0.386599 0.709245 0.815593
O O10 0.428948 0.825121 0.827451
O O11 0.296271 0.203730 0.500000
O O12 0.674920 0.500000 0.250000
O O13 0.610840 0.610840 0.250000
O O14 0.449988 0.949988 0.854505
O O15 0.396358 0.000000 0.750000
#
# Coordination Sequence:
#
# PCOD8320186 Si02
#       6
#    32  16  32  16  32  32
#     4  11  21  38  61  87 119 155 198 242 293 355
#     4   9  20  35  53  82 118 153 186 238 304 347
#     4  10  19  35  59  87 115 146 188 237 293 351
#     4   9  18  33  54  85 118 147 187 241 300 353
#     4  12  24  40  60  85 115 149 194 244 297 355
#     4  11  21  35  56  86 123 160 198 241 293 350
#
# _framework density 19.404039000000001
#
# number of rings (size 3 to 8) (size 9 to 14) (size 15 to 20)
#    0.000    1.400    4.000    2.400    0.000    5.600 
#    0.000    1.500    0.000    1.800    0.000    0.000 
#    0.000    4.800    0.000    0.000    0.000    0.000 
#
# Total GULP energy -991057.292431 kJ/mol
# GULP energy per Si atom -12388.216155 kJ/mol
# Density = 1.935987 g / cm^3
# Si number density = 19.404039 Si / 1000 Ang^3
#
#
#
# Elastic Constant Matrix: (Units=GPa)
#
#
# Indices 1 2 3 4 5 6 
#
# 1 80.0454 55.6793 41.9542 0.0000 0.0000 0.0000
# 2 55.6793 80.0455 41.9541 0.0000 0.0000 0.0000
# 3 41.9542 41.9541 119.8689 0.0000 0.0000 0.0000
# 4 0.0000 0.0000 0.0000 21.7368 0.0000 0.0000
# 5 0.0000 0.0000 0.0000 0.0000 21.7366 0.0000
# 6 0.0000 0.0000 0.0000 0.0000 0.0000 35.7115
#
#
#
# Elastic Compliance Matrix: (Units=1/GPa)
#
#
# Indices 1 2 3 4 5 6 
#
# 1 0.025221 -0.015819 -0.003291 0.000000 0.000000 0.000000
# 2 -0.015819 0.025221 -0.003291 0.000000 0.000000 0.000000
# 3 -0.003291 -0.003291 0.010646 0.000000 0.000000 0.000000
# 4 0.000000 0.000000 0.000000 0.046005 0.000000 0.000000
# 5 0.000000 0.000000 0.000000 0.000000 0.046005 0.000000
# 6 0.000000 0.000000 0.000000 0.000000 0.000000 0.028002
#
#
# Mechanical properties :
#
#
# Convention : Reuss Voigt Hill
#
# Bulk Modulus (GPa) = 61.39718 62.12611 61.76165
# Shear Modulus (GPa) = 21.61394 25.19512 23.40453
#
# Velocity S-wave (km/s) = 3.34112 3.60731 3.47676
# Velocity P-wave (km/s) = 6.82600 7.03113 6.92932
#
# Compressibility (1/GPa) = 0.01628739
#
# Stress axis : x y z
#
# Youngs Moduli (GPa) = 39.64877 39.64883 93.93189
#
# Poissons Ratio (x) = 0.62721 0.30911
# Poissons Ratio (y) = 0.62721 0.30911
# Poissons Ratio (z) = 0.13048 0.13048
#
# Static dielectric constant tensor:
#      x y z
#    x 3.560050 0.000000 0.000000 
#    y 0.000000 3.560050 0.000000 
#    z 0.000000 0.000000 3.774560 
# 
# 
# High freq. dielectric constant tensor:
#      x y z
#    x 1.742820 0.000000 0.000000 
#    y 0.000000 1.742820 0.000000 
#    z 0.000000 0.000000 1.756030 
# 
# From -- ./inp_files/6941.got.cif
#   From: 2010.06.25/outbox.cif.g09.slc.cpg/sg140_4_cif.got.tgz:6941.got - 2010.06.28 10:53:23.
