data_PCOD8320354
_publ_section_title
;
Structure prediction by ZEFSAII (Michael W. Deem and Ramdas Pophale) SiO2 
 PCOD8320354
Probable space group: I 4/M C M
;
_chemical_formula_sum "Si O2"
_cell_formula_units_Z 112
_cell_length_a 17.593945
_cell_length_b 17.593945
_cell_length_c 15.892393
_cell_angle_alpha 90.000000
_cell_angle_beta 90.000000
_cell_angle_gamma 90.000000
_cell_volume 4919.440997
_symmetry_space_group_name_H-M "I 4/M C M"
_symmetry_group_IT_number 140
_symmetry_cell_setting 'tetragonal'
loop_
_space_group_symop_operation_xyz
x,y,z
-y,x,z
-x,-y,z
y,-x,z
x,-y,1/2-z
-x,y,1/2-z
y,x,1/2-z
-y,-x,1/2-z
-x,-y,-z
y,-x,-z
x,y,-z
-y,x,-z
-x,y,1/2+z
x,-y,1/2+z
-y,-x,1/2+z
y,x,1/2+z
1/2+x,1/2+y,1/2+z
1/2-y,1/2+x,1/2+z
1/2-x,1/2-y,1/2+z
1/2+y,1/2-x,1/2+z
1/2+x,1/2-y,-z
1/2-x,1/2+y,-z
1/2+y,1/2+x,-z
1/2-y,1/2-x,-z
1/2-x,1/2-y,1/2-z
1/2+y,1/2-x,1/2-z
1/2+x,1/2+y,1/2-z
1/2-y,1/2+x,1/2-z
1/2-x,1/2+y,z
1/2+x,1/2-y,z
1/2-y,1/2-x,z
1/2+y,1/2+x,z
loop_
_atom_site_type_symbol
_atom_site_label
_atom_site_fract_x
_atom_site_fract_y
_atom_site_fract_z
Si Si1 0.058979 0.102897 0.901086
Si Si2 0.874264 0.500000 0.750000
Si Si3 0.307360 0.067592 0.907022
Si Si4 0.191661 0.808662 0.848825
O O1 0.103162 0.179926 0.874182
O O2 0.972586 0.102823 0.865901
O O3 0.055374 0.098860 0.000000
O O4 0.924994 0.424994 0.737865
O O5 0.820971 0.505839 0.666875
O O6 0.382963 0.117038 0.912226
O O7 0.235525 0.119417 0.885340
O O8 0.293232 0.029968 0.000000
O O9 0.195999 0.804002 0.750000
O O10 0.269590 0.769590 0.884686
#
# Coordination Sequence:
#
# PCOD8320354 Si02
#       4
#    32  16  32  32
#     4   9  19  36  57  83 115 148 185 234 292 354
#     4   9  18  32  52  82 118 155 198 244 288 347
#     4   9  18  33  53  77 109 152 197 242 298 357
#     4  10  21  36  55  81 112 149 196 248 298 351
#
# _framework density 22.766815000000001
#
# number of rings (size 3 to 8) (size 9 to 14) (size 15 to 20)
#    0.000    2.714    0.000    1.714    0.000    5.714 
#    0.000    4.286    0.000    1.714    0.000   20.000 
#    0.000    0.000    0.000    0.000    0.000    0.000 
#
# Total GULP energy -693740.626401 kJ/mol
# GULP energy per Si atom -12388.225471 kJ/mol
# Density = 2.271500 g / cm^3
# Si number density = 22.766815 Si / 1000 Ang^3
#
#
#
# Elastic Constant Matrix: (Units=GPa)
#
#
# Indices 1 2 3 4 5 6 
#
# 1 68.0054 32.8623 18.8460 0.0000 0.0000 0.0000
# 2 32.8623 68.0063 18.8468 0.0000 0.0000 0.0000
# 3 18.8460 18.8468 135.3026 0.0000 0.0000 0.0000
# 4 0.0000 0.0000 0.0000 34.8626 0.0000 0.0000
# 5 0.0000 0.0000 0.0000 0.0000 34.8623 0.0000
# 6 0.0000 0.0000 0.0000 0.0000 0.0000 27.9367
#
#
#
# Elastic Compliance Matrix: (Units=1/GPa)
#
#
# Indices 1 2 3 4 5 6 
#
# 1 0.019457 -0.008998 -0.001457 0.000000 0.000000 0.000000
# 2 -0.008998 0.019456 -0.001457 0.000000 0.000000 0.000000
# 3 -0.001457 -0.001457 0.007797 0.000000 0.000000 0.000000
# 4 0.000000 0.000000 0.000000 0.028684 0.000000 0.000000
# 5 0.000000 0.000000 0.000000 0.000000 0.028684 0.000000
# 6 0.000000 0.000000 0.000000 0.000000 0.000000 0.035795
#
#
# Mechanical properties :
#
#
# Convention : Reuss Voigt Hill
#
# Bulk Modulus (GPa) = 43.69429 45.82492 44.75960
# Shear Modulus (GPa) = 29.18425 32.91627 31.05026
#
# Velocity S-wave (km/s) = 3.58421 3.80649 3.69702
# Velocity P-wave (km/s) = 6.03014 6.28417 6.15846
#
# Compressibility (1/GPa) = 0.02288629
#
# Stress axis : x y z
#
# Youngs Moduli (GPa) = 51.39650 51.39699 128.26006
#
# Poissons Ratio (x) = 0.46248 0.18683
# Poissons Ratio (y) = 0.46248 0.18685
# Poissons Ratio (z) = 0.07487 0.07488
#
# Static dielectric constant tensor:
#      x y z
#    x 4.609610 0.000000 0.000000 
#    y 0.000000 4.609600 0.000000 
#    z 0.000000 0.000000 4.229000 
# 
# 
# High freq. dielectric constant tensor:
#      x y z
#    x 1.885600 0.000000 0.000000 
#    y 0.000000 1.885600 0.000000 
#    z 0.000000 0.000000 1.894870 
# 
# From -- ./inp_files/6120.got.cif
#   From: 2010.06.25/outbox.cif.g09.slc.cpg/sg140_4_cif.got.tgz:6120.got - 2010.06.28 10:53:23.
