data_PCOD8320958
_publ_section_title
;
Structure prediction by ZEFSAII (Michael W. Deem and Ramdas Pophale) SiO2 
 PCOD8320958
Probable space group: I 41/A C D
;
_chemical_formula_sum "Si O2"
_cell_formula_units_Z 160
_cell_length_a 32.349792
_cell_length_b 32.349792
_cell_length_c 8.705042
_cell_angle_alpha 90.000000
_cell_angle_beta 90.000000
_cell_angle_gamma 90.000000
_cell_volume 9109.905168
_symmetry_space_group_name_H-M "I 41/A C D"
_symmetry_group_IT_number 142
_space_group.IT_coordinate_system_code '2'
_symmetry_cell_setting 'tetragonal'
loop_
_space_group_symop_operation_xyz
x,y,z
1/4-y,3/4+x,1/4+z
-x,1/2-y,z
1/4+y,1/4-x,3/4+z
x,-y,1/2-z
1/2-x,y,-z
3/4+y,1/4+x,1/4-z
1/4-y,1/4-x,1/4-z
-x,-y,-z
3/4+y,1/4-x,3/4-z
x,1/2+y,-z
3/4-y,3/4+x,1/4-z
-x,y,1/2+z
1/2+x,-y,z
1/4-y,3/4-x,3/4+z
3/4+y,3/4+x,3/4+z
1/2+x,1/2+y,1/2+z
3/4-y,1/4+x,3/4+z
1/2-x,-y,1/2+z
3/4+y,3/4-x,1/4+z
1/2+x,1/2-y,-z
-x,1/2+y,1/2-z
1/4+y,3/4+x,3/4-z
3/4-y,3/4-x,3/4-z
1/2-x,1/2-y,1/2-z
1/4+y,3/4-x,1/4-z
1/2+x,y,1/2-z
1/4-y,1/4+x,3/4-z
1/2-x,1/2+y,z
x,1/2-y,1/2+z
3/4-y,1/4-x,1/4+z
1/4+y,1/4+x,1/4+z
loop_
_atom_site_type_symbol
_atom_site_label
_atom_site_fract_x
_atom_site_fract_y
_atom_site_fract_z
Si Si1 0.750000 0.951655 0.000000
Si Si2 0.487722 0.953981 0.551178
Si Si3 0.942258 0.575444 0.739025
Si Si4 0.619303 0.500000 0.250000
Si Si5 0.250000 0.678890 0.000000
Si Si6 0.710937 0.888124 0.795061
Si Si7 0.627660 0.877660 0.625000
O O1 0.770228 0.979773 0.875000
O O2 0.714519 0.923985 0.920731
O O3 0.468656 0.924190 0.418723
O O4 0.527874 0.931189 0.616200
O O5 0.500000 0.000000 0.500000
O O6 0.455218 0.961031 0.688356
O O7 0.909463 0.539049 0.717763
O O8 0.915911 0.617194 0.781495
O O9 0.648829 0.488537 0.393674
O O10 0.230537 0.653647 0.139563
O O11 0.663315 0.881795 0.753360
#
# Coordination Sequence:
#
# PCOD8320958 Si02
#       7
#    16  32  32  16  16  32  16
#     4  11  28  39  53  71  94 142 214 269 286 317
#     4  12  18  31  57  88 116 141 184 239 280 351
#     4  11  21  33  56  83 116 148 185 224 286 351
#     4  10  17  33  57  81 104 142 178 222 283 345
#     4  11  19  34  56  92 110 142 198 233 295 344
#     4  10  23  37  57  74 110 147 190 238 293 351
#     4  10  24  38  56  76 116 159 176 222 300 356
#
# _framework density 17.563300999999999
#
# number of rings (size 3 to 8) (size 9 to 14) (size 15 to 20)
#    0.000    1.200    6.000    1.200    7.000    0.000 
#    0.000    0.000    0.000    0.000    0.000    0.000 
#    0.000    2.400    0.000    0.000    0.000    0.000 
#
# Total GULP energy -991562.332982 kJ/mol
# GULP energy per Si atom -12394.529162 kJ/mol
# Density = 1.752333 g / cm^3
# Si number density = 17.563301 Si / 1000 Ang^3
#
#
#
# Elastic Constant Matrix: (Units=GPa)
#
#
# Indices 1 2 3 4 5 6 
#
# 1 75.6102 31.3108 40.0769 0.0000 0.0000 0.0000
# 2 31.3108 75.6088 40.0760 0.0000 0.0000 0.0000
# 3 40.0769 40.0760 111.0543 0.0000 0.0000 0.0000
# 4 0.0000 0.0000 0.0000 23.5132 0.0000 0.0000
# 5 0.0000 0.0000 0.0000 0.0000 23.5123 0.0000
# 6 0.0000 0.0000 0.0000 0.0000 0.0000 30.7049
#
#
#
# Elastic Compliance Matrix: (Units=1/GPa)
#
#
# Indices 1 2 3 4 5 6 
#
# 1 0.017698 -0.004876 -0.004627 0.000000 0.000000 0.000000
# 2 -0.004876 0.017698 -0.004627 0.000000 0.000000 0.000000
# 3 -0.004627 -0.004627 0.012344 0.000000 0.000000 0.000000
# 4 0.000000 0.000000 0.000000 0.042529 0.000000 0.000000
# 5 0.000000 0.000000 0.000000 0.000000 0.042531 0.000000
# 6 0.000000 0.000000 0.000000 0.000000 0.000000 0.032568
#
#
# Mechanical properties :
#
#
# Convention : Reuss Voigt Hill
#
# Bulk Modulus (GPa) = 51.33687 53.91120 52.62404
# Shear Modulus (GPa) = 24.98489 25.60004 25.29246
#
# Velocity S-wave (km/s) = 3.77578 3.82198 3.79895
# Velocity P-wave (km/s) = 6.94995 7.08793 7.01927
#
# Compressibility (1/GPa) = 0.01947918
#
# Stress axis : x y z
#
# Youngs Moduli (GPa) = 56.50494 56.50425 81.01085
#
# Poissons Ratio (x) = 0.27554 0.37483
# Poissons Ratio (y) = 0.27554 0.37482
# Poissons Ratio (z) = 0.26144 0.26143
#
# Static dielectric constant tensor:
#      x y z
#    x 3.311750 0.000000 0.000000 
#    y 0.000000 3.311770 0.000000 
#    z 0.000000 0.000000 3.652370 
# 
# 
# High freq. dielectric constant tensor:
#      x y z
#    x 1.649600 0.000000 0.000000 
#    y 0.000000 1.649600 0.000000 
#    z 0.000000 0.000000 1.701590 
# 
# From -- ./inp_files/2263.got.cif
#   From: 2010.03.12/outbox.cif.g09.slc.cpg/sg142_2_cif.got.tgz:2263.got - 2010.04.03 13:27:16.
