data_PCOD8320882
_publ_section_title
;
Structure prediction by ZEFSAII (Michael W. Deem and Ramdas Pophale) SiO2 
 PCOD8320882
Probable space group: I 41/A M D
;
_chemical_formula_sum "Si O2"
_cell_formula_units_Z 160
_cell_length_a 17.905784
_cell_length_b 17.905784
_cell_length_c 26.246682
_cell_angle_alpha 90.000000
_cell_angle_beta 90.000000
_cell_angle_gamma 90.000000
_cell_volume 8415.135085
_symmetry_space_group_name_H-M "I 41/A M D"
_symmetry_group_IT_number 141
_space_group.IT_coordinate_system_code '2'
_symmetry_cell_setting 'tetragonal'
loop_
_space_group_symop_operation_xyz
x,y,z
1/4-y,3/4+x,1/4+z
-x,1/2-y,z
1/4+y,1/4-x,3/4+z
x,-y,-z
-x,1/2+y,-z
1/4+y,3/4+x,1/4-z
1/4-y,1/4-x,3/4-z
-x,-y,-z
3/4+y,1/4-x,3/4-z
x,1/2+y,-z
3/4-y,3/4+x,1/4-z
-x,y,z
x,1/2-y,z
3/4-y,1/4-x,3/4+z
3/4+y,3/4+x,1/4+z
1/2+x,1/2+y,1/2+z
3/4-y,1/4+x,3/4+z
1/2-x,-y,1/2+z
3/4+y,3/4-x,1/4+z
1/2+x,1/2-y,1/2-z
1/2-x,y,1/2-z
3/4+y,1/4+x,3/4-z
3/4-y,3/4-x,1/4-z
1/2-x,1/2-y,1/2-z
1/4+y,3/4-x,1/4-z
1/2+x,y,1/2-z
1/4-y,1/4+x,3/4-z
1/2-x,1/2+y,1/2+z
1/2+x,-y,1/2+z
1/4-y,3/4-x,1/4+z
1/4+y,1/4+x,3/4+z
loop_
_atom_site_type_symbol
_atom_site_label
_atom_site_fract_x
_atom_site_fract_y
_atom_site_fract_z
Si Si1 0.617318 0.453615 0.449079
Si Si2 0.201144 0.456631 0.318327
Si Si3 0.864261 0.433379 0.215952
Si Si4 0.000000 0.833633 0.938910
Si Si5 0.500000 0.832980 0.681296
Si Si6 0.801196 0.331679 0.893296
O O1 0.604658 0.500000 0.500000
O O2 0.703926 0.451347 0.434459
O O3 0.576239 0.374268 0.457829
O O4 0.575906 0.489412 0.400752
O O5 0.179373 0.429373 0.375000
O O6 0.139542 0.430148 0.277496
O O7 0.281366 0.419506 0.306043
O O8 0.887822 0.515386 0.195798
O O9 0.924303 0.372754 0.199244
O O10 0.000000 0.750000 0.962080
O O11 0.000000 0.829348 0.878607
O O12 0.500000 0.750000 0.704861
O O13 0.868146 0.381855 0.875000
O O14 0.833417 0.250000 0.904495
#
# Coordination Sequence:
#
# PCOD8320882 Si02
#       6
#    32  32  32  16  16  32
#     4  12  19  36  59  85 120 167 203 253 310 361
#     4  11  20  35  64  92 116 149 210 262 306 358
#     4  11  19  38  64  90 116 156 205 254 302 375
#     4  11  23  37  57  87 128 166 213 263 308 356
#     4  11  22  41  67  89 119 165 203 249 321 386
#     4  12  21  36  59  86 125 170 211 247 301 368
#
# _framework density 19.013362000000001
#
# number of rings (size 3 to 8) (size 9 to 14) (size 15 to 20)
#    0.000    0.600   10.000    0.300    0.000    0.200 
#    1.800    3.000    4.400    0.000    0.000    0.000 
#    0.000    0.000    0.000    0.000    0.000    0.000 
#
# Total GULP energy -991657.784220 kJ/mol
# GULP energy per Si atom -12395.722303 kJ/mol
# Density = 1.897009 g / cm^3
# Si number density = 19.013362 Si / 1000 Ang^3
#
#
#
# Elastic Constant Matrix: (Units=GPa)
#
#
# Indices 1 2 3 4 5 6 
#
# 1 96.1500 33.0741 27.8848 0.0000 0.0000 0.0000
# 2 33.0741 96.1538 27.8846 0.0000 0.0000 0.0000
# 3 27.8848 27.8846 129.1889 0.0000 0.0000 0.0000
# 4 0.0000 0.0000 0.0000 7.9892 0.0000 0.0000
# 5 0.0000 0.0000 0.0000 0.0000 7.9898 0.0000
# 6 0.0000 0.0000 0.0000 0.0000 0.0000 20.1489
#
#
#
# Elastic Compliance Matrix: (Units=1/GPa)
#
#
# Indices 1 2 3 4 5 6 
#
# 1 0.012194 -0.003660 -0.001842 0.000000 0.000000 0.000000
# 2 -0.003660 0.012193 -0.001842 0.000000 0.000000 0.000000
# 3 -0.001842 -0.001842 0.008536 0.000000 0.000000 0.000000
# 4 0.000000 0.000000 0.000000 0.125169 0.000000 0.000000
# 5 0.000000 0.000000 0.000000 0.000000 0.125160 0.000000
# 6 0.000000 0.000000 0.000000 0.000000 0.000000 0.049631
#
#
# Mechanical properties :
#
#
# Convention : Reuss Voigt Hill
#
# Bulk Modulus (GPa) = 54.84018 55.46442 55.15230
# Shear Modulus (GPa) = 14.13839 22.73553 18.43696
#
# Velocity S-wave (km/s) = 2.72987 3.46174 3.11735
# Velocity P-wave (km/s) = 6.23232 6.72404 6.48285
#
# Compressibility (1/GPa) = 0.01823481
#
# Stress axis : x y z
#
# Youngs Moduli (GPa) = 82.01011 82.01364 117.15486
#
# Poissons Ratio (x) = 0.30018 0.21579
# Poissons Ratio (y) = 0.30016 0.21577
# Poissons Ratio (z) = 0.15106 0.15105
#
# Static dielectric constant tensor:
#      x y z
#    x 3.517810 0.000000 0.000000 
#    y 0.000000 3.517830 0.000000 
#    z 0.000000 0.000000 3.814630 
# 
# 
# High freq. dielectric constant tensor:
#      x y z
#    x 1.723780 0.000000 0.000000 
#    y 0.000000 1.723780 0.000000 
#    z 0.000000 0.000000 1.746470 
# 
# From -- ./inp_files/12787.got.cif
#   From: 2010.03.12/outbox.cif.g09.slc.cpg/sg141_7_cif.got.tgz:12787.got - 2010.04.03 13:18:35.
