data_PCOD8320051
_publ_section_title
;
Structure prediction by ZEFSAII (Michael W. Deem and Ramdas Pophale) SiO2 
 PCOD8320051
Probable space group: I 4/M C M
;
_chemical_formula_sum "Si O2"
_cell_formula_units_Z 160
_cell_length_a 21.855206
_cell_length_b 21.855206
_cell_length_c 18.846651
_cell_angle_alpha 90.000000
_cell_angle_beta 90.000000
_cell_angle_gamma 90.000000
_cell_volume 9002.103402
_symmetry_space_group_name_H-M "I 4/M C M"
_symmetry_group_IT_number 140
_symmetry_cell_setting 'tetragonal'
loop_
_space_group_symop_operation_xyz
x,y,z
-y,x,z
-x,-y,z
y,-x,z
x,-y,1/2-z
-x,y,1/2-z
y,x,1/2-z
-y,-x,1/2-z
-x,-y,-z
y,-x,-z
x,y,-z
-y,x,-z
-x,y,1/2+z
x,-y,1/2+z
-y,-x,1/2+z
y,x,1/2+z
1/2+x,1/2+y,1/2+z
1/2-y,1/2+x,1/2+z
1/2-x,1/2-y,1/2+z
1/2+y,1/2-x,1/2+z
1/2+x,1/2-y,-z
1/2-x,1/2+y,-z
1/2+y,1/2+x,-z
1/2-y,1/2-x,-z
1/2-x,1/2-y,1/2-z
1/2+y,1/2-x,1/2-z
1/2+x,1/2+y,1/2-z
1/2-y,1/2+x,1/2-z
1/2-x,1/2+y,z
1/2+x,1/2-y,z
1/2-y,1/2-x,z
1/2+y,1/2+x,z
loop_
_atom_site_type_symbol
_atom_site_label
_atom_site_fract_x
_atom_site_fract_y
_atom_site_fract_z
Si Si1 0.169476 0.567748 0.277381
Si Si2 0.832215 0.159945 0.581936
Si Si3 0.560618 0.425973 0.584318
Si Si4 0.289730 0.889354 0.078703
Si Si5 0.158055 0.757615 0.788094
O O1 0.154500 0.500000 0.250000
O O2 0.110308 0.610308 0.262101
O O3 0.183834 0.564651 0.361996
O O4 0.230699 0.593104 0.238149
O O5 0.813120 0.153375 0.500000
O O6 0.872020 0.103538 0.611859
O O7 0.872768 0.219927 0.594863
O O8 0.769900 0.158313 0.627454
O O9 0.585090 0.491698 0.612092
O O10 0.562806 0.427245 0.500000
O O11 0.325346 0.825346 0.082527
O O12 0.296580 0.919277 0.000000
O O13 0.178574 0.821427 0.750000
O O14 0.206363 0.706363 0.766405
#
# Coordination Sequence:
#
# PCOD8320051 Si02
#       5
#    32  32  32  32  32
#     4  10  21  37  57  80 107 143 181 219 269 323
#     4  10  18  28  49  78 103 134 173 214 260 313
#     4   8  15  28  43  61  92 133 171 205 242 287
#     4   9  17  31  53  79 104 132 173 221 262 310
#     4  10  19  34  52  72 103 135 162 205 263 316
#
# _framework density 17.773624000000002
#
# number of rings (size 3 to 8) (size 9 to 14) (size 15 to 20)
#    0.000    2.600    2.000    1.200    0.000    3.000 
#    0.000    3.000    0.000    1.800    0.000    4.200 
#    0.000    0.000    0.000    0.000    0.000    0.000 
#
# Total GULP energy -991499.300984 kJ/mol
# GULP energy per Si atom -12393.741262 kJ/mol
# Density = 1.773317 g / cm^3
# Si number density = 17.773624 Si / 1000 Ang^3
#
#
#
# Elastic Constant Matrix: (Units=GPa)
#
#
# Indices 1 2 3 4 5 6 
#
# 1 69.2997 22.6316 38.0929 0.0000 0.0000 0.0000
# 2 22.6316 69.2991 38.0929 0.0000 0.0000 0.0000
# 3 38.0929 38.0929 101.8596 0.0000 0.0000 0.0000
# 4 0.0000 0.0000 0.0000 21.2459 0.0000 0.0000
# 5 0.0000 0.0000 0.0000 0.0000 21.2460 0.0000
# 6 0.0000 0.0000 0.0000 0.0000 0.0000 16.2080
#
#
#
# Elastic Compliance Matrix: (Units=1/GPa)
#
#
# Indices 1 2 3 4 5 6 
#
# 1 0.018595 -0.002832 -0.005895 0.000000 0.000000 0.000000
# 2 -0.002832 0.018596 -0.005895 0.000000 0.000000 0.000000
# 3 -0.005895 -0.005895 0.014227 0.000000 0.000000 0.000000
# 4 0.000000 0.000000 0.000000 0.047068 0.000000 0.000000
# 5 0.000000 0.000000 0.000000 0.000000 0.047068 0.000000
# 6 0.000000 0.000000 0.000000 0.000000 0.000000 0.061698
#
#
# Mechanical properties :
#
#
# Convention : Reuss Voigt Hill
#
# Bulk Modulus (GPa) = 45.10035 48.67702 46.88869
# Shear Modulus (GPa) = 20.50126 21.18268 20.84197
#
# Velocity S-wave (km/s) = 3.39996 3.45600 3.42809
# Velocity P-wave (km/s) = 6.39084 6.58573 6.48902
#
# Compressibility (1/GPa) = 0.02217278
#
# Stress axis : x y z
#
# Youngs Moduli (GPa) = 53.77655 53.77598 70.29086
#
# Poissons Ratio (x) = 0.15232 0.41436
# Poissons Ratio (y) = 0.15232 0.41437
# Poissons Ratio (z) = 0.31701 0.31701
#
# Static dielectric constant tensor:
#      x y z
#    x 3.239890 0.000000 0.000000 
#    y 0.000000 3.239890 0.000000 
#    z 0.000000 0.000000 3.340180 
# 
# 
# High freq. dielectric constant tensor:
#      x y z
#    x 1.668940 0.000000 0.000000 
#    y 0.000000 1.668940 0.000000 
#    z 0.000000 0.000000 1.681710 
# 
# From -- ./inp_files/6804.got.cif
#   From: 2010.06.25/outbox.cif.g09.slc.cpg/sg140_4_cif.got.tgz:6804.got - 2010.06.28 10:53:23.
