data_PCOD8320811
_publ_section_title
;
Structure prediction by ZEFSAII (Michael W. Deem and Ramdas Pophale) SiO2 
 PCOD8320811
Probable space group: I 41/A M D
;
_chemical_formula_sum "Si O2"
_cell_formula_units_Z 144
_cell_length_a 20.401758
_cell_length_b 20.401758
_cell_length_c 17.290959
_cell_angle_alpha 90.000000
_cell_angle_beta 90.000000
_cell_angle_gamma 90.000000
_cell_volume 7197.045769
_symmetry_space_group_name_H-M "I 41/A M D"
_symmetry_group_IT_number 141
_space_group.IT_coordinate_system_code '2'
_symmetry_cell_setting 'tetragonal'
loop_
_space_group_symop_operation_xyz
x,y,z
1/4-y,3/4+x,1/4+z
-x,1/2-y,z
1/4+y,1/4-x,3/4+z
x,-y,-z
-x,1/2+y,-z
1/4+y,3/4+x,1/4-z
1/4-y,1/4-x,3/4-z
-x,-y,-z
3/4+y,1/4-x,3/4-z
x,1/2+y,-z
3/4-y,3/4+x,1/4-z
-x,y,z
x,1/2-y,z
3/4-y,1/4-x,3/4+z
3/4+y,3/4+x,1/4+z
1/2+x,1/2+y,1/2+z
3/4-y,1/4+x,3/4+z
1/2-x,-y,1/2+z
3/4+y,3/4-x,1/4+z
1/2+x,1/2-y,1/2-z
1/2-x,y,1/2-z
3/4+y,1/4+x,3/4-z
3/4-y,3/4-x,1/4-z
1/2-x,1/2-y,1/2-z
1/4+y,3/4-x,1/4-z
1/2+x,y,1/2-z
1/4-y,1/4+x,3/4-z
1/2-x,1/2+y,1/2+z
1/2+x,-y,1/2+z
1/4-y,3/4-x,1/4+z
1/4+y,1/4+x,3/4+z
loop_
_atom_site_type_symbol
_atom_site_label
_atom_site_fract_x
_atom_site_fract_y
_atom_site_fract_z
Si Si1 0.250000 0.910004 0.750000
Si Si2 0.687748 0.174178 0.796850
Si Si3 0.275153 0.866698 0.040511
Si Si4 0.576153 0.619970 0.299602
Si Si5 0.574910 0.429926 0.127394
O O1 0.192779 0.958518 0.777239
O O2 0.271438 0.864218 0.820999
O O3 0.691173 0.250000 0.779369
O O4 0.750000 0.142023 0.750000
O O5 0.683682 0.159622 0.887582
O O6 0.617355 0.148709 0.770395
O O7 0.201240 0.855212 0.067157
O O8 0.291142 0.825629 0.963706
O O9 0.585123 0.664878 0.375000
O O10 0.500000 0.617200 0.276335
O O11 0.608216 0.358216 0.125000
O O12 0.500000 0.423317 0.099401
#
# Coordination Sequence:
#
# PCOD8320811 Si02
#       5
#    16  32  32  32  32
#     4  10  23  40  64  94 125 162 208 270 330 380
#     4  11  23  41  62  89 125 168 213 262 318 381
#     4  11  23  40  64  93 125 163 216 269 322 377
#     4  12  25  40  63  91 127 171 216 268 325 389
#     4  10  21  39  63  91 124 161 206 261 324 391
#
# _framework density 20.008209999999998
#
# number of rings (size 3 to 8) (size 9 to 14) (size 15 to 20)
#    0.000    1.111    2.222    4.333    1.556    4.444 
#    0.000    4.444    0.000    5.333    0.000    0.000 
#    0.000    0.000    0.000    0.000    0.000    0.000 
#
# Total GULP energy -892877.394836 kJ/mol
# GULP energy per Si atom -12401.074928 kJ/mol
# Density = 1.996267 g / cm^3
# Si number density = 20.008210 Si / 1000 Ang^3
#
#
#
# Elastic Constant Matrix: (Units=GPa)
#
#
# Indices 1 2 3 4 5 6 
#
# 1 147.7003 41.3619 40.2555 0.0000 0.0000 0.0000
# 2 41.3619 147.6990 40.2519 0.0000 0.0000 0.0000
# 3 40.2555 40.2519 118.5860 0.0000 0.0000 0.0000
# 4 0.0000 0.0000 0.0000 24.1258 0.0000 0.0000
# 5 0.0000 0.0000 0.0000 0.0000 24.1239 0.0000
# 6 0.0000 0.0000 0.0000 0.0000 0.0000 7.4787
#
#
#
# Elastic Compliance Matrix: (Units=1/GPa)
#
#
# Indices 1 2 3 4 5 6 
#
# 1 0.007794 -0.001610 -0.002099 0.000000 0.000000 0.000000
# 2 -0.001610 0.007793 -0.002099 0.000000 0.000000 0.000000
# 3 -0.002099 -0.002099 0.009858 0.000000 0.000000 0.000000
# 4 0.000000 0.000000 0.000000 0.041449 0.000000 0.000000
# 5 0.000000 0.000000 0.000000 0.000000 0.041453 0.000000
# 6 0.000000 0.000000 0.000000 0.000000 0.000000 0.133712
#
#
# Mechanical properties :
#
#
# Convention : Reuss Voigt Hill
#
# Bulk Modulus (GPa) = 72.31514 73.08043 72.69779
# Shear Modulus (GPa) = 19.35847 30.62008 24.98928
#
# Velocity S-wave (km/s) = 3.11388 3.91625 3.53788
# Velocity P-wave (km/s) = 7.01067 7.55340 7.28709
#
# Compressibility (1/GPa) = 0.01382836
#
# Stress axis : x y z
#
# Youngs Moduli (GPa) = 128.31146 128.31249 101.44491
#
# Poissons Ratio (x) = 0.20665 0.21293
# Poissons Ratio (y) = 0.20664 0.21290
# Poissons Ratio (z) = 0.26932 0.26928
#
# Static dielectric constant tensor:
#      x y z
#    x 3.642470 0.000000 0.000000 
#    y 0.000000 3.642480 0.000000 
#    z 0.000000 0.000000 3.660060 
# 
# 
# High freq. dielectric constant tensor:
#      x y z
#    x 1.781220 0.000000 0.000000 
#    y 0.000000 1.781220 0.000000 
#    z 0.000000 0.000000 1.792200 
# 
# From -- ./inp_files/8442.got.cif
#   From: 2010.03.12/outbox.cif.g09.slc.cpg/sg141_5_cif.got.tgz:8442.got - 2010.04.03 13:18:35.
