data_PCOD8320233
_publ_section_title
;
Structure prediction by ZEFSAII (Michael W. Deem and Ramdas Pophale) SiO2 
 PCOD8320233
Probable space group: I 4/M C M
;
_chemical_formula_sum "Si O2"
_cell_formula_units_Z 160
_cell_length_a 18.998925
_cell_length_b 18.998925
_cell_length_c 25.204340
_cell_angle_alpha 90.000000
_cell_angle_beta 90.000000
_cell_angle_gamma 90.000000
_cell_volume 9097.737172
_symmetry_space_group_name_H-M "I 4/M C M"
_symmetry_group_IT_number 140
_symmetry_cell_setting 'tetragonal'
loop_
_space_group_symop_operation_xyz
x,y,z
-y,x,z
-x,-y,z
y,-x,z
x,-y,1/2-z
-x,y,1/2-z
y,x,1/2-z
-y,-x,1/2-z
-x,-y,-z
y,-x,-z
x,y,-z
-y,x,-z
-x,y,1/2+z
x,-y,1/2+z
-y,-x,1/2+z
y,x,1/2+z
1/2+x,1/2+y,1/2+z
1/2-y,1/2+x,1/2+z
1/2-x,1/2-y,1/2+z
1/2+y,1/2-x,1/2+z
1/2+x,1/2-y,-z
1/2-x,1/2+y,-z
1/2+y,1/2+x,-z
1/2-y,1/2-x,-z
1/2-x,1/2-y,1/2-z
1/2+y,1/2-x,1/2-z
1/2+x,1/2+y,1/2-z
1/2-y,1/2+x,1/2-z
1/2-x,1/2+y,z
1/2+x,1/2-y,z
1/2-y,1/2-x,z
1/2+y,1/2+x,z
loop_
_atom_site_type_symbol
_atom_site_label
_atom_site_fract_x
_atom_site_fract_y
_atom_site_fract_z
Si Si1 0.943493 0.556508 0.442821
Si Si2 0.329305 0.991579 0.362779
Si Si3 0.257802 0.242198 0.370765
Si Si4 0.846082 0.851302 0.940266
Si Si5 0.136885 0.636885 0.313115
Si Si6 0.495526 0.705967 0.060245
Si Si7 0.342735 0.842735 0.309524
O O1 0.914179 0.585822 0.500000
O O2 0.884066 0.518972 0.409489
O O3 0.000000 0.500000 0.457948
O O4 0.350500 0.054115 0.323162
O O5 0.261219 0.016651 0.393553
O O6 0.319739 0.919323 0.330654
O O7 0.200812 0.199598 0.404564
O O8 0.313631 0.186370 0.348537
O O9 0.215214 0.284787 0.325737
O O10 0.832658 0.932133 0.926154
O O11 0.929751 0.845729 0.933237
O O12 0.822952 0.833324 0.000000
O O13 0.154987 0.654987 0.253254
O O14 0.497226 0.737483 0.000000
#
# Coordination Sequence:
#
# PCOD8320233 Si02
#       7
#    16  32  16  32  16  32  16
#     4  10  20  33  51  80 113 148 182 216 272 343
#     4  11  21  39  56  80 117 148 188 236 283 338
#     4  12  21  39  59  84 119 141 191 244 286 341
#     4  10  21  36  58  88 117 150 186 229 286 347
#     4  12  24  39  59  84 109 151 198 247 281 331
#     4  10  20  36  58  85 115 150 186 226 284 346
#     4  11  25  39  60  81 110 152 199 239 291 329
#
# _framework density 17.586791000000002
#
# number of rings (size 3 to 8) (size 9 to 14) (size 15 to 20)
#    0.000    1.300    5.000    1.800    0.000    0.400 
#    0.000    3.000    0.000    0.000    0.000    0.000 
#    0.000    3.200    0.000    0.000    0.000    0.000 
#
# Total GULP energy -991596.948950 kJ/mol
# GULP energy per Si atom -12394.961862 kJ/mol
# Density = 1.754676 g / cm^3
# Si number density = 17.586791 Si / 1000 Ang^3
#
#
#
# Elastic Constant Matrix: (Units=GPa)
#
#
# Indices 1 2 3 4 5 6 
#
# 1 97.9690 20.3599 30.5035 0.0000 0.0000 0.0000
# 2 20.3599 97.9694 30.5036 0.0000 0.0000 0.0000
# 3 30.5035 30.5036 92.3784 0.0000 0.0000 0.0000
# 4 0.0000 0.0000 0.0000 41.2478 0.0000 0.0000
# 5 0.0000 0.0000 0.0000 0.0000 41.2473 0.0000
# 6 0.0000 0.0000 0.0000 0.0000 0.0000 30.9783
#
#
#
# Elastic Compliance Matrix: (Units=1/GPa)
#
#
# Indices 1 2 3 4 5 6 
#
# 1 0.011535 -0.001350 -0.003363 0.000000 0.000000 0.000000
# 2 -0.001350 0.011535 -0.003363 0.000000 0.000000 0.000000
# 3 -0.003363 -0.003363 0.013046 0.000000 0.000000 0.000000
# 4 0.000000 0.000000 0.000000 0.024244 0.000000 0.000000
# 5 0.000000 0.000000 0.000000 0.000000 0.024244 0.000000
# 6 0.000000 0.000000 0.000000 0.000000 0.000000 0.032281
#
#
# Mechanical properties :
#
#
# Convention : Reuss Voigt Hill
#
# Bulk Modulus (GPa) = 50.09134 50.11678 50.10406
# Shear Modulus (GPa) = 35.79318 36.49133 36.14225
#
# Velocity S-wave (km/s) = 4.51625 4.56008 4.53822
# Velocity P-wave (km/s) = 7.46589 7.50230 7.48412
#
# Compressibility (1/GPa) = 0.01996353
#
# Stress axis : x y z
#
# Youngs Moduli (GPa) = 86.69266 86.69293 76.65161
#
# Poissons Ratio (x) = 0.11704 0.25779
# Poissons Ratio (y) = 0.11704 0.25779
# Poissons Ratio (z) = 0.29155 0.29156
#
# Static dielectric constant tensor:
#      x y z
#    x 3.684900 0.000000 0.000000 
#    y 0.000000 3.684890 0.000000 
#    z 0.000000 0.000000 3.287480 
# 
# 
# High freq. dielectric constant tensor:
#      x y z
#    x 1.685840 0.000000 0.000000 
#    y 0.000000 1.685850 0.000000 
#    z 0.000000 0.000000 1.679910 
# 
# From -- ./inp_files/10614.got.cif
#   From: 2010.06.25/outbox.cif.g09.slc.cpg/sg140_6_cif.got.tgz:10614.got - 2010.06.28 10:53:23.
