data_PCOD8320680
_publ_section_title
;
Structure prediction by ZEFSAII (Michael W. Deem and Ramdas Pophale) SiO2 
 PCOD8320680
Probable space group: I 41/A M D
;
_chemical_formula_sum "Si O2"
_cell_formula_units_Z 96
_cell_length_a 13.349316
_cell_length_b 13.349316
_cell_length_c 26.391716
_cell_angle_alpha 90.000000
_cell_angle_beta 90.000000
_cell_angle_gamma 90.000000
_cell_volume 4703.115631
_symmetry_space_group_name_H-M "I 41/A M D"
_symmetry_group_IT_number 141
_space_group.IT_coordinate_system_code '2'
_symmetry_cell_setting 'tetragonal'
loop_
_space_group_symop_operation_xyz
x,y,z
1/4-y,3/4+x,1/4+z
-x,1/2-y,z
1/4+y,1/4-x,3/4+z
x,-y,-z
-x,1/2+y,-z
1/4+y,3/4+x,1/4-z
1/4-y,1/4-x,3/4-z
-x,-y,-z
3/4+y,1/4-x,3/4-z
x,1/2+y,-z
3/4-y,3/4+x,1/4-z
-x,y,z
x,1/2-y,z
3/4-y,1/4-x,3/4+z
3/4+y,3/4+x,1/4+z
1/2+x,1/2+y,1/2+z
3/4-y,1/4+x,3/4+z
1/2-x,-y,1/2+z
3/4+y,3/4-x,1/4+z
1/2+x,1/2-y,1/2-z
1/2-x,y,1/2-z
3/4+y,1/4+x,3/4-z
3/4-y,3/4-x,1/4-z
1/2-x,1/2-y,1/2-z
1/4+y,3/4-x,1/4-z
1/2+x,y,1/2-z
1/4-y,1/4+x,3/4-z
1/2-x,1/2+y,1/2+z
1/2+x,-y,1/2+z
1/4-y,3/4-x,1/4+z
1/4+y,1/4+x,3/4+z
loop_
_atom_site_type_symbol
_atom_site_label
_atom_site_fract_x
_atom_site_fract_y
_atom_site_fract_z
Si Si1 0.787627 0.867989 0.576647
Si Si2 0.611881 0.368473 0.974733
Si Si3 0.383271 0.478643 0.376630
O O1 0.774181 0.750000 0.571974
O O2 0.855367 0.894634 0.625000
O O3 0.841028 0.913337 0.526470
O O4 0.676855 0.916534 0.580758
O O5 0.500000 0.411864 0.966797
O O6 0.606748 0.250000 0.980387
O O7 0.679593 0.396604 0.926869
O O8 0.500000 0.476443 0.389473
O O9 0.343280 0.593280 0.375000
#
# Coordination Sequence:
#
# PCOD8320680 Si02
#       3
#    32  32  32
#     4  10  20  33  54  86 117 145 180 220 267 329
#     4   9  18  35  58  82 112 147 177 213 271 337
#     4  10  22  39  57  78 106 145 192 235 277 323
#
# _framework density 20.412001
#
# number of rings (size 3 to 8) (size 9 to 14) (size 15 to 20)
#    0.000    2.333    0.000    2.000    0.000    9.333 
#    0.000   11.667    0.000    6.000    0.000    0.000 
#    0.000    0.000    0.000    0.000    0.000    0.000 
#
# Total GULP energy -595203.662143 kJ/mol
# GULP energy per Si atom -12400.076295 kJ/mol
# Density = 2.036554 g / cm^3
# Si number density = 20.412001 Si / 1000 Ang^3
#
#
#
# Elastic Constant Matrix: (Units=GPa)
#
#
# Indices 1 2 3 4 5 6 
#
# 1 117.6004 41.8893 45.4538 0.0000 0.0000 0.0000
# 2 41.8893 117.6035 45.4537 0.0000 0.0000 0.0000
# 3 45.4538 45.4537 108.8489 0.0000 0.0000 0.0000
# 4 0.0000 0.0000 0.0000 33.8043 0.0000 0.0000
# 5 0.0000 0.0000 0.0000 0.0000 33.8043 0.0000
# 6 0.0000 0.0000 0.0000 0.0000 0.0000 31.1112
#
#
#
# Elastic Compliance Matrix: (Units=1/GPa)
#
#
# Indices 1 2 3 4 5 6 
#
# 1 0.010718 -0.002490 -0.003436 0.000000 0.000000 0.000000
# 2 -0.002490 0.010718 -0.003436 0.000000 0.000000 0.000000
# 3 -0.003436 -0.003436 0.012057 0.000000 0.000000 0.000000
# 4 0.000000 0.000000 0.000000 0.029582 0.000000 0.000000
# 5 0.000000 0.000000 0.000000 0.000000 0.029582 0.000000
# 6 0.000000 0.000000 0.000000 0.000000 0.000000 0.032143
#
#
# Mechanical properties :
#
#
# Convention : Reuss Voigt Hill
#
# Bulk Modulus (GPa) = 67.70784 67.73846 67.72315
# Shear Modulus (GPa) = 33.68214 33.82771 33.75493
#
# Velocity S-wave (km/s) = 4.06657 4.07535 4.07096
# Velocity P-wave (km/s) = 7.43585 7.44327 7.43956
#
# Compressibility (1/GPa) = 0.01476934
#
# Stress axis : x y z
#
# Youngs Moduli (GPa) = 93.29828 93.30129 82.94103
#
# Poissons Ratio (x) = 0.23229 0.28500
# Poissons Ratio (y) = 0.23228 0.28499
# Poissons Ratio (z) = 0.32059 0.32058
#
# Static dielectric constant tensor:
#      x y z
#    x 3.740820 0.000000 0.000000 
#    y 0.000000 3.740820 0.000000 
#    z 0.000000 0.000000 3.837160 
# 
# 
# High freq. dielectric constant tensor:
#      x y z
#    x 1.804200 0.000000 0.000000 
#    y 0.000000 1.804200 0.000000 
#    z 0.000000 0.000000 1.793030 
# 
# From -- ./inp_files/9736.got.cif
#   From: 2010.03.12/outbox.cif.g09.slc.cpg/sg141_5_cif.got.tgz:9736.got - 2010.04.03 13:18:35.
