data_PCOD8320292
_publ_section_title
;
Structure prediction by ZEFSAII (Michael W. Deem and Ramdas Pophale) SiO2 
 PCOD8320292
Probable space group: I 4/M C M
;
_chemical_formula_sum "Si O2"
_cell_formula_units_Z 160
_cell_length_a 22.745205
_cell_length_b 22.745205
_cell_length_c 17.220521
_cell_angle_alpha 90.000000
_cell_angle_beta 90.000000
_cell_angle_gamma 90.000000
_cell_volume 8908.939252
_symmetry_space_group_name_H-M "I 4/M C M"
_symmetry_group_IT_number 140
_symmetry_cell_setting 'tetragonal'
loop_
_space_group_symop_operation_xyz
x,y,z
-y,x,z
-x,-y,z
y,-x,z
x,-y,1/2-z
-x,y,1/2-z
y,x,1/2-z
-y,-x,1/2-z
-x,-y,-z
y,-x,-z
x,y,-z
-y,x,-z
-x,y,1/2+z
x,-y,1/2+z
-y,-x,1/2+z
y,x,1/2+z
1/2+x,1/2+y,1/2+z
1/2-y,1/2+x,1/2+z
1/2-x,1/2-y,1/2+z
1/2+y,1/2-x,1/2+z
1/2+x,1/2-y,-z
1/2-x,1/2+y,-z
1/2+y,1/2+x,-z
1/2-y,1/2-x,-z
1/2-x,1/2-y,1/2-z
1/2+y,1/2-x,1/2-z
1/2+x,1/2+y,1/2-z
1/2-y,1/2+x,1/2-z
1/2-x,1/2+y,z
1/2+x,1/2-y,z
1/2-y,1/2-x,z
1/2+y,1/2+x,z
loop_
_atom_site_type_symbol
_atom_site_label
_atom_site_fract_x
_atom_site_fract_y
_atom_site_fract_z
Si Si1 0.092233 0.497725 0.592293
Si Si2 0.119386 0.875217 0.341524
Si Si3 0.258545 0.335957 0.907698
Si Si4 0.040773 0.286956 0.909830
Si Si5 0.838043 0.002842 0.590445
O O1 0.095772 0.494300 0.500000
O O2 0.051499 0.551499 0.618500
O O3 0.156552 0.509346 0.629380
O O4 0.063515 0.436486 0.623332
O O5 0.123702 0.876299 0.250000
O O6 0.163106 0.824212 0.372730
O O7 0.052110 0.866919 0.366222
O O8 0.139123 0.936958 0.375503
O O9 0.222371 0.277629 0.882026
O O10 0.224572 0.393864 0.875877
O O11 0.265061 0.338754 0.000000
O O12 0.998455 0.231832 0.895499
O O13 0.049372 0.300308 0.000000
O O14 0.853874 0.997664 0.500000
#
# Coordination Sequence:
#
# PCOD8320292 Si02
#       5
#    32  32  32  32  32
#     4   8  12  18  32  59  95 129 158 192 237 285
#     4  11  22  36  54  78 106 133 164 207 261 312
#     4   9  17  31  52  75  99 133 177 216 249 293
#     4   8  14  25  43  66  93 126 165 207 245 285
#     4  10  20  36  55  74  98 131 170 209 251 305
#
# _framework density 17.959489000000001
#
# number of rings (size 3 to 8) (size 9 to 14) (size 15 to 20)
#    0.000    2.800    0.000    4.800    0.000    3.200 
#    0.000    3.000    0.000    3.600    0.000    0.000 
#    0.000    0.000    0.000   31.600    0.000   29.200 
#
# Total GULP energy -991441.256420 kJ/mol
# GULP energy per Si atom -12393.015705 kJ/mol
# Density = 1.791861 g / cm^3
# Si number density = 17.959489 Si / 1000 Ang^3
#
#
#
# Elastic Constant Matrix: (Units=GPa)
#
#
# Indices 1 2 3 4 5 6 
#
# 1 105.9242 95.1406 45.6933 0.0000 0.0000 0.0000
# 2 95.1406 105.9309 45.6975 0.0000 0.0000 0.0000
# 3 45.6933 45.6975 61.1506 0.0000 0.0000 0.0000
# 4 0.0000 0.0000 0.0000 13.1435 0.0000 0.0000
# 5 0.0000 0.0000 0.0000 0.0000 13.1437 0.0000
# 6 0.0000 0.0000 0.0000 0.0000 0.0000 30.9628
#
#
#
# Elastic Compliance Matrix: (Units=1/GPa)
#
#
# Indices 1 2 3 4 5 6 
#
# 1 0.050118 -0.042587 -0.005625 0.000000 0.000000 0.000000
# 2 -0.042587 0.050118 -0.005631 0.000000 0.000000 0.000000
# 3 -0.005625 -0.005631 0.024764 0.000000 0.000000 0.000000
# 4 0.000000 0.000000 0.000000 0.076083 0.000000 0.000000
# 5 0.000000 0.000000 0.000000 0.000000 0.076082 0.000000
# 6 0.000000 0.000000 0.000000 0.000000 0.000000 0.032297
#
#
# Mechanical properties :
#
#
# Convention : Reuss Voigt Hill
#
# Bulk Modulus (GPa) = 57.75253 71.78541 64.76897
# Shear Modulus (GPa) = 11.82257 17.21494 14.51876
#
# Velocity S-wave (km/s) = 2.56850 3.09939 2.84635
# Velocity P-wave (km/s) = 6.40493 7.27089 6.85161
#
# Compressibility (1/GPa) = 0.01731526
#
# Stress axis : x y z
#
# Youngs Moduli (GPa) = 19.95275 19.95288 40.38078
#
# Poissons Ratio (x) = 0.84973 0.22714
# Poissons Ratio (y) = 0.84972 0.22739
# Poissons Ratio (z) = 0.11223 0.11236
#
# Static dielectric constant tensor:
#      x y z
#    x 3.574770 0.000000 0.000000 
#    y 0.000000 3.574770 0.000000 
#    z 0.000000 0.000000 2.956750 
# 
# 
# High freq. dielectric constant tensor:
#      x y z
#    x 1.699090 0.000000 0.000000 
#    y 0.000000 1.699090 0.000000 
#    z 0.000000 0.000000 1.653840 
# 
# From -- ./inp_files/6863.got.cif
#   From: 2010.06.25/outbox.cif.g09.slc.cpg/sg140_4_cif.got.tgz:6863.got - 2010.06.28 10:53:23.
