data_PCOD8320109
_publ_section_title
;
Structure prediction by ZEFSAII (Michael W. Deem and Ramdas Pophale) SiO2 
 PCOD8320109
Probable space group: I 4/M C M
;
_chemical_formula_sum "Si O2"
_cell_formula_units_Z 160
_cell_length_a 25.250793
_cell_length_b 25.250793
_cell_length_c 14.501419
_cell_angle_alpha 90.000000
_cell_angle_beta 90.000000
_cell_angle_gamma 90.000000
_cell_volume 9246.141691
_symmetry_space_group_name_H-M "I 4/M C M"
_symmetry_group_IT_number 140
_symmetry_cell_setting 'tetragonal'
loop_
_space_group_symop_operation_xyz
x,y,z
-y,x,z
-x,-y,z
y,-x,z
x,-y,1/2-z
-x,y,1/2-z
y,x,1/2-z
-y,-x,1/2-z
-x,-y,-z
y,-x,-z
x,y,-z
-y,x,-z
-x,y,1/2+z
x,-y,1/2+z
-y,-x,1/2+z
y,x,1/2+z
1/2+x,1/2+y,1/2+z
1/2-y,1/2+x,1/2+z
1/2-x,1/2-y,1/2+z
1/2+y,1/2-x,1/2+z
1/2+x,1/2-y,-z
1/2-x,1/2+y,-z
1/2+y,1/2+x,-z
1/2-y,1/2-x,-z
1/2-x,1/2-y,1/2-z
1/2+y,1/2-x,1/2-z
1/2+x,1/2+y,1/2-z
1/2-y,1/2+x,1/2-z
1/2-x,1/2+y,z
1/2+x,1/2-y,z
1/2-y,1/2-x,z
1/2+y,1/2+x,z
loop_
_atom_site_type_symbol
_atom_site_label
_atom_site_fract_x
_atom_site_fract_y
_atom_site_fract_z
Si Si1 0.959017 0.688544 0.896296
Si Si2 0.674987 0.587687 0.751913
Si Si3 0.500676 0.305990 0.893434
Si Si4 0.851064 0.433721 0.893869
Si Si5 0.789776 0.373522 0.747065
O O1 0.990032 0.743681 0.885039
O O2 0.908198 0.682744 0.832837
O O3 0.004174 0.646241 0.866085
O O4 0.938804 0.679829 0.000000
O O5 0.623459 0.623459 0.750000
O O6 0.666941 0.549804 0.840400
O O7 0.679319 0.554028 0.657619
O O8 0.726404 0.625808 0.763504
O O9 0.498588 0.325089 0.000000
O O10 0.908713 0.408713 0.873963
O O11 0.805612 0.400443 0.842890
O O12 0.834341 0.429275 0.000000
O O13 0.813786 0.313786 0.740211
#
# Coordination Sequence:
#
# PCOD8320109 Si02
#       5
#    32  32  32  32  32
#     4   9  16  29  49  68  90 127 174 216 248 285
#     4  10  20  33  52  79 106 131 165 205 245 297
#     4   9  18  34  54  74  98 130 170 211 246 287
#     4   9  16  26  44  70  95 123 165 213 256 294
#     4  10  19  30  46  70 103 138 167 199 245 299
#
# _framework density 17.304514999999999
#
# number of rings (size 3 to 8) (size 9 to 14) (size 15 to 20)
#    0.000    2.600    2.000    0.600    0.000    1.600 
#    0.000    0.000    0.000    5.400    0.000   16.800 
#    0.000    0.000    0.000    0.000    0.000    0.000 
#
# Total GULP energy -991547.176597 kJ/mol
# GULP energy per Si atom -12394.339707 kJ/mol
# Density = 1.726513 g / cm^3
# Si number density = 17.304515 Si / 1000 Ang^3
#
#
#
# Elastic Constant Matrix: (Units=GPa)
#
#
# Indices 1 2 3 4 5 6 
#
# 1 73.1890 43.3097 34.3420 0.0000 0.0000 0.0000
# 2 43.3097 73.1890 34.3420 0.0000 0.0000 0.0000
# 3 34.3420 34.3420 100.6247 0.0000 0.0000 0.0000
# 4 0.0000 0.0000 0.0000 18.7353 0.0000 0.0000
# 5 0.0000 0.0000 0.0000 0.0000 18.7353 0.0000
# 6 0.0000 0.0000 0.0000 0.0000 0.0000 31.7146
#
#
#
# Elastic Compliance Matrix: (Units=1/GPa)
#
#
# Indices 1 2 3 4 5 6 
#
# 1 0.022107 -0.011361 -0.003667 0.000000 0.000000 0.000000
# 2 -0.011361 0.022107 -0.003667 0.000000 0.000000 0.000000
# 3 -0.003667 -0.003667 0.012441 0.000000 0.000000 0.000000
# 4 0.000000 0.000000 0.000000 0.053375 0.000000 0.000000
# 5 0.000000 0.000000 0.000000 0.000000 0.053375 0.000000
# 6 0.000000 0.000000 0.000000 0.000000 0.000000 0.031531
#
#
# Mechanical properties :
#
#
# Convention : Reuss Voigt Hill
#
# Bulk Modulus (GPa) = 51.91204 52.33222 52.12213
# Shear Modulus (GPa) = 20.94242 22.83765 21.89003
#
# Velocity S-wave (km/s) = 3.48261 3.63678 3.56053
# Velocity P-wave (km/s) = 6.79968 6.92405 6.86215
#
# Compressibility (1/GPa) = 0.01926336
#
# Stress axis : x y z
#
# Youngs Moduli (GPa) = 45.23445 45.23445 80.37774
#
# Poissons Ratio (x) = 0.51391 0.29478
# Poissons Ratio (y) = 0.51391 0.29478
# Poissons Ratio (z) = 0.16590 0.16590
#
# Static dielectric constant tensor:
#      x y z
#    x 3.033500 0.000000 0.000000 
#    y 0.000000 3.033500 0.000000 
#    z 0.000000 0.000000 3.455140 
# 
# 
# High freq. dielectric constant tensor:
#      x y z
#    x 1.644230 0.000000 0.000000 
#    y 0.000000 1.644230 0.000000 
#    z 0.000000 0.000000 1.681220 
# 
# From -- ./inp_files/4724.got.cif
#   From: 2010.06.25/outbox.cif.g09.slc.cpg/sg140_3_cif.got.tgz:4724.got - 2010.06.28 10:53:23.
