data_PCOD8320026
_publ_section_title
;
Structure prediction by ZEFSAII (Michael W. Deem and Ramdas Pophale) SiO2 
 PCOD8320026
Probable space group: I 4/M M M
;
_chemical_formula_sum "Si O2"
_cell_formula_units_Z 112
_cell_length_a 13.669602
_cell_length_b 13.669602
_cell_length_c 38.621365
_cell_angle_alpha 90.000000
_cell_angle_beta 90.000000
_cell_angle_gamma 90.000000
_cell_volume 7216.711749
_symmetry_space_group_name_H-M "I 4/M M M"
_symmetry_group_IT_number 139
_symmetry_cell_setting 'tetragonal'
loop_
_space_group_symop_operation_xyz
x,y,z
-y,x,z
-x,-y,z
y,-x,z
x,-y,-z
-x,y,-z
y,x,-z
-y,-x,-z
-x,-y,-z
y,-x,-z
x,y,-z
-y,x,-z
-x,y,z
x,-y,z
-y,-x,z
y,x,z
1/2+x,1/2+y,1/2+z
1/2-y,1/2+x,1/2+z
1/2-x,1/2-y,1/2+z
1/2+y,1/2-x,1/2+z
1/2+x,1/2-y,1/2-z
1/2-x,1/2+y,1/2-z
1/2+y,1/2+x,1/2-z
1/2-y,1/2-x,1/2-z
1/2-x,1/2-y,1/2-z
1/2+y,1/2-x,1/2-z
1/2+x,1/2+y,1/2-z
1/2-y,1/2+x,1/2-z
1/2-x,1/2+y,1/2+z
1/2+x,1/2-y,1/2+z
1/2-y,1/2-x,1/2+z
1/2+y,1/2+x,1/2+z
loop_
_atom_site_type_symbol
_atom_site_label
_atom_site_fract_x
_atom_site_fract_y
_atom_site_fract_z
Si Si1 0.608149 0.230881 0.407509
Si Si2 0.000000 0.615586 0.959969
Si Si3 0.269127 0.889348 0.274725
Si Si4 0.887511 0.730970 0.354037
O O1 0.500000 0.269968 0.396521
O O2 0.677936 0.322065 0.415943
O O3 0.596653 0.162630 0.441812
O O4 0.648483 0.164544 0.376619
O O5 0.000000 0.500000 0.954328
O O6 0.000000 0.644481 0.000000
O O7 0.173606 0.826395 0.266033
O O8 0.358074 0.858074 0.250000
O O9 0.303030 0.876744 0.314365
O O10 0.240135 0.000000 0.266584
O O11 0.835901 0.835901 0.359875
O O12 0.000000 0.742383 0.365213
#
# Coordination Sequence:
#
# PCOD8320026 Si02
#       4
#    32  16  32  32
#     4   9  19  32  48  70  95 127 161 194 234 281
#     4   9  18  32  51  73  97 125 158 196 235 279
#     4   9  18  31  46  66  92 120 154 198 241 285
#     4   9  17  30  48  69  93 122 156 196 243 291
#
# _framework density 15.519532999999999
#
# number of rings (size 3 to 8) (size 9 to 14) (size 15 to 20)
#    0.857    2.143    0.000    0.857    0.000    2.857 
#    0.000    5.714    0.000    0.857    0.000    8.000 
#    0.000    0.000    0.000   26.571    0.000    0.286 
#
# Total GULP energy -694080.929420 kJ/mol
# GULP energy per Si atom -12394.302311 kJ/mol
# Density = 1.548421 g / cm^3
# Si number density = 15.519533 Si / 1000 Ang^3
#
#
#
# Elastic Constant Matrix: (Units=GPa)
#
#
# Indices 1 2 3 4 5 6 
#
# 1 110.7700 58.1860 58.6384 0.0000 0.0000 0.0000
# 2 58.1860 110.7700 58.6384 0.0000 0.0000 0.0000
# 3 58.6384 58.6384 87.3800 0.0000 0.0000 0.0000
# 4 0.0000 0.0000 0.0000 24.2205 0.0000 0.0000
# 5 0.0000 0.0000 0.0000 0.0000 24.2205 0.0000
# 6 0.0000 0.0000 0.0000 0.0000 0.0000 18.5176
#
#
#
# Elastic Compliance Matrix: (Units=1/GPa)
#
#
# Indices 1 2 3 4 5 6 
#
# 1 0.015048 -0.003969 -0.007435 0.000000 0.000000 0.000000
# 2 -0.003969 0.015048 -0.007435 0.000000 0.000000 0.000000
# 3 -0.007435 -0.007435 0.021424 0.000000 0.000000 0.000000
# 4 0.000000 0.000000 0.000000 0.041287 0.000000 0.000000
# 5 0.000000 0.000000 0.000000 0.000000 0.041287 0.000000
# 6 0.000000 0.000000 0.000000 0.000000 0.000000 0.054003
#
#
# Mechanical properties :
#
#
# Convention : Reuss Voigt Hill
#
# Bulk Modulus (GPa) = 72.24514 73.31620 72.78067
# Shear Modulus (GPa) = 21.70225 22.28884 21.99554
#
# Velocity S-wave (km/s) = 3.74355 3.79381 3.76876
# Velocity P-wave (km/s) = 8.08318 8.15686 8.12010
#
# Compressibility (1/GPa) = 0.01384176
#
# Stress axis : x y z
#
# Youngs Moduli (GPa) = 66.45187 66.45186 46.67749
#
# Poissons Ratio (x) = 0.26373 0.34706
# Poissons Ratio (y) = 0.26373 0.34706
# Poissons Ratio (z) = 0.49409 0.49409
#
# Static dielectric constant tensor:
#      x y z
#    x 2.923360 0.000000 0.000000 
#    y 0.000000 2.923360 0.000000 
#    z 0.000000 0.000000 2.941890 
# 
# 
# High freq. dielectric constant tensor:
#      x y z
#    x 1.592130 0.000000 0.000000 
#    y 0.000000 1.592130 0.000000 
#    z 0.000000 0.000000 1.591830 
# 
# From -- ./inp_files/13749.got.cif
#   From: 2010.03.12/outbox.cif.g09.slc.cpg/sg139_7_cif.got.tgz:13749.got - 2010.04.08 09:46:31.
