data_PCOD8320209
_publ_section_title
;
Structure prediction by ZEFSAII (Michael W. Deem and Ramdas Pophale) SiO2 
 PCOD8320209
Probable space group: I 4/M C M
;
_chemical_formula_sum "Si O2"
_cell_formula_units_Z 96
_cell_length_a 23.810164
_cell_length_b 23.810164
_cell_length_c 8.591349
_cell_angle_alpha 90.000000
_cell_angle_beta 90.000000
_cell_angle_gamma 90.000000
_cell_volume 4870.641165
_symmetry_space_group_name_H-M "I 4/M C M"
_symmetry_group_IT_number 140
_symmetry_cell_setting 'tetragonal'
loop_
_space_group_symop_operation_xyz
x,y,z
-y,x,z
-x,-y,z
y,-x,z
x,-y,1/2-z
-x,y,1/2-z
y,x,1/2-z
-y,-x,1/2-z
-x,-y,-z
y,-x,-z
x,y,-z
-y,x,-z
-x,y,1/2+z
x,-y,1/2+z
-y,-x,1/2+z
y,x,1/2+z
1/2+x,1/2+y,1/2+z
1/2-y,1/2+x,1/2+z
1/2-x,1/2-y,1/2+z
1/2+y,1/2-x,1/2+z
1/2+x,1/2-y,-z
1/2-x,1/2+y,-z
1/2+y,1/2+x,-z
1/2-y,1/2-x,-z
1/2-x,1/2-y,1/2-z
1/2+y,1/2-x,1/2-z
1/2+x,1/2+y,1/2-z
1/2-y,1/2+x,1/2-z
1/2-x,1/2+y,z
1/2+x,1/2-y,z
1/2-y,1/2-x,z
1/2+y,1/2+x,z
loop_
_atom_site_type_symbol
_atom_site_label
_atom_site_fract_x
_atom_site_fract_y
_atom_site_fract_z
Si Si1 0.853759 0.646242 0.673236
Si Si2 0.558841 0.646137 0.814640
Si Si3 0.940378 0.269976 0.315027
Si Si4 0.445709 0.945709 0.666747
O O1 0.833699 0.666302 0.500000
O O2 0.884082 0.696268 0.766629
O O3 0.899847 0.600154 0.651112
O O4 0.500000 0.622177 0.750000
O O5 0.608505 0.608505 0.750000
O O6 0.568827 0.708430 0.752516
O O7 0.558255 0.645979 0.000000
O O8 0.944659 0.268715 0.500000
O O9 0.000000 0.294625 0.250000
O O10 0.500000 0.920036 0.750000
O O11 0.466248 0.966248 0.500000
#
# Coordination Sequence:
#
# PCOD8320209 Si02
#       4
#    16  32  32  16
#     4  11  22  36  54  79 108 147 196 245 290 343
#     4  11  22  40  64  92 123 156 191 233 284 343
#     4  11  22  38  59  85 116 155 197 243 294 347
#     4  10  20  31  46  67  97 133 176 229 289 342
#
# _framework density 19.709931000000001
#
# number of rings (size 3 to 8) (size 9 to 14) (size 15 to 20)
#    0.000    1.167    0.000   10.500    0.000    5.667 
#    0.000    2.500    0.000    0.000    0.000    0.000 
#    0.000    0.000    0.000    0.000    0.000    0.000 
#
# Total GULP energy -594911.078595 kJ/mol
# GULP energy per Si atom -12393.980804 kJ/mol
# Density = 1.966507 g / cm^3
# Si number density = 19.709931 Si / 1000 Ang^3
#
#
#
# Elastic Constant Matrix: (Units=GPa)
#
#
# Indices 1 2 3 4 5 6 
#
# 1 106.3902 38.1814 52.1728 0.0000 0.0000 0.0000
# 2 38.1814 106.3906 52.1729 0.0000 0.0000 0.0000
# 3 52.1728 52.1729 220.1426 0.0000 0.0000 0.0000
# 4 0.0000 0.0000 0.0000 36.2381 0.0000 0.0000
# 5 0.0000 0.0000 0.0000 0.0000 36.2383 0.0000
# 6 0.0000 0.0000 0.0000 0.0000 0.0000 44.4654
#
#
#
# Elastic Compliance Matrix: (Units=1/GPa)
#
#
# Indices 1 2 3 4 5 6 
#
# 1 0.011503 -0.003158 -0.001978 0.000000 0.000000 0.000000
# 2 -0.003158 0.011503 -0.001978 0.000000 0.000000 0.000000
# 3 -0.001978 -0.001978 0.005480 0.000000 0.000000 0.000000
# 4 0.000000 0.000000 0.000000 0.027595 0.000000 0.000000
# 5 0.000000 0.000000 0.000000 0.000000 0.027595 0.000000
# 6 0.000000 0.000000 0.000000 0.000000 0.000000 0.022489
#
#
# Mechanical properties :
#
#
# Convention : Reuss Voigt Hill
#
# Bulk Modulus (GPa) = 70.13506 79.77529 74.95518
# Shear Modulus (GPa) = 39.95388 42.74811 41.35100
#
# Velocity S-wave (km/s) = 4.50721 4.66216 4.58534
# Velocity P-wave (km/s) = 7.92133 8.33927 8.13299
#
# Compressibility (1/GPa) = 0.01425820
#
# Stress axis : x y z
#
# Youngs Moduli (GPa) = 86.93699 86.93734 182.48646
#
# Poissons Ratio (x) = 0.27457 0.36088
# Poissons Ratio (y) = 0.27457 0.36088
# Poissons Ratio (z) = 0.17192 0.17192
#
# Static dielectric constant tensor:
#      x y z
#    x 3.677220 0.000000 0.000000 
#    y 0.000000 3.677220 0.000000 
#    z 0.000000 0.000000 4.424300 
# 
# 
# High freq. dielectric constant tensor:
#      x y z
#    x 1.763480 0.000000 0.000000 
#    y 0.000000 1.763480 0.000000 
#    z 0.000000 0.000000 1.796330 
# 
# From -- ./inp_files/962.got.cif
#   From: 2010.06.25/outbox.cif.g09.slc.cpg/sg140_1_cif.got.tgz:962.got - 2010.06.28 10:53:23.
