data_PCOD8320701
_publ_section_title
;
Structure prediction by ZEFSAII (Michael W. Deem and Ramdas Pophale) SiO2 
 PCOD8320701
Probable space group: I 41/A M D
;
_chemical_formula_sum "Si O2"
_cell_formula_units_Z 160
_cell_length_a 25.250906
_cell_length_b 25.250906
_cell_length_c 13.650958
_cell_angle_alpha 90.000000
_cell_angle_beta 90.000000
_cell_angle_gamma 90.000000
_cell_volume 8703.963493
_symmetry_space_group_name_H-M "I 41/A M D"
_symmetry_group_IT_number 141
_space_group.IT_coordinate_system_code '2'
_symmetry_cell_setting 'tetragonal'
loop_
_space_group_symop_operation_xyz
x,y,z
1/4-y,3/4+x,1/4+z
-x,1/2-y,z
1/4+y,1/4-x,3/4+z
x,-y,-z
-x,1/2+y,-z
1/4+y,3/4+x,1/4-z
1/4-y,1/4-x,3/4-z
-x,-y,-z
3/4+y,1/4-x,3/4-z
x,1/2+y,-z
3/4-y,3/4+x,1/4-z
-x,y,z
x,1/2-y,z
3/4-y,1/4-x,3/4+z
3/4+y,3/4+x,1/4+z
1/2+x,1/2+y,1/2+z
3/4-y,1/4+x,3/4+z
1/2-x,-y,1/2+z
3/4+y,3/4-x,1/4+z
1/2+x,1/2-y,1/2-z
1/2-x,y,1/2-z
3/4+y,1/4+x,3/4-z
3/4-y,3/4-x,1/4-z
1/2-x,1/2-y,1/2-z
1/4+y,3/4-x,1/4-z
1/2+x,y,1/2-z
1/4-y,1/4+x,3/4-z
1/2-x,1/2+y,1/2+z
1/2+x,-y,1/2+z
1/4-y,3/4-x,1/4+z
1/4+y,1/4+x,3/4+z
loop_
_atom_site_type_symbol
_atom_site_label
_atom_site_fract_x
_atom_site_fract_y
_atom_site_fract_z
Si Si1 0.786218 0.188995 0.157032
Si Si2 0.938414 0.981930 0.799424
Si Si3 0.868459 0.636154 0.364457
Si Si4 0.938096 0.307813 0.979628
Si Si5 0.796687 0.385579 0.813616
O O1 0.806851 0.250000 0.161071
O O2 0.750000 0.176090 0.250000
O O3 0.833991 0.146596 0.158083
O O4 0.750565 0.180172 0.061185
O O5 0.909096 0.924948 0.810230
O O6 0.000000 0.975176 0.826493
O O7 0.914222 0.025880 0.872445
O O8 0.913294 0.677696 0.333243
O O9 0.844142 0.629781 0.256807
O O10 0.916698 0.333303 0.875000
O O11 0.911673 0.250000 0.992475
O O12 0.000000 0.302960 0.964643
O O13 0.814247 0.435754 0.875000
O O14 0.750000 0.409735 0.750000
#
# Coordination Sequence:
#
# PCOD8320701 Si02
#       5
#    32  32  32  32  32
#     4  10  22  40  60  81 110 148 193 240 288 339
#     4  10  22  38  58  85 114 146 189 235 278 339
#     4  11  20  34  58  81 111 147 188 228 285 335
#     4   9  18  30  47  79 118 150 181 217 269 344
#     4  10  20  35  54  79 111 145 181 224 275 332
#
# _framework density 18.382429999999999
#
# number of rings (size 3 to 8) (size 9 to 14) (size 15 to 20)
#    0.000    2.000    2.000    2.400    0.000    5.200 
#    0.000    4.000    0.000    0.000    0.000    0.000 
#    0.000   12.800    0.000    0.000    0.000    0.000 
#
# Total GULP energy -991079.585390 kJ/mol
# GULP energy per Si atom -12388.494817 kJ/mol
# Density = 1.834059 g / cm^3
# Si number density = 18.382430 Si / 1000 Ang^3
#
#
#
# Elastic Constant Matrix: (Units=GPa)
#
#
# Indices 1 2 3 4 5 6 
#
# 1 96.9462 67.4795 49.9467 0.0000 0.0000 0.0000
# 2 67.4795 96.9434 49.9468 0.0000 0.0000 0.0000
# 3 49.9467 49.9468 98.1790 0.0000 0.0000 0.0000
# 4 0.0000 0.0000 0.0000 27.1302 0.0000 0.0000
# 5 0.0000 0.0000 0.0000 0.0000 27.1309 0.0000
# 6 0.0000 0.0000 0.0000 0.0000 0.0000 30.5218
#
#
#
# Elastic Compliance Matrix: (Units=1/GPa)
#
#
# Indices 1 2 3 4 5 6 
#
# 1 0.021370 -0.012568 -0.004478 0.000000 0.000000 0.000000
# 2 -0.012568 0.021371 -0.004478 0.000000 0.000000 0.000000
# 3 -0.004478 -0.004478 0.014742 0.000000 0.000000 0.000000
# 4 0.000000 0.000000 0.000000 0.036859 0.000000 0.000000
# 5 0.000000 0.000000 0.000000 0.000000 0.036858 0.000000
# 6 0.000000 0.000000 0.000000 0.000000 0.000000 0.032763
#
#
# Mechanical properties :
#
#
# Convention : Reuss Voigt Hill
#
# Bulk Modulus (GPa) = 69.27940 69.64607 69.46274
# Shear Modulus (GPa) = 23.60463 25.26963 24.43713
#
# Velocity S-wave (km/s) = 3.58730 3.71167 3.65001
# Velocity P-wave (km/s) = 7.41134 7.50588 7.45876
#
# Compressibility (1/GPa) = 0.01443430
#
# Stress axis : x y z
#
# Youngs Moduli (GPa) = 46.79489 46.79298 67.83464
#
# Poissons Ratio (x) = 0.58809 0.30375
# Poissons Ratio (y) = 0.58811 0.30378
# Poissons Ratio (z) = 0.20954 0.20955
#
# Static dielectric constant tensor:
#      x y z
#    x 3.530480 0.000000 0.000000 
#    y 0.000000 3.530550 0.000000 
#    z 0.000000 0.000000 3.380560 
# 
# 
# High freq. dielectric constant tensor:
#      x y z
#    x 1.713280 0.000000 0.000000 
#    y 0.000000 1.713280 0.000000 
#    z 0.000000 0.000000 1.706460 
# 
# From -- ./inp_files/6652.got.cif
#   From: 2010.03.12/outbox.cif.g09.slc.cpg/sg141_4_cif.got.tgz:6652.got - 2010.04.03 13:18:35.
