data_PCOD8320703
_publ_section_title
;
Structure prediction by ZEFSAII (Michael W. Deem and Ramdas Pophale) SiO2 
 PCOD8320703
Probable space group: I 41/A M D
;
_chemical_formula_sum "Si O2"
_cell_formula_units_Z 160
_cell_length_a 19.191464
_cell_length_b 19.191464
_cell_length_c 23.339069
_cell_angle_alpha 90.000000
_cell_angle_beta 90.000000
_cell_angle_gamma 90.000000
_cell_volume 8596.065961
_symmetry_space_group_name_H-M "I 41/A M D"
_symmetry_group_IT_number 141
_space_group.IT_coordinate_system_code '2'
_symmetry_cell_setting 'tetragonal'
loop_
_space_group_symop_operation_xyz
x,y,z
1/4-y,3/4+x,1/4+z
-x,1/2-y,z
1/4+y,1/4-x,3/4+z
x,-y,-z
-x,1/2+y,-z
1/4+y,3/4+x,1/4-z
1/4-y,1/4-x,3/4-z
-x,-y,-z
3/4+y,1/4-x,3/4-z
x,1/2+y,-z
3/4-y,3/4+x,1/4-z
-x,y,z
x,1/2-y,z
3/4-y,1/4-x,3/4+z
3/4+y,3/4+x,1/4+z
1/2+x,1/2+y,1/2+z
3/4-y,1/4+x,3/4+z
1/2-x,-y,1/2+z
3/4+y,3/4-x,1/4+z
1/2+x,1/2-y,1/2-z
1/2-x,y,1/2-z
3/4+y,1/4+x,3/4-z
3/4-y,3/4-x,1/4-z
1/2-x,1/2-y,1/2-z
1/4+y,3/4-x,1/4-z
1/2+x,y,1/2-z
1/4-y,1/4+x,3/4-z
1/2-x,1/2+y,1/2+z
1/2+x,-y,1/2+z
1/4-y,3/4-x,1/4+z
1/4+y,1/4+x,3/4+z
loop_
_atom_site_type_symbol
_atom_site_label
_atom_site_fract_x
_atom_site_fract_y
_atom_site_fract_z
Si Si1 0.654894 0.575370 0.526334
Si Si2 0.360171 0.327632 0.573856
Si Si3 0.704913 0.332893 0.894000
Si Si4 0.812650 0.417971 0.494796
Si Si5 0.076045 0.826389 0.691803
O O1 0.648015 0.500000 0.500000
O O2 0.618554 0.626912 0.481099
O O3 0.614405 0.578806 0.586349
O O4 0.736165 0.596555 0.531922
O O5 0.357634 0.250000 0.550090
O O6 0.415933 0.334067 0.625000
O O7 0.287080 0.349076 0.603399
O O8 0.688982 0.250000 0.897942
O O9 0.672611 0.376569 0.946205
O O10 0.825523 0.500000 0.500000
O O11 0.869206 0.387473 0.452091
O O12 0.068531 0.818531 0.625000
O O13 0.094814 0.750000 0.717946
O O14 0.000000 0.850845 0.716425
#
# Coordination Sequence:
#
# PCOD8320703 Si02
#       5
#    32  32  32  32  32
#     4  10  20  35  58  83 111 146 195 238 279 333
#     4  10  20  35  55  82 114 147 188 238 284 335
#     4  10  21  37  57  82 113 153 194 231 287 354
#     4  10  22  33  58  87 117 146 186 244 291 335
#     4   9  19  37  59  81 110 150 190 227 274 337
#
# _framework density 18.613166
#
# number of rings (size 3 to 8) (size 9 to 14) (size 15 to 20)
#    0.000    2.200    2.000    1.200    2.800    2.600 
#    0.000    1.000    0.000    1.200    0.000    0.000 
#    0.000    0.000    0.000    0.000    0.000    0.000 
#
# Total GULP energy -991541.266925 kJ/mol
# GULP energy per Si atom -12394.265837 kJ/mol
# Density = 1.857080 g / cm^3
# Si number density = 18.613166 Si / 1000 Ang^3
#
#
#
# Elastic Constant Matrix: (Units=GPa)
#
#
# Indices 1 2 3 4 5 6 
#
# 1 89.4599 41.9815 44.5686 0.0000 0.0000 0.0000
# 2 41.9815 89.4614 44.5690 0.0000 0.0000 0.0000
# 3 44.5686 44.5690 105.0430 0.0000 0.0000 0.0000
# 4 0.0000 0.0000 0.0000 27.9890 0.0000 0.0000
# 5 0.0000 0.0000 0.0000 0.0000 27.9890 0.0000
# 6 0.0000 0.0000 0.0000 0.0000 0.0000 20.7661
#
#
#
# Elastic Compliance Matrix: (Units=1/GPa)
#
#
# Indices 1 2 3 4 5 6 
#
# 1 0.015872 -0.005190 -0.004532 0.000000 0.000000 0.000000
# 2 -0.005190 0.015871 -0.004532 0.000000 0.000000 0.000000
# 3 -0.004532 -0.004532 0.013366 0.000000 0.000000 0.000000
# 4 0.000000 0.000000 0.000000 0.035728 0.000000 0.000000
# 5 0.000000 0.000000 0.000000 0.000000 0.035728 0.000000
# 6 0.000000 0.000000 0.000000 0.000000 0.000000 0.048155
#
#
# Mechanical properties :
#
#
# Convention : Reuss Voigt Hill
#
# Bulk Modulus (GPa) = 60.23977 60.68916 60.46447
# Shear Modulus (GPa) = 25.15565 25.53853 25.34709
#
# Velocity S-wave (km/s) = 3.68026 3.70816 3.69424
# Velocity P-wave (km/s) = 7.10587 7.14215 7.12403
#
# Compressibility (1/GPa) = 0.01660033
#
# Stress axis : x y z
#
# Youngs Moduli (GPa) = 63.00523 63.00629 74.81863
#
# Poissons Ratio (x) = 0.32702 0.33908
# Poissons Ratio (y) = 0.32702 0.33907
# Poissons Ratio (z) = 0.28554 0.28554
#
# Static dielectric constant tensor:
#      x y z
#    x 3.442500 0.000000 0.000000 
#    y 0.000000 3.442490 0.000000 
#    z 0.000000 0.000000 3.412420 
# 
# 
# High freq. dielectric constant tensor:
#      x y z
#    x 1.718110 0.000000 0.000000 
#    y 0.000000 1.718110 0.000000 
#    z 0.000000 0.000000 1.714140 
# 
# From -- ./inp_files/8590.got.cif
#   From: 2010.03.12/outbox.cif.g09.slc.cpg/sg141_5_cif.got.tgz:8590.got - 2010.04.03 13:18:35.
