data_PCOD8320155
_publ_section_title
;
Structure prediction by ZEFSAII (Michael W. Deem and Ramdas Pophale) SiO2 
 PCOD8320155
Probable space group: I 4/M C M
;
_chemical_formula_sum "Si O2"
_cell_formula_units_Z 160
_cell_length_a 23.359237
_cell_length_b 23.359237
_cell_length_c 13.988344
_cell_angle_alpha 90.000000
_cell_angle_beta 90.000000
_cell_angle_gamma 90.000000
_cell_volume 7632.795203
_symmetry_space_group_name_H-M "I 4/M C M"
_symmetry_group_IT_number 140
_symmetry_cell_setting 'tetragonal'
loop_
_space_group_symop_operation_xyz
x,y,z
-y,x,z
-x,-y,z
y,-x,z
x,-y,1/2-z
-x,y,1/2-z
y,x,1/2-z
-y,-x,1/2-z
-x,-y,-z
y,-x,-z
x,y,-z
-y,x,-z
-x,y,1/2+z
x,-y,1/2+z
-y,-x,1/2+z
y,x,1/2+z
1/2+x,1/2+y,1/2+z
1/2-y,1/2+x,1/2+z
1/2-x,1/2-y,1/2+z
1/2+y,1/2-x,1/2+z
1/2+x,1/2-y,-z
1/2-x,1/2+y,-z
1/2+y,1/2+x,-z
1/2-y,1/2-x,-z
1/2-x,1/2-y,1/2-z
1/2+y,1/2-x,1/2-z
1/2+x,1/2+y,1/2-z
1/2-y,1/2+x,1/2-z
1/2-x,1/2+y,z
1/2+x,1/2-y,z
1/2-y,1/2-x,z
1/2+y,1/2+x,z
loop_
_atom_site_type_symbol
_atom_site_label
_atom_site_fract_x
_atom_site_fract_y
_atom_site_fract_z
Si Si1 0.473704 0.203518 0.890578
Si Si2 0.526030 0.665431 0.113518
Si Si3 0.672390 0.915659 0.706346
Si Si4 0.675330 0.263822 0.835534
Si Si5 0.365358 0.401754 0.107926
O O1 0.462237 0.268911 0.860629
O O2 0.540400 0.189119 0.877186
O O3 0.440336 0.165110 0.813798
O O4 0.455229 0.190543 0.000000
O O5 0.579038 0.628285 0.157487
O O6 0.463724 0.647528 0.157762
O O7 0.523903 0.659209 0.000000
O O8 0.611575 0.888426 0.677611
O O9 0.720915 0.868572 0.712253
O O10 0.702558 0.297443 0.750000
O O11 0.725602 0.225602 0.889506
O O12 0.640997 0.310559 0.897979
O O13 0.382848 0.415236 0.000000
#
# Coordination Sequence:
#
# PCOD8320155 Si02
#       5
#    32  32  32  32  32
#     4  10  20  37  59  84 117 153 193 238 294 354
#     4   9  18  32  52  78 109 153 200 243 292 340
#     4  10  21  36  58  87 117 150 192 241 291 352
#     4  10  20  34  52  78 112 149 190 240 298 353
#     4  10  19  33  52  77 111 151 198 245 293 347
#
# _framework density 20.962175999999999
#
# number of rings (size 3 to 8) (size 9 to 14) (size 15 to 20)
#    0.000    2.200    2.000    1.200    0.000    1.600 
#    0.000    4.000    0.000   12.000    0.000    7.000 
#    0.000    0.000    0.000    0.000    0.000    0.000 
#
# Total GULP energy -991160.361596 kJ/mol
# GULP energy per Si atom -12389.504520 kJ/mol
# Density = 2.091447 g / cm^3
# Si number density = 20.962176 Si / 1000 Ang^3
#
#
#
# Elastic Constant Matrix: (Units=GPa)
#
#
# Indices 1 2 3 4 5 6 
#
# 1 108.4367 40.5216 -3.2032 0.0000 0.0000 0.0000
# 2 40.5216 108.4351 -3.2028 0.0000 0.0000 0.0000
# 3 -3.2032 -3.2028 33.0591 0.0000 0.0000 0.0000
# 4 0.0000 0.0000 0.0000 0.5324 0.0000 0.0000
# 5 0.0000 0.0000 0.0000 0.0000 0.5332 0.0000
# 6 0.0000 0.0000 0.0000 0.0000 0.0000 41.6435
#
#
#
# Elastic Compliance Matrix: (Units=1/GPa)
#
#
# Indices 1 2 3 4 5 6 
#
# 1 0.010733 -0.003992 0.000653 0.000000 0.000000 0.000000
# 2 -0.003992 0.010733 0.000653 0.000000 0.000000 0.000000
# 3 0.000653 0.000653 0.030375 0.000000 0.000000 0.000000
# 4 0.000000 0.000000 0.000000 1.878249 0.000000 0.000000
# 5 0.000000 0.000000 0.000000 0.000000 1.875313 0.000000
# 6 0.000000 0.000000 0.000000 0.000000 0.000000 0.024013
#
#
# Mechanical properties :
#
#
# Convention : Reuss Voigt Hill
#
# Bulk Modulus (GPa) = 21.51888 35.35136 28.43512
# Shear Modulus (GPa) = 1.29861 22.92952 12.11406
#
# Velocity S-wave (km/s) = 0.78794 3.31093 2.40657
# Velocity P-wave (km/s) = 3.33401 5.61403 4.61698
#
# Compressibility (1/GPa) = 0.04647083
#
# Stress axis : x y z
#
# Youngs Moduli (GPa) = 93.17184 93.17056 32.92139
#
# Poissons Ratio (x) = 0.37189 -0.02150
# Poissons Ratio (y) = 0.37190 -0.02150
# Poissons Ratio (z) = -0.06086 -0.06085
#
# Static dielectric constant tensor:
#      x y z
#    x 4.013560 0.000000 0.000000 
#    y 0.000000 4.013500 0.000000 
#    z 0.000000 0.000000 3.299350 
# 
# 
# High freq. dielectric constant tensor:
#      x y z
#    x 1.819740 0.000000 0.000000 
#    y 0.000000 1.819740 0.000000 
#    z 0.000000 0.000000 1.803760 
# 
# From -- ./inp_files/4690.got.cif
#   From: 2010.06.25/outbox.cif.g09.slc.cpg/sg140_3_cif.got.tgz:4690.got - 2010.06.28 10:53:23.
