data_PCOD8320679
_publ_section_title
;
Structure prediction by ZEFSAII (Michael W. Deem and Ramdas Pophale) SiO2 
 PCOD8320679
Probable space group: I 41/A M D
;
_chemical_formula_sum "Si O2"
_cell_formula_units_Z 104
_cell_length_a 18.972593
_cell_length_b 18.972593
_cell_length_c 16.474514
_cell_angle_alpha 90.000000
_cell_angle_beta 90.000000
_cell_angle_gamma 90.000000
_cell_volume 5930.154283
_symmetry_space_group_name_H-M "I 41/A M D"
_symmetry_group_IT_number 141
_space_group.IT_coordinate_system_code '2'
_symmetry_cell_setting 'tetragonal'
loop_
_space_group_symop_operation_xyz
x,y,z
1/4-y,3/4+x,1/4+z
-x,1/2-y,z
1/4+y,1/4-x,3/4+z
x,-y,-z
-x,1/2+y,-z
1/4+y,3/4+x,1/4-z
1/4-y,1/4-x,3/4-z
-x,-y,-z
3/4+y,1/4-x,3/4-z
x,1/2+y,-z
3/4-y,3/4+x,1/4-z
-x,y,z
x,1/2-y,z
3/4-y,1/4-x,3/4+z
3/4+y,3/4+x,1/4+z
1/2+x,1/2+y,1/2+z
3/4-y,1/4+x,3/4+z
1/2-x,-y,1/2+z
3/4+y,3/4-x,1/4+z
1/2+x,1/2-y,1/2-z
1/2-x,y,1/2-z
3/4+y,1/4+x,3/4-z
3/4-y,3/4-x,1/4-z
1/2-x,1/2-y,1/2-z
1/4+y,3/4-x,1/4-z
1/2+x,y,1/2-z
1/4-y,1/4+x,3/4-z
1/2-x,1/2+y,1/2+z
1/2+x,-y,1/2+z
1/4-y,3/4-x,1/4+z
1/4+y,1/4+x,3/4+z
loop_
_atom_site_type_symbol
_atom_site_label
_atom_site_fract_x
_atom_site_fract_y
_atom_site_fract_z
Si Si1 0.750000 0.567770 0.250000
Si Si2 0.250000 0.141151 0.250000
Si Si3 0.000000 0.598152 0.771782
Si Si4 0.000000 0.250000 0.245678
Si Si5 0.649641 0.750000 0.830896
Si Si6 0.646688 0.037971 0.326463
O O1 0.769521 0.613637 0.328703
O O2 0.679469 0.524471 0.272564
O O3 0.307164 0.182625 0.197968
O O4 0.295157 0.099146 0.316765
O O5 0.000000 0.678188 0.808961
O O6 0.000000 0.608315 0.676220
O O7 0.068976 0.555685 0.796586
O O8 0.070934 0.250000 0.298128
#
# Coordination Sequence:
#
# PCOD8320679 Si02
#       6
#    16  16  16   8  16  32
#     4   9  20  38  56  76 100 137 186 238 270 328
#     4  10  20  33  52  77 106 142 176 222 270 334
#     4  12  22  33  51  78 110 147 177 220 274 332
#     4  12  23  34  50  80 118 147 178 213 266 346
#     4  11  21  33  50  75 111 147 179 210 267 339
#     4  10  20  35  55  77 104 137 183 228 280 322
#
# _framework density 17.537486000000001
#
# number of rings (size 3 to 8) (size 9 to 14) (size 15 to 20)
#    0.000    1.538    3.077    3.231    0.000    3.077 
#    0.000    0.000    0.000    0.000    0.000    0.000 
#    0.000    2.462    0.000    0.000    0.000    0.000 
#
# Total GULP energy -644382.439787 kJ/mol
# GULP energy per Si atom -12391.969996 kJ/mol
# Density = 1.749757 g / cm^3
# Si number density = 17.537486 Si / 1000 Ang^3
#
#
#
# Elastic Constant Matrix: (Units=GPa)
#
#
# Indices 1 2 3 4 5 6 
#
# 1 100.3394 31.8710 14.3876 0.0000 0.0000 0.0000
# 2 31.8710 100.3394 14.3876 0.0000 0.0000 0.0000
# 3 14.3876 14.3876 51.8523 0.0000 0.0000 0.0000
# 4 0.0000 0.0000 0.0000 -196.3678 0.0000 0.0000
# 5 0.0000 0.0000 0.0000 0.0000 -196.3678 0.0000
# 6 0.0000 0.0000 0.0000 0.0000 0.0000 190.1826
#
#
#
# Elastic Compliance Matrix: (Units=1/GPa)
#
#
# Indices 1 2 3 4 5 6 
#
# 1 0.011328 -0.003278 -0.002234 0.000000 0.000000 0.000000
# 2 -0.003278 0.011328 -0.002234 0.000000 0.000000 0.000000
# 3 -0.002234 -0.002234 0.020525 0.000000 0.000000 0.000000
# 4 0.000000 0.000000 0.000000 -0.005092 0.000000 0.000000
# 5 0.000000 0.000000 0.000000 0.000000 -0.005092 0.000000
# 6 0.000000 0.000000 0.000000 0.000000 0.000000 0.005258
#
#
# Mechanical properties :
#
#
# Convention : Reuss Voigt Hill
#
# Bulk Modulus (GPa) = 36.11374 41.53597 38.82485
# Shear Modulus (GPa) = 79.39864 -27.71828 25.84018
#
# Velocity S-wave (km/s) = 6.73587 -3.97988 3.84269
# Velocity P-wave (km/s) = 9.00738 1.61747 6.47106
#
# Compressibility (1/GPa) = 0.02769030
#
# Stress axis : x y z
#
# Youngs Moduli (GPa) = 88.28021 88.28021 48.72087
#
# Poissons Ratio (x) = 0.28936 0.10882
# Poissons Ratio (y) = 0.28936 0.10882
# Poissons Ratio (z) = 0.19718 0.19718
#
# Static dielectric constant tensor:
#      x y z
#    x 3.428650 0.000000 0.000000 
#    y 0.000000 3.428650 0.000000 
#    z 0.000000 0.000000 3.163230 
# 
# 
# High freq. dielectric constant tensor:
#      x y z
#    x 1.680710 0.000000 0.000000 
#    y 0.000000 1.680710 0.000000 
#    z 0.000000 0.000000 1.664610 
# 
# From -- ./inp_files/6121.got.cif
#   From: 2010.03.12/outbox.cif.g09.slc.cpg/sg141_4_cif.got.tgz:6121.got - 2010.04.03 13:18:35.
