data_PCOD8320335
_publ_section_title
;
Structure prediction by ZEFSAII (Michael W. Deem and Ramdas Pophale) SiO2 
 PCOD8320335
Probable space group: I 4/M C M
;
_chemical_formula_sum "Si O2"
_cell_formula_units_Z 96
_cell_length_a 14.425993
_cell_length_b 14.425993
_cell_length_c 26.729964
_cell_angle_alpha 90.000000
_cell_angle_beta 90.000000
_cell_angle_gamma 90.000000
_cell_volume 5562.753403
_symmetry_space_group_name_H-M "I 4/M C M"
_symmetry_group_IT_number 140
_symmetry_cell_setting 'tetragonal'
loop_
_space_group_symop_operation_xyz
x,y,z
-y,x,z
-x,-y,z
y,-x,z
x,-y,1/2-z
-x,y,1/2-z
y,x,1/2-z
-y,-x,1/2-z
-x,-y,-z
y,-x,-z
x,y,-z
-y,x,-z
-x,y,1/2+z
x,-y,1/2+z
-y,-x,1/2+z
y,x,1/2+z
1/2+x,1/2+y,1/2+z
1/2-y,1/2+x,1/2+z
1/2-x,1/2-y,1/2+z
1/2+y,1/2-x,1/2+z
1/2+x,1/2-y,-z
1/2-x,1/2+y,-z
1/2+y,1/2+x,-z
1/2-y,1/2-x,-z
1/2-x,1/2-y,1/2-z
1/2+y,1/2-x,1/2-z
1/2+x,1/2+y,1/2-z
1/2-y,1/2+x,1/2-z
1/2-x,1/2+y,z
1/2+x,1/2-y,z
1/2-y,1/2-x,z
1/2+y,1/2+x,z
loop_
_atom_site_type_symbol
_atom_site_label
_atom_site_fract_x
_atom_site_fract_y
_atom_site_fract_z
Si Si1 0.777850 0.277850 0.941074
Si Si2 0.049928 0.694023 0.116525
Si Si3 0.650783 0.503327 0.692205
Si Si4 0.872929 0.372929 0.440964
O O1 0.877689 0.247604 0.917908
O O2 0.702700 0.202700 0.925148
O O3 0.787077 0.287077 0.000000
O O4 0.105938 0.605938 0.140140
O O5 0.006316 0.756006 0.160135
O O6 0.970702 0.656904 0.080689
O O7 0.589106 0.593251 0.679614
O O8 0.679856 0.500000 0.750000
O O9 0.882591 0.382591 0.500000
#
# Coordination Sequence:
#
# PCOD8320335 Si02
#       4
#    16  32  32  16
#     4   9  20  34  53  80 107 142 190 230 273 333
#     4  10  21  34  54  80 111 146 181 229 275 333
#     4   9  18  36  59  81 109 147 189 230 277 331
#     4  11  21  36  57  78 110 151 186 233 283 331
#
# _framework density 17.257641
#
# number of rings (size 3 to 8) (size 9 to 14) (size 15 to 20)
#    1.000    1.333    0.000    4.500    0.000    0.667 
#    3.000    1.667    0.000    0.000    0.000   14.000 
#    0.000    0.000    0.000    0.000    0.000    0.000 
#
# Total GULP energy -594934.724342 kJ/mol
# GULP energy per Si atom -12394.473424 kJ/mol
# Density = 1.721836 g / cm^3
# Si number density = 17.257641 Si / 1000 Ang^3
#
#
#
# Elastic Constant Matrix: (Units=GPa)
#
#
# Indices 1 2 3 4 5 6 
#
# 1 92.4156 60.6461 50.4441 0.0000 0.0000 0.0000
# 2 60.6461 92.4156 50.4441 0.0000 0.0000 0.0000
# 3 50.4441 50.4441 79.5355 0.0000 0.0000 0.0000
# 4 0.0000 0.0000 0.0000 27.6720 0.0000 0.0000
# 5 0.0000 0.0000 0.0000 0.0000 27.6720 0.0000
# 6 0.0000 0.0000 0.0000 0.0000 0.0000 26.9059
#
#
#
# Elastic Compliance Matrix: (Units=1/GPa)
#
#
# Indices 1 2 3 4 5 6 
#
# 1 0.021352 -0.010125 -0.007120 0.000000 0.000000 0.000000
# 2 -0.010125 0.021352 -0.007120 0.000000 0.000000 0.000000
# 3 -0.007120 -0.007120 0.021605 0.000000 0.000000 0.000000
# 4 0.000000 0.000000 0.000000 0.036138 0.000000 0.000000
# 5 0.000000 0.000000 0.000000 0.000000 0.036138 0.000000
# 6 0.000000 0.000000 0.000000 0.000000 0.000000 0.037167
#
#
# Mechanical properties :
#
#
# Convention : Reuss Voigt Hill
#
# Bulk Modulus (GPa) = 64.19771 65.27057 64.73414
# Shear Modulus (GPa) = 21.96128 23.30546 22.63337
#
# Velocity S-wave (km/s) = 3.57116 3.67882 3.62539
# Velocity P-wave (km/s) = 7.36781 7.47986 7.42405
#
# Compressibility (1/GPa) = 0.01557688
#
# Stress axis : x y z
#
# Youngs Moduli (GPa) = 46.83479 46.83479 46.28605
#
# Poissons Ratio (x) = 0.47421 0.32957
# Poissons Ratio (y) = 0.47421 0.32957
# Poissons Ratio (z) = 0.33347 0.33347
#
# Static dielectric constant tensor:
#      x y z
#    x 3.211160 0.000000 0.000000 
#    y 0.000000 3.211160 0.000000 
#    z 0.000000 0.000000 3.030390 
# 
# 
# High freq. dielectric constant tensor:
#      x y z
#    x 1.666380 0.000000 0.000000 
#    y 0.000000 1.666380 0.000000 
#    z 0.000000 0.000000 1.660920 
# 
# From -- ./inp_files/10203.got.cif
#   From: 2010.06.25/outbox.cif.g09.slc.cpg/sg140_6_cif.got.tgz:10203.got - 2010.06.28 10:53:23.
