data_PCOD8320005
_publ_section_title
;
Structure prediction by ZEFSAII (Michael W. Deem and Ramdas Pophale) SiO2 
 PCOD8320005
Probable space group: I 4/M M M
;
_chemical_formula_sum "Si O2"
_cell_formula_units_Z 160
_cell_length_a 18.549768
_cell_length_b 18.549768
_cell_length_c 28.890450
_cell_angle_alpha 90.000000
_cell_angle_beta 90.000000
_cell_angle_gamma 90.000000
_cell_volume 9941.027407
_symmetry_space_group_name_H-M "I 4/M M M"
_symmetry_group_IT_number 139
_symmetry_cell_setting 'tetragonal'
loop_
_space_group_symop_operation_xyz
x,y,z
-y,x,z
-x,-y,z
y,-x,z
x,-y,-z
-x,y,-z
y,x,-z
-y,-x,-z
-x,-y,-z
y,-x,-z
x,y,-z
-y,x,-z
-x,y,z
x,-y,z
-y,-x,z
y,x,z
1/2+x,1/2+y,1/2+z
1/2-y,1/2+x,1/2+z
1/2-x,1/2-y,1/2+z
1/2+y,1/2-x,1/2+z
1/2+x,1/2-y,1/2-z
1/2-x,1/2+y,1/2-z
1/2+y,1/2+x,1/2-z
1/2-y,1/2-x,1/2-z
1/2-x,1/2-y,1/2-z
1/2+y,1/2-x,1/2-z
1/2+x,1/2+y,1/2-z
1/2-y,1/2+x,1/2-z
1/2-x,1/2+y,1/2+z
1/2+x,1/2-y,1/2+z
1/2-y,1/2-x,1/2+z
1/2+y,1/2+x,1/2+z
loop_
_atom_site_type_symbol
_atom_site_label
_atom_site_fract_x
_atom_site_fract_y
_atom_site_fract_z
Si Si1 0.812113 0.307994 0.449979
Si Si2 0.190937 0.921116 0.445794
Si Si3 0.830894 0.417204 0.785971
Si Si4 0.801467 0.918415 0.780003
Si Si5 0.215159 0.666948 0.351617
O O1 0.816155 0.350069 0.500000
O O2 0.755136 0.244865 0.456428
O O3 0.888245 0.270383 0.437792
O O4 0.791458 0.357176 0.405781
O O5 0.175906 0.927168 0.500000
O O6 0.129005 0.870996 0.422774
O O7 0.188138 0.000000 0.422271
O O8 0.846099 0.500000 0.800949
O O9 0.892852 0.392852 0.750000
O O10 0.753254 0.409803 0.762286
O O11 0.829292 0.364900 0.830248
O O12 0.871198 0.871198 0.768784
O O13 0.762747 0.893821 0.827207
O O14 0.827085 0.000000 0.786719
O O15 0.255220 0.744781 0.346946
#
# Coordination Sequence:
#
# PCOD8320005 Si02
#       5
#    32  32  32  32  32
#     4   8  14  24  37  54  76 102 135 175 212 242
#     4   8  13  20  29  43  66  96 130 169 209 244
#     4   9  17  28  42  62  87 113 142 174 207 245
#     4   9  17  29  45  65  88 111 136 168 206 252
#     4   9  16  27  44  63  84 112 143 174 209 247
#
# _framework density 16.094916999999999
#
# number of rings (size 3 to 8) (size 9 to 14) (size 15 to 20)
#    0.000    3.400    0.000    1.800    0.000    3.800 
#    0.000    1.000    0.000    0.600    0.000    0.000 
#    0.000    4.800    0.000   23.000    0.000    1.400 
#
# Total GULP energy -991115.685631 kJ/mol
# GULP energy per Si atom -12388.946070 kJ/mol
# Density = 1.605828 g / cm^3
# Si number density = 16.094917 Si / 1000 Ang^3
#
#
#
# Elastic Constant Matrix: (Units=GPa)
#
#
# Indices 1 2 3 4 5 6 
#
# 1 69.6796 24.3729 18.8486 0.0000 0.0000 0.0000
# 2 24.3729 69.6796 18.8486 0.0000 0.0000 0.0000
# 3 18.8486 18.8486 79.6632 0.0000 0.0000 0.0000
# 4 0.0000 0.0000 0.0000 14.0801 0.0000 0.0000
# 5 0.0000 0.0000 0.0000 0.0000 14.0801 0.0000
# 6 0.0000 0.0000 0.0000 0.0000 0.0000 13.1217
#
#
#
# Elastic Compliance Matrix: (Units=1/GPa)
#
#
# Indices 1 2 3 4 5 6 
#
# 1 0.016909 -0.005163 -0.002779 0.000000 0.000000 0.000000
# 2 -0.005163 0.016909 -0.002779 0.000000 0.000000 0.000000
# 3 -0.002779 -0.002779 0.013868 0.000000 0.000000 0.000000
# 4 0.000000 0.000000 0.000000 0.071022 0.000000 0.000000
# 5 0.000000 0.000000 0.000000 0.000000 0.071022 0.000000
# 6 0.000000 0.000000 0.000000 0.000000 0.000000 0.076210
#
#
# Mechanical properties :
#
#
# Convention : Reuss Voigt Hill
#
# Bulk Modulus (GPa) = 38.10433 38.12916 38.11674
# Shear Modulus (GPa) = 16.88442 18.71985 17.80213
#
# Velocity S-wave (km/s) = 3.24242 3.41411 3.32937
# Velocity P-wave (km/s) = 6.14361 6.26763 6.20593
#
# Compressibility (1/GPa) = 0.02624374
#
# Stress axis : x y z
#
# Youngs Moduli (GPa) = 59.13991 59.13991 72.10855
#
# Poissons Ratio (x) = 0.30533 0.20040
# Poissons Ratio (y) = 0.30533 0.20040
# Poissons Ratio (z) = 0.16436 0.16436
#
# Static dielectric constant tensor:
#      x y z
#    x 2.962680 0.000000 0.000000 
#    y 0.000000 2.962680 0.000000 
#    z 0.000000 0.000000 3.091720 
# 
# 
# High freq. dielectric constant tensor:
#      x y z
#    x 1.595490 0.000000 0.000000 
#    y 0.000000 1.595490 0.000000 
#    z 0.000000 0.000000 1.606810 
# 
# From -- ./inp_files/12943.got.cif
#   From: 2010.03.12/outbox.cif.g09.slc.cpg/sg139_7_cif.got.tgz:12943.got - 2010.04.08 09:46:31.
