data_PCOD8320047
_publ_section_title
;
Structure prediction by ZEFSAII (Michael W. Deem and Ramdas Pophale) SiO2 
 PCOD8320047
Probable space group: I 4/M C M
;
_chemical_formula_sum "Si O2"
_cell_formula_units_Z 176
_cell_length_a 20.173986
_cell_length_b 20.173986
_cell_length_c 24.992625
_cell_angle_alpha 90.000000
_cell_angle_beta 90.000000
_cell_angle_gamma 90.000000
_cell_volume 10171.741229
_symmetry_space_group_name_H-M "I 4/M C M"
_symmetry_group_IT_number 140
_symmetry_cell_setting 'tetragonal'
loop_
_space_group_symop_operation_xyz
x,y,z
-y,x,z
-x,-y,z
y,-x,z
x,-y,1/2-z
-x,y,1/2-z
y,x,1/2-z
-y,-x,1/2-z
-x,-y,-z
y,-x,-z
x,y,-z
-y,x,-z
-x,y,1/2+z
x,-y,1/2+z
-y,-x,1/2+z
y,x,1/2+z
1/2+x,1/2+y,1/2+z
1/2-y,1/2+x,1/2+z
1/2-x,1/2-y,1/2+z
1/2+y,1/2-x,1/2+z
1/2+x,1/2-y,-z
1/2-x,1/2+y,-z
1/2+y,1/2+x,-z
1/2-y,1/2-x,-z
1/2-x,1/2-y,1/2-z
1/2+y,1/2-x,1/2-z
1/2+x,1/2+y,1/2-z
1/2-y,1/2+x,1/2-z
1/2-x,1/2+y,z
1/2+x,1/2-y,z
1/2-y,1/2-x,z
1/2+y,1/2+x,z
loop_
_atom_site_type_symbol
_atom_site_label
_atom_site_fract_x
_atom_site_fract_y
_atom_site_fract_z
Si Si1 0.715439 0.112194 0.058728
Si Si2 0.763634 0.842490 0.332447
Si Si3 0.257928 0.864631 0.351042
Si Si4 0.447436 0.052564 0.063443
Si Si5 0.298421 0.040139 0.061227
Si Si6 0.184347 0.422706 0.754259
O O1 0.638688 0.138688 0.063672
O O2 0.758403 0.146098 0.104263
O O3 0.725026 0.034628 0.065887
O O4 0.742828 0.132581 0.000000
O O5 0.713354 0.786647 0.310709
O O6 0.838641 0.813536 0.328059
O O7 0.744546 0.907210 0.296864
O O8 0.300951 0.800951 0.369281
O O9 0.251797 0.913246 0.402228
O O10 0.293447 0.903649 0.304460
O O11 0.373369 0.038148 0.083388
O O12 0.500000 0.000000 0.088735
O O13 0.452343 0.047658 0.000000
O O14 0.294976 0.066012 0.000000
O O15 0.167813 0.500000 0.750000
O O16 0.117713 0.382288 0.770865
#
# Coordination Sequence:
#
# PCOD8320047 Si02
#       6
#    32  32  32  16  32  32
#     4   9  17  29  45  66  94 128 162 196 237 286
#     4   9  18  32  49  67  90 126 164 202 243 285
#     4  10  19  31  47  67  93 124 166 204 242 285
#     4   9  16  26  40  60  91 134 172 198 229 272
#     4  10  18  28  43  66  98 130 164 204 239 280
#     4  10  20  34  52  71  97 128 160 196 236 287
#
# _framework density 17.30284
#
# number of rings (size 3 to 8) (size 9 to 14) (size 15 to 20)
#    0.000    2.455    0.909    2.182    0.000    5.273 
#    0.000    2.727    0.000    0.000    0.000    0.000 
#    0.000   29.818    0.000   16.000    0.000    0.364 
#
# Total GULP energy -1090260.955920 kJ/mol
# GULP energy per Si atom -12389.329045 kJ/mol
# Density = 1.726346 g / cm^3
# Si number density = 17.302840 Si / 1000 Ang^3
#
#
#
# Elastic Constant Matrix: (Units=GPa)
#
#
# Indices 1 2 3 4 5 6 
#
# 1 61.2027 46.0793 25.3414 0.0000 0.0000 0.0000
# 2 46.0793 61.2027 25.3413 0.0000 0.0000 0.0000
# 3 25.3414 25.3413 73.9887 0.0000 0.0000 0.0000
# 4 0.0000 0.0000 0.0000 23.6702 0.0000 0.0000
# 5 0.0000 0.0000 0.0000 0.0000 23.6702 0.0000
# 6 0.0000 0.0000 0.0000 0.0000 0.0000 17.9835
#
#
#
# Elastic Compliance Matrix: (Units=1/GPa)
#
#
# Indices 1 2 3 4 5 6 
#
# 1 0.038622 -0.027501 -0.003809 0.000000 0.000000 0.000000
# 2 -0.027501 0.038622 -0.003809 0.000000 0.000000 0.000000
# 3 -0.003809 -0.003809 0.016125 0.000000 0.000000 0.000000
# 4 0.000000 0.000000 0.000000 0.042247 0.000000 0.000000
# 5 0.000000 0.000000 0.000000 0.000000 0.042247 0.000000
# 6 0.000000 0.000000 0.000000 0.000000 0.000000 0.055607
#
#
# Mechanical properties :
#
#
# Convention : Reuss Voigt Hill
#
# Bulk Modulus (GPa) = 43.23291 43.32422 43.27857
# Shear Modulus (GPa) = 16.05568 19.70693 17.88130
#
# Velocity S-wave (km/s) = 3.04949 3.37848 3.21819
# Velocity P-wave (km/s) = 6.11878 6.34917 6.23504
#
# Compressibility (1/GPa) = 0.02313053
#
# Stress axis : x y z
#
# Youngs Moduli (GPa) = 25.89223 25.89227 62.01683
#
# Poissons Ratio (x) = 0.71206 0.23621
# Poissons Ratio (y) = 0.71206 0.23621
# Poissons Ratio (z) = 0.09862 0.09862
#
# Static dielectric constant tensor:
#      x y z
#    x 3.064400 0.000000 0.000000 
#    y 0.000000 3.064400 0.000000 
#    z 0.000000 0.000000 3.337610 
# 
# 
# High freq. dielectric constant tensor:
#      x y z
#    x 1.635670 0.000000 0.000000 
#    y 0.000000 1.635670 0.000000 
#    z 0.000000 0.000000 1.680510 
# 
# From -- ./inp_files/10729.got.cif
#   From: 2010.06.25/outbox.cif.g09.slc.cpg/sg140_6_cif.got.tgz:10729.got - 2010.06.28 10:53:23.
