data_PCOD8320417
_publ_section_title
;
Structure prediction by ZEFSAII (Michael W. Deem and Ramdas Pophale) SiO2 
 PCOD8320417
Probable space group: I 4/M C M
;
_chemical_formula_sum "Si O2"
_cell_formula_units_Z 224
_cell_length_a 22.662688
_cell_length_b 22.662688
_cell_length_c 23.530356
_cell_angle_alpha 90.000000
_cell_angle_beta 90.000000
_cell_angle_gamma 90.000000
_cell_volume 12085.130307
_symmetry_space_group_name_H-M "I 4/M C M"
_symmetry_group_IT_number 140
_symmetry_cell_setting 'tetragonal'
loop_
_space_group_symop_operation_xyz
x,y,z
-y,x,z
-x,-y,z
y,-x,z
x,-y,1/2-z
-x,y,1/2-z
y,x,1/2-z
-y,-x,1/2-z
-x,-y,-z
y,-x,-z
x,y,-z
-y,x,-z
-x,y,1/2+z
x,-y,1/2+z
-y,-x,1/2+z
y,x,1/2+z
1/2+x,1/2+y,1/2+z
1/2-y,1/2+x,1/2+z
1/2-x,1/2-y,1/2+z
1/2+y,1/2-x,1/2+z
1/2+x,1/2-y,-z
1/2-x,1/2+y,-z
1/2+y,1/2+x,-z
1/2-y,1/2-x,-z
1/2-x,1/2-y,1/2-z
1/2+y,1/2-x,1/2-z
1/2+x,1/2+y,1/2-z
1/2-y,1/2+x,1/2-z
1/2-x,1/2+y,z
1/2+x,1/2-y,z
1/2-y,1/2-x,z
1/2+y,1/2+x,z
loop_
_atom_site_type_symbol
_atom_site_label
_atom_site_fract_x
_atom_site_fract_y
_atom_site_fract_z
Si Si1 0.844363 0.920182 0.565294
Si Si2 0.452397 0.952397 0.111913
Si Si3 0.947395 0.259941 0.158111
Si Si4 0.331827 0.445399 0.435450
Si Si5 0.971777 0.378350 0.192837
Si Si6 0.846529 0.250805 0.245095
Si Si7 0.736094 0.913716 0.358520
Si Si8 0.129538 0.370463 0.064353
O O1 0.826036 0.908715 0.500000
O O2 0.903653 0.885777 0.581637
O O3 0.794040 0.896298 0.606327
O O4 0.855792 0.989205 0.576132
O O5 0.479549 0.901199 0.150145
O O6 0.421081 0.921081 0.058761
O O7 0.500000 0.000000 0.090302
O O8 0.930592 0.226898 0.100249
O O9 0.933211 0.329809 0.158811
O O10 0.904079 0.234429 0.206901
O O11 0.019055 0.258289 0.165732
O O12 0.311842 0.436204 0.500000
O O13 0.931258 0.431258 0.214354
O O14 0.000000 0.350356 0.250000
O O15 0.808781 0.191220 0.250000
O O16 0.804530 0.304530 0.221988
O O17 0.869391 0.270454 0.306527
O O18 0.683093 0.900893 0.401990
O O19 0.147917 0.352084 0.000000
#
# Coordination Sequence:
#
# PCOD8320417 Si02
#       8
#    32  16  32  32  32  32  32  16
#     4   9  18  34  58  84 113 147 185 234 288 346
#     4  10  22  37  54  83 112 149 187 235 294 339
#     4  11  22  34  56  83 112 150 185 235 289 341
#     4   9  19  36  57  83 112 145 186 233 286 347
#     4  11  20  33  55  81 112 144 187 237 289 340
#     4  11  23  38  57  82 114 150 187 240 289 340
#     4  11  21  38  57  85 116 147 196 235 289 342
#     4  12  24  39  59  83 116 155 202 247 284 336
#
# _framework density 18.535174000000001
#
# number of rings (size 3 to 8) (size 9 to 14) (size 15 to 20)
#    0.000    1.571    2.857    3.000    0.000    1.000 
#    0.000    1.429    0.000    1.714    0.000    0.000 
#    0.000   12.571    0.000    0.000    0.000    0.000 
#
# Total GULP energy -1387712.136307 kJ/mol
# GULP energy per Si atom -12390.286931 kJ/mol
# Density = 1.849299 g / cm^3
# Si number density = 18.535174 Si / 1000 Ang^3
#
#
#
# Elastic Constant Matrix: (Units=GPa)
#
#
# Indices 1 2 3 4 5 6 
#
# 1 93.8095 50.8067 55.1903 0.0000 0.0000 0.0000
# 2 50.8067 93.8101 55.1906 0.0000 0.0000 0.0000
# 3 55.1903 55.1906 93.4098 0.0000 0.0000 0.0000
# 4 0.0000 0.0000 0.0000 55.6035 0.0000 0.0000
# 5 0.0000 0.0000 0.0000 0.0000 55.6067 0.0000
# 6 0.0000 0.0000 0.0000 0.0000 0.0000 9.9285
#
#
#
# Elastic Compliance Matrix: (Units=1/GPa)
#
#
# Indices 1 2 3 4 5 6 
#
# 1 0.017924 -0.005330 -0.007441 0.000000 0.000000 0.000000
# 2 -0.005330 0.017924 -0.007441 0.000000 0.000000 0.000000
# 3 -0.007441 -0.007441 0.019499 0.000000 0.000000 0.000000
# 4 0.000000 0.000000 0.000000 0.017984 0.000000 0.000000
# 5 0.000000 0.000000 0.000000 0.000000 0.017983 0.000000
# 6 0.000000 0.000000 0.000000 0.000000 0.000000 0.100720
#
#
# Mechanical properties :
#
#
# Convention : Reuss Voigt Hill
#
# Bulk Modulus (GPa) = 67.01309 67.04495 67.02902
# Shear Modulus (GPa) = 21.05839 32.21720 26.63779
#
# Velocity S-wave (km/s) = 3.37431 4.17365 3.79509
# Velocity P-wave (km/s) = 7.17038 7.71208 7.44616
#
# Compressibility (1/GPa) = 0.01492246
#
# Stress axis : x y z
#
# Youngs Moduli (GPa) = 55.78971 55.78998 51.28475
#
# Poissons Ratio (x) = 0.29735 0.38163
# Poissons Ratio (y) = 0.29735 0.38163
# Poissons Ratio (z) = 0.41516 0.41516
#
# Static dielectric constant tensor:
#      x y z
#    x 3.516940 0.000000 0.000000 
#    y 0.000000 3.516930 0.000000 
#    z 0.000000 0.000000 3.377540 
# 
# 
# High freq. dielectric constant tensor:
#      x y z
#    x 1.723510 0.000000 0.000000 
#    y 0.000000 1.723510 0.000000 
#    z 0.000000 0.000000 1.708830 
# 
# From -- ./inp_files/10016.got.cif
#   From: 2010.06.25/outbox.cif.g09.slc.cpg/sg140_6_cif.got.tgz:10016.got - 2010.06.28 10:53:23.
