data_PCOD8320500
_publ_section_title
;
Structure prediction by ZEFSAII (Michael W. Deem and Ramdas Pophale) SiO2 
 PCOD8320500
Probable space group: I 4/M C M
;
_chemical_formula_sum "Si O2"
_cell_formula_units_Z 112
_cell_length_a 13.315203
_cell_length_b 13.315203
_cell_length_c 34.221631
_cell_angle_alpha 90.000000
_cell_angle_beta 90.000000
_cell_angle_gamma 90.000000
_cell_volume 6067.311438
_symmetry_space_group_name_H-M "I 4/M C M"
_symmetry_group_IT_number 140
_symmetry_cell_setting 'tetragonal'
loop_
_space_group_symop_operation_xyz
x,y,z
-y,x,z
-x,-y,z
y,-x,z
x,-y,1/2-z
-x,y,1/2-z
y,x,1/2-z
-y,-x,1/2-z
-x,-y,-z
y,-x,-z
x,y,-z
-y,x,-z
-x,y,1/2+z
x,-y,1/2+z
-y,-x,1/2+z
y,x,1/2+z
1/2+x,1/2+y,1/2+z
1/2-y,1/2+x,1/2+z
1/2-x,1/2-y,1/2+z
1/2+y,1/2-x,1/2+z
1/2+x,1/2-y,-z
1/2-x,1/2+y,-z
1/2+y,1/2+x,-z
1/2-y,1/2-x,-z
1/2-x,1/2-y,1/2-z
1/2+y,1/2-x,1/2-z
1/2+x,1/2+y,1/2-z
1/2-y,1/2+x,1/2-z
1/2-x,1/2+y,z
1/2+x,1/2-y,z
1/2-y,1/2-x,z
1/2+y,1/2+x,z
loop_
_atom_site_type_symbol
_atom_site_label
_atom_site_fract_x
_atom_site_fract_y
_atom_site_fract_z
Si Si1 0.859366 0.916441 0.642455
Si Si2 0.603042 0.896959 0.544863
Si Si3 0.119422 0.619422 0.046554
Si Si4 0.241018 0.899037 0.225421
Si Si5 0.265279 0.234722 0.591447
O O1 0.824918 0.915343 0.687098
O O2 0.781180 0.855560 0.616392
O O3 0.965746 0.864486 0.632938
O O4 0.585753 0.914248 0.500000
O O5 0.494844 0.859257 0.560101
O O6 0.685876 0.814125 0.553242
O O7 0.186432 0.686432 0.075110
O O8 0.139707 0.639707 0.000000
O O9 0.179182 0.820819 0.250000
O O10 0.350009 0.850009 0.215655
O O11 0.258609 0.000000 0.250000
#
# Coordination Sequence:
#
# PCOD8320500 Si02
#       5
#    32  16  16  32  16
#     4  11  23  37  56  83 113 150 189 232 285 342
#     4   9  19  37  59  84 114 152 193 226 273 337
#     4   9  19  37  61  86 113 150 192 229 271 340
#     4  11  22  38  61  82 106 144 194 237 282 337
#     4  12  21  36  57  86 119 148 183 239 287 329
#
# _framework density 18.459576999999999
#
# number of rings (size 3 to 8) (size 9 to 14) (size 15 to 20)
#    0.000    1.429    4.286    3.000    0.000    0.571 
#    0.000    0.000    0.000    0.000    0.000   12.000 
#    0.000    0.000    0.000    0.000    0.000    0.000 
#
# Total GULP energy -693908.350799 kJ/mol
# GULP energy per Si atom -12391.220550 kJ/mol
# Density = 1.841756 g / cm^3
# Si number density = 18.459577 Si / 1000 Ang^3
#
#
#
# Elastic Constant Matrix: (Units=GPa)
#
#
# Indices 1 2 3 4 5 6 
#
# 1 256.0755 -89.0901 26.5183 0.0000 0.0000 0.0000
# 2 -89.0901 256.0876 26.4876 0.0000 0.0000 0.0000
# 3 26.5183 26.4876 52.1929 0.0000 0.0000 0.0000
# 4 0.0000 0.0000 0.0000 33.3829 0.0000 0.0000
# 5 0.0000 0.0000 0.0000 0.0000 33.3830 0.0000
# 6 0.0000 0.0000 0.0000 0.0000 0.0000 38.4303
#
#
#
# Elastic Compliance Matrix: (Units=1/GPa)
#
#
# Indices 1 2 3 4 5 6 
#
# 1 0.005018 0.002121 -0.003626 0.000000 0.000000 0.000000
# 2 0.002121 0.005018 -0.003624 0.000000 0.000000 0.000000
# 3 -0.003626 -0.003624 0.022841 0.000000 0.000000 0.000000
# 4 0.000000 0.000000 0.000000 0.029955 0.000000 0.000000
# 5 0.000000 0.000000 0.000000 0.000000 0.029955 0.000000
# 6 0.000000 0.000000 0.000000 0.000000 0.000000 0.026021
#
#
# Mechanical properties :
#
#
# Convention : Reuss Voigt Hill
#
# Bulk Modulus (GPa) = 44.21088 54.68752 49.44920
# Shear Modulus (GPa) = 36.60123 61.06860 48.83492
#
# Velocity S-wave (km/s) = 4.45767 5.75796 5.14903
# Velocity P-wave (km/s) = 7.10609 8.59624 7.88644
#
# Compressibility (1/GPa) = 0.02261886
#
# Stress axis : x y z
#
# Youngs Moduli (GPa) = 199.26274 199.29833 43.78041
#
# Poissons Ratio (x) = -0.42270 0.15876
# Poissons Ratio (y) = -0.42262 0.15866
# Poissons Ratio (z) = 0.72256 0.72226
#
# Static dielectric constant tensor:
#      x y z
#    x 3.561620 0.000000 0.000000 
#    y 0.000000 3.561620 0.000000 
#    z 0.000000 0.000000 3.209150 
# 
# 
# High freq. dielectric constant tensor:
#      x y z
#    x 1.725480 0.000000 0.000000 
#    y 0.000000 1.725480 0.000000 
#    z 0.000000 0.000000 1.709320 
# 
# From -- ./inp_files/10298.got.cif
#   From: 2010.06.25/outbox.cif.g09.slc.cpg/sg140_6_cif.got.tgz:10298.got - 2010.06.28 10:53:23.
