data_PCOD8320560
_publ_section_title
;
Structure prediction by ZEFSAII (Michael W. Deem and Ramdas Pophale) SiO2 
 PCOD8320560
Probable space group: I 41/A M D
;
_chemical_formula_sum "Si O2"
_cell_formula_units_Z 144
_cell_length_a 25.198190
_cell_length_b 25.198190
_cell_length_c 15.518421
_cell_angle_alpha 90.000000
_cell_angle_beta 90.000000
_cell_angle_gamma 90.000000
_cell_volume 9853.402470
_symmetry_space_group_name_H-M "I 41/A M D"
_symmetry_group_IT_number 141
_space_group.IT_coordinate_system_code '2'
_symmetry_cell_setting 'tetragonal'
loop_
_space_group_symop_operation_xyz
x,y,z
1/4-y,3/4+x,1/4+z
-x,1/2-y,z
1/4+y,1/4-x,3/4+z
x,-y,-z
-x,1/2+y,-z
1/4+y,3/4+x,1/4-z
1/4-y,1/4-x,3/4-z
-x,-y,-z
3/4+y,1/4-x,3/4-z
x,1/2+y,-z
3/4-y,3/4+x,1/4-z
-x,y,z
x,1/2-y,z
3/4-y,1/4-x,3/4+z
3/4+y,3/4+x,1/4+z
1/2+x,1/2+y,1/2+z
3/4-y,1/4+x,3/4+z
1/2-x,-y,1/2+z
3/4+y,3/4-x,1/4+z
1/2+x,1/2-y,1/2-z
1/2-x,y,1/2-z
3/4+y,1/4+x,3/4-z
3/4-y,3/4-x,1/4-z
1/2-x,1/2-y,1/2-z
1/4+y,3/4-x,1/4-z
1/2+x,y,1/2-z
1/4-y,1/4+x,3/4-z
1/2-x,1/2+y,1/2+z
1/2+x,-y,1/2+z
1/4-y,3/4-x,1/4+z
1/4+y,1/4+x,3/4+z
loop_
_atom_site_type_symbol
_atom_site_label
_atom_site_fract_x
_atom_site_fract_y
_atom_site_fract_z
Si Si1 0.059150 0.606872 0.597170
Si Si2 0.302414 0.136161 0.302786
Si Si3 0.205398 0.000000 0.000000
Si Si4 0.061068 0.997235 0.708177
Si Si5 0.270531 0.092730 0.929623
O O1 0.095577 0.654424 0.625000
O O2 0.072714 0.586781 0.501979
O O3 0.065451 0.559997 0.665330
O O4 0.000000 0.629115 0.595568
O O5 0.250000 0.119969 0.250000
O O6 0.290612 0.165623 0.392406
O O7 0.336668 0.083661 0.317985
O O8 0.243265 0.948338 0.003328
O O9 0.167811 0.000800 0.083056
O O10 0.097543 0.996244 0.793857
O O11 0.000000 0.011089 0.732269
#
# Coordination Sequence:
#
# PCOD8320560 Si02
#       5
#    32  32  16  32  32
#     4  10  19  29  43  64  90 121 159 193 223 262
#     4  10  18  28  46  65  94 124 155 189 229 275
#     4  10  22  28  47  76  97 116 154 196 246 288
#     4  10  20  32  47  66  92 128 161 190 229 283
#     4  11  18  31  47  71  97 123 153 198 237 290
#
# _framework density 14.614241
#
# number of rings (size 3 to 8) (size 9 to 14) (size 15 to 20)
#    0.000    1.778    5.556    0.667    0.000    2.889 
#    0.000    0.556    0.000    0.000    0.000    0.000 
#    0.000    0.000    0.000    0.222    0.000    0.000 
#
# Total GULP energy -892813.978595 kJ/mol
# GULP energy per Si atom -12400.194147 kJ/mol
# Density = 1.458098 g / cm^3
# Si number density = 14.614241 Si / 1000 Ang^3
#
#
#
# Elastic Constant Matrix: (Units=GPa)
#
#
# Indices 1 2 3 4 5 6 
#
# 1 73.9824 45.6231 37.9315 0.0000 0.0000 0.0000
# 2 45.6231 73.9762 37.9262 0.0000 0.0000 0.0000
# 3 37.9315 37.9262 71.4081 0.0000 0.0000 0.0000
# 4 0.0000 0.0000 0.0000 14.7047 0.0000 0.0000
# 5 0.0000 0.0000 0.0000 0.0000 14.7100 0.0000
# 6 0.0000 0.0000 0.0000 0.0000 0.0000 15.3957
#
#
#
# Elastic Compliance Matrix: (Units=1/GPa)
#
#
# Indices 1 2 3 4 5 6 
#
# 1 0.023937 -0.011328 -0.006698 0.000000 0.000000 0.000000
# 2 -0.011328 0.023937 -0.006696 0.000000 0.000000 0.000000
# 3 -0.006698 -0.006696 0.021119 0.000000 0.000000 0.000000
# 4 0.000000 0.000000 0.000000 0.068005 0.000000 0.000000
# 5 0.000000 0.000000 0.000000 0.000000 0.067981 0.000000
# 6 0.000000 0.000000 0.000000 0.000000 0.000000 0.064953
#
#
# Mechanical properties :
#
#
# Convention : Reuss Voigt Hill
#
# Bulk Modulus (GPa) = 51.15828 51.36981 51.26405
# Shear Modulus (GPa) = 15.34242 15.48781 15.41512
#
# Velocity S-wave (km/s) = 3.24362 3.25895 3.25129
# Velocity P-wave (km/s) = 7.00784 7.02765 7.01775
#
# Compressibility (1/GPa) = 0.01954718
#
# Stress axis : x y z
#
# Youngs Moduli (GPa) = 41.77633 41.77581 47.35179
#
# Poissons Ratio (x) = 0.47325 0.31718
# Poissons Ratio (y) = 0.47326 0.31707
# Poissons Ratio (z) = 0.27984 0.27973
#
# Static dielectric constant tensor:
#      x y z
#    x 2.770440 0.000000 0.000000 
#    y 0.000000 2.770440 0.000000 
#    z 0.000000 0.000000 2.719240 
# 
# 
# High freq. dielectric constant tensor:
#      x y z
#    x 1.547690 0.000000 0.000000 
#    y 0.000000 1.547690 0.000000 
#    z 0.000000 0.000000 1.546350 
# 
# From -- ./inp_files/8764.got.cif
#   From: 2010.03.12/outbox.cif.g09.slc.cpg/sg141_5_cif.got.tgz:8764.got - 2010.04.03 13:18:35.
