data_PCOD8320489
_publ_section_title
;
Structure prediction by ZEFSAII (Michael W. Deem and Ramdas Pophale) SiO2 
 PCOD8320489
Probable space group: I 4/M C M
;
_chemical_formula_sum "Si O2"
_cell_formula_units_Z 160
_cell_length_a 24.707920
_cell_length_b 24.707920
_cell_length_c 13.805206
_cell_angle_alpha 90.000000
_cell_angle_beta 90.000000
_cell_angle_gamma 90.000000
_cell_volume 8427.820254
_symmetry_space_group_name_H-M "I 4/M C M"
_symmetry_group_IT_number 140
_symmetry_cell_setting 'tetragonal'
loop_
_space_group_symop_operation_xyz
x,y,z
-y,x,z
-x,-y,z
y,-x,z
x,-y,1/2-z
-x,y,1/2-z
y,x,1/2-z
-y,-x,1/2-z
-x,-y,-z
y,-x,-z
x,y,-z
-y,x,-z
-x,y,1/2+z
x,-y,1/2+z
-y,-x,1/2+z
y,x,1/2+z
1/2+x,1/2+y,1/2+z
1/2-y,1/2+x,1/2+z
1/2-x,1/2-y,1/2+z
1/2+y,1/2-x,1/2+z
1/2+x,1/2-y,-z
1/2-x,1/2+y,-z
1/2+y,1/2+x,-z
1/2-y,1/2-x,-z
1/2-x,1/2-y,1/2-z
1/2+y,1/2-x,1/2-z
1/2+x,1/2+y,1/2-z
1/2-y,1/2+x,1/2-z
1/2-x,1/2+y,z
1/2+x,1/2-y,z
1/2-y,1/2-x,z
1/2+y,1/2+x,z
loop_
_atom_site_type_symbol
_atom_site_label
_atom_site_fract_x
_atom_site_fract_y
_atom_site_fract_z
Si Si1 0.648709 0.062180 0.265618
Si Si2 0.083790 0.972937 0.886209
Si Si3 0.912589 0.826453 0.772565
Si Si4 0.421044 0.771488 0.892269
Si Si5 0.452786 0.749942 0.390906
O O1 0.595418 0.095418 0.295294
O O2 0.672778 0.086394 0.165857
O O3 0.693819 0.070186 0.348637
O O4 0.631687 0.000000 0.250000
O O5 0.136582 0.957333 0.825987
O O6 0.034367 0.932619 0.858748
O O7 0.096584 0.968746 0.000000
O O8 0.859288 0.859288 0.750000
O O9 0.890604 0.778515 0.841941
O O10 0.936681 0.801626 0.673610
O O11 0.483143 0.753491 0.889097
O O12 0.398846 0.780773 0.000000
O O13 0.430697 0.741692 0.500000
#
# Coordination Sequence:
#
# PCOD8320489 Si02
#       5
#    32  32  32  32  32
#     4   9  18  34  59  91 122 148 174 205 252 318
#     4   9  20  35  48  68 102 143 182 225 290 362
#     4  11  22  31  52  76 101 134 188 244 291 329
#     4   9  19  36  54  75 106 144 187 227 270 325
#     4   9  20  37  54  74 106 148 192 231 269 322
#
# _framework density 18.984742000000001
#
# number of rings (size 3 to 8) (size 9 to 14) (size 15 to 20)
#    0.000    2.600    0.000    3.000    5.600    2.600 
#    0.000    1.000    0.000    9.600    0.000   18.200 
#    0.000    0.000    0.000    0.000    0.000    0.000 
#
# Total GULP energy -991908.549936 kJ/mol
# GULP energy per Si atom -12398.856874 kJ/mol
# Density = 1.894153 g / cm^3
# Si number density = 18.984742 Si / 1000 Ang^3
#
#
#
# Elastic Constant Matrix: (Units=GPa)
#
#
# Indices 1 2 3 4 5 6 
#
# 1 79.6432 49.9767 35.7815 0.0000 0.0000 0.0000
# 2 49.9767 79.6432 35.7815 0.0000 0.0000 0.0000
# 3 35.7815 35.7815 117.3616 0.0000 0.0000 0.0000
# 4 0.0000 0.0000 0.0000 17.0242 0.0000 0.0000
# 5 0.0000 0.0000 0.0000 0.0000 17.0242 0.0000
# 6 0.0000 0.0000 0.0000 0.0000 0.0000 28.6651
#
#
#
# Elastic Compliance Matrix: (Units=1/GPa)
#
#
# Indices 1 2 3 4 5 6 
#
# 1 0.021492 -0.012216 -0.002828 0.000000 0.000000 0.000000
# 2 -0.012216 0.021492 -0.002828 0.000000 0.000000 0.000000
# 3 -0.002828 -0.002828 0.010245 0.000000 0.000000 0.000000
# 4 0.000000 0.000000 0.000000 0.058740 0.000000 0.000000
# 5 0.000000 0.000000 0.000000 0.000000 0.058740 0.000000
# 6 0.000000 0.000000 0.000000 0.000000 0.000000 0.034886
#
#
# Mechanical properties :
#
#
# Convention : Reuss Voigt Hill
#
# Bulk Modulus (GPa) = 57.19161 57.74747 57.46954
# Shear Modulus (GPa) = 20.22915 22.88324 21.55619
#
# Velocity S-wave (km/s) = 3.26781 3.47558 3.37330
# Velocity P-wave (km/s) = 6.66548 6.82569 6.74606
#
# Compressibility (1/GPa) = 0.01748508
#
# Stress axis : x y z
#
# Youngs Moduli (GPa) = 46.52849 46.52849 97.60667
#
# Poissons Ratio (x) = 0.56839 0.27605
# Poissons Ratio (y) = 0.56839 0.27605
# Poissons Ratio (z) = 0.13159 0.13159
#
# Static dielectric constant tensor:
#      x y z
#    x 3.219400 0.000000 0.000000 
#    y 0.000000 3.219400 0.000000 
#    z 0.000000 0.000000 3.942870 
# 
# 
# High freq. dielectric constant tensor:
#      x y z
#    x 1.713860 0.000000 0.000000 
#    y 0.000000 1.713860 0.000000 
#    z 0.000000 0.000000 1.754720 
# 
# From -- ./inp_files/4692.got.cif
#   From: 2010.06.25/outbox.cif.g09.slc.cpg/sg140_3_cif.got.tgz:4692.got - 2010.06.28 10:53:23.
