data_PCOD8320759
_publ_section_title
;
Structure prediction by ZEFSAII (Michael W. Deem and Ramdas Pophale) SiO2 
 PCOD8320759
Probable space group: I 41/A M D
;
_chemical_formula_sum "Si O2"
_cell_formula_units_Z 192
_cell_length_a 18.569347
_cell_length_b 18.569347
_cell_length_c 29.946162
_cell_angle_alpha 90.000000
_cell_angle_beta 90.000000
_cell_angle_gamma 90.000000
_cell_volume 10326.054986
_symmetry_space_group_name_H-M "I 41/A M D"
_symmetry_group_IT_number 141
_space_group.IT_coordinate_system_code '2'
_symmetry_cell_setting 'tetragonal'
loop_
_space_group_symop_operation_xyz
x,y,z
1/4-y,3/4+x,1/4+z
-x,1/2-y,z
1/4+y,1/4-x,3/4+z
x,-y,-z
-x,1/2+y,-z
1/4+y,3/4+x,1/4-z
1/4-y,1/4-x,3/4-z
-x,-y,-z
3/4+y,1/4-x,3/4-z
x,1/2+y,-z
3/4-y,3/4+x,1/4-z
-x,y,z
x,1/2-y,z
3/4-y,1/4-x,3/4+z
3/4+y,3/4+x,1/4+z
1/2+x,1/2+y,1/2+z
3/4-y,1/4+x,3/4+z
1/2-x,-y,1/2+z
3/4+y,3/4-x,1/4+z
1/2+x,1/2-y,1/2-z
1/2-x,y,1/2-z
3/4+y,1/4+x,3/4-z
3/4-y,3/4-x,1/4-z
1/2-x,1/2-y,1/2-z
1/4+y,3/4-x,1/4-z
1/2+x,y,1/2-z
1/4-y,1/4+x,3/4-z
1/2-x,1/2+y,1/2+z
1/2+x,-y,1/2+z
1/4-y,3/4-x,1/4+z
1/4+y,1/4+x,3/4+z
loop_
_atom_site_type_symbol
_atom_site_label
_atom_site_fract_x
_atom_site_fract_y
_atom_site_fract_z
Si Si1 0.666542 0.415291 0.697366
Si Si2 0.916286 0.439443 0.197442
Si Si3 0.665730 0.915777 0.550632
Si Si4 0.190906 0.333012 0.450845
Si Si5 0.919602 0.334759 0.627179
Si Si6 0.082990 0.667011 0.125000
Si Si7 0.917667 0.332333 0.375000
O O1 0.631011 0.491405 0.684778
O O2 0.750787 0.417717 0.686067
O O3 0.653611 0.396101 0.748964
O O4 0.630325 0.353312 0.668005
O O5 0.902998 0.415760 0.248456
O O6 0.889549 0.373475 0.166814
O O7 0.000000 0.458415 0.188760
O O8 0.742871 0.882983 0.562305
O O9 0.606152 0.873819 0.578682
O O10 0.213539 0.250000 0.444309
O O11 0.126240 0.355954 0.418596
O O12 0.926409 0.250000 0.627313
O O13 0.000000 0.369095 0.626483
O O14 0.097470 0.750000 0.113411
O O15 0.903140 0.250000 0.362475
#
# Coordination Sequence:
#
# PCOD8320759 Si02
#       7
#    32  32  32  32  32  16  16
#     4  10  21  37  57  79 104 136 174 215 257 306
#     4   9  18  34  55  77 103 137 176 216 259 308
#     4  10  21  36  55  79 105 136 174 214 258 308
#     4   9  18  33  53  76 104 139 176 215 260 309
#     4  10  21  35  52  77 107 138 173 214 260 308
#     4  11  24  39  56  80 108 137 170 211 260 310
#     4   9  18  31  48  74 106 139 176 217 260 306
#
# _framework density 18.593741999999999
#
# number of rings (size 3 to 8) (size 9 to 14) (size 15 to 20)
#    0.000    2.333    0.000    2.000    0.000    7.333 
#    0.000    6.667    0.000    0.000    0.000    8.167 
#    0.000    0.000    0.000    0.000    0.000    0.000 
#
# Total GULP energy -1190631.846689 kJ/mol
# GULP energy per Si atom -12402.415070 kJ/mol
# Density = 1.855142 g / cm^3
# Si number density = 18.593742 Si / 1000 Ang^3
#
#
#
# Elastic Constant Matrix: (Units=GPa)
#
#
# Indices 1 2 3 4 5 6 
#
# 1 84.9780 43.6492 48.7974 0.0000 0.0000 0.0000
# 2 43.6492 84.9762 48.7969 0.0000 0.0000 0.0000
# 3 48.7974 48.7969 95.8950 0.0000 0.0000 0.0000
# 4 0.0000 0.0000 0.0000 33.5507 0.0000 0.0000
# 5 0.0000 0.0000 0.0000 0.0000 33.5509 0.0000
# 6 0.0000 0.0000 0.0000 0.0000 0.0000 28.9531
#
#
#
# Elastic Compliance Matrix: (Units=1/GPa)
#
#
# Indices 1 2 3 4 5 6 
#
# 1 0.018430 -0.005766 -0.006444 0.000000 0.000000 0.000000
# 2 -0.005766 0.018431 -0.006444 0.000000 0.000000 0.000000
# 3 -0.006444 -0.006444 0.016986 0.000000 0.000000 0.000000
# 4 0.000000 0.000000 0.000000 0.029806 0.000000 0.000000
# 5 0.000000 0.000000 0.000000 0.000000 0.029806 0.000000
# 6 0.000000 0.000000 0.000000 0.000000 0.000000 0.034539
#
#
# Mechanical properties :
#
#
# Convention : Reuss Voigt Hill
#
# Bulk Modulus (GPa) = 60.46823 60.92626 60.69724
# Shear Modulus (GPa) = 26.20285 27.51797 26.86041
#
# Velocity S-wave (km/s) = 3.75804 3.85120 3.80490
# Velocity P-wave (km/s) = 7.17090 7.25354 7.21234
#
# Compressibility (1/GPa) = 0.01653761
#
# Stress axis : x y z
#
# Youngs Moduli (GPa) = 54.25893 54.25779 58.87052
#
# Poissons Ratio (x) = 0.31287 0.37937
# Poissons Ratio (y) = 0.31288 0.37937
# Poissons Ratio (z) = 0.34965 0.34965
#
# Static dielectric constant tensor:
#      x y z
#    x 3.456570 0.000000 0.000000 
#    y 0.000000 3.456560 0.000000 
#    z 0.000000 0.000000 3.540060 
# 
# 
# High freq. dielectric constant tensor:
#      x y z
#    x 1.719640 0.000000 0.000000 
#    y 0.000000 1.719640 0.000000 
#    z 0.000000 0.000000 1.730410 
# 
# From -- ./inp_files/14494.got.cif
#   From: 2010.03.12/outbox.cif.g09.slc.cpg/sg141_8_cif.got.tgz:14494.got - 2010.04.03 13:18:35.
