data_PCOD8320871
_publ_section_title
;
Structure prediction by ZEFSAII (Michael W. Deem and Ramdas Pophale) SiO2 
 PCOD8320871
Probable space group: I 41/A M D
;
_chemical_formula_sum "Si O2"
_cell_formula_units_Z 68
_cell_length_a 15.677878
_cell_length_b 15.677878
_cell_length_c 13.567772
_cell_angle_alpha 90.000000
_cell_angle_beta 90.000000
_cell_angle_gamma 90.000000
_cell_volume 3334.902168
_symmetry_space_group_name_H-M "I 41/A M D"
_symmetry_group_IT_number 141
_space_group.IT_coordinate_system_code '2'
_symmetry_cell_setting 'tetragonal'
loop_
_space_group_symop_operation_xyz
x,y,z
1/4-y,3/4+x,1/4+z
-x,1/2-y,z
1/4+y,1/4-x,3/4+z
x,-y,-z
-x,1/2+y,-z
1/4+y,3/4+x,1/4-z
1/4-y,1/4-x,3/4-z
-x,-y,-z
3/4+y,1/4-x,3/4-z
x,1/2+y,-z
3/4-y,3/4+x,1/4-z
-x,y,z
x,1/2-y,z
3/4-y,1/4-x,3/4+z
3/4+y,3/4+x,1/4+z
1/2+x,1/2+y,1/2+z
3/4-y,1/4+x,3/4+z
1/2-x,-y,1/2+z
3/4+y,3/4-x,1/4+z
1/2+x,1/2-y,1/2-z
1/2-x,y,1/2-z
3/4+y,1/4+x,3/4-z
3/4-y,3/4-x,1/4-z
1/2-x,1/2-y,1/2-z
1/4+y,3/4-x,1/4-z
1/2+x,y,1/2-z
1/4-y,1/4+x,3/4-z
1/2-x,1/2+y,1/2+z
1/2+x,-y,1/2+z
1/4-y,3/4-x,1/4+z
1/4+y,1/4+x,3/4+z
loop_
_atom_site_type_symbol
_atom_site_label
_atom_site_fract_x
_atom_site_fract_y
_atom_site_fract_z
Si Si1 0.335478 0.585478 0.875000
Si Si2 0.000000 0.900723 0.972683
Si Si3 0.849397 0.649527 0.832665
Si Si4 0.500000 0.250000 0.625000
O O1 0.350860 0.485295 0.884864
O O2 0.380298 0.623107 0.777066
O O3 0.918021 0.879627 0.909887
O O4 0.000000 0.838422 0.065785
O O5 0.000000 0.000000 0.000000
O O6 0.833001 0.750000 0.836248
#
# Coordination Sequence:
#
# PCOD8320871 Si02
#       4
#    16  16  32   4
#     4  10  24  41  77  96 142 172 236 294 354 424
#     4  12  30  44  77  98 148 190 237 296 355 431
#     4  11  25  47  68 108 134 185 234 292 356 432
#     4  12  28  56  64 110 144 188 256 296 348 446
#
# _framework density 20.390402999999999
#
# number of rings (size 3 to 8) (size 9 to 14) (size 15 to 20)
#    0.000    0.941    2.353    2.824   19.765    0.000 
#    0.000    0.000    0.000    0.000    0.000    0.000 
#    0.000    0.000    0.000    0.000    0.000    0.000 
#
# Total GULP energy -421623.903734 kJ/mol
# GULP energy per Si atom -12400.703051 kJ/mol
# Density = 2.034399 g / cm^3
# Si number density = 20.390403 Si / 1000 Ang^3
#
#
#
# Elastic Constant Matrix: (Units=GPa)
#
#
# Indices 1 2 3 4 5 6 
#
# 1 139.6272 70.7530 90.6863 0.0000 0.0000 0.0000
# 2 70.7530 139.6272 90.6863 0.0000 0.0000 0.0000
# 3 90.6863 90.6863 174.2957 0.0000 0.0000 0.0000
# 4 0.0000 0.0000 0.0000 55.1755 0.0000 0.0000
# 5 0.0000 0.0000 0.0000 0.0000 55.1755 0.0000
# 6 0.0000 0.0000 0.0000 0.0000 0.0000 32.4421
#
#
#
# Elastic Compliance Matrix: (Units=1/GPa)
#
#
# Indices 1 2 3 4 5 6 
#
# 1 0.011570 -0.002950 -0.004485 0.000000 0.000000 0.000000
# 2 -0.002950 0.011570 -0.004485 0.000000 0.000000 0.000000
# 3 -0.004485 -0.004485 0.010404 0.000000 0.000000 0.000000
# 4 0.000000 0.000000 0.000000 0.018124 0.000000 0.000000
# 5 0.000000 0.000000 0.000000 0.000000 0.018124 0.000000
# 6 0.000000 0.000000 0.000000 0.000000 0.000000 0.030824
#
#
# Mechanical properties :
#
#
# Convention : Reuss Voigt Hill
#
# Bulk Modulus (GPa) = 103.04604 106.42235 104.73420
# Shear Modulus (GPa) = 39.15754 41.98693 40.57224
#
# Velocity S-wave (km/s) = 4.38698 4.54271 4.46552
# Velocity P-wave (km/s) = 8.73539 8.93424 8.83537
#
# Compressibility (1/GPa) = 0.00970440
#
# Stress axis : x y z
#
# Youngs Moduli (GPa) = 86.43403 86.43403 96.11339
#
# Poissons Ratio (x) = 0.25495 0.43106
# Poissons Ratio (y) = 0.25495 0.43106
# Poissons Ratio (z) = 0.38765 0.38765
#
# Static dielectric constant tensor:
#      x y z
#    x 4.174000 0.000000 0.000000 
#    y 0.000000 4.174000 0.000000 
#    z 0.000000 0.000000 4.175290 
# 
# 
# High freq. dielectric constant tensor:
#      x y z
#    x 1.809400 0.000000 0.000000 
#    y 0.000000 1.809400 0.000000 
#    z 0.000000 0.000000 1.818960 
# 
# From -- ./inp_files/3856.got.cif
#   From: 2010.03.12/outbox.cif.g09.slc.cpg/sg141_2_cif.got.tgz:3856.got - 2010.04.03 13:18:35.
