data_PCOD8320404
_publ_section_title
;
Structure prediction by ZEFSAII (Michael W. Deem and Ramdas Pophale) SiO2 
 PCOD8320404
Probable space group: I 4/M C M
;
_chemical_formula_sum "Si O2"
_cell_formula_units_Z 160
_cell_length_a 19.316775
_cell_length_b 19.316775
_cell_length_c 20.708712
_cell_angle_alpha 90.000000
_cell_angle_beta 90.000000
_cell_angle_gamma 90.000000
_cell_volume 7727.203162
_symmetry_space_group_name_H-M "I 4/M C M"
_symmetry_group_IT_number 140
_symmetry_cell_setting 'tetragonal'
loop_
_space_group_symop_operation_xyz
x,y,z
-y,x,z
-x,-y,z
y,-x,z
x,-y,1/2-z
-x,y,1/2-z
y,x,1/2-z
-y,-x,1/2-z
-x,-y,-z
y,-x,-z
x,y,-z
-y,x,-z
-x,y,1/2+z
x,-y,1/2+z
-y,-x,1/2+z
y,x,1/2+z
1/2+x,1/2+y,1/2+z
1/2-y,1/2+x,1/2+z
1/2-x,1/2-y,1/2+z
1/2+y,1/2-x,1/2+z
1/2+x,1/2-y,-z
1/2-x,1/2+y,-z
1/2+y,1/2+x,-z
1/2-y,1/2-x,-z
1/2-x,1/2-y,1/2-z
1/2+y,1/2-x,1/2-z
1/2+x,1/2+y,1/2-z
1/2-y,1/2+x,1/2-z
1/2-x,1/2+y,z
1/2+x,1/2-y,z
1/2-y,1/2-x,z
1/2+y,1/2+x,z
loop_
_atom_site_type_symbol
_atom_site_label
_atom_site_fract_x
_atom_site_fract_y
_atom_site_fract_z
Si Si1 0.362932 0.757188 0.624799
Si Si2 0.305280 0.076892 0.000000
Si Si3 0.419086 0.196387 0.748778
Si Si4 0.582751 0.802091 0.500000
Si Si5 0.572806 0.415527 0.176622
Si Si6 0.371928 0.281488 0.375599
O O1 0.335526 0.835526 0.626758
O O2 0.410914 0.754312 0.561237
O O3 0.406367 0.750093 0.691485
O O4 0.293188 0.710272 0.621399
O O5 0.328200 0.996545 0.000000
O O6 0.373001 0.127000 0.000000
O O7 0.500000 0.175760 0.750000
O O8 0.373954 0.126047 0.751651
O O9 0.397769 0.237844 0.685040
O O10 0.629446 0.870555 0.500000
O O11 0.598946 0.755396 0.438333
O O12 0.595790 0.492650 0.161615
O O13 0.596782 0.403219 0.250000
O O14 0.607990 0.362500 0.128108
#
# Coordination Sequence:
#
# PCOD8320404 Si02
#       6
#    32  16  32  16  32  32
#     4  10  21  39  63  93 124 159 202 256 321 384
#     4  10  23  44  69  94 126 165 210 263 327 396
#     4  11  24  40  63  95 127 164 216 267 322 387
#     4  12  27  44  63  91 127 170 223 270 324 385
#     4   9  20  37  60  94 131 166 204 251 315 390
#     4  12  24  39  66  91 128 167 212 266 321 375
#
# _framework density 20.706068999999999
#
# number of rings (size 3 to 8) (size 9 to 14) (size 15 to 20)
#    0.000    1.400    0.000    6.000    8.400    2.800 
#    0.000    0.000    0.000    7.200    0.000    0.000 
#    0.000    0.000    0.000    0.000    0.000    0.000 
#
# Total GULP energy -991123.401556 kJ/mol
# GULP energy per Si atom -12389.042519 kJ/mol
# Density = 2.065894 g / cm^3
# Si number density = 20.706069 Si / 1000 Ang^3
#
#
#
# Elastic Constant Matrix: (Units=GPa)
#
#
# Indices 1 2 3 4 5 6 
#
# 1 105.3838 46.6375 55.9094 0.0000 0.0000 0.0000
# 2 46.6375 105.3831 55.9091 0.0000 0.0000 0.0000
# 3 55.9094 55.9091 172.1962 0.0000 0.0000 0.0000
# 4 0.0000 0.0000 0.0000 -41.9286 0.0000 0.0000
# 5 0.0000 0.0000 0.0000 0.0000 -41.7992 0.0000
# 6 0.0000 0.0000 0.0000 0.0000 0.0000 44.1580
#
#
#
# Elastic Compliance Matrix: (Units=1/GPa)
#
#
# Indices 1 2 3 4 5 6 
#
# 1 0.012832 -0.004190 -0.002806 0.000000 0.000000 0.000000
# 2 -0.004190 0.012832 -0.002806 0.000000 0.000000 0.000000
# 3 -0.002806 -0.002806 0.007629 0.000000 0.000000 0.000000
# 4 0.000000 0.000000 0.000000 -0.023850 0.000000 0.000000
# 5 0.000000 0.000000 0.000000 0.000000 -0.023924 0.000000
# 6 0.000000 0.000000 0.000000 0.000000 0.000000 0.022646
#
#
# Mechanical properties :
#
#
# Convention : Reuss Voigt Hill
#
# Bulk Modulus (GPa) = 73.04791 77.76389 75.40590
# Shear Modulus (GPa) = 154.64060 7.05317 80.84688
#
# Velocity S-wave (km/s) = 8.65135 1.84763 6.25538
# Velocity P-wave (km/s) = 11.62538 6.49533 9.41644
#
# Compressibility (1/GPa) = 0.01368965
#
# Stress axis : x y z
#
# Youngs Moduli (GPa) = 77.92928 77.92893 131.07234
#
# Poissons Ratio (x) = 0.32654 0.36777
# Poissons Ratio (y) = 0.32655 0.36777
# Poissons Ratio (z) = 0.21866 0.21866
#
# Static dielectric constant tensor:
#      x y z
#    x 3.761880 0.000000 0.000000 
#    y 0.000000 3.761890 0.000000 
#    z 0.000000 0.000000 3.919020 
# 
# 
# High freq. dielectric constant tensor:
#      x y z
#    x 1.814370 0.000000 0.000000 
#    y 0.000000 1.814370 0.000000 
#    z 0.000000 0.000000 1.812000 
# 
# From -- ./inp_files/6931.got.cif
#   From: 2010.06.25/outbox.cif.g09.slc.cpg/sg140_4_cif.got.tgz:6931.got - 2010.06.28 10:53:23.
