data_PCOD8320896
_publ_section_title
;
Structure prediction by ZEFSAII (Michael W. Deem and Ramdas Pophale) SiO2 
 PCOD8320896
Probable space group: I 41/A M D
;
_chemical_formula_sum "Si O2"
_cell_formula_units_Z 192
_cell_length_a 17.625521
_cell_length_b 17.625521
_cell_length_c 28.940710
_cell_angle_alpha 90.000000
_cell_angle_beta 90.000000
_cell_angle_gamma 90.000000
_cell_volume 8990.691754
_symmetry_space_group_name_H-M "I 41/A M D"
_symmetry_group_IT_number 141
_space_group.IT_coordinate_system_code '2'
_symmetry_cell_setting 'tetragonal'
loop_
_space_group_symop_operation_xyz
x,y,z
1/4-y,3/4+x,1/4+z
-x,1/2-y,z
1/4+y,1/4-x,3/4+z
x,-y,-z
-x,1/2+y,-z
1/4+y,3/4+x,1/4-z
1/4-y,1/4-x,3/4-z
-x,-y,-z
3/4+y,1/4-x,3/4-z
x,1/2+y,-z
3/4-y,3/4+x,1/4-z
-x,y,z
x,1/2-y,z
3/4-y,1/4-x,3/4+z
3/4+y,3/4+x,1/4+z
1/2+x,1/2+y,1/2+z
3/4-y,1/4+x,3/4+z
1/2-x,-y,1/2+z
3/4+y,3/4-x,1/4+z
1/2+x,1/2-y,1/2-z
1/2-x,y,1/2-z
3/4+y,1/4+x,3/4-z
3/4-y,3/4-x,1/4-z
1/2-x,1/2-y,1/2-z
1/4+y,3/4-x,1/4-z
1/2+x,y,1/2-z
1/4-y,1/4+x,3/4-z
1/2-x,1/2+y,1/2+z
1/2+x,-y,1/2+z
1/4-y,3/4-x,1/4+z
1/4+y,1/4+x,3/4+z
loop_
_atom_site_type_symbol
_atom_site_label
_atom_site_fract_x
_atom_site_fract_y
_atom_site_fract_z
Si Si1 0.272468 0.575178 0.058279
Si Si2 0.416746 0.832485 0.820876
Si Si3 0.767349 0.596093 0.546486
Si Si4 0.584850 0.883148 0.328338
Si Si5 0.339328 0.839229 0.624528
Si Si6 0.088442 0.750000 0.335368
Si Si7 0.000000 0.658886 0.016182
O O1 0.243024 0.489665 0.054858
O O2 0.210522 0.619146 0.088286
O O3 0.356214 0.572037 0.081749
O O4 0.266467 0.615953 0.008013
O O5 0.424130 0.825871 0.875000
O O6 0.500000 0.854277 0.800412
O O7 0.391154 0.750000 0.801015
O O8 0.354473 0.894533 0.809234
O O9 0.714262 0.647940 0.579423
O O10 0.500000 0.906092 0.314249
O O11 0.584614 0.834614 0.375000
O O12 0.621505 0.827795 0.289546
O O13 0.331251 0.750000 0.638501
O O14 0.425351 0.862065 0.612940
O O15 0.126515 0.750000 0.284952
O O16 0.000000 0.750000 0.325892
O O17 0.000000 0.750000 0.019819
#
# Coordination Sequence:
#
# PCOD8320896 Si02
#       7
#    32  32  32  32  32  16  16
#     4  11  26  41  61  94 129 170 219 278 334 398
#     4   9  18  34  60  93 122 155 206 270 330 388
#     4  11  23  42  63  89 129 173 221 267 334 410
#     4  11  21  37  62  92 125 157 203 265 330 389
#     4  11  23  43  67  91 129 178 226 273 338 407
#     4   9  20  38  59  87 121 164 213 265 311 382
#     4   9  18  34  61  91 121 157 208 260 322 407
#
# _framework density 21.355421
#
# number of rings (size 3 to 8) (size 9 to 14) (size 15 to 20)
#    0.000    1.667    0.833    4.500    1.167    5.333 
#    0.000    1.667    0.000    4.000    0.000    0.000 
#    0.000    0.000    0.000    0.000    0.000    0.000 
#
# Total GULP energy -1189649.728441 kJ/mol
# GULP energy per Si atom -12392.184671 kJ/mol
# Density = 2.130681 g / cm^3
# Si number density = 21.355421 Si / 1000 Ang^3
#
#
#
# Elastic Constant Matrix: (Units=GPa)
#
#
# Indices 1 2 3 4 5 6 
#
# 1 107.0512 32.7878 25.7732 0.0000 0.0000 0.0000
# 2 32.7878 107.0512 25.7731 0.0000 0.0000 0.0000
# 3 25.7732 25.7731 89.7159 0.0000 0.0000 0.0000
# 4 0.0000 0.0000 0.0000 18.0277 0.0000 0.0000
# 5 0.0000 0.0000 0.0000 0.0000 18.0274 0.0000
# 6 0.0000 0.0000 0.0000 0.0000 0.0000 58.3968
#
#
#
# Elastic Compliance Matrix: (Units=1/GPa)
#
#
# Indices 1 2 3 4 5 6 
#
# 1 0.010732 -0.002734 -0.002298 0.000000 0.000000 0.000000
# 2 -0.002734 0.010732 -0.002298 0.000000 0.000000 0.000000
# 3 -0.002298 -0.002298 0.012466 0.000000 0.000000 0.000000
# 4 0.000000 0.000000 0.000000 0.055470 0.000000 0.000000
# 5 0.000000 0.000000 0.000000 0.000000 0.055471 0.000000
# 6 0.000000 0.000000 0.000000 0.000000 0.000000 0.017124
#
#
# Mechanical properties :
#
#
# Convention : Reuss Voigt Hill
#
# Bulk Modulus (GPa) = 51.88901 52.49851 52.19376
# Shear Modulus (GPa) = 27.31084 33.52267 30.41676
#
# Velocity S-wave (km/s) = 3.58001 3.96631 3.77810
# Velocity P-wave (km/s) = 6.43733 6.75367 6.59739
#
# Compressibility (1/GPa) = 0.01927190
#
# Stress axis : x y z
#
# Youngs Moduli (GPa) = 93.18103 93.18098 80.21561
#
# Poissons Ratio (x) = 0.25474 0.18431
# Poissons Ratio (y) = 0.25474 0.18431
# Poissons Ratio (z) = 0.21410 0.21410
#
# Static dielectric constant tensor:
#      x y z
#    x 3.939940 0.000000 0.000000 
#    y 0.000000 3.939940 0.000000 
#    z 0.000000 0.000000 3.862270 
# 
# 
# High freq. dielectric constant tensor:
#      x y z
#    x 1.836370 0.000000 0.000000 
#    y 0.000000 1.836370 0.000000 
#    z 0.000000 0.000000 1.827850 
# 
# From -- ./inp_files/14478.got.cif
#   From: 2010.03.12/outbox.cif.g09.slc.cpg/sg141_8_cif.got.tgz:14478.got - 2010.04.03 13:18:35.
