data_PCOD8320946
_publ_section_title
;
Structure prediction by ZEFSAII (Michael W. Deem and Ramdas Pophale) SiO2 
 PCOD8320946
Probable space group: I 41/A M D
;
_chemical_formula_sum "Si O2"
_cell_formula_units_Z 80
_cell_length_a 21.000000
_cell_length_b 21.000000
_cell_length_c 18.000000
_cell_angle_alpha 90.000000
_cell_angle_beta 90.000000
_cell_angle_gamma 90.000000
_cell_volume 7938.000000
_symmetry_space_group_name_H-M "I 41/A M D"
_symmetry_group_IT_number 141
_space_group.IT_coordinate_system_code '2'
_symmetry_cell_setting 'tetragonal'
loop_
_space_group_symop_operation_xyz
x,y,z
1/4-y,3/4+x,1/4+z
-x,1/2-y,z
1/4+y,1/4-x,3/4+z
x,-y,-z
-x,1/2+y,-z
1/4+y,3/4+x,1/4-z
1/4-y,1/4-x,3/4-z
-x,-y,-z
3/4+y,1/4-x,3/4-z
x,1/2+y,-z
3/4-y,3/4+x,1/4-z
-x,y,z
x,1/2-y,z
3/4-y,1/4-x,3/4+z
3/4+y,3/4+x,1/4+z
1/2+x,1/2+y,1/2+z
3/4-y,1/4+x,3/4+z
1/2-x,-y,1/2+z
3/4+y,3/4-x,1/4+z
1/2+x,1/2-y,1/2-z
1/2-x,y,1/2-z
3/4+y,1/4+x,3/4-z
3/4-y,3/4-x,1/4-z
1/2-x,1/2-y,1/2-z
1/4+y,3/4-x,1/4-z
1/2+x,y,1/2-z
1/4-y,1/4+x,3/4-z
1/2-x,1/2+y,1/2+z
1/2+x,-y,1/2+z
1/4-y,3/4-x,1/4+z
1/4+y,1/4+x,3/4+z
loop_
_atom_site_type_symbol
_atom_site_label
_atom_site_fract_x
_atom_site_fract_y
_atom_site_fract_z
Si Si1 0.881392 0.119279 0.148513
Si Si2 0.575596 0.250000 0.812664
Si Si3 0.380079 0.530125 0.353979
Si Si4 0.131671 0.821615 0.556529
Si Si5 0.812535 0.750000 0.198373
Si Si6 0.775683 0.322838 0.057425
O O1 0.937946 0.157236 0.109572
O O2 0.883611 0.131344 0.236417
O O3 0.815035 0.148856 0.124841
O O4 0.882513 0.044795 0.127093
O O5 0.500000 0.250000 0.792475
O O6 0.619870 0.250000 0.740044
O O7 0.312527 0.562527 0.375000
O O8 0.437117 0.563359 0.398119
O O9 0.388111 0.541031 0.266643
O O10 0.085971 0.835971 0.625000
O O11 0.119492 0.750000 0.529152
O O12 0.203516 0.830745 0.583762
O O13 0.750000 0.750000 0.250000
O O14 0.793345 0.250000 0.041474
#
# Coordination Sequence:
#
# PCOD8320946 Si02
#       6
#    32  16  32  32  16  32
#     4  11  22  42  65  91 129 170 215 270 338 401
#     4  12  24  38  66  96 129 173 231 277 332 416
#     4  11  23  39  64  94 128 176 225 268 327 413
#     4  10  23  43  65  91 123 162 210 266 332 398
#     4  12  22  42  68  92 137 183 224 275 356 407
#     4  10  22  41  63  88 127 168 208 264 328 391
#
# _framework density 10.078105000000001
#
# number of rings (size 3 to 8) (size 9 to 14) (size 15 to 20)
#    0.000    1.200    4.000    1.800    0.000    3.400 
#    1.800    6.000    0.000    0.000    0.000    0.000 
#    0.000    0.000    0.000    0.000    0.000    0.000 
#
# Total GULP energy -992190.554633 kJ/mol
# GULP energy per Si atom -12402.381933 kJ/mol
# Density = 1.005517 g / cm^3
# Si number density = 10.078105 Si / 1000 Ang^3
#
#
#
# Elastic Constant Matrix: (Units=GPa)
#
#
# Indices 1 2 3 4 5 6 
#
# 1 83.6115 35.0314 38.3236 0.0000 0.0000 0.0000
# 2 35.0314 83.6115 38.3236 0.0000 0.0000 0.0000
# 3 38.3236 38.3236 81.6592 0.0000 0.0000 0.0000
# 4 0.0000 0.0000 0.0000 30.0099 0.0000 0.0000
# 5 0.0000 0.0000 0.0000 0.0000 30.0099 0.0000
# 6 0.0000 0.0000 0.0000 0.0000 0.0000 38.7855
#
#
#
# Elastic Compliance Matrix: (Units=1/GPa)
#
#
# Indices 1 2 3 4 5 6 
#
# 1 0.016340 -0.004244 -0.005677 0.000000 0.000000 0.000000
# 2 -0.004244 0.016340 -0.005677 0.000000 0.000000 0.000000
# 3 -0.005677 -0.005677 0.017574 0.000000 0.000000 0.000000
# 4 0.000000 0.000000 0.000000 0.033322 0.000000 0.000000
# 5 0.000000 0.000000 0.000000 0.000000 0.033322 0.000000
# 6 0.000000 0.000000 0.000000 0.000000 0.000000 0.025783
#
#
# Mechanical properties :
#
#
# Convention : Reuss Voigt Hill
#
# Bulk Modulus (GPa) = 52.46794 52.47105 52.46950
# Shear Modulus (GPa) = 27.74211 28.90797 28.32504
#
# Velocity S-wave (km/s) = 3.71395 3.79119 3.75277
# Velocity P-wave (km/s) = 6.66921 6.72702 6.69818
#
# Compressibility (1/GPa) = 0.01905926
#
# Stress axis : x y z
#
# Youngs Moduli (GPa) = 61.19830 61.19830 56.90090
#
# Poissons Ratio (x) = 0.25974 0.32302
# Poissons Ratio (y) = 0.25974 0.32302
# Poissons Ratio (z) = 0.34741 0.34741
#
# Static dielectric constant tensor:
#      x y z
#    x 3.702520 0.000000 0.000000 
#    y 0.000000 3.702520 0.000000 
#    z 0.000000 0.000000 3.553760 
# 
# 
# High freq. dielectric constant tensor:
#      x y z
#    x 1.789950 0.000000 0.000000 
#    y 0.000000 1.789950 0.000000 
#    z 0.000000 0.000000 1.786370 
# 
# From -- ./inp_files/8641.got.cif
#   From: 2010.03.12/outbox.ucp.g09.slc.cvg/sg141_5_cif.got.tgz:8641.got - 2010.05.04 20:32:25.
