data_PCOD8320618
_publ_section_title
;
Structure prediction by ZEFSAII (Michael W. Deem and Ramdas Pophale) SiO2 
 PCOD8320618
Probable space group: I 41/A M D
;
_chemical_formula_sum "Si O2"
_cell_formula_units_Z 176
_cell_length_a 27.910516
_cell_length_b 27.910516
_cell_length_c 12.495066
_cell_angle_alpha 90.000000
_cell_angle_beta 90.000000
_cell_angle_gamma 90.000000
_cell_volume 9733.617722
_symmetry_space_group_name_H-M "I 41/A M D"
_symmetry_group_IT_number 141
_space_group.IT_coordinate_system_code '2'
_symmetry_cell_setting 'tetragonal'
loop_
_space_group_symop_operation_xyz
x,y,z
1/4-y,3/4+x,1/4+z
-x,1/2-y,z
1/4+y,1/4-x,3/4+z
x,-y,-z
-x,1/2+y,-z
1/4+y,3/4+x,1/4-z
1/4-y,1/4-x,3/4-z
-x,-y,-z
3/4+y,1/4-x,3/4-z
x,1/2+y,-z
3/4-y,3/4+x,1/4-z
-x,y,z
x,1/2-y,z
3/4-y,1/4-x,3/4+z
3/4+y,3/4+x,1/4+z
1/2+x,1/2+y,1/2+z
3/4-y,1/4+x,3/4+z
1/2-x,-y,1/2+z
3/4+y,3/4-x,1/4+z
1/2+x,1/2-y,1/2-z
1/2-x,y,1/2-z
3/4+y,1/4+x,3/4-z
3/4-y,3/4-x,1/4-z
1/2-x,1/2-y,1/2-z
1/4+y,3/4-x,1/4-z
1/2+x,y,1/2-z
1/4-y,1/4+x,3/4-z
1/2-x,1/2+y,1/2+z
1/2+x,-y,1/2+z
1/4-y,3/4-x,1/4+z
1/4+y,1/4+x,3/4+z
loop_
_atom_site_type_symbol
_atom_site_label
_atom_site_fract_x
_atom_site_fract_y
_atom_site_fract_z
Si Si1 0.056744 0.871429 0.691051
Si Si2 0.403259 0.860519 0.575481
Si Si3 0.685212 0.303947 0.479906
Si Si4 0.723449 0.194496 0.144888
Si Si5 0.054953 0.804953 0.125000
Si Si6 0.696071 0.804747 0.272471
O O1 0.077542 0.827542 0.625000
O O2 0.071428 0.858355 0.811029
O O3 0.077546 0.922096 0.642535
O O4 0.000000 0.871810 0.683238
O O5 0.348874 0.841201 0.582865
O O6 0.430616 0.831402 0.483516
O O7 0.406195 0.916131 0.543181
O O8 0.671363 0.250000 0.443254
O O9 0.740537 0.314114 0.453493
O O10 0.679485 0.309828 0.605731
O O11 0.714384 0.250000 0.169794
O O12 0.750000 0.171525 0.250000
O O13 0.066084 0.750000 0.102051
O O14 0.687123 0.750000 0.232712
O O15 0.750000 0.819562 0.250000
#
# Coordination Sequence:
#
# PCOD8320618 Si02
#       6
#    32  32  32  32  16  32
#     4  11  24  39  56  80 112 149 189 235 283 338
#     4  12  21  35  54  79 112 145 186 233 279 339
#     4  10  19  32  53  79 107 141 183 230 281 335
#     4   9  18  35  56  78 103 137 184 235 286 335
#     4  11  22  34  50  74 110 156 194 224 266 330
#     4  10  19  32  51  76 106 141 183 234 286 330
#
# _framework density 18.081664
#
# number of rings (size 3 to 8) (size 9 to 14) (size 15 to 20)
#    0.000    1.545    1.818    4.364    0.000    6.000 
#    0.000    0.000    0.000    0.000    0.000    6.364 
#    0.000    0.000    0.000    0.000    0.000    0.000 
#
# Total GULP energy -1090655.301332 kJ/mol
# GULP energy per Si atom -12393.810242 kJ/mol
# Density = 1.804051 g / cm^3
# Si number density = 18.081664 Si / 1000 Ang^3
#
#
#
# Elastic Constant Matrix: (Units=GPa)
#
#
# Indices 1 2 3 4 5 6 
#
# 1 80.8563 48.5914 36.0867 0.0000 0.0000 0.0000
# 2 48.5914 80.8563 36.0867 0.0000 0.0000 0.0000
# 3 36.0867 36.0867 111.6639 0.0000 0.0000 0.0000
# 4 0.0000 0.0000 0.0000 26.6844 0.0000 0.0000
# 5 0.0000 0.0000 0.0000 0.0000 26.6844 0.0000
# 6 0.0000 0.0000 0.0000 0.0000 0.0000 14.6183
#
#
#
# Elastic Compliance Matrix: (Units=1/GPa)
#
#
# Indices 1 2 3 4 5 6 
#
# 1 0.020208 -0.010785 -0.003045 0.000000 0.000000 0.000000
# 2 -0.010785 0.020208 -0.003045 0.000000 0.000000 0.000000
# 3 -0.003045 -0.003045 0.010924 0.000000 0.000000 0.000000
# 4 0.000000 0.000000 0.000000 0.037475 0.000000 0.000000
# 5 0.000000 0.000000 0.000000 0.000000 0.037475 0.000000
# 6 0.000000 0.000000 0.000000 0.000000 0.000000 0.068407
#
#
# Mechanical properties :
#
#
# Convention : Reuss Voigt Hill
#
# Bulk Modulus (GPa) = 56.85462 57.21179 57.03321
# Shear Modulus (GPa) = 21.33908 23.77155 22.55531
#
# Velocity S-wave (km/s) = 3.43906 3.62978 3.53571
# Velocity P-wave (km/s) = 6.87612 7.01973 6.94829
#
# Compressibility (1/GPa) = 0.01758872
#
# Stress axis : x y z
#
# Youngs Moduli (GPa) = 49.48480 49.48480 91.54381
#
# Poissons Ratio (x) = 0.53370 0.27877
# Poissons Ratio (y) = 0.53370 0.27877
# Poissons Ratio (z) = 0.15069 0.15069
#
# Static dielectric constant tensor:
#      x y z
#    x 3.413580 0.000000 0.000000 
#    y 0.000000 3.413580 0.000000 
#    z 0.000000 0.000000 3.506670 
# 
# 
# High freq. dielectric constant tensor:
#      x y z
#    x 1.683020 0.000000 0.000000 
#    y 0.000000 1.683020 0.000000 
#    z 0.000000 0.000000 1.717150 
# 
# From -- ./inp_files/5053.got.cif
#   From: 2010.03.12/outbox.cif.g09.slc.cpg/sg141_3_cif.got.tgz:5053.got - 2010.04.03 13:18:35.
