data_PCOD8320014
_publ_section_title
;
Structure prediction by ZEFSAII (Michael W. Deem and Ramdas Pophale) SiO2 
 PCOD8320014
Probable space group: I 4/M M M
;
_chemical_formula_sum "Si O2"
_cell_formula_units_Z 160
_cell_length_a 25.188605
_cell_length_b 25.188605
_cell_length_c 18.746853
_cell_angle_alpha 90.000000
_cell_angle_beta 90.000000
_cell_angle_gamma 90.000000
_cell_volume 11894.237496
_symmetry_space_group_name_H-M "I 4/M M M"
_symmetry_group_IT_number 139
_symmetry_cell_setting 'tetragonal'
loop_
_space_group_symop_operation_xyz
x,y,z
-y,x,z
-x,-y,z
y,-x,z
x,-y,-z
-x,y,-z
y,x,-z
-y,-x,-z
-x,-y,-z
y,-x,-z
x,y,-z
-y,x,-z
-x,y,z
x,-y,z
-y,-x,z
y,x,z
1/2+x,1/2+y,1/2+z
1/2-y,1/2+x,1/2+z
1/2-x,1/2-y,1/2+z
1/2+y,1/2-x,1/2+z
1/2+x,1/2-y,1/2-z
1/2-x,1/2+y,1/2-z
1/2+y,1/2+x,1/2-z
1/2-y,1/2-x,1/2-z
1/2-x,1/2-y,1/2-z
1/2+y,1/2-x,1/2-z
1/2+x,1/2+y,1/2-z
1/2-y,1/2+x,1/2-z
1/2-x,1/2+y,1/2+z
1/2+x,1/2-y,1/2+z
1/2-y,1/2-x,1/2+z
1/2+y,1/2+x,1/2+z
loop_
_atom_site_type_symbol
_atom_site_label
_atom_site_fract_x
_atom_site_fract_y
_atom_site_fract_z
Si Si1 0.146249 0.939931 0.080292
Si Si2 0.645393 0.559135 0.150021
Si Si3 0.633249 0.278508 0.922458
Si Si4 0.335382 0.247022 0.223378
Si Si5 0.940147 0.212463 0.784797
O O1 0.097093 0.902908 0.099999
O O2 0.194632 0.929394 0.134147
O O3 0.125561 0.000000 0.088135
O O4 0.167163 0.928756 0.000000
O O5 0.630968 0.500000 0.126468
O O6 0.593825 0.593825 0.135515
O O7 0.695608 0.577931 0.102890
O O8 0.661365 0.562714 0.233161
O O9 0.674596 0.325405 0.930848
O O10 0.654003 0.238389 0.861290
O O11 0.626200 0.249997 0.000000
O O12 0.301529 0.301529 0.236488
O O13 0.303937 0.196064 0.250000
O O14 0.392024 0.248015 0.264165
O O15 0.000000 0.238105 0.778177
#
# Coordination Sequence:
#
# PCOD8320014 Si02
#       5
#    32  32  32  32  32
#     4   9  16  24  34  48  67  94 128 164 197 225
#     4   9  16  24  35  50  68  95 129 162 193 221
#     4   8  14  25  38  50  67  91 117 145 180 222
#     4   9  16  26  41  59  77  96 119 151 189 223
#     4   9  16  27  40  52  70  96 125 153 186 232
#
# _framework density 13.451893
#
# number of rings (size 3 to 8) (size 9 to 14) (size 15 to 20)
#    0.000    3.200    0.000    3.000    0.000    0.800 
#    0.000    2.000    0.000    7.200    0.000    2.800 
#    0.000    0.400    0.000    0.000    0.000    0.000 
#
# Total GULP energy -991183.020767 kJ/mol
# GULP energy per Si atom -12389.787760 kJ/mol
# Density = 1.342128 g / cm^3
# Si number density = 13.451893 Si / 1000 Ang^3
#
#
#
# Elastic Constant Matrix: (Units=GPa)
#
#
# Indices 1 2 3 4 5 6 
#
# 1 62.8240 41.4437 37.4898 0.0000 0.0000 0.0000
# 2 41.4437 62.8232 37.4908 0.0000 0.0000 0.0000
# 3 37.4898 37.4908 101.1631 0.0000 0.0000 0.0000
# 4 0.0000 0.0000 0.0000 11.0593 0.0000 0.0000
# 5 0.0000 0.0000 0.0000 0.0000 11.0587 0.0000
# 6 0.0000 0.0000 0.0000 0.0000 0.0000 18.7534
#
#
#
# Elastic Compliance Matrix: (Units=1/GPa)
#
#
# Indices 1 2 3 4 5 6 
#
# 1 0.029924 -0.016849 -0.004845 0.000000 0.000000 0.000000
# 2 -0.016849 0.029925 -0.004846 0.000000 0.000000 0.000000
# 3 -0.004845 -0.004846 0.013477 0.000000 0.000000 0.000000
# 4 0.000000 0.000000 0.000000 0.090422 0.000000 0.000000
# 5 0.000000 0.000000 0.000000 0.000000 0.090427 0.000000
# 6 0.000000 0.000000 0.000000 0.000000 0.000000 0.053324
#
#
# Mechanical properties :
#
#
# Convention : Reuss Voigt Hill
#
# Bulk Modulus (GPa) = 49.39568 51.07322 50.23445
# Shear Modulus (GPa) = 13.61191 15.53334 14.57262
#
# Velocity S-wave (km/s) = 3.18448 3.40182 3.29494
# Velocity P-wave (km/s) = 7.09374 7.31297 7.20419
#
# Compressibility (1/GPa) = 0.02024469
#
# Stress axis : x y z
#
# Youngs Moduli (GPa) = 33.41837 33.41738 74.20305
#
# Poissons Ratio (x) = 0.56304 0.35953
# Poissons Ratio (y) = 0.56306 0.35959
# Poissons Ratio (z) = 0.16192 0.16194
#
# Static dielectric constant tensor:
#      x y z
#    x 2.438030 0.000000 0.000000 
#    y 0.000000 2.438020 0.000000 
#    z 0.000000 0.000000 3.056320 
# 
# 
# High freq. dielectric constant tensor:
#      x y z
#    x 1.475150 0.000000 0.000000 
#    y 0.000000 1.475150 0.000000 
#    z 0.000000 0.000000 1.528150 
# 
# From -- ./inp_files/8800.got.cif
#   From: 2010.03.12/outbox.cif.g09.slc.cpg/sg139_5_cif.got.tgz:8800.got - 2010.04.08 09:46:31.
