data_PCOD8320621
_publ_section_title
;
Structure prediction by ZEFSAII (Michael W. Deem and Ramdas Pophale) SiO2 
 PCOD8320621
Probable space group: I 41/A M D
;
_chemical_formula_sum "Si O2"
_cell_formula_units_Z 176
_cell_length_a 28.074533
_cell_length_b 28.074533
_cell_length_c 12.066455
_cell_angle_alpha 90.000000
_cell_angle_beta 90.000000
_cell_angle_gamma 90.000000
_cell_volume 9510.531300
_symmetry_space_group_name_H-M "I 41/A M D"
_symmetry_group_IT_number 141
_space_group.IT_coordinate_system_code '2'
_symmetry_cell_setting 'tetragonal'
loop_
_space_group_symop_operation_xyz
x,y,z
1/4-y,3/4+x,1/4+z
-x,1/2-y,z
1/4+y,1/4-x,3/4+z
x,-y,-z
-x,1/2+y,-z
1/4+y,3/4+x,1/4-z
1/4-y,1/4-x,3/4-z
-x,-y,-z
3/4+y,1/4-x,3/4-z
x,1/2+y,-z
3/4-y,3/4+x,1/4-z
-x,y,z
x,1/2-y,z
3/4-y,1/4-x,3/4+z
3/4+y,3/4+x,1/4+z
1/2+x,1/2+y,1/2+z
3/4-y,1/4+x,3/4+z
1/2-x,-y,1/2+z
3/4+y,3/4-x,1/4+z
1/2+x,1/2-y,1/2-z
1/2-x,y,1/2-z
3/4+y,1/4+x,3/4-z
3/4-y,3/4-x,1/4-z
1/2-x,1/2-y,1/2-z
1/4+y,3/4-x,1/4-z
1/2+x,y,1/2-z
1/4-y,1/4+x,3/4-z
1/2-x,1/2+y,1/2+z
1/2+x,-y,1/2+z
1/4-y,3/4-x,1/4+z
1/4+y,1/4+x,3/4+z
loop_
_atom_site_type_symbol
_atom_site_label
_atom_site_fract_x
_atom_site_fract_y
_atom_site_fract_z
Si Si1 0.213840 0.599954 0.554046
Si Si2 0.348752 0.694856 0.500752
Si Si3 0.202256 0.058300 0.684777
Si Si4 0.748128 0.196402 0.380101
Si Si5 0.144246 0.394246 0.875000
Si Si6 0.946227 0.699896 0.256504
O O1 0.168786 0.581215 0.625000
O O2 0.212453 0.588922 0.424041
O O3 0.261067 0.575382 0.603992
O O4 0.217086 0.657342 0.565201
O O5 0.351486 0.750000 0.462184
O O6 0.306423 0.686226 0.586373
O O7 0.343016 0.661665 0.391994
O O8 0.399477 0.677938 0.558091
O O9 0.250000 0.043070 0.750000
O O10 0.171186 0.090635 0.764760
O O11 0.763652 0.250000 0.416833
O O12 0.750000 0.190680 0.250000
O O13 0.919581 0.750000 0.291460
O O14 0.000000 0.706239 0.295676
O O15 0.943246 0.693246 0.125000
#
# Coordination Sequence:
#
# PCOD8320621 Si02
#       6
#    32  32  32  32  16  32
#     4  12  23  36  60  87 111 144 195 242 294 344
#     4  10  19  32  52  78 113 157 198 234 284 344
#     4  12  21  37  54  81 118 149 179 239 295 352
#     4  10  21  39  58  81 113 151 196 243 286 339
#     4  12  22  34  54  81 120 154 192 230 294 354
#     4   8  13  22  40  69 104 141 181 225 269 321
#
# _framework density 18.505801000000002
#
# number of rings (size 3 to 8) (size 9 to 14) (size 15 to 20)
#    0.000    1.455    4.545    3.273    0.000    0.000 
#    0.000    0.909    0.000    3.273    0.000    0.000 
#    0.000    0.364    0.000    0.000    0.000    0.364 
#
# Total GULP energy -1090159.546919 kJ/mol
# GULP energy per Si atom -12388.176670 kJ/mol
# Density = 1.846368 g / cm^3
# Si number density = 18.505801 Si / 1000 Ang^3
#
#
#
# Elastic Constant Matrix: (Units=GPa)
#
#
# Indices 1 2 3 4 5 6 
#
# 1 109.3343 59.4033 33.8718 0.0000 0.0000 0.0000
# 2 59.4033 109.3330 33.8705 0.0000 0.0000 0.0000
# 3 33.8718 33.8705 70.6848 0.0000 0.0000 0.0000
# 4 0.0000 0.0000 0.0000 19.5987 0.0000 0.0000
# 5 0.0000 0.0000 0.0000 0.0000 19.5989 0.0000
# 6 0.0000 0.0000 0.0000 0.0000 0.0000 25.9728
#
#
#
# Elastic Compliance Matrix: (Units=1/GPa)
#
#
# Indices 1 2 3 4 5 6 
#
# 1 0.013683 -0.006345 -0.003516 0.000000 0.000000 0.000000
# 2 -0.006345 0.013683 -0.003516 0.000000 0.000000 0.000000
# 3 -0.003516 -0.003516 0.017517 0.000000 0.000000 0.000000
# 4 0.000000 0.000000 0.000000 0.051024 0.000000 0.000000
# 5 0.000000 0.000000 0.000000 0.000000 0.051023 0.000000
# 6 0.000000 0.000000 0.000000 0.000000 0.000000 0.038502
#
#
# Mechanical properties :
#
#
# Convention : Reuss Voigt Hill
#
# Bulk Modulus (GPa) = 55.16276 60.40481 57.78379
# Shear Modulus (GPa) = 22.91165 23.84786 23.37976
#
# Velocity S-wave (km/s) = 3.52245 3.59370 3.55825
# Velocity P-wave (km/s) = 6.81298 7.06622 6.94075
#
# Compressibility (1/GPa) = 0.01812817
#
# Stress axis : x y z
#
# Youngs Moduli (GPa) = 73.08354 73.08349 57.08671
#
# Poissons Ratio (x) = 0.46371 0.20074
# Poissons Ratio (y) = 0.46371 0.20072
# Poissons Ratio (z) = 0.25700 0.25697
#
# Static dielectric constant tensor:
#      x y z
#    x 3.855000 0.000000 0.000000 
#    y 0.000000 3.855010 0.000000 
#    z 0.000000 0.000000 3.073310 
# 
# 
# High freq. dielectric constant tensor:
#      x y z
#    x 1.723560 0.000000 0.000000 
#    y 0.000000 1.723560 0.000000 
#    z 0.000000 0.000000 1.676410 
# 
# From -- ./inp_files/5013.got.cif
#   From: 2010.03.12/outbox.cif.g09.slc.cpg/sg141_3_cif.got.tgz:5013.got - 2010.04.03 13:18:35.
