data_PCOD8320207
_publ_section_title
;
Structure prediction by ZEFSAII (Michael W. Deem and Ramdas Pophale) SiO2 
 PCOD8320207
Probable space group: I 4/M C M
;
_chemical_formula_sum "Si O2"
_cell_formula_units_Z 96
_cell_length_a 23.467171
_cell_length_b 23.467171
_cell_length_c 8.933371
_cell_angle_alpha 90.000000
_cell_angle_beta 90.000000
_cell_angle_gamma 90.000000
_cell_volume 4919.679902
_symmetry_space_group_name_H-M "I 4/M C M"
_symmetry_group_IT_number 140
_symmetry_cell_setting 'tetragonal'
loop_
_space_group_symop_operation_xyz
x,y,z
-y,x,z
-x,-y,z
y,-x,z
x,-y,1/2-z
-x,y,1/2-z
y,x,1/2-z
-y,-x,1/2-z
-x,-y,-z
y,-x,-z
x,y,-z
-y,x,-z
-x,y,1/2+z
x,-y,1/2+z
-y,-x,1/2+z
y,x,1/2+z
1/2+x,1/2+y,1/2+z
1/2-y,1/2+x,1/2+z
1/2-x,1/2-y,1/2+z
1/2+y,1/2-x,1/2+z
1/2+x,1/2-y,-z
1/2-x,1/2+y,-z
1/2+y,1/2+x,-z
1/2-y,1/2-x,-z
1/2-x,1/2-y,1/2-z
1/2+y,1/2-x,1/2-z
1/2+x,1/2+y,1/2-z
1/2-y,1/2+x,1/2-z
1/2-x,1/2+y,z
1/2+x,1/2-y,z
1/2-y,1/2-x,z
1/2+y,1/2+x,z
loop_
_atom_site_type_symbol
_atom_site_label
_atom_site_fract_x
_atom_site_fract_y
_atom_site_fract_z
Si Si1 0.352505 0.147496 0.667140
Si Si2 0.559237 0.224883 0.673354
Si Si3 0.442044 0.358796 0.827181
Si Si4 0.553995 0.946006 0.662897
O O1 0.332528 0.167473 0.500000
O O2 0.382838 0.199042 0.755413
O O3 0.399419 0.100582 0.648596
O O4 0.500000 0.204149 0.750000
O O5 0.555821 0.206971 0.500000
O O6 0.566226 0.291870 0.695291
O O7 0.500000 0.380067 0.750000
O O8 0.388612 0.388612 0.750000
O O9 0.444632 0.375974 0.000000
O O10 0.500000 0.920436 0.750000
O O11 0.533894 0.966107 0.500000
#
# Coordination Sequence:
#
# PCOD8320207 Si02
#       4
#    16  32  32  16
#     4  11  22  34  52  77 104 141 189 234 276 327
#     4  10  21  37  57  81 111 147 187 232 281 331
#     4  10  21  38  61  88 117 148 182 223 273 330
#     4  10  20  31  44  65  93 127 168 218 274 324
#
# _framework density 19.513465
#
# number of rings (size 3 to 8) (size 9 to 14) (size 15 to 20)
#    0.000    1.833    0.000    4.500    0.000    9.667 
#    0.000    2.500    0.000    0.000    0.000    0.000 
#    0.000    0.000    0.000    0.000    0.000    0.000 
#
# Total GULP energy -595059.415961 kJ/mol
# GULP energy per Si atom -12397.071166 kJ/mol
# Density = 1.946905 g / cm^3
# Si number density = 19.513465 Si / 1000 Ang^3
#
#
#
# Elastic Constant Matrix: (Units=GPa)
#
#
# Indices 1 2 3 4 5 6 
#
# 1 65.4108 35.6285 52.9787 0.0000 0.0000 0.0000
# 2 35.6285 65.4107 52.9787 0.0000 0.0000 0.0000
# 3 52.9787 52.9787 180.3275 0.0000 0.0000 0.0000
# 4 0.0000 0.0000 0.0000 31.7689 0.0000 0.0000
# 5 0.0000 0.0000 0.0000 0.0000 31.7687 0.0000
# 6 0.0000 0.0000 0.0000 0.0000 0.0000 40.6998
#
#
#
# Elastic Compliance Matrix: (Units=1/GPa)
#
#
# Indices 1 2 3 4 5 6 
#
# 1 0.023941 -0.009637 -0.004202 0.000000 0.000000 0.000000
# 2 -0.009637 0.023941 -0.004202 0.000000 0.000000 0.000000
# 3 -0.004202 -0.004202 0.008015 0.000000 0.000000 0.000000
# 4 0.000000 0.000000 0.000000 0.031477 0.000000 0.000000
# 5 0.000000 0.000000 0.000000 0.000000 0.031478 0.000000
# 6 0.000000 0.000000 0.000000 0.000000 0.000000 0.024570
#
#
# Mechanical properties :
#
#
# Convention : Reuss Voigt Hill
#
# Bulk Modulus (GPa) = 50.47121 66.03565 58.25343
# Shear Modulus (GPa) = 26.86609 32.15168 29.50889
#
# Velocity S-wave (km/s) = 3.71455 4.06355 3.89296
# Velocity P-wave (km/s) = 6.65719 7.47871 7.07987
#
# Compressibility (1/GPa) = 0.01981328
#
# Stress axis : x y z
#
# Youngs Moduli (GPa) = 41.77003 41.76994 124.77003
#
# Poissons Ratio (x) = 0.40252 0.52434
# Poissons Ratio (y) = 0.40252 0.52434
# Poissons Ratio (z) = 0.17554 0.17554
#
# Static dielectric constant tensor:
#      x y z
#    x 3.496130 0.000000 0.000000 
#    y 0.000000 3.496130 0.000000 
#    z 0.000000 0.000000 4.330650 
# 
# 
# High freq. dielectric constant tensor:
#      x y z
#    x 1.751790 0.000000 0.000000 
#    y 0.000000 1.751790 0.000000 
#    z 0.000000 0.000000 1.782200 
# 
# From -- ./inp_files/933.got.cif
#   From: 2010.06.25/outbox.cif.g09.slc.cpg/sg140_1_cif.got.tgz:933.got - 2010.06.28 10:53:23.
