data_PCOD8320082
_publ_section_title
;
Structure prediction by ZEFSAII (Michael W. Deem and Ramdas Pophale) SiO2 
 PCOD8320082
Probable space group: I 4/M C M
;
_chemical_formula_sum "Si O2"
_cell_formula_units_Z 192
_cell_length_a 17.977526
_cell_length_b 17.977526
_cell_length_c 29.338364
_cell_angle_alpha 90.000000
_cell_angle_beta 90.000000
_cell_angle_gamma 90.000000
_cell_volume 9481.908140
_symmetry_space_group_name_H-M "I 4/M C M"
_symmetry_group_IT_number 140
_symmetry_cell_setting 'tetragonal'
loop_
_space_group_symop_operation_xyz
x,y,z
-y,x,z
-x,-y,z
y,-x,z
x,-y,1/2-z
-x,y,1/2-z
y,x,1/2-z
-y,-x,1/2-z
-x,-y,-z
y,-x,-z
x,y,-z
-y,x,-z
-x,y,1/2+z
x,-y,1/2+z
-y,-x,1/2+z
y,x,1/2+z
1/2+x,1/2+y,1/2+z
1/2-y,1/2+x,1/2+z
1/2-x,1/2-y,1/2+z
1/2+y,1/2-x,1/2+z
1/2+x,1/2-y,-z
1/2-x,1/2+y,-z
1/2+y,1/2+x,-z
1/2-y,1/2-x,-z
1/2-x,1/2-y,1/2-z
1/2+y,1/2-x,1/2-z
1/2+x,1/2+y,1/2-z
1/2-y,1/2+x,1/2-z
1/2-x,1/2+y,z
1/2+x,1/2-y,z
1/2-y,1/2-x,z
1/2+y,1/2+x,z
loop_
_atom_site_type_symbol
_atom_site_label
_atom_site_fract_x
_atom_site_fract_y
_atom_site_fract_z
Si Si1 0.659346 0.618979 0.594531
Si Si2 0.939659 0.894440 0.500000
Si Si3 0.669588 0.052682 0.950175
Si Si4 0.531316 0.284358 0.872171
Si Si5 0.168238 0.454286 0.793888
Si Si6 0.898059 0.398059 0.937795
Si Si7 0.556708 0.056708 0.346393
Si Si8 0.777799 0.277799 0.947899
O O1 0.648797 0.581808 0.545406
O O2 0.584578 0.644190 0.620987
O O3 0.694027 0.556259 0.628386
O O4 0.711565 0.689872 0.583723
O O5 0.027464 0.899371 0.500000
O O6 0.617525 0.117525 0.930220
O O7 0.737058 0.043382 0.917053
O O8 0.621820 0.978628 0.956002
O O9 0.700661 0.074846 0.000000
O O10 0.556352 0.239407 0.826949
O O11 0.197212 0.500000 0.750000
O O12 0.125086 0.374915 0.784290
O O13 0.110821 0.510394 0.815547
O O14 0.896558 0.396558 0.882774
O O15 0.839642 0.339642 0.956218
O O16 0.500000 0.000000 0.372015
O O17 0.753114 0.253114 0.000000
#
# Coordination Sequence:
#
# PCOD8320082 Si02
#       8
#    32  16  32  32  32  16  16  16
#     4  12  26  43  64  93 134 181 230 285 338 399
#     4  11  22  41  70  98 124 176 255 304 323 364
#     4  11  23  36  54  85 127 174 217 259 320 405
#     4  12  27  44  65  93 131 174 229 284 342 393
#     4  11  22  41  72 105 132 165 214 272 338 415
#     4  12  20  35  58  86 131 176 209 257 331 404
#     4  10  18  32  59  94 128 160 203 262 318 390
#     4  12  24  36  57  88 132 177 222 275 337 400
#
# _framework density 20.249089000000001
#
# number of rings (size 3 to 8) (size 9 to 14) (size 15 to 20)
#    0.000    0.583    6.667    2.000    4.667    1.000 
#    0.000    0.833    0.000    1.000    0.000    1.167 
#    0.000    0.000    0.000    0.000    0.000    0.000 
#
# Total GULP energy -1189942.242670 kJ/mol
# GULP energy per Si atom -12395.231694 kJ/mol
# Density = 2.020300 g / cm^3
# Si number density = 20.249089 Si / 1000 Ang^3
#
#
#
# Elastic Constant Matrix: (Units=GPa)
#
#
# Indices 1 2 3 4 5 6 
#
# 1 77.8116 26.6520 24.7894 0.0000 0.0000 0.0000
# 2 26.6520 77.8116 24.7894 0.0000 0.0000 0.0000
# 3 24.7894 24.7894 86.6226 0.0000 0.0000 0.0000
# 4 0.0000 0.0000 0.0000 -554.8339 0.0000 0.0000
# 5 0.0000 0.0000 0.0000 0.0000 -554.8340 0.0000
# 6 0.0000 0.0000 0.0000 0.0000 0.0000 42.4819
#
#
#
# Elastic Compliance Matrix: (Units=1/GPa)
#
#
# Indices 1 2 3 4 5 6 
#
# 1 0.015312 -0.004235 -0.003170 0.000000 0.000000 0.000000
# 2 -0.004235 0.015312 -0.003170 0.000000 0.000000 0.000000
# 3 -0.003170 -0.003170 0.013359 0.000000 0.000000 0.000000
# 4 0.000000 0.000000 0.000000 -0.001802 0.000000 0.000000
# 5 0.000000 0.000000 0.000000 0.000000 -0.001802 0.000000
# 6 0.000000 0.000000 0.000000 0.000000 0.000000 0.023539
#
#
# Mechanical properties :
#
#
# Convention : Reuss Voigt Hill
#
# Bulk Modulus (GPa) = 43.79632 43.85641 43.82636
# Shear Modulus (GPa) = 53.95022 -202.36954 -74.20966
#
# Velocity S-wave (km/s) = 5.16731 -10.00785 -6.06036
# Velocity P-wave (km/s) = 7.56817 10.57531 5.22303
#
# Compressibility (1/GPa) = 0.02283297
#
# Stress axis : x y z
#
# Youngs Moduli (GPa) = 65.30847 65.30847 74.85744
#
# Poissons Ratio (x) = 0.27656 0.23730
# Poissons Ratio (y) = 0.27656 0.23730
# Poissons Ratio (z) = 0.20703 0.20703
#
# Static dielectric constant tensor:
#      x y z
#    x 3.858530 0.000000 0.000000 
#    y 0.000000 3.858530 0.000000 
#    z 0.000000 0.000000 3.631210 
# 
# 
# High freq. dielectric constant tensor:
#      x y z
#    x 1.791230 0.000000 0.000000 
#    y 0.000000 1.791230 0.000000 
#    z 0.000000 0.000000 1.768830 
# 
# From -- ./inp_files/11692.got.cif
#   From: 2010.06.25/outbox.cif.g09.slc.cpg/sg140_6_cif.got.tgz:11692.got - 2010.06.28 10:53:23.
