data_PCOD8320040
_publ_section_title
;
Structure prediction by ZEFSAII (Michael W. Deem and Ramdas Pophale) SiO2 
 PCOD8320040
Probable space group: I 4/M C M
;
_chemical_formula_sum "Si O2"
_cell_formula_units_Z 144
_cell_length_a 17.137199
_cell_length_b 17.137199
_cell_length_c 26.019266
_cell_angle_alpha 90.000000
_cell_angle_beta 90.000000
_cell_angle_gamma 90.000000
_cell_volume 7641.431437
_symmetry_space_group_name_H-M "I 4/M C M"
_symmetry_group_IT_number 140
_symmetry_cell_setting 'tetragonal'
loop_
_space_group_symop_operation_xyz
x,y,z
-y,x,z
-x,-y,z
y,-x,z
x,-y,1/2-z
-x,y,1/2-z
y,x,1/2-z
-y,-x,1/2-z
-x,-y,-z
y,-x,-z
x,y,-z
-y,x,-z
-x,y,1/2+z
x,-y,1/2+z
-y,-x,1/2+z
y,x,1/2+z
1/2+x,1/2+y,1/2+z
1/2-y,1/2+x,1/2+z
1/2-x,1/2-y,1/2+z
1/2+y,1/2-x,1/2+z
1/2+x,1/2-y,-z
1/2-x,1/2+y,-z
1/2+y,1/2+x,-z
1/2-y,1/2-x,-z
1/2-x,1/2-y,1/2-z
1/2+y,1/2-x,1/2-z
1/2+x,1/2+y,1/2-z
1/2-y,1/2+x,1/2-z
1/2-x,1/2+y,z
1/2+x,1/2-y,z
1/2-y,1/2-x,z
1/2+y,1/2+x,z
loop_
_atom_site_type_symbol
_atom_site_label
_atom_site_fract_x
_atom_site_fract_y
_atom_site_fract_z
Si Si1 0.727597 0.104282 0.620806
Si Si2 0.565421 0.394988 0.639089
Si Si3 0.412702 0.208730 0.758938
Si Si4 0.495465 0.126274 0.442188
Si Si5 0.878618 0.878618 0.750000
O O1 0.681427 0.181427 0.599344
O O2 0.821394 0.108925 0.612205
O O3 0.715041 0.100241 0.680867
O O4 0.695595 0.024444 0.594973
O O5 0.606461 0.474889 0.621273
O O6 0.564590 0.392316 0.701619
O O7 0.500000 0.181023 0.750000
O O8 0.356458 0.143543 0.734738
O O9 0.392225 0.289919 0.730671
O O10 0.486628 0.159513 0.500000
O O11 0.559525 0.059525 0.441187
O O12 0.412733 0.087268 0.424267
#
# Coordination Sequence:
#
# PCOD8320040 Si02
#       5
#    32  32  32  32  16
#     4   9  18  32  48  70  99 127 159 203 255 307
#     4  10  19  31  48  69  93 124 164 206 247 294
#     4  10  20  31  44  65  96 133 166 196 240 301
#     4   8  14  27  50  77 100 125 161 205 252 299
#     4  10  17  31  48  66  88 117 165 218 254 274
#
# _framework density 18.844636999999999
#
# number of rings (size 3 to 8) (size 9 to 14) (size 15 to 20)
#    0.000    2.667    0.000    4.333    0.000    2.889 
#    0.000    3.333    0.000    1.333    0.000    4.667 
#    0.000    0.000    0.000    0.000    0.000    0.000 
#
# Total GULP energy -892190.067270 kJ/mol
# GULP energy per Si atom -12391.528712 kJ/mol
# Density = 1.880175 g / cm^3
# Si number density = 18.844637 Si / 1000 Ang^3
#
#
#
# Elastic Constant Matrix: (Units=GPa)
#
#
# Indices 1 2 3 4 5 6 
#
# 1 116.9663 58.9075 12.5580 0.0000 0.0000 0.0000
# 2 58.9075 116.9663 12.5580 0.0000 0.0000 0.0000
# 3 12.5580 12.5580 23.1550 0.0000 0.0000 0.0000
# 4 0.0000 0.0000 0.0000 -3.1169 0.0000 0.0000
# 5 0.0000 0.0000 0.0000 0.0000 -3.1169 0.0000
# 6 0.0000 0.0000 0.0000 0.0000 0.0000 21.9829
#
#
#
# Elastic Compliance Matrix: (Units=1/GPa)
#
#
# Indices 1 2 3 4 5 6 
#
# 1 0.011694 -0.005530 -0.003343 0.000000 0.000000 0.000000
# 2 -0.005530 0.011694 -0.003343 0.000000 0.000000 0.000000
# 3 -0.003343 -0.003343 0.046813 0.000000 0.000000 0.000000
# 4 0.000000 0.000000 0.000000 -0.320831 0.000000 0.000000
# 5 0.000000 0.000000 0.000000 0.000000 -0.320830 0.000000
# 6 0.000000 0.000000 0.000000 0.000000 0.000000 0.045490
#
#
# Mechanical properties :
#
#
# Convention : Reuss Voigt Hill
#
# Bulk Modulus (GPa) = 21.84888 47.23716 34.54302
# Shear Modulus (GPa) = -10.28206 14.68743 2.20268
#
# Velocity S-wave (km/s) = -2.33839 2.79479 1.08231
# Velocity P-wave (km/s) = 2.08053 5.96117 4.46454
#
# Compressibility (1/GPa) = 0.04576894
#
# Stress axis : x y z
#
# Youngs Moduli (GPa) = 85.51706 85.51706 21.36167
#
# Poissons Ratio (x) = 0.47294 0.07140
# Poissons Ratio (y) = 0.47294 0.07140
# Poissons Ratio (z) = 0.28585 0.28585
#
# Static dielectric constant tensor:
#      x y z
#    x 3.748720 0.000000 0.000000 
#    y 0.000000 3.748720 0.000000 
#    z 0.000000 0.000000 3.207780 
# 
# 
# High freq. dielectric constant tensor:
#      x y z
#    x 1.729650 0.000000 0.000000 
#    y 0.000000 1.729650 0.000000 
#    z 0.000000 0.000000 1.679230 
# 
# From -- ./inp_files/10434.got.cif
#   From: 2010.06.25/outbox.cif.g09.slc.cpg/sg140_6_cif.got.tgz:10434.got - 2010.06.28 10:53:23.
