data_PCOD8320043
_publ_section_title
;
Structure prediction by ZEFSAII (Michael W. Deem and Ramdas Pophale) SiO2 
 PCOD8320043
Probable space group: I 4/M C M
;
_chemical_formula_sum "Si O2"
_cell_formula_units_Z 144
_cell_length_a 31.589000
_cell_length_b 31.589000
_cell_length_c 9.224694
_cell_angle_alpha 90.000000
_cell_angle_beta 90.000000
_cell_angle_gamma 90.000000
_cell_volume 9204.998550
_symmetry_space_group_name_H-M "I 4/M C M"
_symmetry_group_IT_number 140
_symmetry_cell_setting 'tetragonal'
loop_
_space_group_symop_operation_xyz
x,y,z
-y,x,z
-x,-y,z
y,-x,z
x,-y,1/2-z
-x,y,1/2-z
y,x,1/2-z
-y,-x,1/2-z
-x,-y,-z
y,-x,-z
x,y,-z
-y,x,-z
-x,y,1/2+z
x,-y,1/2+z
-y,-x,1/2+z
y,x,1/2+z
1/2+x,1/2+y,1/2+z
1/2-y,1/2+x,1/2+z
1/2-x,1/2-y,1/2+z
1/2+y,1/2-x,1/2+z
1/2+x,1/2-y,-z
1/2-x,1/2+y,-z
1/2+y,1/2+x,-z
1/2-y,1/2-x,-z
1/2-x,1/2-y,1/2-z
1/2+y,1/2-x,1/2-z
1/2+x,1/2+y,1/2-z
1/2-y,1/2+x,1/2-z
1/2-x,1/2+y,z
1/2+x,1/2-y,z
1/2-y,1/2-x,z
1/2+y,1/2+x,z
loop_
_atom_site_type_symbol
_atom_site_label
_atom_site_fract_x
_atom_site_fract_y
_atom_site_fract_z
Si Si1 0.782488 0.282488 0.173182
Si Si2 0.269867 0.121843 0.839744
Si Si3 0.381266 0.671609 0.659972
Si Si4 0.828819 0.959673 0.663145
Si Si5 0.458505 0.772176 0.163680
O O1 0.750000 0.250000 0.250000
O O2 0.830769 0.274168 0.224228
O O3 0.776969 0.276969 0.000000
O O4 0.220905 0.111899 0.856078
O O5 0.289635 0.085054 0.737892
O O6 0.291132 0.119376 0.000000
O O7 0.338546 0.661455 0.750000
O O8 0.379197 0.651008 0.500000
O O9 0.419561 0.651897 0.752803
O O10 0.846582 0.960844 0.500000
O O11 0.778222 0.958179 0.660751
O O12 0.845449 0.000000 0.750000
O O13 0.500000 0.788647 0.250000
O O14 0.460363 0.790135 0.000000
#
# Coordination Sequence:
#
# PCOD8320043 Si02
#       5
#    16  32  32  32  32
#     4  10  20  32  44  58  80 114 154 193 224 251
#     4   9  18  30  42  57  79 107 140 176 213 249
#     4  10  18  27  39  55  75  99 127 160 196 234
#     4   9  16  26  39  55  74  95 118 147 187 235
#     4   9  16  26  42  61  79  99 126 163 208 255
#
# _framework density 15.643675
#
# number of rings (size 3 to 8) (size 9 to 14) (size 15 to 20)
#    0.000    2.667    0.000    2.667    0.000    7.111 
#    0.000    0.000    0.000    0.000    0.000    0.000 
#    0.000    0.444    0.000    4.444    0.000    3.667 
#
# Total GULP energy -892213.309208 kJ/mol
# GULP energy per Si atom -12391.851517 kJ/mol
# Density = 1.560807 g / cm^3
# Si number density = 15.643675 Si / 1000 Ang^3
#
#
#
# Elastic Constant Matrix: (Units=GPa)
#
#
# Indices 1 2 3 4 5 6 
#
# 1 64.6840 14.4827 38.2724 0.0000 0.0000 0.0000
# 2 14.4827 64.6790 38.2719 0.0000 0.0000 0.0000
# 3 38.2724 38.2719 134.1886 0.0000 0.0000 0.0000
# 4 0.0000 0.0000 0.0000 20.1962 0.0000 0.0000
# 5 0.0000 0.0000 0.0000 0.0000 20.1966 0.0000
# 6 0.0000 0.0000 0.0000 0.0000 0.0000 5.4157
#
#
#
# Elastic Compliance Matrix: (Units=1/GPa)
#
#
# Indices 1 2 3 4 5 6 
#
# 1 0.018681 -0.001239 -0.004974 0.000000 0.000000 0.000000
# 2 -0.001239 0.018682 -0.004975 0.000000 0.000000 0.000000
# 3 -0.004974 -0.004975 0.010290 0.000000 0.000000 0.000000
# 4 0.000000 0.000000 0.000000 0.049514 0.000000 0.000000
# 5 0.000000 0.000000 0.000000 0.000000 0.049513 0.000000
# 6 0.000000 0.000000 0.000000 0.000000 0.000000 0.184648
#
#
# Mechanical properties :
#
#
# Convention : Reuss Voigt Hill
#
# Bulk Modulus (GPa) = 39.56446 49.51173 44.53809
# Shear Modulus (GPa) = 13.80719 20.66336 17.23527
#
# Velocity S-wave (km/s) = 2.97409 3.63833 3.32285
# Velocity P-wave (km/s) = 6.09422 7.02626 6.57677
#
# Compressibility (1/GPa) = 0.02527521
#
# Stress axis : x y z
#
# Youngs Moduli (GPa) = 53.53157 53.52689 97.18309
#
# Poissons Ratio (x) = 0.06634 0.48343
# Poissons Ratio (y) = 0.06635 0.48347
# Poissons Ratio (z) = 0.26629 0.26629
#
# Static dielectric constant tensor:
#      x y z
#    x 2.746260 0.000000 0.000000 
#    y 0.000000 2.746260 0.000000 
#    z 0.000000 0.000000 3.383160 
# 
# 
# High freq. dielectric constant tensor:
#      x y z
#    x 1.558330 0.000000 0.000000 
#    y 0.000000 1.558330 0.000000 
#    z 0.000000 0.000000 1.620370 
# 
# From -- ./inp_files/1601.got.cif
#   From: 2010.06.25/outbox.cif.g09.slc.cpg/sg140_1_cif.got.tgz:1601.got - 2010.06.28 10:53:23.
