data_PCOD8320835
_publ_section_title
;
Structure prediction by ZEFSAII (Michael W. Deem and Ramdas Pophale) SiO2 
 PCOD8320835
Probable space group: I 41/A M D
;
_chemical_formula_sum "Si O2"
_cell_formula_units_Z 160
_cell_length_a 21.853234
_cell_length_b 21.853234
_cell_length_c 16.198661
_cell_angle_alpha 90.000000
_cell_angle_beta 90.000000
_cell_angle_gamma 90.000000
_cell_volume 7735.894689
_symmetry_space_group_name_H-M "I 41/A M D"
_symmetry_group_IT_number 141
_space_group.IT_coordinate_system_code '2'
_symmetry_cell_setting 'tetragonal'
loop_
_space_group_symop_operation_xyz
x,y,z
1/4-y,3/4+x,1/4+z
-x,1/2-y,z
1/4+y,1/4-x,3/4+z
x,-y,-z
-x,1/2+y,-z
1/4+y,3/4+x,1/4-z
1/4-y,1/4-x,3/4-z
-x,-y,-z
3/4+y,1/4-x,3/4-z
x,1/2+y,-z
3/4-y,3/4+x,1/4-z
-x,y,z
x,1/2-y,z
3/4-y,1/4-x,3/4+z
3/4+y,3/4+x,1/4+z
1/2+x,1/2+y,1/2+z
3/4-y,1/4+x,3/4+z
1/2-x,-y,1/2+z
3/4+y,3/4-x,1/4+z
1/2+x,1/2-y,1/2-z
1/2-x,y,1/2-z
3/4+y,1/4+x,3/4-z
3/4-y,3/4-x,1/4-z
1/2-x,1/2-y,1/2-z
1/4+y,3/4-x,1/4-z
1/2+x,y,1/2-z
1/4-y,1/4+x,3/4-z
1/2-x,1/2+y,1/2+z
1/2+x,-y,1/2+z
1/4-y,3/4-x,1/4+z
1/4+y,1/4+x,3/4+z
loop_
_atom_site_type_symbol
_atom_site_label
_atom_site_fract_x
_atom_site_fract_y
_atom_site_fract_z
Si Si1 0.129492 0.182771 0.254243
Si Si2 0.687241 0.362083 0.404385
Si Si3 0.655609 0.997907 0.597132
Si Si4 0.683854 0.682222 0.932491
Si Si5 0.341987 0.178728 0.576719
O O1 0.095900 0.250000 0.249943
O O2 0.174918 0.179489 0.175713
O O3 0.168359 0.180698 0.336686
O O4 0.084165 0.124267 0.259098
O O5 0.665931 0.428768 0.375428
O O6 0.757499 0.362443 0.437697
O O7 0.647201 0.336870 0.480467
O O8 0.646260 0.000000 0.500000
O O9 0.714729 0.035272 0.625000
O O10 0.596061 0.026122 0.641655
O O11 0.705204 0.750000 0.959556
O O12 0.397070 0.147070 0.625000
O O13 0.344886 0.250000 0.593934
#
# Coordination Sequence:
#
# PCOD8320835 Si02
#       5
#    32  32  32  32  32
#     4  10  22  38  60  92 127 167 215 267 315 377
#     4  12  22  39  65  95 129 166 212 268 327 384
#     4  11  23  41  64  99 130 166 210 262 324 385
#     4  10  22  39  60  90 127 174 216 255 322 389
#     4  11  24  45  67  93 128 171 218 269 327 386
#
# _framework density 20.682804000000001
#
# number of rings (size 3 to 8) (size 9 to 14) (size 15 to 20)
#    0.000    1.200    4.000    3.600    2.800    2.600 
#    0.000    3.000    0.000    2.400    0.000    0.000 
#    0.000    0.000    0.000    0.000    0.000    0.000 
#
# Total GULP energy -991590.474149 kJ/mol
# GULP energy per Si atom -12394.880927 kJ/mol
# Density = 2.063573 g / cm^3
# Si number density = 20.682804 Si / 1000 Ang^3
#
#
#
# Elastic Constant Matrix: (Units=GPa)
#
#
# Indices 1 2 3 4 5 6 
#
# 1 151.6974 53.4990 29.1153 0.0000 0.0000 0.0000
# 2 53.4990 151.6974 29.1108 0.0000 0.0000 0.0000
# 3 29.1153 29.1108 104.7100 0.0000 0.0000 0.0000
# 4 0.0000 0.0000 0.0000 21.1312 0.0000 0.0000
# 5 0.0000 0.0000 0.0000 0.0000 21.1311 0.0000
# 6 0.0000 0.0000 0.0000 0.0000 0.0000 23.7872
#
#
#
# Elastic Compliance Matrix: (Units=1/GPa)
#
#
# Indices 1 2 3 4 5 6 
#
# 1 0.007737 -0.002446 -0.001471 0.000000 0.000000 0.000000
# 2 -0.002446 0.007737 -0.001471 0.000000 0.000000 0.000000
# 3 -0.001471 -0.001471 0.010368 0.000000 0.000000 0.000000
# 4 0.000000 0.000000 0.000000 0.047323 0.000000 0.000000
# 5 0.000000 0.000000 0.000000 0.000000 0.047324 0.000000
# 6 0.000000 0.000000 0.000000 0.000000 0.000000 0.042039
#
#
# Mechanical properties :
#
#
# Convention : Reuss Voigt Hill
#
# Bulk Modulus (GPa) = 66.37611 70.17279 68.27445
# Shear Modulus (GPa) = 28.03831 32.96855 30.50343
#
# Velocity S-wave (km/s) = 3.68589 3.99683 3.84451
# Velocity P-wave (km/s) = 7.09059 7.43649 7.26560
#
# Compressibility (1/GPa) = 0.01506566
#
# Stress axis : x y z
#
# Youngs Moduli (GPa) = 129.24579 129.24803 96.44893
#
# Poissons Ratio (x) = 0.31618 0.14190
# Poissons Ratio (y) = 0.31618 0.14186
# Poissons Ratio (z) = 0.19015 0.19010
#
# Static dielectric constant tensor:
#      x y z
#    x 3.149090 0.000000 0.000000 
#    y 0.000000 3.152640 0.000000 
#    z 0.000000 0.000000 4.062470 
# 
# 
# High freq. dielectric constant tensor:
#      x y z
#    x 1.799860 0.000000 0.000000 
#    y 0.000000 1.799860 0.000000 
#    z 0.000000 0.000000 1.825340 
# 
# From -- ./inp_files/6637.got.cif
#   From: 2010.03.12/outbox.cif.g09.slc.cpg/sg141_4_cif.got.tgz:6637.got - 2010.04.03 13:18:35.
