data_PCOD8320933
_publ_section_title
;
Structure prediction by ZEFSAII (Michael W. Deem and Ramdas Pophale) SiO2 
 PCOD8320933
Probable space group: I 41/A M D
;
_chemical_formula_sum "Si O2"
_cell_formula_units_Z 128
_cell_length_a 19.986500
_cell_length_b 19.986500
_cell_length_c 13.964282
_cell_angle_alpha 90.000000
_cell_angle_beta 90.000000
_cell_angle_gamma 90.000000
_cell_volume 5578.174633
_symmetry_space_group_name_H-M "I 41/A M D"
_symmetry_group_IT_number 141
_space_group.IT_coordinate_system_code '2'
_symmetry_cell_setting 'tetragonal'
loop_
_space_group_symop_operation_xyz
x,y,z
1/4-y,3/4+x,1/4+z
-x,1/2-y,z
1/4+y,1/4-x,3/4+z
x,-y,-z
-x,1/2+y,-z
1/4+y,3/4+x,1/4-z
1/4-y,1/4-x,3/4-z
-x,-y,-z
3/4+y,1/4-x,3/4-z
x,1/2+y,-z
3/4-y,3/4+x,1/4-z
-x,y,z
x,1/2-y,z
3/4-y,1/4-x,3/4+z
3/4+y,3/4+x,1/4+z
1/2+x,1/2+y,1/2+z
3/4-y,1/4+x,3/4+z
1/2-x,-y,1/2+z
3/4+y,3/4-x,1/4+z
1/2+x,1/2-y,1/2-z
1/2-x,y,1/2-z
3/4+y,1/4+x,3/4-z
3/4-y,3/4-x,1/4-z
1/2-x,1/2-y,1/2-z
1/4+y,3/4-x,1/4-z
1/2+x,y,1/2-z
1/4-y,1/4+x,3/4-z
1/2-x,1/2+y,1/2+z
1/2+x,-y,1/2+z
1/4-y,3/4-x,1/4+z
1/4+y,1/4+x,3/4+z
loop_
_atom_site_type_symbol
_atom_site_label
_atom_site_fract_x
_atom_site_fract_y
_atom_site_fract_z
Si Si1 0.639817 0.889739 0.031158
Si Si2 0.368070 0.881931 0.375000
Si Si3 0.680254 0.750000 0.800880
Si Si4 0.190573 0.750000 0.471230
Si Si5 0.000000 0.056124 0.918268
Si Si6 0.776508 0.924233 0.966755
O O1 0.650541 0.814269 0.068365
O O2 0.652088 0.941289 0.117284
O O3 0.566941 0.891938 0.982875
O O4 0.697980 0.908128 0.954660
O O5 0.357373 0.812128 0.319955
O O6 0.306807 0.880040 0.448941
O O7 0.750000 0.750000 0.750000
O O8 0.690695 0.750000 0.913848
O O9 0.266844 0.750000 0.433146
O O10 0.000000 0.000000 0.000000
O O11 0.790923 0.000000 0.000000
#
# Coordination Sequence:
#
# PCOD8320933 Si02
#       6
#    32  16  16  16  16  32
#     4  12  26  44  74 103 148 195 255 318 390 469
#     4  12  24  43  78 110 150 198 258 315 402 460
#     4  12  28  45  67 108 147 193 249 315 391 474
#     4  12  24  49  71  99 152 199 244 322 389 460
#     4  12  26  49  76 114 157 202 263 330 403 475
#     4  12  22  44  73 109 139 193 259 325 379 458
#
# _framework density 22.946573999999998
#
# number of rings (size 3 to 8) (size 9 to 14) (size 15 to 20)
#    0.000    0.000    5.000    5.250    0.000    2.750 
#    0.000    1.250    0.000    4.500    0.000    0.000 
#    0.000    0.000    0.000    0.000    0.000    0.000 
#
# Total GULP energy -793393.138421 kJ/mol
# GULP energy per Si atom -12396.767788 kJ/mol
# Density = 2.289435 g / cm^3
# Si number density = 22.946574 Si / 1000 Ang^3
#
#
#
# Elastic Constant Matrix: (Units=GPa)
#
#
# Indices 1 2 3 4 5 6 
#
# 1 166.7055 39.1323 48.2922 0.0000 0.0000 0.0000
# 2 39.1323 166.7047 48.2920 0.0000 0.0000 0.0000
# 3 48.2922 48.2920 104.8688 0.0000 0.0000 0.0000
# 4 0.0000 0.0000 0.0000 17.9167 0.0000 0.0000
# 5 0.0000 0.0000 0.0000 0.0000 17.9165 0.0000
# 6 0.0000 0.0000 0.0000 0.0000 0.0000 37.2557
#
#
#
# Elastic Compliance Matrix: (Units=1/GPa)
#
#
# Indices 1 2 3 4 5 6 
#
# 1 0.007018 -0.000821 -0.002854 0.000000 0.000000 0.000000
# 2 -0.000821 0.007018 -0.002854 0.000000 0.000000 0.000000
# 3 -0.002854 -0.002854 0.012164 0.000000 0.000000 0.000000
# 4 0.000000 0.000000 0.000000 0.055814 0.000000 0.000000
# 5 0.000000 0.000000 0.000000 0.000000 0.055814 0.000000
# 6 0.000000 0.000000 0.000000 0.000000 0.000000 0.026842
#
#
# Mechanical properties :
#
#
# Convention : Reuss Voigt Hill
#
# Bulk Modulus (GPa) = 76.08436 78.85687 77.47062
# Shear Modulus (GPa) = 27.45628 34.78862 31.12245
#
# Velocity S-wave (km/s) = 3.46284 3.89790 3.68679
# Velocity P-wave (km/s) = 7.01552 7.39582 7.20818
#
# Compressibility (1/GPa) = 0.01314331
#
# Stress axis : x y z
#
# Youngs Moduli (GPa) = 142.49130 142.49072 82.20889
#
# Poissons Ratio (x) = 0.11694 0.23461
# Poissons Ratio (y) = 0.11694 0.23461
# Poissons Ratio (z) = 0.40665 0.40665
#
# Static dielectric constant tensor:
#      x y z
#    x 3.680920 0.000000 0.000000 
#    y 0.000000 3.681350 0.000000 
#    z 0.000000 0.000000 4.174690 
# 
# 
# High freq. dielectric constant tensor:
#      x y z
#    x 1.909360 0.000000 0.000000 
#    y 0.000000 1.909370 0.000000 
#    z 0.000000 0.000000 1.915620 
# 
# From -- ./inp_files/6326.got.cif
#   From: 2010.03.12/outbox.cif.g09.slc.cpg/sg141_4_cif.got.tgz:6326.got - 2010.04.03 13:18:35.
