data_PCOD8320113
_publ_section_title
;
Structure prediction by ZEFSAII (Michael W. Deem and Ramdas Pophale) SiO2 
 PCOD8320113
Probable space group: I 4/M C M
;
_chemical_formula_sum "Si O2"
_cell_formula_units_Z 160
_cell_length_a 31.373685
_cell_length_b 31.373685
_cell_length_c 9.051790
_cell_angle_alpha 90.000000
_cell_angle_beta 90.000000
_cell_angle_gamma 90.000000
_cell_volume 8909.750311
_symmetry_space_group_name_H-M "I 4/M C M"
_symmetry_group_IT_number 140
_symmetry_cell_setting 'tetragonal'
loop_
_space_group_symop_operation_xyz
x,y,z
-y,x,z
-x,-y,z
y,-x,z
x,-y,1/2-z
-x,y,1/2-z
y,x,1/2-z
-y,-x,1/2-z
-x,-y,-z
y,-x,-z
x,y,-z
-y,x,-z
-x,y,1/2+z
x,-y,1/2+z
-y,-x,1/2+z
y,x,1/2+z
1/2+x,1/2+y,1/2+z
1/2-y,1/2+x,1/2+z
1/2-x,1/2-y,1/2+z
1/2+y,1/2-x,1/2+z
1/2+x,1/2-y,-z
1/2-x,1/2+y,-z
1/2+y,1/2+x,-z
1/2-y,1/2-x,-z
1/2-x,1/2-y,1/2-z
1/2+y,1/2-x,1/2-z
1/2+x,1/2+y,1/2-z
1/2-y,1/2+x,1/2-z
1/2-x,1/2+y,z
1/2+x,1/2-y,z
1/2-y,1/2-x,z
1/2+y,1/2+x,z
loop_
_atom_site_type_symbol
_atom_site_label
_atom_site_fract_x
_atom_site_fract_y
_atom_site_fract_z
Si Si1 0.091891 0.812209 0.169840
Si Si2 0.060306 0.036895 0.500000
Si Si3 0.773206 0.829274 0.328462
Si Si4 0.408409 0.591592 0.250000
Si Si5 0.311735 0.124030 0.670896
Si Si6 0.760319 0.456153 0.321975
O O1 0.136291 0.802598 0.247684
O O2 0.084673 0.862701 0.174197
O O3 0.055301 0.786353 0.258820
O O4 0.091819 0.796886 0.000000
O O5 0.087248 0.052560 0.638354
O O6 0.013729 0.058020 0.500000
O O7 0.784114 0.784114 0.250000
O O8 0.785797 0.828266 0.500000
O O9 0.723877 0.839719 0.306429
O O10 0.320162 0.116083 0.500000
O O11 0.355674 0.144327 0.740781
O O12 0.294990 0.079136 0.735645
O O13 0.776040 0.500000 0.250000
O O14 0.758080 0.458257 0.500000
#
# Coordination Sequence:
#
# PCOD8320113 Si02
#       6
#    32  16  32  16  32  32
#     4  11  22  36  54  79 105 134 168 215 264 321
#     4  11  26  46  60  72  92 118 153 204 270 330
#     4  10  19  30  50  73 104 138 172 214 263 309
#     4  12  24  39  62  80  95 122 162 214 264 328
#     4   8  16  32  52  75 103 141 184 221 259 308
#     4  10  21  36  57  82 114 145 175 219 266 317
#
# _framework density 17.957854000000001
#
# number of rings (size 3 to 8) (size 9 to 14) (size 15 to 20)
#    0.000    1.900    2.000    3.600    2.800    2.800 
#    0.000    0.000    0.000   21.000    0.000    0.000 
#    0.000    0.400    0.000    5.000    0.000    0.000 
#
# Total GULP energy -991364.016913 kJ/mol
# GULP energy per Si atom -12392.050211 kJ/mol
# Density = 1.791698 g / cm^3
# Si number density = 17.957854 Si / 1000 Ang^3
#
#
#
# Elastic Constant Matrix: (Units=GPa)
#
#
# Indices 1 2 3 4 5 6 
#
# 1 98.4999 32.0169 27.9468 0.0000 0.0000 0.0000
# 2 32.0169 98.4986 27.9475 0.0000 0.0000 0.0000
# 3 27.9468 27.9475 101.1061 0.0000 0.0000 0.0000
# 4 0.0000 0.0000 0.0000 13.4386 0.0000 0.0000
# 5 0.0000 0.0000 0.0000 0.0000 13.4383 0.0000
# 6 0.0000 0.0000 0.0000 0.0000 0.0000 28.7076
#
#
#
# Elastic Compliance Matrix: (Units=1/GPa)
#
#
# Indices 1 2 3 4 5 6 
#
# 1 0.011866 -0.003175 -0.002402 0.000000 0.000000 0.000000
# 2 -0.003175 0.011866 -0.002402 0.000000 0.000000 0.000000
# 3 -0.002402 -0.002402 0.011219 0.000000 0.000000 0.000000
# 4 0.000000 0.000000 0.000000 0.074413 0.000000 0.000000
# 5 0.000000 0.000000 0.000000 0.000000 0.074414 0.000000
# 6 0.000000 0.000000 0.000000 0.000000 0.000000 0.034834
#
#
# Mechanical properties :
#
#
# Convention : Reuss Voigt Hill
#
# Bulk Modulus (GPa) = 52.65641 52.65856 52.65749
# Shear Modulus (GPa) = 20.75532 25.12979 22.94256
#
# Velocity S-wave (km/s) = 3.40336 3.74488 3.57820
# Velocity P-wave (km/s) = 6.69550 6.93440 6.81600
#
# Compressibility (1/GPa) = 0.01899104
#
# Stress axis : x y z
#
# Youngs Moduli (GPa) = 84.27439 84.27282 89.13760
#
# Poissons Ratio (x) = 0.26761 0.21412
# Poissons Ratio (y) = 0.26761 0.21414
# Poissons Ratio (z) = 0.20244 0.20245
#
# Static dielectric constant tensor:
#      x y z
#    x 3.360550 0.000000 0.000000 
#    y 0.000000 3.360520 0.000000 
#    z 0.000000 0.000000 3.249390 
# 
# 
# High freq. dielectric constant tensor:
#      x y z
#    x 1.678750 0.000000 0.000000 
#    y 0.000000 1.678750 0.000000 
#    z 0.000000 0.000000 1.693530 
# 
# From -- ./inp_files/1856.got.cif
#   From: 2010.06.25/outbox.cif.g09.slc.cpg/sg140_1_cif.got.tgz:1856.got - 2010.06.28 10:53:23.
