data_PCOD8320465
_publ_section_title
;
Structure prediction by ZEFSAII (Michael W. Deem and Ramdas Pophale) SiO2 
 PCOD8320465
Probable space group: I 4/M C M
;
_chemical_formula_sum "Si O2"
_cell_formula_units_Z 192
_cell_length_a 20.537776
_cell_length_b 20.537776
_cell_length_c 24.094769
_cell_angle_alpha 90.000000
_cell_angle_beta 90.000000
_cell_angle_gamma 90.000000
_cell_volume 10163.179420
_symmetry_space_group_name_H-M "I 4/M C M"
_symmetry_group_IT_number 140
_symmetry_cell_setting 'tetragonal'
loop_
_space_group_symop_operation_xyz
x,y,z
-y,x,z
-x,-y,z
y,-x,z
x,-y,1/2-z
-x,y,1/2-z
y,x,1/2-z
-y,-x,1/2-z
-x,-y,-z
y,-x,-z
x,y,-z
-y,x,-z
-x,y,1/2+z
x,-y,1/2+z
-y,-x,1/2+z
y,x,1/2+z
1/2+x,1/2+y,1/2+z
1/2-y,1/2+x,1/2+z
1/2-x,1/2-y,1/2+z
1/2+y,1/2-x,1/2+z
1/2+x,1/2-y,-z
1/2-x,1/2+y,-z
1/2+y,1/2+x,-z
1/2-y,1/2-x,-z
1/2-x,1/2-y,1/2-z
1/2+y,1/2-x,1/2-z
1/2+x,1/2+y,1/2-z
1/2-y,1/2+x,1/2-z
1/2-x,1/2+y,z
1/2+x,1/2-y,z
1/2-y,1/2-x,z
1/2+y,1/2+x,z
loop_
_atom_site_type_symbol
_atom_site_label
_atom_site_fract_x
_atom_site_fract_y
_atom_site_fract_z
Si Si1 0.232977 0.376474 0.644713
Si Si2 0.309936 0.366227 0.874018
Si Si3 0.188977 0.311024 0.938342
Si Si4 0.151952 0.455163 0.562813
Si Si5 0.353517 0.247110 0.735259
Si Si6 0.045256 0.095066 0.935571
Si Si7 0.919158 0.419158 0.561917
O O1 0.187602 0.312399 0.637131
O O2 0.307224 0.360911 0.629871
O O3 0.209995 0.436265 0.605388
O O4 0.232519 0.397525 0.710094
O O5 0.252175 0.340167 0.910919
O O6 0.280492 0.392298 0.815398
O O7 0.344436 0.428441 0.900590
O O8 0.134769 0.365232 0.937896
O O9 0.209238 0.290763 0.000000
O O10 0.178465 0.471996 0.500000
O O11 0.106880 0.393121 0.558137
O O12 0.110933 0.515419 0.589486
O O13 0.295389 0.295389 0.750000
O O14 0.320713 0.179288 0.714536
O O15 0.969881 0.085285 0.920418
O O16 0.053770 0.111343 0.000000
O O17 0.940071 0.440071 0.500000
#
# Coordination Sequence:
#
# PCOD8320465 Si02
#       7
#    32  32  16  32  32  32  16
#     4   9  17  30  50  81 107 140 179 226 267 315
#     4  11  18  32  54  79 102 140 175 223 274 324
#     4  11  22  31  45  76 111 136 164 209 273 336
#     4   9  17  30  51  77 104 139 184 227 267 315
#     4   8  14  28  50  75 102 135 172 209 263 319
#     4   9  20  38  56  75 103 142 184 222 268 331
#     4   9  19  34  47  67 109 149 173 208 268 334
#
# _framework density 18.891725999999998
#
# number of rings (size 3 to 8) (size 9 to 14) (size 15 to 20)
#    0.000    2.667    1.667    2.250    0.000    3.667 
#    0.000    3.333    0.000   16.000    0.000   10.500 
#    2.500    0.000    0.000    0.000    0.000    0.000 
#
# Total GULP energy -1189538.817046 kJ/mol
# GULP energy per Si atom -12391.029344 kJ/mol
# Density = 1.884873 g / cm^3
# Si number density = 18.891726 Si / 1000 Ang^3
#
#
#
# Elastic Constant Matrix: (Units=GPa)
#
#
# Indices 1 2 3 4 5 6 
#
# 1 53.4335 17.4531 44.9771 0.0000 0.0000 0.0000
# 2 17.4531 53.4339 44.9771 0.0000 0.0000 0.0000
# 3 44.9771 44.9771 122.4042 0.0000 0.0000 0.0000
# 4 0.0000 0.0000 0.0000 2.0893 0.0000 0.0000
# 5 0.0000 0.0000 0.0000 0.0000 2.0886 0.0000
# 6 0.0000 0.0000 0.0000 0.0000 0.0000 34.9307
#
#
#
# Elastic Compliance Matrix: (Units=1/GPa)
#
#
# Indices 1 2 3 4 5 6 
#
# 1 0.027112 -0.000681 -0.009712 0.000000 0.000000 0.000000
# 2 -0.000681 0.027112 -0.009712 0.000000 0.000000 0.000000
# 3 -0.009712 -0.009712 0.015307 0.000000 0.000000 0.000000
# 4 0.000000 0.000000 0.000000 0.478620 0.000000 0.000000
# 5 0.000000 0.000000 0.000000 0.000000 0.478787 0.000000
# 6 0.000000 0.000000 0.000000 0.000000 0.000000 0.028628
#
#
# Mechanical properties :
#
#
# Convention : Reuss Voigt Hill
#
# Bulk Modulus (GPa) = 34.10466 49.34290 41.72378
# Shear Modulus (GPa) = 4.52263 15.94602 10.23433
#
# Velocity S-wave (km/s) = 1.54893 2.90845 2.33005
# Velocity P-wave (km/s) = 4.61419 6.11999 5.41964
#
# Compressibility (1/GPa) = 0.02932151
#
# Stress axis : x y z
#
# Youngs Moduli (GPa) = 36.88360 36.88392 65.32900
#
# Poissons Ratio (x) = 0.02510 0.63449
# Poissons Ratio (y) = 0.02510 0.63449
# Poissons Ratio (z) = 0.35822 0.35822
#
# Static dielectric constant tensor:
#      x y z
#    x 3.892570 0.000000 0.000000 
#    y 0.000000 3.892650 0.000000 
#    z 0.000000 0.000000 3.886700 
# 
# 
# High freq. dielectric constant tensor:
#      x y z
#    x 1.716870 0.000000 0.000000 
#    y 0.000000 1.716870 0.000000 
#    z 0.000000 0.000000 1.728090 
# 
# From -- ./inp_files/9826.got.cif
#   From: 2010.06.25/outbox.cif.g09.slc.cpg/sg140_5_cif.got.tgz:9826.got - 2010.06.28 10:53:23.
