data_PCOD8320495
_publ_section_title
;
Structure prediction by ZEFSAII (Michael W. Deem and Ramdas Pophale) SiO2 
 PCOD8320495
Probable space group: I 4/M C M
;
_chemical_formula_sum "Si O2"
_cell_formula_units_Z 160
_cell_length_a 19.998084
_cell_length_b 19.998084
_cell_length_c 18.758441
_cell_angle_alpha 90.000000
_cell_angle_beta 90.000000
_cell_angle_gamma 90.000000
_cell_volume 7501.938822
_symmetry_space_group_name_H-M "I 4/M C M"
_symmetry_group_IT_number 140
_symmetry_cell_setting 'tetragonal'
loop_
_space_group_symop_operation_xyz
x,y,z
-y,x,z
-x,-y,z
y,-x,z
x,-y,1/2-z
-x,y,1/2-z
y,x,1/2-z
-y,-x,1/2-z
-x,-y,-z
y,-x,-z
x,y,-z
-y,x,-z
-x,y,1/2+z
x,-y,1/2+z
-y,-x,1/2+z
y,x,1/2+z
1/2+x,1/2+y,1/2+z
1/2-y,1/2+x,1/2+z
1/2-x,1/2-y,1/2+z
1/2+y,1/2-x,1/2+z
1/2+x,1/2-y,-z
1/2-x,1/2+y,-z
1/2+y,1/2+x,-z
1/2-y,1/2-x,-z
1/2-x,1/2-y,1/2-z
1/2+y,1/2-x,1/2-z
1/2+x,1/2+y,1/2-z
1/2-y,1/2+x,1/2-z
1/2-x,1/2+y,z
1/2+x,1/2-y,z
1/2-y,1/2-x,z
1/2+y,1/2+x,z
loop_
_atom_site_type_symbol
_atom_site_label
_atom_site_fract_x
_atom_site_fract_y
_atom_site_fract_z
Si Si1 0.056920 0.331938 0.299531
Si Si2 0.109109 0.998636 0.667580
Si Si3 0.694062 0.303746 0.921586
Si Si4 0.267599 0.544087 0.083391
Si Si5 0.757979 0.147415 0.783591
O O1 0.113357 0.386644 0.315126
O O2 0.030356 0.302461 0.374926
O O3 0.080009 0.267213 0.252919
O O4 0.000000 0.365877 0.250000
O O5 0.173172 0.001040 0.615996
O O6 0.064930 0.933400 0.650593
O O7 0.131734 0.000000 0.750000
O O8 0.763151 0.263151 0.913853
O O9 0.713302 0.379026 0.903223
O O10 0.638742 0.272715 0.867963
O O11 0.662638 0.296846 0.000000
O O12 0.257550 0.527546 0.000000
O O13 0.828033 0.171968 0.750000
O O14 0.701549 0.201549 0.767987
#
# Coordination Sequence:
#
# PCOD8320495 Si02
#       5
#    32  32  32  32  32
#     4  11  24  42  64  90 118 156 207 260 316 379
#     4   9  20  39  59  82 121 175 227 266 305 366
#     4   9  17  30  51  82 120 158 193 240 308 374
#     4  11  22  35  57  90 123 158 202 256 317 379
#     4   9  16  31  55  81 111 148 188 238 299 363
#
# _framework density 21.327821
#
# number of rings (size 3 to 8) (size 9 to 14) (size 15 to 20)
#    0.000    2.200    2.000    1.800    0.000    7.000 
#    0.000    4.000    0.000    1.800    0.000    1.400 
#    0.000    0.000    0.000    0.000    0.000    0.000 
#
# Total GULP energy -991716.728106 kJ/mol
# GULP energy per Si atom -12396.459101 kJ/mol
# Density = 2.127928 g / cm^3
# Si number density = 21.327821 Si / 1000 Ang^3
#
#
#
# Elastic Constant Matrix: (Units=GPa)
#
#
# Indices 1 2 3 4 5 6 
#
# 1 67.7078 21.0695 40.1274 0.0000 0.0000 0.0000
# 2 21.0695 67.7084 40.1277 0.0000 0.0000 0.0000
# 3 40.1274 40.1277 149.4097 0.0000 0.0000 0.0000
# 4 0.0000 0.0000 0.0000 26.6208 0.0000 0.0000
# 5 0.0000 0.0000 0.0000 0.0000 26.6206 0.0000
# 6 0.0000 0.0000 0.0000 0.0000 0.0000 24.2631
#
#
#
# Elastic Compliance Matrix: (Units=1/GPa)
#
#
# Indices 1 2 3 4 5 6 
#
# 1 0.018159 -0.003283 -0.003995 0.000000 0.000000 0.000000
# 2 -0.003283 0.018159 -0.003995 0.000000 0.000000 0.000000
# 3 -0.003995 -0.003995 0.008839 0.000000 0.000000 0.000000
# 4 0.000000 0.000000 0.000000 0.037565 0.000000 0.000000
# 5 0.000000 0.000000 0.000000 0.000000 0.037565 0.000000
# 6 0.000000 0.000000 0.000000 0.000000 0.000000 0.041215
#
#
# Mechanical properties :
#
#
# Convention : Reuss Voigt Hill
#
# Bulk Modulus (GPa) = 44.22887 54.16391 49.19639
# Shear Modulus (GPa) = 26.09824 27.73434 26.91629
#
# Velocity S-wave (km/s) = 3.50190 3.60999 3.55636
# Velocity P-wave (km/s) = 6.09374 6.54424 6.32301
#
# Compressibility (1/GPa) = 0.02260967
#
# Stress axis : x y z
#
# Youngs Moduli (GPa) = 55.07001 55.07037 113.13431
#
# Poissons Ratio (x) = 0.18079 0.45200
# Poissons Ratio (y) = 0.18078 0.45200
# Poissons Ratio (z) = 0.22002 0.22002
#
# Static dielectric constant tensor:
#      x y z
#    x 3.668430 0.000000 0.000000 
#    y 0.000000 3.668430 0.000000 
#    z 0.000000 0.000000 4.067880 
# 
# 
# High freq. dielectric constant tensor:
#      x y z
#    x 1.818360 0.000000 0.000000 
#    y 0.000000 1.818360 0.000000 
#    z 0.000000 0.000000 1.842270 
# 
# From -- ./inp_files/6803.got.cif
#   From: 2010.06.25/outbox.cif.g09.slc.cpg/sg140_4_cif.got.tgz:6803.got - 2010.06.28 10:53:23.
