data_PCOD8320537
_publ_section_title
;
Structure prediction by ZEFSAII (Michael W. Deem and Ramdas Pophale) SiO2 
 PCOD8320537
Probable space group: I 41/A M D
;
_chemical_formula_sum "Si O2"
_cell_formula_units_Z 144
_cell_length_a 24.525257
_cell_length_b 24.525257
_cell_length_c 17.588242
_cell_angle_alpha 90.000000
_cell_angle_beta 90.000000
_cell_angle_gamma 90.000000
_cell_volume 10579.120566
_symmetry_space_group_name_H-M "I 41/A M D"
_symmetry_group_IT_number 141
_space_group.IT_coordinate_system_code '2'
_symmetry_cell_setting 'tetragonal'
loop_
_space_group_symop_operation_xyz
x,y,z
1/4-y,3/4+x,1/4+z
-x,1/2-y,z
1/4+y,1/4-x,3/4+z
x,-y,-z
-x,1/2+y,-z
1/4+y,3/4+x,1/4-z
1/4-y,1/4-x,3/4-z
-x,-y,-z
3/4+y,1/4-x,3/4-z
x,1/2+y,-z
3/4-y,3/4+x,1/4-z
-x,y,z
x,1/2-y,z
3/4-y,1/4-x,3/4+z
3/4+y,3/4+x,1/4+z
1/2+x,1/2+y,1/2+z
3/4-y,1/4+x,3/4+z
1/2-x,-y,1/2+z
3/4+y,3/4-x,1/4+z
1/2+x,1/2-y,1/2-z
1/2-x,y,1/2-z
3/4+y,1/4+x,3/4-z
3/4-y,3/4-x,1/4-z
1/2-x,1/2-y,1/2-z
1/4+y,3/4-x,1/4-z
1/2+x,y,1/2-z
1/4-y,1/4+x,3/4-z
1/2-x,1/2+y,1/2+z
1/2+x,-y,1/2+z
1/4-y,3/4-x,1/4+z
1/4+y,1/4+x,3/4+z
loop_
_atom_site_type_symbol
_atom_site_label
_atom_site_fract_x
_atom_site_fract_y
_atom_site_fract_z
Si Si1 0.255037 0.994964 0.375000
Si Si2 0.163236 0.476686 0.739377
Si Si3 0.853918 0.191157 0.851861
Si Si4 0.808077 0.141478 0.713708
Si Si5 0.739752 0.687641 0.065947
O O1 0.251804 0.051817 0.419146
O O2 0.260372 0.943398 0.430867
O O3 0.154930 0.412533 0.721756
O O4 0.104354 0.507709 0.744223
O O5 0.881142 0.250000 0.865496
O O6 0.895255 0.145255 0.875000
O O7 0.837097 0.187894 0.763438
O O8 0.800006 0.185083 0.900975
O O9 0.750000 0.124560 0.750000
O O10 0.803069 0.165318 0.628663
O O11 0.724414 0.750000 0.041788
#
# Coordination Sequence:
#
# PCOD8320537 Si02
#       5
#    16  32  32  32  32
#     4  10  18  24  42  64  86 108 141 169 226 248
#     4  11  16  27  41  63  84 113 135 181 208 261
#     4  10  18  26  36  51  74 109 147 178 204 230
#     4  10  16  25  40  54  80 107 140 176 208 243
#     4  10  19  28  40  58  81 112 143 170 208 253
#
# _framework density 13.611717000000001
#
# number of rings (size 3 to 8) (size 9 to 14) (size 15 to 20)
#    0.000    1.778    6.667    2.000    0.000    2.889 
#    0.000    0.000    0.000    0.000    0.000    3.111 
#    0.000    0.000    0.000    0.444    0.000    0.000 
#
# Total GULP energy -892087.348775 kJ/mol
# GULP energy per Si atom -12390.102066 kJ/mol
# Density = 1.358074 g / cm^3
# Si number density = 13.611717 Si / 1000 Ang^3
#
#
#
# Elastic Constant Matrix: (Units=GPa)
#
#
# Indices 1 2 3 4 5 6 
#
# 1 64.2614 12.6789 26.4911 0.0000 0.0000 0.0000
# 2 12.6789 64.2610 26.4920 0.0000 0.0000 0.0000
# 3 26.4911 26.4920 41.2883 0.0000 0.0000 0.0000
# 4 0.0000 0.0000 0.0000 15.2661 0.0000 0.0000
# 5 0.0000 0.0000 0.0000 0.0000 15.2662 0.0000
# 6 0.0000 0.0000 0.0000 0.0000 0.0000 11.3763
#
#
#
# Elastic Compliance Matrix: (Units=1/GPa)
#
#
# Indices 1 2 3 4 5 6 
#
# 1 0.021336 0.001950 -0.014940 0.000000 0.000000 0.000000
# 2 0.001950 0.021336 -0.014941 0.000000 0.000000 0.000000
# 3 -0.014940 -0.014941 0.043392 0.000000 0.000000 0.000000
# 4 0.000000 0.000000 0.000000 0.065504 0.000000 0.000000
# 5 0.000000 0.000000 0.000000 0.000000 0.065504 0.000000
# 6 0.000000 0.000000 0.000000 0.000000 0.000000 0.087902
#
#
# Mechanical properties :
#
#
# Convention : Reuss Voigt Hill
#
# Bulk Modulus (GPa) = 33.11120 33.45941 33.28530
# Shear Modulus (GPa) = 13.48052 15.32498 14.40275
#
# Velocity S-wave (km/s) = 3.15042 3.35903 3.25640
# Velocity P-wave (km/s) = 6.13285 6.29911 6.21654
#
# Compressibility (1/GPa) = 0.03020126
#
# Stress axis : x y z
#
# Youngs Moduli (GPa) = 46.86978 46.86830 23.04555
#
# Poissons Ratio (x) = -0.09137 0.34430
# Poissons Ratio (y) = -0.09137 0.34432
# Poissons Ratio (z) = 0.70024 0.70026
#
# Static dielectric constant tensor:
#      x y z
#    x 2.730950 0.000000 0.000000 
#    y 0.000000 2.730940 0.000000 
#    z 0.000000 0.000000 2.582520 
# 
# 
# High freq. dielectric constant tensor:
#      x y z
#    x 1.502040 0.000000 0.000000 
#    y 0.000000 1.502040 0.000000 
#    z 0.000000 0.000000 1.489710 
# 
# From -- ./inp_files/8780.got.cif
#   From: 2010.03.12/outbox.cif.g09.slc.cpg/sg141_5_cif.got.tgz:8780.got - 2010.04.03 13:18:35.
