data_PCOD8320685
_publ_section_title
;
Structure prediction by ZEFSAII (Michael W. Deem and Ramdas Pophale) SiO2 
 PCOD8320685
Probable space group: I 41/A M D
;
_chemical_formula_sum "Si O2"
_cell_formula_units_Z 160
_cell_length_a 17.913403
_cell_length_b 17.913403
_cell_length_c 24.865334
_cell_angle_alpha 90.000000
_cell_angle_beta 90.000000
_cell_angle_gamma 90.000000
_cell_volume 7979.037202
_symmetry_space_group_name_H-M "I 41/A M D"
_symmetry_group_IT_number 141
_space_group.IT_coordinate_system_code '2'
_symmetry_cell_setting 'tetragonal'
loop_
_space_group_symop_operation_xyz
x,y,z
1/4-y,3/4+x,1/4+z
-x,1/2-y,z
1/4+y,1/4-x,3/4+z
x,-y,-z
-x,1/2+y,-z
1/4+y,3/4+x,1/4-z
1/4-y,1/4-x,3/4-z
-x,-y,-z
3/4+y,1/4-x,3/4-z
x,1/2+y,-z
3/4-y,3/4+x,1/4-z
-x,y,z
x,1/2-y,z
3/4-y,1/4-x,3/4+z
3/4+y,3/4+x,1/4+z
1/2+x,1/2+y,1/2+z
3/4-y,1/4+x,3/4+z
1/2-x,-y,1/2+z
3/4+y,3/4-x,1/4+z
1/2+x,1/2-y,1/2-z
1/2-x,y,1/2-z
3/4+y,1/4+x,3/4-z
3/4-y,3/4-x,1/4-z
1/2-x,1/2-y,1/2-z
1/4+y,3/4-x,1/4-z
1/2+x,y,1/2-z
1/4-y,1/4+x,3/4-z
1/2-x,1/2+y,1/2+z
1/2+x,-y,1/2+z
1/4-y,3/4-x,1/4+z
1/4+y,1/4+x,3/4+z
loop_
_atom_site_type_symbol
_atom_site_label
_atom_site_fract_x
_atom_site_fract_y
_atom_site_fract_z
Si Si1 0.914125 0.905227 0.456057
Si Si2 0.912728 0.419184 0.917306
Si Si3 0.582619 0.339087 0.767884
Si Si4 0.672914 0.336913 0.866730
Si Si5 0.586244 0.926157 0.921135
O O1 0.855618 0.851201 0.426820
O O2 0.896198 0.894853 0.519210
O O3 0.000000 0.881884 0.446160
O O4 0.900083 0.985883 0.428988
O O5 0.895692 0.354309 0.875000
O O6 0.875546 0.496945 0.897299
O O7 0.000000 0.428936 0.923581
O O8 0.879410 0.391506 0.974232
O O9 0.500000 0.372425 0.757675
O O10 0.579045 0.250000 0.765341
O O11 0.610830 0.368058 0.825544
O O12 0.683335 0.250000 0.858122
O O13 0.500000 0.909812 0.905281
O O14 0.639629 0.889629 0.875000
#
# Coordination Sequence:
#
# PCOD8320685 Si02
#       5
#    32  32  32  32  32
#     4   9  19  37  58  81 113 151 186 227 283 344
#     4  10  20  34  51  74 108 146 187 235 280 330
#     4   9  17  31  53  77 101 137 183 226 274 328
#     4  10  20  34  53  80 111 142 184 234 279 329
#     4   9  19  37  60  85 112 145 188 232 280 340
#
# _framework density 20.052544999999999
#
# number of rings (size 3 to 8) (size 9 to 14) (size 15 to 20)
#    0.000    2.600    0.000    3.000    0.000    6.400 
#    3.600    2.000    0.000    0.000    0.000    0.000 
#    0.000    0.000    0.000    0.000    0.000    0.000 
#
# Total GULP energy -991194.507838 kJ/mol
# GULP energy per Si atom -12389.931348 kJ/mol
# Density = 2.000690 g / cm^3
# Si number density = 20.052545 Si / 1000 Ang^3
#
#
#
# Elastic Constant Matrix: (Units=GPa)
#
#
# Indices 1 2 3 4 5 6 
#
# 1 11.5190 75.1074 42.8863 0.0000 0.0000 0.0000
# 2 75.1074 11.5378 42.8874 0.0000 0.0000 0.0000
# 3 42.8863 42.8874 136.0526 0.0000 0.0000 0.0000
# 4 0.0000 0.0000 0.0000 29.2109 0.0000 0.0000
# 5 0.0000 0.0000 0.0000 0.0000 29.2115 0.0000
# 6 0.0000 0.0000 0.0000 0.0000 0.0000 23.5284
#
#
#
# Elastic Compliance Matrix: (Units=1/GPa)
#
#
# Indices 1 2 3 4 5 6 
#
# 1 0.000523 0.016254 -0.005288 0.000000 0.000000 0.000000
# 2 0.016254 0.000528 -0.005290 0.000000 0.000000 0.000000
# 3 -0.005288 -0.005290 0.010685 0.000000 0.000000 0.000000
# 4 0.000000 0.000000 0.000000 0.034234 0.000000 0.000000
# 5 0.000000 0.000000 0.000000 0.000000 0.034233 0.000000
# 6 0.000000 0.000000 0.000000 0.000000 0.000000 0.042502
#
#
# Mechanical properties :
#
#
# Convention : Reuss Voigt Hill
#
# Bulk Modulus (GPa) = 43.31593 53.43019 48.37306
# Shear Modulus (GPa) = 41.99974 16.27205 29.13589
#
# Velocity S-wave (km/s) = 4.58152 2.85172 3.81593
# Velocity P-wave (km/s) = 7.04522 6.12748 6.60232
#
# Compressibility (1/GPa) = 0.02308619
#
# Stress axis : x y z
#
# Youngs Moduli (GPa) = 1912.31225 1895.02694 93.59253
#
# Poissons Ratio (x) = -30.80133 0.49496
# Poissons Ratio (y) = -31.08228 0.49509
# Poissons Ratio (z) = 10.11318 10.02437
#
# Static dielectric constant tensor:
#      x y z
#    x 3.514410 0.000000 0.000000 
#    y 0.000000 3.514410 0.000000 
#    z 0.000000 0.000000 3.791710 
# 
# 
# High freq. dielectric constant tensor:
#      x y z
#    x 1.761580 0.000000 0.000000 
#    y 0.000000 1.761580 0.000000 
#    z 0.000000 0.000000 1.793400 
# 
# From -- ./inp_files/12665.got.cif
#   From: 2010.03.12/outbox.cif.g09.slc.cpg/sg141_7_cif.got.tgz:12665.got - 2010.04.03 13:18:35.
