data_PCOD8320023
_publ_section_title
;
Structure prediction by ZEFSAII (Michael W. Deem and Ramdas Pophale) SiO2 
 PCOD8320023
Probable space group: I 4/M M M
;
_chemical_formula_sum "Si O2"
_cell_formula_units_Z 128
_cell_length_a 18.409358
_cell_length_b 18.409358
_cell_length_c 27.033924
_cell_angle_alpha 90.000000
_cell_angle_beta 90.000000
_cell_angle_gamma 90.000000
_cell_volume 9161.917468
_symmetry_space_group_name_H-M "I 4/M M M"
_symmetry_group_IT_number 139
_symmetry_cell_setting 'tetragonal'
loop_
_space_group_symop_operation_xyz
x,y,z
-y,x,z
-x,-y,z
y,-x,z
x,-y,-z
-x,y,-z
y,x,-z
-y,-x,-z
-x,-y,-z
y,-x,-z
x,y,-z
-y,x,-z
-x,y,z
x,-y,z
-y,-x,z
y,x,z
1/2+x,1/2+y,1/2+z
1/2-y,1/2+x,1/2+z
1/2-x,1/2-y,1/2+z
1/2+y,1/2-x,1/2+z
1/2+x,1/2-y,1/2-z
1/2-x,1/2+y,1/2-z
1/2+y,1/2+x,1/2-z
1/2-y,1/2-x,1/2-z
1/2-x,1/2-y,1/2-z
1/2+y,1/2-x,1/2-z
1/2+x,1/2+y,1/2-z
1/2-y,1/2+x,1/2-z
1/2-x,1/2+y,1/2+z
1/2+x,1/2-y,1/2+z
1/2-y,1/2-x,1/2+z
1/2+y,1/2+x,1/2+z
loop_
_atom_site_type_symbol
_atom_site_label
_atom_site_fract_x
_atom_site_fract_y
_atom_site_fract_z
Si Si1 0.583101 0.701222 0.055974
Si Si2 0.584039 0.795932 0.146666
Si Si3 0.798456 0.917195 0.259531
Si Si4 0.346841 0.917003 0.203813
O O1 0.500000 0.677881 0.065414
O O2 0.630496 0.630496 0.067402
O O3 0.604931 0.766747 0.092396
O O4 0.595076 0.729146 0.000000
O O5 0.500000 0.819232 0.150303
O O6 0.600891 0.733099 0.186370
O O7 0.633154 0.866548 0.157162
O O8 0.866058 0.866058 0.247466
O O9 0.736551 0.902977 0.218670
O O10 0.825894 0.000000 0.257249
O O11 0.398777 0.898777 0.250000
O O12 0.359571 0.000000 0.188261
#
# Coordination Sequence:
#
# PCOD8320023 Si02
#       4
#    32  32  32  32
#     4   9  17  28  41  57  77 101 130 162 192 223
#     4   9  17  27  39  56  77 100 126 157 191 225
#     4   9  17  27  38  55  78 102 129 157 185 221
#     4   9  17  27  40  59  79  99 126 158 189 224
#
# _framework density 13.970874999999999
#
# number of rings (size 3 to 8) (size 9 to 14) (size 15 to 20)
#    0.000    3.000    0.000    3.000    0.000    7.750 
#    0.000    1.250    0.000    5.250    0.000    3.500 
#    0.000    0.000    0.000    0.000    0.000    0.000 
#
# Total GULP energy -793546.370143 kJ/mol
# GULP energy per Si atom -12399.162033 kJ/mol
# Density = 1.393908 g / cm^3
# Si number density = 13.970875 Si / 1000 Ang^3
#
#
#
# Elastic Constant Matrix: (Units=GPa)
#
#
# Indices 1 2 3 4 5 6 
#
# 1 91.6345 67.6037 48.0617 0.0000 0.0000 0.0000
# 2 67.6037 91.6345 48.0617 0.0000 0.0000 0.0000
# 3 48.0617 48.0617 78.2615 0.0000 0.0000 0.0000
# 4 0.0000 0.0000 0.0000 19.1432 0.0000 0.0000
# 5 0.0000 0.0000 0.0000 0.0000 19.1432 0.0000
# 6 0.0000 0.0000 0.0000 0.0000 0.0000 25.8439
#
#
#
# Elastic Compliance Matrix: (Units=1/GPa)
#
#
# Indices 1 2 3 4 5 6 
#
# 1 0.025796 -0.015817 -0.006128 0.000000 0.000000 0.000000
# 2 -0.015817 0.025796 -0.006128 0.000000 0.000000 0.000000
# 3 -0.006128 -0.006128 0.020305 0.000000 0.000000 0.000000
# 4 0.000000 0.000000 0.000000 0.052238 0.000000 0.000000
# 5 0.000000 0.000000 0.000000 0.000000 0.052238 0.000000
# 6 0.000000 0.000000 0.000000 0.000000 0.000000 0.038694
#
#
# Mechanical properties :
#
#
# Convention : Reuss Voigt Hill
#
# Bulk Modulus (GPa) = 63.49352 65.44272 64.46812
# Shear Modulus (GPa) = 18.08550 19.34631 18.71591
#
# Velocity S-wave (km/s) = 3.60184 3.72527 3.66408
# Velocity P-wave (km/s) = 7.92738 8.08996 8.00908
#
# Compressibility (1/GPa) = 0.01574964
#
# Stress axis : x y z
#
# Youngs Moduli (GPa) = 38.76524 38.76524 49.24937
#
# Poissons Ratio (x) = 0.61315 0.30182
# Poissons Ratio (y) = 0.61315 0.30182
# Poissons Ratio (z) = 0.23757 0.23757
#
# Static dielectric constant tensor:
#      x y z
#    x 2.691180 0.000000 0.000000 
#    y 0.000000 2.691180 0.000000 
#    z 0.000000 0.000000 2.693040 
# 
# 
# High freq. dielectric constant tensor:
#      x y z
#    x 1.526420 0.000000 0.000000 
#    y 0.000000 1.526420 0.000000 
#    z 0.000000 0.000000 1.509430 
# 
# From -- ./inp_files/11307.got.cif
#   From: 2010.03.12/outbox.cif.g09.slc.cpg/sg139_6_cif.got.tgz:11307.got - 2010.04.08 09:46:31.
