data_PCOD8320684
_publ_section_title
;
Structure prediction by ZEFSAII (Michael W. Deem and Ramdas Pophale) SiO2 
 PCOD8320684
Probable space group: I 41/A M D
;
_chemical_formula_sum "Si O2"
_cell_formula_units_Z 160
_cell_length_a 17.411253
_cell_length_b 17.411253
_cell_length_c 25.519916
_cell_angle_alpha 90.000000
_cell_angle_beta 90.000000
_cell_angle_gamma 90.000000
_cell_volume 7736.406711
_symmetry_space_group_name_H-M "I 41/A M D"
_symmetry_group_IT_number 141
_space_group.IT_coordinate_system_code '2'
_symmetry_cell_setting 'tetragonal'
loop_
_space_group_symop_operation_xyz
x,y,z
1/4-y,3/4+x,1/4+z
-x,1/2-y,z
1/4+y,1/4-x,3/4+z
x,-y,-z
-x,1/2+y,-z
1/4+y,3/4+x,1/4-z
1/4-y,1/4-x,3/4-z
-x,-y,-z
3/4+y,1/4-x,3/4-z
x,1/2+y,-z
3/4-y,3/4+x,1/4-z
-x,y,z
x,1/2-y,z
3/4-y,1/4-x,3/4+z
3/4+y,3/4+x,1/4+z
1/2+x,1/2+y,1/2+z
3/4-y,1/4+x,3/4+z
1/2-x,-y,1/2+z
3/4+y,3/4-x,1/4+z
1/2+x,1/2-y,1/2-z
1/2-x,y,1/2-z
3/4+y,1/4+x,3/4-z
3/4-y,3/4-x,1/4-z
1/2-x,1/2-y,1/2-z
1/4+y,3/4-x,1/4-z
1/2+x,y,1/2-z
1/4-y,1/4+x,3/4-z
1/2-x,1/2+y,1/2+z
1/2+x,-y,1/2+z
1/4-y,3/4-x,1/4+z
1/4+y,1/4+x,3/4+z
loop_
_atom_site_type_symbol
_atom_site_label
_atom_site_fract_x
_atom_site_fract_y
_atom_site_fract_z
Si Si1 0.091450 0.336466 0.816958
Si Si2 0.408854 0.926177 0.217055
Si Si3 0.158812 0.660183 0.573775
Si Si4 0.091787 0.164414 0.617331
Si Si5 0.588287 0.580957 0.016590
O O1 0.122929 0.250000 0.806243
O O2 0.116063 0.366063 0.875000
O O3 0.123959 0.395447 0.772806
O O4 0.000000 0.333629 0.814519
O O5 0.500000 0.925214 0.218893
O O6 0.378412 0.869435 0.171971
O O7 0.381303 0.011586 0.202192
O O8 0.159676 0.750000 0.589017
O O9 0.139730 0.610270 0.625000
O O10 0.095083 0.643511 0.529741
O O11 0.125058 0.250000 0.611539
O O12 0.126312 0.113650 0.569759
O O13 0.000000 0.165483 0.615064
O O14 0.500000 0.565353 0.029069
O O15 0.627569 0.500000 0.000000
#
# Coordination Sequence:
#
# PCOD8320684 Si02
#       5
#    32  32  32  32  32
#     4   8  13  23  44  76 110 140 171 210 255 302
#     4   9  17  29  46  72 105 138 171 209 256 308
#     4  11  22  34  50  74 104 137 173 215 265 319
#     4   9  16  27  46  71  98 130 170 214 257 303
#     4  10  20  34  51  71  97 130 170 218 270 321
#
# _framework density 20.681436000000001
#
# number of rings (size 3 to 8) (size 9 to 14) (size 15 to 20)
#    0.000    2.600    0.000    3.600    0.000    7.800 
#    0.000    0.000    0.000    3.600    0.000    0.000 
#    0.000    9.600    0.000    0.000    0.000    0.400 
#
# Total GULP energy -991540.570360 kJ/mol
# GULP energy per Si atom -12394.257130 kJ/mol
# Density = 2.063436 g / cm^3
# Si number density = 20.681436 Si / 1000 Ang^3
#
#
#
# Elastic Constant Matrix: (Units=GPa)
#
#
# Indices 1 2 3 4 5 6 
#
# 1 55.2113 36.1142 49.1675 0.0000 0.0000 0.0000
# 2 36.1142 55.2113 49.1675 0.0000 0.0000 0.0000
# 3 49.1675 49.1675 203.2189 0.0000 0.0000 0.0000
# 4 0.0000 0.0000 0.0000 18.2701 0.0000 0.0000
# 5 0.0000 0.0000 0.0000 0.0000 18.2701 0.0000
# 6 0.0000 0.0000 0.0000 0.0000 0.0000 9.3852
#
#
#
# Elastic Compliance Matrix: (Units=1/GPa)
#
#
# Indices 1 2 3 4 5 6 
#
# 1 0.033586 -0.018778 -0.003583 0.000000 0.000000 0.000000
# 2 -0.018778 0.033586 -0.003583 0.000000 0.000000 0.000000
# 3 -0.003583 -0.003583 0.006654 0.000000 0.000000 0.000000
# 4 0.000000 0.000000 0.000000 0.054734 0.000000 0.000000
# 5 0.000000 0.000000 0.000000 0.000000 0.054734 0.000000
# 6 0.000000 0.000000 0.000000 0.000000 0.000000 0.106551
#
#
# Mechanical properties :
#
#
# Convention : Reuss Voigt Hill
#
# Bulk Modulus (GPa) = 45.58116 64.72666 55.15391
# Shear Modulus (GPa) = 14.32478 21.13121 17.72800
#
# Velocity S-wave (km/s) = 2.63466 3.19995 2.93096
# Velocity P-wave (km/s) = 5.59846 6.70953 6.17902
#
# Compressibility (1/GPa) = 0.02193889
#
# Stress axis : x y z
#
# Youngs Moduli (GPa) = 29.77451 29.77451 150.27764
#
# Poissons Ratio (x) = 0.55912 0.53838
# Poissons Ratio (y) = 0.55912 0.53838
# Poissons Ratio (z) = 0.10667 0.10667
#
# Static dielectric constant tensor:
#      x y z
#    x 3.501120 0.000000 0.000000 
#    y 0.000000 3.501120 0.000000 
#    z 0.000000 0.000000 4.151610 
# 
# 
# High freq. dielectric constant tensor:
#      x y z
#    x 1.770440 0.000000 0.000000 
#    y 0.000000 1.770440 0.000000 
#    z 0.000000 0.000000 1.830010 
# 
# From -- ./inp_files/12753.got.cif
#   From: 2010.03.12/outbox.cif.g09.slc.cpg/sg141_7_cif.got.tgz:12753.got - 2010.04.03 13:18:35.
