data_PCOD8320242
_publ_section_title
;
Structure prediction by ZEFSAII (Michael W. Deem and Ramdas Pophale) SiO2 
 PCOD8320242
Probable space group: I 4/M C M
;
_chemical_formula_sum "Si O2"
_cell_formula_units_Z 224
_cell_length_a 22.889393
_cell_length_b 22.889393
_cell_length_c 22.925179
_cell_angle_alpha 90.000000
_cell_angle_beta 90.000000
_cell_angle_gamma 90.000000
_cell_volume 12011.058633
_symmetry_space_group_name_H-M "I 4/M C M"
_symmetry_group_IT_number 140
_symmetry_cell_setting 'tetragonal'
loop_
_space_group_symop_operation_xyz
x,y,z
-y,x,z
-x,-y,z
y,-x,z
x,-y,1/2-z
-x,y,1/2-z
y,x,1/2-z
-y,-x,1/2-z
-x,-y,-z
y,-x,-z
x,y,-z
-y,x,-z
-x,y,1/2+z
x,-y,1/2+z
-y,-x,1/2+z
y,x,1/2+z
1/2+x,1/2+y,1/2+z
1/2-y,1/2+x,1/2+z
1/2-x,1/2-y,1/2+z
1/2+y,1/2-x,1/2+z
1/2+x,1/2-y,-z
1/2-x,1/2+y,-z
1/2+y,1/2+x,-z
1/2-y,1/2-x,-z
1/2-x,1/2-y,1/2-z
1/2+y,1/2-x,1/2-z
1/2+x,1/2+y,1/2-z
1/2-y,1/2+x,1/2-z
1/2-x,1/2+y,z
1/2+x,1/2-y,z
1/2-y,1/2-x,z
1/2+y,1/2+x,z
loop_
_atom_site_type_symbol
_atom_site_label
_atom_site_fract_x
_atom_site_fract_y
_atom_site_fract_z
Si Si1 0.126100 0.532865 0.667431
Si Si2 0.581431 0.170246 0.718795
Si Si3 0.049020 0.917549 0.434120
Si Si4 0.197977 0.932808 0.736504
Si Si5 0.373353 0.645850 0.844736
Si Si6 0.915511 0.682396 0.063044
Si Si7 0.774643 0.821572 0.432989
O O1 0.059946 0.559946 0.661121
O O2 0.127923 0.465572 0.686580
O O3 0.162229 0.572404 0.712395
O O4 0.163423 0.535021 0.608142
O O5 0.645437 0.145437 0.700930
O O6 0.575474 0.238599 0.706318
O O7 0.062520 0.895457 0.500000
O O8 0.073797 0.872776 0.386782
O O9 0.980070 0.921163 0.424487
O O10 0.151965 0.910569 0.688603
O O11 0.192269 0.896275 0.796594
O O12 0.184842 0.000000 0.750000
O O13 0.322089 0.673331 0.885485
O O14 0.864733 0.635268 0.062800
O O15 0.884396 0.743717 0.076746
O O16 0.946500 0.685407 0.000000
O O17 0.797061 0.816159 0.500000
O O18 0.732222 0.767779 0.418353
#
# Coordination Sequence:
#
# PCOD8320242 Si02
#       7
#    32  32  32  32  32  32  32
#     4   9  16  29  52  77 102 134 169 214 265 313
#     4  10  20  34  52  74 104 140 177 221 266 309
#     4   9  18  35  58  82 107 133 167 216 270 320
#     4  11  23  38  51  75 110 141 177 222 268 316
#     4  11  22  34  56  78 104 142 180 218 259 324
#     4   8  14  26  47  76 107 136 168 209 259 307
#     4   9  18  32  51  79 111 139 174 221 264 307
#
# _framework density 18.649480000000001
#
# number of rings (size 3 to 8) (size 9 to 14) (size 15 to 20)
#    0.000    2.429    1.429    3.429    0.000    2.571 
#    0.000    2.857    0.000    4.714    0.000    2.000 
#    0.000    0.000    0.000    0.000    0.000    0.000 
#
# Total GULP energy -1387977.694538 kJ/mol
# GULP energy per Si atom -12392.657987 kJ/mol
# Density = 1.860703 g / cm^3
# Si number density = 18.649480 Si / 1000 Ang^3
#
#
#
# Elastic Constant Matrix: (Units=GPa)
#
#
# Indices 1 2 3 4 5 6 
#
# 1 62.1046 31.4142 31.0630 0.0000 0.0000 0.0000
# 2 31.4142 62.1046 31.0630 0.0000 0.0000 0.0000
# 3 31.0630 31.0630 101.8997 0.0000 0.0000 0.0000
# 4 0.0000 0.0000 0.0000 21.3499 0.0000 0.0000
# 5 0.0000 0.0000 0.0000 0.0000 21.3499 0.0000
# 6 0.0000 0.0000 0.0000 0.0000 0.0000 25.6890
#
#
#
# Elastic Compliance Matrix: (Units=1/GPa)
#
#
# Indices 1 2 3 4 5 6 
#
# 1 0.022996 -0.009588 -0.004087 0.000000 0.000000 0.000000
# 2 -0.009588 0.022996 -0.004087 0.000000 0.000000 0.000000
# 3 -0.004087 -0.004087 0.012306 0.000000 0.000000 0.000000
# 4 0.000000 0.000000 0.000000 0.046839 0.000000 0.000000
# 5 0.000000 0.000000 0.000000 0.000000 0.046839 0.000000
# 6 0.000000 0.000000 0.000000 0.000000 0.000000 0.038927
#
#
# Mechanical properties :
#
#
# Convention : Reuss Voigt Hill
#
# Bulk Modulus (GPa) = 43.91223 45.90994 44.91108
# Shear Modulus (GPa) = 21.36595 22.51569 21.94082
#
# Velocity S-wave (km/s) = 3.38843 3.47841 3.43371
# Velocity P-wave (km/s) = 6.23745 6.38773 6.31304
#
# Compressibility (1/GPa) = 0.02277270
#
# Stress axis : x y z
#
# Youngs Moduli (GPa) = 43.48601 43.48601 81.26407
#
# Poissons Ratio (x) = 0.41692 0.33216
# Poissons Ratio (y) = 0.41692 0.33216
# Poissons Ratio (z) = 0.17774 0.17774
#
# Static dielectric constant tensor:
#      x y z
#    x 3.238480 0.000000 0.000000 
#    y 0.000000 3.238480 0.000000 
#    z 0.000000 0.000000 4.093450 
# 
# 
# High freq. dielectric constant tensor:
#      x y z
#    x 1.704000 0.000000 0.000000 
#    y 0.000000 1.704000 0.000000 
#    z 0.000000 0.000000 1.728240 
# 
# From -- ./inp_files/9969.got.cif
#   From: 2010.06.25/outbox.cif.g09.slc.cpg/sg140_5_cif.got.tgz:9969.got - 2010.06.28 10:53:23.
