data_PCOD8320314
_publ_section_title
;
Structure prediction by ZEFSAII (Michael W. Deem and Ramdas Pophale) SiO2 
 PCOD8320314
Probable space group: I 4/M C M
;
_chemical_formula_sum "Si O2"
_cell_formula_units_Z 176
_cell_length_a 24.575801
_cell_length_b 24.575801
_cell_length_c 15.017525
_cell_angle_alpha 90.000000
_cell_angle_beta 90.000000
_cell_angle_gamma 90.000000
_cell_volume 9070.134496
_symmetry_space_group_name_H-M "I 4/M C M"
_symmetry_group_IT_number 140
_symmetry_cell_setting 'tetragonal'
loop_
_space_group_symop_operation_xyz
x,y,z
-y,x,z
-x,-y,z
y,-x,z
x,-y,1/2-z
-x,y,1/2-z
y,x,1/2-z
-y,-x,1/2-z
-x,-y,-z
y,-x,-z
x,y,-z
-y,x,-z
-x,y,1/2+z
x,-y,1/2+z
-y,-x,1/2+z
y,x,1/2+z
1/2+x,1/2+y,1/2+z
1/2-y,1/2+x,1/2+z
1/2-x,1/2-y,1/2+z
1/2+y,1/2-x,1/2+z
1/2+x,1/2-y,-z
1/2-x,1/2+y,-z
1/2+y,1/2+x,-z
1/2-y,1/2-x,-z
1/2-x,1/2-y,1/2-z
1/2+y,1/2-x,1/2-z
1/2+x,1/2+y,1/2-z
1/2-y,1/2+x,1/2-z
1/2-x,1/2+y,z
1/2+x,1/2-y,z
1/2-y,1/2-x,z
1/2+y,1/2+x,z
loop_
_atom_site_type_symbol
_atom_site_label
_atom_site_fract_x
_atom_site_fract_y
_atom_site_fract_z
Si Si1 0.707791 0.292215 0.894907
Si Si2 0.585132 0.726903 0.103483
Si Si3 0.319007 0.000006 0.398073
Si Si4 0.500000 0.909356 0.750000
Si Si5 0.646030 0.556920 0.249999
Si Si6 0.585140 0.273100 0.896516
O O1 0.750004 0.250004 0.851354
O O2 0.726768 0.352146 0.863857
O O3 0.647861 0.273242 0.863847
O O4 0.710608 0.289390 0.000000
O O5 0.554952 0.784272 0.121164
O O6 0.555435 0.681738 0.161060
O O7 0.580081 0.710611 0.000000
O O8 0.338832 0.000006 0.500000
O O9 0.284271 0.054964 0.378837
O O10 0.372171 0.000007 0.337599
O O11 0.446140 0.946140 0.749988
O O12 0.612964 0.500000 0.250000
O O13 0.607539 0.607539 0.250000
O O14 0.681736 0.555436 0.161055
O O15 0.580093 0.289391 0.000000
#
# Coordination Sequence:
#
# PCOD8320314 Si02
#       6
#    32  32  32  16  32  32
#     4   9  18  33  55  87 124 154 184 230 296 367
#     4  10  20  37  61  88 119 157 197 243 299 357
#     4  10  21  39  67  94 118 158 213 263 308 362
#     4  11  26  46  64  86 124 166 203 256 316 372
#     4  12  23  36  58  84 117 157 206 249 290 345
#     4  10  20  37  61  88 119 157 197 243 299 357
#
# _framework density 19.404342
#
# number of rings (size 3 to 8) (size 9 to 14) (size 15 to 20)
#    0.000    1.727    3.636    1.091    0.000    2.364 
#    0.000    6.364    0.000    0.000    0.000    2.545 
#    0.000    0.000    0.000    0.000    0.000    0.000 
#
# Total GULP energy -1090724.663048 kJ/mol
# GULP energy per Si atom -12394.598444 kJ/mol
# Density = 1.936018 g / cm^3
# Si number density = 19.404342 Si / 1000 Ang^3
#
#
#
# Elastic Constant Matrix: (Units=GPa)
#
#
# Indices 1 2 3 4 5 6 
#
# 1 145.1307 69.0569 51.2586 0.0000 0.0000 0.0000
# 2 69.0569 145.1307 51.2586 0.0000 0.0000 0.0000
# 3 51.2586 51.2586 99.6205 0.0000 0.0000 0.0000
# 4 0.0000 0.0000 0.0000 24.0724 0.0000 0.0000
# 5 0.0000 0.0000 0.0000 0.0000 24.0724 0.0000
# 6 0.0000 0.0000 0.0000 0.0000 0.0000 27.8173
#
#
#
# Elastic Compliance Matrix: (Units=1/GPa)
#
#
# Indices 1 2 3 4 5 6 
#
# 1 0.009670 -0.003475 -0.003187 0.000000 0.000000 0.000000
# 2 -0.003475 0.009670 -0.003187 0.000000 0.000000 0.000000
# 3 -0.003187 -0.003187 0.013318 0.000000 0.000000 0.000000
# 4 0.000000 0.000000 0.000000 0.041541 0.000000 0.000000
# 5 0.000000 0.000000 0.000000 0.000000 0.041541 0.000000
# 6 0.000000 0.000000 0.000000 0.000000 0.000000 0.035949
#
#
# Mechanical properties :
#
#
# Convention : Reuss Voigt Hill
#
# Bulk Modulus (GPa) = 77.17385 81.44777 79.31081
# Shear Modulus (GPa) = 28.45635 29.74630 29.10132
#
# Velocity S-wave (km/s) = 3.83364 3.91957 3.87684
# Velocity P-wave (km/s) = 7.71061 7.90880 7.81033
#
# Compressibility (1/GPa) = 0.01295776
#
# Stress axis : x y z
#
# Youngs Moduli (GPa) = 103.41562 103.41562 75.08650
#
# Poissons Ratio (x) = 0.35941 0.23932
# Poissons Ratio (y) = 0.35941 0.23932
# Poissons Ratio (z) = 0.32961 0.32961
#
# Static dielectric constant tensor:
#      x y z
#    x 3.686170 0.000000 0.000000 
#    y 0.000000 3.686170 0.000000 
#    z 0.000000 0.000000 3.393720 
# 
# 
# High freq. dielectric constant tensor:
#      x y z
#    x 1.751720 0.000000 0.000000 
#    y 0.000000 1.751720 0.000000 
#    z 0.000000 0.000000 1.764000 
# 
# From -- ./inp_files/4886.got.cif
#   From: 2010.06.25/outbox.cif.g09.slc.cpg/sg140_3_cif.got.tgz:4886.got - 2010.06.28 10:53:23.
