data_PCOD8320643
_publ_section_title
;
Structure prediction by ZEFSAII (Michael W. Deem and Ramdas Pophale) SiO2 
 PCOD8320643
Probable space group: I 41/A M D
;
_chemical_formula_sum "Si O2"
_cell_formula_units_Z 160
_cell_length_a 26.111427
_cell_length_b 26.111427
_cell_length_c 12.124376
_cell_angle_alpha 90.000000
_cell_angle_beta 90.000000
_cell_angle_gamma 90.000000
_cell_volume 8266.479820
_symmetry_space_group_name_H-M "I 41/A M D"
_symmetry_group_IT_number 141
_space_group.IT_coordinate_system_code '2'
_symmetry_cell_setting 'tetragonal'
loop_
_space_group_symop_operation_xyz
x,y,z
1/4-y,3/4+x,1/4+z
-x,1/2-y,z
1/4+y,1/4-x,3/4+z
x,-y,-z
-x,1/2+y,-z
1/4+y,3/4+x,1/4-z
1/4-y,1/4-x,3/4-z
-x,-y,-z
3/4+y,1/4-x,3/4-z
x,1/2+y,-z
3/4-y,3/4+x,1/4-z
-x,y,z
x,1/2-y,z
3/4-y,1/4-x,3/4+z
3/4+y,3/4+x,1/4+z
1/2+x,1/2+y,1/2+z
3/4-y,1/4+x,3/4+z
1/2-x,-y,1/2+z
3/4+y,3/4-x,1/4+z
1/2+x,1/2-y,1/2-z
1/2-x,y,1/2-z
3/4+y,1/4+x,3/4-z
3/4-y,3/4-x,1/4-z
1/2-x,1/2-y,1/2-z
1/4+y,3/4-x,1/4-z
1/2+x,y,1/2-z
1/4-y,1/4+x,3/4-z
1/2-x,1/2+y,1/2+z
1/2+x,-y,1/2+z
1/4-y,3/4-x,1/4+z
1/4+y,1/4+x,3/4+z
loop_
_atom_site_type_symbol
_atom_site_label
_atom_site_fract_x
_atom_site_fract_y
_atom_site_fract_z
Si Si1 0.809015 0.863933 0.745962
Si Si2 0.312016 0.648120 0.999515
Si Si3 0.443558 0.886814 0.190202
Si Si4 0.442434 0.393300 0.449635
Si Si5 0.720546 0.806697 0.381698
O O1 0.750000 0.879571 0.750000
O O2 0.840022 0.917109 0.758723
O O3 0.815958 0.835420 0.628028
O O4 0.827314 0.824960 0.839610
O O5 0.348065 0.686478 0.068560
O O6 0.255605 0.651687 0.054751
O O7 0.500000 0.864723 0.158943
O O8 0.404938 0.842520 0.227996
O O9 0.448977 0.919315 0.299462
O O10 0.500000 0.378658 0.481410
O O11 0.426504 0.448098 0.510034
O O12 0.747571 0.750000 0.375123
#
# Coordination Sequence:
#
# PCOD8320643 Si02
#       5
#    32  32  32  32  32
#     4  10  20  37  57  80 111 142 182 232 278 329
#     4  10  20  34  59  80 108 143 181 231 278 329
#     4  10  21  35  56  83 110 145 187 229 275 330
#     4  10  21  36  55  81 114 147 183 229 279 330
#     4  10  19  34  57  82 108 142 185 227 271 325
#
# _framework density 19.355276
#
# number of rings (size 3 to 8) (size 9 to 14) (size 15 to 20)
#    0.000    2.000    2.000    1.800    0.000    4.000 
#    0.000    0.000    8.800    3.600    0.000    5.600 
#    0.000    0.000    0.000    0.000    0.000    0.000 
#
# Total GULP energy -991236.515063 kJ/mol
# GULP energy per Si atom -12390.456438 kJ/mol
# Density = 1.931122 g / cm^3
# Si number density = 19.355276 Si / 1000 Ang^3
#
#
#
# Elastic Constant Matrix: (Units=GPa)
#
#
# Indices 1 2 3 4 5 6 
#
# 1 82.0332 36.3042 7.3258 0.0000 0.0000 0.0000
# 2 36.3042 82.0332 7.3258 0.0000 0.0000 0.0000
# 3 7.3258 7.3258 88.8641 0.0000 0.0000 0.0000
# 4 0.0000 0.0000 0.0000 23.9221 0.0000 0.0000
# 5 0.0000 0.0000 0.0000 0.0000 23.9221 0.0000
# 6 0.0000 0.0000 0.0000 0.0000 0.0000 28.0604
#
#
#
# Elastic Compliance Matrix: (Units=1/GPa)
#
#
# Indices 1 2 3 4 5 6 
#
# 1 0.015203 -0.006665 -0.000704 0.000000 0.000000 0.000000
# 2 -0.006665 0.015203 -0.000704 0.000000 0.000000 0.000000
# 3 -0.000704 -0.000704 0.011369 0.000000 0.000000 0.000000
# 4 0.000000 0.000000 0.000000 0.041802 0.000000 0.000000
# 5 0.000000 0.000000 0.000000 0.000000 0.041802 0.000000
# 6 0.000000 0.000000 0.000000 0.000000 0.000000 0.035637
#
#
# Mechanical properties :
#
#
# Convention : Reuss Voigt Hill
#
# Bulk Modulus (GPa) = 39.01826 39.42688 39.22257
# Shear Modulus (GPa) = 26.92437 28.64592 27.78514
#
# Velocity S-wave (km/s) = 3.73374 3.85126 3.79295
# Velocity P-wave (km/s) = 6.22820 6.33960 6.28415
#
# Compressibility (1/GPa) = 0.02562902
#
# Stress axis : x y z
#
# Youngs Moduli (GPa) = 65.77750 65.77750 87.95707
#
# Poissons Ratio (x) = 0.43842 0.06191
# Poissons Ratio (y) = 0.43842 0.06191
# Poissons Ratio (z) = 0.04630 0.04630
#
# Static dielectric constant tensor:
#      x y z
#    x 3.544210 0.000000 0.000000 
#    y 0.000000 3.544210 0.000000 
#    z 0.000000 0.000000 3.900990 
# 
# 
# High freq. dielectric constant tensor:
#      x y z
#    x 1.738160 0.000000 0.000000 
#    y 0.000000 1.738160 0.000000 
#    z 0.000000 0.000000 1.781110 
# 
# From -- ./inp_files/4845.got.cif
#   From: 2010.03.12/outbox.cif.g09.slc.cpg/sg141_3_cif.got.tgz:4845.got - 2010.04.03 13:18:35.
