data_PCOD8320226
_publ_section_title
;
Structure prediction by ZEFSAII (Michael W. Deem and Ramdas Pophale) SiO2 
 PCOD8320226
Probable space group: I 4/M C M
;
_chemical_formula_sum "Si O2"
_cell_formula_units_Z 192
_cell_length_a 20.120830
_cell_length_b 20.120830
_cell_length_c 25.687279
_cell_angle_alpha 90.000000
_cell_angle_beta 90.000000
_cell_angle_gamma 90.000000
_cell_volume 10399.438388
_symmetry_space_group_name_H-M "I 4/M C M"
_symmetry_group_IT_number 140
_symmetry_cell_setting 'tetragonal'
loop_
_space_group_symop_operation_xyz
x,y,z
-y,x,z
-x,-y,z
y,-x,z
x,-y,1/2-z
-x,y,1/2-z
y,x,1/2-z
-y,-x,1/2-z
-x,-y,-z
y,-x,-z
x,y,-z
-y,x,-z
-x,y,1/2+z
x,-y,1/2+z
-y,-x,1/2+z
y,x,1/2+z
1/2+x,1/2+y,1/2+z
1/2-y,1/2+x,1/2+z
1/2-x,1/2-y,1/2+z
1/2+y,1/2-x,1/2+z
1/2+x,1/2-y,-z
1/2-x,1/2+y,-z
1/2+y,1/2+x,-z
1/2-y,1/2-x,-z
1/2-x,1/2-y,1/2-z
1/2+y,1/2-x,1/2-z
1/2+x,1/2+y,1/2-z
1/2-y,1/2+x,1/2-z
1/2-x,1/2+y,z
1/2+x,1/2-y,z
1/2-y,1/2-x,z
1/2+y,1/2+x,z
loop_
_atom_site_type_symbol
_atom_site_label
_atom_site_fract_x
_atom_site_fract_y
_atom_site_fract_z
Si Si1 0.175831 0.433503 0.783881
Si Si2 0.072314 0.320263 0.903174
Si Si3 0.688114 0.421523 0.760519
Si Si4 0.141345 0.248589 0.362809
Si Si5 0.668001 0.720212 0.558572
Si Si6 0.332315 0.064562 0.056346
O O1 0.165515 0.500000 0.750000
O O2 0.120763 0.379237 0.767052
O O3 0.170548 0.452010 0.844071
O O4 0.249560 0.402482 0.776334
O O5 0.131492 0.368509 0.917042
O O6 0.098839 0.247031 0.917456
O O7 0.013877 0.338966 0.941814
O O8 0.671116 0.500000 0.750000
O O9 0.622682 0.377319 0.750000
O O10 0.715106 0.402378 0.817587
O O11 0.203121 0.296880 0.344183
O O12 0.164313 0.189968 0.400818
O O13 0.089059 0.289613 0.395743
O O14 0.656257 0.692042 0.500000
O O15 0.724688 0.775313 0.556445
O O16 0.406001 0.094000 0.061157
O O17 0.301161 0.085272 0.000000
#
# Coordination Sequence:
#
# PCOD8320226 Si02
#       6
#    32  32  32  32  32  32
#     4  10  21  36  54  79 112 149 189 229 270 320
#     4  10  20  33  50  73 102 138 179 220 261 307
#     4  11  23  38  57  80 106 138 178 223 272 326
#     4  10  20  34  54  79 105 133 168 213 265 320
#     4   9  17  31  52  77 104 133 169 215 266 317
#     4  10  20  33  49  71 103 141 176 211 255 307
#
# _framework density 18.462534999999999
#
# number of rings (size 3 to 8) (size 9 to 14) (size 15 to 20)
#    0.000    2.000    0.000    4.500    0.000    8.333 
#    0.000    2.500    0.000    0.000    0.000    0.000 
#    0.000    0.000    0.000   18.333    0.000    1.000 
#
# Total GULP energy -1189399.090695 kJ/mol
# GULP energy per Si atom -12389.573861 kJ/mol
# Density = 1.842051 g / cm^3
# Si number density = 18.462535 Si / 1000 Ang^3
#
#
#
# Elastic Constant Matrix: (Units=GPa)
#
#
# Indices 1 2 3 4 5 6 
#
# 1 89.4494 52.7884 46.1080 0.0000 0.0000 0.0000
# 2 52.7884 89.4480 46.1073 0.0000 0.0000 0.0000
# 3 46.1080 46.1073 89.4464 0.0000 0.0000 0.0000
# 4 0.0000 0.0000 0.0000 -47.6611 0.0000 0.0000
# 5 0.0000 0.0000 0.0000 0.0000 -47.6699 0.0000
# 6 0.0000 0.0000 0.0000 0.0000 0.0000 17.7581
#
#
#
# Elastic Compliance Matrix: (Units=1/GPa)
#
#
# Indices 1 2 3 4 5 6 
#
# 1 0.018918 -0.008359 -0.005443 0.000000 0.000000 0.000000
# 2 -0.008359 0.018919 -0.005443 0.000000 0.000000 0.000000
# 3 -0.005443 -0.005443 0.016792 0.000000 0.000000 0.000000
# 4 0.000000 0.000000 0.000000 -0.020981 0.000000 0.000000
# 5 0.000000 0.000000 0.000000 0.000000 -0.020978 0.000000
# 6 0.000000 0.000000 0.000000 0.000000 0.000000 0.056312
#
#
# Mechanical properties :
#
#
# Convention : Reuss Voigt Hill
#
# Bulk Modulus (GPa) = 61.96643 62.03903 62.00273
# Shear Modulus (GPa) = 44.30594 -7.29191 18.50701
#
# Velocity S-wave (km/s) = 4.90406 -1.98951 3.16952
# Velocity P-wave (km/s) = 8.10572 5.32898 6.85933
#
# Compressibility (1/GPa) = 0.01613777
#
# Stress axis : x y z
#
# Youngs Moduli (GPa) = 52.85873 52.85819 59.55388
#
# Poissons Ratio (x) = 0.44184 0.32416
# Poissons Ratio (y) = 0.44185 0.32416
# Poissons Ratio (z) = 0.28772 0.28771
#
# Static dielectric constant tensor:
#      x y z
#    x 3.366030 0.000000 0.000000 
#    y 0.000000 3.366030 0.000000 
#    z 0.000000 0.000000 7.687290 
# 
# 
# High freq. dielectric constant tensor:
#      x y z
#    x 1.700190 0.000000 0.000000 
#    y 0.000000 1.700190 0.000000 
#    z 0.000000 0.000000 1.735560 
# 
# From -- ./inp_files/9759.got.cif
#   From: 2010.06.25/outbox.cif.g09.slc.cpg/sg140_5_cif.got.tgz:9759.got - 2010.06.28 10:53:23.
