data_PCOD8320477
_publ_section_title
;
Structure prediction by ZEFSAII (Michael W. Deem and Ramdas Pophale) SiO2 
 PCOD8320477
Probable space group: I 4/M C M
;
_chemical_formula_sum "Si O2"
_cell_formula_units_Z 96
_cell_length_a 18.552926
_cell_length_b 18.552926
_cell_length_c 15.449815
_cell_angle_alpha 90.000000
_cell_angle_beta 90.000000
_cell_angle_gamma 90.000000
_cell_volume 5317.997247
_symmetry_space_group_name_H-M "I 4/M C M"
_symmetry_group_IT_number 140
_symmetry_cell_setting 'tetragonal'
loop_
_space_group_symop_operation_xyz
x,y,z
-y,x,z
-x,-y,z
y,-x,z
x,-y,1/2-z
-x,y,1/2-z
y,x,1/2-z
-y,-x,1/2-z
-x,-y,-z
y,-x,-z
x,y,-z
-y,x,-z
-x,y,1/2+z
x,-y,1/2+z
-y,-x,1/2+z
y,x,1/2+z
1/2+x,1/2+y,1/2+z
1/2-y,1/2+x,1/2+z
1/2-x,1/2-y,1/2+z
1/2+y,1/2-x,1/2+z
1/2+x,1/2-y,-z
1/2-x,1/2+y,-z
1/2+y,1/2+x,-z
1/2-y,1/2-x,-z
1/2-x,1/2-y,1/2-z
1/2+y,1/2-x,1/2-z
1/2+x,1/2+y,1/2-z
1/2-y,1/2+x,1/2-z
1/2-x,1/2+y,z
1/2+x,1/2-y,z
1/2-y,1/2-x,z
1/2+y,1/2+x,z
loop_
_atom_site_type_symbol
_atom_site_label
_atom_site_fract_x
_atom_site_fract_y
_atom_site_fract_z
Si Si1 0.415495 0.915495 0.750000
Si Si2 0.664133 0.835868 0.096416
Si Si3 0.583656 0.416345 0.250000
Si Si4 0.180410 0.180411 0.845935
Si Si5 0.335869 0.835869 0.096416
O O1 0.500000 0.898834 0.750000
O O2 0.381603 0.881603 0.664088
O O3 0.381604 0.881604 0.835911
O O4 0.749600 0.851203 0.106082
O O5 0.640498 0.859503 0.000000
O O6 0.601052 0.500000 0.250000
O O7 0.618806 0.381198 0.336851
O O8 0.205083 0.205083 0.750000
O O9 0.148797 0.250402 0.893918
O O10 0.359504 0.859504 0.000000
#
# Coordination Sequence:
#
# PCOD8320477 Si02
#       5
#    16  16  16  32  16
#     4  11  24  41  56  76 112 149 184 229 278 332
#     4  11  20  36  60  85 110 139 182 230 279 329
#     4   9  18  31  52  80 110 149 188 217 260 322
#     4   9  17  32  57  84 110 145 177 223 275 322
#     4  11  20  36  60  85 110 139 182 230 279 329
#
# _framework density 18.051908000000001
#
# number of rings (size 3 to 8) (size 9 to 14) (size 15 to 20)
#    1.000    1.000    3.333    3.000    0.000    6.667 
#    0.000    1.667    0.000    6.000    0.000    9.333 
#    0.000    0.000    0.000    0.000    0.000    0.000 
#
# Total GULP energy -594806.702668 kJ/mol
# GULP energy per Si atom -12391.806306 kJ/mol
# Density = 1.801082 g / cm^3
# Si number density = 18.051908 Si / 1000 Ang^3
#
#
#
# Elastic Constant Matrix: (Units=GPa)
#
#
# Indices 1 2 3 4 5 6 
#
# 1 116.1152 98.2550 48.7120 0.0000 0.0000 0.0000
# 2 98.2550 116.1187 48.7123 0.0000 0.0000 0.0000
# 3 48.7120 48.7123 149.6426 0.0000 0.0000 0.0000
# 4 0.0000 0.0000 0.0000 8.5585 0.0000 0.0000
# 5 0.0000 0.0000 0.0000 0.0000 8.5587 0.0000
# 6 0.0000 0.0000 0.0000 0.0000 0.0000 37.2633
#
#
#
# Elastic Compliance Matrix: (Units=1/GPa)
#
#
# Indices 1 2 3 4 5 6 
#
# 1 0.030730 -0.025255 -0.001782 0.000000 0.000000 0.000000
# 2 -0.025255 0.030729 -0.001782 0.000000 0.000000 0.000000
# 3 -0.001782 -0.001782 0.007843 0.000000 0.000000 0.000000
# 4 0.000000 0.000000 0.000000 0.116843 0.000000 0.000000
# 5 0.000000 0.000000 0.000000 0.000000 0.116841 0.000000
# 6 0.000000 0.000000 0.000000 0.000000 0.000000 0.026836
#
#
# Mechanical properties :
#
#
# Convention : Reuss Voigt Hill
#
# Bulk Modulus (GPa) = 85.73619 85.91502 85.82560
# Shear Modulus (GPa) = 12.77634 23.28925 18.03279
#
# Velocity S-wave (km/s) = 2.66325 3.59573 3.16403
# Velocity P-wave (km/s) = 7.55345 8.05827 7.80994
#
# Compressibility (1/GPa) = 0.01166369
#
# Stress axis : x y z
#
# Youngs Moduli (GPa) = 32.54120 32.54225 127.50465
#
# Poissons Ratio (x) = 0.82186 0.22724
# Poissons Ratio (y) = 0.82183 0.22722
# Poissons Ratio (z) = 0.05800 0.05799
#
# Static dielectric constant tensor:
#      x y z
#    x 3.216630 0.000000 0.000000 
#    y 0.000000 3.216580 0.000000 
#    z 0.000000 0.000000 3.211590 
# 
# 
# High freq. dielectric constant tensor:
#      x y z
#    x 1.691900 0.000000 0.000000 
#    y 0.000000 1.691890 0.000000 
#    z 0.000000 0.000000 1.688950 
# 
# From -- ./inp_files/4197.got.cif
#   From: 2010.06.25/outbox.cif.g09.slc.cpg/sg140_3_cif.got.tgz:4197.got - 2010.06.28 10:53:23.
