data_PCOD8320402
_publ_section_title
;
Structure prediction by ZEFSAII (Michael W. Deem and Ramdas Pophale) SiO2 
 PCOD8320402
Probable space group: I 4/M C M
;
_chemical_formula_sum "Si O2"
_cell_formula_units_Z 176
_cell_length_a 23.957994
_cell_length_b 23.957994
_cell_length_c 14.077839
_cell_angle_alpha 90.000000
_cell_angle_beta 90.000000
_cell_angle_gamma 90.000000
_cell_volume 8080.475127
_symmetry_space_group_name_H-M "I 4/M C M"
_symmetry_group_IT_number 140
_symmetry_cell_setting 'tetragonal'
loop_
_space_group_symop_operation_xyz
x,y,z
-y,x,z
-x,-y,z
y,-x,z
x,-y,1/2-z
-x,y,1/2-z
y,x,1/2-z
-y,-x,1/2-z
-x,-y,-z
y,-x,-z
x,y,-z
-y,x,-z
-x,y,1/2+z
x,-y,1/2+z
-y,-x,1/2+z
y,x,1/2+z
1/2+x,1/2+y,1/2+z
1/2-y,1/2+x,1/2+z
1/2-x,1/2-y,1/2+z
1/2+y,1/2-x,1/2+z
1/2+x,1/2-y,-z
1/2-x,1/2+y,-z
1/2+y,1/2+x,-z
1/2-y,1/2-x,-z
1/2-x,1/2-y,1/2-z
1/2+y,1/2-x,1/2-z
1/2+x,1/2+y,1/2-z
1/2-y,1/2+x,1/2-z
1/2-x,1/2+y,z
1/2+x,1/2-y,z
1/2-y,1/2-x,z
1/2+y,1/2+x,z
loop_
_atom_site_type_symbol
_atom_site_label
_atom_site_fract_x
_atom_site_fract_y
_atom_site_fract_z
Si Si1 0.843795 0.434621 0.392281
Si Si2 0.088877 0.500000 0.750000
Si Si3 0.259444 0.148379 0.108896
Si Si4 0.238883 0.064794 0.270048
Si Si5 0.571782 0.451593 0.888783
Si Si6 0.155071 0.132427 0.391016
O O1 0.840860 0.453496 0.500000
O O2 0.877101 0.377101 0.378560
O O3 0.873126 0.485754 0.339217
O O4 0.782344 0.426337 0.354258
O O5 0.051767 0.551767 0.783821
O O6 0.303522 0.196479 0.138911
O O7 0.264528 0.094051 0.175796
O O8 0.196844 0.172778 0.119910
O O9 0.269747 0.129575 0.000000
O O10 0.184971 0.095932 0.310790
O O11 0.226134 0.000000 0.250000
O O12 0.577531 0.514655 0.847417
O O13 0.624535 0.411297 0.866659
O O14 0.565921 0.458185 0.000000
O O15 0.167089 0.112219 0.500000
#
# Coordination Sequence:
#
# PCOD8320402 Si02
#       6
#    32  16  32  32  32  32
#     4  10  21  39  62  90 125 165 211 261 318 382
#     4   9  18  36  60  88 124 164 210 257 306 376
#     4  10  24  47  71  93 121 168 228 280 331 394
#     4  12  25  40  61  94 134 169 208 266 333 396
#     4   8  15  30  55  87 123 165 209 255 313 379
#     4  10  22  39  64  95 127 167 215 268 325 391
#
# _framework density 21.780897
#
# number of rings (size 3 to 8) (size 9 to 14) (size 15 to 20)
#    0.000    2.091    0.909    2.182    2.545    4.000 
#    0.000    3.636    0.000    0.000    0.000    0.000 
#    0.000    0.000    0.000    0.000    0.000    0.000 
#
# Total GULP energy -1090759.973108 kJ/mol
# GULP energy per Si atom -12394.999694 kJ/mol
# Density = 2.173132 g / cm^3
# Si number density = 21.780897 Si / 1000 Ang^3
#
#
#
# Elastic Constant Matrix: (Units=GPa)
#
#
# Indices 1 2 3 4 5 6 
#
# 1 90.0553 19.4308 12.6890 0.0000 0.0000 0.0000
# 2 19.4308 90.0553 12.6890 0.0000 0.0000 0.0000
# 3 12.6890 12.6890 67.5081 0.0000 0.0000 0.0000
# 4 0.0000 0.0000 0.0000 24.6398 0.0000 0.0000
# 5 0.0000 0.0000 0.0000 0.0000 24.6398 0.0000
# 6 0.0000 0.0000 0.0000 0.0000 0.0000 31.2220
#
#
#
# Elastic Compliance Matrix: (Units=1/GPa)
#
#
# Indices 1 2 3 4 5 6 
#
# 1 0.011855 -0.002305 -0.001795 0.000000 0.000000 0.000000
# 2 -0.002305 0.011855 -0.001795 0.000000 0.000000 0.000000
# 3 -0.001795 -0.001795 0.015488 0.000000 0.000000 0.000000
# 4 0.000000 0.000000 0.000000 0.040585 0.000000 0.000000
# 5 0.000000 0.000000 0.000000 0.000000 0.040585 0.000000
# 6 0.000000 0.000000 0.000000 0.000000 0.000000 0.032029
#
#
# Mechanical properties :
#
#
# Convention : Reuss Voigt Hill
#
# Bulk Modulus (GPa) = 36.48680 37.47073 36.97877
# Shear Modulus (GPa) = 28.84828 29.62097 29.23462
#
# Velocity S-wave (km/s) = 3.64328 3.69175 3.66760
# Velocity P-wave (km/s) = 5.87249 5.95087 5.91181
#
# Compressibility (1/GPa) = 0.02740717
#
# Stress axis : x y z
#
# Youngs Moduli (GPa) = 84.35601 84.35601 64.56690
#
# Poissons Ratio (x) = 0.19443 0.11590
# Poissons Ratio (y) = 0.19443 0.11590
# Poissons Ratio (z) = 0.15142 0.15142
#
# Static dielectric constant tensor:
#      x y z
#    x 3.950530 0.000000 0.000000 
#    y 0.000000 3.950530 0.000000 
#    z 0.000000 0.000000 3.708130 
# 
# 
# High freq. dielectric constant tensor:
#      x y z
#    x 1.850850 0.000000 0.000000 
#    y 0.000000 1.850850 0.000000 
#    z 0.000000 0.000000 1.866670 
# 
# From -- ./inp_files/4951.got.cif
#   From: 2010.06.25/outbox.cif.g09.slc.cpg/sg140_3_cif.got.tgz:4951.got - 2010.06.28 10:53:23.
