data_PCOD8320395
_publ_section_title
;
Structure prediction by ZEFSAII (Michael W. Deem and Ramdas Pophale) SiO2 
 PCOD8320395
Probable space group: I 4/M C M
;
_chemical_formula_sum "Si O2"
_cell_formula_units_Z 176
_cell_length_a 27.200209
_cell_length_b 27.200209
_cell_length_c 12.592725
_cell_angle_alpha 90.000000
_cell_angle_beta 90.000000
_cell_angle_gamma 90.000000
_cell_volume 9316.744839
_symmetry_space_group_name_H-M "I 4/M C M"
_symmetry_group_IT_number 140
_symmetry_cell_setting 'tetragonal'
loop_
_space_group_symop_operation_xyz
x,y,z
-y,x,z
-x,-y,z
y,-x,z
x,-y,1/2-z
-x,y,1/2-z
y,x,1/2-z
-y,-x,1/2-z
-x,-y,-z
y,-x,-z
x,y,-z
-y,x,-z
-x,y,1/2+z
x,-y,1/2+z
-y,-x,1/2+z
y,x,1/2+z
1/2+x,1/2+y,1/2+z
1/2-y,1/2+x,1/2+z
1/2-x,1/2-y,1/2+z
1/2+y,1/2-x,1/2+z
1/2+x,1/2-y,-z
1/2-x,1/2+y,-z
1/2+y,1/2+x,-z
1/2-y,1/2-x,-z
1/2-x,1/2-y,1/2-z
1/2+y,1/2-x,1/2-z
1/2+x,1/2+y,1/2-z
1/2-y,1/2+x,1/2-z
1/2-x,1/2+y,z
1/2+x,1/2-y,z
1/2-y,1/2-x,z
1/2+y,1/2+x,z
loop_
_atom_site_type_symbol
_atom_site_label
_atom_site_fract_x
_atom_site_fract_y
_atom_site_fract_z
Si Si1 0.736921 0.159392 0.500000
Si Si2 0.053838 0.635899 0.225284
Si Si3 0.075997 0.969649 0.500000
Si Si4 0.382814 0.199136 0.375582
Si Si5 0.446011 0.630483 0.704381
Si Si6 0.711538 0.367458 0.781301
Si Si7 0.579004 0.844805 0.000000
O O1 0.715468 0.215468 0.500000
O O2 0.767445 0.148788 0.394423
O O3 0.691447 0.123873 0.500000
O O4 0.090129 0.590129 0.221489
O O5 0.071047 0.673664 0.316764
O O6 0.049526 0.662959 0.110134
O O7 0.000000 0.615620 0.250000
O O8 0.113635 0.955073 0.412105
O O9 0.026957 0.937206 0.500000
O O10 0.395565 0.209416 0.500000
O O11 0.335151 0.164850 0.366697
O O12 0.371131 0.248920 0.312945
O O13 0.500000 0.636662 0.750000
O O14 0.413787 0.586214 0.750000
O O15 0.419220 0.683151 0.710145
O O16 0.674340 0.325661 0.750000
O O17 0.599560 0.900441 0.000000
#
# Coordination Sequence:
#
# PCOD8320395 Si02
#       7
#    16  32  16  32  32  32  16
#     4  11  21  41  67  85 117 161 206 252 299 368
#     4  10  21  38  62  90 123 161 203 253 307 363
#     4  11  21  36  68  94 112 154 212 253 287 361
#     4  10  22  42  64  87 120 161 206 252 302 371
#     4  11  23  42  61  86 125 162 199 248 307 364
#     4  11  25  41  61  92 126 156 200 259 316 364
#     4   9  18  37  62  86 115 159 206 251 290 350
#
# _framework density 18.890718
#
# number of rings (size 3 to 8) (size 9 to 14) (size 15 to 20)
#    0.000    1.545    3.636    1.091    2.545    2.545 
#    3.273    0.000    0.000    1.636    0.000    0.000 
#    0.000    0.000    0.000    0.000    0.000    0.000 
#
# Total GULP energy -1090365.274843 kJ/mol
# GULP energy per Si atom -12390.514487 kJ/mol
# Density = 1.884772 g / cm^3
# Si number density = 18.890718 Si / 1000 Ang^3
#
#
#
# Elastic Constant Matrix: (Units=GPa)
#
#
# Indices 1 2 3 4 5 6 
#
# 1 108.4288 45.3201 59.8961 0.0000 0.0000 0.0000
# 2 45.3201 108.4266 59.8967 0.0000 0.0000 0.0000
# 3 59.8961 59.8967 188.5626 0.0000 0.0000 0.0000
# 4 0.0000 0.0000 0.0000 26.8805 0.0000 0.0000
# 5 0.0000 0.0000 0.0000 0.0000 26.8845 0.0000
# 6 0.0000 0.0000 0.0000 0.0000 0.0000 9.7516
#
#
#
# Elastic Compliance Matrix: (Units=1/GPa)
#
#
# Indices 1 2 3 4 5 6 
#
# 1 0.012244 -0.003601 -0.002745 0.000000 0.000000 0.000000
# 2 -0.003601 0.012245 -0.002746 0.000000 0.000000 0.000000
# 3 -0.002745 -0.002746 0.007047 0.000000 0.000000 0.000000
# 4 0.000000 0.000000 0.000000 0.037202 0.000000 0.000000
# 5 0.000000 0.000000 0.000000 0.000000 0.037196 0.000000
# 6 0.000000 0.000000 0.000000 0.000000 0.000000 0.102547
#
#
# Mechanical properties :
#
#
# Convention : Reuss Voigt Hill
#
# Bulk Modulus (GPa) = 74.89485 81.73819 78.31652
# Shear Modulus (GPa) = 21.63405 28.72369 25.17887
#
# Velocity S-wave (km/s) = 3.38778 3.90361 3.65481
# Velocity P-wave (km/s) = 7.41857 7.98001 7.70440
#
# Compressibility (1/GPa) = 0.01335205
#
# Stress axis : x y z
#
# Youngs Moduli (GPa) = 81.66953 81.66719 141.89431
#
# Poissons Ratio (x) = 0.29411 0.38956
# Poissons Ratio (y) = 0.29412 0.38959
# Poissons Ratio (z) = 0.22422 0.22423
#
# Static dielectric constant tensor:
#      x y z
#    x 3.494120 0.000000 0.000000 
#    y 0.000000 3.494100 0.000000 
#    z 0.000000 0.000000 3.695730 
# 
# 
# High freq. dielectric constant tensor:
#      x y z
#    x 1.730850 0.000000 0.000000 
#    y 0.000000 1.730850 0.000000 
#    z 0.000000 0.000000 1.757900 
# 
# From -- ./inp_files/3283.got.cif
#   From: 2010.06.25/outbox.cif.g09.slc.cpg/sg140_2_cif.got.tgz:3283.got - 2010.06.28 10:53:23.
