data_PCOD8320162
_publ_section_title
;
Structure prediction by ZEFSAII (Michael W. Deem and Ramdas Pophale) SiO2 
 PCOD8320162
Probable space group: I 4/M C M
;
_chemical_formula_sum "Si O2"
_cell_formula_units_Z 240
_cell_length_a 21.040946
_cell_length_b 21.040946
_cell_length_c 29.121074
_cell_angle_alpha 90.000000
_cell_angle_beta 90.000000
_cell_angle_gamma 90.000000
_cell_volume 12892.522900
_symmetry_space_group_name_H-M "I 4/M C M"
_symmetry_group_IT_number 140
_symmetry_cell_setting 'tetragonal'
loop_
_space_group_symop_operation_xyz
x,y,z
-y,x,z
-x,-y,z
y,-x,z
x,-y,1/2-z
-x,y,1/2-z
y,x,1/2-z
-y,-x,1/2-z
-x,-y,-z
y,-x,-z
x,y,-z
-y,x,-z
-x,y,1/2+z
x,-y,1/2+z
-y,-x,1/2+z
y,x,1/2+z
1/2+x,1/2+y,1/2+z
1/2-y,1/2+x,1/2+z
1/2-x,1/2-y,1/2+z
1/2+y,1/2-x,1/2+z
1/2+x,1/2-y,-z
1/2-x,1/2+y,-z
1/2+y,1/2+x,-z
1/2-y,1/2-x,-z
1/2-x,1/2-y,1/2-z
1/2+y,1/2-x,1/2-z
1/2+x,1/2+y,1/2-z
1/2-y,1/2+x,1/2-z
1/2-x,1/2+y,z
1/2+x,1/2-y,z
1/2-y,1/2-x,z
1/2+y,1/2+x,z
loop_
_atom_site_type_symbol
_atom_site_label
_atom_site_fract_x
_atom_site_fract_y
_atom_site_fract_z
Si Si1 0.190979 0.208780 0.127286
Si Si2 0.712413 0.893556 0.132659
Si Si3 0.126271 0.793888 0.284399
Si Si4 0.069027 0.323631 0.732331
Si Si5 0.689718 0.019485 0.447101
Si Si6 0.951375 0.451375 0.945901
Si Si7 0.624658 0.229070 0.051595
Si Si8 0.053290 0.081460 0.197579
O O1 0.249406 0.250595 0.109977
O O2 0.218803 0.139572 0.139832
O O3 0.161236 0.239505 0.173126
O O4 0.140449 0.211893 0.085423
O O5 0.657121 0.842880 0.121476
O O6 0.693235 0.933066 0.178203
O O7 0.728066 0.937552 0.088759
O O8 0.178723 0.821278 0.250000
O O9 0.083846 0.741461 0.259378
O O10 0.086016 0.850398 0.308695
O O11 0.122088 0.377912 0.742163
O O12 0.000000 0.347783 0.750000
O O13 0.699563 0.042231 0.500000
O O14 0.617993 0.028703 0.429810
O O15 0.708998 0.947318 0.440868
O O16 0.000000 0.500000 0.922000
O O17 0.956595 0.456595 0.000000
O O18 0.667172 0.167172 0.062670
O O19 0.636260 0.253302 0.000000
O O20 0.060233 0.060233 0.250000
O O21 0.981728 0.087212 0.175959
#
# Coordination Sequence:
#
# PCOD8320162 Si02
#       8
#    32  32  32  32  32  16  32  32
#     4  10  21  36  55  80 110 142 183 235 287 343
#     4  10  21  38  55  80 113 144 188 242 287 339
#     4  11  21  34  59  84 113 148 192 238 292 338
#     4  11  26  43  61  82 115 160 206 250 291 347
#     4  10  19  33  54  81 113 146 185 232 284 345
#     4   9  16  28  50  80 110 141 178 228 284 330
#     4   9  19  36  55  78 110 147 185 231 285 343
#     4   8  16  30  49  78 114 142 171 221 285 349
#
# _framework density 18.615441000000001
#
# number of rings (size 3 to 8) (size 9 to 14) (size 15 to 20)
#    0.000    2.200    2.000    1.200    5.600    2.800 
#    0.000    2.000    0.000    0.000    0.000    0.000 
#    0.000    0.000    0.000    4.400    0.000    0.133 
#
# Total GULP energy -1486593.294071 kJ/mol
# GULP energy per Si atom -12388.277451 kJ/mol
# Density = 1.857307 g / cm^3
# Si number density = 18.615441 Si / 1000 Ang^3
#
#
#
# Elastic Constant Matrix: (Units=GPa)
#
#
# Indices 1 2 3 4 5 6 
#
# 1 76.9218 31.6023 40.3244 0.0000 0.0000 0.0000
# 2 31.6023 76.9228 40.3244 0.0000 0.0000 0.0000
# 3 40.3244 40.3244 109.4074 0.0000 0.0000 0.0000
# 4 0.0000 0.0000 0.0000 26.6577 0.0000 0.0000
# 5 0.0000 0.0000 0.0000 0.0000 26.6576 0.0000
# 6 0.0000 0.0000 0.0000 0.0000 0.0000 23.5042
#
#
#
# Elastic Compliance Matrix: (Units=1/GPa)
#
#
# Indices 1 2 3 4 5 6 
#
# 1 0.017378 -0.004687 -0.004677 0.000000 0.000000 0.000000
# 2 -0.004687 0.017378 -0.004677 0.000000 0.000000 0.000000
# 3 -0.004677 -0.004677 0.012588 0.000000 0.000000 0.000000
# 4 0.000000 0.000000 0.000000 0.037513 0.000000 0.000000
# 5 0.000000 0.000000 0.000000 0.000000 0.037513 0.000000
# 6 0.000000 0.000000 0.000000 0.000000 0.000000 0.042546
#
#
# Mechanical properties :
#
#
# Convention : Reuss Voigt Hill
#
# Bulk Modulus (GPa) = 51.92235 54.19491 53.05863
# Shear Modulus (GPa) = 25.07287 25.43062 25.25175
#
# Velocity S-wave (km/s) = 3.67398 3.70009 3.68706
# Velocity P-wave (km/s) = 6.77865 6.88697 6.83302
#
# Compressibility (1/GPa) = 0.01925953
#
# Stress axis : x y z
#
# Youngs Moduli (GPa) = 57.54409 57.54498 79.44081
#
# Poissons Ratio (x) = 0.26974 0.37157
# Poissons Ratio (y) = 0.26974 0.37157
# Poissons Ratio (z) = 0.26915 0.26915
#
# Static dielectric constant tensor:
#      x y z
#    x 3.519620 0.000000 0.000000 
#    y 0.000000 3.519630 0.000000 
#    z 0.000000 0.000000 3.294080 
# 
# 
# High freq. dielectric constant tensor:
#      x y z
#    x 1.714830 0.000000 0.000000 
#    y 0.000000 1.714830 0.000000 
#    z 0.000000 0.000000 1.705140 
# 
# From -- ./inp_files/11810.got.cif
#   From: 2010.06.25/outbox.cif.g09.slc.cpg/sg140_6_cif.got.tgz:11810.got - 2010.06.28 10:53:23.
