data_PCOD8320545
_publ_section_title
;
Structure prediction by ZEFSAII (Michael W. Deem and Ramdas Pophale) SiO2 
 PCOD8320545
Probable space group: I 41/A M D
;
_chemical_formula_sum "Si O2"
_cell_formula_units_Z 224
_cell_length_a 24.240728
_cell_length_b 24.240728
_cell_length_c 24.964494
_cell_angle_alpha 90.000000
_cell_angle_beta 90.000000
_cell_angle_gamma 90.000000
_cell_volume 14669.458566
_symmetry_space_group_name_H-M "I 41/A M D"
_symmetry_group_IT_number 141
_space_group.IT_coordinate_system_code '2'
_symmetry_cell_setting 'tetragonal'
loop_
_space_group_symop_operation_xyz
x,y,z
1/4-y,3/4+x,1/4+z
-x,1/2-y,z
1/4+y,1/4-x,3/4+z
x,-y,-z
-x,1/2+y,-z
1/4+y,3/4+x,1/4-z
1/4-y,1/4-x,3/4-z
-x,-y,-z
3/4+y,1/4-x,3/4-z
x,1/2+y,-z
3/4-y,3/4+x,1/4-z
-x,y,z
x,1/2-y,z
3/4-y,1/4-x,3/4+z
3/4+y,3/4+x,1/4+z
1/2+x,1/2+y,1/2+z
3/4-y,1/4+x,3/4+z
1/2-x,-y,1/2+z
3/4+y,3/4-x,1/4+z
1/2+x,1/2-y,1/2-z
1/2-x,y,1/2-z
3/4+y,1/4+x,3/4-z
3/4-y,3/4-x,1/4-z
1/2-x,1/2-y,1/2-z
1/4+y,3/4-x,1/4-z
1/2+x,y,1/2-z
1/4-y,1/4+x,3/4-z
1/2-x,1/2+y,1/2+z
1/2+x,-y,1/2+z
1/4-y,3/4-x,1/4+z
1/4+y,1/4+x,3/4+z
loop_
_atom_site_type_symbol
_atom_site_label
_atom_site_fract_x
_atom_site_fract_y
_atom_site_fract_z
Si Si1 0.063542 0.390149 0.716282
Si Si2 0.065140 0.987670 0.719072
Si Si3 0.141794 0.686582 0.092405
Si Si4 0.934786 0.874387 0.673382
Si Si5 0.934622 0.188337 0.220329
Si Si6 0.065341 0.625717 0.885461
Si Si7 0.934712 0.986327 0.837278
O O1 0.083041 0.451720 0.698214
O O2 0.071924 0.382950 0.779413
O O3 0.101496 0.345283 0.687716
O O4 0.000000 0.379756 0.700335
O O5 0.081836 0.939074 0.678000
O O6 0.090787 0.975859 0.778007
O O7 0.000000 0.987881 0.726303
O O8 0.132640 0.750000 0.108245
O O9 0.098420 0.651581 0.125000
O O10 0.203530 0.666753 0.108867
O O11 0.901389 0.848612 0.625000
O O12 0.914770 0.844653 0.727555
O O13 0.000000 0.866116 0.663615
O O14 0.909926 0.250000 0.222433
O O15 0.913564 0.158883 0.166583
O O16 0.000000 0.189744 0.219550
O O17 0.083529 0.561868 0.877917
O O18 0.000000 0.632138 0.893879
O O19 0.000000 0.985010 0.831002
#
# Coordination Sequence:
#
# PCOD8320545 Si02
#       7
#    32  32  32  32  32  32  32
#     4   9  18  30  46  67  90 118 150 183 218 266
#     4   8  14  28  45  60  82 118 161 188 210 257
#     4   9  18  32  49  68  91 119 149 181 218 265
#     4  10  17  25  40  63  90 119 151 186 224 265
#     4   9  16  24  36  60  94 122 141 172 223 272
#     4  10  17  27  45  69  93 117 144 181 227 270
#     4   8  14  28  48  66  85 115 154 186 215 260
#
# _framework density 15.269821
#
# number of rings (size 3 to 8) (size 9 to 14) (size 15 to 20)
#    0.000    3.000    1.429    2.571    0.000    2.286 
#    0.000    2.143    0.000    4.286    0.000    6.000 
#    0.000    0.000    0.000    0.000    0.000    0.000 
#
# Total GULP energy -1388015.540096 kJ/mol
# GULP energy per Si atom -12392.995894 kJ/mol
# Density = 1.523507 g / cm^3
# Si number density = 15.269821 Si / 1000 Ang^3
#
#
#
# Elastic Constant Matrix: (Units=GPa)
#
#
# Indices 1 2 3 4 5 6 
#
# 1 84.3703 45.8599 48.1083 0.0000 0.0000 0.0000
# 2 45.8599 84.3682 48.1083 0.0000 0.0000 0.0000
# 3 48.1083 48.1083 66.6254 0.0000 0.0000 0.0000
# 4 0.0000 0.0000 0.0000 11.2963 0.0000 0.0000
# 5 0.0000 0.0000 0.0000 0.0000 11.2977 0.0000
# 6 0.0000 0.0000 0.0000 0.0000 0.0000 9.0160
#
#
#
# Elastic Compliance Matrix: (Units=1/GPa)
#
#
# Indices 1 2 3 4 5 6 
#
# 1 0.021213 -0.004754 -0.011885 0.000000 0.000000 0.000000
# 2 -0.004754 0.021214 -0.011885 0.000000 0.000000 0.000000
# 3 -0.011885 -0.011885 0.032173 0.000000 0.000000 0.000000
# 4 0.000000 0.000000 0.000000 0.088524 0.000000 0.000000
# 5 0.000000 0.000000 0.000000 0.000000 0.088514 0.000000
# 6 0.000000 0.000000 0.000000 0.000000 0.000000 0.110914
#
#
# Mechanical properties :
#
#
# Convention : Reuss Voigt Hill
#
# Bulk Modulus (GPa) = 56.97308 57.72410 57.34859
# Shear Modulus (GPa) = 11.75221 12.54116 12.14668
#
# Velocity S-wave (km/s) = 2.77724 2.86895 2.82347
# Velocity P-wave (km/s) = 6.90478 6.98994 6.94749
#
# Compressibility (1/GPa) = 0.01755215
#
# Stress axis : x y z
#
# Youngs Moduli (GPa) = 47.14004 47.13823 31.08178
#
# Poissons Ratio (x) = 0.22409 0.36940
# Poissons Ratio (y) = 0.22410 0.36942
# Poissons Ratio (z) = 0.56025 0.56026
#
# Static dielectric constant tensor:
#      x y z
#    x 2.930640 0.000000 0.000000 
#    y 0.000000 2.930640 0.000000 
#    z 0.000000 0.000000 2.824880 
# 
# 
# High freq. dielectric constant tensor:
#      x y z
#    x 1.564200 0.000000 0.000000 
#    y 0.000000 1.564200 0.000000 
#    z 0.000000 0.000000 1.576530 
# 
# From -- ./inp_files/11844.got.cif
#   From: 2010.03.12/outbox.cif.g09.slc.cpg/sg141_6_cif.got.tgz:11844.got - 2010.04.03 13:18:35.
