data_PCOD8320305
_publ_section_title
;
Structure prediction by ZEFSAII (Michael W. Deem and Ramdas Pophale) SiO2 
 PCOD8320305
Probable space group: I 4/M C M
;
_chemical_formula_sum "Si O2"
_cell_formula_units_Z 176
_cell_length_a 18.468555
_cell_length_b 18.468555
_cell_length_c 28.398241
_cell_angle_alpha 90.000000
_cell_angle_beta 90.000000
_cell_angle_gamma 90.000000
_cell_volume 9686.285703
_symmetry_space_group_name_H-M "I 4/M C M"
_symmetry_group_IT_number 140
_symmetry_cell_setting 'tetragonal'
loop_
_space_group_symop_operation_xyz
x,y,z
-y,x,z
-x,-y,z
y,-x,z
x,-y,1/2-z
-x,y,1/2-z
y,x,1/2-z
-y,-x,1/2-z
-x,-y,-z
y,-x,-z
x,y,-z
-y,x,-z
-x,y,1/2+z
x,-y,1/2+z
-y,-x,1/2+z
y,x,1/2+z
1/2+x,1/2+y,1/2+z
1/2-y,1/2+x,1/2+z
1/2-x,1/2-y,1/2+z
1/2+y,1/2-x,1/2+z
1/2+x,1/2-y,-z
1/2-x,1/2+y,-z
1/2+y,1/2+x,-z
1/2-y,1/2-x,-z
1/2-x,1/2-y,1/2-z
1/2+y,1/2-x,1/2-z
1/2+x,1/2+y,1/2-z
1/2-y,1/2+x,1/2-z
1/2-x,1/2+y,z
1/2+x,1/2-y,z
1/2-y,1/2-x,z
1/2+y,1/2+x,z
loop_
_atom_site_type_symbol
_atom_site_label
_atom_site_fract_x
_atom_site_fract_y
_atom_site_fract_z
Si Si1 0.162650 0.781031 0.387264
Si Si2 0.517633 0.798540 0.606476
Si Si3 0.956037 0.664561 0.703005
Si Si4 0.057593 0.557593 0.555576
Si Si5 0.281197 0.340456 0.705111
Si Si6 0.741202 0.877116 0.946391
O O1 0.206205 0.706205 0.380198
O O2 0.170935 0.832259 0.341670
O O3 0.192452 0.824854 0.432277
O O4 0.078964 0.762866 0.394876
O O5 0.510494 0.831319 0.658910
O O6 0.537367 0.862354 0.571220
O O7 0.444228 0.760843 0.589077
O O8 0.898555 0.601446 0.693380
O O9 0.918130 0.742668 0.707551
O O10 0.000000 0.646207 0.750000
O O11 0.055800 0.555800 0.500000
O O12 0.000000 0.500000 0.576351
O O13 0.333554 0.333554 0.750000
O O14 0.220567 0.279434 0.705772
O O15 0.665778 0.834223 0.940688
O O16 0.752706 0.902770 0.000000
#
# Coordination Sequence:
#
# PCOD8320305 Si02
#       6
#    32  32  32  16  32  32
#     4  10  20  37  57  85 114 151 201 249 290 342
#     4  12  22  38  60  86 121 156 199 247 298 356
#     4  11  23  36  54  85 121 160 197 235 294 361
#     4  11  24  38  56  84 123 166 198 233 296 375
#     4   9  17  33  56  77 108 146 189 239 287 336
#     4  10  21  38  60  84 117 157 196 243 301 358
#
# _framework density 18.170019
#
# number of rings (size 3 to 8) (size 9 to 14) (size 15 to 20)
#    0.000    1.545    2.727    3.273    1.273    4.545 
#    0.000    0.000    0.000    0.545    0.000    1.273 
#    0.000    0.000    0.000    0.000    0.000    0.000 
#
# Total GULP energy -1091562.971338 kJ/mol
# GULP energy per Si atom -12404.124674 kJ/mol
# Density = 1.812866 g / cm^3
# Si number density = 18.170019 Si / 1000 Ang^3
#
#
#
# Elastic Constant Matrix: (Units=GPa)
#
#
# Indices 1 2 3 4 5 6 
#
# 1 62.3433 45.7282 23.1396 0.0000 0.0000 0.0000
# 2 45.7282 62.3433 23.1396 0.0000 0.0000 0.0000
# 3 23.1396 23.1396 102.5299 0.0000 0.0000 0.0000
# 4 0.0000 0.0000 0.0000 24.7421 0.0000 0.0000
# 5 0.0000 0.0000 0.0000 0.0000 24.7421 0.0000
# 6 0.0000 0.0000 0.0000 0.0000 0.0000 26.1359
#
#
#
# Elastic Compliance Matrix: (Units=1/GPa)
#
#
# Indices 1 2 3 4 5 6 
#
# 1 0.035215 -0.024972 -0.002312 0.000000 0.000000 0.000000
# 2 -0.024972 0.035215 -0.002312 0.000000 0.000000 0.000000
# 3 -0.002312 -0.002312 0.010797 0.000000 0.000000 0.000000
# 4 0.000000 0.000000 0.000000 0.040417 0.000000 0.000000
# 5 0.000000 0.000000 0.000000 0.000000 0.040417 0.000000
# 6 0.000000 0.000000 0.000000 0.000000 0.000000 0.038262
#
#
# Mechanical properties :
#
#
# Convention : Reuss Voigt Hill
#
# Bulk Modulus (GPa) = 45.38038 45.69238 45.53638
# Shear Modulus (GPa) = 18.73664 24.13795 21.43730
#
# Velocity S-wave (km/s) = 3.21469 3.64874 3.43857
# Velocity P-wave (km/s) = 6.22966 6.55384 6.39380
#
# Compressibility (1/GPa) = 0.02203596
#
# Stress axis : x y z
#
# Youngs Moduli (GPa) = 28.39730 28.39730 92.62090
#
# Poissons Ratio (x) = 0.70912 0.21411
# Poissons Ratio (y) = 0.70912 0.21411
# Poissons Ratio (z) = 0.06565 0.06565
#
# Static dielectric constant tensor:
#      x y z
#    x 3.239380 0.000000 0.000000 
#    y 0.000000 3.239380 0.000000 
#    z 0.000000 0.000000 3.514130 
# 
# 
# High freq. dielectric constant tensor:
#      x y z
#    x 1.684730 0.000000 0.000000 
#    y 0.000000 1.684730 0.000000 
#    z 0.000000 0.000000 1.722290 
# 
# From -- ./inp_files/10671.got.cif
#   From: 2010.06.25/outbox.cif.g09.slc.cpg/sg140_6_cif.got.tgz:10671.got - 2010.06.28 10:53:23.
