data_PCOD8320987
_publ_section_title
;
Structure prediction by ZEFSAII (Michael W. Deem and Ramdas Pophale) SiO2 
 PCOD8320987
Probable space group: I 41/A C D
;
_chemical_formula_sum "Si O2"
_cell_formula_units_Z 160
_cell_length_a 17.086611
_cell_length_b 17.086611
_cell_length_c 29.510818
_cell_angle_alpha 90.000000
_cell_angle_beta 90.000000
_cell_angle_gamma 90.000000
_cell_volume 8615.750466
_symmetry_space_group_name_H-M "I 41/A C D"
_symmetry_group_IT_number 142
_space_group.IT_coordinate_system_code '2'
_symmetry_cell_setting 'tetragonal'
loop_
_space_group_symop_operation_xyz
x,y,z
1/4-y,3/4+x,1/4+z
-x,1/2-y,z
1/4+y,1/4-x,3/4+z
x,-y,1/2-z
1/2-x,y,-z
3/4+y,1/4+x,1/4-z
1/4-y,1/4-x,1/4-z
-x,-y,-z
3/4+y,1/4-x,3/4-z
x,1/2+y,-z
3/4-y,3/4+x,1/4-z
-x,y,1/2+z
1/2+x,-y,z
1/4-y,3/4-x,3/4+z
3/4+y,3/4+x,3/4+z
1/2+x,1/2+y,1/2+z
3/4-y,1/4+x,3/4+z
1/2-x,-y,1/2+z
3/4+y,3/4-x,1/4+z
1/2+x,1/2-y,-z
-x,1/2+y,1/2-z
1/4+y,3/4+x,3/4-z
3/4-y,3/4-x,3/4-z
1/2-x,1/2-y,1/2-z
1/4+y,3/4-x,1/4-z
1/2+x,y,1/2-z
1/4-y,1/4+x,3/4-z
1/2-x,1/2+y,z
x,1/2-y,1/2+z
3/4-y,1/4-x,1/4+z
1/4+y,1/4+x,1/4+z
loop_
_atom_site_type_symbol
_atom_site_label
_atom_site_fract_x
_atom_site_fract_y
_atom_site_fract_z
Si Si1 0.057811 0.026752 0.179330
Si Si2 0.235354 0.049441 0.706425
Si Si3 0.582685 0.630673 0.174099
Si Si4 0.797218 0.952783 0.875000
Si Si5 0.500000 0.250000 0.990221
Si Si6 0.864367 0.351747 0.982263
O O1 0.110030 0.031937 0.133518
O O2 0.100060 0.082295 0.216435
O O3 0.969935 0.053189 0.170084
O O4 0.050252 0.939152 0.198592
O O5 0.168441 0.107142 0.689734
O O6 0.308601 0.107572 0.715642
O O7 0.209213 0.000000 0.750000
O O8 0.251606 0.983893 0.668731
O O9 0.580348 0.669653 0.125000
O O10 0.548909 0.690766 0.210004
O O11 0.548764 0.313414 0.020284
#
# Coordination Sequence:
#
# PCOD8320987 Si02
#       6
#    32  32  32  16  16  32
#     4   9  19  35  61  82 120 153 197 244 304 354
#     4  11  21  37  62  88 118 156 210 249 298 367
#     4  11  24  35  57  91 122 151 203 254 307 363
#     4  10  18  38  61  85 114 156 198 248 290 366
#     4  10  23  36  58  84 129 156 194 256 315 363
#     4   9  18  38  57  88 113 161 200 238 301 370
#
# _framework density 18.570639
#
# number of rings (size 3 to 8) (size 9 to 14) (size 15 to 20)
#    0.000    2.000    5.000    0.300   11.200    0.800 
#    0.000    0.000    0.000    0.000    0.000    5.600 
#    0.000    0.000    0.000    0.000    0.000    0.000 
#
# Total GULP energy -991682.581037 kJ/mol
# GULP energy per Si atom -12396.032263 kJ/mol
# Density = 1.852837 g / cm^3
# Si number density = 18.570639 Si / 1000 Ang^3
#
#
#
# Elastic Constant Matrix: (Units=GPa)
#
#
# Indices 1 2 3 4 5 6 
#
# 1 109.3944 59.3328 32.6355 0.0000 0.0000 0.0000
# 2 59.3328 109.3934 32.6353 0.0000 0.0000 0.0000
# 3 32.6355 32.6353 79.0169 0.0000 0.0000 0.0000
# 4 0.0000 0.0000 0.0000 18.6590 0.0000 0.0000
# 5 0.0000 0.0000 0.0000 0.0000 18.6603 0.0000
# 6 0.0000 0.0000 0.0000 0.0000 0.0000 26.0898
#
#
#
# Elastic Compliance Matrix: (Units=1/GPa)
#
#
# Indices 1 2 3 4 5 6 
#
# 1 0.013515 -0.006461 -0.002913 0.000000 0.000000 0.000000
# 2 -0.006461 0.013515 -0.002913 0.000000 0.000000 0.000000
# 3 -0.002913 -0.002913 0.015062 0.000000 0.000000 0.000000
# 4 0.000000 0.000000 0.000000 0.053593 0.000000 0.000000
# 5 0.000000 0.000000 0.000000 0.000000 0.053590 0.000000
# 6 0.000000 0.000000 0.000000 0.000000 0.000000 0.038329
#
#
# Mechanical properties :
#
#
# Convention : Reuss Voigt Hill
#
# Bulk Modulus (GPa) = 57.08991 60.77910 58.93451
# Shear Modulus (GPa) = 22.93394 24.22857 23.58125
#
# Velocity S-wave (km/s) = 3.51801 3.61594 3.56731
# Velocity P-wave (km/s) = 6.87827 7.08753 6.98368
#
# Compressibility (1/GPa) = 0.01751623
#
# Stress axis : x y z
#
# Youngs Moduli (GPa) = 73.99400 73.99336 66.39207
#
# Poissons Ratio (x) = 0.47807 0.19342
# Poissons Ratio (y) = 0.47807 0.19342
# Poissons Ratio (z) = 0.21557 0.21557
#
# Static dielectric constant tensor:
#      x y z
#    x 3.564270 0.000000 0.000000 
#    y 0.000000 3.564300 0.000000 
#    z 0.000000 0.000000 3.435310 
# 
# 
# High freq. dielectric constant tensor:
#      x y z
#    x 1.716540 0.000000 0.000000 
#    y 0.000000 1.716540 0.000000 
#    z 0.000000 0.000000 1.713580 
# 
# From -- ./inp_files/12482.got.cif
#   From: 2010.03.12/outbox.cif.g09.slc.cpg/sg142_7_cif.got.tgz:12482.got - 2010.04.03 13:27:16.
