data_PCOD8320886
_publ_section_title
;
Structure prediction by ZEFSAII (Michael W. Deem and Ramdas Pophale) SiO2 
 PCOD8320886
Probable space group: I 41/A M D
;
_chemical_formula_sum "Si O2"
_cell_formula_units_Z 160
_cell_length_a 23.543221
_cell_length_b 23.543221
_cell_length_c 14.416573
_cell_angle_alpha 90.000000
_cell_angle_beta 90.000000
_cell_angle_gamma 90.000000
_cell_volume 7990.865009
_symmetry_space_group_name_H-M "I 41/A M D"
_symmetry_group_IT_number 141
_space_group.IT_coordinate_system_code '2'
_symmetry_cell_setting 'tetragonal'
loop_
_space_group_symop_operation_xyz
x,y,z
1/4-y,3/4+x,1/4+z
-x,1/2-y,z
1/4+y,1/4-x,3/4+z
x,-y,-z
-x,1/2+y,-z
1/4+y,3/4+x,1/4-z
1/4-y,1/4-x,3/4-z
-x,-y,-z
3/4+y,1/4-x,3/4-z
x,1/2+y,-z
3/4-y,3/4+x,1/4-z
-x,y,z
x,1/2-y,z
3/4-y,1/4-x,3/4+z
3/4+y,3/4+x,1/4+z
1/2+x,1/2+y,1/2+z
3/4-y,1/4+x,3/4+z
1/2-x,-y,1/2+z
3/4+y,3/4-x,1/4+z
1/2+x,1/2-y,1/2-z
1/2-x,y,1/2-z
3/4+y,1/4+x,3/4-z
3/4-y,3/4-x,1/4-z
1/2-x,1/2-y,1/2-z
1/4+y,3/4-x,1/4-z
1/2+x,y,1/2-z
1/4-y,1/4+x,3/4-z
1/2-x,1/2+y,1/2+z
1/2+x,-y,1/2+z
1/4-y,3/4-x,1/4+z
1/4+y,1/4+x,3/4+z
loop_
_atom_site_type_symbol
_atom_site_label
_atom_site_fract_x
_atom_site_fract_y
_atom_site_fract_z
Si Si1 0.433179 0.997162 0.215943
Si Si2 0.876597 0.816839 0.539909
Si Si3 0.436380 0.111695 0.885148
Si Si4 0.567440 0.963599 0.416109
Si Si5 0.910431 0.688074 0.219875
O O1 0.500000 0.988314 0.223376
O O2 0.418327 0.061317 0.184791
O O3 0.412240 0.951757 0.137714
O O4 0.406515 0.984086 0.317411
O O5 0.883900 0.750000 0.516780
O O6 0.916948 0.833052 0.625000
O O7 0.893922 0.854592 0.451786
O O8 0.500000 0.108962 0.928979
O O9 0.441251 0.144768 0.788070
O O10 0.500000 0.970499 0.412667
O O11 0.586291 0.900253 0.439032
O O12 0.593633 0.000000 0.500000
O O13 0.945600 0.695600 0.125000
O O14 0.905844 0.750000 0.268638
#
# Coordination Sequence:
#
# PCOD8320886 Si02
#       5
#    32  32  32  32  32
#     4   9  19  37  57  83 115 150 203 247 280 345
#     4  11  24  41  62  89 118 155 200 251 312 368
#     4  11  22  37  58  87 122 158 198 246 298 356
#     4   9  16  29  50  75 108 150 194 235 272 328
#     4  11  20  30  48  81 120 154 183 221 287 357
#
# _framework density 20.022863000000001
#
# number of rings (size 3 to 8) (size 9 to 14) (size 15 to 20)
#    0.000    1.800    2.000    3.000    0.000    7.600 
#    0.000    3.000    0.000    0.000   20.800    0.000 
#    0.000    0.000    0.000    0.000    0.000    0.000 
#
# Total GULP energy -991593.348514 kJ/mol
# GULP energy per Si atom -12394.916856 kJ/mol
# Density = 1.997729 g / cm^3
# Si number density = 20.022863 Si / 1000 Ang^3
#
#
#
# Elastic Constant Matrix: (Units=GPa)
#
#
# Indices 1 2 3 4 5 6 
#
# 1 94.9753 45.0792 35.9803 0.0000 0.0000 0.0000
# 2 45.0792 94.9800 35.9807 0.0000 0.0000 0.0000
# 3 35.9803 35.9807 87.3818 0.0000 0.0000 0.0000
# 4 0.0000 0.0000 0.0000 30.8199 0.0000 0.0000
# 5 0.0000 0.0000 0.0000 0.0000 30.8194 0.0000
# 6 0.0000 0.0000 0.0000 0.0000 0.0000 7.7787
#
#
#
# Elastic Compliance Matrix: (Units=1/GPa)
#
#
# Indices 1 2 3 4 5 6 
#
# 1 0.014549 -0.005492 -0.003729 0.000000 0.000000 0.000000
# 2 -0.005492 0.014548 -0.003729 0.000000 0.000000 0.000000
# 3 -0.003729 -0.003729 0.014515 0.000000 0.000000 0.000000
# 4 0.000000 0.000000 0.000000 0.032447 0.000000 0.000000
# 5 0.000000 0.000000 0.000000 0.000000 0.032447 0.000000
# 6 0.000000 0.000000 0.000000 0.000000 0.000000 0.128555
#
#
# Mechanical properties :
#
#
# Convention : Reuss Voigt Hill
#
# Bulk Modulus (GPa) = 56.46179 56.82419 56.64299
# Shear Modulus (GPa) = 18.59673 24.57007 21.58340
#
# Velocity S-wave (km/s) = 3.05089 3.50680 3.28676
# Velocity P-wave (km/s) = 6.37734 6.69613 6.53868
#
# Compressibility (1/GPa) = 0.01771109
#
# Stress axis : x y z
#
# Youngs Moduli (GPa) = 68.73484 68.73854 68.89506
#
# Poissons Ratio (x) = 0.37754 0.25691
# Poissons Ratio (y) = 0.37752 0.25689
# Poissons Ratio (z) = 0.25631 0.25631
#
# Static dielectric constant tensor:
#      x y z
#    x 3.572080 0.000000 0.000000 
#    y 0.000000 3.572080 0.000000 
#    z 0.000000 0.000000 3.684570 
# 
# 
# High freq. dielectric constant tensor:
#      x y z
#    x 1.760550 0.000000 0.000000 
#    y 0.000000 1.760550 0.000000 
#    z 0.000000 0.000000 1.780090 
# 
# From -- ./inp_files/6572.got.cif
#   From: 2010.03.12/outbox.cif.g09.slc.cpg/sg141_4_cif.got.tgz:6572.got - 2010.04.03 13:18:35.
