data_PCOD8320812
_publ_section_title
;
Structure prediction by ZEFSAII (Michael W. Deem and Ramdas Pophale) SiO2 
 PCOD8320812
Probable space group: I 41/A M D
;
_chemical_formula_sum "Si O2"
_cell_formula_units_Z 176
_cell_length_a 17.729841
_cell_length_b 17.729841
_cell_length_c 28.703737
_cell_angle_alpha 90.000000
_cell_angle_beta 90.000000
_cell_angle_gamma 90.000000
_cell_volume 9022.941132
_symmetry_space_group_name_H-M "I 41/A M D"
_symmetry_group_IT_number 141
_space_group.IT_coordinate_system_code '2'
_symmetry_cell_setting 'tetragonal'
loop_
_space_group_symop_operation_xyz
x,y,z
1/4-y,3/4+x,1/4+z
-x,1/2-y,z
1/4+y,1/4-x,3/4+z
x,-y,-z
-x,1/2+y,-z
1/4+y,3/4+x,1/4-z
1/4-y,1/4-x,3/4-z
-x,-y,-z
3/4+y,1/4-x,3/4-z
x,1/2+y,-z
3/4-y,3/4+x,1/4-z
-x,y,z
x,1/2-y,z
3/4-y,1/4-x,3/4+z
3/4+y,3/4+x,1/4+z
1/2+x,1/2+y,1/2+z
3/4-y,1/4+x,3/4+z
1/2-x,-y,1/2+z
3/4+y,3/4-x,1/4+z
1/2+x,1/2-y,1/2-z
1/2-x,y,1/2-z
3/4+y,1/4+x,3/4-z
3/4-y,3/4-x,1/4-z
1/2-x,1/2-y,1/2-z
1/4+y,3/4-x,1/4-z
1/2+x,y,1/2-z
1/4-y,1/4+x,3/4-z
1/2-x,1/2+y,1/2+z
1/2+x,-y,1/2+z
1/4-y,3/4-x,1/4+z
1/4+y,1/4+x,3/4+z
loop_
_atom_site_type_symbol
_atom_site_label
_atom_site_fract_x
_atom_site_fract_y
_atom_site_fract_z
Si Si1 0.647637 0.076974 0.398039
Si Si2 0.288933 0.838734 0.051176
Si Si3 0.346387 0.385673 0.674991
Si Si4 0.585083 0.164918 0.125000
Si Si5 0.587613 0.036676 0.195676
Si Si6 0.000000 0.667381 0.923476
Si Si7 0.000000 0.667100 0.030033
O O1 0.642916 0.076676 0.340952
O O2 0.720311 0.117906 0.419255
O O3 0.573089 0.119329 0.412696
O O4 0.651237 0.992607 0.418631
O O5 0.306932 0.750000 0.061184
O O6 0.201027 0.854746 0.052236
O O7 0.309217 0.862675 0.998251
O O8 0.382597 0.367404 0.625000
O O9 0.361653 0.318082 0.709128
O O10 0.598165 0.250000 0.142459
O O11 0.604762 0.112855 0.168393
O O12 0.500000 0.012885 0.195604
O O13 0.000000 0.750000 0.897593
O O14 0.000000 0.686215 0.976845
O O15 0.000000 0.750000 0.055629
#
# Coordination Sequence:
#
# PCOD8320812 Si02
#       7
#    32  32  32  16  32  16  16
#     4  11  22  39  59  89 122 163 209 258 308 368
#     4  10  21  40  59  86 123 163 206 252 311 371
#     4  10  23  34  54  84 114 162 206 259 305 354
#     4   9  20  42  68  94 120 150 193 252 314 378
#     4  10  22  40  66  90 121 162 201 250 316 383
#     4  11  23  39  57  81 123 163 205 261 312 366
#     4  11  23  35  53  81 115 165 215 261 309 354
#
# _framework density 19.505835000000001
#
# number of rings (size 3 to 8) (size 9 to 14) (size 15 to 20)
#    0.000    1.727    0.909    2.727    8.909    6.545 
#    0.000    1.818    0.000    2.182    0.000    0.000 
#    0.000    0.000    0.000    0.000    0.000    0.000 
#
# Total GULP energy -1090218.800620 kJ/mol
# GULP energy per Si atom -12388.850007 kJ/mol
# Density = 1.946144 g / cm^3
# Si number density = 19.505835 Si / 1000 Ang^3
#
#
#
# Elastic Constant Matrix: (Units=GPa)
#
#
# Indices 1 2 3 4 5 6 
#
# 1 71.0258 25.4799 51.0607 0.0000 0.0000 0.0000
# 2 25.4799 71.0288 51.0596 0.0000 0.0000 0.0000
# 3 51.0607 51.0596 138.4561 0.0000 0.0000 0.0000
# 4 0.0000 0.0000 0.0000 38.6262 0.0000 0.0000
# 5 0.0000 0.0000 0.0000 0.0000 38.6258 0.0000
# 6 0.0000 0.0000 0.0000 0.0000 0.0000 50.1210
#
#
#
# Elastic Compliance Matrix: (Units=1/GPa)
#
#
# Indices 1 2 3 4 5 6 
#
# 1 0.019475 -0.002481 -0.006267 0.000000 0.000000 0.000000
# 2 -0.002481 0.019473 -0.006266 0.000000 0.000000 0.000000
# 3 -0.006267 -0.006266 0.011845 0.000000 0.000000 0.000000
# 4 0.000000 0.000000 0.000000 0.025889 0.000000 0.000000
# 5 0.000000 0.000000 0.000000 0.000000 0.025889 0.000000
# 6 0.000000 0.000000 0.000000 0.000000 0.000000 0.019952
#
#
# Mechanical properties :
#
#
# Convention : Reuss Voigt Hill
#
# Bulk Modulus (GPa) = 48.16050 59.52346 53.84198
# Shear Modulus (GPa) = 31.35311 35.66862 33.51086
#
# Velocity S-wave (km/s) = 4.01355 4.28087 4.14936
# Velocity P-wave (km/s) = 6.79868 7.41730 7.11472
#
# Compressibility (1/GPa) = 0.02076390
#
# Stress axis : x y z
#
# Youngs Moduli (GPa) = 51.34811 51.35196 84.42619
#
# Poissons Ratio (x) = 0.12740 0.52911
# Poissons Ratio (y) = 0.12739 0.52905
# Poissons Ratio (z) = 0.32181 0.32179
#
# Static dielectric constant tensor:
#      x y z
#    x 3.578580 0.000000 0.000000 
#    y 0.000000 3.578570 0.000000 
#    z 0.000000 0.000000 4.520550 
# 
# 
# High freq. dielectric constant tensor:
#      x y z
#    x 1.759320 0.000000 0.000000 
#    y 0.000000 1.759320 0.000000 
#    z 0.000000 0.000000 1.766730 
# 
# From -- ./inp_files/12960.got.cif
#   From: 2010.03.12/outbox.cif.g09.slc.cpg/sg141_7_cif.got.tgz:12960.got - 2010.04.03 13:18:35.
