data_PCOD8320975
_publ_section_title
;
Structure prediction by ZEFSAII (Michael W. Deem and Ramdas Pophale) SiO2 
 PCOD8320975
Probable space group: I 41/A C D
;
_chemical_formula_sum "Si O2"
_cell_formula_units_Z 176
_cell_length_a 27.068809
_cell_length_b 27.068809
_cell_length_c 12.126068
_cell_angle_alpha 90.000000
_cell_angle_beta 90.000000
_cell_angle_gamma 90.000000
_cell_volume 8885.017646
_symmetry_space_group_name_H-M "I 41/A C D"
_symmetry_group_IT_number 142
_space_group.IT_coordinate_system_code '2'
_symmetry_cell_setting 'tetragonal'
loop_
_space_group_symop_operation_xyz
x,y,z
1/4-y,3/4+x,1/4+z
-x,1/2-y,z
1/4+y,1/4-x,3/4+z
x,-y,1/2-z
1/2-x,y,-z
3/4+y,1/4+x,1/4-z
1/4-y,1/4-x,1/4-z
-x,-y,-z
3/4+y,1/4-x,3/4-z
x,1/2+y,-z
3/4-y,3/4+x,1/4-z
-x,y,1/2+z
1/2+x,-y,z
1/4-y,3/4-x,3/4+z
3/4+y,3/4+x,3/4+z
1/2+x,1/2+y,1/2+z
3/4-y,1/4+x,3/4+z
1/2-x,-y,1/2+z
3/4+y,3/4-x,1/4+z
1/2+x,1/2-y,-z
-x,1/2+y,1/2-z
1/4+y,3/4+x,3/4-z
3/4-y,3/4-x,3/4-z
1/2-x,1/2-y,1/2-z
1/4+y,3/4-x,1/4-z
1/2+x,y,1/2-z
1/4-y,1/4+x,3/4-z
1/2-x,1/2+y,z
x,1/2-y,1/2+z
3/4-y,1/4-x,1/4+z
1/4+y,1/4+x,1/4+z
loop_
_atom_site_type_symbol
_atom_site_label
_atom_site_fract_x
_atom_site_fract_y
_atom_site_fract_z
Si Si1 0.522317 0.579934 0.036172
Si Si2 0.645418 0.596482 0.501659
Si Si3 0.582681 0.728943 0.045190
Si Si4 0.265840 0.676329 0.225707
Si Si5 0.250000 0.128778 0.000000
Si Si6 0.936625 0.348436 0.361037
O O1 0.529148 0.614818 0.143172
O O2 0.467978 0.557985 0.025307
O O3 0.559982 0.533222 0.045311
O O4 0.529984 0.612317 0.926680
O O5 0.634062 0.615939 0.625000
O O6 0.622185 0.542676 0.474787
O O7 0.704175 0.591610 0.489915
O O8 0.625336 0.636325 0.417676
O O9 0.536950 0.713051 0.125000
O O10 0.579642 0.697191 0.934858
O O11 0.578823 0.785168 0.999690
O O12 0.250557 0.666623 0.100862
#
# Coordination Sequence:
#
# PCOD8320975 Si02
#       6
#    32  32  32  32  16  32
#     4  10  21  38  61  90 120 149 203 254 298 353
#     4  10  20  34  58  86 118 155 200 244 291 361
#     4  10  23  39  60  86 118 159 200 247 302 367
#     4  10  20  36  60  93 118 153 201 251 299 353
#     4  10  18  34  58  86 120 160 192 242 300 360
#     4  11  21  41  59  84 121 161 196 246 306 359
#
# _framework density 19.808627999999999
#
# number of rings (size 3 to 8) (size 9 to 14) (size 15 to 20)
#    0.000    1.818    1.818    3.273    0.000    1.818 
#    0.000    4.545    0.000    9.818    0.000    0.000 
#    0.000    0.000    0.000    0.000    0.000    0.000 
#
# Total GULP energy -1090828.860762 kJ/mol
# GULP energy per Si atom -12395.782509 kJ/mol
# Density = 1.976354 g / cm^3
# Si number density = 19.808628 Si / 1000 Ang^3
#
#
#
# Elastic Constant Matrix: (Units=GPa)
#
#
# Indices 1 2 3 4 5 6 
#
# 1 62.3963 41.2631 29.0533 0.0000 0.0000 0.0000
# 2 41.2631 62.4003 29.0553 0.0000 0.0000 0.0000
# 3 29.0533 29.0553 80.8500 0.0000 0.0000 0.0000
# 4 0.0000 0.0000 0.0000 25.7165 0.0000 0.0000
# 5 0.0000 0.0000 0.0000 0.0000 25.7165 0.0000
# 6 0.0000 0.0000 0.0000 0.0000 0.0000 38.0938
#
#
#
# Elastic Compliance Matrix: (Units=1/GPa)
#
#
# Indices 1 2 3 4 5 6 
#
# 1 0.029698 -0.017617 -0.004341 0.000000 0.000000 0.000000
# 2 -0.017617 0.029697 -0.004342 0.000000 0.000000 0.000000
# 3 -0.004341 -0.004342 0.015489 0.000000 0.000000 0.000000
# 4 0.000000 0.000000 0.000000 0.038886 0.000000 0.000000
# 5 0.000000 0.000000 0.000000 0.000000 0.038885 0.000000
# 6 0.000000 0.000000 0.000000 0.000000 0.000000 0.026251
#
#
# Mechanical properties :
#
#
# Convention : Reuss Voigt Hill
#
# Bulk Modulus (GPa) = 44.87416 44.93224 44.90320
# Shear Modulus (GPa) = 20.92640 24.99036 22.95838
#
# Velocity S-wave (km/s) = 3.25380 3.55574 3.40812
# Velocity P-wave (km/s) = 6.06789 6.29207 6.18100
#
# Compressibility (1/GPa) = 0.02228454
#
# Stress axis : x y z
#
# Youngs Moduli (GPa) = 33.67216 33.67376 64.56323
#
# Poissons Ratio (x) = 0.59323 0.28026
# Poissons Ratio (y) = 0.59321 0.28030
# Poissons Ratio (z) = 0.14617 0.14620
#
# Static dielectric constant tensor:
#      x y z
#    x 3.704010 0.000000 0.000000 
#    y 0.000000 3.704000 0.000000 
#    z 0.000000 0.000000 3.634590 
# 
# 
# High freq. dielectric constant tensor:
#      x y z
#    x 1.773220 0.000000 0.000000 
#    y 0.000000 1.773220 0.000000 
#    z 0.000000 0.000000 1.765100 
# 
# From -- ./inp_files/3955.got.cif
#   From: 2010.03.12/outbox.cif.g09.slc.cpg/sg142_2_cif.got.tgz:3955.got - 2010.04.03 13:27:16.
