data_PCOD8320472
_publ_section_title
;
Structure prediction by ZEFSAII (Michael W. Deem and Ramdas Pophale) SiO2 
 PCOD8320472
Probable space group: I 4/M C M
;
_chemical_formula_sum "Si O2"
_cell_formula_units_Z 144
_cell_length_a 20.709098
_cell_length_b 20.709098
_cell_length_c 20.564997
_cell_angle_alpha 90.000000
_cell_angle_beta 90.000000
_cell_angle_gamma 90.000000
_cell_volume 8819.643221
_symmetry_space_group_name_H-M "I 4/M C M"
_symmetry_group_IT_number 140
_symmetry_cell_setting 'tetragonal'
loop_
_space_group_symop_operation_xyz
x,y,z
-y,x,z
-x,-y,z
y,-x,z
x,-y,1/2-z
-x,y,1/2-z
y,x,1/2-z
-y,-x,1/2-z
-x,-y,-z
y,-x,-z
x,y,-z
-y,x,-z
-x,y,1/2+z
x,-y,1/2+z
-y,-x,1/2+z
y,x,1/2+z
1/2+x,1/2+y,1/2+z
1/2-y,1/2+x,1/2+z
1/2-x,1/2-y,1/2+z
1/2+y,1/2-x,1/2+z
1/2+x,1/2-y,-z
1/2-x,1/2+y,-z
1/2+y,1/2+x,-z
1/2-y,1/2-x,-z
1/2-x,1/2-y,1/2-z
1/2+y,1/2-x,1/2-z
1/2+x,1/2+y,1/2-z
1/2-y,1/2+x,1/2-z
1/2-x,1/2+y,z
1/2+x,1/2-y,z
1/2-y,1/2-x,z
1/2+y,1/2+x,z
loop_
_atom_site_type_symbol
_atom_site_label
_atom_site_fract_x
_atom_site_fract_y
_atom_site_fract_z
Si Si1 0.649850 0.250352 0.671926
Si Si2 0.333668 0.582448 0.927061
Si Si3 0.606326 0.500000 0.250000
Si Si4 0.665001 0.549518 0.876942
Si Si5 0.757493 0.358796 0.683375
O O1 0.682360 0.182360 0.652014
O O2 0.600977 0.270859 0.615298
O O3 0.704644 0.303597 0.678622
O O4 0.614949 0.242143 0.742196
O O5 0.399049 0.609392 0.894030
O O6 0.333371 0.504395 0.933160
O O7 0.327766 0.610860 0.000000
O O8 0.564368 0.564368 0.250000
O O9 0.650031 0.506020 0.186490
O O10 0.734783 0.584358 0.865716
O O11 0.827606 0.327606 0.664624
#
# Coordination Sequence:
#
# PCOD8320472 Si02
#       5
#    32  32  16  32  32
#     4   8  15  29  47  66  84 107 143 191 238 275
#     4  11  22  32  42  60  91 130 161 185 215 263
#     4  11  20  30  44  64  86 114 158 201 222 258
#     4  11  20  32  45  63  90 121 155 194 228 264
#     4   8  15  28  48  68  84 104 140 194 247 277
#
# _framework density 16.327190000000002
#
# number of rings (size 3 to 8) (size 9 to 14) (size 15 to 20)
#    0.000    2.333    2.222    3.333    3.111    0.889 
#    0.000    1.111    0.000    2.000    0.000    0.000 
#    0.000    0.889    0.000    8.000    0.000    2.222 
#
# Total GULP energy -892041.740388 kJ/mol
# GULP energy per Si atom -12389.468617 kJ/mol
# Density = 1.629003 g / cm^3
# Si number density = 16.327190 Si / 1000 Ang^3
#
#
#
# Elastic Constant Matrix: (Units=GPa)
#
#
# Indices 1 2 3 4 5 6 
#
# 1 54.5302 44.8809 28.3666 0.0000 0.0000 0.0000
# 2 44.8809 54.5302 28.3666 0.0000 0.0000 0.0000
# 3 28.3666 28.3666 73.4493 0.0000 0.0000 0.0000
# 4 0.0000 0.0000 0.0000 16.4040 0.0000 0.0000
# 5 0.0000 0.0000 0.0000 0.0000 16.4040 0.0000
# 6 0.0000 0.0000 0.0000 0.0000 0.0000 32.8970
#
#
#
# Elastic Compliance Matrix: (Units=1/GPa)
#
#
# Indices 1 2 3 4 5 6 
#
# 1 0.058269 -0.045365 -0.004983 0.000000 0.000000 0.000000
# 2 -0.045365 0.058269 -0.004983 0.000000 0.000000 0.000000
# 3 -0.004983 -0.004983 0.017464 0.000000 0.000000 0.000000
# 4 0.000000 0.000000 0.000000 0.060961 0.000000 0.000000
# 5 0.000000 0.000000 0.000000 0.000000 0.060961 0.000000
# 6 0.000000 0.000000 0.000000 0.000000 0.000000 0.030398
#
#
# Mechanical properties :
#
#
# Convention : Reuss Voigt Hill
#
# Bulk Modulus (GPa) = 42.85006 42.85974 42.85490
# Shear Modulus (GPa) = 12.35289 18.53404 15.44346
#
# Velocity S-wave (km/s) = 2.75359 3.37287 3.07884
# Velocity P-wave (km/s) = 6.03417 6.44018 6.24048
#
# Compressibility (1/GPa) = 0.02333719
#
# Stress axis : x y z
#
# Youngs Moduli (GPa) = 17.16191 17.16191 57.26070
#
# Poissons Ratio (x) = 0.77856 0.28535
# Poissons Ratio (y) = 0.77856 0.28535
# Poissons Ratio (z) = 0.08552 0.08552
#
# Static dielectric constant tensor:
#      x y z
#    x 3.112130 0.000000 0.000000 
#    y 0.000000 3.112130 0.000000 
#    z 0.000000 0.000000 3.104780 
# 
# 
# High freq. dielectric constant tensor:
#      x y z
#    x 1.596630 0.000000 0.000000 
#    y 0.000000 1.596630 0.000000 
#    z 0.000000 0.000000 1.624960 
# 
# From -- ./inp_files/8371.got.cif
#   From: 2010.06.25/outbox.cif.g09.slc.cpg/sg140_5_cif.got.tgz:8371.got - 2010.06.28 10:53:23.
