data_PCOD8320855
_publ_section_title
;
Structure prediction by ZEFSAII (Michael W. Deem and Ramdas Pophale) SiO2 
 PCOD8320855
Probable space group: I 41/A M D
;
_chemical_formula_sum "Si O2"
_cell_formula_units_Z 160
_cell_length_a 20.146507
_cell_length_b 20.146507
_cell_length_c 19.677396
_cell_angle_alpha 90.000000
_cell_angle_beta 90.000000
_cell_angle_gamma 90.000000
_cell_volume 7986.695812
_symmetry_space_group_name_H-M "I 41/A M D"
_symmetry_group_IT_number 141
_space_group.IT_coordinate_system_code '2'
_symmetry_cell_setting 'tetragonal'
loop_
_space_group_symop_operation_xyz
x,y,z
1/4-y,3/4+x,1/4+z
-x,1/2-y,z
1/4+y,1/4-x,3/4+z
x,-y,-z
-x,1/2+y,-z
1/4+y,3/4+x,1/4-z
1/4-y,1/4-x,3/4-z
-x,-y,-z
3/4+y,1/4-x,3/4-z
x,1/2+y,-z
3/4-y,3/4+x,1/4-z
-x,y,z
x,1/2-y,z
3/4-y,1/4-x,3/4+z
3/4+y,3/4+x,1/4+z
1/2+x,1/2+y,1/2+z
3/4-y,1/4+x,3/4+z
1/2-x,-y,1/2+z
3/4+y,3/4-x,1/4+z
1/2+x,1/2-y,1/2-z
1/2-x,y,1/2-z
3/4+y,1/4+x,3/4-z
3/4-y,3/4-x,1/4-z
1/2-x,1/2-y,1/2-z
1/4+y,3/4-x,1/4-z
1/2+x,y,1/2-z
1/4-y,1/4+x,3/4-z
1/2-x,1/2+y,1/2+z
1/2+x,-y,1/2+z
1/4-y,3/4-x,1/4+z
1/4+y,1/4+x,3/4+z
loop_
_atom_site_type_symbol
_atom_site_label
_atom_site_fract_x
_atom_site_fract_y
_atom_site_fract_z
Si Si1 0.790951 0.478974 0.187654
Si Si2 0.112060 0.881785 0.384099
Si Si3 0.321863 0.355672 0.512821
Si Si4 0.000000 0.520384 0.422613
Si Si5 0.500000 0.464909 0.217948
Si Si6 0.072992 0.677009 0.125000
Si Si7 0.000000 0.173663 0.206924
O O1 0.740883 0.490883 0.125000
O O2 0.750000 0.446187 0.250000
O O3 0.852663 0.434209 0.164246
O O4 0.821581 0.548472 0.213407
O O5 0.113132 0.881799 0.302851
O O6 0.084370 0.812131 0.408059
O O7 0.065981 0.938849 0.412280
O O8 0.255718 0.312907 0.496711
O O9 0.368316 0.325264 0.570350
O O10 0.000000 0.500000 0.500000
O O11 0.000000 0.462554 0.364890
O O12 0.500000 0.386566 0.238096
O O13 0.079320 0.750000 0.159863
O O14 0.000000 0.250000 0.237919
#
# Coordination Sequence:
#
# PCOD8320855 Si02
#       7
#    32  32  32  16  16  16  16
#     4  12  23  39  64  94 128 167 223 283 340 407
#     4  11  24  41  65  95 128 170 223 278 333 405
#     4  11  22  40  62  91 130 178 221 275 340 394
#     4  10  22  45  67  93 125 165 216 267 333 414
#     4  10  22  42  67  88 129 175 212 273 341 392
#     4  11  24  38  60  96 138 184 234 278 331 408
#     4  12  24  42  69 101 138 176 225 279 343 409
#
# _framework density 20.033315000000002
#
# number of rings (size 3 to 8) (size 9 to 14) (size 15 to 20)
#    0.000    0.900    7.000    0.600    1.400    0.000 
#    0.000    1.000    2.200    4.200    0.000    0.000 
#    0.000    0.000    0.000    0.000    0.000    0.000 
#
# Total GULP energy -991599.444068 kJ/mol
# GULP energy per Si atom -12394.993051 kJ/mol
# Density = 1.998772 g / cm^3
# Si number density = 20.033315 Si / 1000 Ang^3
#
#
#
# Elastic Constant Matrix: (Units=GPa)
#
#
# Indices 1 2 3 4 5 6 
#
# 1 98.5641 30.8309 50.7499 0.0000 0.0000 0.0000
# 2 30.8309 98.5647 50.7490 0.0000 0.0000 0.0000
# 3 50.7499 50.7490 152.8252 0.0000 0.0000 0.0000
# 4 0.0000 0.0000 0.0000 25.1840 0.0000 0.0000
# 5 0.0000 0.0000 0.0000 0.0000 25.1846 0.0000
# 6 0.0000 0.0000 0.0000 0.0000 0.0000 25.8805
#
#
#
# Elastic Compliance Matrix: (Units=1/GPa)
#
#
# Indices 1 2 3 4 5 6 
#
# 1 0.012607 -0.002157 -0.003470 0.000000 0.000000 0.000000
# 2 -0.002157 0.012607 -0.003470 0.000000 0.000000 0.000000
# 3 -0.003470 -0.003470 0.008848 0.000000 0.000000 0.000000
# 4 0.000000 0.000000 0.000000 0.039708 0.000000 0.000000
# 5 0.000000 0.000000 0.000000 0.000000 0.039707 0.000000
# 6 0.000000 0.000000 0.000000 0.000000 0.000000 0.038639
#
#
# Mechanical properties :
#
#
# Convention : Reuss Voigt Hill
#
# Bulk Modulus (GPa) = 63.02082 68.29040 65.65561
# Shear Modulus (GPa) = 28.47379 29.75809 29.11594
#
# Velocity S-wave (km/s) = 3.77413 3.85831 3.81645
# Velocity P-wave (km/s) = 7.10763 7.34923 7.22944
#
# Compressibility (1/GPa) = 0.01586777
#
# Stress axis : x y z
#
# Youngs Moduli (GPa) = 79.31996 79.32120 113.01683
#
# Poissons Ratio (x) = 0.17107 0.39221
# Poissons Ratio (y) = 0.17107 0.39220
# Poissons Ratio (z) = 0.27527 0.27526
#
# Static dielectric constant tensor:
#      x y z
#    x 3.702830 0.000000 0.000000 
#    y 0.000000 3.702830 0.000000 
#    z 0.000000 0.000000 3.763980 
# 
# 
# High freq. dielectric constant tensor:
#      x y z
#    x 1.783930 0.000000 0.000000 
#    y 0.000000 1.783930 0.000000 
#    z 0.000000 0.000000 1.782810 
# 
# From -- ./inp_files/8705.got.cif
#   From: 2010.03.12/outbox.cif.g09.slc.cpg/sg141_5_cif.got.tgz:8705.got - 2010.04.03 13:18:35.
