data_PCOD8320723
_publ_section_title
;
Structure prediction by ZEFSAII (Michael W. Deem and Ramdas Pophale) SiO2 
 PCOD8320723
Probable space group: I 41/A M D
;
_chemical_formula_sum "Si O2"
_cell_formula_units_Z 96
_cell_length_a 13.366795
_cell_length_b 13.366795
_cell_length_c 26.888921
_cell_angle_alpha 90.000000
_cell_angle_beta 90.000000
_cell_angle_gamma 90.000000
_cell_volume 4804.276012
_symmetry_space_group_name_H-M "I 41/A M D"
_symmetry_group_IT_number 141
_space_group.IT_coordinate_system_code '2'
_symmetry_cell_setting 'tetragonal'
loop_
_space_group_symop_operation_xyz
x,y,z
1/4-y,3/4+x,1/4+z
-x,1/2-y,z
1/4+y,1/4-x,3/4+z
x,-y,-z
-x,1/2+y,-z
1/4+y,3/4+x,1/4-z
1/4-y,1/4-x,3/4-z
-x,-y,-z
3/4+y,1/4-x,3/4-z
x,1/2+y,-z
3/4-y,3/4+x,1/4-z
-x,y,z
x,1/2-y,z
3/4-y,1/4-x,3/4+z
3/4+y,3/4+x,1/4+z
1/2+x,1/2+y,1/2+z
3/4-y,1/4+x,3/4+z
1/2-x,-y,1/2+z
3/4+y,3/4-x,1/4+z
1/2+x,1/2-y,1/2-z
1/2-x,y,1/2-z
3/4+y,1/4+x,3/4-z
3/4-y,3/4-x,1/4-z
1/2-x,1/2-y,1/2-z
1/4+y,3/4-x,1/4-z
1/2+x,y,1/2-z
1/4-y,1/4+x,3/4-z
1/2-x,1/2+y,1/2+z
1/2+x,-y,1/2+z
1/4-y,3/4-x,1/4+z
1/4+y,1/4+x,3/4+z
loop_
_atom_site_type_symbol
_atom_site_label
_atom_site_fract_x
_atom_site_fract_y
_atom_site_fract_z
Si Si1 0.117585 0.359083 0.819827
Si Si2 0.801154 0.364960 0.325846
Si Si3 0.310984 0.635210 0.024405
O O1 0.167058 0.250000 0.807128
O O2 0.147574 0.397574 0.875000
O O3 0.148896 0.444710 0.780563
O O4 0.000000 0.344273 0.818916
O O5 0.821078 0.428923 0.375000
O O6 0.829385 0.250000 0.335504
O O7 0.871453 0.409208 0.282684
O O8 0.684833 0.371715 0.309854
O O9 0.327770 0.750000 0.040687
#
# Coordination Sequence:
#
# PCOD8320723 Si02
#       3
#    32  32  32
#     4   8  14  27  50  80 114 149 178 208 257 320
#     4  11  24  40  57  79 107 141 184 228 277 335
#     4  10  20  36  59  84 110 142 183 227 269 321
#
# _framework density 19.982199999999999
#
# number of rings (size 3 to 8) (size 9 to 14) (size 15 to 20)
#    0.000    2.333    0.000    5.000    0.000    4.333 
#    0.000    5.000    0.000    4.000    0.000    0.000 
#    0.000    0.000    0.000    0.000    0.000    0.000 
#
# Total GULP energy -594932.138528 kJ/mol
# GULP energy per Si atom -12394.419553 kJ/mol
# Density = 1.993672 g / cm^3
# Si number density = 19.982200 Si / 1000 Ang^3
#
#
#
# Elastic Constant Matrix: (Units=GPa)
#
#
# Indices 1 2 3 4 5 6 
#
# 1 96.4638 18.0789 37.2347 0.0000 0.0000 0.0000
# 2 18.0789 96.4622 37.2344 0.0000 0.0000 0.0000
# 3 37.2347 37.2344 117.1382 0.0000 0.0000 0.0000
# 4 0.0000 0.0000 0.0000 19.4088 0.0000 0.0000
# 5 0.0000 0.0000 0.0000 0.0000 19.4109 0.0000
# 6 0.0000 0.0000 0.0000 0.0000 0.0000 24.9108
#
#
#
# Elastic Compliance Matrix: (Units=1/GPa)
#
#
# Indices 1 2 3 4 5 6 
#
# 1 0.011881 -0.000877 -0.003498 0.000000 0.000000 0.000000
# 2 -0.000877 0.011881 -0.003498 0.000000 0.000000 0.000000
# 3 -0.003498 -0.003498 0.010761 0.000000 0.000000 0.000000
# 4 0.000000 0.000000 0.000000 0.051523 0.000000 0.000000
# 5 0.000000 0.000000 0.000000 0.000000 0.051517 0.000000
# 6 0.000000 0.000000 0.000000 0.000000 0.000000 0.040143
#
#
# Mechanical properties :
#
#
# Convention : Reuss Voigt Hill
#
# Bulk Modulus (GPa) = 53.25398 55.01782 54.13590
# Shear Modulus (GPa) = 25.03613 27.24717 26.14165
#
# Velocity S-wave (km/s) = 3.54350 3.69666 3.62089
# Velocity P-wave (km/s) = 6.59170 6.76858 6.68072
#
# Compressibility (1/GPa) = 0.01877794
#
# Stress axis : x y z
#
# Youngs Moduli (GPa) = 84.16742 84.16597 92.93025
#
# Poissons Ratio (x) = 0.07377 0.32507
# Poissons Ratio (y) = 0.07377 0.32508
# Poissons Ratio (z) = 0.29442 0.29442
#
# Static dielectric constant tensor:
#      x y z
#    x 3.898200 0.000000 0.000000 
#    y 0.000000 3.898190 0.000000 
#    z 0.000000 0.000000 3.591030 
# 
# 
# High freq. dielectric constant tensor:
#      x y z
#    x 1.776610 0.000000 0.000000 
#    y 0.000000 1.776610 0.000000 
#    z 0.000000 0.000000 1.764230 
# 
# From -- ./inp_files/13893.got.cif
#   From: 2010.03.12/outbox.cif.g09.slc.cpg/sg141_7_cif.got.tgz:13893.got - 2010.04.03 13:18:35.
