data_PCOD8320385
_publ_section_title
;
Structure prediction by ZEFSAII (Michael W. Deem and Ramdas Pophale) SiO2 
 PCOD8320385
Probable space group: I 4/M C M
;
_chemical_formula_sum "Si O2"
_cell_formula_units_Z 160
_cell_length_a 17.162483
_cell_length_b 17.162483
_cell_length_c 29.134779
_cell_angle_alpha 90.000000
_cell_angle_beta 90.000000
_cell_angle_gamma 90.000000
_cell_volume 8581.673124
_symmetry_space_group_name_H-M "I 4/M C M"
_symmetry_group_IT_number 140
_symmetry_cell_setting 'tetragonal'
loop_
_space_group_symop_operation_xyz
x,y,z
-y,x,z
-x,-y,z
y,-x,z
x,-y,1/2-z
-x,y,1/2-z
y,x,1/2-z
-y,-x,1/2-z
-x,-y,-z
y,-x,-z
x,y,-z
-y,x,-z
-x,y,1/2+z
x,-y,1/2+z
-y,-x,1/2+z
y,x,1/2+z
1/2+x,1/2+y,1/2+z
1/2-y,1/2+x,1/2+z
1/2-x,1/2-y,1/2+z
1/2+y,1/2-x,1/2+z
1/2+x,1/2-y,-z
1/2-x,1/2+y,-z
1/2+y,1/2+x,-z
1/2-y,1/2-x,-z
1/2-x,1/2-y,1/2-z
1/2+y,1/2-x,1/2-z
1/2+x,1/2+y,1/2-z
1/2-y,1/2+x,1/2-z
1/2-x,1/2+y,z
1/2+x,1/2-y,z
1/2-y,1/2-x,z
1/2+y,1/2+x,z
loop_
_atom_site_type_symbol
_atom_site_label
_atom_site_fract_x
_atom_site_fract_y
_atom_site_fract_z
Si Si1 0.531001 0.843951 0.799090
Si Si2 0.193621 0.175900 0.610858
Si Si3 0.906671 0.723436 0.551149
Si Si4 0.783530 0.152590 0.706723
Si Si5 0.053348 0.320873 0.108924
O O1 0.500000 0.873348 0.750000
O O2 0.592010 0.907991 0.818112
O O3 0.570966 0.760865 0.791257
O O4 0.463198 0.833287 0.836816
O O5 0.253246 0.246755 0.612991
O O6 0.125414 0.196818 0.574450
O O7 0.154655 0.165236 0.660645
O O8 0.239215 0.096939 0.598711
O O9 0.936838 0.743834 0.500000
O O10 0.837093 0.662908 0.548404
O O11 0.974284 0.682296 0.580328
O O12 0.841394 0.158607 0.750000
O O13 0.722965 0.222965 0.707831
O O14 0.107051 0.392950 0.092153
#
# Coordination Sequence:
#
# PCOD8320385 Si02
#       5
#    32  32  32  32  32
#     4  11  21  32  48  78 120 157 186 220 275 339
#     4   9  18  35  55  77 106 142 187 233 270 317
#     4  10  21  38  58  80 111 150 186 227 283 337
#     4   9  16  29  50  73 102 142 187 227 264 314
#     4  11  22  35  56  85 115 145 184 231 280 337
#
# _framework density 18.644383000000001
#
# number of rings (size 3 to 8) (size 9 to 14) (size 15 to 20)
#    0.000    2.000    2.000    2.400    0.000    7.000 
#    0.000    3.000    0.000    0.600    0.000    1.400 
#    0.000    0.000    0.000    0.000    0.000    0.000 
#
# Total GULP energy -991826.856646 kJ/mol
# GULP energy per Si atom -12397.835708 kJ/mol
# Density = 1.860195 g / cm^3
# Si number density = 18.644383 Si / 1000 Ang^3
#
#
#
# Elastic Constant Matrix: (Units=GPa)
#
#
# Indices 1 2 3 4 5 6 
#
# 1 46.4826 41.0409 25.6345 0.0000 0.0000 0.0000
# 2 41.0409 46.4824 25.6343 0.0000 0.0000 0.0000
# 3 25.6345 25.6343 128.8621 0.0000 0.0000 0.0000
# 4 0.0000 0.0000 0.0000 22.9338 0.0000 0.0000
# 5 0.0000 0.0000 0.0000 0.0000 22.9337 0.0000
# 6 0.0000 0.0000 0.0000 0.0000 0.0000 24.3643
#
#
#
# Elastic Compliance Matrix: (Units=1/GPa)
#
#
# Indices 1 2 3 4 5 6 
#
# 1 0.098350 -0.085418 -0.002573 0.000000 0.000000 0.000000
# 2 -0.085418 0.098351 -0.002573 0.000000 0.000000 0.000000
# 3 -0.002573 -0.002573 0.008784 0.000000 0.000000 0.000000
# 4 0.000000 0.000000 0.000000 0.043604 0.000000 0.000000
# 5 0.000000 0.000000 0.000000 0.000000 0.043604 0.000000
# 6 0.000000 0.000000 0.000000 0.000000 0.000000 0.041044
#
#
# Mechanical properties :
#
#
# Convention : Reuss Voigt Hill
#
# Bulk Modulus (GPa) = 41.05393 45.16070 43.10732
# Shear Modulus (GPa) = 9.56055 22.68085 16.12070
#
# Velocity S-wave (km/s) = 2.26693 3.49162 2.94367
# Velocity P-wave (km/s) = 5.37766 6.36631 5.89276
#
# Compressibility (1/GPa) = 0.02435820
#
# Stress axis : x y z
#
# Youngs Moduli (GPa) = 10.16772 10.16771 113.84620
#
# Poissons Ratio (x) = 0.86851 0.29290
# Poissons Ratio (y) = 0.86851 0.29287
# Poissons Ratio (z) = 0.02616 0.02616
#
# Static dielectric constant tensor:
#      x y z
#    x 3.266050 0.000000 0.000000 
#    y 0.000000 3.266050 0.000000 
#    z 0.000000 0.000000 3.666950 
# 
# 
# High freq. dielectric constant tensor:
#      x y z
#    x 1.699490 0.000000 0.000000 
#    y 0.000000 1.699490 0.000000 
#    z 0.000000 0.000000 1.730670 
# 
# From -- ./inp_files/10494.got.cif
#   From: 2010.06.25/outbox.cif.g09.slc.cpg/sg140_6_cif.got.tgz:10494.got - 2010.06.28 10:53:23.
