data_PCOD8320002
_publ_section_title
;
Structure prediction by ZEFSAII (Michael W. Deem and Ramdas Pophale) SiO2 
 PCOD8320002
Probable space group: I 4/M M M
;
_chemical_formula_sum "Si O2"
_cell_formula_units_Z 96
_cell_length_a 24.395799
_cell_length_b 24.395799
_cell_length_c 7.780970
_cell_angle_alpha 90.000000
_cell_angle_beta 90.000000
_cell_angle_gamma 90.000000
_cell_volume 4630.883269
_symmetry_space_group_name_H-M "I 4/M M M"
_symmetry_group_IT_number 139
_symmetry_cell_setting 'tetragonal'
loop_
_space_group_symop_operation_xyz
x,y,z
-y,x,z
-x,-y,z
y,-x,z
x,-y,-z
-x,y,-z
y,x,-z
-y,-x,-z
-x,-y,-z
y,-x,-z
x,y,-z
-y,x,-z
-x,y,z
x,-y,z
-y,-x,z
y,x,z
1/2+x,1/2+y,1/2+z
1/2-y,1/2+x,1/2+z
1/2-x,1/2-y,1/2+z
1/2+y,1/2-x,1/2+z
1/2+x,1/2-y,1/2-z
1/2-x,1/2+y,1/2-z
1/2+y,1/2+x,1/2-z
1/2-y,1/2-x,1/2-z
1/2-x,1/2-y,1/2-z
1/2+y,1/2-x,1/2-z
1/2+x,1/2+y,1/2-z
1/2-y,1/2+x,1/2-z
1/2-x,1/2+y,1/2+z
1/2+x,1/2-y,1/2+z
1/2-y,1/2-x,1/2+z
1/2+y,1/2+x,1/2+z
loop_
_atom_site_type_symbol
_atom_site_label
_atom_site_fract_x
_atom_site_fract_y
_atom_site_fract_z
Si Si1 0.912826 0.770272 0.809482
Si Si2 0.706142 0.293859 0.202604
Si Si3 0.561590 0.150755 0.803002
Si Si4 0.652451 0.440594 0.000000
O O1 0.848180 0.772335 0.790384
O O2 0.930961 0.707230 0.798211
O O3 0.939725 0.809545 0.668366
O O4 0.929601 0.791207 0.000000
O O5 0.750000 0.250000 0.250000
O O6 0.696965 0.303036 0.000000
O O7 0.500000 0.128455 0.769208
O O8 0.603983 0.103983 0.750000
O O9 0.571455 0.165511 0.000000
O O10 0.622557 0.500000 0.000000
O O11 0.608106 0.391895 0.000000
#
# Coordination Sequence:
#
# PCOD8320002 Si02
#       4
#    32  16  32  16
#     4  12  23  42  68  99 134 174 220 270 332 397
#     4  12  22  38  62  99 143 177 215 270 329 398
#     4  11  24  42  63  91 130 174 226 282 332 390
#     4  12  26  47  72 102 137 173 221 273 329 402
#
# _framework density 20.730384999999998
#
# number of rings (size 3 to 8) (size 9 to 14) (size 15 to 20)
#    0.000    0.333    5.000    4.500    0.000    5.167 
#    0.000    1.667    0.000    0.000    0.000    2.333 
#    0.000    0.000    0.000    0.000    0.000    0.000 
#
# Total GULP energy -595196.293006 kJ/mol
# GULP energy per Si atom -12399.922771 kJ/mol
# Density = 2.068320 g / cm^3
# Si number density = 20.730385 Si / 1000 Ang^3
#
#
#
# Elastic Constant Matrix: (Units=GPa)
#
#
# Indices 1 2 3 4 5 6 
#
# 1 120.2958 51.8854 41.3637 0.0000 0.0000 0.0000
# 2 51.8854 120.2988 41.3644 0.0000 0.0000 0.0000
# 3 41.3637 41.3644 171.9296 0.0000 0.0000 0.0000
# 4 0.0000 0.0000 0.0000 38.9139 0.0000 0.0000
# 5 0.0000 0.0000 0.0000 0.0000 38.9109 0.0000
# 6 0.0000 0.0000 0.0000 0.0000 0.0000 5.9620
#
#
#
# Elastic Compliance Matrix: (Units=1/GPa)
#
#
# Indices 1 2 3 4 5 6 
#
# 1 0.010592 -0.004025 -0.001580 0.000000 0.000000 0.000000
# 2 -0.004025 0.010592 -0.001580 0.000000 0.000000 0.000000
# 3 -0.001580 -0.001580 0.006577 0.000000 0.000000 0.000000
# 4 0.000000 0.000000 0.000000 0.025698 0.000000 0.000000
# 5 0.000000 0.000000 0.000000 0.000000 0.025700 0.000000
# 6 0.000000 0.000000 0.000000 0.000000 0.000000 0.167728
#
#
# Mechanical properties :
#
#
# Convention : Reuss Voigt Hill
#
# Bulk Modulus (GPa) = 74.67885 75.75014 75.21449
# Shear Modulus (GPa) = 18.81680 35.28473 27.05077
#
# Velocity S-wave (km/s) = 3.01606 4.13010 3.61624
# Velocity P-wave (km/s) = 6.94485 7.70478 7.33466
#
# Compressibility (1/GPa) = 0.01339067
#
# Stress axis : x y z
#
# Youngs Moduli (GPa) = 94.40880 94.41099 152.05558
#
# Poissons Ratio (x) = 0.38003 0.24023
# Poissons Ratio (y) = 0.38002 0.24023
# Poissons Ratio (z) = 0.14916 0.14916
#
# Static dielectric constant tensor:
#      x y z
#    x 3.824550 0.000000 0.000000 
#    y 0.000000 3.824550 0.000000 
#    z 0.000000 0.000000 4.083650 
# 
# 
# High freq. dielectric constant tensor:
#      x y z
#    x 1.812280 0.000000 0.000000 
#    y 0.000000 1.812280 0.000000 
#    z 0.000000 0.000000 1.829890 
# 
# From -- ./inp_files/1145.got.cif
#   From: 2010.03.12/outbox.cif.g09.slc.cpg/sg139_1_cif.got.tgz:1145.got - 2010.04.08 09:46:31.
