data_PCOD8320793
_publ_section_title
;
Structure prediction by ZEFSAII (Michael W. Deem and Ramdas Pophale) SiO2 
 PCOD8320793
Probable space group: I 41/A M D
;
_chemical_formula_sum "Si O2"
_cell_formula_units_Z 176
_cell_length_a 26.941182
_cell_length_b 26.941182
_cell_length_c 11.208954
_cell_angle_alpha 90.000000
_cell_angle_beta 90.000000
_cell_angle_gamma 90.000000
_cell_volume 8135.764678
_symmetry_space_group_name_H-M "I 41/A M D"
_symmetry_group_IT_number 141
_space_group.IT_coordinate_system_code '2'
_symmetry_cell_setting 'tetragonal'
loop_
_space_group_symop_operation_xyz
x,y,z
1/4-y,3/4+x,1/4+z
-x,1/2-y,z
1/4+y,1/4-x,3/4+z
x,-y,-z
-x,1/2+y,-z
1/4+y,3/4+x,1/4-z
1/4-y,1/4-x,3/4-z
-x,-y,-z
3/4+y,1/4-x,3/4-z
x,1/2+y,-z
3/4-y,3/4+x,1/4-z
-x,y,z
x,1/2-y,z
3/4-y,1/4-x,3/4+z
3/4+y,3/4+x,1/4+z
1/2+x,1/2+y,1/2+z
3/4-y,1/4+x,3/4+z
1/2-x,-y,1/2+z
3/4+y,3/4-x,1/4+z
1/2+x,1/2-y,1/2-z
1/2-x,y,1/2-z
3/4+y,1/4+x,3/4-z
3/4-y,3/4-x,1/4-z
1/2-x,1/2-y,1/2-z
1/4+y,3/4-x,1/4-z
1/2+x,y,1/2-z
1/4-y,1/4+x,3/4-z
1/2-x,1/2+y,1/2+z
1/2+x,-y,1/2+z
1/4-y,3/4-x,1/4+z
1/4+y,1/4+x,3/4+z
loop_
_atom_site_type_symbol
_atom_site_label
_atom_site_fract_x
_atom_site_fract_y
_atom_site_fract_z
Si Si1 0.870557 0.303792 0.376474
Si Si2 0.373392 0.932194 0.047739
Si Si3 0.270458 0.692223 0.518208
Si Si4 0.082356 0.923363 0.860839
Si Si5 0.945900 0.613647 0.108757
Si Si6 0.714463 0.500000 0.000000
O O1 0.927148 0.322853 0.375000
O O2 0.868166 0.250000 0.313592
O O3 0.907225 0.415722 0.436746
O O4 0.853873 0.298692 0.512719
O O5 0.405380 0.974047 0.118073
O O6 0.355255 0.884857 0.123588
O O7 0.321110 0.952628 0.001809
O O8 0.255757 0.750000 0.550641
O O9 0.231455 0.666881 0.427058
O O10 0.325169 0.690926 0.465406
O O11 0.057382 0.918358 0.988473
O O12 0.905931 0.655931 0.125000
O O13 0.000000 0.639146 0.113598
O O14 0.746858 0.503143 0.875000
#
# Coordination Sequence:
#
# PCOD8320793 Si02
#       6
#    32  32  32  32  32  16
#     4  10  21  37  62  93 128 170 215 268 329 396
#     4  11  22  42  66  91 133 172 213 277 332 395
#     4  11  22  38  65  97 127 167 219 273 330 395
#     4  11  22  40  62  91 126 167 216 271 332 393
#     4  11  23  42  63  91 130 168 215 273 328 397
#     4  12  26  48  67  98 136 178 229 280 340 412
#
# _framework density 21.632878000000002
#
# number of rings (size 3 to 8) (size 9 to 14) (size 15 to 20)
#    0.000    1.091    1.818    6.545    0.000    1.818 
#    6.545    2.727    0.000    2.182    0.000    0.000 
#    0.000    0.000    0.000    0.000    0.000    0.000 
#
# Total GULP energy -1090541.962020 kJ/mol
# GULP energy per Si atom -12392.522296 kJ/mol
# Density = 2.158364 g / cm^3
# Si number density = 21.632878 Si / 1000 Ang^3
#
#
#
# Elastic Constant Matrix: (Units=GPa)
#
#
# Indices 1 2 3 4 5 6 
#
# 1 94.8202 51.3398 17.3815 0.0000 0.0000 0.0000
# 2 51.3398 94.8247 17.3839 0.0000 0.0000 0.0000
# 3 17.3815 17.3839 87.5187 0.0000 0.0000 0.0000
# 4 0.0000 0.0000 0.0000 20.7734 0.0000 0.0000
# 5 0.0000 0.0000 0.0000 0.0000 20.7743 0.0000
# 6 0.0000 0.0000 0.0000 0.0000 0.0000 24.9800
#
#
#
# Elastic Compliance Matrix: (Units=1/GPa)
#
#
# Indices 1 2 3 4 5 6 
#
# 1 0.015090 -0.007908 -0.001426 0.000000 0.000000 0.000000
# 2 -0.007908 0.015089 -0.001427 0.000000 0.000000 0.000000
# 3 -0.001426 -0.001427 0.011993 0.000000 0.000000 0.000000
# 4 0.000000 0.000000 0.000000 0.048139 0.000000 0.000000
# 5 0.000000 0.000000 0.000000 0.000000 0.048136 0.000000
# 6 0.000000 0.000000 0.000000 0.000000 0.000000 0.040032
#
#
# Mechanical properties :
#
#
# Convention : Reuss Voigt Hill
#
# Bulk Modulus (GPa) = 48.42719 49.93045 49.17882
# Shear Modulus (GPa) = 24.16822 26.04276 25.10549
#
# Velocity S-wave (km/s) = 3.34608 3.47342 3.41034
# Velocity P-wave (km/s) = 6.11251 6.26236 6.18789
#
# Compressibility (1/GPa) = 0.02064956
#
# Stress axis : x y z
#
# Youngs Moduli (GPa) = 66.27074 66.27326 83.38419
#
# Poissons Ratio (x) = 0.52411 0.11891
# Poissons Ratio (y) = 0.52409 0.11895
# Poissons Ratio (z) = 0.09450 0.09454
#
# Static dielectric constant tensor:
#      x y z
#    x 4.042970 0.000000 0.000000 
#    y 0.000000 4.042950 0.000000 
#    z 0.000000 0.000000 3.827260 
# 
# 
# High freq. dielectric constant tensor:
#      x y z
#    x 1.852960 0.000000 0.000000 
#    y 0.000000 1.852960 0.000000 
#    z 0.000000 0.000000 1.847050 
# 
# From -- ./inp_files/5021.got.cif
#   From: 2010.03.12/outbox.cif.g09.slc.cpg/sg141_3_cif.got.tgz:5021.got - 2010.04.03 13:18:35.
