data_PCOD8320796
_publ_section_title
;
Structure prediction by ZEFSAII (Michael W. Deem and Ramdas Pophale) SiO2 
 PCOD8320796
Probable space group: I 41/A M D
;
_chemical_formula_sum "Si O2"
_cell_formula_units_Z 144
_cell_length_a 18.133659
_cell_length_b 18.133659
_cell_length_c 22.194049
_cell_angle_alpha 90.000000
_cell_angle_beta 90.000000
_cell_angle_gamma 90.000000
_cell_volume 7298.060005
_symmetry_space_group_name_H-M "I 41/A M D"
_symmetry_group_IT_number 141
_space_group.IT_coordinate_system_code '2'
_symmetry_cell_setting 'tetragonal'
loop_
_space_group_symop_operation_xyz
x,y,z
1/4-y,3/4+x,1/4+z
-x,1/2-y,z
1/4+y,1/4-x,3/4+z
x,-y,-z
-x,1/2+y,-z
1/4+y,3/4+x,1/4-z
1/4-y,1/4-x,3/4-z
-x,-y,-z
3/4+y,1/4-x,3/4-z
x,1/2+y,-z
3/4-y,3/4+x,1/4-z
-x,y,z
x,1/2-y,z
3/4-y,1/4-x,3/4+z
3/4+y,3/4+x,1/4+z
1/2+x,1/2+y,1/2+z
3/4-y,1/4+x,3/4+z
1/2-x,-y,1/2+z
3/4+y,3/4-x,1/4+z
1/2+x,1/2-y,1/2-z
1/2-x,y,1/2-z
3/4+y,1/4+x,3/4-z
3/4-y,3/4-x,1/4-z
1/2-x,1/2-y,1/2-z
1/4+y,3/4-x,1/4-z
1/2+x,y,1/2-z
1/4-y,1/4+x,3/4-z
1/2-x,1/2+y,1/2+z
1/2+x,-y,1/2+z
1/4-y,3/4-x,1/4+z
1/4+y,1/4+x,3/4+z
loop_
_atom_site_type_symbol
_atom_site_label
_atom_site_fract_x
_atom_site_fract_y
_atom_site_fract_z
Si Si1 0.586191 0.663810 0.875000
Si Si2 0.914296 0.087460 0.925199
Si Si3 0.915451 0.398584 0.710861
Si Si4 0.915991 0.434274 0.268197
Si Si5 0.412701 0.936598 0.634329
O O1 0.500000 0.647043 0.883243
O O2 0.626725 0.630777 0.934361
O O3 0.899622 0.149622 0.875000
O O4 0.000000 0.082608 0.940296
O O5 0.883040 0.009101 0.900898
O O6 0.873678 0.110765 0.985766
O O7 0.910241 0.485617 0.702054
O O8 0.887797 0.360222 0.649798
O O9 0.000000 0.373899 0.723906
O O10 0.878183 0.433025 0.201896
O O11 0.000000 0.410184 0.258552
O O12 0.500000 0.944315 0.638652
#
# Coordination Sequence:
#
# PCOD8320796 Si02
#       5
#    16  32  32  32  32
#     4   9  18  36  64  88 106 140 190 238 285 342
#     4  11  21  36  57  83 114 151 193 232 273 327
#     4  11  22  37  56  82 117 152 190 236 282 333
#     4   9  19  38  58  81 115 148 181 232 292 338
#     4  10  21  38  58  81 115 154 187 230 286 337
#
# _framework density 19.731271
#
# number of rings (size 3 to 8) (size 9 to 14) (size 15 to 20)
#    0.000    1.889    2.222    2.000    0.000    5.556 
#    2.000    3.333    0.000    4.000    0.000    0.000 
#    0.000    0.000    0.000    0.000    0.000    0.000 
#
# Total GULP energy -892690.539044 kJ/mol
# GULP energy per Si atom -12398.479709 kJ/mol
# Density = 1.968636 g / cm^3
# Si number density = 19.731271 Si / 1000 Ang^3
#
#
#
# Elastic Constant Matrix: (Units=GPa)
#
#
# Indices 1 2 3 4 5 6 
#
# 1 55.2726 42.5002 51.0394 0.0000 0.0000 0.0000
# 2 42.5002 55.2739 51.0391 0.0000 0.0000 0.0000
# 3 51.0394 51.0391 136.9370 0.0000 0.0000 0.0000
# 4 0.0000 0.0000 0.0000 32.6970 0.0000 0.0000
# 5 0.0000 0.0000 0.0000 0.0000 32.6972 0.0000
# 6 0.0000 0.0000 0.0000 0.0000 0.0000 19.0017
#
#
#
# Elastic Compliance Matrix: (Units=1/GPa)
#
#
# Indices 1 2 3 4 5 6 
#
# 1 0.047517 -0.030773 -0.006241 0.000000 0.000000 0.000000
# 2 -0.030773 0.047515 -0.006240 0.000000 0.000000 0.000000
# 3 -0.006241 -0.006240 0.011955 0.000000 0.000000 0.000000
# 4 0.000000 0.000000 0.000000 0.030584 0.000000 0.000000
# 5 0.000000 0.000000 0.000000 0.000000 0.030584 0.000000
# 6 0.000000 0.000000 0.000000 0.000000 0.000000 0.052627
#
#
# Mechanical properties :
#
#
# Convention : Reuss Voigt Hill
#
# Bulk Modulus (GPa) = 48.83140 59.62676 54.22908
# Shear Modulus (GPa) = 15.91767 23.73951 19.82859
#
# Velocity S-wave (km/s) = 2.84337 3.47240 3.17351
# Velocity P-wave (km/s) = 5.96503 6.80895 6.40091
#
# Compressibility (1/GPa) = 0.02047863
#
# Stress axis : x y z
#
# Youngs Moduli (GPa) = 21.04492 21.04586 83.65041
#
# Poissons Ratio (x) = 0.64765 0.52206
# Poissons Ratio (y) = 0.64762 0.52197
# Poissons Ratio (z) = 0.13134 0.13132
#
# Static dielectric constant tensor:
#      x y z
#    x 3.507320 0.000000 0.000000 
#    y 0.000000 3.507300 0.000000 
#    z 0.000000 0.000000 3.945260 
# 
# 
# High freq. dielectric constant tensor:
#      x y z
#    x 1.751550 0.000000 0.000000 
#    y 0.000000 1.751550 0.000000 
#    z 0.000000 0.000000 1.781160 
# 
# From -- ./inp_files/11444.got.cif
#   From: 2010.03.12/outbox.cif.g09.slc.cpg/sg141_6_cif.got.tgz:11444.got - 2010.04.03 13:18:35.
