data_PCOD8320347
_publ_section_title
;
Structure prediction by ZEFSAII (Michael W. Deem and Ramdas Pophale) SiO2 
 PCOD8320347
Probable space group: I 4/M C M
;
_chemical_formula_sum "Si O2"
_cell_formula_units_Z 160
_cell_length_a 21.606778
_cell_length_b 21.606778
_cell_length_c 19.066119
_cell_angle_alpha 90.000000
_cell_angle_beta 90.000000
_cell_angle_gamma 90.000000
_cell_volume 8901.072099
_symmetry_space_group_name_H-M "I 4/M C M"
_symmetry_group_IT_number 140
_symmetry_cell_setting 'tetragonal'
loop_
_space_group_symop_operation_xyz
x,y,z
-y,x,z
-x,-y,z
y,-x,z
x,-y,1/2-z
-x,y,1/2-z
y,x,1/2-z
-y,-x,1/2-z
-x,-y,-z
y,-x,-z
x,y,-z
-y,x,-z
-x,y,1/2+z
x,-y,1/2+z
-y,-x,1/2+z
y,x,1/2+z
1/2+x,1/2+y,1/2+z
1/2-y,1/2+x,1/2+z
1/2-x,1/2-y,1/2+z
1/2+y,1/2-x,1/2+z
1/2+x,1/2-y,-z
1/2-x,1/2+y,-z
1/2+y,1/2+x,-z
1/2-y,1/2-x,-z
1/2-x,1/2-y,1/2-z
1/2+y,1/2-x,1/2-z
1/2+x,1/2+y,1/2-z
1/2-y,1/2+x,1/2-z
1/2-x,1/2+y,z
1/2+x,1/2-y,z
1/2-y,1/2-x,z
1/2+y,1/2+x,z
loop_
_atom_site_type_symbol
_atom_site_label
_atom_site_fract_x
_atom_site_fract_y
_atom_site_fract_z
Si Si1 0.099779 0.497326 0.577986
Si Si2 0.125126 0.866763 0.419922
Si Si3 0.269161 0.332705 0.814072
Si Si4 0.034036 0.290410 0.822647
Si Si5 0.818089 0.005972 0.580972
O O1 0.130628 0.491003 0.500000
O O2 0.044469 0.544469 0.572121
O O3 0.146323 0.526284 0.634593
O O4 0.069790 0.430211 0.600252
O O5 0.143202 0.856783 0.500000
O O6 0.161484 0.812867 0.380863
O O7 0.051836 0.863401 0.407384
O O8 0.145031 0.934008 0.393447
O O9 0.314631 0.314631 0.750000
O O10 0.222382 0.277619 0.829498
O O11 0.229427 0.395550 0.804599
O O12 0.999149 0.240527 0.869565
O O13 0.000000 0.299104 0.750000
O O14 0.796674 0.010299 0.500000
#
# Coordination Sequence:
#
# PCOD8320347 Si02
#       5
#    32  32  32  32  32
#     4   9  19  36  55  75 102 135 172 218 269 317
#     4   9  18  33  53  76 101 130 166 209 255 306
#     4  10  21  36  52  73 104 139 174 214 259 308
#     4  11  21  33  53  78 104 138 176 216 263 318
#     4   9  18  33  52  75 103 133 168 210 257 310
#
# _framework density 17.975362000000001
#
# number of rings (size 3 to 8) (size 9 to 14) (size 15 to 20)
#    0.000    2.400    0.000    3.000    0.000    3.200 
#    0.000    4.000    0.000    1.200    0.000    2.800 
#    0.000    0.000    0.000    0.000    0.000    0.000 
#
# Total GULP energy -991526.279313 kJ/mol
# GULP energy per Si atom -12394.078491 kJ/mol
# Density = 1.793445 g / cm^3
# Si number density = 17.975362 Si / 1000 Ang^3
#
#
#
# Elastic Constant Matrix: (Units=GPa)
#
#
# Indices 1 2 3 4 5 6 
#
# 1 99.4169 55.6235 52.6853 0.0000 0.0000 0.0000
# 2 55.6235 99.4169 52.6853 0.0000 0.0000 0.0000
# 3 52.6853 52.6853 80.6966 0.0000 0.0000 0.0000
# 4 0.0000 0.0000 0.0000 -8.2327 0.0000 0.0000
# 5 0.0000 0.0000 0.0000 0.0000 -8.2327 0.0000
# 6 0.0000 0.0000 0.0000 0.0000 0.0000 29.9302
#
#
#
# Elastic Compliance Matrix: (Units=1/GPa)
#
#
# Indices 1 2 3 4 5 6 
#
# 1 0.017215 -0.005620 -0.007570 0.000000 0.000000 0.000000
# 2 -0.005620 0.017215 -0.007570 0.000000 0.000000 0.000000
# 3 -0.007570 -0.007570 0.022277 0.000000 0.000000 0.000000
# 4 0.000000 0.000000 0.000000 -0.121468 0.000000 0.000000
# 5 0.000000 0.000000 0.000000 0.000000 -0.121468 0.000000
# 6 0.000000 0.000000 0.000000 0.000000 0.000000 0.033411
#
#
# Mechanical properties :
#
#
# Convention : Reuss Voigt Hill
#
# Bulk Modulus (GPa) = 65.84912 66.83540 66.34226
# Shear Modulus (GPa) = -47.06494 10.59540 -18.23477
#
# Velocity S-wave (km/s) = -5.12249 2.43047 -3.18847
# Velocity P-wave (km/s) = 1.31378 6.71853 4.84070
#
# Compressibility (1/GPa) = 0.01518623
#
# Stress axis : x y z
#
# Youngs Moduli (GPa) = 58.09014 58.09014 44.88985
#
# Poissons Ratio (x) = 0.32646 0.33982
# Poissons Ratio (y) = 0.32646 0.33982
# Poissons Ratio (z) = 0.43974 0.43974
#
# Static dielectric constant tensor:
#      x y z
#    x 3.445190 0.000000 0.000000 
#    y 0.000000 3.445190 0.000000 
#    z 0.000000 0.000000 3.438420 
# 
# 
# High freq. dielectric constant tensor:
#      x y z
#    x 1.698210 0.000000 0.000000 
#    y 0.000000 1.698210 0.000000 
#    z 0.000000 0.000000 1.698820 
# 
# From -- ./inp_files/6844.got.cif
#   From: 2010.06.25/outbox.cif.g09.slc.cpg/sg140_4_cif.got.tgz:6844.got - 2010.06.28 10:53:23.
