data_PCOD8320346
_publ_section_title
;
Structure prediction by ZEFSAII (Michael W. Deem and Ramdas Pophale) SiO2 
 PCOD8320346
Probable space group: I 4/M C M
;
_chemical_formula_sum "Si O2"
_cell_formula_units_Z 192
_cell_length_a 21.178765
_cell_length_b 21.178765
_cell_length_c 25.757130
_cell_angle_alpha 90.000000
_cell_angle_beta 90.000000
_cell_angle_gamma 90.000000
_cell_volume 11553.105329
_symmetry_space_group_name_H-M "I 4/M C M"
_symmetry_group_IT_number 140
_symmetry_cell_setting 'tetragonal'
loop_
_space_group_symop_operation_xyz
x,y,z
-y,x,z
-x,-y,z
y,-x,z
x,-y,1/2-z
-x,y,1/2-z
y,x,1/2-z
-y,-x,1/2-z
-x,-y,-z
y,-x,-z
x,y,-z
-y,x,-z
-x,y,1/2+z
x,-y,1/2+z
-y,-x,1/2+z
y,x,1/2+z
1/2+x,1/2+y,1/2+z
1/2-y,1/2+x,1/2+z
1/2-x,1/2-y,1/2+z
1/2+y,1/2-x,1/2+z
1/2+x,1/2-y,-z
1/2-x,1/2+y,-z
1/2+y,1/2+x,-z
1/2-y,1/2-x,-z
1/2-x,1/2-y,1/2-z
1/2+y,1/2-x,1/2-z
1/2+x,1/2+y,1/2-z
1/2-y,1/2+x,1/2-z
1/2-x,1/2+y,z
1/2+x,1/2-y,z
1/2-y,1/2-x,z
1/2+y,1/2+x,z
loop_
_atom_site_type_symbol
_atom_site_label
_atom_site_fract_x
_atom_site_fract_y
_atom_site_fract_z
Si Si1 0.123560 0.525610 0.301381
Si Si2 0.917156 0.686761 0.941269
Si Si3 0.360531 0.755456 0.351695
Si Si4 0.340640 0.736319 0.134512
Si Si5 0.949556 0.348773 0.899460
Si Si6 0.115426 0.719978 0.739266
O O1 0.088824 0.500000 0.250000
O O2 0.081348 0.581348 0.326835
O O3 0.130474 0.469442 0.341891
O O4 0.192632 0.550223 0.283866
O O5 0.874138 0.625863 0.929372
O O6 0.899850 0.745485 0.902908
O O7 0.989792 0.665058 0.934670
O O8 0.907627 0.710549 0.000000
O O9 0.301679 0.801679 0.343015
O O10 0.332957 0.689857 0.375914
O O11 0.409300 0.784343 0.393331
O O12 0.392769 0.744749 0.294755
O O13 0.290197 0.790197 0.122414
O O14 0.358043 0.733050 0.195446
O O15 0.905023 0.405023 0.922761
O O16 0.160520 0.660520 0.747790
#
# Coordination Sequence:
#
# PCOD8320346 Si02
#       6
#    32  32  32  32  32  32
#     4  11  19  27  39  60  94 135 169 192 218 260
#     4  10  21  36  51  65  84 118 165 208 241 277
#     4   9  17  28  44  68  94 119 147 186 236 287
#     4   9  16  29  48  66  86 116 155 196 236 279
#     4  11  21  32  45  65  95 127 161 199 236 272
#     4   9  15  25  42  64  89 119 154 189 229 275
#
# _framework density 16.618908999999999
#
# number of rings (size 3 to 8) (size 9 to 14) (size 15 to 20)
#    0.000    2.167    3.333    1.500    0.000    4.500 
#    0.000    1.667    0.000    3.000    0.000    0.000 
#    0.000    0.667    0.000    1.500    5.667    0.167 
#
# Total GULP energy -1189400.968913 kJ/mol
# GULP energy per Si atom -12389.593426 kJ/mol
# Density = 1.658108 g / cm^3
# Si number density = 16.618909 Si / 1000 Ang^3
#
#
#
# Elastic Constant Matrix: (Units=GPa)
#
#
# Indices 1 2 3 4 5 6 
#
# 1 54.2751 49.7974 17.4397 0.0000 0.0000 0.0000
# 2 49.7974 54.2751 17.4397 0.0000 0.0000 0.0000
# 3 17.4397 17.4397 58.9764 0.0000 0.0000 0.0000
# 4 0.0000 0.0000 0.0000 15.1053 0.0000 0.0000
# 5 0.0000 0.0000 0.0000 0.0000 15.1053 0.0000
# 6 0.0000 0.0000 0.0000 0.0000 0.0000 27.6512
#
#
#
# Elastic Compliance Matrix: (Units=1/GPa)
#
#
# Indices 1 2 3 4 5 6 
#
# 1 0.116996 -0.106330 -0.003154 0.000000 0.000000 0.000000
# 2 -0.106330 0.116996 -0.003154 0.000000 0.000000 0.000000
# 3 -0.003154 -0.003154 0.018821 0.000000 0.000000 0.000000
# 4 0.000000 0.000000 0.000000 0.066202 0.000000 0.000000
# 5 0.000000 0.000000 0.000000 0.000000 0.066202 0.000000
# 6 0.000000 0.000000 0.000000 0.000000 0.000000 0.036165
#
#
# Mechanical properties :
#
#
# Convention : Reuss Voigt Hill
#
# Bulk Modulus (GPa) = 36.31482 37.43111 36.87296
# Shear Modulus (GPa) = 7.62384 17.09567 12.35976
#
# Velocity S-wave (km/s) = 2.14416 3.21080 2.73007
# Velocity P-wave (km/s) = 5.29423 6.02642 5.67215
#
# Compressibility (1/GPa) = 0.02753697
#
# Stress axis : x y z
#
# Youngs Moduli (GPa) = 8.54731 8.54731 53.13156
#
# Poissons Ratio (x) = 0.90884 0.16757
# Poissons Ratio (y) = 0.90884 0.16757
# Poissons Ratio (z) = 0.02696 0.02696
#
# Static dielectric constant tensor:
#      x y z
#    x 3.043920 0.000000 0.000000 
#    y 0.000000 3.043920 0.000000 
#    z 0.000000 0.000000 3.028250 
# 
# 
# High freq. dielectric constant tensor:
#      x y z
#    x 1.606420 0.000000 0.000000 
#    y 0.000000 1.606420 0.000000 
#    z 0.000000 0.000000 1.630800 
# 
# From -- ./inp_files/10862.got.cif
#   From: 2010.06.25/outbox.cif.g09.slc.cpg/sg140_6_cif.got.tgz:10862.got - 2010.06.28 10:53:23.
