data_PCOD8320887
_publ_section_title
;
Structure prediction by ZEFSAII (Michael W. Deem and Ramdas Pophale) SiO2 
 PCOD8320887
Probable space group: I 41/A M D
;
_chemical_formula_sum "Si O2"
_cell_formula_units_Z 112
_cell_length_a 13.894778
_cell_length_b 13.894778
_cell_length_c 31.442716
_cell_angle_alpha 90.000000
_cell_angle_beta 90.000000
_cell_angle_gamma 90.000000
_cell_volume 6070.483426
_symmetry_space_group_name_H-M "I 41/A M D"
_symmetry_group_IT_number 141
_space_group.IT_coordinate_system_code '2'
_symmetry_cell_setting 'tetragonal'
loop_
_space_group_symop_operation_xyz
x,y,z
1/4-y,3/4+x,1/4+z
-x,1/2-y,z
1/4+y,1/4-x,3/4+z
x,-y,-z
-x,1/2+y,-z
1/4+y,3/4+x,1/4-z
1/4-y,1/4-x,3/4-z
-x,-y,-z
3/4+y,1/4-x,3/4-z
x,1/2+y,-z
3/4-y,3/4+x,1/4-z
-x,y,z
x,1/2-y,z
3/4-y,1/4-x,3/4+z
3/4+y,3/4+x,1/4+z
1/2+x,1/2+y,1/2+z
3/4-y,1/4+x,3/4+z
1/2-x,-y,1/2+z
3/4+y,3/4-x,1/4+z
1/2+x,1/2-y,1/2-z
1/2-x,y,1/2-z
3/4+y,1/4+x,3/4-z
3/4-y,3/4-x,1/4-z
1/2-x,1/2-y,1/2-z
1/4+y,3/4-x,1/4-z
1/2+x,y,1/2-z
1/4-y,1/4+x,3/4-z
1/2-x,1/2+y,1/2+z
1/2+x,-y,1/2+z
1/4-y,3/4-x,1/4+z
1/4+y,1/4+x,3/4+z
loop_
_atom_site_type_symbol
_atom_site_label
_atom_site_fract_x
_atom_site_fract_y
_atom_site_fract_z
Si Si1 0.864527 0.250000 0.752246
Si Si2 0.000000 0.413046 0.128929
Si Si3 0.000000 0.400661 0.626204
Si Si4 0.500000 0.617598 0.400343
Si Si5 0.843716 0.250000 0.527551
Si Si6 0.839342 0.250000 0.030681
Si Si7 0.000000 0.411453 0.531484
O O1 0.750000 0.250000 0.750000
O O2 0.902485 0.250000 0.800894
O O3 0.905891 0.154830 0.728772
O O4 0.908550 0.347619 0.121475
O O5 0.000000 0.502346 0.097020
O O6 0.000000 0.455371 0.176356
O O7 0.000000 0.455877 0.671197
O O8 0.000000 0.454170 0.580255
O O9 0.593475 0.656526 0.375000
O O10 0.757631 0.250000 0.495233
O O11 0.907106 0.153929 0.522522
O O12 0.000000 0.500000 0.500000
#
# Coordination Sequence:
#
# PCOD8320887 Si02
#       7
#    16  16  16  16  16  16  16
#     4  11  22  33  50  77 111 146 174 209 251 296
#     4   9  16  34  53  71  97 133 178 211 238 293
#     4   9  18  33  57  74  92 131 171 211 255 295
#     4  11  20  31  47  73 107 143 171 201 248 299
#     4   9  19  34  57  79 100 134 169 213 265 304
#     4  11  20  35  51  77 109 135 171 212 249 302
#     4   9  19  38  59  78  99 126 170 218 263 312
#
# _framework density 18.449929999999998
#
# number of rings (size 3 to 8) (size 9 to 14) (size 15 to 20)
#    0.000    2.143    0.000    8.571    0.000    1.143 
#    0.000    7.143    0.000    1.714    0.000    0.000 
#    0.000    0.000    0.000    0.000    0.000    0.000 
#
# Total GULP energy -693754.134923 kJ/mol
# GULP energy per Si atom -12388.466695 kJ/mol
# Density = 1.840794 g / cm^3
# Si number density = 18.449930 Si / 1000 Ang^3
#
#
#
# Elastic Constant Matrix: (Units=GPa)
#
#
# Indices 1 2 3 4 5 6 
#
# 1 106.7303 16.7118 39.7554 0.0000 0.0000 0.0000
# 2 16.7118 106.7315 39.7555 0.0000 0.0000 0.0000
# 3 39.7554 39.7555 170.4125 0.0000 0.0000 0.0000
# 4 0.0000 0.0000 0.0000 27.3110 0.0000 0.0000
# 5 0.0000 0.0000 0.0000 0.0000 27.3109 0.0000
# 6 0.0000 0.0000 0.0000 0.0000 0.0000 4.9327
#
#
#
# Elastic Compliance Matrix: (Units=1/GPa)
#
#
# Indices 1 2 3 4 5 6 
#
# 1 0.010321 -0.000788 -0.002224 0.000000 0.000000 0.000000
# 2 -0.000788 0.010321 -0.002224 0.000000 0.000000 0.000000
# 3 -0.002224 -0.002224 0.006906 0.000000 0.000000 0.000000
# 4 0.000000 0.000000 0.000000 0.036615 0.000000 0.000000
# 5 0.000000 0.000000 0.000000 0.000000 0.036615 0.000000
# 6 0.000000 0.000000 0.000000 0.000000 0.000000 0.202728
#
#
# Mechanical properties :
#
#
# Convention : Reuss Voigt Hill
#
# Bulk Modulus (GPa) = 58.55997 64.03553 61.29775
# Shear Modulus (GPa) = 15.64113 31.08770 23.36441
#
# Velocity S-wave (km/s) = 2.91479 4.10930 3.56247
# Velocity P-wave (km/s) = 6.56787 7.56956 7.08643
#
# Compressibility (1/GPa) = 0.01707651
#
# Stress axis : x y z
#
# Youngs Moduli (GPa) = 96.88825 96.88937 144.80558
#
# Poissons Ratio (x) = 0.07631 0.32206
# Poissons Ratio (y) = 0.07631 0.32205
# Poissons Ratio (z) = 0.21549 0.21549
#
# Static dielectric constant tensor:
#      x y z
#    x 3.209570 0.000000 0.000000 
#    y 0.000000 3.209570 0.000000 
#    z 0.000000 0.000000 3.843440 
# 
# 
# High freq. dielectric constant tensor:
#      x y z
#    x 1.696380 0.000000 0.000000 
#    y 0.000000 1.696380 0.000000 
#    z 0.000000 0.000000 1.742970 
# 
# From -- ./inp_files/12572.got.cif
#   From: 2010.03.12/outbox.cif.g09.slc.cpg/sg141_7_cif.got.tgz:12572.got - 2010.04.03 13:18:35.
