data_PCOD8320820
_publ_section_title
;
Structure prediction by ZEFSAII (Michael W. Deem and Ramdas Pophale) SiO2 
 PCOD8320820
Probable space group: I 41/A M D
;
_chemical_formula_sum "Si O2"
_cell_formula_units_Z 176
_cell_length_a 18.182178
_cell_length_b 18.182178
_cell_length_c 26.806764
_cell_angle_alpha 90.000000
_cell_angle_beta 90.000000
_cell_angle_gamma 90.000000
_cell_volume 8862.090916
_symmetry_space_group_name_H-M "I 41/A M D"
_symmetry_group_IT_number 141
_space_group.IT_coordinate_system_code '2'
_symmetry_cell_setting 'tetragonal'
loop_
_space_group_symop_operation_xyz
x,y,z
1/4-y,3/4+x,1/4+z
-x,1/2-y,z
1/4+y,1/4-x,3/4+z
x,-y,-z
-x,1/2+y,-z
1/4+y,3/4+x,1/4-z
1/4-y,1/4-x,3/4-z
-x,-y,-z
3/4+y,1/4-x,3/4-z
x,1/2+y,-z
3/4-y,3/4+x,1/4-z
-x,y,z
x,1/2-y,z
3/4-y,1/4-x,3/4+z
3/4+y,3/4+x,1/4+z
1/2+x,1/2+y,1/2+z
3/4-y,1/4+x,3/4+z
1/2-x,-y,1/2+z
3/4+y,3/4-x,1/4+z
1/2+x,1/2-y,1/2-z
1/2-x,y,1/2-z
3/4+y,1/4+x,3/4-z
3/4-y,3/4-x,1/4-z
1/2-x,1/2-y,1/2-z
1/4+y,3/4-x,1/4-z
1/2+x,y,1/2-z
1/4-y,1/4+x,3/4-z
1/2-x,1/2+y,1/2+z
1/2+x,-y,1/2+z
1/4-y,3/4-x,1/4+z
1/4+y,1/4+x,3/4+z
loop_
_atom_site_type_symbol
_atom_site_label
_atom_site_fract_x
_atom_site_fract_y
_atom_site_fract_z
Si Si1 0.085023 0.833366 0.488517
Si Si2 0.824749 0.335412 0.335005
Si Si3 0.084377 0.165154 0.059343
Si Si4 0.415122 0.431068 0.531696
Si Si5 0.687415 0.437415 0.625000
Si Si6 0.851314 0.083404 0.599649
O O1 0.103824 0.750000 0.505351
O O2 0.105933 0.890154 0.531919
O O3 0.131698 0.852622 0.439733
O O4 0.000000 0.840445 0.473867
O O5 0.864556 0.385445 0.375000
O O6 0.838245 0.250000 0.347612
O O7 0.738429 0.352363 0.334415
O O8 0.104124 0.250000 0.063819
O O9 0.139065 0.121134 0.095159
O O10 0.000000 0.149028 0.074871
O O11 0.097455 0.141090 0.002182
O O12 0.385324 0.500000 0.500000
O O13 0.500000 0.443005 0.545552
O O14 0.373585 0.423770 0.583463
O O15 0.682679 0.515378 0.652259
#
# Coordination Sequence:
#
# PCOD8320820 Si02
#       6
#    32  32  32  32  16  32
#     4  10  22  40  63  90 120 159 211 263 309 371
#     4  11  23  40  60  86 122 166 207 256 316 371
#     4  10  21  40  68  96 123 162 212 264 318 382
#     4  10  22  43  66  90 128 170 211 262 325 383
#     4  12  26  40  66  95 129 170 210 254 316 386
#     4  12  23  39  60  92 128 165 203 259 316 375
#
# _framework density 19.859871999999999
#
# number of rings (size 3 to 8) (size 9 to 14) (size 15 to 20)
#    0.000    1.273    2.727    3.273    0.000    8.182 
#    0.000    1.818    0.000    0.000    0.000    0.000 
#    0.000    0.000    0.000    0.000    0.000    0.000 
#
# Total GULP energy -1091706.317535 kJ/mol
# GULP energy per Si atom -12405.753608 kJ/mol
# Density = 1.981467 g / cm^3
# Si number density = 19.859872 Si / 1000 Ang^3
#
#
#
# Elastic Constant Matrix: (Units=GPa)
#
#
# Indices 1 2 3 4 5 6 
#
# 1 86.6844 30.3398 42.4030 0.0000 0.0000 0.0000
# 2 30.3398 86.6841 42.4010 0.0000 0.0000 0.0000
# 3 42.4030 42.4010 111.8293 0.0000 0.0000 0.0000
# 4 0.0000 0.0000 0.0000 37.1275 0.0000 0.0000
# 5 0.0000 0.0000 0.0000 0.0000 37.1285 0.0000
# 6 0.0000 0.0000 0.0000 0.0000 0.0000 30.0667
#
#
#
# Elastic Compliance Matrix: (Units=1/GPa)
#
#
# Indices 1 2 3 4 5 6 
#
# 1 0.014766 -0.002983 -0.004468 0.000000 0.000000 0.000000
# 2 -0.002983 0.014765 -0.004467 0.000000 0.000000 0.000000
# 3 -0.004468 -0.004467 0.012330 0.000000 0.000000 0.000000
# 4 0.000000 0.000000 0.000000 0.026934 0.000000 0.000000
# 5 0.000000 0.000000 0.000000 0.000000 0.026933 0.000000
# 6 0.000000 0.000000 0.000000 0.000000 0.000000 0.033259
#
#
# Mechanical properties :
#
#
# Convention : Reuss Voigt Hill
#
# Bulk Modulus (GPa) = 55.47787 57.27616 56.37702
# Shear Modulus (GPa) = 31.47975 32.20148 31.84062
#
# Velocity S-wave (km/s) = 3.98564 4.03107 4.00842
# Velocity P-wave (km/s) = 7.01254 7.11118 7.06203
#
# Compressibility (1/GPa) = 0.01802520
#
# Stress axis : x y z
#
# Youngs Moduli (GPa) = 67.72532 67.72645 81.10174
#
# Poissons Ratio (x) = 0.20200 0.36235
# Poissons Ratio (y) = 0.20199 0.36232
# Poissons Ratio (z) = 0.30259 0.30257
#
# Static dielectric constant tensor:
#      x y z
#    x 3.675200 0.000000 0.000000 
#    y 0.000000 3.675210 0.000000 
#    z 0.000000 0.000000 3.583520 
# 
# 
# High freq. dielectric constant tensor:
#      x y z
#    x 1.779050 0.000000 0.000000 
#    y 0.000000 1.779050 0.000000 
#    z 0.000000 0.000000 1.777830 
# 
# From -- ./inp_files/12863.got.cif
#   From: 2010.03.12/outbox.cif.g09.slc.cpg/sg141_7_cif.got.tgz:12863.got - 2010.04.03 13:18:35.
