data_PCOD8320251
_publ_section_title
;
Structure prediction by ZEFSAII (Michael W. Deem and Ramdas Pophale) SiO2 
 PCOD8320251
Probable space group: I 4/M C M
;
_chemical_formula_sum "Si O2"
_cell_formula_units_Z 160
_cell_length_a 30.424957
_cell_length_b 30.424957
_cell_length_c 8.565385
_cell_angle_alpha 90.000000
_cell_angle_beta 90.000000
_cell_angle_gamma 90.000000
_cell_volume 7928.788528
_symmetry_space_group_name_H-M "I 4/M C M"
_symmetry_group_IT_number 140
_symmetry_cell_setting 'tetragonal'
loop_
_space_group_symop_operation_xyz
x,y,z
-y,x,z
-x,-y,z
y,-x,z
x,-y,1/2-z
-x,y,1/2-z
y,x,1/2-z
-y,-x,1/2-z
-x,-y,-z
y,-x,-z
x,y,-z
-y,x,-z
-x,y,1/2+z
x,-y,1/2+z
-y,-x,1/2+z
y,x,1/2+z
1/2+x,1/2+y,1/2+z
1/2-y,1/2+x,1/2+z
1/2-x,1/2-y,1/2+z
1/2+y,1/2-x,1/2+z
1/2+x,1/2-y,-z
1/2-x,1/2+y,-z
1/2+y,1/2+x,-z
1/2-y,1/2-x,-z
1/2-x,1/2-y,1/2-z
1/2+y,1/2-x,1/2-z
1/2+x,1/2+y,1/2-z
1/2-y,1/2+x,1/2-z
1/2-x,1/2+y,z
1/2+x,1/2-y,z
1/2-y,1/2-x,z
1/2+y,1/2+x,z
loop_
_atom_site_type_symbol
_atom_site_label
_atom_site_fract_x
_atom_site_fract_y
_atom_site_fract_z
Si Si1 0.710620 0.547698 0.184808
Si Si2 0.885709 0.614292 0.318413
Si Si3 0.881812 0.951014 0.814595
Si Si4 0.546822 0.953179 0.317289
Si Si5 0.791256 0.608170 0.819021
Si Si6 0.255872 0.314803 0.330080
O O1 0.719812 0.500000 0.250000
O O2 0.665925 0.567122 0.260065
O O3 0.753386 0.574881 0.236001
O O4 0.704312 0.547164 0.000000
O O5 0.893692 0.606309 0.500000
O O6 0.917060 0.582941 0.220790
O O7 0.835542 0.601716 0.279286
O O8 0.919551 0.919551 0.750000
O O9 0.889532 0.000000 0.750000
O O10 0.883890 0.952166 0.000000
O O11 0.500000 0.938028 0.250000
O O12 0.541754 0.958247 0.500000
O O13 0.772166 0.656055 0.787858
O O14 0.803239 0.602786 0.000000
O O15 0.302661 0.302661 0.250000
O O16 0.263797 0.337675 0.500000
O O17 0.229908 0.270093 0.360485
#
# Coordination Sequence:
#
# PCOD8320251 Si02
#       6
#    32  16  32  16  32  32
#     4  10  22  40  61  86 116 156 200 245 298 354
#     4  12  25  41  63  93 127 163 204 251 305 363
#     4  11  22  39  63  91 124 161 203 252 306 364
#     4  11  23  44  71  99 129 161 198 243 299 363
#     4  11  23  39  60  86 120 158 201 252 304 358
#     4  10  20  34  54  80 110 148 190 235 289 345
#
# _framework density 20.179628000000001
#
# number of rings (size 3 to 8) (size 9 to 14) (size 15 to 20)
#    0.000    1.300    1.000    6.900    0.000    5.800 
#    0.000    3.000    0.000    0.000    0.000    0.000 
#    0.000    0.000    0.000    0.000    0.000    0.000 
#
# Total GULP energy -991945.338606 kJ/mol
# GULP energy per Si atom -12399.316733 kJ/mol
# Density = 2.013370 g / cm^3
# Si number density = 20.179628 Si / 1000 Ang^3
#
#
#
# Elastic Constant Matrix: (Units=GPa)
#
#
# Indices 1 2 3 4 5 6 
#
# 1 -29.7583 208.5557 42.3944 0.0000 0.0000 0.0000
# 2 208.5557 -29.7760 42.3838 0.0000 0.0000 0.0000
# 3 42.3944 42.3838 129.9930 0.0000 0.0000 0.0000
# 4 0.0000 0.0000 0.0000 29.9600 0.0000 0.0000
# 5 0.0000 0.0000 0.0000 0.0000 29.9592 0.0000
# 6 0.0000 0.0000 0.0000 0.0000 0.0000 41.4001
#
#
#
# Elastic Compliance Matrix: (Units=1/GPa)
#
#
# Indices 1 2 3 4 5 6 
#
# 1 0.001210 0.005406 -0.002157 0.000000 0.000000 0.000000
# 2 0.005406 0.001210 -0.002158 0.000000 0.000000 0.000000
# 3 -0.002157 -0.002158 0.009100 0.000000 0.000000 0.000000
# 4 0.000000 0.000000 0.000000 0.033378 0.000000 0.000000
# 5 0.000000 0.000000 0.000000 0.000000 0.033379 0.000000
# 6 0.000000 0.000000 0.000000 0.000000 0.000000 0.024155
#
#
# Mechanical properties :
#
#
# Convention : Reuss Voigt Hill
#
# Bulk Modulus (GPa) = 72.98018 73.01406 72.99712
# Shear Modulus (GPa) = 47.70252 5.40551 26.55402
#
# Velocity S-wave (km/s) = 4.86726 1.63845 3.63144
# Velocity P-wave (km/s) = 8.23595 6.31189 7.33726
#
# Compressibility (1/GPa) = 0.01370235
#
# Stress axis : x y z
#
# Youngs Moduli (GPa) = 826.26186 826.46571 109.89289
#
# Poissons Ratio (x) = -4.46796 0.23708
# Poissons Ratio (y) = -4.46686 0.23710
# Poissons Ratio (z) = 1.78253 1.78318
#
# Static dielectric constant tensor:
#      x y z
#    x 3.723320 0.000000 0.000000 
#    y 0.000000 3.723330 0.000000 
#    z 0.000000 0.000000 4.010300 
# 
# 
# High freq. dielectric constant tensor:
#      x y z
#    x 1.785700 0.000000 0.000000 
#    y 0.000000 1.785700 0.000000 
#    z 0.000000 0.000000 1.809960 
# 
# From -- ./inp_files/1841.got.cif
#   From: 2010.06.25/outbox.cif.g09.slc.cpg/sg140_1_cif.got.tgz:1841.got - 2010.06.28 10:53:23.
