data_PCOD8320832
_publ_section_title
;
Structure prediction by ZEFSAII (Michael W. Deem and Ramdas Pophale) SiO2 
 PCOD8320832
Probable space group: I 41/A M D
;
_chemical_formula_sum "Si O2"
_cell_formula_units_Z 128
_cell_length_a 19.659206
_cell_length_b 19.659206
_cell_length_c 18.288921
_cell_angle_alpha 90.000000
_cell_angle_beta 90.000000
_cell_angle_gamma 90.000000
_cell_volume 7068.382304
_symmetry_space_group_name_H-M "I 41/A M D"
_symmetry_group_IT_number 141
_space_group.IT_coordinate_system_code '2'
_symmetry_cell_setting 'tetragonal'
loop_
_space_group_symop_operation_xyz
x,y,z
1/4-y,3/4+x,1/4+z
-x,1/2-y,z
1/4+y,1/4-x,3/4+z
x,-y,-z
-x,1/2+y,-z
1/4+y,3/4+x,1/4-z
1/4-y,1/4-x,3/4-z
-x,-y,-z
3/4+y,1/4-x,3/4-z
x,1/2+y,-z
3/4-y,3/4+x,1/4-z
-x,y,z
x,1/2-y,z
3/4-y,1/4-x,3/4+z
3/4+y,3/4+x,1/4+z
1/2+x,1/2+y,1/2+z
3/4-y,1/4+x,3/4+z
1/2-x,-y,1/2+z
3/4+y,3/4-x,1/4+z
1/2+x,1/2-y,1/2-z
1/2-x,y,1/2-z
3/4+y,1/4+x,3/4-z
3/4-y,3/4-x,1/4-z
1/2-x,1/2-y,1/2-z
1/4+y,3/4-x,1/4-z
1/2+x,y,1/2-z
1/4-y,1/4+x,3/4-z
1/2-x,1/2+y,1/2+z
1/2+x,-y,1/2+z
1/4-y,3/4-x,1/4+z
1/4+y,1/4+x,3/4+z
loop_
_atom_site_type_symbol
_atom_site_label
_atom_site_fract_x
_atom_site_fract_y
_atom_site_fract_z
Si Si1 0.000000 0.670687 0.986634
Si Si2 0.354814 0.826813 0.574142
Si Si3 0.204941 0.867903 0.077251
Si Si4 0.500000 0.038532 0.574295
Si Si5 0.817794 0.523319 0.422160
O O1 0.065565 0.655456 0.935644
O O2 0.000000 0.750000 0.013383
O O3 0.000000 0.620153 0.057236
O O4 0.345977 0.750000 0.603362
O O5 0.319127 0.832305 0.496119
O O6 0.318048 0.876345 0.630964
O O7 0.140983 0.890983 0.125000
O O8 0.239995 0.813245 0.129611
O O9 0.253189 0.930536 0.058123
O O10 0.500000 0.000000 0.500000
O O11 0.849002 0.500000 0.500000
O O12 0.791786 0.458215 0.375000
#
# Coordination Sequence:
#
# PCOD8320832 Si02
#       5
#    16  32  32  16  32
#     4  10  22  38  56  86 132 166 194 233 286 355
#     4  11  22  40  58  87 118 158 200 238 295 358
#     4  11  22  33  54  83 118 155 194 235 280 351
#     4  12  22  34  54  82 119 160 203 233 281 343
#     4  11  23  40  61  83 114 149 197 256 307 344
#
# _framework density 18.108812
#
# number of rings (size 3 to 8) (size 9 to 14) (size 15 to 20)
#    0.000    1.000    6.250    1.500    0.000    0.500 
#    2.250    0.000    0.000    0.000    0.000    0.000 
#    0.000    0.000    0.000    0.000    0.000    0.000 
#
# Total GULP energy -793369.579623 kJ/mol
# GULP energy per Si atom -12396.399682 kJ/mol
# Density = 1.806760 g / cm^3
# Si number density = 18.108812 Si / 1000 Ang^3
#
#
#
# Elastic Constant Matrix: (Units=GPa)
#
#
# Indices 1 2 3 4 5 6 
#
# 1 67.2794 26.0351 36.5369 0.0000 0.0000 0.0000
# 2 26.0351 67.2823 36.5372 0.0000 0.0000 0.0000
# 3 36.5369 36.5372 113.9254 0.0000 0.0000 0.0000
# 4 0.0000 0.0000 0.0000 30.8633 0.0000 0.0000
# 5 0.0000 0.0000 0.0000 0.0000 30.8631 0.0000
# 6 0.0000 0.0000 0.0000 0.0000 0.0000 28.4779
#
#
#
# Elastic Compliance Matrix: (Units=1/GPa)
#
#
# Indices 1 2 3 4 5 6 
#
# 1 0.019278 -0.004967 -0.004590 0.000000 0.000000 0.000000
# 2 -0.004967 0.019277 -0.004589 0.000000 0.000000 0.000000
# 3 -0.004590 -0.004589 0.011721 0.000000 0.000000 0.000000
# 4 0.000000 0.000000 0.000000 0.032401 0.000000 0.000000
# 5 0.000000 0.000000 0.000000 0.000000 0.032401 0.000000
# 6 0.000000 0.000000 0.000000 0.000000 0.000000 0.035115
#
#
# Mechanical properties :
#
#
# Convention : Reuss Voigt Hill
#
# Bulk Modulus (GPa) = 45.48743 49.63393 47.56068
# Shear Modulus (GPa) = 26.90860 27.99936 27.45398
#
# Velocity S-wave (km/s) = 3.85897 3.93641 3.89788
# Velocity P-wave (km/s) = 6.71037 6.93748 6.82487
#
# Compressibility (1/GPa) = 0.02198409
#
# Stress axis : x y z
#
# Youngs Moduli (GPa) = 51.87252 51.87508 85.31389
#
# Poissons Ratio (x) = 0.25768 0.39155
# Poissons Ratio (y) = 0.25767 0.39153
# Poissons Ratio (z) = 0.23807 0.23807
#
# Static dielectric constant tensor:
#      x y z
#    x 3.417860 0.000000 0.000000 
#    y 0.000000 3.417860 0.000000 
#    z 0.000000 0.000000 3.224480 
# 
# 
# High freq. dielectric constant tensor:
#      x y z
#    x 1.701490 0.000000 0.000000 
#    y 0.000000 1.701490 0.000000 
#    z 0.000000 0.000000 1.688360 
# 
# From -- ./inp_files/6214.got.cif
#   From: 2010.03.12/outbox.cif.g09.slc.cpg/sg141_4_cif.got.tgz:6214.got - 2010.04.03 13:18:35.
