data_PCOD8320677
_publ_section_title
;
Structure prediction by ZEFSAII (Michael W. Deem and Ramdas Pophale) SiO2 
 PCOD8320677
Probable space group: I 41/A M D
;
_chemical_formula_sum "Si O2"
_cell_formula_units_Z 112
_cell_length_a 18.080709
_cell_length_b 18.080709
_cell_length_c 17.986526
_cell_angle_alpha 90.000000
_cell_angle_beta 90.000000
_cell_angle_gamma 90.000000
_cell_volume 5880.011870
_symmetry_space_group_name_H-M "I 41/A M D"
_symmetry_group_IT_number 141
_space_group.IT_coordinate_system_code '2'
_symmetry_cell_setting 'tetragonal'
loop_
_space_group_symop_operation_xyz
x,y,z
1/4-y,3/4+x,1/4+z
-x,1/2-y,z
1/4+y,1/4-x,3/4+z
x,-y,-z
-x,1/2+y,-z
1/4+y,3/4+x,1/4-z
1/4-y,1/4-x,3/4-z
-x,-y,-z
3/4+y,1/4-x,3/4-z
x,1/2+y,-z
3/4-y,3/4+x,1/4-z
-x,y,z
x,1/2-y,z
3/4-y,1/4-x,3/4+z
3/4+y,3/4+x,1/4+z
1/2+x,1/2+y,1/2+z
3/4-y,1/4+x,3/4+z
1/2-x,-y,1/2+z
3/4+y,3/4-x,1/4+z
1/2+x,1/2-y,1/2-z
1/2-x,y,1/2-z
3/4+y,1/4+x,3/4-z
3/4-y,3/4-x,1/4-z
1/2-x,1/2-y,1/2-z
1/4+y,3/4-x,1/4-z
1/2+x,y,1/2-z
1/4-y,1/4+x,3/4-z
1/2-x,1/2+y,1/2+z
1/2+x,-y,1/2+z
1/4-y,3/4-x,1/4+z
1/4+y,1/4+x,3/4+z
loop_
_atom_site_type_symbol
_atom_site_label
_atom_site_fract_x
_atom_site_fract_y
_atom_site_fract_z
Si Si1 0.340096 0.337359 0.054632
Si Si2 0.086625 0.836625 0.125000
Si Si3 0.081795 0.162887 0.155697
Si Si4 0.325841 0.337357 0.479938
O O1 0.345226 0.250000 0.073857
O O2 0.364770 0.385231 0.125000
O O3 0.258981 0.361421 0.027124
O O4 0.393639 0.361147 0.987552
O O5 0.100186 0.750000 0.142642
O O6 0.115330 0.885441 0.194467
O O7 0.079522 0.250000 0.147596
O O8 0.132524 0.127866 0.091427
O O9 0.000000 0.128500 0.145875
O O10 0.333591 0.250000 0.477963
#
# Coordination Sequence:
#
# PCOD8320677 Si02
#       4
#    32  16  32  32
#     4  10  20  33  51  74 102 137 174 213 255 302
#     4   9  16  30  56  84 106 130 166 214 262 309
#     4   9  17  31  53  78 101 128 168 216 259 301
#     4   9  18  32  52  77 103 133 169 209 257 309
#
# _framework density 19.047581000000001
#
# number of rings (size 3 to 8) (size 9 to 14) (size 15 to 20)
#    0.000    2.714    0.000    1.714    0.000    6.000 
#    0.000    5.714    9.429    6.857    0.000    0.000 
#    0.000    0.000    0.000    0.000    0.000    0.000 
#
# Total GULP energy -694195.740045 kJ/mol
# GULP energy per Si atom -12396.352501 kJ/mol
# Density = 1.900423 g / cm^3
# Si number density = 19.047581 Si / 1000 Ang^3
#
#
#
# Elastic Constant Matrix: (Units=GPa)
#
#
# Indices 1 2 3 4 5 6 
#
# 1 45.6056 35.0969 46.0927 0.0000 0.0000 0.0000
# 2 35.0969 45.6042 46.0913 0.0000 0.0000 0.0000
# 3 46.0927 46.0913 153.1740 0.0000 0.0000 0.0000
# 4 0.0000 0.0000 0.0000 15.6887 0.0000 0.0000
# 5 0.0000 0.0000 0.0000 0.0000 15.6885 0.0000
# 6 0.0000 0.0000 0.0000 0.0000 0.0000 12.9583
#
#
#
# Elastic Compliance Matrix: (Units=1/GPa)
#
#
# Indices 1 2 3 4 5 6 
#
# 1 0.057023 -0.038142 -0.005682 0.000000 0.000000 0.000000
# 2 -0.038142 0.057024 -0.005681 0.000000 0.000000 0.000000
# 3 -0.005682 -0.005681 0.009948 0.000000 0.000000 0.000000
# 4 0.000000 0.000000 0.000000 0.063740 0.000000 0.000000
# 5 0.000000 0.000000 0.000000 0.000000 0.063741 0.000000
# 6 0.000000 0.000000 0.000000 0.000000 0.000000 0.077171
#
#
# Mechanical properties :
#
#
# Convention : Reuss Voigt Hill
#
# Bulk Modulus (GPa) = 40.02566 55.43840 47.73203
# Shear Modulus (GPa) = 11.46824 16.67394 14.07109
#
# Velocity S-wave (km/s) = 2.45640 2.96190 2.72091
# Velocity P-wave (km/s) = 5.39484 6.39261 5.91481
#
# Compressibility (1/GPa) = 0.02498397
#
# Stress axis : x y z
#
# Youngs Moduli (GPa) = 17.53671 17.53640 100.52404
#
# Poissons Ratio (x) = 0.66888 0.57117
# Poissons Ratio (y) = 0.66889 0.57111
# Poissons Ratio (z) = 0.09964 0.09963
#
# Static dielectric constant tensor:
#      x y z
#    x 3.344720 0.000000 0.000000 
#    y 0.000000 3.344730 0.000000 
#    z 0.000000 0.000000 3.712660 
# 
# 
# High freq. dielectric constant tensor:
#      x y z
#    x 1.715150 0.000000 0.000000 
#    y 0.000000 1.715150 0.000000 
#    z 0.000000 0.000000 1.756920 
# 
# From -- ./inp_files/7909.got.cif
#   From: 2010.03.12/outbox.cif.g09.slc.cpg/sg141_4_cif.got.tgz:7909.got - 2010.04.03 13:18:35.
