data_PCOD8320260
_publ_section_title
;
Structure prediction by ZEFSAII (Michael W. Deem and Ramdas Pophale) SiO2 
 PCOD8320260
Probable space group: I 4/M C M
;
_chemical_formula_sum "Si O2"
_cell_formula_units_Z 192
_cell_length_a 19.369607
_cell_length_b 19.369607
_cell_length_c 24.200003
_cell_angle_alpha 90.000000
_cell_angle_beta 90.000000
_cell_angle_gamma 90.000000
_cell_volume 9079.397669
_symmetry_space_group_name_H-M "I 4/M C M"
_symmetry_group_IT_number 140
_symmetry_cell_setting 'tetragonal'
loop_
_space_group_symop_operation_xyz
x,y,z
-y,x,z
-x,-y,z
y,-x,z
x,-y,1/2-z
-x,y,1/2-z
y,x,1/2-z
-y,-x,1/2-z
-x,-y,-z
y,-x,-z
x,y,-z
-y,x,-z
-x,y,1/2+z
x,-y,1/2+z
-y,-x,1/2+z
y,x,1/2+z
1/2+x,1/2+y,1/2+z
1/2-y,1/2+x,1/2+z
1/2-x,1/2-y,1/2+z
1/2+y,1/2-x,1/2+z
1/2+x,1/2-y,-z
1/2-x,1/2+y,-z
1/2+y,1/2+x,-z
1/2-y,1/2-x,-z
1/2-x,1/2-y,1/2-z
1/2+y,1/2-x,1/2-z
1/2+x,1/2+y,1/2-z
1/2-y,1/2+x,1/2-z
1/2-x,1/2+y,z
1/2+x,1/2-y,z
1/2-y,1/2-x,z
1/2+y,1/2+x,z
loop_
_atom_site_type_symbol
_atom_site_label
_atom_site_fract_x
_atom_site_fract_y
_atom_site_fract_z
Si Si1 0.606103 0.466288 0.657077
Si Si2 0.686629 0.918730 0.373104
Si Si3 0.295718 0.499296 0.935718
Si Si4 0.347393 0.041135 0.196287
Si Si5 0.299537 0.358374 0.804868
Si Si6 0.367689 0.244598 0.873928
O O1 0.585330 0.543793 0.670381
O O2 0.634161 0.473694 0.594365
O O3 0.664320 0.434323 0.697104
O O4 0.632488 0.867513 0.401671
O O5 0.721020 0.877945 0.320212
O O6 0.739701 0.941318 0.420237
O O7 0.644403 0.985441 0.352380
O O8 0.267798 0.575376 0.918820
O O9 0.311375 0.499083 0.000000
O O10 0.419917 0.080084 0.205169
O O11 0.286452 0.094238 0.180215
O O12 0.323794 0.000000 0.250000
O O13 0.312233 0.312233 0.750000
O O14 0.327765 0.313454 0.856208
O O15 0.313420 0.186581 0.897302
#
# Coordination Sequence:
#
# PCOD8320260 Si02
#       6
#    32  32  32  32  32  32
#     4  10  21  40  61  88 122 153 196 243 295 357
#     4  10  22  38  56  86 123 155 198 251 297 351
#     4  10  22  41  63  86 115 154 202 253 304 357
#     4  10  20  34  56  84 116 155 198 240 290 350
#     4  11  22  37  61  88 123 164 199 236 291 360
#     4  10  21  39  59  84 119 156 198 248 297 356
#
# _framework density 21.146777
#
# number of rings (size 3 to 8) (size 9 to 14) (size 15 to 20)
#    0.000    1.833    1.667    2.000    0.000    5.833 
#    0.000    1.667    0.000    2.000    0.000    4.667 
#    0.000    0.000    0.000    0.000    0.000    0.000 
#
# Total GULP energy -1189350.294950 kJ/mol
# GULP energy per Si atom -12389.065572 kJ/mol
# Density = 2.109865 g / cm^3
# Si number density = 21.146777 Si / 1000 Ang^3
#
#
#
# Elastic Constant Matrix: (Units=GPa)
#
#
# Indices 1 2 3 4 5 6 
#
# 1 67.8749 38.2184 -9.4201 0.0000 0.0000 0.0000
# 2 38.2184 67.8749 -9.4201 0.0000 0.0000 0.0000
# 3 -9.4201 -9.4201 37.7327 0.0000 0.0000 0.0000
# 4 0.0000 0.0000 0.0000 14.3992 0.0000 0.0000
# 5 0.0000 0.0000 0.0000 0.0000 14.3992 0.0000
# 6 0.0000 0.0000 0.0000 0.0000 0.0000 23.9611
#
#
#
# Elastic Compliance Matrix: (Units=1/GPa)
#
#
# Indices 1 2 3 4 5 6 
#
# 1 0.021791 -0.011928 0.002462 0.000000 0.000000 0.000000
# 2 -0.011928 0.021791 0.002462 0.000000 0.000000 0.000000
# 3 0.002462 0.002462 0.027732 0.000000 0.000000 0.000000
# 4 0.000000 0.000000 0.000000 0.069448 0.000000 0.000000
# 5 0.000000 0.000000 0.000000 0.000000 0.069448 0.000000
# 6 0.000000 0.000000 0.000000 0.000000 0.000000 0.041734
#
#
# Mechanical properties :
#
#
# Convention : Reuss Voigt Hill
#
# Bulk Modulus (GPa) = 17.44994 23.58209 20.51602
# Shear Modulus (GPa) = 17.54049 20.82550 19.18299
#
# Velocity S-wave (km/s) = 2.88317 3.14157 3.01514
# Velocity P-wave (km/s) = 4.39923 4.93306 4.67378
#
# Compressibility (1/GPa) = 0.05730678
#
# Stress axis : x y z
#
# Youngs Moduli (GPa) = 45.89016 45.89017 36.05984
#
# Poissons Ratio (x) = 0.54739 -0.08879
# Poissons Ratio (y) = 0.54739 -0.08879
# Poissons Ratio (z) = -0.11300 -0.11300
#
# Static dielectric constant tensor:
#      x y z
#    x 4.024560 0.000000 0.000000 
#    y 0.000000 4.024560 0.000000 
#    z 0.000000 0.000000 3.258340 
# 
# 
# High freq. dielectric constant tensor:
#      x y z
#    x 1.843700 0.000000 0.000000 
#    y 0.000000 1.843700 0.000000 
#    z 0.000000 0.000000 1.774760 
# 
# From -- ./inp_files/9780.got.cif
#   From: 2010.06.25/outbox.cif.g09.slc.cpg/sg140_5_cif.got.tgz:9780.got - 2010.06.28 10:53:23.
