data_PCOD8320081
_publ_section_title
;
Structure prediction by ZEFSAII (Michael W. Deem and Ramdas Pophale) SiO2 
 PCOD8320081
Probable space group: I 4/M C M
;
_chemical_formula_sum "Si O2"
_cell_formula_units_Z 128
_cell_length_a 20.094924
_cell_length_b 20.094924
_cell_length_c 14.909071
_cell_angle_alpha 90.000000
_cell_angle_beta 90.000000
_cell_angle_gamma 90.000000
_cell_volume 6020.371885
_symmetry_space_group_name_H-M "I 4/M C M"
_symmetry_group_IT_number 140
_symmetry_cell_setting 'tetragonal'
loop_
_space_group_symop_operation_xyz
x,y,z
-y,x,z
-x,-y,z
y,-x,z
x,-y,1/2-z
-x,y,1/2-z
y,x,1/2-z
-y,-x,1/2-z
-x,-y,-z
y,-x,-z
x,y,-z
-y,x,-z
-x,y,1/2+z
x,-y,1/2+z
-y,-x,1/2+z
y,x,1/2+z
1/2+x,1/2+y,1/2+z
1/2-y,1/2+x,1/2+z
1/2-x,1/2-y,1/2+z
1/2+y,1/2-x,1/2+z
1/2+x,1/2-y,-z
1/2-x,1/2+y,-z
1/2+y,1/2+x,-z
1/2-y,1/2-x,-z
1/2-x,1/2-y,1/2-z
1/2+y,1/2-x,1/2-z
1/2+x,1/2+y,1/2-z
1/2-y,1/2+x,1/2-z
1/2-x,1/2+y,z
1/2+x,1/2-y,z
1/2-y,1/2-x,z
1/2+y,1/2+x,z
loop_
_atom_site_type_symbol
_atom_site_label
_atom_site_fract_x
_atom_site_fract_y
_atom_site_fract_z
Si Si1 0.829349 0.902888 0.500000
Si Si2 0.980817 0.377060 0.601301
Si Si3 0.558181 0.695879 0.000000
Si Si4 0.875665 0.729347 0.853624
Si Si5 0.401529 0.204361 0.155526
O O1 0.903737 0.874340 0.500000
O O2 0.797235 0.873468 0.590893
O O3 0.826300 0.982086 0.500000
O O4 0.006946 0.388175 0.500000
O O5 0.944872 0.444872 0.637140
O O6 0.927182 0.318548 0.596958
O O7 0.043228 0.354886 0.662073
O O8 0.576597 0.740221 0.914492
O O9 0.802135 0.697866 0.855677
O O10 0.897746 0.741197 0.751060
O O11 0.331063 0.168937 0.131617
#
# Coordination Sequence:
#
# PCOD8320081 Si02
#       5
#    16  32  16  32  32
#     4  12  25  46  69  90 121 156 208 267 330 387
#     4  10  18  32  58  92 131 179 215 244 292 353
#     4  12  27  44  67  91 120 161 203 268 327 382
#     4  10  20  37  66  94 126 169 207 247 301 373
#     4  11  22  38  62  98 135 168 211 254 301 364
#
# _framework density 21.261144999999999
#
# number of rings (size 3 to 8) (size 9 to 14) (size 15 to 20)
#    0.000    1.250    5.000    1.500    0.000    3.750 
#    0.000    3.750    0.000    4.500    0.000    3.500 
#    0.000    0.000    0.000    0.000    0.000    0.000 
#
# Total GULP energy -793391.730487 kJ/mol
# GULP energy per Si atom -12396.745789 kJ/mol
# Density = 2.121275 g / cm^3
# Si number density = 21.261145 Si / 1000 Ang^3
#
#
#
# Elastic Constant Matrix: (Units=GPa)
#
#
# Indices 1 2 3 4 5 6 
#
# 1 82.2516 78.0583 53.2120 0.0000 0.0000 0.0000
# 2 78.0583 82.2516 53.2120 0.0000 0.0000 0.0000
# 3 53.2120 53.2120 135.6772 0.0000 0.0000 0.0000
# 4 0.0000 0.0000 0.0000 36.3160 0.0000 0.0000
# 5 0.0000 0.0000 0.0000 0.0000 36.3160 0.0000
# 6 0.0000 0.0000 0.0000 0.0000 0.0000 36.8167
#
#
#
# Elastic Compliance Matrix: (Units=1/GPa)
#
#
# Indices 1 2 3 4 5 6 
#
# 1 0.123456 -0.115022 -0.003308 0.000000 0.000000 0.000000
# 2 -0.115022 0.123456 -0.003308 0.000000 0.000000 0.000000
# 3 -0.003308 -0.003308 0.009965 0.000000 0.000000 0.000000
# 4 0.000000 0.000000 0.000000 0.027536 0.000000 0.000000
# 5 0.000000 0.000000 0.000000 0.000000 0.027536 0.000000
# 6 0.000000 0.000000 0.000000 0.000000 0.000000 0.027162
#
#
# Mechanical properties :
#
#
# Convention : Reuss Voigt Hill
#
# Bulk Modulus (GPa) = 73.51995 74.34944 73.93469
# Shear Modulus (GPa) = 8.51907 29.60294 19.06101
#
# Velocity S-wave (km/s) = 2.00389 3.73547 2.99744
# Velocity P-wave (km/s) = 6.32524 7.32465 6.84321
#
# Compressibility (1/GPa) = 0.01360175
#
# Stress axis : x y z
#
# Youngs Moduli (GPa) = 8.10008 8.10008 100.35171
#
# Poissons Ratio (x) = 0.93169 0.33193
# Poissons Ratio (y) = 0.93169 0.33193
# Poissons Ratio (z) = 0.02679 0.02679
#
# Static dielectric constant tensor:
#      x y z
#    x 3.718510 0.000000 0.000000 
#    y 0.000000 3.718510 0.000000 
#    z 0.000000 0.000000 3.822310 
# 
# 
# High freq. dielectric constant tensor:
#      x y z
#    x 1.814020 0.000000 0.000000 
#    y 0.000000 1.814020 0.000000 
#    z 0.000000 0.000000 1.841750 
# 
# From -- ./inp_files/4372.got.cif
#   From: 2010.06.25/outbox.cif.g09.slc.cpg/sg140_3_cif.got.tgz:4372.got - 2010.06.28 10:53:23.
