data_PCOD8320182
_publ_section_title
;
Structure prediction by ZEFSAII (Michael W. Deem and Ramdas Pophale) SiO2 
 PCOD8320182
Probable space group: I 4/M C M
;
_chemical_formula_sum "Si O2"
_cell_formula_units_Z 160
_cell_length_a 21.923548
_cell_length_b 21.923548
_cell_length_c 18.668613
_cell_angle_alpha 90.000000
_cell_angle_beta 90.000000
_cell_angle_gamma 90.000000
_cell_volume 8972.918685
_symmetry_space_group_name_H-M "I 4/M C M"
_symmetry_group_IT_number 140
_symmetry_cell_setting 'tetragonal'
loop_
_space_group_symop_operation_xyz
x,y,z
-y,x,z
-x,-y,z
y,-x,z
x,-y,1/2-z
-x,y,1/2-z
y,x,1/2-z
-y,-x,1/2-z
-x,-y,-z
y,-x,-z
x,y,-z
-y,x,-z
-x,y,1/2+z
x,-y,1/2+z
-y,-x,1/2+z
y,x,1/2+z
1/2+x,1/2+y,1/2+z
1/2-y,1/2+x,1/2+z
1/2-x,1/2-y,1/2+z
1/2+y,1/2-x,1/2+z
1/2+x,1/2-y,-z
1/2-x,1/2+y,-z
1/2+y,1/2+x,-z
1/2-y,1/2-x,-z
1/2-x,1/2-y,1/2-z
1/2+y,1/2-x,1/2-z
1/2+x,1/2+y,1/2-z
1/2-y,1/2+x,1/2-z
1/2-x,1/2+y,z
1/2+x,1/2-y,z
1/2-y,1/2-x,z
1/2+y,1/2+x,z
loop_
_atom_site_type_symbol
_atom_site_label
_atom_site_fract_x
_atom_site_fract_y
_atom_site_fract_z
Si Si1 0.654718 0.653378 0.917381
Si Si2 0.830867 0.568275 0.722954
Si Si3 0.612120 0.211042 0.579848
Si Si4 0.429679 0.429026 0.170245
Si Si5 0.259231 0.657745 0.294647
O O1 0.626991 0.719613 0.902248
O O2 0.604703 0.605360 0.892527
O O3 0.717123 0.641864 0.873959
O O4 0.670547 0.643198 0.000000
O O5 0.842794 0.500000 0.750000
O O6 0.891029 0.608972 0.738755
O O7 0.816960 0.565227 0.637643
O O8 0.770992 0.597498 0.760182
O O9 0.584012 0.203369 0.500000
O O10 0.676517 0.176517 0.586647
O O11 0.500339 0.415161 0.160618
O O12 0.408283 0.408283 0.250000
O O13 0.317475 0.682526 0.250000
O O14 0.209327 0.709327 0.300415
#
# Coordination Sequence:
#
# PCOD8320182 Si02
#       5
#    32  32  32  32  32
#     4  11  21  32  51  81 112 142 176 222 276 331
#     4  10  21  37  59  85 112 148 190 233 280 329
#     4   9  18  34  56  82 111 142 179 223 274 335
#     4   9  20  38  54  68  95 141 191 230 263 305
#     4  10  19  35  56  79 108 141 177 219 269 326
#
# _framework density 17.831433000000001
#
# number of rings (size 3 to 8) (size 9 to 14) (size 15 to 20)
#    0.000    2.200    2.000    1.800    0.000    3.800 
#    0.000    4.000    0.000    1.800    0.000    2.800 
#    0.000    0.000    0.000    0.000    0.000    0.000 
#
# Total GULP energy -991871.814674 kJ/mol
# GULP energy per Si atom -12398.397683 kJ/mol
# Density = 1.779085 g / cm^3
# Si number density = 17.831433 Si / 1000 Ang^3
#
#
#
# Elastic Constant Matrix: (Units=GPa)
#
#
# Indices 1 2 3 4 5 6 
#
# 1 72.3769 43.1896 48.0506 0.0000 0.0000 0.0000
# 2 43.1896 72.3801 48.0515 0.0000 0.0000 0.0000
# 3 48.0506 48.0515 126.8211 0.0000 0.0000 0.0000
# 4 0.0000 0.0000 0.0000 24.7821 0.0000 0.0000
# 5 0.0000 0.0000 0.0000 0.0000 24.7825 0.0000
# 6 0.0000 0.0000 0.0000 0.0000 0.0000 14.3463
#
#
#
# Elastic Compliance Matrix: (Units=1/GPa)
#
#
# Indices 1 2 3 4 5 6 
#
# 1 0.023447 -0.010813 -0.004787 0.000000 0.000000 0.000000
# 2 -0.010813 0.023446 -0.004787 0.000000 0.000000 0.000000
# 3 -0.004787 -0.004787 0.011512 0.000000 0.000000 0.000000
# 4 0.000000 0.000000 0.000000 0.040352 0.000000 0.000000
# 5 0.000000 0.000000 0.000000 0.000000 0.040351 0.000000
# 6 0.000000 0.000000 0.000000 0.000000 0.000000 0.069704
#
#
# Mechanical properties :
#
#
# Convention : Reuss Voigt Hill
#
# Bulk Modulus (GPa) = 56.71366 61.12904 58.92135
# Shear Modulus (GPa) = 19.57235 21.60127 20.58681
#
# Velocity S-wave (km/s) = 3.31665 3.48432 3.40151
# Velocity P-wave (km/s) = 6.82212 7.10938 6.96723
#
# Compressibility (1/GPa) = 0.01763244
#
# Stress axis : x y z
#
# Youngs Moduli (GPa) = 42.64942 42.65137 86.86365
#
# Poissons Ratio (x) = 0.46120 0.41579
# Poissons Ratio (y) = 0.46118 0.41577
# Poissons Ratio (z) = 0.20415 0.20415
#
# Static dielectric constant tensor:
#      x y z
#    x 3.147660 0.000000 0.000000 
#    y 0.000000 3.147660 0.000000 
#    z 0.000000 0.000000 3.539670 
# 
# 
# High freq. dielectric constant tensor:
#      x y z
#    x 1.676620 0.000000 0.000000 
#    y 0.000000 1.676620 0.000000 
#    z 0.000000 0.000000 1.698870 
# 
# From -- ./inp_files/6797.got.cif
#   From: 2010.06.25/outbox.cif.g09.slc.cpg/sg140_4_cif.got.tgz:6797.got - 2010.06.28 10:53:23.
