data_PCOD8320526
_publ_section_title
;
Structure prediction by ZEFSAII (Michael W. Deem and Ramdas Pophale) SiO2 
 PCOD8320526
Probable space group: I 4/M C M
;
_chemical_formula_sum "Si O2"
_cell_formula_units_Z 160
_cell_length_a 23.346876
_cell_length_b 23.346876
_cell_length_c 14.849174
_cell_angle_alpha 90.000000
_cell_angle_beta 90.000000
_cell_angle_gamma 90.000000
_cell_volume 8093.937558
_symmetry_space_group_name_H-M "I 4/M C M"
_symmetry_group_IT_number 140
_symmetry_cell_setting 'tetragonal'
loop_
_space_group_symop_operation_xyz
x,y,z
-y,x,z
-x,-y,z
y,-x,z
x,-y,1/2-z
-x,y,1/2-z
y,x,1/2-z
-y,-x,1/2-z
-x,-y,-z
y,-x,-z
x,y,-z
-y,x,-z
-x,y,1/2+z
x,-y,1/2+z
-y,-x,1/2+z
y,x,1/2+z
1/2+x,1/2+y,1/2+z
1/2-y,1/2+x,1/2+z
1/2-x,1/2-y,1/2+z
1/2+y,1/2-x,1/2+z
1/2+x,1/2-y,-z
1/2-x,1/2+y,-z
1/2+y,1/2+x,-z
1/2-y,1/2-x,-z
1/2-x,1/2-y,1/2-z
1/2+y,1/2-x,1/2-z
1/2+x,1/2+y,1/2-z
1/2-y,1/2+x,1/2-z
1/2-x,1/2+y,z
1/2+x,1/2-y,z
1/2-y,1/2-x,z
1/2+y,1/2+x,z
loop_
_atom_site_type_symbol
_atom_site_label
_atom_site_fract_x
_atom_site_fract_y
_atom_site_fract_z
Si Si1 0.287876 0.954764 0.400472
Si Si2 0.793017 0.382863 0.270854
Si Si3 0.971794 0.385156 0.659749
Si Si4 0.709490 0.436990 0.394691
Si Si5 0.915871 0.032017 0.892891
O O1 0.276235 0.930115 0.500000
O O2 0.279560 0.902965 0.330960
O O3 0.352920 0.980744 0.400502
O O4 0.242316 0.003716 0.375722
O O5 0.818222 0.318222 0.268948
O O6 0.838591 0.425106 0.313823
O O7 0.736854 0.385999 0.334477
O O8 0.938632 0.438632 0.610935
O O9 0.000000 0.410020 0.750000
O O10 0.713121 0.420095 0.500000
O O11 0.644817 0.444451 0.359032
O O12 0.967031 0.073125 0.857480
O O13 0.915616 0.030149 0.000000
#
# Coordination Sequence:
#
# PCOD8320526 Si02
#       5
#    32  32  32  32  32
#     4   9  17  28  43  63  86 119 168 218 261 307
#     4   9  17  29  44  62  90 128 168 214 259 294
#     4   8  14  24  37  55  82 116 152 193 246 308
#     4   9  16  27  47  75 104 134 168 203 244 302
#     4   8  14  26  47  79 117 147 166 190 235 301
#
# _framework density 19.767883000000001
#
# number of rings (size 3 to 8) (size 9 to 14) (size 15 to 20)
#    0.000    3.400    0.000    2.400    0.000    1.400 
#    0.000    4.000    0.000    4.800    0.000   14.000 
#    0.000    8.000    0.000    0.000    0.000    1.200 
#
# Total GULP energy -991181.170552 kJ/mol
# GULP energy per Si atom -12389.764632 kJ/mol
# Density = 1.972289 g / cm^3
# Si number density = 19.767883 Si / 1000 Ang^3
#
#
#
# Elastic Constant Matrix: (Units=GPa)
#
#
# Indices 1 2 3 4 5 6 
#
# 1 85.5083 54.5803 38.8909 0.0000 0.0000 0.0000
# 2 54.5803 85.5083 38.8909 0.0000 0.0000 0.0000
# 3 38.8909 38.8909 77.4338 0.0000 0.0000 0.0000
# 4 0.0000 0.0000 0.0000 16.7700 0.0000 0.0000
# 5 0.0000 0.0000 0.0000 0.0000 16.7700 0.0000
# 6 0.0000 0.0000 0.0000 0.0000 0.0000 17.4663
#
#
#
# Elastic Compliance Matrix: (Units=1/GPa)
#
#
# Indices 1 2 3 4 5 6 
#
# 1 0.021116 -0.011217 -0.004972 0.000000 0.000000 0.000000
# 2 -0.011217 0.021116 -0.004972 0.000000 0.000000 0.000000
# 3 -0.004972 -0.004972 0.017908 0.000000 0.000000 0.000000
# 4 0.000000 0.000000 0.000000 0.059630 0.000000 0.000000
# 5 0.000000 0.000000 0.000000 0.000000 0.059630 0.000000
# 6 0.000000 0.000000 0.000000 0.000000 0.000000 0.057253
#
#
# Mechanical properties :
#
#
# Convention : Reuss Voigt Hill
#
# Bulk Modulus (GPa) = 56.11908 57.01937 56.56923
# Shear Modulus (GPa) = 17.54910 17.94045 17.74477
#
# Velocity S-wave (km/s) = 2.98276 3.01583 2.99934
# Velocity P-wave (km/s) = 6.34926 6.40578 6.37759
#
# Compressibility (1/GPa) = 0.01781925
#
# Stress axis : x y z
#
# Youngs Moduli (GPa) = 47.35749 47.35749 55.84030
#
# Poissons Ratio (x) = 0.53122 0.27762
# Poissons Ratio (y) = 0.53122 0.27762
# Poissons Ratio (z) = 0.23544 0.23544
#
# Static dielectric constant tensor:
#      x y z
#    x 3.655410 0.000000 0.000000 
#    y 0.000000 3.655410 0.000000 
#    z 0.000000 0.000000 3.414410 
# 
# 
# High freq. dielectric constant tensor:
#      x y z
#    x 1.743240 0.000000 0.000000 
#    y 0.000000 1.743240 0.000000 
#    z 0.000000 0.000000 1.755210 
# 
# From -- ./inp_files/4712.got.cif
#   From: 2010.06.25/outbox.cif.g09.slc.cpg/sg140_3_cif.got.tgz:4712.got - 2010.06.28 10:53:23.
