data_PCOD8320438
_publ_section_title
;
Structure prediction by ZEFSAII (Michael W. Deem and Ramdas Pophale) SiO2 
 PCOD8320438
Probable space group: I 4/M C M
;
_chemical_formula_sum "Si O2"
_cell_formula_units_Z 128
_cell_length_a 18.566387
_cell_length_b 18.566387
_cell_length_c 15.867489
_cell_angle_alpha 90.000000
_cell_angle_beta 90.000000
_cell_angle_gamma 90.000000
_cell_volume 5469.693657
_symmetry_space_group_name_H-M "I 4/M C M"
_symmetry_group_IT_number 140
_symmetry_cell_setting 'tetragonal'
loop_
_space_group_symop_operation_xyz
x,y,z
-y,x,z
-x,-y,z
y,-x,z
x,-y,1/2-z
-x,y,1/2-z
y,x,1/2-z
-y,-x,1/2-z
-x,-y,-z
y,-x,-z
x,y,-z
-y,x,-z
-x,y,1/2+z
x,-y,1/2+z
-y,-x,1/2+z
y,x,1/2+z
1/2+x,1/2+y,1/2+z
1/2-y,1/2+x,1/2+z
1/2-x,1/2-y,1/2+z
1/2+y,1/2-x,1/2+z
1/2+x,1/2-y,-z
1/2-x,1/2+y,-z
1/2+y,1/2+x,-z
1/2-y,1/2-x,-z
1/2-x,1/2-y,1/2-z
1/2+y,1/2-x,1/2-z
1/2+x,1/2+y,1/2-z
1/2-y,1/2+x,1/2-z
1/2-x,1/2+y,z
1/2+x,1/2-y,z
1/2-y,1/2-x,z
1/2+y,1/2+x,z
loop_
_atom_site_type_symbol
_atom_site_label
_atom_site_fract_x
_atom_site_fract_y
_atom_site_fract_z
Si Si1 0.335279 0.722055 0.500000
Si Si2 0.979465 0.270711 0.342138
Si Si3 0.158977 0.544990 0.000000
Si Si4 0.013317 0.884171 0.900557
Si Si5 0.289337 0.328443 0.163760
O O1 0.254098 0.754098 0.500000
O O2 0.391102 0.785043 0.500000
O O3 0.344489 0.672915 0.416224
O O4 0.017324 0.192688 0.353847
O O5 0.893722 0.265293 0.347262
O O6 0.000000 0.301406 0.250000
O O7 0.000153 0.328208 0.414402
O O8 0.078113 0.578113 0.000000
O O9 0.078182 0.937558 0.874586
O O10 0.016258 0.868448 0.000000
O O11 0.335109 0.335109 0.250000
O O12 0.246782 0.253219 0.165517
#
# Coordination Sequence:
#
# PCOD8320438 Si02
#       5
#    16  32  16  32  32
#     4   9  19  36  62  84 113 163 206 261 339 398
#     4  12  25  36  64  96 123 176 230 281 347 428
#     4  11  25  46  65  94 136 178 226 282 348 410
#     4   9  20  37  56  83 130 182 226 276 335 420
#     4  10  22  40  62  92 129 164 212 282 340 399
#
# _framework density 23.401678
#
# number of rings (size 3 to 8) (size 9 to 14) (size 15 to 20)
#    0.000    1.750    1.250    3.000    7.000    3.000 
#    0.000    1.250    0.000    1.500    0.000    1.750 
#    0.000    0.000    0.000    0.000    0.000    0.000 
#
# Total GULP energy -793599.720043 kJ/mol
# GULP energy per Si atom -12399.995626 kJ/mol
# Density = 2.334841 g / cm^3
# Si number density = 23.401678 Si / 1000 Ang^3
#
#
#
# Elastic Constant Matrix: (Units=GPa)
#
#
# Indices 1 2 3 4 5 6 
#
# 1 58.9163 -2.8289 34.1545 0.0000 0.0000 0.0000
# 2 -2.8289 58.9163 34.1545 0.0000 0.0000 0.0000
# 3 34.1545 34.1545 207.8437 0.0000 0.0000 0.0000
# 4 0.0000 0.0000 0.0000 6.0210 0.0000 0.0000
# 5 0.0000 0.0000 0.0000 0.0000 6.0210 0.0000
# 6 0.0000 0.0000 0.0000 0.0000 0.0000 29.8307
#
#
#
# Elastic Compliance Matrix: (Units=1/GPa)
#
#
# Indices 1 2 3 4 5 6 
#
# 1 0.019243 0.003047 -0.003663 0.000000 0.000000 0.000000
# 2 0.003047 0.019243 -0.003663 0.000000 0.000000 0.000000
# 3 -0.003663 -0.003663 0.006015 0.000000 0.000000 0.000000
# 4 0.000000 0.000000 0.000000 0.166086 0.000000 0.000000
# 5 0.000000 0.000000 0.000000 0.000000 0.166086 0.000000
# 6 0.000000 0.000000 0.000000 0.000000 0.000000 0.033523
#
#
# Mechanical properties :
#
#
# Convention : Reuss Voigt Hill
#
# Bulk Modulus (GPa) = 27.82083 50.73738 39.27910
# Shear Modulus (GPa) = 11.60809 25.72094 18.66451
#
# Velocity S-wave (km/s) = 2.22960 3.31887 2.82719
# Velocity P-wave (km/s) = 4.30609 6.03446 5.24200
#
# Compressibility (1/GPa) = 0.03594430
#
# Stress axis : x y z
#
# Youngs Moduli (GPa) = 51.96688 51.96688 166.24675
#
# Poissons Ratio (x) = -0.15837 0.60895
# Poissons Ratio (y) = -0.15837 0.60895
# Poissons Ratio (z) = 0.19035 0.19035
#
# Static dielectric constant tensor:
#      x y z
#    x 4.191480 0.000000 0.000000 
#    y 0.000000 4.191480 0.000000 
#    z 0.000000 0.000000 4.677760 
# 
# 
# High freq. dielectric constant tensor:
#      x y z
#    x 1.908950 0.000000 0.000000 
#    y 0.000000 1.908950 0.000000 
#    z 0.000000 0.000000 1.939040 
# 
# From -- ./inp_files/4374.got.cif
#   From: 2010.06.25/outbox.cif.g09.slc.cpg/sg140_3_cif.got.tgz:4374.got - 2010.06.28 10:53:23.
