data_PCOD8320062
_publ_section_title
;
Structure prediction by ZEFSAII (Michael W. Deem and Ramdas Pophale) SiO2 
 PCOD8320062
Probable space group: I 4/M C M
;
_chemical_formula_sum "Si O2"
_cell_formula_units_Z 112
_cell_length_a 17.025993
_cell_length_b 17.025993
_cell_length_c 23.028988
_cell_angle_alpha 90.000000
_cell_angle_beta 90.000000
_cell_angle_gamma 90.000000
_cell_volume 6675.745236
_symmetry_space_group_name_H-M "I 4/M C M"
_symmetry_group_IT_number 140
_symmetry_cell_setting 'tetragonal'
loop_
_space_group_symop_operation_xyz
x,y,z
-y,x,z
-x,-y,z
y,-x,z
x,-y,1/2-z
-x,y,1/2-z
y,x,1/2-z
-y,-x,1/2-z
-x,-y,-z
y,-x,-z
x,y,-z
-y,x,-z
-x,y,1/2+z
x,-y,1/2+z
-y,-x,1/2+z
y,x,1/2+z
1/2+x,1/2+y,1/2+z
1/2-y,1/2+x,1/2+z
1/2-x,1/2-y,1/2+z
1/2+y,1/2-x,1/2+z
1/2+x,1/2-y,-z
1/2-x,1/2+y,-z
1/2+y,1/2+x,-z
1/2-y,1/2-x,-z
1/2-x,1/2-y,1/2-z
1/2+y,1/2-x,1/2-z
1/2+x,1/2+y,1/2-z
1/2-y,1/2+x,1/2-z
1/2-x,1/2+y,z
1/2+x,1/2-y,z
1/2-y,1/2-x,z
1/2+y,1/2+x,z
loop_
_atom_site_type_symbol
_atom_site_label
_atom_site_fract_x
_atom_site_fract_y
_atom_site_fract_z
Si Si1 0.064941 0.564941 0.070103
Si Si2 0.503805 0.627319 0.818013
Si Si3 0.736147 0.358943 0.000000
Si Si4 0.979601 0.262393 0.906716
Si Si5 0.107354 0.729328 0.500000
O O1 0.039265 0.645607 0.101812
O O2 0.000000 0.500000 0.084406
O O3 0.074725 0.574725 0.000000
O O4 0.425100 0.579559 0.835585
O O5 0.500000 0.644039 0.750000
O O6 0.509152 0.712740 0.848005
O O7 0.721846 0.409919 0.057309
O O8 0.825417 0.325417 0.000000
O O9 0.677885 0.288262 0.000000
O O10 0.059636 0.256025 0.941967
O O11 0.139979 0.639979 0.500000
#
# Coordination Sequence:
#
# PCOD8320062 Si02
#       5
#    16  32  16  32  16
#     4  11  20  34  56  77 104 144 188 212 261 321
#     4   9  19  36  58  80 104 139 179 218 267 325
#     4  10  18  30  44  75 106 135 162 204 270 307
#     4  11  18  32  52  76 102 141 171 224 254 313
#     4  10  20  29  47  74 107 133 170 210 255 320
#
# _framework density 16.777152000000001
#
# number of rings (size 3 to 8) (size 9 to 14) (size 15 to 20)
#    0.000    1.857    4.286    3.429    0.000    0.000 
#    0.000    0.000    6.286    8.571    0.000    0.000 
#    0.000    0.000    0.000    0.000    0.000    0.000 
#
# Total GULP energy -694105.600453 kJ/mol
# GULP energy per Si atom -12394.742865 kJ/mol
# Density = 1.673897 g / cm^3
# Si number density = 16.777152 Si / 1000 Ang^3
#
#
#
# Elastic Constant Matrix: (Units=GPa)
#
#
# Indices 1 2 3 4 5 6 
#
# 1 113.2635 53.4289 49.0741 0.0000 0.0000 0.0000
# 2 53.4289 113.2635 49.0741 0.0000 0.0000 0.0000
# 3 49.0741 49.0741 73.9496 0.0000 0.0000 0.0000
# 4 0.0000 0.0000 0.0000 35.2129 0.0000 0.0000
# 5 0.0000 0.0000 0.0000 0.0000 35.2129 0.0000
# 6 0.0000 0.0000 0.0000 0.0000 0.0000 25.3810
#
#
#
# Elastic Compliance Matrix: (Units=1/GPa)
#
#
# Indices 1 2 3 4 5 6 
#
# 1 0.013280 -0.003433 -0.006534 0.000000 0.000000 0.000000
# 2 -0.003433 0.013280 -0.006534 0.000000 0.000000 0.000000
# 3 -0.006534 -0.006534 0.022195 0.000000 0.000000 0.000000
# 4 0.000000 0.000000 0.000000 0.028399 0.000000 0.000000
# 5 0.000000 0.000000 0.000000 0.000000 0.028399 0.000000
# 6 0.000000 0.000000 0.000000 0.000000 0.000000 0.039400
#
#
# Mechanical properties :
#
#
# Convention : Reuss Voigt Hill
#
# Bulk Modulus (GPa) = 63.48778 67.07008 65.27893
# Shear Modulus (GPa) = 27.29185 29.08800 28.18993
#
# Velocity S-wave (km/s) = 4.03765 4.16839 4.10354
# Velocity P-wave (km/s) = 7.72404 7.95180 7.83875
#
# Compressibility (1/GPa) = 0.01575106
#
# Stress axis : x y z
#
# Youngs Moduli (GPa) = 75.30356 75.30356 45.05481
#
# Poissons Ratio (x) = 0.25853 0.29440
# Poissons Ratio (y) = 0.25853 0.29440
# Poissons Ratio (z) = 0.49205 0.49205
#
# Static dielectric constant tensor:
#      x y z
#    x 3.273280 0.000000 0.000000 
#    y 0.000000 3.273280 0.000000 
#    z 0.000000 0.000000 2.830830 
# 
# 
# High freq. dielectric constant tensor:
#      x y z
#    x 1.659460 0.000000 0.000000 
#    y 0.000000 1.659460 0.000000 
#    z 0.000000 0.000000 1.609840 
# 
# From -- ./inp_files/7970.got.cif
#   From: 2010.06.25/outbox.cif.g09.slc.cpg/sg140_4_cif.got.tgz:7970.got - 2010.06.28 10:53:23.
