data_PCOD8320333
_publ_section_title
;
Structure prediction by ZEFSAII (Michael W. Deem and Ramdas Pophale) SiO2 
 PCOD8320333
Probable space group: I 4/M C M
;
_chemical_formula_sum "Si O2"
_cell_formula_units_Z 192
_cell_length_a 20.425946
_cell_length_b 20.425946
_cell_length_c 25.332538
_cell_angle_alpha 90.000000
_cell_angle_beta 90.000000
_cell_angle_gamma 90.000000
_cell_volume 10569.223011
_symmetry_space_group_name_H-M "I 4/M C M"
_symmetry_group_IT_number 140
_symmetry_cell_setting 'tetragonal'
loop_
_space_group_symop_operation_xyz
x,y,z
-y,x,z
-x,-y,z
y,-x,z
x,-y,1/2-z
-x,y,1/2-z
y,x,1/2-z
-y,-x,1/2-z
-x,-y,-z
y,-x,-z
x,y,-z
-y,x,-z
-x,y,1/2+z
x,-y,1/2+z
-y,-x,1/2+z
y,x,1/2+z
1/2+x,1/2+y,1/2+z
1/2-y,1/2+x,1/2+z
1/2-x,1/2-y,1/2+z
1/2+y,1/2-x,1/2+z
1/2+x,1/2-y,-z
1/2-x,1/2+y,-z
1/2+y,1/2+x,-z
1/2-y,1/2-x,-z
1/2-x,1/2-y,1/2-z
1/2+y,1/2-x,1/2-z
1/2+x,1/2+y,1/2-z
1/2-y,1/2+x,1/2-z
1/2-x,1/2+y,z
1/2+x,1/2-y,z
1/2-y,1/2-x,z
1/2+y,1/2+x,z
loop_
_atom_site_type_symbol
_atom_site_label
_atom_site_fract_x
_atom_site_fract_y
_atom_site_fract_z
Si Si1 0.409537 0.805769 0.652655
Si Si2 0.606428 0.502153 0.188226
Si Si3 0.751288 0.147633 0.241859
Si Si4 0.348466 0.738976 0.557617
Si Si5 0.243619 0.636166 0.439090
Si Si6 0.244603 0.960719 0.153183
O O1 0.379025 0.879025 0.644094
O O2 0.374231 0.773240 0.701612
O O3 0.400173 0.759579 0.601593
O O4 0.487484 0.804272 0.661774
O O5 0.563144 0.565895 0.173755
O O6 0.624005 0.500000 0.250000
O O7 0.673674 0.503704 0.154774
O O8 0.824471 0.175530 0.250000
O O9 0.704528 0.204528 0.218570
O O10 0.752078 0.089230 0.201100
O O11 0.383200 0.734580 0.500000
O O12 0.291440 0.791440 0.554866
O O13 0.313673 0.670403 0.571545
O O14 0.237345 0.614625 0.500000
O O15 0.183969 0.683969 0.423564
O O16 0.241973 0.572246 0.402926
#
# Coordination Sequence:
#
# PCOD8320333 Si02
#       6
#    32  32  32  32  32  32
#     4  10  21  34  48  77 113 141 174 221 270 323
#     4   9  20  35  49  71 109 151 188 218 250 310
#     4  10  21  35  53  79 109 136 175 232 284 325
#     4   8  15  31  54  75 100 136 173 218 275 321
#     4   9  19  36  56  78 103 132 175 229 279 329
#     4  12  22  31  57  80 105 144 184 222 275 328
#
# _framework density 18.165952999999998
#
# number of rings (size 3 to 8) (size 9 to 14) (size 15 to 20)
#    0.000    2.333    0.000    4.500    7.000    3.333 
#    0.000    0.000    0.000    2.000    0.000    7.000 
#    0.000    0.000    0.000    0.000    0.000    0.000 
#
# Total GULP energy -1190031.206658 kJ/mol
# GULP energy per Si atom -12396.158403 kJ/mol
# Density = 1.812461 g / cm^3
# Si number density = 18.165953 Si / 1000 Ang^3
#
#
#
# Elastic Constant Matrix: (Units=GPa)
#
#
# Indices 1 2 3 4 5 6 
#
# 1 91.4928 49.2411 41.2648 0.0000 0.0000 0.0000
# 2 49.2411 91.4935 41.2648 0.0000 0.0000 0.0000
# 3 41.2648 41.2648 85.2387 0.0000 0.0000 0.0000
# 4 0.0000 0.0000 0.0000 -88.9180 0.0000 0.0000
# 5 0.0000 0.0000 0.0000 0.0000 -89.0132 0.0000
# 6 0.0000 0.0000 0.0000 0.0000 0.0000 20.5684
#
#
#
# Elastic Compliance Matrix: (Units=1/GPa)
#
#
# Indices 1 2 3 4 5 6 
#
# 1 0.016795 -0.006872 -0.004804 0.000000 0.000000 0.000000
# 2 -0.006872 0.016795 -0.004804 0.000000 0.000000 0.000000
# 3 -0.004804 -0.004804 0.016383 0.000000 0.000000 0.000000
# 4 0.000000 0.000000 0.000000 -0.011246 0.000000 0.000000
# 5 0.000000 0.000000 0.000000 0.000000 -0.011234 0.000000
# 6 0.000000 0.000000 0.000000 0.000000 0.000000 0.048618
#
#
# Mechanical properties :
#
#
# Convention : Reuss Voigt Hill
#
# Bulk Modulus (GPa) = 58.77726 59.08518 58.93122
# Shear Modulus (GPa) = 43.57648 -22.37560 10.60044
#
# Velocity S-wave (km/s) = 4.90307 -3.51341 2.41826
# Velocity P-wave (km/s) = 8.02991 4.01710 6.34888
#
# Compressibility (1/GPa) = 0.01701338
#
# Stress axis : x y z
#
# Youngs Moduli (GPa) = 59.54126 59.54182 61.04015
#
# Poissons Ratio (x) = 0.40920 0.29321
# Poissons Ratio (y) = 0.40920 0.29321
# Poissons Ratio (z) = 0.28601 0.28601
#
# Static dielectric constant tensor:
#      x y z
#    x 3.340010 0.000000 0.000000 
#    y 0.000000 3.340000 0.000000 
#    z 0.000000 0.000000 3.805820 
# 
# 
# High freq. dielectric constant tensor:
#      x y z
#    x 1.687890 0.000000 0.000000 
#    y 0.000000 1.687890 0.000000 
#    z 0.000000 0.000000 1.705570 
# 
# From -- ./inp_files/9779.got.cif
#   From: 2010.06.25/outbox.cif.g09.slc.cpg/sg140_5_cif.got.tgz:9779.got - 2010.06.28 10:53:23.
