data_PCOD8320554
_publ_section_title
;
Structure prediction by ZEFSAII (Michael W. Deem and Ramdas Pophale) SiO2 
 PCOD8320554
Probable space group: I 41/A M D
;
_chemical_formula_sum "Si O2"
_cell_formula_units_Z 128
_cell_length_a 18.415589
_cell_length_b 18.415589
_cell_length_c 25.591579
_cell_angle_alpha 90.000000
_cell_angle_beta 90.000000
_cell_angle_gamma 90.000000
_cell_volume 8678.972460
_symmetry_space_group_name_H-M "I 41/A M D"
_symmetry_group_IT_number 141
_space_group.IT_coordinate_system_code '2'
_symmetry_cell_setting 'tetragonal'
loop_
_space_group_symop_operation_xyz
x,y,z
1/4-y,3/4+x,1/4+z
-x,1/2-y,z
1/4+y,1/4-x,3/4+z
x,-y,-z
-x,1/2+y,-z
1/4+y,3/4+x,1/4-z
1/4-y,1/4-x,3/4-z
-x,-y,-z
3/4+y,1/4-x,3/4-z
x,1/2+y,-z
3/4-y,3/4+x,1/4-z
-x,y,z
x,1/2-y,z
3/4-y,1/4-x,3/4+z
3/4+y,3/4+x,1/4+z
1/2+x,1/2+y,1/2+z
3/4-y,1/4+x,3/4+z
1/2-x,-y,1/2+z
3/4+y,3/4-x,1/4+z
1/2+x,1/2-y,1/2-z
1/2-x,y,1/2-z
3/4+y,1/4+x,3/4-z
3/4-y,3/4-x,1/4-z
1/2-x,1/2-y,1/2-z
1/4+y,3/4-x,1/4-z
1/2+x,y,1/2-z
1/4-y,1/4+x,3/4-z
1/2-x,1/2+y,1/2+z
1/2+x,-y,1/2+z
1/4-y,3/4-x,1/4+z
1/4+y,1/4+x,3/4+z
loop_
_atom_site_type_symbol
_atom_site_label
_atom_site_fract_x
_atom_site_fract_y
_atom_site_fract_z
Si Si1 0.500000 0.489379 0.916588
Si Si2 0.246213 0.949162 0.543734
Si Si3 0.850129 0.443032 0.604820
Si Si4 0.083366 0.595431 0.765868
Si Si5 0.500000 0.883660 0.986559
O O1 0.568182 0.466264 0.882002
O O2 0.500000 0.444629 0.969755
O O3 0.500000 0.575315 0.930476
O O4 0.307477 0.938025 0.588397
O O5 0.212971 0.875019 0.520386
O O6 0.284077 0.000000 0.500000
O O7 0.178844 0.993963 0.566859
O O8 0.843670 0.366254 0.574926
O O9 0.086208 0.676774 0.741969
O O10 0.000000 0.570830 0.769417
#
# Coordination Sequence:
#
# PCOD8320554 Si02
#       5
#    16  32  32  32  16
#     4   9  14  24  42  56  78 110 142 166 191 244
#     4   9  17  29  43  59  79 108 142 172 202 242
#     4   9  17  28  42  59  80 110 140 168 208 243
#     4  10  18  27  41  61  84 108 139 173 203 243
#     4   9  15  26  38  56  82 112 138 164 202 234
#
# _framework density 14.748290000000001
#
# number of rings (size 3 to 8) (size 9 to 14) (size 15 to 20)
#    0.000    2.750    2.500    0.375    1.750    0.000 
#    0.000    0.000    0.000    0.750    0.000    0.000 
#    0.000    0.000    0.000    0.000    0.000    0.000 
#
# Total GULP energy -793063.259938 kJ/mol
# GULP energy per Si atom -12391.613437 kJ/mol
# Density = 1.471472 g / cm^3
# Si number density = 14.748290 Si / 1000 Ang^3
#
#
#
# Elastic Constant Matrix: (Units=GPa)
#
#
# Indices 1 2 3 4 5 6 
#
# 1 66.1064 15.1521 29.8873 0.0000 0.0000 0.0000
# 2 15.1521 66.1064 29.8873 0.0000 0.0000 0.0000
# 3 29.8873 29.8873 80.6602 0.0000 0.0000 0.0000
# 4 0.0000 0.0000 0.0000 13.1137 0.0000 0.0000
# 5 0.0000 0.0000 0.0000 0.0000 13.1137 0.0000
# 6 0.0000 0.0000 0.0000 0.0000 0.0000 8.6340
#
#
#
# Elastic Compliance Matrix: (Units=1/GPa)
#
#
# Indices 1 2 3 4 5 6 
#
# 1 0.018272 -0.001354 -0.006269 0.000000 0.000000 0.000000
# 2 -0.001354 0.018272 -0.006269 0.000000 0.000000 0.000000
# 3 -0.006269 -0.006269 0.017043 0.000000 0.000000 0.000000
# 4 0.000000 0.000000 0.000000 0.076256 0.000000 0.000000
# 5 0.000000 0.000000 0.000000 0.000000 0.076256 0.000000
# 6 0.000000 0.000000 0.000000 0.000000 0.000000 0.115821
#
#
# Mechanical properties :
#
#
# Convention : Reuss Voigt Hill
#
# Bulk Modulus (GPa) = 38.75346 40.30293 39.52820
# Shear Modulus (GPa) = 13.95465 16.16868 15.06166
#
# Velocity S-wave (km/s) = 3.07935 3.31465 3.19916
# Velocity P-wave (km/s) = 6.24314 6.48349 6.36445
#
# Compressibility (1/GPa) = 0.02580415
#
# Stress axis : x y z
#
# Youngs Moduli (GPa) = 54.73000 54.73000 58.67480
#
# Poissons Ratio (x) = 0.07410 0.36780
# Poissons Ratio (y) = 0.07410 0.36780
# Poissons Ratio (z) = 0.34308 0.34308
#
# Static dielectric constant tensor:
#      x y z
#    x 2.700600 0.000000 0.000000 
#    y 0.000000 2.700600 0.000000 
#    z 0.000000 0.000000 2.835530 
# 
# 
# High freq. dielectric constant tensor:
#      x y z
#    x 1.539670 0.000000 0.000000 
#    y 0.000000 1.539670 0.000000 
#    z 0.000000 0.000000 1.552950 
# 
# From -- ./inp_files/11504.got.cif
#   From: 2010.03.12/outbox.cif.g09.slc.cpg/sg141_6_cif.got.tgz:11504.got - 2010.04.03 13:18:35.
