data_PCOD8320792
_publ_section_title
;
Structure prediction by ZEFSAII (Michael W. Deem and Ramdas Pophale) SiO2 
 PCOD8320792
Probable space group: I 41/A M D
;
_chemical_formula_sum "Si O2"
_cell_formula_units_Z 160
_cell_length_a 20.804730
_cell_length_b 20.804730
_cell_length_c 17.544145
_cell_angle_alpha 90.000000
_cell_angle_beta 90.000000
_cell_angle_gamma 90.000000
_cell_volume 7593.751412
_symmetry_space_group_name_H-M "I 41/A M D"
_symmetry_group_IT_number 141
_space_group.IT_coordinate_system_code '2'
_symmetry_cell_setting 'tetragonal'
loop_
_space_group_symop_operation_xyz
x,y,z
1/4-y,3/4+x,1/4+z
-x,1/2-y,z
1/4+y,1/4-x,3/4+z
x,-y,-z
-x,1/2+y,-z
1/4+y,3/4+x,1/4-z
1/4-y,1/4-x,3/4-z
-x,-y,-z
3/4+y,1/4-x,3/4-z
x,1/2+y,-z
3/4-y,3/4+x,1/4-z
-x,y,z
x,1/2-y,z
3/4-y,1/4-x,3/4+z
3/4+y,3/4+x,1/4+z
1/2+x,1/2+y,1/2+z
3/4-y,1/4+x,3/4+z
1/2-x,-y,1/2+z
3/4+y,3/4-x,1/4+z
1/2+x,1/2-y,1/2-z
1/2-x,y,1/2-z
3/4+y,1/4+x,3/4-z
3/4-y,3/4-x,1/4-z
1/2-x,1/2-y,1/2-z
1/4+y,3/4-x,1/4-z
1/2+x,y,1/2-z
1/4-y,1/4+x,3/4-z
1/2-x,1/2+y,1/2+z
1/2+x,-y,1/2+z
1/4-y,3/4-x,1/4+z
1/4+y,1/4+x,3/4+z
loop_
_atom_site_type_symbol
_atom_site_label
_atom_site_fract_x
_atom_site_fract_y
_atom_site_fract_z
Si Si1 0.899077 0.917757 0.837667
Si Si2 0.571111 0.594836 0.830261
Si Si3 0.808753 0.376021 0.942728
Si Si4 0.428681 0.822795 0.527510
Si Si5 0.265739 0.918871 0.600431
O O1 0.924436 0.888976 0.759110
O O2 0.929828 0.877855 0.907116
O O3 0.822816 0.906409 0.840307
O O4 0.914473 0.995571 0.836044
O O5 0.591443 0.658558 0.875000
O O6 0.500000 0.575994 0.853331
O O7 0.612255 0.535001 0.859225
O O8 0.827136 0.422865 0.875000
O O9 0.870786 0.332923 0.966705
O O10 0.790734 0.421283 0.013899
O O11 0.500000 0.827900 0.488610
O O12 0.419833 0.750000 0.560706
O O13 0.236617 0.986617 0.625000
#
# Coordination Sequence:
#
# PCOD8320792 Si02
#       5
#    32  32  32  32  32
#     4  10  21  37  62  89 117 154 202 253 301 362
#     4  10  22  38  56  82 116 153 197 253 310 366
#     4  10  22  38  62  93 122 156 199 252 304 358
#     4  10  23  42  61  85 123 169 209 248 305 372
#     4   9  20  37  59  87 120 156 193 238 301 365
#
# _framework density 21.069955
#
# number of rings (size 3 to 8) (size 9 to 14) (size 15 to 20)
#    0.000    2.200    0.000    1.200    0.000   25.000 
#    0.000    3.000    0.000    0.000    0.000    0.000 
#    0.000    0.000    0.000    0.000    0.000    0.000 
#
# Total GULP energy -991231.234246 kJ/mol
# GULP energy per Si atom -12390.390428 kJ/mol
# Density = 2.102200 g / cm^3
# Si number density = 21.069955 Si / 1000 Ang^3
#
#
#
# Elastic Constant Matrix: (Units=GPa)
#
#
# Indices 1 2 3 4 5 6 
#
# 1 331.8907 -151.1037 53.6888 0.0000 0.0000 0.0000
# 2 -151.1037 331.4920 53.8756 0.0000 0.0000 0.0000
# 3 53.6888 53.8756 66.6876 0.0000 0.0000 0.0000
# 4 0.0000 0.0000 0.0000 18.6623 0.0000 0.0000
# 5 0.0000 0.0000 0.0000 0.0000 18.6638 0.0000
# 6 0.0000 0.0000 0.0000 0.0000 0.0000 20.5968
#
#
#
# Elastic Compliance Matrix: (Units=1/GPa)
#
#
# Indices 1 2 3 4 5 6 
#
# 1 0.006356 0.004293 -0.008585 0.000000 0.000000 0.000000
# 2 0.004293 0.006372 -0.008603 0.000000 0.000000 0.000000
# 3 -0.008585 -0.008603 0.028858 0.000000 0.000000 0.000000
# 4 0.000000 0.000000 0.000000 0.053584 0.000000 0.000000
# 5 0.000000 0.000000 0.000000 0.000000 0.053580 0.000000
# 6 0.000000 0.000000 0.000000 0.000000 0.000000 0.048551
#
#
# Mechanical properties :
#
#
# Convention : Reuss Voigt Hill
#
# Bulk Modulus (GPa) = 63.31732 71.44353 67.38042
# Shear Modulus (GPa) = 21.89556 63.15855 42.52705
#
# Velocity S-wave (km/s) = 3.22714 5.48094 4.49751
# Velocity P-wave (km/s) = 6.63341 8.60440 7.68238
#
# Compressibility (1/GPa) = 0.01579347
#
# Stress axis : x y z
#
# Youngs Moduli (GPa) = 157.32687 156.94535 34.65294
#
# Poissons Ratio (x) = -0.67371 0.29750
# Poissons Ratio (y) = -0.67535 0.29813
# Poissons Ratio (z) = 1.35068 1.35027
#
# Static dielectric constant tensor:
#      x y z
#    x 3.996620 0.000000 0.000000 
#    y 0.000000 3.996630 0.000000 
#    z 0.000000 0.000000 3.746520 
# 
# 
# High freq. dielectric constant tensor:
#      x y z
#    x 1.828000 0.000000 0.000000 
#    y 0.000000 1.828000 0.000000 
#    z 0.000000 0.000000 1.812670 
# 
# From -- ./inp_files/8577.got.cif
#   From: 2010.03.12/outbox.cif.g09.slc.cpg/sg141_5_cif.got.tgz:8577.got - 2010.04.03 13:18:35.
