data_PCOD8320288
_publ_section_title
;
Structure prediction by ZEFSAII (Michael W. Deem and Ramdas Pophale) SiO2 
 PCOD8320288
Probable space group: I 4/M C M
;
_chemical_formula_sum "Si O2"
_cell_formula_units_Z 160
_cell_length_a 23.157355
_cell_length_b 23.157355
_cell_length_c 14.617248
_cell_angle_alpha 90.000000
_cell_angle_beta 90.000000
_cell_angle_gamma 90.000000
_cell_volume 7838.690588
_symmetry_space_group_name_H-M "I 4/M C M"
_symmetry_group_IT_number 140
_symmetry_cell_setting 'tetragonal'
loop_
_space_group_symop_operation_xyz
x,y,z
-y,x,z
-x,-y,z
y,-x,z
x,-y,1/2-z
-x,y,1/2-z
y,x,1/2-z
-y,-x,1/2-z
-x,-y,-z
y,-x,-z
x,y,-z
-y,x,-z
-x,y,1/2+z
x,-y,1/2+z
-y,-x,1/2+z
y,x,1/2+z
1/2+x,1/2+y,1/2+z
1/2-y,1/2+x,1/2+z
1/2-x,1/2-y,1/2+z
1/2+y,1/2-x,1/2+z
1/2+x,1/2-y,-z
1/2-x,1/2+y,-z
1/2+y,1/2+x,-z
1/2-y,1/2-x,-z
1/2-x,1/2-y,1/2-z
1/2+y,1/2-x,1/2-z
1/2+x,1/2+y,1/2-z
1/2-y,1/2+x,1/2-z
1/2-x,1/2+y,z
1/2+x,1/2-y,z
1/2-y,1/2-x,z
1/2+y,1/2+x,z
loop_
_atom_site_type_symbol
_atom_site_label
_atom_site_fract_x
_atom_site_fract_y
_atom_site_fract_z
Si Si1 0.615899 0.370414 0.150084
Si Si2 0.177816 0.586088 0.713399
Si Si3 0.662266 0.507941 0.397525
Si Si4 0.526184 0.204884 0.391436
Si Si5 0.665132 0.255342 0.099959
O O1 0.639322 0.360679 0.250000
O O2 0.623398 0.435166 0.113085
O O3 0.547073 0.359071 0.159460
O O4 0.655859 0.324674 0.094791
O O5 0.118012 0.618012 0.695442
O O6 0.174159 0.530493 0.648216
O O7 0.183704 0.576760 0.823212
O O8 0.231564 0.624482 0.679886
O O9 0.658068 0.484932 0.500000
O O10 0.727450 0.522394 0.372114
O O11 0.536807 0.190642 0.500000
O O12 0.731430 0.231430 0.116117
O O13 0.644771 0.232425 0.000000
#
# Coordination Sequence:
#
# PCOD8320288 Si02
#       5
#    32  32  32  32  32
#     4  12  24  38  60  87 121 161 211 263 316 373
#     4  10  20  35  62  94 124 159 208 259 309 374
#     4  11  23  40  60  84 117 163 210 258 312 367
#     4  10  21  38  62  89 126 165 206 256 316 378
#     4  10  20  37  62  91 123 162 210 262 315 379
#
# _framework density 20.411570999999999
#
# number of rings (size 3 to 8) (size 9 to 14) (size 15 to 20)
#    0.000    1.400    2.000    4.200    2.800    2.400 
#    0.000    3.000    0.000    6.000    0.000    5.600 
#    0.000    0.000    0.000    0.000    0.000    0.000 
#
# Total GULP energy -991109.912703 kJ/mol
# GULP energy per Si atom -12388.873909 kJ/mol
# Density = 2.036511 g / cm^3
# Si number density = 20.411571 Si / 1000 Ang^3
#
#
#
# Elastic Constant Matrix: (Units=GPa)
#
#
# Indices 1 2 3 4 5 6 
#
# 1 85.5377 69.9299 29.1631 0.0000 0.0000 0.0000
# 2 69.9299 85.5377 29.1636 0.0000 0.0000 0.0000
# 3 29.1631 29.1636 117.7919 0.0000 0.0000 0.0000
# 4 0.0000 0.0000 0.0000 28.9246 0.0000 0.0000
# 5 0.0000 0.0000 0.0000 0.0000 28.9245 0.0000
# 6 0.0000 0.0000 0.0000 0.0000 0.0000 24.9811
#
#
#
# Elastic Compliance Matrix: (Units=1/GPa)
#
#
# Indices 1 2 3 4 5 6 
#
# 1 0.035581 -0.028490 -0.001755 0.000000 0.000000 0.000000
# 2 -0.028490 0.035581 -0.001756 0.000000 0.000000 0.000000
# 3 -0.001755 -0.001756 0.009359 0.000000 0.000000 0.000000
# 4 0.000000 0.000000 0.000000 0.034573 0.000000 0.000000
# 5 0.000000 0.000000 0.000000 0.000000 0.034573 0.000000
# 6 0.000000 0.000000 0.000000 0.000000 0.000000 0.040030
#
#
# Mechanical properties :
#
#
# Convention : Reuss Voigt Hill
#
# Bulk Modulus (GPa) = 60.53915 60.59783 60.56849
# Shear Modulus (GPa) = 19.28983 27.27341 23.28162
#
# Velocity S-wave (km/s) = 3.07749 3.65934 3.38095
# Velocity P-wave (km/s) = 6.50781 6.89977 6.70665
#
# Compressibility (1/GPa) = 0.01651824
#
# Stress axis : x y z
#
# Youngs Moduli (GPa) = 28.10519 28.10510 106.85063
#
# Poissons Ratio (x) = 0.80071 0.18757
# Poissons Ratio (y) = 0.80071 0.18760
# Poissons Ratio (z) = 0.04934 0.04934
#
# Static dielectric constant tensor:
#      x y z
#    x 3.656140 0.000000 0.000000 
#    y 0.000000 3.656150 0.000000 
#    z 0.000000 0.000000 3.984610 
# 
# 
# High freq. dielectric constant tensor:
#      x y z
#    x 1.783700 0.000000 0.000000 
#    y 0.000000 1.783700 0.000000 
#    z 0.000000 0.000000 1.819310 
# 
# From -- ./inp_files/4733.got.cif
#   From: 2010.06.25/outbox.cif.g09.slc.cpg/sg140_3_cif.got.tgz:4733.got - 2010.06.28 10:53:23.
