data_PCOD8320843
_publ_section_title
;
Structure prediction by ZEFSAII (Michael W. Deem and Ramdas Pophale) SiO2 
 PCOD8320843
Probable space group: I 41/A M D
;
_chemical_formula_sum "Si O2"
_cell_formula_units_Z 52
_cell_length_a 7.562781
_cell_length_b 7.562781
_cell_length_c 45.033075
_cell_angle_alpha 90.000000
_cell_angle_beta 90.000000
_cell_angle_gamma 90.000000
_cell_volume 2575.696287
_symmetry_space_group_name_H-M "I 41/A M D"
_symmetry_group_IT_number 141
_space_group.IT_coordinate_system_code '2'
_symmetry_cell_setting 'tetragonal'
loop_
_space_group_symop_operation_xyz
x,y,z
1/4-y,3/4+x,1/4+z
-x,1/2-y,z
1/4+y,1/4-x,3/4+z
x,-y,-z
-x,1/2+y,-z
1/4+y,3/4+x,1/4-z
1/4-y,1/4-x,3/4-z
-x,-y,-z
3/4+y,1/4-x,3/4-z
x,1/2+y,-z
3/4-y,3/4+x,1/4-z
-x,y,z
x,1/2-y,z
3/4-y,1/4-x,3/4+z
3/4+y,3/4+x,1/4+z
1/2+x,1/2+y,1/2+z
3/4-y,1/4+x,3/4+z
1/2-x,-y,1/2+z
3/4+y,3/4-x,1/4+z
1/2+x,1/2-y,1/2-z
1/2-x,y,1/2-z
3/4+y,1/4+x,3/4-z
3/4-y,3/4-x,1/4-z
1/2-x,1/2-y,1/2-z
1/4+y,3/4-x,1/4-z
1/2+x,y,1/2-z
1/4-y,1/4+x,3/4-z
1/2-x,1/2+y,1/2+z
1/2+x,-y,1/2+z
1/4-y,3/4-x,1/4+z
1/4+y,1/4+x,3/4+z
loop_
_atom_site_type_symbol
_atom_site_label
_atom_site_fract_x
_atom_site_fract_y
_atom_site_fract_z
Si Si1 0.500000 0.750000 0.375000
Si Si2 0.210059 0.250000 0.576149
Si Si3 0.195876 0.459422 0.281966
O O1 0.319459 0.750000 0.393672
O O2 0.271041 0.420977 0.557489
O O3 0.000000 0.250000 0.583089
O O4 0.201870 0.250000 0.279455
O O5 0.250000 0.539980 0.250000
O O6 0.000000 0.526650 0.290446
#
# Coordination Sequence:
#
# PCOD8320843 Si02
#       3
#     4  16  32
#     4  12  28  44  56  80 116 160 216 240 280 340
#     4  10  22  40  60  82 115 158 195 246 290 342
#     4   9  15  28  57  92 119 146 183 230 298 361
#
# _framework density 20.188718000000001
#
# number of rings (size 3 to 8) (size 9 to 14) (size 15 to 20)
#    0.000    2.462    3.077    0.000    0.000    2.462 
#    0.000    1.538    0.000    0.000    0.000    0.000 
#    0.000    0.000    0.000    0.000    0.000    0.000 
#
# Total GULP energy -322317.965649 kJ/mol
# GULP energy per Si atom -12396.844833 kJ/mol
# Density = 2.014277 g / cm^3
# Si number density = 20.188718 Si / 1000 Ang^3
#
#
#
# Elastic Constant Matrix: (Units=GPa)
#
#
# Indices 1 2 3 4 5 6 
#
# 1 128.9543 28.9512 70.3372 0.0000 0.0000 0.0000
# 2 28.9512 128.9544 70.3373 0.0000 0.0000 0.0000
# 3 70.3372 70.3373 161.5770 0.0000 0.0000 0.0000
# 4 0.0000 0.0000 0.0000 -73.2314 0.0000 0.0000
# 5 0.0000 0.0000 0.0000 0.0000 -73.2315 0.0000
# 6 0.0000 0.0000 0.0000 0.0000 0.0000 2.9086
#
#
#
# Elastic Compliance Matrix: (Units=1/GPa)
#
#
# Indices 1 2 3 4 5 6 
#
# 1 0.010172 0.000173 -0.004503 0.000000 0.000000 0.000000
# 2 0.000173 0.010172 -0.004503 0.000000 0.000000 0.000000
# 3 -0.004503 -0.004503 0.010110 0.000000 0.000000 0.000000
# 4 0.000000 0.000000 0.000000 -0.013655 0.000000 0.000000
# 5 0.000000 0.000000 0.000000 0.000000 -0.013655 0.000000
# 6 0.000000 0.000000 0.000000 0.000000 0.000000 0.343809
#
#
# Mechanical properties :
#
#
# Convention : Reuss Voigt Hill
#
# Bulk Modulus (GPa) = 78.20942 84.30412 81.25677
# Shear Modulus (GPa) = 13.55445 -12.05353 0.75046
#
# Velocity S-wave (km/s) = 2.59392 -2.44610 0.61035
# Velocity P-wave (km/s) = 6.91336 5.81987 6.39005
#
# Compressibility (1/GPa) = 0.01278618
#
# Stress axis : x y z
#
# Youngs Moduli (GPa) = 98.30703 98.30706 98.91515
#
# Poissons Ratio (x) = -0.01696 0.44544
# Poissons Ratio (y) = -0.01696 0.44544
# Poissons Ratio (z) = 0.44270 0.44270
#
# Static dielectric constant tensor:
#      x y z
#    x 3.679800 0.000000 0.000000 
#    y 0.000000 3.679800 0.000000 
#    z 0.000000 0.000000 3.481540 
# 
# 
# High freq. dielectric constant tensor:
#      x y z
#    x 1.784840 0.000000 0.000000 
#    y 0.000000 1.784840 0.000000 
#    z 0.000000 0.000000 1.767750 
# 
# From -- ./inp_files/13385.got.cif
#   From: 2010.03.12/outbox.cif.g09.slc.cpg/sg141_7_cif.got.tgz:13385.got - 2010.04.03 13:18:35.
