data_PCOD8320219
_publ_section_title
;
Structure prediction by ZEFSAII (Michael W. Deem and Ramdas Pophale) SiO2 
 PCOD8320219
Probable space group: I 4/M C M
;
_chemical_formula_sum "Si O2"
_cell_formula_units_Z 160
_cell_length_a 18.921452
_cell_length_b 18.921452
_cell_length_c 27.290207
_cell_angle_alpha 90.000000
_cell_angle_beta 90.000000
_cell_angle_gamma 90.000000
_cell_volume 9770.476637
_symmetry_space_group_name_H-M "I 4/M C M"
_symmetry_group_IT_number 140
_symmetry_cell_setting 'tetragonal'
loop_
_space_group_symop_operation_xyz
x,y,z
-y,x,z
-x,-y,z
y,-x,z
x,-y,1/2-z
-x,y,1/2-z
y,x,1/2-z
-y,-x,1/2-z
-x,-y,-z
y,-x,-z
x,y,-z
-y,x,-z
-x,y,1/2+z
x,-y,1/2+z
-y,-x,1/2+z
y,x,1/2+z
1/2+x,1/2+y,1/2+z
1/2-y,1/2+x,1/2+z
1/2-x,1/2-y,1/2+z
1/2+y,1/2-x,1/2+z
1/2+x,1/2-y,-z
1/2-x,1/2+y,-z
1/2+y,1/2+x,-z
1/2-y,1/2-x,-z
1/2-x,1/2-y,1/2-z
1/2+y,1/2-x,1/2-z
1/2+x,1/2+y,1/2-z
1/2-y,1/2+x,1/2-z
1/2-x,1/2+y,z
1/2+x,1/2-y,z
1/2-y,1/2-x,z
1/2+y,1/2+x,z
loop_
_atom_site_type_symbol
_atom_site_label
_atom_site_fract_x
_atom_site_fract_y
_atom_site_fract_z
Si Si1 0.501053 0.383544 0.804718
Si Si2 0.404084 0.904084 0.442117
Si Si3 0.844383 0.872963 0.942943
Si Si4 0.292390 0.207611 0.058277
Si Si5 0.978889 0.808329 0.900822
Si Si6 0.548030 0.837639 0.443130
O O1 0.569936 0.431388 0.812556
O O2 0.500000 0.350833 0.750000
O O3 0.501574 0.319982 0.843838
O O4 0.400634 0.900634 0.500000
O O5 0.348429 0.848429 0.419510
O O6 0.482910 0.885538 0.424742
O O7 0.785987 0.815613 0.924028
O O8 0.918637 0.864319 0.915491
O O9 0.816765 0.952049 0.934314
O O10 0.857701 0.861089 0.000000
O O11 0.295813 0.204188 0.000000
O O12 0.947272 0.730860 0.909083
O O13 0.538873 0.815408 0.500000
O O14 0.620238 0.879762 0.435500
#
# Coordination Sequence:
#
# PCOD8320219 Si02
#       6
#    32  16  32  16  32  32
#     4   9  18  35  55  74  95 124 170 220 258 299
#     4   9  15  30  51  68  95 136 178 216 245 277
#     4  11  22  33  47  71 109 144 173 203 242 305
#     4   9  18  33  48  65  98 146 180 205 242 291
#     4  12  21  33  50  76 102 139 172 206 259 308
#     4  10  20  32  48  75 107 138 176 216 252 301
#
# _framework density 16.375864
#
# number of rings (size 3 to 8) (size 9 to 14) (size 15 to 20)
#    0.000    1.800    4.000    2.700    1.400    1.600 
#    0.000    1.000    0.000    0.000    5.200    2.800 
#    0.000    0.000    0.000    0.000    0.000    0.000 
#
# Total GULP energy -991934.275349 kJ/mol
# GULP energy per Si atom -12399.178442 kJ/mol
# Density = 1.633859 g / cm^3
# Si number density = 16.375864 Si / 1000 Ang^3
#
#
#
# Elastic Constant Matrix: (Units=GPa)
#
#
# Indices 1 2 3 4 5 6 
#
# 1 77.6042 34.3956 32.6232 0.0000 0.0000 0.0000
# 2 34.3956 77.6043 32.6232 0.0000 0.0000 0.0000
# 3 32.6232 32.6232 79.7504 0.0000 0.0000 0.0000
# 4 0.0000 0.0000 0.0000 14.7084 0.0000 0.0000
# 5 0.0000 0.0000 0.0000 0.0000 14.7084 0.0000
# 6 0.0000 0.0000 0.0000 0.0000 0.0000 23.8685
#
#
#
# Elastic Compliance Matrix: (Units=1/GPa)
#
#
# Indices 1 2 3 4 5 6 
#
# 1 0.017433 -0.005711 -0.004795 0.000000 0.000000 0.000000
# 2 -0.005711 0.017433 -0.004795 0.000000 0.000000 0.000000
# 3 -0.004795 -0.004795 0.016462 0.000000 0.000000 0.000000
# 4 0.000000 0.000000 0.000000 0.067988 0.000000 0.000000
# 5 0.000000 0.000000 0.000000 0.000000 0.067988 0.000000
# 6 0.000000 0.000000 0.000000 0.000000 0.000000 0.041896
#
#
# Mechanical properties :
#
#
# Convention : Reuss Voigt Hill
#
# Bulk Modulus (GPa) = 48.24899 48.24921 48.24910
# Shear Modulus (GPa) = 18.74691 19.67820 19.21255
#
# Velocity S-wave (km/s) = 3.38714 3.47026 3.42895
# Velocity P-wave (km/s) = 6.69511 6.75163 6.72343
#
# Compressibility (1/GPa) = 0.02072582
#
# Stress axis : x y z
#
# Youngs Moduli (GPa) = 57.36326 57.36332 60.74553
#
# Poissons Ratio (x) = 0.32759 0.29128
# Poissons Ratio (y) = 0.32759 0.29128
# Poissons Ratio (z) = 0.27506 0.27506
#
# Static dielectric constant tensor:
#      x y z
#    x 3.139590 0.000000 0.000000 
#    y 0.000000 3.139590 0.000000 
#    z 0.000000 0.000000 2.771840 
# 
# 
# High freq. dielectric constant tensor:
#      x y z
#    x 1.633390 0.000000 0.000000 
#    y 0.000000 1.633390 0.000000 
#    z 0.000000 0.000000 1.580820 
# 
# From -- ./inp_files/11438.got.cif
#   From: 2010.06.25/outbox.cif.g09.slc.cpg/sg140_6_cif.got.tgz:11438.got - 2010.06.28 10:53:23.
