data_PCOD8320551
_publ_section_title
;
Structure prediction by ZEFSAII (Michael W. Deem and Ramdas Pophale) SiO2 
 PCOD8320551
Probable space group: I 41/A M D
;
_chemical_formula_sum "Si O2"
_cell_formula_units_Z 160
_cell_length_a 18.387580
_cell_length_b 18.387580
_cell_length_c 24.324936
_cell_angle_alpha 90.000000
_cell_angle_beta 90.000000
_cell_angle_gamma 90.000000
_cell_volume 8224.336226
_symmetry_space_group_name_H-M "I 41/A M D"
_symmetry_group_IT_number 141
_space_group.IT_coordinate_system_code '2'
_symmetry_cell_setting 'tetragonal'
loop_
_space_group_symop_operation_xyz
x,y,z
1/4-y,3/4+x,1/4+z
-x,1/2-y,z
1/4+y,1/4-x,3/4+z
x,-y,-z
-x,1/2+y,-z
1/4+y,3/4+x,1/4-z
1/4-y,1/4-x,3/4-z
-x,-y,-z
3/4+y,1/4-x,3/4-z
x,1/2+y,-z
3/4-y,3/4+x,1/4-z
-x,y,z
x,1/2-y,z
3/4-y,1/4-x,3/4+z
3/4+y,3/4+x,1/4+z
1/2+x,1/2+y,1/2+z
3/4-y,1/4+x,3/4+z
1/2-x,-y,1/2+z
3/4+y,3/4-x,1/4+z
1/2+x,1/2-y,1/2-z
1/2-x,y,1/2-z
3/4+y,1/4+x,3/4-z
3/4-y,3/4-x,1/4-z
1/2-x,1/2-y,1/2-z
1/4+y,3/4-x,1/4-z
1/2+x,y,1/2-z
1/4-y,1/4+x,3/4-z
1/2-x,1/2+y,1/2+z
1/2+x,-y,1/2+z
1/4-y,3/4-x,1/4+z
1/4+y,1/4+x,3/4+z
loop_
_atom_site_type_symbol
_atom_site_label
_atom_site_fract_x
_atom_site_fract_y
_atom_site_fract_z
Si Si1 0.419378 0.169471 0.882063
Si Si2 0.205597 0.064032 0.935087
Si Si3 0.170668 0.614201 0.775370
Si Si4 0.677999 0.603304 0.549062
Si Si5 0.915048 0.078109 0.328952
O O1 0.500000 0.174099 0.858128
O O2 0.393078 0.250000 0.901620
O O3 0.422128 0.110406 0.931413
O O4 0.369069 0.146341 0.830666
O O5 0.170106 0.079895 0.875000
O O6 0.291122 0.080528 0.938232
O O7 0.202267 0.978849 0.945000
O O8 0.166663 0.112735 0.982652
O O9 0.250000 0.633991 0.750000
O O10 0.110738 0.612294 0.728040
O O11 0.741096 0.653560 0.575575
O O12 0.865036 0.115036 0.375000
O O13 0.000000 0.094976 0.339825
#
# Coordination Sequence:
#
# PCOD8320551 Si02
#       5
#    32  32  32  32  32
#     4  11  24  39  55  78 116 160 197 235 285 350
#     4  10  17  33  62  89 114 136 181 243 301 335
#     4  11  20  36  61  84 114 146 193 244 289 334
#     4  10  19  35  59  85 110 153 188 238 290 353
#     4  11  22  35  54  83 116 156 198 240 285 338
#
# _framework density 19.454457000000001
#
# number of rings (size 3 to 8) (size 9 to 14) (size 15 to 20)
#    0.000    1.400    6.000    3.000    0.000    1.400 
#    0.000    2.000    0.000    0.000    0.000    1.400 
#    0.000    0.000    0.000    0.000    0.000    0.000 
#
# Total GULP energy -991206.473446 kJ/mol
# GULP energy per Si atom -12390.080918 kJ/mol
# Density = 1.941018 g / cm^3
# Si number density = 19.454457 Si / 1000 Ang^3
#
#
#
# Elastic Constant Matrix: (Units=GPa)
#
#
# Indices 1 2 3 4 5 6 
#
# 1 68.9388 24.6978 50.0736 0.0000 0.0000 0.0000
# 2 24.6978 68.9392 50.0734 0.0000 0.0000 0.0000
# 3 50.0736 50.0734 144.6964 0.0000 0.0000 0.0000
# 4 0.0000 0.0000 0.0000 2.9168 0.0000 0.0000
# 5 0.0000 0.0000 0.0000 0.0000 2.9155 0.0000
# 6 0.0000 0.0000 0.0000 0.0000 0.0000 15.9792
#
#
#
# Elastic Compliance Matrix: (Units=1/GPa)
#
#
# Indices 1 2 3 4 5 6 
#
# 1 0.019779 -0.002824 -0.005867 0.000000 0.000000 0.000000
# 2 -0.002824 0.019779 -0.005867 0.000000 0.000000 0.000000
# 3 -0.005867 -0.005867 0.010972 0.000000 0.000000 0.000000
# 4 0.000000 0.000000 0.000000 0.342838 0.000000 0.000000
# 5 0.000000 0.000000 0.000000 0.000000 0.342997 0.000000
# 6 0.000000 0.000000 0.000000 0.000000 0.000000 0.062581
#
#
# Mechanical properties :
#
#
# Convention : Reuss Voigt Hill
#
# Bulk Modulus (GPa) = 46.70240 59.14042 52.92141
# Shear Modulus (GPa) = 5.98658 14.87762 10.43210
#
# Velocity S-wave (km/s) = 1.75611 2.76839 2.31818
# Velocity P-wave (km/s) = 5.30754 6.37841 5.86746
#
# Compressibility (1/GPa) = 0.02141217
#
# Stress axis : x y z
#
# Youngs Moduli (GPa) = 50.55806 50.55860 91.14155
#
# Poissons Ratio (x) = 0.14279 0.53477
# Poissons Ratio (y) = 0.14279 0.53476
# Poissons Ratio (z) = 0.29665 0.29664
#
# Static dielectric constant tensor:
#      x y z
#    x 3.385690 0.000000 0.000000 
#    y 0.000000 3.385690 0.000000 
#    z 0.000000 0.000000 4.375390 
# 
# 
# High freq. dielectric constant tensor:
#      x y z
#    x 1.733520 0.000000 0.000000 
#    y 0.000000 1.733520 0.000000 
#    z 0.000000 0.000000 1.774200 
# 
# From -- ./inp_files/12730.got.cif
#   From: 2010.03.12/outbox.cif.g09.slc.cpg/sg141_7_cif.got.tgz:12730.got - 2010.04.03 13:18:35.
