data_PCOD8320249
_publ_section_title
;
Structure prediction by ZEFSAII (Michael W. Deem and Ramdas Pophale) SiO2 
 PCOD8320249
Probable space group: I 4/M C M
;
_chemical_formula_sum "Si O2"
_cell_formula_units_Z 160
_cell_length_a 30.510929
_cell_length_b 30.510929
_cell_length_c 8.666791
_cell_angle_alpha 90.000000
_cell_angle_beta 90.000000
_cell_angle_gamma 90.000000
_cell_volume 8068.061244
_symmetry_space_group_name_H-M "I 4/M C M"
_symmetry_group_IT_number 140
_symmetry_cell_setting 'tetragonal'
loop_
_space_group_symop_operation_xyz
x,y,z
-y,x,z
-x,-y,z
y,-x,z
x,-y,1/2-z
-x,y,1/2-z
y,x,1/2-z
-y,-x,1/2-z
-x,-y,-z
y,-x,-z
x,y,-z
-y,x,-z
-x,y,1/2+z
x,-y,1/2+z
-y,-x,1/2+z
y,x,1/2+z
1/2+x,1/2+y,1/2+z
1/2-y,1/2+x,1/2+z
1/2-x,1/2-y,1/2+z
1/2+y,1/2-x,1/2+z
1/2+x,1/2-y,-z
1/2-x,1/2+y,-z
1/2+y,1/2+x,-z
1/2-y,1/2-x,-z
1/2-x,1/2-y,1/2-z
1/2+y,1/2-x,1/2-z
1/2+x,1/2+y,1/2-z
1/2-y,1/2+x,1/2-z
1/2-x,1/2+y,z
1/2+x,1/2-y,z
1/2-y,1/2-x,z
1/2+y,1/2+x,z
loop_
_atom_site_type_symbol
_atom_site_label
_atom_site_fract_x
_atom_site_fract_y
_atom_site_fract_z
Si Si1 0.547374 0.615863 0.682935
Si Si2 0.385240 0.885240 0.682033
Si Si3 0.256062 0.313818 0.332348
Si Si4 0.953096 0.453096 0.683022
Si Si5 0.290950 0.889683 0.819094
Si Si6 0.046071 0.215012 0.818319
O O1 0.500000 0.602651 0.750000
O O2 0.584175 0.584175 0.750000
O O3 0.545637 0.610874 0.500000
O O4 0.559525 0.665751 0.733849
O O5 0.390608 0.890608 0.500000
O O6 0.417539 0.917539 0.769850
O O7 0.335895 0.898392 0.728632
O O8 0.302632 0.302632 0.250000
O O9 0.264347 0.336751 0.500000
O O10 0.231524 0.268477 0.364536
O O11 0.225905 0.341522 0.218083
O O12 0.938632 0.500000 0.750000
O O13 0.956397 0.456397 0.500000
O O14 0.251931 0.920748 0.757611
O O15 0.300343 0.894904 0.000000
O O16 0.000000 0.228727 0.750000
O O17 0.043057 0.216634 0.000000
#
# Coordination Sequence:
#
# PCOD8320249 Si02
#       6
#    32  16  32  16  32  32
#     4  10  20  37  59  86 118 153 193 241 294 351
#     4  12  25  41  61  91 125 161 202 247 297 355
#     4  10  20  34  53  78 109 146 188 232 284 340
#     4  11  23  44  71  99 127 159 194 239 295 359
#     4  11  22  38  59  85 118 155 197 248 299 351
#     4   9  21  39  59  83 113 151 194 237 288 345
#
# _framework density 19.831282999999999
#
# number of rings (size 3 to 8) (size 9 to 14) (size 15 to 20)
#    0.000    1.700    1.000    3.900    0.000    5.000 
#    0.000    5.000    0.000    0.000    0.000    0.000 
#    0.000    0.000    0.000    0.000    0.000    0.000 
#
# Total GULP energy -991772.260181 kJ/mol
# GULP energy per Si atom -12397.153252 kJ/mol
# Density = 1.978615 g / cm^3
# Si number density = 19.831283 Si / 1000 Ang^3
#
#
#
# Elastic Constant Matrix: (Units=GPa)
#
#
# Indices 1 2 3 4 5 6 
#
# 1 82.9598 111.0582 39.1741 0.0000 0.0000 0.0000
# 2 111.0582 82.9598 39.1741 0.0000 0.0000 0.0000
# 3 39.1741 39.1741 91.4051 0.0000 0.0000 0.0000
# 4 0.0000 0.0000 0.0000 29.7696 0.0000 0.0000
# 5 0.0000 0.0000 0.0000 0.0000 29.7696 0.0000
# 6 0.0000 0.0000 0.0000 0.0000 0.0000 41.5266
#
#
#
# Elastic Compliance Matrix: (Units=1/GPa)
#
#
# Indices 1 2 3 4 5 6 
#
# 1 -0.014678 0.020911 -0.002671 0.000000 0.000000 0.000000
# 2 0.020911 -0.014678 -0.002671 0.000000 0.000000 0.000000
# 3 -0.002671 -0.002671 0.013230 0.000000 0.000000 0.000000
# 4 0.000000 0.000000 0.000000 0.033591 0.000000 0.000000
# 5 0.000000 0.000000 0.000000 0.000000 0.033591 0.000000
# 6 0.000000 0.000000 0.000000 0.000000 0.000000 0.024081
#
#
# Mechanical properties :
#
#
# Convention : Reuss Voigt Hill
#
# Bulk Modulus (GPa) = 66.61923 70.68193 68.65058
# Shear Modulus (GPa) = 102.03322 24.74105 63.38714
#
# Velocity S-wave (km/s) = 7.18069 3.53594 5.65973
# Velocity P-wave (km/s) = 10.12006 7.23806 8.79787
#
# Compressibility (1/GPa) = 0.01501068
#
# Stress axis : x y z
#
# Youngs Moduli (GPa) = -68.12821 -68.12821 75.58585
#
# Poissons Ratio (x) = 1.42463 0.20191
# Poissons Ratio (y) = 1.42463 0.20191
# Poissons Ratio (z) = -0.18199 -0.18199
#
# Static dielectric constant tensor:
#      x y z
#    x 3.667930 0.000000 0.000000 
#    y 0.000000 3.667930 0.000000 
#    z 0.000000 0.000000 3.837770 
# 
# 
# High freq. dielectric constant tensor:
#      x y z
#    x 1.770320 0.000000 0.000000 
#    y 0.000000 1.770320 0.000000 
#    z 0.000000 0.000000 1.787840 
# 
# From -- ./inp_files/1824.got.cif
#   From: 2010.06.25/outbox.cif.g09.slc.cpg/sg140_1_cif.got.tgz:1824.got - 2010.06.28 10:53:23.
