data_PCOD8320085
_publ_section_title
;
Structure prediction by ZEFSAII (Michael W. Deem and Ramdas Pophale) SiO2 
 PCOD8320085
Probable space group: I 4/M C M
;
_chemical_formula_sum "Si O2"
_cell_formula_units_Z 192
_cell_length_a 25.893429
_cell_length_b 25.893429
_cell_length_c 15.010504
_cell_angle_alpha 90.000000
_cell_angle_beta 90.000000
_cell_angle_gamma 90.000000
_cell_volume 10064.087594
_symmetry_space_group_name_H-M "I 4/M C M"
_symmetry_group_IT_number 140
_symmetry_cell_setting 'tetragonal'
loop_
_space_group_symop_operation_xyz
x,y,z
-y,x,z
-x,-y,z
y,-x,z
x,-y,1/2-z
-x,y,1/2-z
y,x,1/2-z
-y,-x,1/2-z
-x,-y,-z
y,-x,-z
x,y,-z
-y,x,-z
-x,y,1/2+z
x,-y,1/2+z
-y,-x,1/2+z
y,x,1/2+z
1/2+x,1/2+y,1/2+z
1/2-y,1/2+x,1/2+z
1/2-x,1/2-y,1/2+z
1/2+y,1/2-x,1/2+z
1/2+x,1/2-y,-z
1/2-x,1/2+y,-z
1/2+y,1/2+x,-z
1/2-y,1/2-x,-z
1/2-x,1/2-y,1/2-z
1/2+y,1/2-x,1/2-z
1/2+x,1/2+y,1/2-z
1/2-y,1/2+x,1/2-z
1/2-x,1/2+y,z
1/2+x,1/2-y,z
1/2-y,1/2-x,z
1/2+y,1/2+x,z
loop_
_atom_site_type_symbol
_atom_site_label
_atom_site_fract_x
_atom_site_fract_y
_atom_site_fract_z
Si Si1 0.834130 0.753478 0.500000
Si Si2 0.751807 0.097537 0.675631
Si Si3 0.333018 0.748510 0.000000
Si Si4 0.429739 0.454124 0.103353
Si Si5 0.738104 0.987001 0.396649
Si Si6 0.695389 0.112624 0.847619
Si Si7 0.553516 0.332912 0.206479
O O1 0.793801 0.706200 0.500000
O O2 0.869060 0.750964 0.587360
O O3 0.809383 0.810620 0.500000
O O4 0.712377 0.122965 0.746032
O O5 0.809115 0.093245 0.720199
O O6 0.731442 0.039673 0.657656
O O7 0.365800 0.759495 0.088251
O O8 0.282650 0.782650 0.000000
O O9 0.484862 0.429528 0.126849
O O10 0.385477 0.424920 0.160601
O O11 0.417218 0.446294 0.000000
O O12 0.739166 0.000597 0.500000
O O13 0.690598 0.948452 0.370857
O O14 0.790247 0.957121 0.369550
O O15 0.640898 0.140898 0.866185
O O16 0.500000 0.348787 0.250000
#
# Coordination Sequence:
#
# PCOD8320085 Si02
#       7
#    16  32  16  32  32  32  32
#     4  11  22  39  60  82 115 156 188 233 289 337
#     4  10  21  37  56  82 114 149 188 231 281 342
#     4   9  20  35  54  80 110 148 186 223 274 329
#     4   9  18  34  55  76 100 136 189 249 307 356
#     4  10  18  34  58  79 111 151 182 229 285 327
#     4  10  19  35  58  85 114 148 191 234 278 336
#     4   9  19  33  51  72 103 139 179 228 290 337
#
# _framework density 19.077735000000001
#
# number of rings (size 3 to 8) (size 9 to 14) (size 15 to 20)
#    0.000    2.333    1.667    3.000    0.000    1.333 
#    0.000   16.667    0.000    0.000    0.000    0.000 
#    0.000   12.000    0.000    0.000    0.000    0.000 
#
# Total GULP energy -1189856.272670 kJ/mol
# GULP energy per Si atom -12394.336174 kJ/mol
# Density = 1.903431 g / cm^3
# Si number density = 19.077735 Si / 1000 Ang^3
#
#
#
# Elastic Constant Matrix: (Units=GPa)
#
#
# Indices 1 2 3 4 5 6 
#
# 1 85.0635 41.5666 44.8593 0.0000 0.0000 0.0000
# 2 41.5666 85.0628 44.8588 0.0000 0.0000 0.0000
# 3 44.8593 44.8588 129.2572 0.0000 0.0000 0.0000
# 4 0.0000 0.0000 0.0000 27.5333 0.0000 0.0000
# 5 0.0000 0.0000 0.0000 0.0000 27.5332 0.0000
# 6 0.0000 0.0000 0.0000 0.0000 0.0000 17.8355
#
#
#
# Elastic Compliance Matrix: (Units=1/GPa)
#
#
# Indices 1 2 3 4 5 6 
#
# 1 0.016731 -0.006259 -0.003634 0.000000 0.000000 0.000000
# 2 -0.006259 0.016731 -0.003634 0.000000 0.000000 0.000000
# 3 -0.003634 -0.003634 0.010259 0.000000 0.000000 0.000000
# 4 0.000000 0.000000 0.000000 0.036320 0.000000 0.000000
# 5 0.000000 0.000000 0.000000 0.000000 0.036320 0.000000
# 6 0.000000 0.000000 0.000000 0.000000 0.000000 0.056068
#
#
# Mechanical properties :
#
#
# Convention : Reuss Voigt Hill
#
# Bulk Modulus (GPa) = 60.00322 62.43921 61.22121
# Shear Modulus (GPa) = 24.38553 25.78700 25.08626
#
# Velocity S-wave (km/s) = 3.57910 3.68051 3.63016
# Velocity P-wave (km/s) = 6.97138 7.13172 7.05201
#
# Compressibility (1/GPa) = 0.01666577
#
# Stress axis : x y z
#
# Youngs Moduli (GPa) = 59.76886 59.76859 97.47427
#
# Poissons Ratio (x) = 0.37410 0.35426
# Poissons Ratio (y) = 0.37410 0.35425
# Poissons Ratio (z) = 0.21722 0.21722
#
# Static dielectric constant tensor:
#      x y z
#    x 3.427150 0.000000 0.000000 
#    y 0.000000 3.427150 0.000000 
#    z 0.000000 0.000000 3.540760 
# 
# 
# High freq. dielectric constant tensor:
#      x y z
#    x 1.718280 0.000000 0.000000 
#    y 0.000000 1.718280 0.000000 
#    z 0.000000 0.000000 1.765700 
# 
# From -- ./inp_files/5200.got.cif
#   From: 2010.06.25/outbox.cif.g09.slc.cpg/sg140_3_cif.got.tgz:5200.got - 2010.06.28 10:53:23.
