data_PCOD8320304
_publ_section_title
;
Structure prediction by ZEFSAII (Michael W. Deem and Ramdas Pophale) SiO2 
 PCOD8320304
Probable space group: I 4/M C M
;
_chemical_formula_sum "Si O2"
_cell_formula_units_Z 160
_cell_length_a 22.531222
_cell_length_b 22.531222
_cell_length_c 12.789561
_cell_angle_alpha 90.000000
_cell_angle_beta 90.000000
_cell_angle_gamma 90.000000
_cell_volume 6492.696929
_symmetry_space_group_name_H-M "I 4/M C M"
_symmetry_group_IT_number 140
_symmetry_cell_setting 'tetragonal'
loop_
_space_group_symop_operation_xyz
x,y,z
-y,x,z
-x,-y,z
y,-x,z
x,-y,1/2-z
-x,y,1/2-z
y,x,1/2-z
-y,-x,1/2-z
-x,-y,-z
y,-x,-z
x,y,-z
-y,x,-z
-x,y,1/2+z
x,-y,1/2+z
-y,-x,1/2+z
y,x,1/2+z
1/2+x,1/2+y,1/2+z
1/2-y,1/2+x,1/2+z
1/2-x,1/2-y,1/2+z
1/2+y,1/2-x,1/2+z
1/2+x,1/2-y,-z
1/2-x,1/2+y,-z
1/2+y,1/2+x,-z
1/2-y,1/2-x,-z
1/2-x,1/2-y,1/2-z
1/2+y,1/2-x,1/2-z
1/2+x,1/2+y,1/2-z
1/2-y,1/2+x,1/2-z
1/2-x,1/2+y,z
1/2+x,1/2-y,z
1/2-y,1/2-x,z
1/2+y,1/2+x,z
loop_
_atom_site_type_symbol
_atom_site_label
_atom_site_fract_x
_atom_site_fract_y
_atom_site_fract_z
Si Si1 0.703877 0.067549 0.618215
Si Si2 0.134300 0.457599 0.120170
Si Si3 0.646563 0.399998 0.625453
Si Si4 0.664570 0.469683 0.881307
Si Si5 0.635107 0.773893 0.313003
O O1 0.690283 0.088212 0.500000
O O2 0.764769 0.030847 0.623519
O O3 0.710630 0.124811 0.690421
O O4 0.651571 0.023709 0.664437
O O5 0.076739 0.423262 0.171272
O O6 0.192704 0.416425 0.123371
O O7 0.119703 0.469079 0.000000
O O8 0.646800 0.400988 0.500000
O O9 0.645848 0.467554 0.671647
O O10 0.589028 0.365000 0.671697
O O11 0.704508 0.364526 0.662934
O O12 0.641287 0.469793 0.000000
O O13 0.699607 0.800394 0.343311
#
# Coordination Sequence:
#
# PCOD8320304 Si02
#       5
#    32  32  32  32  32
#     4  10  20  37  57  82 120 164 208 252 307 367
#     4   9  17  31  56  89 119 150 195 249 302 363
#     4  10  20  37  60  91 126 161 204 251 305 367
#     4   9  19  35  58  86 121 164 202 247 302 359
#     4  11  22  35  58  89 122 163 205 251 307 365
#
# _framework density 24.643072
#
# number of rings (size 3 to 8) (size 9 to 14) (size 15 to 20)
#    0.000    2.200    2.000    1.200    0.000    2.800 
#    0.000    4.000    0.000    4.200    0.000    8.400 
#    0.000    0.000    0.000    2.200    0.000    0.000 
#
# Total GULP energy -991563.858262 kJ/mol
# GULP energy per Si atom -12394.548228 kJ/mol
# Density = 2.458698 g / cm^3
# Si number density = 24.643072 Si / 1000 Ang^3
#
#
#
# Elastic Constant Matrix: (Units=GPa)
#
#
# Indices 1 2 3 4 5 6 
#
# 1 122.8703 92.6928 19.4959 0.0000 0.0000 0.0000
# 2 92.6928 122.8703 19.4959 0.0000 0.0000 0.0000
# 3 19.4959 19.4959 41.2956 0.0000 0.0000 0.0000
# 4 0.0000 0.0000 0.0000 22.8973 0.0000 0.0000
# 5 0.0000 0.0000 0.0000 0.0000 22.8973 0.0000
# 6 0.0000 0.0000 0.0000 0.0000 0.0000 47.9517
#
#
#
# Elastic Compliance Matrix: (Units=1/GPa)
#
#
# Indices 1 2 3 4 5 6 
#
# 1 0.019105 -0.014033 -0.002395 0.000000 0.000000 0.000000
# 2 -0.014033 0.019105 -0.002395 0.000000 0.000000 0.000000
# 3 -0.002395 -0.002395 0.026477 0.000000 0.000000 0.000000
# 4 0.000000 0.000000 0.000000 0.043673 0.000000 0.000000
# 5 0.000000 0.000000 0.000000 0.000000 0.043673 0.000000
# 6 0.000000 0.000000 0.000000 0.000000 0.000000 0.020854
#
#
# Mechanical properties :
#
#
# Convention : Reuss Voigt Hill
#
# Bulk Modulus (GPa) = 36.97872 61.15616 49.06744
# Shear Modulus (GPa) = 22.77443 29.10604 25.94023
#
# Velocity S-wave (km/s) = 3.04332 3.44045 3.24796
# Velocity P-wave (km/s) = 5.23329 6.37596 5.83268
#
# Compressibility (1/GPa) = 0.02704258
#
# Stress axis : x y z
#
# Youngs Moduli (GPa) = 52.34313 52.34313 37.76912
#
# Poissons Ratio (x) = 0.73451 0.09044
# Poissons Ratio (y) = 0.73451 0.09044
# Poissons Ratio (z) = 0.12534 0.12534
#
# Static dielectric constant tensor:
#      x y z
#    x 4.392030 0.000000 0.000000 
#    y 0.000000 4.392030 0.000000 
#    z 0.000000 0.000000 4.744020 
# 
# 
# High freq. dielectric constant tensor:
#      x y z
#    x 1.962260 0.000000 0.000000 
#    y 0.000000 1.962260 0.000000 
#    z 0.000000 0.000000 2.012130 
# 
# From -- ./inp_files/4710.got.cif
#   From: 2010.06.25/outbox.cif.g09.slc.cpg/sg140_3_cif.got.tgz:4710.got - 2010.06.28 10:53:23.
