data_PCOD8320225
_publ_section_title
;
Structure prediction by ZEFSAII (Michael W. Deem and Ramdas Pophale) SiO2 
 PCOD8320225
Probable space group: I 4/M C M
;
_chemical_formula_sum "Si O2"
_cell_formula_units_Z 240
_cell_length_a 30.823884
_cell_length_b 30.823884
_cell_length_c 14.933730
_cell_angle_alpha 90.000000
_cell_angle_beta 90.000000
_cell_angle_gamma 90.000000
_cell_volume 14188.713462
_symmetry_space_group_name_H-M "I 4/M C M"
_symmetry_group_IT_number 140
_symmetry_cell_setting 'tetragonal'
loop_
_space_group_symop_operation_xyz
x,y,z
-y,x,z
-x,-y,z
y,-x,z
x,-y,1/2-z
-x,y,1/2-z
y,x,1/2-z
-y,-x,1/2-z
-x,-y,-z
y,-x,-z
x,y,-z
-y,x,-z
-x,y,1/2+z
x,-y,1/2+z
-y,-x,1/2+z
y,x,1/2+z
1/2+x,1/2+y,1/2+z
1/2-y,1/2+x,1/2+z
1/2-x,1/2-y,1/2+z
1/2+y,1/2-x,1/2+z
1/2+x,1/2-y,-z
1/2-x,1/2+y,-z
1/2+y,1/2+x,-z
1/2-y,1/2-x,-z
1/2-x,1/2-y,1/2-z
1/2+y,1/2-x,1/2-z
1/2+x,1/2+y,1/2-z
1/2-y,1/2+x,1/2-z
1/2-x,1/2+y,z
1/2+x,1/2-y,z
1/2-y,1/2-x,z
1/2+y,1/2+x,z
loop_
_atom_site_type_symbol
_atom_site_label
_atom_site_fract_x
_atom_site_fract_y
_atom_site_fract_z
Si Si1 0.546614 0.256262 0.602536
Si Si2 0.862298 0.790322 0.602868
Si Si3 0.800227 0.864078 0.602917
Si Si4 0.452928 0.268866 0.398377
Si Si5 0.195884 0.566898 0.740146
Si Si6 0.771136 0.341048 0.256097
Si Si7 0.571814 0.001327 0.500000
Si Si8 0.467527 0.103357 0.678493
O O1 0.549712 0.239625 0.500000
O O2 0.586397 0.288532 0.625772
O O3 0.502535 0.284523 0.618253
O O4 0.546897 0.214082 0.666688
O O5 0.853365 0.777801 0.500000
O O6 0.845000 0.838868 0.625019
O O7 0.837521 0.755532 0.663683
O O8 0.787368 0.856297 0.500000
O O9 0.805375 0.916044 0.623482
O O10 0.761324 0.844923 0.660955
O O11 0.447376 0.253429 0.500000
O O12 0.445278 0.226874 0.340333
O O13 0.194851 0.619048 0.748586
O O14 0.149988 0.546391 0.716309
O O15 0.796812 0.296812 0.269001
O O16 0.549502 0.049502 0.500000
O O17 0.533339 0.966662 0.500000
O O18 0.603401 0.993892 0.414988
O O19 0.500000 0.081701 0.750000
O O20 0.424321 0.075680 0.668038
#
# Coordination Sequence:
#
# PCOD8320225 Si02
#       8
#    32  32  32  32  32  32  16  32
#     4   9  17  31  50  70  94 126 159 194 235 280
#     4   9  18  31  47  67  93 124 160 196 232 275
#     4   9  18  31  45  67  95 123 155 195 236 275
#     4   9  17  29  48  69  94 122 152 191 236 280
#     4  10  20  34  49  71  94 120 151 191 237 285
#     4  10  20  33  48  65  92 124 157 193 232 277
#     4   9  20  38  56  74  94 116 146 184 230 288
#     4  11  22  36  55  74  93 119 150 187 235 289
#
# _framework density 16.914852
#
# number of rings (size 3 to 8) (size 9 to 14) (size 15 to 20)
#    0.000    2.467    0.000    2.400    0.933    2.267 
#    1.200    1.333    0.000    0.800    0.000    0.000 
#    0.000    0.533    0.000    7.467    0.000   20.800 
#
# Total GULP energy -1486882.403084 kJ/mol
# GULP energy per Si atom -12390.686692 kJ/mol
# Density = 1.687635 g / cm^3
# Si number density = 16.914852 Si / 1000 Ang^3
#
#
#
# Elastic Constant Matrix: (Units=GPa)
#
#
# Indices 1 2 3 4 5 6 
#
# 1 98.2595 69.0641 44.6031 0.0000 0.0000 0.0000
# 2 69.0641 98.2596 44.6030 0.0000 0.0000 0.0000
# 3 44.6031 44.6030 97.7499 0.0000 0.0000 0.0000
# 4 0.0000 0.0000 0.0000 22.1474 0.0000 0.0000
# 5 0.0000 0.0000 0.0000 0.0000 22.1476 0.0000
# 6 0.0000 0.0000 0.0000 0.0000 0.0000 16.7222
#
#
#
# Elastic Compliance Matrix: (Units=1/GPa)
#
#
# Indices 1 2 3 4 5 6 
#
# 1 0.021075 -0.013177 -0.003604 0.000000 0.000000 0.000000
# 2 -0.013177 0.021075 -0.003604 0.000000 0.000000 0.000000
# 3 -0.003604 -0.003604 0.013519 0.000000 0.000000 0.000000
# 4 0.000000 0.000000 0.000000 0.045152 0.000000 0.000000
# 5 0.000000 0.000000 0.000000 0.000000 0.045152 0.000000
# 6 0.000000 0.000000 0.000000 0.000000 0.000000 0.059801
#
#
# Mechanical properties :
#
#
# Convention : Reuss Voigt Hill
#
# Bulk Modulus (GPa) = 67.11634 67.86772 67.49203
# Shear Modulus (GPa) = 19.88005 21.27002 20.57503
#
# Velocity S-wave (km/s) = 3.43199 3.54994 3.49146
# Velocity P-wave (km/s) = 7.44780 7.55070 7.49943
#
# Compressibility (1/GPa) = 0.01489950
#
# Stress axis : x y z
#
# Youngs Moduli (GPa) = 47.44997 47.45015 73.97043
#
# Poissons Ratio (x) = 0.62525 0.26657
# Poissons Ratio (y) = 0.62525 0.26657
# Poissons Ratio (z) = 0.17100 0.17099
#
# Static dielectric constant tensor:
#      x y z
#    x 3.240270 0.000000 0.000000 
#    y 0.000000 3.240270 0.000000 
#    z 0.000000 0.000000 3.458780 
# 
# 
# High freq. dielectric constant tensor:
#      x y z
#    x 1.633440 0.000000 0.000000 
#    y 0.000000 1.633440 0.000000 
#    z 0.000000 0.000000 1.675240 
# 
# From -- ./inp_files/5382.got.cif
#   From: 2010.06.25/outbox.cif.g09.slc.cpg/sg140_3_cif.got.tgz:5382.got - 2010.06.28 10:53:23.
