data_PCOD8320700
_publ_section_title
;
Structure prediction by ZEFSAII (Michael W. Deem and Ramdas Pophale) SiO2 
 PCOD8320700
Probable space group: I 41/A M D
;
_chemical_formula_sum "Si O2"
_cell_formula_units_Z 160
_cell_length_a 25.063060
_cell_length_b 25.063060
_cell_length_c 13.971093
_cell_angle_alpha 90.000000
_cell_angle_beta 90.000000
_cell_angle_gamma 90.000000
_cell_volume 8776.039538
_symmetry_space_group_name_H-M "I 41/A M D"
_symmetry_group_IT_number 141
_space_group.IT_coordinate_system_code '2'
_symmetry_cell_setting 'tetragonal'
loop_
_space_group_symop_operation_xyz
x,y,z
1/4-y,3/4+x,1/4+z
-x,1/2-y,z
1/4+y,1/4-x,3/4+z
x,-y,-z
-x,1/2+y,-z
1/4+y,3/4+x,1/4-z
1/4-y,1/4-x,3/4-z
-x,-y,-z
3/4+y,1/4-x,3/4-z
x,1/2+y,-z
3/4-y,3/4+x,1/4-z
-x,y,z
x,1/2-y,z
3/4-y,1/4-x,3/4+z
3/4+y,3/4+x,1/4+z
1/2+x,1/2+y,1/2+z
3/4-y,1/4+x,3/4+z
1/2-x,-y,1/2+z
3/4+y,3/4-x,1/4+z
1/2+x,1/2-y,1/2-z
1/2-x,y,1/2-z
3/4+y,1/4+x,3/4-z
3/4-y,3/4-x,1/4-z
1/2-x,1/2-y,1/2-z
1/4+y,3/4-x,1/4-z
1/2+x,y,1/2-z
1/4-y,1/4+x,3/4-z
1/2-x,1/2+y,1/2+z
1/2+x,-y,1/2+z
1/4-y,3/4-x,1/4+z
1/4+y,1/4+x,3/4+z
loop_
_atom_site_type_symbol
_atom_site_label
_atom_site_fract_x
_atom_site_fract_y
_atom_site_fract_z
Si Si1 0.063187 0.026229 0.906377
Si Si2 0.641525 0.812278 0.835532
Si Si3 0.757159 0.686633 0.546304
Si Si4 0.439207 0.356828 0.538163
Si Si5 0.437520 0.892458 0.137234
O O1 0.084156 0.993334 0.813738
O O2 0.078851 0.088387 0.909194
O O3 0.000000 0.020558 0.907078
O O4 0.089176 0.000000 0.000000
O O5 0.638252 0.750000 0.856109
O O6 0.588281 0.838281 0.875000
O O7 0.693897 0.836424 0.890134
O O8 0.639889 0.825304 0.724124
O O9 0.759595 0.750000 0.552843
O O10 0.700827 0.666521 0.586104
O O11 0.500000 0.359529 0.500012
O O12 0.435646 0.314355 0.625000
O O13 0.402830 0.343934 0.446190
O O14 0.500000 0.885049 0.160281
#
# Coordination Sequence:
#
# PCOD8320700 Si02
#       5
#    32  32  32  32  32
#     4   9  18  31  50  76 104 136 176 227 276 318
#     4  10  22  36  54  78 106 140 179 226 279 331
#     4   9  17  34  55  73  99 136 182 229 263 304
#     4  11  21  33  51  79 115 148 182 223 276 343
#     4  10  20  35  52  75 106 145 187 222 262 318
#
# _framework density 18.231459000000001
#
# number of rings (size 3 to 8) (size 9 to 14) (size 15 to 20)
#    0.000    2.200    2.000    1.200    2.800    4.800 
#    0.000    2.000    0.000    0.000    0.000    4.200 
#    0.000    0.000    0.000    0.000    0.000    0.000 
#
# Total GULP energy -991352.504210 kJ/mol
# GULP energy per Si atom -12391.906303 kJ/mol
# Density = 1.818996 g / cm^3
# Si number density = 18.231459 Si / 1000 Ang^3
#
#
#
# Elastic Constant Matrix: (Units=GPa)
#
#
# Indices 1 2 3 4 5 6 
#
# 1 -37.3884 130.3796 57.3689 0.0000 0.0000 0.0000
# 2 130.3796 -37.3888 57.3708 0.0000 0.0000 0.0000
# 3 57.3689 57.3708 150.0134 0.0000 0.0000 0.0000
# 4 0.0000 0.0000 0.0000 32.6519 0.0000 0.0000
# 5 0.0000 0.0000 0.0000 0.0000 32.6518 0.0000
# 6 0.0000 0.0000 0.0000 0.0000 0.0000 5.3178
#
#
#
# Elastic Compliance Matrix: (Units=1/GPa)
#
#
# Indices 1 2 3 4 5 6 
#
# 1 0.007201 0.013161 -0.007787 0.000000 0.000000 0.000000
# 2 0.013161 0.007201 -0.007787 0.000000 0.000000 0.000000
# 3 -0.007787 -0.007787 0.012622 0.000000 0.000000 0.000000
# 4 0.000000 0.000000 0.000000 0.030626 0.000000 0.000000
# 5 0.000000 0.000000 0.000000 0.000000 0.030626 0.000000
# 6 0.000000 0.000000 0.000000 0.000000 0.000000 0.188047
#
#
# Mechanical properties :
#
#
# Convention : Reuss Voigt Hill
#
# Bulk Modulus (GPa) = 45.04937 62.83054 53.93996
# Shear Modulus (GPa) = 17.32814 2.79876 10.06345
#
# Velocity S-wave (km/s) = 3.08629 1.24035 2.35198
# Velocity P-wave (km/s) = 6.12075 6.04887 6.08491
#
# Compressibility (1/GPa) = 0.02219787
#
# Stress axis : x y z
#
# Youngs Moduli (GPa) = 138.87273 138.87729 79.22597
#
# Poissons Ratio (x) = -1.82781 0.61695
# Poissons Ratio (y) = -1.82775 0.61693
# Poissons Ratio (z) = 1.08143 1.08144
#
# Static dielectric constant tensor:
#      x y z
#    x 3.190440 0.000000 0.000000 
#    y 0.000000 3.190440 0.000000 
#    z 0.000000 0.000000 3.834730 
# 
# 
# High freq. dielectric constant tensor:
#      x y z
#    x 1.678450 0.000000 0.000000 
#    y 0.000000 1.678450 0.000000 
#    z 0.000000 0.000000 1.729960 
# 
# From -- ./inp_files/4843.got.cif
#   From: 2010.03.12/outbox.cif.g09.slc.cpg/sg141_3_cif.got.tgz:4843.got - 2010.04.03 13:18:35.
