data_PCOD8320984
_publ_section_title
;
Structure prediction by ZEFSAII (Michael W. Deem and Ramdas Pophale) SiO2 
 PCOD8320984
Probable space group: I 41/A C D
;
_chemical_formula_sum "Si O2"
_cell_formula_units_Z 112
_cell_length_a 13.299669
_cell_length_b 13.299669
_cell_length_c 22.930408
_cell_angle_alpha 90.000000
_cell_angle_beta 90.000000
_cell_angle_gamma 90.000000
_cell_volume 4055.957981
_symmetry_space_group_name_H-M "I 41/A C D"
_symmetry_group_IT_number 142
_space_group.IT_coordinate_system_code '2'
_symmetry_cell_setting 'tetragonal'
loop_
_space_group_symop_operation_xyz
x,y,z
1/4-y,3/4+x,1/4+z
-x,1/2-y,z
1/4+y,1/4-x,3/4+z
x,-y,1/2-z
1/2-x,y,-z
3/4+y,1/4+x,1/4-z
1/4-y,1/4-x,1/4-z
-x,-y,-z
3/4+y,1/4-x,3/4-z
x,1/2+y,-z
3/4-y,3/4+x,1/4-z
-x,y,1/2+z
1/2+x,-y,z
1/4-y,3/4-x,3/4+z
3/4+y,3/4+x,3/4+z
1/2+x,1/2+y,1/2+z
3/4-y,1/4+x,3/4+z
1/2-x,-y,1/2+z
3/4+y,3/4-x,1/4+z
1/2+x,1/2-y,-z
-x,1/2+y,1/2-z
1/4+y,3/4+x,3/4-z
3/4-y,3/4-x,3/4-z
1/2-x,1/2-y,1/2-z
1/4+y,3/4-x,1/4-z
1/2+x,y,1/2-z
1/4-y,1/4+x,3/4-z
1/2-x,1/2+y,z
x,1/2-y,1/2+z
3/4-y,1/4-x,1/4+z
1/4+y,1/4+x,1/4+z
loop_
_atom_site_type_symbol
_atom_site_label
_atom_site_fract_x
_atom_site_fract_y
_atom_site_fract_z
Si Si1 0.140266 0.408470 0.015050
Si Si2 0.250000 0.603208 0.000000
Si Si3 0.492024 0.906891 0.651519
Si Si4 0.140641 0.754605 0.654414
O O1 0.110512 0.347110 0.073365
O O2 0.250000 0.360770 0.000000
O O3 0.157232 0.529437 0.022399
O O4 0.059072 0.378069 0.966410
O O5 0.207272 0.669646 0.948794
O O6 0.436317 0.813684 0.625000
O O7 0.516887 0.991539 0.603193
O O8 0.076939 0.651406 0.648431
#
# Coordination Sequence:
#
# PCOD8320984 Si02
#       4
#    32  16  32  32
#     4  10  20  37  61  95 132 164 234 284 324 444
#     4  10  18  36  64  94 128 168 234 276 332 430
#     4  12  21  38  70  99 131 188 229 291 362 415
#     4  11  21  38  67  96 134 182 230 290 362 418
#
# _framework density 27.613700000000001
#
# number of rings (size 3 to 8) (size 9 to 14) (size 15 to 20)
#    0.857    0.286    7.143    0.000    0.000    0.000 
#    0.000    1.429   18.857    0.000    0.000    0.000 
#    0.000    0.000    0.000    0.000    0.000    0.000 
#
# Total GULP energy -694405.863163 kJ/mol
# GULP energy per Si atom -12400.104699 kJ/mol
# Density = 2.755085 g / cm^3
# Si number density = 27.613700 Si / 1000 Ang^3
#
#
#
# Elastic Constant Matrix: (Units=GPa)
#
#
# Indices 1 2 3 4 5 6 
#
# 1 142.3350 37.8797 28.3014 0.0000 0.0000 0.0000
# 2 37.8797 142.3356 28.3019 0.0000 0.0000 0.0000
# 3 28.3014 28.3019 103.9017 0.0000 0.0000 0.0000
# 4 0.0000 0.0000 0.0000 11.4003 0.0000 0.0000
# 5 0.0000 0.0000 0.0000 0.0000 11.3995 0.0000
# 6 0.0000 0.0000 0.0000 0.0000 0.0000 40.0862
#
#
#
# Elastic Compliance Matrix: (Units=1/GPa)
#
#
# Indices 1 2 3 4 5 6 
#
# 1 0.007821 -0.001753 -0.001653 0.000000 0.000000 0.000000
# 2 -0.001753 0.007821 -0.001653 0.000000 0.000000 0.000000
# 3 -0.001653 -0.001653 0.010525 0.000000 0.000000 0.000000
# 4 0.000000 0.000000 0.000000 0.087717 0.000000 0.000000
# 5 0.000000 0.000000 0.000000 0.000000 0.087723 0.000000
# 6 0.000000 0.000000 0.000000 0.000000 0.000000 0.024946
#
#
# Mechanical properties :
#
#
# Convention : Reuss Voigt Hill
#
# Bulk Modulus (GPa) = 62.30691 64.17091 63.23891
# Shear Modulus (GPa) = 20.65949 32.18315 26.42132
#
# Velocity S-wave (km/s) = 2.73822 3.41761 3.09661
# Velocity P-wave (km/s) = 5.71051 6.23399 5.97798
#
# Compressibility (1/GPa) = 0.01604958
#
# Stress axis : x y z
#
# Youngs Moduli (GPa) = 127.86460 127.86492 95.01256
#
# Poissons Ratio (x) = 0.22411 0.15704
# Poissons Ratio (y) = 0.22411 0.15705
# Poissons Ratio (z) = 0.21134 0.21135
#
# Static dielectric constant tensor:
#      x y z
#    x 5.307840 0.000000 0.000000 
#    y 0.000000 5.307840 0.000000 
#    z 0.000000 0.000000 6.190860 
# 
# 
# High freq. dielectric constant tensor:
#      x y z
#    x 2.140080 0.000000 0.000000 
#    y 0.000000 2.140080 0.000000 
#    z 0.000000 0.000000 2.113020 
# 
# From -- ./inp_files/9781.got.cif
#   From: 2010.03.12/outbox.cif.g09.slc.cpg/sg142_5_cif.got.tgz:9781.got - 2010.04.03 13:27:16.
