data_PCOD8320777
_publ_section_title
;
Structure prediction by ZEFSAII (Michael W. Deem and Ramdas Pophale) SiO2 
 PCOD8320777
Probable space group: I 41/A M D
;
_chemical_formula_sum "Si O2"
_cell_formula_units_Z 128
_cell_length_a 19.212544
_cell_length_b 19.212544
_cell_length_c 18.045433
_cell_angle_alpha 90.000000
_cell_angle_beta 90.000000
_cell_angle_gamma 90.000000
_cell_volume 6660.963558
_symmetry_space_group_name_H-M "I 41/A M D"
_symmetry_group_IT_number 141
_space_group.IT_coordinate_system_code '2'
_symmetry_cell_setting 'tetragonal'
loop_
_space_group_symop_operation_xyz
x,y,z
1/4-y,3/4+x,1/4+z
-x,1/2-y,z
1/4+y,1/4-x,3/4+z
x,-y,-z
-x,1/2+y,-z
1/4+y,3/4+x,1/4-z
1/4-y,1/4-x,3/4-z
-x,-y,-z
3/4+y,1/4-x,3/4-z
x,1/2+y,-z
3/4-y,3/4+x,1/4-z
-x,y,z
x,1/2-y,z
3/4-y,1/4-x,3/4+z
3/4+y,3/4+x,1/4+z
1/2+x,1/2+y,1/2+z
3/4-y,1/4+x,3/4+z
1/2-x,-y,1/2+z
3/4+y,3/4-x,1/4+z
1/2+x,1/2-y,1/2-z
1/2-x,y,1/2-z
3/4+y,1/4+x,3/4-z
3/4-y,3/4-x,1/4-z
1/2-x,1/2-y,1/2-z
1/4+y,3/4-x,1/4-z
1/2+x,y,1/2-z
1/4-y,1/4+x,3/4-z
1/2-x,1/2+y,1/2+z
1/2+x,-y,1/2+z
1/4-y,3/4-x,1/4+z
1/4+y,1/4+x,3/4+z
loop_
_atom_site_type_symbol
_atom_site_label
_atom_site_fract_x
_atom_site_fract_y
_atom_site_fract_z
Si Si1 0.196894 0.073730 0.461546
Si Si2 0.811039 0.670892 0.200990
Si Si3 0.922564 0.672480 0.713154
Si Si4 0.580331 0.440720 0.718020
O O1 0.190527 0.059474 0.375000
O O2 0.128397 0.112671 0.493881
O O3 0.260014 0.126310 0.477305
O O4 0.208313 0.000000 0.500000
O O5 0.823449 0.750000 0.224173
O O6 0.750000 0.636458 0.250000
O O7 0.783887 0.664041 0.116780
O O8 0.884527 0.635106 0.219202
O O9 0.921557 0.671557 0.625000
O O10 0.906333 0.750000 0.742786
O O11 0.000000 0.649017 0.740188
O O12 0.500000 0.436113 0.744457
#
# Coordination Sequence:
#
# PCOD8320777 Si02
#       4
#    32  32  32  32
#     4  11  24  36  55  82 111 151 189 237 284 341
#     4   9  19  36  61  88 116 150 188 231 288 354
#     4   8  15  32  56  77 102 139 182 224 269 323
#     4  10  21  36  59  86 116 151 190 238 287 342
#
# _framework density 19.216439000000001
#
# number of rings (size 3 to 8) (size 9 to 14) (size 15 to 20)
#    0.000    2.500    0.000    2.250    7.000    2.000 
#    0.000    2.500    0.000    0.000    0.000    0.000 
#    0.000    0.000    0.000    0.000    0.000    0.000 
#
# Total GULP energy -793282.856987 kJ/mol
# GULP energy per Si atom -12395.044640 kJ/mol
# Density = 1.917270 g / cm^3
# Si number density = 19.216439 Si / 1000 Ang^3
#
#
#
# Elastic Constant Matrix: (Units=GPa)
#
#
# Indices 1 2 3 4 5 6 
#
# 1 124.1316 62.9579 42.3501 0.0000 0.0000 0.0000
# 2 62.9579 124.1316 42.3500 0.0000 0.0000 0.0000
# 3 42.3501 42.3500 61.3924 0.0000 0.0000 0.0000
# 4 0.0000 0.0000 0.0000 20.5255 0.0000 0.0000
# 5 0.0000 0.0000 0.0000 0.0000 20.5256 0.0000
# 6 0.0000 0.0000 0.0000 0.0000 0.0000 38.5960
#
#
#
# Elastic Compliance Matrix: (Units=1/GPa)
#
#
# Indices 1 2 3 4 5 6 
#
# 1 0.012060 -0.004287 -0.005362 0.000000 0.000000 0.000000
# 2 -0.004287 0.012060 -0.005362 0.000000 0.000000 0.000000
# 3 -0.005362 -0.005362 0.023686 0.000000 0.000000 0.000000
# 4 0.000000 0.000000 0.000000 0.048720 0.000000 0.000000
# 5 0.000000 0.000000 0.000000 0.000000 0.048720 0.000000
# 6 0.000000 0.000000 0.000000 0.000000 0.000000 0.025909
#
#
# Mechanical properties :
#
#
# Convention : Reuss Voigt Hill
#
# Bulk Modulus (GPa) = 56.22970 67.21904 61.72437
# Shear Modulus (GPa) = 24.14261 26.72927 25.43594
#
# Velocity S-wave (km/s) = 3.54835 3.73360 3.64215
# Velocity P-wave (km/s) = 6.79062 7.32409 7.06239
#
# Compressibility (1/GPa) = 0.01778420
#
# Stress axis : x y z
#
# Youngs Moduli (GPa) = 82.92133 82.92141 42.21949
#
# Poissons Ratio (x) = 0.35551 0.22636
# Poissons Ratio (y) = 0.35551 0.22636
# Poissons Ratio (z) = 0.44459 0.44459
#
# Static dielectric constant tensor:
#      x y z
#    x 3.729520 0.000000 0.000000 
#    y 0.000000 3.729520 0.000000 
#    z 0.000000 0.000000 3.038620 
# 
# 
# High freq. dielectric constant tensor:
#      x y z
#    x 1.754830 0.000000 0.000000 
#    y 0.000000 1.754830 0.000000 
#    z 0.000000 0.000000 1.716510 
# 
# From -- ./inp_files/8258.got.cif
#   From: 2010.03.12/outbox.cif.g09.slc.cpg/sg141_5_cif.got.tgz:8258.got - 2010.04.03 13:18:35.
