data_PCOD8320169
_publ_section_title
;
Structure prediction by ZEFSAII (Michael W. Deem and Ramdas Pophale) SiO2 
 PCOD8320169
Probable space group: I 4/M C M
;
_chemical_formula_sum "Si O2"
_cell_formula_units_Z 176
_cell_length_a 19.509842
_cell_length_b 19.509842
_cell_length_c 25.498635
_cell_angle_alpha 90.000000
_cell_angle_beta 90.000000
_cell_angle_gamma 90.000000
_cell_volume 9705.645774
_symmetry_space_group_name_H-M "I 4/M C M"
_symmetry_group_IT_number 140
_symmetry_cell_setting 'tetragonal'
loop_
_space_group_symop_operation_xyz
x,y,z
-y,x,z
-x,-y,z
y,-x,z
x,-y,1/2-z
-x,y,1/2-z
y,x,1/2-z
-y,-x,1/2-z
-x,-y,-z
y,-x,-z
x,y,-z
-y,x,-z
-x,y,1/2+z
x,-y,1/2+z
-y,-x,1/2+z
y,x,1/2+z
1/2+x,1/2+y,1/2+z
1/2-y,1/2+x,1/2+z
1/2-x,1/2-y,1/2+z
1/2+y,1/2-x,1/2+z
1/2+x,1/2-y,-z
1/2-x,1/2+y,-z
1/2+y,1/2+x,-z
1/2-y,1/2-x,-z
1/2-x,1/2-y,1/2-z
1/2+y,1/2-x,1/2-z
1/2+x,1/2+y,1/2-z
1/2-y,1/2+x,1/2-z
1/2-x,1/2+y,z
1/2+x,1/2-y,z
1/2-y,1/2-x,z
1/2+y,1/2+x,z
loop_
_atom_site_type_symbol
_atom_site_label
_atom_site_fract_x
_atom_site_fract_y
_atom_site_fract_z
Si Si1 0.669931 0.945417 0.203625
Si Si2 0.658317 0.727890 0.393823
Si Si3 0.518364 0.709723 0.000000
Si Si4 0.553034 0.053034 0.940575
Si Si5 0.018091 0.299028 0.903671
Si Si6 0.163647 0.221264 0.701190
Si Si7 0.366030 0.658023 0.000000
O O1 0.606244 0.893757 0.206742
O O2 0.742769 0.908771 0.210156
O O3 0.659956 0.000000 0.250000
O O4 0.674477 0.976017 0.145853
O O5 0.707412 0.792589 0.387219
O O6 0.581298 0.753320 0.383535
O O7 0.676835 0.668509 0.351957
O O8 0.667702 0.695327 0.450620
O O9 0.524637 0.756197 0.052688
O O10 0.447860 0.666865 0.000000
O O11 0.578313 0.653608 0.000000
O O12 0.632372 0.042095 0.930796
O O13 0.500000 0.000000 0.910381
O O14 0.538310 0.038310 0.000000
O O15 0.170734 0.170734 0.750000
O O16 0.222537 0.277464 0.700169
#
# Coordination Sequence:
#
# PCOD8320169 Si02
#       7
#    32  32  16  16  32  32  16
#     4  11  24  38  53  78 112 150 188 229 276 335
#     4  10  19  33  57  82 105 141 184 235 282 322
#     4  10  22  38  59  85 110 145 182 236 292 343
#     4  11  22  36  54  80 113 162 200 225 267 336
#     4  11  21  37  58  80 115 147 191 233 272 332
#     4   9  18  34  54  75 100 133 181 233 281 324
#     4  10  21  35  55  82 113 140 181 228 285 348
#
# _framework density 18.133775
#
# number of rings (size 3 to 8) (size 9 to 14) (size 15 to 20)
#    0.000    1.727    1.818    3.000    1.273    1.818 
#    0.000    2.727    0.000    0.000    0.000    0.000 
#    0.000   14.909    0.000    0.000    0.000    0.000 
#
# Total GULP energy -1090810.261988 kJ/mol
# GULP energy per Si atom -12395.571159 kJ/mol
# Density = 1.809250 g / cm^3
# Si number density = 18.133775 Si / 1000 Ang^3
#
#
#
# Elastic Constant Matrix: (Units=GPa)
#
#
# Indices 1 2 3 4 5 6 
#
# 1 71.4071 34.1235 30.8267 0.0000 0.0000 0.0000
# 2 34.1235 71.4071 30.8266 0.0000 0.0000 0.0000
# 3 30.8267 30.8266 121.2117 0.0000 0.0000 0.0000
# 4 0.0000 0.0000 0.0000 25.3597 0.0000 0.0000
# 5 0.0000 0.0000 0.0000 0.0000 25.3597 0.0000
# 6 0.0000 0.0000 0.0000 0.0000 0.0000 33.4756
#
#
#
# Elastic Compliance Matrix: (Units=1/GPa)
#
#
# Indices 1 2 3 4 5 6 
#
# 1 0.018975 -0.007846 -0.002830 0.000000 0.000000 0.000000
# 2 -0.007846 0.018975 -0.002830 0.000000 0.000000 0.000000
# 3 -0.002830 -0.002830 0.009690 0.000000 0.000000 0.000000
# 4 0.000000 0.000000 0.000000 0.039433 0.000000 0.000000
# 5 0.000000 0.000000 0.000000 0.000000 0.039433 0.000000
# 6 0.000000 0.000000 0.000000 0.000000 0.000000 0.029872
#
#
# Mechanical properties :
#
#
# Convention : Reuss Voigt Hill
#
# Bulk Modulus (GPa) = 48.48032 50.61994 49.55013
# Shear Modulus (GPa) = 26.27875 28.05562 27.16719
#
# Velocity S-wave (km/s) = 3.81091 3.93765 3.87480
# Velocity P-wave (km/s) = 6.79389 6.97486 6.88497
#
# Compressibility (1/GPa) = 0.02062693
#
# Stress axis : x y z
#
# Youngs Moduli (GPa) = 52.69961 52.69960 103.20205
#
# Poissons Ratio (x) = 0.41348 0.29211
# Poissons Ratio (y) = 0.41348 0.29211
# Poissons Ratio (z) = 0.14917 0.14917
#
# Static dielectric constant tensor:
#      x y z
#    x 3.409910 0.000000 0.000000 
#    y 0.000000 3.409910 0.000000 
#    z 0.000000 0.000000 3.579720 
# 
# 
# High freq. dielectric constant tensor:
#      x y z
#    x 1.695190 0.000000 0.000000 
#    y 0.000000 1.695190 0.000000 
#    z 0.000000 0.000000 1.718820 
# 
# From -- ./inp_files/10762.got.cif
#   From: 2010.06.25/outbox.cif.g09.slc.cpg/sg140_6_cif.got.tgz:10762.got - 2010.06.28 10:53:23.
