data_PCOD8320925
_publ_section_title
;
Structure prediction by ZEFSAII (Michael W. Deem and Ramdas Pophale) SiO2 
 PCOD8320925
Probable space group: I 41/A M D
;
_chemical_formula_sum "Si O2"
_cell_formula_units_Z 96
_cell_length_a 18.029852
_cell_length_b 18.029852
_cell_length_c 14.678273
_cell_angle_alpha 90.000000
_cell_angle_beta 90.000000
_cell_angle_gamma 90.000000
_cell_volume 4771.547861
_symmetry_space_group_name_H-M "I 41/A M D"
_symmetry_group_IT_number 141
_space_group.IT_coordinate_system_code '2'
_symmetry_cell_setting 'tetragonal'
loop_
_space_group_symop_operation_xyz
x,y,z
1/4-y,3/4+x,1/4+z
-x,1/2-y,z
1/4+y,1/4-x,3/4+z
x,-y,-z
-x,1/2+y,-z
1/4+y,3/4+x,1/4-z
1/4-y,1/4-x,3/4-z
-x,-y,-z
3/4+y,1/4-x,3/4-z
x,1/2+y,-z
3/4-y,3/4+x,1/4-z
-x,y,z
x,1/2-y,z
3/4-y,1/4-x,3/4+z
3/4+y,3/4+x,1/4+z
1/2+x,1/2+y,1/2+z
3/4-y,1/4+x,3/4+z
1/2-x,-y,1/2+z
3/4+y,3/4-x,1/4+z
1/2+x,1/2-y,1/2-z
1/2-x,y,1/2-z
3/4+y,1/4+x,3/4-z
3/4-y,3/4-x,1/4-z
1/2-x,1/2-y,1/2-z
1/4+y,3/4-x,1/4-z
1/2+x,y,1/2-z
1/4-y,1/4+x,3/4-z
1/2-x,1/2+y,1/2+z
1/2+x,-y,1/2+z
1/4-y,3/4-x,1/4+z
1/4+y,1/4+x,3/4+z
loop_
_atom_site_type_symbol
_atom_site_label
_atom_site_fract_x
_atom_site_fract_y
_atom_site_fract_z
Si Si1 0.838209 0.917621 0.976104
Si Si2 0.916436 0.166436 0.875000
Si Si3 0.415490 0.334511 0.125000
Si Si4 0.087220 0.442521 0.214668
O O1 0.867127 0.917243 0.873483
O O2 0.904109 0.891948 0.043265
O O3 0.770976 0.861376 0.993452
O O4 0.811241 0.000000 0.000000
O O5 0.904850 0.250000 0.911419
O O6 0.400670 0.250000 0.152257
O O7 0.391664 0.381382 0.211724
O O8 0.000000 0.445379 0.191905
#
# Coordination Sequence:
#
# PCOD8320925 Si02
#       4
#    32  16  16  32
#     4  12  24  41  66  94 132 171 214 274 328 395
#     4  11  24  41  64  96 132 171 220 273 332 406
#     4   9  22  43  64  92 130 171 220 273 322 390
#     4  11  25  43  68  96 130 175 221 272 336 398
#
# _framework density 20.119257000000001
#
# number of rings (size 3 to 8) (size 9 to 14) (size 15 to 20)
#    0.000    1.000    3.333    2.000    4.667    4.000 
#    0.000    6.667    0.000    0.000    0.000    0.000 
#    0.000    0.000    0.000    0.000    0.000    0.000 
#
# Total GULP energy -595363.771441 kJ/mol
# GULP energy per Si atom -12403.411905 kJ/mol
# Density = 2.007346 g / cm^3
# Si number density = 20.119257 Si / 1000 Ang^3
#
#
#
# Elastic Constant Matrix: (Units=GPa)
#
#
# Indices 1 2 3 4 5 6 
#
# 1 66.3520 44.3766 63.7434 0.0000 0.0000 0.0000
# 2 44.3766 66.3511 63.7423 0.0000 0.0000 0.0000
# 3 63.7434 63.7423 173.5480 0.0000 0.0000 0.0000
# 4 0.0000 0.0000 0.0000 27.8398 0.0000 0.0000
# 5 0.0000 0.0000 0.0000 0.0000 27.8414 0.0000
# 6 0.0000 0.0000 0.0000 0.0000 0.0000 37.1032
#
#
#
# Elastic Compliance Matrix: (Units=1/GPa)
#
#
# Indices 1 2 3 4 5 6 
#
# 1 0.030577 -0.014929 -0.005748 0.000000 0.000000 0.000000
# 2 -0.014929 0.030578 -0.005747 0.000000 0.000000 0.000000
# 3 -0.005748 -0.005747 0.009984 0.000000 0.000000 0.000000
# 4 0.000000 0.000000 0.000000 0.035920 0.000000 0.000000
# 5 0.000000 0.000000 0.000000 0.000000 0.035918 0.000000
# 6 0.000000 0.000000 0.000000 0.000000 0.000000 0.026952
#
#
# Mechanical properties :
#
#
# Convention : Reuss Voigt Hill
#
# Bulk Modulus (GPa) = 54.67193 72.21956 63.44575
# Shear Modulus (GPa) = 21.84610 27.51612 24.68111
#
# Velocity S-wave (km/s) = 3.29877 3.70219 3.50629
# Velocity P-wave (km/s) = 6.46081 7.36536 6.92787
#
# Compressibility (1/GPa) = 0.01829092
#
# Stress axis : x y z
#
# Youngs Moduli (GPa) = 32.70384 32.70375 100.15831
#
# Poissons Ratio (x) = 0.48823 0.57568
# Poissons Ratio (y) = 0.48823 0.57566
# Poissons Ratio (z) = 0.18797 0.18796
#
# Static dielectric constant tensor:
#      x y z
#    x 3.797050 0.000000 0.000000 
#    y 0.000000 3.797110 0.000000 
#    z 0.000000 0.000000 3.798440 
# 
# 
# High freq. dielectric constant tensor:
#      x y z
#    x 1.795900 0.000000 0.000000 
#    y 0.000000 1.795900 0.000000 
#    z 0.000000 0.000000 1.790260 
# 
# From -- ./inp_files/7741.got.cif
#   From: 2010.03.12/outbox.cif.g09.slc.cpg/sg141_4_cif.got.tgz:7741.got - 2010.04.03 13:18:35.
