data_PCOD8320420
_publ_section_title
;
Structure prediction by ZEFSAII (Michael W. Deem and Ramdas Pophale) SiO2 
 PCOD8320420
Probable space group: I 4/M C M
;
_chemical_formula_sum "Si O2"
_cell_formula_units_Z 104
_cell_length_a 18.667439
_cell_length_b 18.667439
_cell_length_c 15.871954
_cell_angle_alpha 90.000000
_cell_angle_beta 90.000000
_cell_angle_gamma 90.000000
_cell_volume 5530.951852
_symmetry_space_group_name_H-M "I 4/M C M"
_symmetry_group_IT_number 140
_symmetry_cell_setting 'tetragonal'
loop_
_space_group_symop_operation_xyz
x,y,z
-y,x,z
-x,-y,z
y,-x,z
x,-y,1/2-z
-x,y,1/2-z
y,x,1/2-z
-y,-x,1/2-z
-x,-y,-z
y,-x,-z
x,y,-z
-y,x,-z
-x,y,1/2+z
x,-y,1/2+z
-y,-x,1/2+z
y,x,1/2+z
1/2+x,1/2+y,1/2+z
1/2-y,1/2+x,1/2+z
1/2-x,1/2-y,1/2+z
1/2+y,1/2-x,1/2+z
1/2+x,1/2-y,-z
1/2-x,1/2+y,-z
1/2+y,1/2+x,-z
1/2-y,1/2-x,-z
1/2-x,1/2-y,1/2-z
1/2+y,1/2-x,1/2-z
1/2+x,1/2+y,1/2-z
1/2-y,1/2+x,1/2-z
1/2-x,1/2+y,z
1/2+x,1/2-y,z
1/2-y,1/2-x,z
1/2+y,1/2+x,z
loop_
_atom_site_type_symbol
_atom_site_label
_atom_site_fract_x
_atom_site_fract_y
_atom_site_fract_z
Si Si1 0.208981 0.291020 0.500000
Si Si2 0.291249 0.791249 0.679099
Si Si3 0.015132 0.115594 0.402535
Si Si4 0.732375 0.958536 0.831804
Si Si5 0.055470 0.667373 0.000000
O O1 0.239381 0.260620 0.588411
O O2 0.123101 0.277510 0.500000
O O3 0.250000 0.750000 0.750000
O O4 0.277844 0.875106 0.686168
O O5 0.018082 0.138454 0.500000
O O6 0.023296 0.184507 0.344410
O O7 0.939251 0.079051 0.381678
O O8 0.685494 0.986096 0.913010
O O9 0.703502 0.000000 0.750000
O O10 0.084970 0.584970 0.000000
#
# Coordination Sequence:
#
# PCOD8320420 Si02
#       5
#     8  16  32  32  16
#     4   6  14  34  56  66 102 157 178 209 288 342
#     4  10  22  38  54  83 118 145 193 241 290 336
#     4   9  19  34  51  77 117 157 193 229 273 335
#     4  11  21  34  59  86 109 151 195 235 285 343
#     4   8  16  38  55  76 110 150 185 226 285 344
#
# _framework density 18.803273000000001
#
# number of rings (size 3 to 8) (size 9 to 14) (size 15 to 20)
#    0.462    2.154    3.077    0.923    4.308    0.000 
#    0.000    3.077    0.000    0.462    0.000    1.077 
#    0.000    0.000    0.000    0.000    0.000    0.000 
#
# Total GULP energy -644264.129667 kJ/mol
# GULP energy per Si atom -12389.694801 kJ/mol
# Density = 1.876048 g / cm^3
# Si number density = 18.803273 Si / 1000 Ang^3
#
#
#
# Elastic Constant Matrix: (Units=GPa)
#
#
# Indices 1 2 3 4 5 6 
#
# 1 46.2414 26.1096 47.8388 0.0000 0.0000 0.0000
# 2 26.1096 46.2419 47.8390 0.0000 0.0000 0.0000
# 3 47.8388 47.8390 180.6446 0.0000 0.0000 0.0000
# 4 0.0000 0.0000 0.0000 27.4959 0.0000 0.0000
# 5 0.0000 0.0000 0.0000 0.0000 27.4958 0.0000
# 6 0.0000 0.0000 0.0000 0.0000 0.0000 20.3231
#
#
#
# Elastic Compliance Matrix: (Units=1/GPa)
#
#
# Indices 1 2 3 4 5 6 
#
# 1 0.035472 -0.014201 -0.005633 0.000000 0.000000 0.000000
# 2 -0.014201 0.035471 -0.005633 0.000000 0.000000 0.000000
# 3 -0.005633 -0.005633 0.008519 0.000000 0.000000 0.000000
# 4 0.000000 0.000000 0.000000 0.036369 0.000000 0.000000
# 5 0.000000 0.000000 0.000000 0.000000 0.036369 0.000000
# 6 0.000000 0.000000 0.000000 0.000000 0.000000 0.049205
#
#
# Mechanical properties :
#
#
# Convention : Reuss Voigt Hill
#
# Bulk Modulus (GPa) = 35.05268 57.41141 46.23205
# Shear Modulus (GPa) = 19.09506 25.15232 22.12369
#
# Velocity S-wave (km/s) = 3.19018 3.66137 3.43386
# Velocity P-wave (km/s) = 5.67908 6.96226 6.35315
#
# Compressibility (1/GPa) = 0.02852849
#
# Stress axis : x y z
#
# Youngs Moduli (GPa) = 28.19164 28.19202 117.38205
#
# Poissons Ratio (x) = 0.40035 0.66121
# Poissons Ratio (y) = 0.40034 0.66120
# Poissons Ratio (z) = 0.15880 0.15880
#
# Static dielectric constant tensor:
#      x y z
#    x 3.142310 0.000000 0.000000 
#    y 0.000000 3.142300 0.000000 
#    z 0.000000 0.000000 3.629320 
# 
# 
# High freq. dielectric constant tensor:
#      x y z
#    x 1.698000 0.000000 0.000000 
#    y 0.000000 1.697990 0.000000 
#    z 0.000000 0.000000 1.751320 
# 
# From -- ./inp_files/6013.got.cif
#   From: 2010.06.25/outbox.cif.g09.slc.cpg/sg140_4_cif.got.tgz:6013.got - 2010.06.28 10:53:23.
