data_PCOD8320776
_publ_section_title
;
Structure prediction by ZEFSAII (Michael W. Deem and Ramdas Pophale) SiO2 
 PCOD8320776
Probable space group: I 41/A M D
;
_chemical_formula_sum "Si O2"
_cell_formula_units_Z 160
_cell_length_a 26.063509
_cell_length_b 26.063509
_cell_length_c 11.643385
_cell_angle_alpha 90.000000
_cell_angle_beta 90.000000
_cell_angle_gamma 90.000000
_cell_volume 7909.427129
_symmetry_space_group_name_H-M "I 41/A M D"
_symmetry_group_IT_number 141
_space_group.IT_coordinate_system_code '2'
_symmetry_cell_setting 'tetragonal'
loop_
_space_group_symop_operation_xyz
x,y,z
1/4-y,3/4+x,1/4+z
-x,1/2-y,z
1/4+y,1/4-x,3/4+z
x,-y,-z
-x,1/2+y,-z
1/4+y,3/4+x,1/4-z
1/4-y,1/4-x,3/4-z
-x,-y,-z
3/4+y,1/4-x,3/4-z
x,1/2+y,-z
3/4-y,3/4+x,1/4-z
-x,y,z
x,1/2-y,z
3/4-y,1/4-x,3/4+z
3/4+y,3/4+x,1/4+z
1/2+x,1/2+y,1/2+z
3/4-y,1/4+x,3/4+z
1/2-x,-y,1/2+z
3/4+y,3/4-x,1/4+z
1/2+x,1/2-y,1/2-z
1/2-x,y,1/2-z
3/4+y,1/4+x,3/4-z
3/4-y,3/4-x,1/4-z
1/2-x,1/2-y,1/2-z
1/4+y,3/4-x,1/4-z
1/2+x,y,1/2-z
1/4-y,1/4+x,3/4-z
1/2-x,1/2+y,1/2+z
1/2+x,-y,1/2+z
1/4-y,3/4-x,1/4+z
1/4+y,1/4+x,3/4+z
loop_
_atom_site_type_symbol
_atom_site_label
_atom_site_fract_x
_atom_site_fract_y
_atom_site_fract_z
Si Si1 0.317848 0.853688 0.889344
Si Si2 0.557203 0.871047 0.064570
Si Si3 0.351140 0.310061 0.873982
Si Si4 0.622635 0.951121 0.428743
Si Si5 0.440275 0.528997 0.207388
O O1 0.336309 0.913692 0.875000
O O2 0.355676 0.821520 0.808874
O O3 0.257518 0.842299 0.867704
O O4 0.320033 0.833111 0.019543
O O5 0.500000 0.850799 0.058021
O O6 0.589341 0.821211 0.099632
O O7 0.565489 0.913919 0.160809
O O8 0.341132 0.250000 0.858452
O O9 0.336192 0.339521 0.758557
O O10 0.671036 0.921036 0.375000
O O11 0.584008 0.972697 0.333279
O O12 0.644051 0.000000 0.500000
O O13 0.500000 0.511766 0.211282
#
# Coordination Sequence:
#
# PCOD8320776 Si02
#       5
#    32  32  32  32  32
#     4  10  21  36  58  94 128 160 206 266 316 370
#     4  10  21  37  58  90 131 166 205 257 310 374
#     4  11  22  38  63  92 124 164 210 259 313 375
#     4  12  25  44  67  91 125 160 209 268 322 382
#     4  11  21  37  65  94 122 167 215 260 313 369
#
# _framework density 20.229026000000001
#
# number of rings (size 3 to 8) (size 9 to 14) (size 15 to 20)
#    0.000    1.200    4.000    3.000    0.000    2.800 
#    0.000    1.000    0.000    3.600    0.000    0.000 
#    0.000    0.000    0.000    0.000    0.000    0.000 
#
# Total GULP energy -991618.436192 kJ/mol
# GULP energy per Si atom -12395.230452 kJ/mol
# Density = 2.018298 g / cm^3
# Si number density = 20.229026 Si / 1000 Ang^3
#
#
#
# Elastic Constant Matrix: (Units=GPa)
#
#
# Indices 1 2 3 4 5 6 
#
# 1 54.0777 13.7050 22.3384 0.0000 0.0000 0.0000
# 2 13.7050 54.0762 22.3380 0.0000 0.0000 0.0000
# 3 22.3384 22.3380 99.0400 0.0000 0.0000 0.0000
# 4 0.0000 0.0000 0.0000 25.6403 0.0000 0.0000
# 5 0.0000 0.0000 0.0000 0.0000 25.6411 0.0000
# 6 0.0000 0.0000 0.0000 0.0000 0.0000 30.4595
#
#
#
# Elastic Compliance Matrix: (Units=1/GPa)
#
#
# Indices 1 2 3 4 5 6 
#
# 1 0.021049 -0.003720 -0.003909 0.000000 0.000000 0.000000
# 2 -0.003720 0.021050 -0.003909 0.000000 0.000000 0.000000
# 3 -0.003909 -0.003909 0.011860 0.000000 0.000000 0.000000
# 4 0.000000 0.000000 0.000000 0.039001 0.000000 0.000000
# 5 0.000000 0.000000 0.000000 0.000000 0.039000 0.000000
# 6 0.000000 0.000000 0.000000 0.000000 0.000000 0.032831
#
#
# Mechanical properties :
#
#
# Convention : Reuss Voigt Hill
#
# Bulk Modulus (GPa) = 32.37867 35.99517 34.18692
# Shear Modulus (GPa) = 25.23211 26.26901 25.75056
#
# Velocity S-wave (km/s) = 3.53558 3.60749 3.57171
# Velocity P-wave (km/s) = 5.71908 5.93165 5.82633
#
# Compressibility (1/GPa) = 0.03088453
#
# Stress axis : x y z
#
# Youngs Moduli (GPa) = 47.50753 47.50633 84.31642
#
# Poissons Ratio (x) = 0.17673 0.32956
# Poissons Ratio (y) = 0.17673 0.32956
# Poissons Ratio (z) = 0.18569 0.18568
#
# Static dielectric constant tensor:
#      x y z
#    x 3.733090 0.000000 0.000000 
#    y 0.000000 3.733100 0.000000 
#    z 0.000000 0.000000 3.755070 
# 
# 
# High freq. dielectric constant tensor:
#      x y z
#    x 1.783910 0.000000 0.000000 
#    y 0.000000 1.783910 0.000000 
#    z 0.000000 0.000000 1.804130 
# 
# From -- ./inp_files/4888.got.cif
#   From: 2010.03.12/outbox.cif.g09.slc.cpg/sg141_3_cif.got.tgz:4888.got - 2010.04.03 13:18:35.
