data_PCOD8320656
_publ_section_title
;
Structure prediction by ZEFSAII (Michael W. Deem and Ramdas Pophale) SiO2 
 PCOD8320656
Probable space group: I 41/A M D
;
_chemical_formula_sum "Si O2"
_cell_formula_units_Z 112
_cell_length_a 13.231483
_cell_length_b 13.231483
_cell_length_c 37.753346
_cell_angle_alpha 90.000000
_cell_angle_beta 90.000000
_cell_angle_gamma 90.000000
_cell_volume 6609.559166
_symmetry_space_group_name_H-M "I 41/A M D"
_symmetry_group_IT_number 141
_space_group.IT_coordinate_system_code '2'
_symmetry_cell_setting 'tetragonal'
loop_
_space_group_symop_operation_xyz
x,y,z
1/4-y,3/4+x,1/4+z
-x,1/2-y,z
1/4+y,1/4-x,3/4+z
x,-y,-z
-x,1/2+y,-z
1/4+y,3/4+x,1/4-z
1/4-y,1/4-x,3/4-z
-x,-y,-z
3/4+y,1/4-x,3/4-z
x,1/2+y,-z
3/4-y,3/4+x,1/4-z
-x,y,z
x,1/2-y,z
3/4-y,1/4-x,3/4+z
3/4+y,3/4+x,1/4+z
1/2+x,1/2+y,1/2+z
3/4-y,1/4+x,3/4+z
1/2-x,-y,1/2+z
3/4+y,3/4-x,1/4+z
1/2+x,1/2-y,1/2-z
1/2-x,y,1/2-z
3/4+y,1/4+x,3/4-z
3/4-y,3/4-x,1/4-z
1/2-x,1/2-y,1/2-z
1/4+y,3/4-x,1/4-z
1/2+x,y,1/2-z
1/4-y,1/4+x,3/4-z
1/2-x,1/2+y,1/2+z
1/2+x,-y,1/2+z
1/4-y,3/4-x,1/4+z
1/4+y,1/4+x,3/4+z
loop_
_atom_site_type_symbol
_atom_site_label
_atom_site_fract_x
_atom_site_fract_y
_atom_site_fract_z
Si Si1 0.383494 0.632373 0.198897
Si Si2 0.750829 0.000000 0.500000
Si Si3 0.383402 0.468332 0.375510
Si Si4 0.117237 0.366626 0.198025
O O1 0.500000 0.602116 0.202064
O O2 0.366391 0.750000 0.206943
O O3 0.322524 0.569666 0.227454
O O4 0.347239 0.604288 0.159614
O O5 0.820305 0.067239 0.524797
O O6 0.500000 0.500596 0.375928
O O7 0.321837 0.571837 0.375000
O O8 0.356997 0.400159 0.341760
O O9 0.146706 0.250000 0.201924
O O10 0.000000 0.385061 0.206723
#
# Coordination Sequence:
#
# PCOD8320656 Si02
#       4
#    32  16  32  32
#     4  10  21  36  55  79 107 142 179 215 261 318
#     4  12  20  34  56  80 112 138 168 220 268 316
#     4  10  19  36  57  78 104 138 180 222 259 310
#     4  10  21  36  55  79 105 138 179 218 261 312
#
# _framework density 16.945155
#
# number of rings (size 3 to 8) (size 9 to 14) (size 15 to 20)
#    0.000    1.714    2.857    2.571    0.000    3.714 
#    0.000    0.000    0.000    0.000    0.000    2.000 
#    0.000    0.000    0.000    0.000    0.000    0.000 
#
# Total GULP energy -694588.741761 kJ/mol
# GULP energy per Si atom -12403.370389 kJ/mol
# Density = 1.690659 g / cm^3
# Si number density = 16.945155 Si / 1000 Ang^3
#
#
#
# Elastic Constant Matrix: (Units=GPa)
#
#
# Indices 1 2 3 4 5 6 
#
# 1 110.4913 86.7358 85.6782 0.0000 0.0000 0.0000
# 2 86.7358 110.4913 85.6782 0.0000 0.0000 0.0000
# 3 85.6782 85.6782 144.0568 0.0000 0.0000 0.0000
# 4 0.0000 0.0000 0.0000 35.3423 0.0000 0.0000
# 5 0.0000 0.0000 0.0000 0.0000 35.3423 0.0000
# 6 0.0000 0.0000 0.0000 0.0000 0.0000 50.2300
#
#
#
# Elastic Compliance Matrix: (Units=1/GPa)
#
#
# Indices 1 2 3 4 5 6 
#
# 1 0.026294 -0.015802 -0.006240 0.000000 0.000000 0.000000
# 2 -0.015802 0.026294 -0.006240 0.000000 0.000000 0.000000
# 3 -0.006240 -0.006240 0.014364 0.000000 0.000000 0.000000
# 4 0.000000 0.000000 0.000000 0.028295 0.000000 0.000000
# 5 0.000000 0.000000 0.000000 0.000000 0.028295 0.000000
# 6 0.000000 0.000000 0.000000 0.000000 0.000000 0.019908
#
#
# Mechanical properties :
#
#
# Convention : Reuss Voigt Hill
#
# Bulk Modulus (GPa) = 96.26724 97.91373 97.09048
# Shear Modulus (GPa) = 24.57293 31.31275 27.94284
#
# Velocity S-wave (km/s) = 3.81221 4.30337 4.06521
# Velocity P-wave (km/s) = 8.73565 9.08846 8.91380
#
# Compressibility (1/GPa) = 0.01038775
#
# Stress axis : x y z
#
# Youngs Moduli (GPa) = 38.03193 38.03193 69.61722
#
# Poissons Ratio (x) = 0.60098 0.43441
# Poissons Ratio (y) = 0.60098 0.43441
# Poissons Ratio (z) = 0.23732 0.23732
#
# Static dielectric constant tensor:
#      x y z
#    x 3.221100 0.000000 0.000000 
#    y 0.000000 3.221100 0.000000 
#    z 0.000000 0.000000 3.302740 
# 
# 
# High freq. dielectric constant tensor:
#      x y z
#    x 1.657460 0.000000 0.000000 
#    y 0.000000 1.657460 0.000000 
#    z 0.000000 0.000000 1.668830 
# 
# From -- ./inp_files/12456.got.cif
#   From: 2010.03.12/outbox.cif.g09.slc.cpg/sg141_7_cif.got.tgz:12456.got - 2010.04.03 13:18:35.
