data_PCOD8320505
_publ_section_title
;
Structure prediction by ZEFSAII (Michael W. Deem and Ramdas Pophale) SiO2 
 PCOD8320505
Probable space group: I 4/M C M
;
_chemical_formula_sum "Si O2"
_cell_formula_units_Z 128
_cell_length_a 20.999520
_cell_length_b 20.999520
_cell_length_c 14.072746
_cell_angle_alpha 90.000000
_cell_angle_beta 90.000000
_cell_angle_gamma 90.000000
_cell_volume 6205.797283
_symmetry_space_group_name_H-M "I 4/M C M"
_symmetry_group_IT_number 140
_symmetry_cell_setting 'tetragonal'
loop_
_space_group_symop_operation_xyz
x,y,z
-y,x,z
-x,-y,z
y,-x,z
x,-y,1/2-z
-x,y,1/2-z
y,x,1/2-z
-y,-x,1/2-z
-x,-y,-z
y,-x,-z
x,y,-z
-y,x,-z
-x,y,1/2+z
x,-y,1/2+z
-y,-x,1/2+z
y,x,1/2+z
1/2+x,1/2+y,1/2+z
1/2-y,1/2+x,1/2+z
1/2-x,1/2-y,1/2+z
1/2+y,1/2-x,1/2+z
1/2+x,1/2-y,-z
1/2-x,1/2+y,-z
1/2+y,1/2+x,-z
1/2-y,1/2-x,-z
1/2-x,1/2-y,1/2-z
1/2+y,1/2-x,1/2-z
1/2+x,1/2+y,1/2-z
1/2-y,1/2+x,1/2-z
1/2-x,1/2+y,z
1/2+x,1/2-y,z
1/2-y,1/2-x,z
1/2+y,1/2+x,z
loop_
_atom_site_type_symbol
_atom_site_label
_atom_site_fract_x
_atom_site_fract_y
_atom_site_fract_z
Si Si1 0.270604 0.126299 0.760954
Si Si2 0.072628 0.929064 0.638580
Si Si3 0.553343 0.053343 0.110791
Si Si4 0.322947 0.665795 0.396187
Si Si5 0.500000 0.158595 0.250000
O O1 0.332142 0.167859 0.739635
O O2 0.231859 0.156251 0.848267
O O3 0.227808 0.126866 0.666236
O O4 0.294579 0.055666 0.786766
O O5 0.080874 0.919127 0.750000
O O6 0.121894 0.884144 0.586012
O O7 0.001037 0.911668 0.608113
O O8 0.526249 0.116208 0.162723
O O9 0.500000 0.000000 0.118767
O O10 0.568789 0.068789 0.000000
O O11 0.293742 0.681183 0.500000
#
# Coordination Sequence:
#
# PCOD8320505 Si02
#       5
#    32  32  16  32  16
#     4  11  25  44  67  90 126 175 213 265 332 389
#     4   9  18  35  60  87 121 164 206 256 318 376
#     4  11  22  42  74 107 136 172 218 272 339 406
#     4  11  24  40  64  94 128 167 219 270 317 390
#     4  12  23  46  70  98 139 174 222 280 338 398
#
# _framework density 20.625875000000001
#
# number of rings (size 3 to 8) (size 9 to 14) (size 15 to 20)
#    0.000    1.375    5.000    2.250    3.500    5.000 
#    0.000    1.250    0.000    0.000    0.000    0.000 
#    0.000    0.000    0.000    0.000    0.000    0.000 
#
# Total GULP energy -793575.525145 kJ/mol
# GULP energy per Si atom -12399.617580 kJ/mol
# Density = 2.057893 g / cm^3
# Si number density = 20.625875 Si / 1000 Ang^3
#
#
#
# Elastic Constant Matrix: (Units=GPa)
#
#
# Indices 1 2 3 4 5 6 
#
# 1 101.8090 49.6612 28.4967 0.0000 0.0000 0.0000
# 2 49.6612 101.8080 28.4974 0.0000 0.0000 0.0000
# 3 28.4967 28.4974 145.4903 0.0000 0.0000 0.0000
# 4 0.0000 0.0000 0.0000 -37.6998 0.0000 0.0000
# 5 0.0000 0.0000 0.0000 0.0000 -37.7114 0.0000
# 6 0.0000 0.0000 0.0000 0.0000 0.0000 54.4206
#
#
#
# Elastic Compliance Matrix: (Units=1/GPa)
#
#
# Indices 1 2 3 4 5 6 
#
# 1 0.013152 -0.006025 -0.001396 0.000000 0.000000 0.000000
# 2 -0.006025 0.013152 -0.001396 0.000000 0.000000 0.000000
# 3 -0.001396 -0.001396 0.007420 0.000000 0.000000 0.000000
# 4 0.000000 0.000000 0.000000 -0.026525 0.000000 0.000000
# 5 0.000000 0.000000 0.000000 0.000000 -0.026517 0.000000
# 6 0.000000 0.000000 0.000000 0.000000 0.000000 0.018375
#
#
# Mechanical properties :
#
#
# Convention : Reuss Voigt Hill
#
# Bulk Modulus (GPa) = 62.14786 62.49091 62.31939
# Shear Modulus (GPa) = 226.72081 11.96535 119.34308
#
# Velocity S-wave (km/s) = 10.49568 2.41117 7.61488
# Velocity P-wave (km/s) = 13.30697 6.17371 10.37280
#
# Compressibility (1/GPa) = 0.01609066
#
# Stress axis : x y z
#
# Youngs Moduli (GPa) = 76.03533 76.03437 134.76762
#
# Poissons Ratio (x) = 0.45808 0.18813
# Poissons Ratio (y) = 0.45808 0.18815
# Poissons Ratio (z) = 0.10614 0.10615
#
# Static dielectric constant tensor:
#      x y z
#    x 3.906590 0.000000 0.000000 
#    y 0.000000 3.906600 0.000000 
#    z 0.000000 0.000000 3.506720 
# 
# 
# High freq. dielectric constant tensor:
#      x y z
#    x 1.810620 0.000000 0.000000 
#    y 0.000000 1.810620 0.000000 
#    z 0.000000 0.000000 1.804790 
# 
# From -- ./inp_files/4381.got.cif
#   From: 2010.06.25/outbox.cif.g09.slc.cpg/sg140_3_cif.got.tgz:4381.got - 2010.06.28 10:53:23.
