data_PCOD8320641
_publ_section_title
;
Structure prediction by ZEFSAII (Michael W. Deem and Ramdas Pophale) SiO2 
 PCOD8320641
Probable space group: I 41/A M D
;
_chemical_formula_sum "Si O2"
_cell_formula_units_Z 160
_cell_length_a 22.008360
_cell_length_b 22.008360
_cell_length_c 18.030254
_cell_angle_alpha 90.000000
_cell_angle_beta 90.000000
_cell_angle_gamma 90.000000
_cell_volume 8733.276445
_symmetry_space_group_name_H-M "I 41/A M D"
_symmetry_group_IT_number 141
_space_group.IT_coordinate_system_code '2'
_symmetry_cell_setting 'tetragonal'
loop_
_space_group_symop_operation_xyz
x,y,z
1/4-y,3/4+x,1/4+z
-x,1/2-y,z
1/4+y,1/4-x,3/4+z
x,-y,-z
-x,1/2+y,-z
1/4+y,3/4+x,1/4-z
1/4-y,1/4-x,3/4-z
-x,-y,-z
3/4+y,1/4-x,3/4-z
x,1/2+y,-z
3/4-y,3/4+x,1/4-z
-x,y,z
x,1/2-y,z
3/4-y,1/4-x,3/4+z
3/4+y,3/4+x,1/4+z
1/2+x,1/2+y,1/2+z
3/4-y,1/4+x,3/4+z
1/2-x,-y,1/2+z
3/4+y,3/4-x,1/4+z
1/2+x,1/2-y,1/2-z
1/2-x,y,1/2-z
3/4+y,1/4+x,3/4-z
3/4-y,3/4-x,1/4-z
1/2-x,1/2-y,1/2-z
1/4+y,3/4-x,1/4-z
1/2+x,y,1/2-z
1/4-y,1/4+x,3/4-z
1/2-x,1/2+y,1/2+z
1/2+x,-y,1/2+z
1/4-y,3/4-x,1/4+z
1/4+y,1/4+x,3/4+z
loop_
_atom_site_type_symbol
_atom_site_label
_atom_site_fract_x
_atom_site_fract_y
_atom_site_fract_z
Si Si1 0.377091 0.034400 0.602959
Si Si2 0.868557 0.321711 0.445942
Si Si3 0.931201 0.518553 0.257112
Si Si4 0.124221 0.403295 0.042994
Si Si5 0.066832 0.179751 0.592632
O O1 0.312354 0.062354 0.625000
O O2 0.425886 0.028175 0.668476
O O3 0.403043 0.079936 0.538536
O O4 0.360352 0.967168 0.578966
O O5 0.889934 0.360067 0.375000
O O6 0.879318 0.250000 0.431566
O O7 0.798560 0.335190 0.464949
O O8 0.906328 0.347340 0.516307
O O9 0.884589 0.563697 0.295912
O O10 0.000000 0.534881 0.279291
O O11 0.076655 0.363258 0.088839
O O12 0.058870 0.250000 0.578663
O O13 0.000000 0.150815 0.609060
#
# Coordination Sequence:
#
# PCOD8320641 Si02
#       5
#    32  32  32  32  32
#     4   9  19  34  54  79 107 142 182 220 268 329
#     4  10  20  35  54  77 105 143 187 228 275 330
#     4  10  20  35  54  79 110 142 179 226 275 327
#     4  10  19  34  55  80 108 139 180 226 273 324
#     4  10  20  34  54  80 109 143 184 230 280 333
#
# _framework density 18.320730999999999
#
# number of rings (size 3 to 8) (size 9 to 14) (size 15 to 20)
#    0.000    2.200    2.000    1.200    0.000    2.600 
#    0.000    3.000    0.000    3.600    0.000    9.800 
#    0.000    0.000    0.000    0.000    0.000    0.000 
#
# Total GULP energy -991294.658742 kJ/mol
# GULP energy per Si atom -12391.183234 kJ/mol
# Density = 1.827903 g / cm^3
# Si number density = 18.320731 Si / 1000 Ang^3
#
#
#
# Elastic Constant Matrix: (Units=GPa)
#
#
# Indices 1 2 3 4 5 6 
#
# 1 72.3467 29.1877 32.8083 0.0000 0.0000 0.0000
# 2 29.1877 72.3469 32.8083 0.0000 0.0000 0.0000
# 3 32.8083 32.8083 103.6580 0.0000 0.0000 0.0000
# 4 0.0000 0.0000 0.0000 30.8989 0.0000 0.0000
# 5 0.0000 0.0000 0.0000 0.0000 30.8992 0.0000
# 6 0.0000 0.0000 0.0000 0.0000 0.0000 22.9948
#
#
#
# Elastic Compliance Matrix: (Units=1/GPa)
#
#
# Indices 1 2 3 4 5 6 
#
# 1 0.017776 -0.005394 -0.003919 0.000000 0.000000 0.000000
# 2 -0.005394 0.017776 -0.003919 0.000000 0.000000 0.000000
# 3 -0.003919 -0.003919 0.012128 0.000000 0.000000 0.000000
# 4 0.000000 0.000000 0.000000 0.032364 0.000000 0.000000
# 5 0.000000 0.000000 0.000000 0.000000 0.032363 0.000000
# 6 0.000000 0.000000 0.000000 0.000000 0.000000 0.043488
#
#
# Mechanical properties :
#
#
# Convention : Reuss Voigt Hill
#
# Bulk Modulus (GPa) = 47.13558 48.66225 47.89891
# Shear Modulus (GPa) = 26.39502 27.19508 26.79505
#
# Velocity S-wave (km/s) = 3.79980 3.85696 3.82848
# Velocity P-wave (km/s) = 6.71082 6.81570 6.76347
#
# Compressibility (1/GPa) = 0.02121540
#
# Stress axis : x y z
#
# Youngs Moduli (GPa) = 56.25643 56.25654 82.45564
#
# Poissons Ratio (x) = 0.30347 0.32313
# Poissons Ratio (y) = 0.30347 0.32312
# Poissons Ratio (z) = 0.22046 0.22046
#
# Static dielectric constant tensor:
#      x y z
#    x 3.361300 0.000000 0.000000 
#    y 0.000000 3.361300 0.000000 
#    z 0.000000 0.000000 3.618290 
# 
# 
# High freq. dielectric constant tensor:
#      x y z
#    x 1.704450 0.000000 0.000000 
#    y 0.000000 1.704450 0.000000 
#    z 0.000000 0.000000 1.716690 
# 
# From -- ./inp_files/8565.got.cif
#   From: 2010.03.12/outbox.cif.g09.slc.cpg/sg141_5_cif.got.tgz:8565.got - 2010.04.03 13:18:35.
