data_PCOD8320048
_publ_section_title
;
Structure prediction by ZEFSAII (Michael W. Deem and Ramdas Pophale) SiO2 
 PCOD8320048
Probable space group: I 4/M C M
;
_chemical_formula_sum "Si O2"
_cell_formula_units_Z 128
_cell_length_a 31.581310
_cell_length_b 31.581310
_cell_length_c 9.765616
_cell_angle_alpha 90.000000
_cell_angle_beta 90.000000
_cell_angle_gamma 90.000000
_cell_volume 9740.021701
_symmetry_space_group_name_H-M "I 4/M C M"
_symmetry_group_IT_number 140
_symmetry_cell_setting 'tetragonal'
loop_
_space_group_symop_operation_xyz
x,y,z
-y,x,z
-x,-y,z
y,-x,z
x,-y,1/2-z
-x,y,1/2-z
y,x,1/2-z
-y,-x,1/2-z
-x,-y,-z
y,-x,-z
x,y,-z
-y,x,-z
-x,y,1/2+z
x,-y,1/2+z
-y,-x,1/2+z
y,x,1/2+z
1/2+x,1/2+y,1/2+z
1/2-y,1/2+x,1/2+z
1/2-x,1/2-y,1/2+z
1/2+y,1/2-x,1/2+z
1/2+x,1/2-y,-z
1/2-x,1/2+y,-z
1/2+y,1/2+x,-z
1/2-y,1/2-x,-z
1/2-x,1/2-y,1/2-z
1/2+y,1/2-x,1/2-z
1/2+x,1/2+y,1/2-z
1/2-y,1/2+x,1/2-z
1/2-x,1/2+y,z
1/2+x,1/2-y,z
1/2-y,1/2-x,z
1/2+y,1/2+x,z
loop_
_atom_site_type_symbol
_atom_site_label
_atom_site_fract_x
_atom_site_fract_y
_atom_site_fract_z
Si Si1 0.670270 0.953357 0.271882
Si Si2 0.633818 0.202828 0.845898
Si Si3 0.374079 0.058180 0.000000
Si Si4 0.758681 0.187953 0.344000
Si Si5 0.533115 0.897592 0.500000
O O1 0.700387 0.917302 0.334583
O O2 0.657146 0.937748 0.125170
O O3 0.628650 0.955985 0.365163
O O4 0.691912 0.000000 0.250000
O O5 0.657346 0.157346 0.822374
O O6 0.648886 0.236371 0.732903
O O7 0.644600 0.218867 0.000000
O O8 0.405014 0.017302 0.000000
O O9 0.400565 0.099436 0.000000
O O10 0.798876 0.201125 0.250000
O O11 0.772185 0.175083 0.500000
O O12 0.727214 0.227214 0.353001
O O13 0.557868 0.942133 0.500000
#
# Coordination Sequence:
#
# PCOD8320048 Si02
#       5
#    32  32  16  32  16
#     4  10  20  31  42  56  74  95 121 155 193 233
#     4  10  18  28  44  59  73  98 126 151 185 231
#     4  10  20  29  40  56  71  87 113 155 197 235
#     4   9  17  28  41  60  83 101 118 142 173 213
#     4  10  18  31  44  52  67  91 117 149 193 243
#
# _framework density 13.141654000000001
#
# number of rings (size 3 to 8) (size 9 to 14) (size 15 to 20)
#    0.000    2.250    1.250    3.000    1.750    3.250 
#    0.000    0.000    0.000    4.500    0.000    0.000 
#    0.000    0.000    0.000    0.000    0.000    0.000 
#
# Total GULP energy -792992.621144 kJ/mol
# GULP energy per Si atom -12390.509705 kJ/mol
# Density = 1.311174 g / cm^3
# Si number density = 13.141654 Si / 1000 Ang^3
#
#
#
# Elastic Constant Matrix: (Units=GPa)
#
#
# Indices 1 2 3 4 5 6 
#
# 1 38.1036 24.5730 20.3704 0.0000 0.0000 0.0000
# 2 24.5730 38.1043 20.3703 0.0000 0.0000 0.0000
# 3 20.3704 20.3703 107.5843 0.0000 0.0000 0.0000
# 4 0.0000 0.0000 0.0000 17.8529 0.0000 0.0000
# 5 0.0000 0.0000 0.0000 0.0000 17.8530 0.0000
# 6 0.0000 0.0000 0.0000 0.0000 0.0000 19.6027
#
#
#
# Elastic Compliance Matrix: (Units=1/GPa)
#
#
# Indices 1 2 3 4 5 6 
#
# 1 0.046050 -0.027855 -0.003445 0.000000 0.000000 0.000000
# 2 -0.027855 0.046049 -0.003445 0.000000 0.000000 0.000000
# 3 -0.003445 -0.003445 0.010600 0.000000 0.000000 0.000000
# 4 0.000000 0.000000 0.000000 0.056013 0.000000 0.000000
# 5 0.000000 0.000000 0.000000 0.000000 0.056013 0.000000
# 6 0.000000 0.000000 0.000000 0.000000 0.000000 0.051013
#
#
# Mechanical properties :
#
#
# Convention : Reuss Voigt Hill
#
# Bulk Modulus (GPa) = 30.11323 34.93554 32.52439
# Shear Modulus (GPa) = 14.43844 18.96028 16.69936
#
# Velocity S-wave (km/s) = 3.31823 3.80249 3.56858
# Velocity P-wave (km/s) = 6.13555 6.77644 6.46394
#
# Compressibility (1/GPa) = 0.03320800
#
# Stress axis : x y z
#
# Youngs Moduli (GPa) = 21.71559 21.71603 94.34332
#
# Poissons Ratio (x) = 0.60491 0.32502
# Poissons Ratio (y) = 0.60490 0.32499
# Poissons Ratio (z) = 0.07481 0.07481
#
# Static dielectric constant tensor:
#      x y z
#    x 2.411640 0.000000 0.000000 
#    y 0.000000 2.411640 0.000000 
#    z 0.000000 0.000000 3.026270 
# 
# 
# High freq. dielectric constant tensor:
#      x y z
#    x 1.457590 0.000000 0.000000 
#    y 0.000000 1.457590 0.000000 
#    z 0.000000 0.000000 1.532580 
# 
# From -- ./inp_files/1534.got.cif
#   From: 2010.06.25/outbox.cif.g09.slc.cpg/sg140_1_cif.got.tgz:1534.got - 2010.06.28 10:53:23.
