data_PCOD8320192
_publ_section_title
;
Structure prediction by ZEFSAII (Michael W. Deem and Ramdas Pophale) SiO2 
 PCOD8320192
Probable space group: I 4/M C M
;
_chemical_formula_sum "Si O2"
_cell_formula_units_Z 192
_cell_length_a 25.672547
_cell_length_b 25.672547
_cell_length_c 15.278587
_cell_angle_alpha 90.000000
_cell_angle_beta 90.000000
_cell_angle_gamma 90.000000
_cell_volume 10069.806070
_symmetry_space_group_name_H-M "I 4/M C M"
_symmetry_group_IT_number 140
_symmetry_cell_setting 'tetragonal'
loop_
_space_group_symop_operation_xyz
x,y,z
-y,x,z
-x,-y,z
y,-x,z
x,-y,1/2-z
-x,y,1/2-z
y,x,1/2-z
-y,-x,1/2-z
-x,-y,-z
y,-x,-z
x,y,-z
-y,x,-z
-x,y,1/2+z
x,-y,1/2+z
-y,-x,1/2+z
y,x,1/2+z
1/2+x,1/2+y,1/2+z
1/2-y,1/2+x,1/2+z
1/2-x,1/2-y,1/2+z
1/2+y,1/2-x,1/2+z
1/2+x,1/2-y,-z
1/2-x,1/2+y,-z
1/2+y,1/2+x,-z
1/2-y,1/2-x,-z
1/2-x,1/2-y,1/2-z
1/2+y,1/2-x,1/2-z
1/2+x,1/2+y,1/2-z
1/2-y,1/2+x,1/2-z
1/2-x,1/2+y,z
1/2+x,1/2-y,z
1/2-y,1/2-x,z
1/2+y,1/2+x,z
loop_
_atom_site_type_symbol
_atom_site_label
_atom_site_fract_x
_atom_site_fract_y
_atom_site_fract_z
Si Si1 0.745351 0.839392 0.000000
Si Si2 0.620476 0.207235 0.156086
Si Si3 0.422411 0.367092 0.103932
Si Si4 0.405691 0.746754 0.663339
Si Si5 0.853830 0.961542 0.602099
Si Si6 0.761667 0.483589 0.396775
Si Si7 0.173226 0.759573 0.500000
O O1 0.730969 0.872466 0.084100
O O2 0.805819 0.819072 0.000000
O O3 0.711848 0.788153 0.000000
O O4 0.654058 0.154058 0.151744
O O5 0.623781 0.233448 0.250674
O O6 0.560041 0.195366 0.129648
O O7 0.639470 0.250458 0.086788
O O8 0.407368 0.315714 0.158243
O O9 0.387953 0.414527 0.142288
O O10 0.482933 0.380446 0.123608
O O11 0.415839 0.355604 0.000000
O O12 0.463295 0.772109 0.656126
O O13 0.853090 0.950824 0.500000
O O14 0.794309 0.961160 0.636240
O O15 0.761210 0.496078 0.500000
O O16 0.220030 0.720030 0.500000
#
# Coordination Sequence:
#
# PCOD8320192 Si02
#       7
#    16  32  32  32  32  32  16
#     4  11  22  37  56  80 121 157 191 238 288 341
#     4  11  23  39  60  85 116 152 195 238 287 343
#     4   9  16  30  48  75 109 149 196 242 293 342
#     4  11  21  36  57  85 116 151 192 239 292 347
#     4   8  16  27  48  74 103 147 195 238 291 339
#     4  10  19  36  59  83 113 153 193 236 288 346
#     4   9  22  39  54  80 114 157 198 239 282 324
#
# _framework density 19.066901000000001
#
# number of rings (size 3 to 8) (size 9 to 14) (size 15 to 20)
#    0.000    2.167    2.500    2.000    2.333    1.000 
#    0.000    4.167    0.000    0.000    0.000    0.000 
#    0.000   17.333    0.000    0.333    0.000    1.667 
#
# Total GULP energy -1190019.118011 kJ/mol
# GULP energy per Si atom -12396.032479 kJ/mol
# Density = 1.902350 g / cm^3
# Si number density = 19.066901 Si / 1000 Ang^3
#
#
#
# Elastic Constant Matrix: (Units=GPa)
#
#
# Indices 1 2 3 4 5 6 
#
# 1 87.9547 48.4701 34.5928 0.0000 0.0000 0.0000
# 2 48.4701 87.9578 34.5932 0.0000 0.0000 0.0000
# 3 34.5928 34.5932 95.5801 0.0000 0.0000 0.0000
# 4 0.0000 0.0000 0.0000 41.9827 0.0000 0.0000
# 5 0.0000 0.0000 0.0000 0.0000 42.0269 0.0000
# 6 0.0000 0.0000 0.0000 0.0000 0.0000 32.6632
#
#
#
# Elastic Compliance Matrix: (Units=1/GPa)
#
#
# Indices 1 2 3 4 5 6 
#
# 1 0.017152 -0.008174 -0.003249 0.000000 0.000000 0.000000
# 2 -0.008174 0.017151 -0.003249 0.000000 0.000000 0.000000
# 3 -0.003249 -0.003249 0.012814 0.000000 0.000000 0.000000
# 4 0.000000 0.000000 0.000000 0.023819 0.000000 0.000000
# 5 0.000000 0.000000 0.000000 0.000000 0.023794 0.000000
# 6 0.000000 0.000000 0.000000 0.000000 0.000000 0.030615
#
#
# Mechanical properties :
#
#
# Convention : Reuss Voigt Hill
#
# Bulk Modulus (GPa) = 56.26572 56.31165 56.28868
# Shear Modulus (GPa) = 31.13021 33.59033 32.36027
#
# Velocity S-wave (km/s) = 4.04503 4.20183 4.12417
# Velocity P-wave (km/s) = 7.16869 7.28960 7.22940
#
# Compressibility (1/GPa) = 0.01777281
#
# Stress axis : x y z
#
# Youngs Moduli (GPa) = 58.30260 58.30484 78.03693
#
# Poissons Ratio (x) = 0.47657 0.25357
# Poissons Ratio (y) = 0.47655 0.25356
# Poissons Ratio (z) = 0.18945 0.18945
#
# Static dielectric constant tensor:
#      x y z
#    x 3.492540 0.000000 0.000000 
#    y 0.000000 3.492540 0.000000 
#    z 0.000000 0.000000 3.372250 
# 
# 
# High freq. dielectric constant tensor:
#      x y z
#    x 1.724580 0.000000 0.000000 
#    y 0.000000 1.724580 0.000000 
#    z 0.000000 0.000000 1.742410 
# 
# From -- ./inp_files/5221.got.cif
#   From: 2010.06.25/outbox.cif.g09.slc.cpg/sg140_3_cif.got.tgz:5221.got - 2010.06.28 10:53:23.
