data_PCOD8320401
_publ_section_title
;
Structure prediction by ZEFSAII (Michael W. Deem and Ramdas Pophale) SiO2 
 PCOD8320401
Probable space group: I 4/M C M
;
_chemical_formula_sum "Si O2"
_cell_formula_units_Z 192
_cell_length_a 19.832951
_cell_length_b 19.832951
_cell_length_c 24.771780
_cell_angle_alpha 90.000000
_cell_angle_beta 90.000000
_cell_angle_gamma 90.000000
_cell_volume 9743.879223
_symmetry_space_group_name_H-M "I 4/M C M"
_symmetry_group_IT_number 140
_symmetry_cell_setting 'tetragonal'
loop_
_space_group_symop_operation_xyz
x,y,z
-y,x,z
-x,-y,z
y,-x,z
x,-y,1/2-z
-x,y,1/2-z
y,x,1/2-z
-y,-x,1/2-z
-x,-y,-z
y,-x,-z
x,y,-z
-y,x,-z
-x,y,1/2+z
x,-y,1/2+z
-y,-x,1/2+z
y,x,1/2+z
1/2+x,1/2+y,1/2+z
1/2-y,1/2+x,1/2+z
1/2-x,1/2-y,1/2+z
1/2+y,1/2-x,1/2+z
1/2+x,1/2-y,-z
1/2-x,1/2+y,-z
1/2+y,1/2+x,-z
1/2-y,1/2-x,-z
1/2-x,1/2-y,1/2-z
1/2+y,1/2-x,1/2-z
1/2+x,1/2+y,1/2-z
1/2-y,1/2+x,1/2-z
1/2-x,1/2+y,z
1/2+x,1/2-y,z
1/2-y,1/2-x,z
1/2+y,1/2+x,z
loop_
_atom_site_type_symbol
_atom_site_label
_atom_site_fract_x
_atom_site_fract_y
_atom_site_fract_z
Si Si1 0.016752 0.379349 0.687659
Si Si2 0.729543 0.876062 0.843159
Si Si3 0.579893 0.315301 0.248834
Si Si4 0.183783 0.081468 0.062097
Si Si5 0.427715 0.688840 0.937781
Si Si6 0.397270 0.209551 0.346644
O O1 0.048438 0.451563 0.666914
O O2 0.073535 0.324416 0.680958
O O3 0.000000 0.387475 0.750000
O O4 0.950605 0.352510 0.657147
O O5 0.699503 0.800498 0.844271
O O6 0.791693 0.882853 0.803229
O O7 0.751732 0.895356 0.903544
O O8 0.500000 0.319340 0.250000
O O9 0.608792 0.391209 0.250000
O O10 0.598244 0.265487 0.199928
O O11 0.118579 0.125317 0.077711
O O12 0.166182 0.003966 0.075063
O O13 0.204289 0.091479 0.000000
O O14 0.407460 0.754353 0.903810
O O15 0.418727 0.709432 0.000000
O O16 0.322969 0.177032 0.344580
#
# Coordination Sequence:
#
# PCOD8320401 Si02
#       6
#    32  32  32  32  32  32
#     4  11  21  37  62  90 121 157 199 243 291 353
#     4  11  21  37  60  86 118 153 193 239 292 354
#     4  12  24  40  60  85 119 156 197 244 297 356
#     4  10  21  39  62  86 118 156 198 249 298 351
#     4  10  22  40  61  87 117 154 201 249 299 353
#     4  12  23  39  62  88 121 158 194 242 303 358
#
# _framework density 19.704677
#
# number of rings (size 3 to 8) (size 9 to 14) (size 15 to 20)
#    0.000    1.000    5.000    2.000    0.000    5.667 
#    0.000    3.333    0.000    4.500    0.000    1.167 
#    0.000    0.000    0.000    0.000    0.000    0.000 
#
# Total GULP energy -1189831.476945 kJ/mol
# GULP energy per Si atom -12394.077885 kJ/mol
# Density = 1.965983 g / cm^3
# Si number density = 19.704677 Si / 1000 Ang^3
#
#
#
# Elastic Constant Matrix: (Units=GPa)
#
#
# Indices 1 2 3 4 5 6 
#
# 1 80.1477 108.1762 45.9116 0.0000 0.0000 0.0000
# 2 108.1762 80.1377 45.9098 0.0000 0.0000 0.0000
# 3 45.9116 45.9098 84.1696 0.0000 0.0000 0.0000
# 4 0.0000 0.0000 0.0000 29.8058 0.0000 0.0000
# 5 0.0000 0.0000 0.0000 0.0000 29.8054 0.0000
# 6 0.0000 0.0000 0.0000 0.0000 0.0000 46.1822
#
#
#
# Elastic Compliance Matrix: (Units=1/GPa)
#
#
# Indices 1 2 3 4 5 6 
#
# 1 -0.014218 0.021453 -0.003946 0.000000 0.000000 0.000000
# 2 0.021453 -0.014220 -0.003946 0.000000 0.000000 0.000000
# 3 -0.003946 -0.003946 0.016185 0.000000 0.000000 0.000000
# 4 0.000000 0.000000 0.000000 0.033551 0.000000 0.000000
# 5 0.000000 0.000000 0.000000 0.000000 0.033551 0.000000
# 6 0.000000 0.000000 0.000000 0.000000 0.000000 0.021653
#
#
# Mechanical properties :
#
#
# Convention : Reuss Voigt Hill
#
# Bulk Modulus (GPa) = 67.24922 71.60558 69.42740
# Shear Modulus (GPa) = 92.01811 24.12250 58.07030
#
# Velocity S-wave (km/s) = 6.84105 3.50265 5.43455
# Velocity P-wave (km/s) = 9.82866 7.26474 8.64231
#
# Compressibility (1/GPa) = 0.01487006
#
# Stress axis : x y z
#
# Youngs Moduli (GPa) = -70.33467 -70.32446 61.78423
#
# Poissons Ratio (x) = 1.50866 0.24380
# Poissons Ratio (y) = 1.50888 0.24378
# Poissons Ratio (z) = -0.27754 -0.27748
#
# Static dielectric constant tensor:
#      x y z
#    x 3.815400 0.000000 0.000000 
#    y 0.000000 3.815410 0.000000 
#    z 0.000000 0.000000 3.638330 
# 
# 
# High freq. dielectric constant tensor:
#      x y z
#    x 1.775810 0.000000 0.000000 
#    y 0.000000 1.775810 0.000000 
#    z 0.000000 0.000000 1.760920 
# 
# From -- ./inp_files/9792.got.cif
#   From: 2010.06.25/outbox.cif.g09.slc.cpg/sg140_5_cif.got.tgz:9792.got - 2010.06.28 10:53:23.
