data_PCOD8320869
_publ_section_title
;
Structure prediction by ZEFSAII (Michael W. Deem and Ramdas Pophale) SiO2 
 PCOD8320869
Probable space group: I 41/A M D
;
_chemical_formula_sum "Si O2"
_cell_formula_units_Z 160
_cell_length_a 20.834317
_cell_length_b 20.834317
_cell_length_c 17.543906
_cell_angle_alpha 90.000000
_cell_angle_beta 90.000000
_cell_angle_gamma 90.000000
_cell_volume 7615.261608
_symmetry_space_group_name_H-M "I 41/A M D"
_symmetry_group_IT_number 141
_space_group.IT_coordinate_system_code '2'
_symmetry_cell_setting 'tetragonal'
loop_
_space_group_symop_operation_xyz
x,y,z
1/4-y,3/4+x,1/4+z
-x,1/2-y,z
1/4+y,1/4-x,3/4+z
x,-y,-z
-x,1/2+y,-z
1/4+y,3/4+x,1/4-z
1/4-y,1/4-x,3/4-z
-x,-y,-z
3/4+y,1/4-x,3/4-z
x,1/2+y,-z
3/4-y,3/4+x,1/4-z
-x,y,z
x,1/2-y,z
3/4-y,1/4-x,3/4+z
3/4+y,3/4+x,1/4+z
1/2+x,1/2+y,1/2+z
3/4-y,1/4+x,3/4+z
1/2-x,-y,1/2+z
3/4+y,3/4-x,1/4+z
1/2+x,1/2-y,1/2-z
1/2-x,y,1/2-z
3/4+y,1/4+x,3/4-z
3/4-y,3/4-x,1/4-z
1/2-x,1/2-y,1/2-z
1/4+y,3/4-x,1/4-z
1/2+x,y,1/2-z
1/4-y,1/4+x,3/4-z
1/2-x,1/2+y,1/2+z
1/2+x,-y,1/2+z
1/4-y,3/4-x,1/4+z
1/4+y,1/4+x,3/4+z
loop_
_atom_site_type_symbol
_atom_site_label
_atom_site_fract_x
_atom_site_fract_y
_atom_site_fract_z
Si Si1 0.792221 0.250000 0.414197
Si Si2 0.648294 0.250000 0.411723
Si Si3 0.224960 0.974960 0.125000
Si Si4 0.926279 0.378370 0.082912
Si Si5 0.500000 0.385774 0.014647
Si Si6 0.250000 0.127746 0.750000
Si Si7 0.673934 0.000000 0.000000
Si Si8 0.134682 0.640349 0.502568
O O1 0.719758 0.250000 0.444315
O O2 0.804620 0.250000 0.323741
O O3 0.820094 0.183550 0.446212
O O4 0.612581 0.314251 0.441412
O O5 0.661527 0.250000 0.321626
O O6 0.225719 0.912941 0.178171
O O7 0.225614 0.036736 0.177860
O O8 0.902555 0.402524 0.164962
O O9 0.000000 0.357917 0.086285
O O10 0.918788 0.437632 0.024177
O O11 0.438158 0.339601 0.023187
O O12 0.634945 0.063874 0.023181
#
# Coordination Sequence:
#
# PCOD8320869 Si02
#       8
#    16  16  16  32  16  16  16  32
#     4  12  25  42  63 101 133 176 231 282 334 398
#     4  10  26  40  69  92 135 177 227 268 341 414
#     4  10  24  38  64  96 143 165 220 274 358 400
#     4  11  23  46  68 101 130 177 225 280 338 414
#     4  10  25  40  59  93 133 181 224 274 321 397
#     4  11  23  42  71 105 130 176 222 290 344 412
#     4  11  24  39  63  97 133 177 218 282 340 409
#     4  11  25  41  66  94 137 179 231 273 341 400
#
# _framework density 21.010441
#
# number of rings (size 3 to 8) (size 9 to 14) (size 15 to 20)
#    0.000    1.200    3.000    1.500   14.000    0.400 
#    0.000    1.000    2.200    0.000    0.000    0.000 
#    0.000    0.000    0.000    0.000    0.000    0.000 
#
# Total GULP energy -991547.395354 kJ/mol
# GULP energy per Si atom -12394.342442 kJ/mol
# Density = 2.096262 g / cm^3
# Si number density = 21.010441 Si / 1000 Ang^3
#
#
#
# Elastic Constant Matrix: (Units=GPa)
#
#
# Indices 1 2 3 4 5 6 
#
# 1 155.0793 63.7104 34.1680 0.0000 0.0000 0.0000
# 2 63.7104 155.0793 34.1680 0.0000 0.0000 0.0000
# 3 34.1680 34.1680 75.5787 0.0000 0.0000 0.0000
# 4 0.0000 0.0000 0.0000 43.7565 0.0000 0.0000
# 5 0.0000 0.0000 0.0000 0.0000 43.7565 0.0000
# 6 0.0000 0.0000 0.0000 0.0000 0.0000 60.0515
#
#
#
# Elastic Compliance Matrix: (Units=1/GPa)
#
#
# Indices 1 2 3 4 5 6 
#
# 1 0.008133 -0.002811 -0.002406 0.000000 0.000000 0.000000
# 2 -0.002811 0.008133 -0.002406 0.000000 0.000000 0.000000
# 3 -0.002406 -0.002406 0.015407 0.000000 0.000000 0.000000
# 4 0.000000 0.000000 0.000000 0.022854 0.000000 0.000000
# 5 0.000000 0.000000 0.000000 0.000000 0.022854 0.000000
# 6 0.000000 0.000000 0.000000 0.000000 0.000000 0.016652
#
#
# Mechanical properties :
#
#
# Convention : Reuss Voigt Hill
#
# Bulk Modulus (GPa) = 60.87635 72.20336 66.53986
# Shear Modulus (GPa) = 43.57085 46.42563 44.99824
#
# Velocity S-wave (km/s) = 4.55881 4.70579 4.63288
# Velocity P-wave (km/s) = 7.53310 7.99787 7.76896
#
# Compressibility (1/GPa) = 0.01642674
#
# Stress axis : x y z
#
# Youngs Moduli (GPa) = 122.95030 122.95030 64.90672
#
# Poissons Ratio (x) = 0.34565 0.15617
# Poissons Ratio (y) = 0.34565 0.15617
# Poissons Ratio (z) = 0.29582 0.29582
#
# Static dielectric constant tensor:
#      x y z
#    x 3.830580 0.000000 0.000000 
#    y 0.000000 3.830580 0.000000 
#    z 0.000000 0.000000 3.731810 
# 
# 
# High freq. dielectric constant tensor:
#      x y z
#    x 1.827730 0.000000 0.000000 
#    y 0.000000 1.827730 0.000000 
#    z 0.000000 0.000000 1.812250 
# 
# From -- ./inp_files/8747.got.cif
#   From: 2010.03.12/outbox.cif.g09.slc.cpg/sg141_5_cif.got.tgz:8747.got - 2010.04.03 13:18:35.
