data_PCOD8320379
_publ_section_title
;
Structure prediction by ZEFSAII (Michael W. Deem and Ramdas Pophale) SiO2 
 PCOD8320379
Probable space group: I 4/M C M
;
_chemical_formula_sum "Si O2"
_cell_formula_units_Z 176
_cell_length_a 23.755653
_cell_length_b 23.755653
_cell_length_c 15.905833
_cell_angle_alpha 90.000000
_cell_angle_beta 90.000000
_cell_angle_gamma 90.000000
_cell_volume 8976.155429
_symmetry_space_group_name_H-M "I 4/M C M"
_symmetry_group_IT_number 140
_symmetry_cell_setting 'tetragonal'
loop_
_space_group_symop_operation_xyz
x,y,z
-y,x,z
-x,-y,z
y,-x,z
x,-y,1/2-z
-x,y,1/2-z
y,x,1/2-z
-y,-x,1/2-z
-x,-y,-z
y,-x,-z
x,y,-z
-y,x,-z
-x,y,1/2+z
x,-y,1/2+z
-y,-x,1/2+z
y,x,1/2+z
1/2+x,1/2+y,1/2+z
1/2-y,1/2+x,1/2+z
1/2-x,1/2-y,1/2+z
1/2+y,1/2-x,1/2+z
1/2+x,1/2-y,-z
1/2-x,1/2+y,-z
1/2+y,1/2+x,-z
1/2-y,1/2-x,-z
1/2-x,1/2-y,1/2-z
1/2+y,1/2-x,1/2-z
1/2+x,1/2+y,1/2-z
1/2-y,1/2+x,1/2-z
1/2-x,1/2+y,z
1/2+x,1/2-y,z
1/2-y,1/2-x,z
1/2+y,1/2+x,z
loop_
_atom_site_type_symbol
_atom_site_label
_atom_site_fract_x
_atom_site_fract_y
_atom_site_fract_z
Si Si1 0.015941 0.730214 0.096835
Si Si2 0.210525 0.377135 0.698319
Si Si3 0.546920 0.863148 0.314661
Si Si4 0.825014 0.825014 0.250000
Si Si5 0.883299 0.117722 0.905247
Si Si6 0.347299 0.503231 0.346907
O O1 0.081113 0.731085 0.125561
O O2 0.983752 0.780242 0.146440
O O3 0.985820 0.669889 0.111503
O O4 0.014131 0.744797 0.000000
O O5 0.164209 0.335792 0.657977
O O6 0.182891 0.413038 0.772641
O O7 0.259696 0.338370 0.736320
O O8 0.500000 0.886493 0.250000
O O9 0.583856 0.916145 0.348518
O O10 0.857746 0.842602 0.165925
O O11 0.945597 0.140948 0.894529
O O12 0.883690 0.050573 0.893136
O O13 0.862429 0.132714 0.000000
O O14 0.365320 0.500000 0.250000
#
# Coordination Sequence:
#
# PCOD8320379 Si02
#       6
#    32  32  32  16  32  32
#     4  11  21  36  60  87 121 160 202 253 311 374
#     4  10  21  37  59  85 116 156 199 249 308 370
#     4   9  19  36  58  85 117 156 202 250 307 374
#     4  12  21  38  62  87 120 156 208 254 305 370
#     4  12  24  38  60  87 119 157 203 255 307 364
#     4  12  22  41  59  85 116 161 205 251 308 371
#
# _framework density 19.607503000000001
#
# number of rings (size 3 to 8) (size 9 to 14) (size 15 to 20)
#    0.000    1.091    3.636    4.636    0.000    1.273 
#    0.000    1.818    0.000    2.727    0.000    5.091 
#    0.000    0.000    0.000    0.000    0.000    0.000 
#
# Total GULP energy -1091127.155604 kJ/mol
# GULP energy per Si atom -12399.172223 kJ/mol
# Density = 1.956288 g / cm^3
# Si number density = 19.607503 Si / 1000 Ang^3
#
#
#
# Elastic Constant Matrix: (Units=GPa)
#
#
# Indices 1 2 3 4 5 6 
#
# 1 88.1738 41.3154 17.3095 0.0000 0.0000 0.0000
# 2 41.3154 88.1738 17.3095 0.0000 0.0000 0.0000
# 3 17.3095 17.3095 112.0590 0.0000 0.0000 0.0000
# 4 0.0000 0.0000 0.0000 15.0029 0.0000 0.0000
# 5 0.0000 0.0000 0.0000 0.0000 15.0029 0.0000
# 6 0.0000 0.0000 0.0000 0.0000 0.0000 45.7283
#
#
#
# Elastic Compliance Matrix: (Units=1/GPa)
#
#
# Indices 1 2 3 4 5 6 
#
# 1 0.014698 -0.006643 -0.001244 0.000000 0.000000 0.000000
# 2 -0.006643 0.014698 -0.001244 0.000000 0.000000 0.000000
# 3 -0.001244 -0.001244 0.009308 0.000000 0.000000 0.000000
# 4 0.000000 0.000000 0.000000 0.066654 0.000000 0.000000
# 5 0.000000 0.000000 0.000000 0.000000 0.066654 0.000000
# 6 0.000000 0.000000 0.000000 0.000000 0.000000 0.021868
#
#
# Mechanical properties :
#
#
# Convention : Reuss Voigt Hill
#
# Bulk Modulus (GPa) = 48.91946 48.91947 48.91947
# Shear Modulus (GPa) = 22.83557 29.31165 26.07361
#
# Velocity S-wave (km/s) = 3.41638 3.87061 3.65057
# Velocity P-wave (km/s) = 6.36912 6.70664 6.54006
#
# Compressibility (1/GPa) = 0.02044176
#
# Stress axis : x y z
#
# Youngs Moduli (GPa) = 68.03605 68.03605 107.43130
#
# Poissons Ratio (x) = 0.45195 0.13368
# Poissons Ratio (y) = 0.45195 0.13368
# Poissons Ratio (z) = 0.08466 0.08466
#
# Static dielectric constant tensor:
#      x y z
#    x 3.744770 0.000000 0.000000 
#    y 0.000000 3.744770 0.000000 
#    z 0.000000 0.000000 3.382390 
# 
# 
# High freq. dielectric constant tensor:
#      x y z
#    x 1.766860 0.000000 0.000000 
#    y 0.000000 1.766860 0.000000 
#    z 0.000000 0.000000 1.749400 
# 
# From -- ./inp_files/4960.got.cif
#   From: 2010.06.25/outbox.cif.g09.slc.cpg/sg140_3_cif.got.tgz:4960.got - 2010.06.28 10:53:23.
