data_PCOD8320584
_publ_section_title
;
Structure prediction by ZEFSAII (Michael W. Deem and Ramdas Pophale) SiO2 
 PCOD8320584
Probable space group: I 41/A M D
;
_chemical_formula_sum "Si O2"
_cell_formula_units_Z 176
_cell_length_a 17.695106
_cell_length_b 17.695106
_cell_length_c 32.272259
_cell_angle_alpha 90.000000
_cell_angle_beta 90.000000
_cell_angle_gamma 90.000000
_cell_volume 10104.985704
_symmetry_space_group_name_H-M "I 41/A M D"
_symmetry_group_IT_number 141
_space_group.IT_coordinate_system_code '2'
_symmetry_cell_setting 'tetragonal'
loop_
_space_group_symop_operation_xyz
x,y,z
1/4-y,3/4+x,1/4+z
-x,1/2-y,z
1/4+y,1/4-x,3/4+z
x,-y,-z
-x,1/2+y,-z
1/4+y,3/4+x,1/4-z
1/4-y,1/4-x,3/4-z
-x,-y,-z
3/4+y,1/4-x,3/4-z
x,1/2+y,-z
3/4-y,3/4+x,1/4-z
-x,y,z
x,1/2-y,z
3/4-y,1/4-x,3/4+z
3/4+y,3/4+x,1/4+z
1/2+x,1/2+y,1/2+z
3/4-y,1/4+x,3/4+z
1/2-x,-y,1/2+z
3/4+y,3/4-x,1/4+z
1/2+x,1/2-y,1/2-z
1/2-x,y,1/2-z
3/4+y,1/4+x,3/4-z
3/4-y,3/4-x,1/4-z
1/2-x,1/2-y,1/2-z
1/4+y,3/4-x,1/4-z
1/2+x,y,1/2-z
1/4-y,1/4+x,3/4-z
1/2-x,1/2+y,1/2+z
1/2+x,-y,1/2+z
1/4-y,3/4-x,1/4+z
1/4+y,1/4+x,3/4+z
loop_
_atom_site_type_symbol
_atom_site_label
_atom_site_fract_x
_atom_site_fract_y
_atom_site_fract_z
Si Si1 0.361368 0.948415 0.810483
Si Si2 0.088754 0.024658 0.767236
Si Si3 0.272519 0.052134 0.913695
Si Si4 0.833536 0.335619 0.113601
Si Si5 0.412352 0.662352 0.875000
Si Si6 0.582465 0.338855 0.466583
O O1 0.272562 0.966996 0.808744
O O2 0.373017 0.867624 0.832610
O O3 0.393315 0.954109 0.763661
O O4 0.409160 0.004959 0.839172
O O5 0.120851 0.101683 0.746211
O O6 0.000000 0.027666 0.776735
O O7 0.132489 0.017241 0.810226
O O8 0.354338 0.084739 0.900665
O O9 0.218831 0.031170 0.875000
O O10 0.842992 0.250000 0.130841
O O11 0.900291 0.356686 0.081490
O O12 0.394161 0.750000 0.877091
O O13 0.500000 0.373720 0.477782
O O14 0.581204 0.250000 0.473228
#
# Coordination Sequence:
#
# PCOD8320584 Si02
#       6
#    32  32  32  32  16  32
#     4  10  18  33  53  72 100 140 174 212 256 319
#     4  10  20  34  53  74 103 138 176 220 270 323
#     4  10  20  33  51  75 101 138 175 216 260 329
#     4   9  16  29  51  74  96 126 168 213 258 306
#     4  11  20  30  52  84 110 134 176 227 266 304
#     4   8  15  29  51  76  97 124 166 215 264 317
#
# _framework density 17.417145999999999
#
# number of rings (size 3 to 8) (size 9 to 14) (size 15 to 20)
#    0.000    2.455    2.727    3.273    0.000    0.727 
#    0.000    1.818    0.000   17.455    0.000    0.000 
#    0.000    0.000    0.000    0.000    0.000    0.000 
#
# Total GULP energy -1090782.390978 kJ/mol
# GULP energy per Si atom -12395.254443 kJ/mol
# Density = 1.737750 g / cm^3
# Si number density = 17.417146 Si / 1000 Ang^3
#
#
#
# Elastic Constant Matrix: (Units=GPa)
#
#
# Indices 1 2 3 4 5 6 
#
# 1 87.6533 36.2065 43.1857 0.0000 0.0000 0.0000
# 2 36.2065 87.6523 43.1852 0.0000 0.0000 0.0000
# 3 43.1857 43.1852 73.7783 0.0000 0.0000 0.0000
# 4 0.0000 0.0000 0.0000 23.0559 0.0000 0.0000
# 5 0.0000 0.0000 0.0000 0.0000 23.0556 0.0000
# 6 0.0000 0.0000 0.0000 0.0000 0.0000 17.1312
#
#
#
# Elastic Compliance Matrix: (Units=1/GPa)
#
#
# Indices 1 2 3 4 5 6 
#
# 1 0.016540 -0.002898 -0.007985 0.000000 0.000000 0.000000
# 2 -0.002898 0.016540 -0.007985 0.000000 0.000000 0.000000
# 3 -0.007985 -0.007985 0.022902 0.000000 0.000000 0.000000
# 4 0.000000 0.000000 0.000000 0.043373 0.000000 0.000000
# 5 0.000000 0.000000 0.000000 0.000000 0.043373 0.000000
# 6 0.000000 0.000000 0.000000 0.000000 0.000000 0.058373
#
#
# Mechanical properties :
#
#
# Convention : Reuss Voigt Hill
#
# Bulk Modulus (GPa) = 54.80834 54.91542 54.86188
# Shear Modulus (GPa) = 20.41485 21.08231 20.74858
#
# Velocity S-wave (km/s) = 3.42733 3.48290 3.45523
# Velocity P-wave (km/s) = 6.87011 6.91174 6.89096
#
# Compressibility (1/GPa) = 0.01824540
#
# Stress axis : x y z
#
# Youngs Moduli (GPa) = 60.46008 60.45974 43.66382
#
# Poissons Ratio (x) = 0.17520 0.34867
# Poissons Ratio (y) = 0.17521 0.34866
# Poissons Ratio (z) = 0.48279 0.48278
#
# Static dielectric constant tensor:
#      x y z
#    x 3.318500 0.000000 0.000000 
#    y 0.000000 3.318500 0.000000 
#    z 0.000000 0.000000 3.076380 
# 
# 
# High freq. dielectric constant tensor:
#      x y z
#    x 1.665140 0.000000 0.000000 
#    y 0.000000 1.665140 0.000000 
#    z 0.000000 0.000000 1.648370 
# 
# From -- ./inp_files/14343.got.cif
#   From: 2010.03.12/outbox.cif.g09.slc.cpg/sg141_8_cif.got.tgz:14343.got - 2010.04.03 13:18:35.
