data_PCOD8320600
_publ_section_title
;
Structure prediction by ZEFSAII (Michael W. Deem and Ramdas Pophale) SiO2 
 PCOD8320600
Probable space group: I 41/A M D
;
_chemical_formula_sum "Si O2"
_cell_formula_units_Z 192
_cell_length_a 17.605162
_cell_length_b 17.605162
_cell_length_c 31.580702
_cell_angle_alpha 90.000000
_cell_angle_beta 90.000000
_cell_angle_gamma 90.000000
_cell_volume 9788.177382
_symmetry_space_group_name_H-M "I 41/A M D"
_symmetry_group_IT_number 141
_space_group.IT_coordinate_system_code '2'
_symmetry_cell_setting 'tetragonal'
loop_
_space_group_symop_operation_xyz
x,y,z
1/4-y,3/4+x,1/4+z
-x,1/2-y,z
1/4+y,1/4-x,3/4+z
x,-y,-z
-x,1/2+y,-z
1/4+y,3/4+x,1/4-z
1/4-y,1/4-x,3/4-z
-x,-y,-z
3/4+y,1/4-x,3/4-z
x,1/2+y,-z
3/4-y,3/4+x,1/4-z
-x,y,z
x,1/2-y,z
3/4-y,1/4-x,3/4+z
3/4+y,3/4+x,1/4+z
1/2+x,1/2+y,1/2+z
3/4-y,1/4+x,3/4+z
1/2-x,-y,1/2+z
3/4+y,3/4-x,1/4+z
1/2+x,1/2-y,1/2-z
1/2-x,y,1/2-z
3/4+y,1/4+x,3/4-z
3/4-y,3/4-x,1/4-z
1/2-x,1/2-y,1/2-z
1/4+y,3/4-x,1/4-z
1/2+x,y,1/2-z
1/4-y,1/4+x,3/4-z
1/2-x,1/2+y,1/2+z
1/2+x,-y,1/2+z
1/4-y,3/4-x,1/4+z
1/4+y,1/4+x,3/4+z
loop_
_atom_site_type_symbol
_atom_site_label
_atom_site_fract_x
_atom_site_fract_y
_atom_site_fract_z
Si Si1 0.084759 0.659635 0.035025
Si Si2 0.410725 0.923866 0.044917
Si Si3 0.409473 0.564527 0.206526
Si Si4 0.588236 0.661765 0.375000
Si Si5 0.589611 0.834450 0.127626
Si Si6 0.346763 0.411372 0.042870
Si Si7 0.412804 0.162804 0.125000
O O1 0.079510 0.750000 0.036972
O O2 0.122442 0.631076 0.080155
O O3 0.000000 0.626516 0.028019
O O4 0.135754 0.633672 0.996303
O O5 0.500000 0.944416 0.047281
O O6 0.386122 0.866562 0.081898
O O7 0.360959 0.999631 0.050568
O O8 0.391499 0.885382 0.999670
O O9 0.500000 0.546316 0.205984
O O10 0.382943 0.608966 0.164396
O O11 0.357588 0.491187 0.211747
O O12 0.500000 0.645232 0.380243
O O13 0.500000 0.827341 0.130563
O O14 0.625405 0.750000 0.133160
O O15 0.372833 0.364553 0.082994
O O16 0.500000 0.143844 0.119271
#
# Coordination Sequence:
#
# PCOD8320600 Si02
#       7
#    32  32  32  16  32  32  16
#     4   8  13  23  42  71 107 144 184 230 278 329
#     4  10  21  38  59  79 104 144 190 235 280 327
#     4  10  19  30  49  79 114 149 184 226 275 328
#     4   7  10  18  36  63  94 132 180 235 288 327
#     4   9  18  33  54  81 110 140 180 229 277 326
#     4  11  21  35  53  77 110 146 183 225 275 330
#     4  11  22  34  52  79 110 142 176 217 264 317
#
# _framework density 19.615500000000001
#
# number of rings (size 3 to 8) (size 9 to 14) (size 15 to 20)
#    0.000    2.500    0.000    5.000    0.000    4.667 
#    0.000    1.667    0.000    8.000    0.000   14.000 
#    0.000    0.000    0.000    0.000    0.000    7.333 
#
# Total GULP energy -1189632.341664 kJ/mol
# GULP energy per Si atom -12392.003559 kJ/mol
# Density = 1.957085 g / cm^3
# Si number density = 19.615500 Si / 1000 Ang^3
#
#
#
# Elastic Constant Matrix: (Units=GPa)
#
#
# Indices 1 2 3 4 5 6 
#
# 1 80.6200 30.8260 36.1119 0.0000 0.0000 0.0000
# 2 30.8260 80.6207 36.1119 0.0000 0.0000 0.0000
# 3 36.1119 36.1119 148.3287 0.0000 0.0000 0.0000
# 4 0.0000 0.0000 0.0000 20.3878 0.0000 0.0000
# 5 0.0000 0.0000 0.0000 0.0000 20.3876 0.0000
# 6 0.0000 0.0000 0.0000 0.0000 0.0000 25.6066
#
#
#
# Elastic Compliance Matrix: (Units=1/GPa)
#
#
# Indices 1 2 3 4 5 6 
#
# 1 0.015368 -0.004714 -0.002594 0.000000 0.000000 0.000000
# 2 -0.004714 0.015368 -0.002594 0.000000 0.000000 0.000000
# 3 -0.002594 -0.002594 0.008005 0.000000 0.000000 0.000000
# 4 0.000000 0.000000 0.000000 0.049049 0.000000 0.000000
# 5 0.000000 0.000000 0.000000 0.000000 0.049049 0.000000
# 6 0.000000 0.000000 0.000000 0.000000 0.000000 0.039052
#
#
# Mechanical properties :
#
#
# Convention : Reuss Voigt Hill
#
# Bulk Modulus (GPa) = 52.80573 57.29656 55.05114
# Shear Modulus (GPa) = 24.75146 27.04436 25.89791
#
# Velocity S-wave (km/s) = 3.55608 3.71715 3.63750
# Velocity P-wave (km/s) = 6.62116 6.90624 6.76520
#
# Compressibility (1/GPa) = 0.01893734
#
# Stress axis : x y z
#
# Youngs Moduli (GPa) = 65.06909 65.06967 124.92601
#
# Poissons Ratio (x) = 0.30676 0.32403
# Poissons Ratio (y) = 0.30676 0.32403
# Poissons Ratio (z) = 0.16878 0.16878
#
# Static dielectric constant tensor:
#      x y z
#    x 3.357620 0.000000 0.000000 
#    y 0.000000 3.357620 0.000000 
#    z 0.000000 0.000000 4.171440 
# 
# 
# High freq. dielectric constant tensor:
#      x y z
#    x 1.733790 0.000000 0.000000 
#    y 0.000000 1.733790 0.000000 
#    z 0.000000 0.000000 1.796010 
# 
# From -- ./inp_files/14476.got.cif
#   From: 2010.03.12/outbox.cif.g09.slc.cpg/sg141_8_cif.got.tgz:14476.got - 2010.04.03 13:18:35.
