data_PCOD8320815
_publ_section_title
;
Structure prediction by ZEFSAII (Michael W. Deem and Ramdas Pophale) SiO2 
 PCOD8320815
Probable space group: I 41/A M D
;
_chemical_formula_sum "Si O2"
_cell_formula_units_Z 160
_cell_length_a 21.980132
_cell_length_b 21.980132
_cell_length_c 16.418650
_cell_angle_alpha 90.000000
_cell_angle_beta 90.000000
_cell_angle_gamma 90.000000
_cell_volume 7932.280029
_symmetry_space_group_name_H-M "I 41/A M D"
_symmetry_group_IT_number 141
_space_group.IT_coordinate_system_code '2'
_symmetry_cell_setting 'tetragonal'
loop_
_space_group_symop_operation_xyz
x,y,z
1/4-y,3/4+x,1/4+z
-x,1/2-y,z
1/4+y,1/4-x,3/4+z
x,-y,-z
-x,1/2+y,-z
1/4+y,3/4+x,1/4-z
1/4-y,1/4-x,3/4-z
-x,-y,-z
3/4+y,1/4-x,3/4-z
x,1/2+y,-z
3/4-y,3/4+x,1/4-z
-x,y,z
x,1/2-y,z
3/4-y,1/4-x,3/4+z
3/4+y,3/4+x,1/4+z
1/2+x,1/2+y,1/2+z
3/4-y,1/4+x,3/4+z
1/2-x,-y,1/2+z
3/4+y,3/4-x,1/4+z
1/2+x,1/2-y,1/2-z
1/2-x,y,1/2-z
3/4+y,1/4+x,3/4-z
3/4-y,3/4-x,1/4-z
1/2-x,1/2-y,1/2-z
1/4+y,3/4-x,1/4-z
1/2+x,y,1/2-z
1/4-y,1/4+x,3/4-z
1/2-x,1/2+y,1/2+z
1/2+x,-y,1/2+z
1/4-y,3/4-x,1/4+z
1/4+y,1/4+x,3/4+z
loop_
_atom_site_type_symbol
_atom_site_label
_atom_site_fract_x
_atom_site_fract_y
_atom_site_fract_z
Si Si1 0.570500 0.372997 0.703594
Si Si2 0.070391 0.081218 0.532858
Si Si3 0.759849 0.680641 0.459682
Si Si4 0.219006 0.124779 0.370569
Si Si5 0.429809 0.873391 0.613898
O O1 0.581949 0.331949 0.625000
O O2 0.500000 0.367746 0.728960
O O3 0.590098 0.442296 0.683776
O O4 0.612084 0.349260 0.776412
O O5 0.086899 0.077251 0.437364
O O6 0.081844 0.148567 0.566694
O O7 0.000000 0.062495 0.546515
O O8 0.115426 0.036526 0.584395
O O9 0.757877 0.750000 0.487226
O O10 0.785397 0.645327 0.536859
O O11 0.805164 0.670525 0.383826
O O12 0.195746 0.054255 0.375000
O O13 0.500000 0.854529 0.612856
#
# Coordination Sequence:
#
# PCOD8320815 Si02
#       5
#    32  32  32  32  32
#     4  11  24  43  68  93 124 166 215 268 329 395
#     4  11  22  37  61  91 128 174 214 252 313 382
#     4  10  21  40  63  88 125 170 214 260 317 385
#     4  11  20  36  62  90 122 165 217 256 296 368
#     4  11  23  39  64  94 126 165 214 270 322 378
#
# _framework density 20.170745
#
# number of rings (size 3 to 8) (size 9 to 14) (size 15 to 20)
#    0.000    1.200    4.000    3.600    0.000    3.400 
#    0.000    4.000    4.400    0.000    0.000    0.000 
#    0.000    0.000    0.000    0.000    0.000    0.000 
#
# Total GULP energy -991883.210319 kJ/mol
# GULP energy per Si atom -12398.540129 kJ/mol
# Density = 2.012484 g / cm^3
# Si number density = 20.170745 Si / 1000 Ang^3
#
#
#
# Elastic Constant Matrix: (Units=GPa)
#
#
# Indices 1 2 3 4 5 6 
#
# 1 102.7744 59.3943 36.6594 0.0000 0.0000 0.0000
# 2 59.3943 102.7760 36.6598 0.0000 0.0000 0.0000
# 3 36.6594 36.6598 101.3711 0.0000 0.0000 0.0000
# 4 0.0000 0.0000 0.0000 27.2966 0.0000 0.0000
# 5 0.0000 0.0000 0.0000 0.0000 27.2959 0.0000
# 6 0.0000 0.0000 0.0000 0.0000 0.0000 31.2361
#
#
#
# Elastic Compliance Matrix: (Units=1/GPa)
#
#
# Indices 1 2 3 4 5 6 
#
# 1 0.015212 -0.007840 -0.002666 0.000000 0.000000 0.000000
# 2 -0.007840 0.015212 -0.002666 0.000000 0.000000 0.000000
# 3 -0.002666 -0.002666 0.011793 0.000000 0.000000 0.000000
# 4 0.000000 0.000000 0.000000 0.036635 0.000000 0.000000
# 5 0.000000 0.000000 0.000000 0.000000 0.036636 0.000000
# 6 0.000000 0.000000 0.000000 0.000000 0.000000 0.032014
#
#
# Mechanical properties :
#
#
# Convention : Reuss Voigt Hill
#
# Bulk Modulus (GPa) = 63.00103 63.59425 63.29764
# Shear Modulus (GPa) = 27.91194 28.77960 28.34577
#
# Velocity S-wave (km/s) = 3.72396 3.78140 3.75279
# Velocity P-wave (km/s) = 7.05636 7.11770 7.08710
#
# Compressibility (1/GPa) = 0.01587276
#
# Stress axis : x y z
#
# Youngs Moduli (GPa) = 65.73867 65.73959 84.79677
#
# Poissons Ratio (x) = 0.51540 0.22606
# Poissons Ratio (y) = 0.51539 0.22606
# Poissons Ratio (z) = 0.17525 0.17525
#
# Static dielectric constant tensor:
#      x y z
#    x 3.712390 0.000000 0.000000 
#    y 0.000000 3.712380 0.000000 
#    z 0.000000 0.000000 3.658590 
# 
# 
# High freq. dielectric constant tensor:
#      x y z
#    x 1.783180 0.000000 0.000000 
#    y 0.000000 1.783180 0.000000 
#    z 0.000000 0.000000 1.790170 
# 
# From -- ./inp_files/8558.got.cif
#   From: 2010.03.12/outbox.cif.g09.slc.cpg/sg141_5_cif.got.tgz:8558.got - 2010.04.03 13:18:35.
