data_PCOD8320149
_publ_section_title
;
Structure prediction by ZEFSAII (Michael W. Deem and Ramdas Pophale) SiO2 
 PCOD8320149
Probable space group: I 4/M C M
;
_chemical_formula_sum "Si O2"
_cell_formula_units_Z 160
_cell_length_a 16.543205
_cell_length_b 16.543205
_cell_length_c 31.235499
_cell_angle_alpha 90.000000
_cell_angle_beta 90.000000
_cell_angle_gamma 90.000000
_cell_volume 8548.457390
_symmetry_space_group_name_H-M "I 4/M C M"
_symmetry_group_IT_number 140
_symmetry_cell_setting 'tetragonal'
loop_
_space_group_symop_operation_xyz
x,y,z
-y,x,z
-x,-y,z
y,-x,z
x,-y,1/2-z
-x,y,1/2-z
y,x,1/2-z
-y,-x,1/2-z
-x,-y,-z
y,-x,-z
x,y,-z
-y,x,-z
-x,y,1/2+z
x,-y,1/2+z
-y,-x,1/2+z
y,x,1/2+z
1/2+x,1/2+y,1/2+z
1/2-y,1/2+x,1/2+z
1/2-x,1/2-y,1/2+z
1/2+y,1/2-x,1/2+z
1/2+x,1/2-y,-z
1/2-x,1/2+y,-z
1/2+y,1/2+x,-z
1/2-y,1/2-x,-z
1/2-x,1/2-y,1/2-z
1/2+y,1/2-x,1/2-z
1/2+x,1/2+y,1/2-z
1/2-y,1/2+x,1/2-z
1/2-x,1/2+y,z
1/2+x,1/2-y,z
1/2-y,1/2-x,z
1/2+y,1/2+x,z
loop_
_atom_site_type_symbol
_atom_site_label
_atom_site_fract_x
_atom_site_fract_y
_atom_site_fract_z
Si Si1 0.378284 0.246974 0.740713
Si Si2 0.400353 0.230366 0.950226
Si Si3 0.001388 0.629148 0.391375
Si Si4 0.238537 0.018137 0.820312
Si Si5 0.877231 0.053129 0.391851
O O1 0.314073 0.314073 0.750000
O O2 0.335254 0.164747 0.724275
O O3 0.436661 0.284599 0.704888
O O4 0.420989 0.225063 0.785560
O O5 0.313835 0.186166 0.940727
O O6 0.472554 0.171126 0.935359
O O7 0.408024 0.315158 0.925669
O O8 0.411152 0.248067 0.000000
O O9 0.088923 0.588923 0.399403
O O10 0.006757 0.694957 0.354574
O O11 0.938004 0.561997 0.376207
O O12 0.161027 0.058241 0.844076
O O13 0.894791 0.957947 0.398405
#
# Coordination Sequence:
#
# PCOD8320149 Si02
#       5
#    32  32  32  32  32
#     4  10  20  32  48  71  99 133 173 215 260 310
#     4   9  19  36  56  79 108 139 171 213 266 318
#     4   9  17  30  50  75 102 134 171 210 256 311
#     4  10  19  33  50  71 101 135 172 216 263 306
#     4  10  21  37  57  80 106 139 179 219 261 311
#
# _framework density 18.716826999999999
#
# number of rings (size 3 to 8) (size 9 to 14) (size 15 to 20)
#    0.000    2.400    0.000    2.400    0.000    2.000 
#    0.000    8.000    0.000    9.600    0.000    0.000 
#    0.000    0.000    0.000    0.000    0.000    0.000 
#
# Total GULP energy -991514.317883 kJ/mol
# GULP energy per Si atom -12393.928974 kJ/mol
# Density = 1.867423 g / cm^3
# Si number density = 18.716827 Si / 1000 Ang^3
#
#
#
# Elastic Constant Matrix: (Units=GPa)
#
#
# Indices 1 2 3 4 5 6 
#
# 1 91.1274 22.1717 38.1459 0.0000 0.0000 0.0000
# 2 22.1717 91.1274 38.1459 0.0000 0.0000 0.0000
# 3 38.1459 38.1459 114.9174 0.0000 0.0000 0.0000
# 4 0.0000 0.0000 0.0000 35.7189 0.0000 0.0000
# 5 0.0000 0.0000 0.0000 0.0000 35.7189 0.0000
# 6 0.0000 0.0000 0.0000 0.0000 0.0000 26.5639
#
#
#
# Elastic Compliance Matrix: (Units=1/GPa)
#
#
# Indices 1 2 3 4 5 6 
#
# 1 0.012934 -0.001568 -0.003773 0.000000 0.000000 0.000000
# 2 -0.001568 0.012934 -0.003773 0.000000 0.000000 0.000000
# 3 -0.003773 -0.003773 0.011207 0.000000 0.000000 0.000000
# 4 0.000000 0.000000 0.000000 0.027996 0.000000 0.000000
# 5 0.000000 0.000000 0.000000 0.000000 0.027996 0.000000
# 6 0.000000 0.000000 0.000000 0.000000 0.000000 0.037645
#
#
# Mechanical properties :
#
#
# Convention : Reuss Voigt Hill
#
# Bulk Modulus (GPa) = 53.05588 54.89990 53.97789
# Shear Modulus (GPa) = 32.21149 32.84758 32.52953
#
# Velocity S-wave (km/s) = 4.15298 4.19379 4.17344
# Velocity P-wave (km/s) = 7.16969 7.26952 7.21978
#
# Compressibility (1/GPa) = 0.01884805
#
# Stress axis : x y z
#
# Youngs Moduli (GPa) = 77.31266 77.31266 89.23126
#
# Poissons Ratio (x) = 0.12119 0.33668
# Poissons Ratio (y) = 0.12119 0.33668
# Poissons Ratio (z) = 0.29171 0.29171
#
# Static dielectric constant tensor:
#      x y z
#    x 3.600830 0.000000 0.000000 
#    y 0.000000 3.600830 0.000000 
#    z 0.000000 0.000000 3.457930 
# 
# 
# High freq. dielectric constant tensor:
#      x y z
#    x 1.726580 0.000000 0.000000 
#    y 0.000000 1.726580 0.000000 
#    z 0.000000 0.000000 1.724590 
# 
# From -- ./inp_files/10493.got.cif
#   From: 2010.06.25/outbox.cif.g09.slc.cpg/sg140_6_cif.got.tgz:10493.got - 2010.06.28 10:53:23.
