data_PCOD8320939
_publ_section_title
;
Structure prediction by ZEFSAII (Michael W. Deem and Ramdas Pophale) SiO2 
 PCOD8320939
Probable space group: I 41/A M D
;
_chemical_formula_sum "Si O2"
_cell_formula_units_Z 96
_cell_length_a 18.884742
_cell_length_b 18.884742
_cell_length_c 12.462581
_cell_angle_alpha 90.000000
_cell_angle_beta 90.000000
_cell_angle_gamma 90.000000
_cell_volume 4444.573637
_symmetry_space_group_name_H-M "I 41/A M D"
_symmetry_group_IT_number 141
_space_group.IT_coordinate_system_code '2'
_symmetry_cell_setting 'tetragonal'
loop_
_space_group_symop_operation_xyz
x,y,z
1/4-y,3/4+x,1/4+z
-x,1/2-y,z
1/4+y,1/4-x,3/4+z
x,-y,-z
-x,1/2+y,-z
1/4+y,3/4+x,1/4-z
1/4-y,1/4-x,3/4-z
-x,-y,-z
3/4+y,1/4-x,3/4-z
x,1/2+y,-z
3/4-y,3/4+x,1/4-z
-x,y,z
x,1/2-y,z
3/4-y,1/4-x,3/4+z
3/4+y,3/4+x,1/4+z
1/2+x,1/2+y,1/2+z
3/4-y,1/4+x,3/4+z
1/2-x,-y,1/2+z
3/4+y,3/4-x,1/4+z
1/2+x,1/2-y,1/2-z
1/2-x,y,1/2-z
3/4+y,1/4+x,3/4-z
3/4-y,3/4-x,1/4-z
1/2-x,1/2-y,1/2-z
1/4+y,3/4-x,1/4-z
1/2+x,y,1/2-z
1/4-y,1/4+x,3/4-z
1/2-x,1/2+y,1/2+z
1/2+x,-y,1/2+z
1/4-y,3/4-x,1/4+z
1/4+y,1/4+x,3/4+z
loop_
_atom_site_type_symbol
_atom_site_label
_atom_site_fract_x
_atom_site_fract_y
_atom_site_fract_z
Si Si1 0.579468 0.059643 0.198020
Si Si2 0.334267 0.829573 0.457947
Si Si3 0.323361 0.169606 0.305899
O O1 0.500000 0.091430 0.200506
O O2 0.638134 0.120014 0.216093
O O3 0.587087 0.001250 0.292470
O O4 0.589946 0.013907 0.083321
O O5 0.364939 0.885062 0.375000
O O6 0.356617 0.750000 0.424573
O O7 0.360909 0.846513 0.579229
O O8 0.340394 0.250000 0.274335
#
# Coordination Sequence:
#
# PCOD8320939 Si02
#       3
#    32  32  32
#     4   8  16  29  42  62  93 128 165 200 239 297
#     4   8  16  27  38  58  88 126 162 196 237 287
#     4   8  16  29  43  63  92 129 162 197 245 295
#
# _framework density 21.599371000000001
#
# number of rings (size 3 to 8) (size 9 to 14) (size 15 to 20)
#    2.000    2.000    0.000    0.000    0.000    3.667 
#    0.000    6.667    0.000    0.000    0.000    0.000 
#    0.000   10.667    0.000    0.000    0.000    0.000 
#
# Total GULP energy -594675.935440 kJ/mol
# GULP energy per Si atom -12389.081988 kJ/mol
# Density = 2.155021 g / cm^3
# Si number density = 21.599371 Si / 1000 Ang^3
#
#
#
# Elastic Constant Matrix: (Units=GPa)
#
#
# Indices 1 2 3 4 5 6 
#
# 1 126.0695 89.9013 82.3778 0.0000 0.0000 0.0000
# 2 89.9013 126.0653 82.3761 0.0000 0.0000 0.0000
# 3 82.3778 82.3761 158.3788 0.0000 0.0000 0.0000
# 4 0.0000 0.0000 0.0000 26.4581 0.0000 0.0000
# 5 0.0000 0.0000 0.0000 0.0000 26.4586 0.0000
# 6 0.0000 0.0000 0.0000 0.0000 0.0000 31.5490
#
#
#
# Elastic Compliance Matrix: (Units=1/GPa)
#
#
# Indices 1 2 3 4 5 6 
#
# 1 0.017663 -0.009987 -0.003993 0.000000 0.000000 0.000000
# 2 -0.009987 0.017663 -0.003992 0.000000 0.000000 0.000000
# 3 -0.003993 -0.003992 0.010467 0.000000 0.000000 0.000000
# 4 0.000000 0.000000 0.000000 0.037796 0.000000 0.000000
# 5 0.000000 0.000000 0.000000 0.000000 0.037795 0.000000
# 6 0.000000 0.000000 0.000000 0.000000 0.000000 0.031697
#
#
# Mechanical properties :
#
#
# Convention : Reuss Voigt Hill
#
# Bulk Modulus (GPa) = 101.53082 102.20267 101.86674
# Shear Modulus (GPa) = 25.99996 27.28370 26.64183
#
# Velocity S-wave (km/s) = 3.47326 3.55797 3.51587
# Velocity P-wave (km/s) = 7.94941 8.01867 7.98411
#
# Compressibility (1/GPa) = 0.00984923
#
# Stress axis : x y z
#
# Youngs Moduli (GPa) = 56.61592 56.61425 95.53672
#
# Poissons Ratio (x) = 0.56541 0.38143
# Poissons Ratio (y) = 0.56543 0.38143
# Poissons Ratio (z) = 0.22604 0.22603
#
# Static dielectric constant tensor:
#      x y z
#    x 3.637660 0.000000 0.000000 
#    y 0.000000 3.637660 0.000000 
#    z 0.000000 0.000000 4.092510 
# 
# 
# High freq. dielectric constant tensor:
#      x y z
#    x 1.840490 0.000000 0.000000 
#    y 0.000000 1.840490 0.000000 
#    z 0.000000 0.000000 1.891490 
# 
# From -- ./inp_files/7674.got.cif
#   From: 2010.03.12/outbox.cif.g09.slc.cpg/sg141_4_cif.got.tgz:7674.got - 2010.04.03 13:18:35.
