data_PCOD8320728
_publ_section_title
;
Structure prediction by ZEFSAII (Michael W. Deem and Ramdas Pophale) SiO2 
 PCOD8320728
Probable space group: I 41/A M D
;
_chemical_formula_sum "Si O2"
_cell_formula_units_Z 96
_cell_length_a 16.049420
_cell_length_b 16.049420
_cell_length_c 16.245953
_cell_angle_alpha 90.000000
_cell_angle_beta 90.000000
_cell_angle_gamma 90.000000
_cell_volume 4184.695646
_symmetry_space_group_name_H-M "I 41/A M D"
_symmetry_group_IT_number 141
_space_group.IT_coordinate_system_code '2'
_symmetry_cell_setting 'tetragonal'
loop_
_space_group_symop_operation_xyz
x,y,z
1/4-y,3/4+x,1/4+z
-x,1/2-y,z
1/4+y,1/4-x,3/4+z
x,-y,-z
-x,1/2+y,-z
1/4+y,3/4+x,1/4-z
1/4-y,1/4-x,3/4-z
-x,-y,-z
3/4+y,1/4-x,3/4-z
x,1/2+y,-z
3/4-y,3/4+x,1/4-z
-x,y,z
x,1/2-y,z
3/4-y,1/4-x,3/4+z
3/4+y,3/4+x,1/4+z
1/2+x,1/2+y,1/2+z
3/4-y,1/4+x,3/4+z
1/2-x,-y,1/2+z
3/4+y,3/4-x,1/4+z
1/2+x,1/2-y,1/2-z
1/2-x,y,1/2-z
3/4+y,1/4+x,3/4-z
3/4-y,3/4-x,1/4-z
1/2-x,1/2-y,1/2-z
1/4+y,3/4-x,1/4-z
1/2+x,y,1/2-z
1/4-y,1/4+x,3/4-z
1/2-x,1/2+y,1/2+z
1/2+x,-y,1/2+z
1/4-y,3/4-x,1/4+z
1/4+y,1/4+x,3/4+z
loop_
_atom_site_type_symbol
_atom_site_label
_atom_site_fract_x
_atom_site_fract_y
_atom_site_fract_z
Si Si1 0.167273 0.413652 0.202189
Si Si2 0.095328 0.250000 0.550859
Si Si3 0.500000 0.095985 0.481004
Si Si4 0.675409 0.347389 0.482243
O O1 0.250000 0.386885 0.250000
O O2 0.086853 0.367490 0.245158
O O3 0.149146 0.512314 0.209331
O O4 0.180666 0.386423 0.108690
O O5 0.150202 0.250000 0.632786
O O6 0.000000 0.250000 0.577018
O O7 0.417847 0.140519 0.517873
O O8 0.500000 0.000000 0.500000
O O9 0.699279 0.250000 0.480663
#
# Coordination Sequence:
#
# PCOD8320728 Si02
#       4
#    32  16  16  32
#     4  11  22  40  67 100 137 179 237 295 351 426
#     4  10  22  42  66  95 132 181 228 279 356 421
#     4  10  20  36  62  96 128 176 225 281 341 413
#     4  11  23  42  68  99 138 184 239 286 361 430
#
# _framework density 22.940736999999999
#
# number of rings (size 3 to 8) (size 9 to 14) (size 15 to 20)
#    0.000    1.333    1.667    6.500    0.000    5.333 
#    0.000    0.000    0.000    0.000   34.667    0.000 
#    0.000    0.000    0.000    0.000    0.000    0.000 
#
# Total GULP energy -595001.618088 kJ/mol
# GULP energy per Si atom -12395.867043 kJ/mol
# Density = 2.288852 g / cm^3
# Si number density = 22.940737 Si / 1000 Ang^3
#
#
#
# Elastic Constant Matrix: (Units=GPa)
#
#
# Indices 1 2 3 4 5 6 
#
# 1 179.0932 28.5643 34.6217 0.0000 0.0000 0.0000
# 2 28.5643 179.0932 34.6217 0.0000 0.0000 0.0000
# 3 34.6217 34.6217 24.1733 0.0000 0.0000 0.0000
# 4 0.0000 0.0000 0.0000 30.8257 0.0000 0.0000
# 5 0.0000 0.0000 0.0000 0.0000 30.8257 0.0000
# 6 0.0000 0.0000 0.0000 0.0000 0.0000 40.8712
#
#
#
# Elastic Compliance Matrix: (Units=1/GPa)
#
#
# Indices 1 2 3 4 5 6 
#
# 1 0.007931 0.001287 -0.013202 0.000000 0.000000 0.000000
# 2 0.001287 0.007931 -0.013202 0.000000 0.000000 0.000000
# 3 -0.013202 -0.013202 0.079184 0.000000 0.000000 0.000000
# 4 0.000000 0.000000 0.000000 0.032441 0.000000 0.000000
# 5 0.000000 0.000000 0.000000 0.000000 0.032441 0.000000
# 6 0.000000 0.000000 0.000000 0.000000 0.000000 0.024467
#
#
# Mechanical properties :
#
#
# Convention : Reuss Voigt Hill
#
# Bulk Modulus (GPa) = 22.31543 64.21947 43.26745
# Shear Modulus (GPa) = 20.03490 39.47464 29.75477
#
# Velocity S-wave (km/s) = 2.95843 4.15266 3.60533
# Velocity P-wave (km/s) = 4.62799 7.14473 6.01936
#
# Compressibility (1/GPa) = 0.04481203
#
# Stress axis : x y z
#
# Youngs Moduli (GPa) = 126.09483 126.09482 12.62874
#
# Poissons Ratio (x) = -0.16232 0.16672
# Poissons Ratio (y) = -0.16232 0.16672
# Poissons Ratio (z) = 1.66471 1.66471
#
# Static dielectric constant tensor:
#      x y z
#    x 4.799870 0.000000 0.000000 
#    y 0.000000 4.799870 0.000000 
#    z 0.000000 0.000000 3.640420 
# 
# 
# High freq. dielectric constant tensor:
#      x y z
#    x 1.929130 0.000000 0.000000 
#    y 0.000000 1.929130 0.000000 
#    z 0.000000 0.000000 1.858470 
# 
# From -- ./inp_files/7708.got.cif
#   From: 2010.03.12/outbox.cif.g09.slc.cpg/sg141_4_cif.got.tgz:7708.got - 2010.04.03 13:18:35.
