data_PCOD8320315
_publ_section_title
;
Structure prediction by ZEFSAII (Michael W. Deem and Ramdas Pophale) SiO2 
 PCOD8320315
Probable space group: I 4/M C M
;
_chemical_formula_sum "Si O2"
_cell_formula_units_Z 176
_cell_length_a 24.407559
_cell_length_b 24.407559
_cell_length_c 14.415127
_cell_angle_alpha 90.000000
_cell_angle_beta 90.000000
_cell_angle_gamma 90.000000
_cell_volume 8587.508275
_symmetry_space_group_name_H-M "I 4/M C M"
_symmetry_group_IT_number 140
_symmetry_cell_setting 'tetragonal'
loop_
_space_group_symop_operation_xyz
x,y,z
-y,x,z
-x,-y,z
y,-x,z
x,-y,1/2-z
-x,y,1/2-z
y,x,1/2-z
-y,-x,1/2-z
-x,-y,-z
y,-x,-z
x,y,-z
-y,x,-z
-x,y,1/2+z
x,-y,1/2+z
-y,-x,1/2+z
y,x,1/2+z
1/2+x,1/2+y,1/2+z
1/2-y,1/2+x,1/2+z
1/2-x,1/2-y,1/2+z
1/2+y,1/2-x,1/2+z
1/2+x,1/2-y,-z
1/2-x,1/2+y,-z
1/2+y,1/2+x,-z
1/2-y,1/2-x,-z
1/2-x,1/2-y,1/2-z
1/2+y,1/2-x,1/2-z
1/2+x,1/2+y,1/2-z
1/2-y,1/2+x,1/2-z
1/2-x,1/2+y,z
1/2+x,1/2-y,z
1/2-y,1/2-x,z
1/2+y,1/2+x,z
loop_
_atom_site_type_symbol
_atom_site_label
_atom_site_fract_x
_atom_site_fract_y
_atom_site_fract_z
Si Si1 0.956145 0.543856 0.610127
Si Si2 0.072989 0.722993 0.396662
Si Si3 0.493263 0.588747 0.000000
Si Si4 0.333184 0.963255 0.608988
Si Si5 0.635361 0.775346 0.215330
Si Si6 0.336406 0.538380 0.660820
Si Si7 0.347819 0.652182 0.250000
O O1 0.959876 0.540125 0.500000
O O2 0.965913 0.605099 0.645637
O O3 0.000000 0.500000 0.652603
O O4 0.095427 0.710037 0.500000
O O5 0.123204 0.718469 0.325119
O O6 0.042971 0.781080 0.396521
O O7 0.024864 0.682777 0.366141
O O8 0.441446 0.550095 0.000000
O O9 0.492313 0.621652 0.904874
O O10 0.328895 0.950008 0.500000
O O11 0.295598 0.917575 0.658724
O O12 0.688343 0.811658 0.188916
O O13 0.647975 0.710878 0.195514
O O14 0.328360 0.500000 0.750000
O O15 0.354343 0.600823 0.681442
#
# Coordination Sequence:
#
# PCOD8320315 Si02
#       7
#    16  32  16  32  32  32  16
#     4   9  18  34  58  87 123 161 205 266 320 375
#     4  10  21  38  62  89 115 161 215 263 316 380
#     4  11  24  38  58  92 129 161 198 249 318 384
#     4  10  20  37  61  90 125 166 217 262 322 386
#     4  11  22  39  61  88 130 167 212 271 329 388
#     4  11  21  41  65  90 123 164 210 264 317 377
#     4  10  23  40  62  91 120 168 220 266 322 387
#
# _framework density 20.494885
#
# number of rings (size 3 to 8) (size 9 to 14) (size 15 to 20)
#    0.000    1.636    1.818    4.091    0.000    1.091 
#    1.636    2.727    0.000    2.182    0.000    0.000 
#    0.000    0.000    0.000    0.000    0.000    0.000 
#
# Total GULP energy -1090675.711901 kJ/mol
# GULP energy per Si atom -12394.042181 kJ/mol
# Density = 2.044824 g / cm^3
# Si number density = 20.494885 Si / 1000 Ang^3
#
#
#
# Elastic Constant Matrix: (Units=GPa)
#
#
# Indices 1 2 3 4 5 6 
#
# 1 48.8325 47.8352 11.9591 0.0000 0.0000 0.0000
# 2 47.8352 48.8409 11.9589 0.0000 0.0000 0.0000
# 3 11.9591 11.9589 35.8341 0.0000 0.0000 0.0000
# 4 0.0000 0.0000 0.0000 25.8737 0.0000 0.0000
# 5 0.0000 0.0000 0.0000 0.0000 25.8740 0.0000
# 6 0.0000 0.0000 0.0000 0.0000 0.0000 39.3929
#
#
#
# Elastic Compliance Matrix: (Units=1/GPa)
#
#
# Indices 1 2 3 4 5 6 
#
# 1 0.504951 -0.493628 -0.003782 0.000000 0.000000 0.000000
# 2 -0.493628 0.504856 -0.003744 0.000000 0.000000 0.000000
# 3 -0.003782 -0.003744 0.030418 0.000000 0.000000 0.000000
# 4 0.000000 0.000000 0.000000 0.038649 0.000000 0.000000
# 5 0.000000 0.000000 0.000000 0.000000 0.038649 0.000000
# 6 0.000000 0.000000 0.000000 0.000000 0.000000 0.025385
#
#
# Mechanical properties :
#
#
# Convention : Reuss Voigt Hill
#
# Bulk Modulus (GPa) = 26.37348 30.77932 28.57640
# Shear Modulus (GPa) = 2.31712 22.34505 12.33108
#
# Velocity S-wave (km/s) = 1.06444 3.30551 2.45555
# Velocity P-wave (km/s) = 3.79565 5.44235 4.69181
#
# Compressibility (1/GPa) = 0.03791687
#
# Stress axis : x y z
#
# Youngs Moduli (GPa) = 1.98039 1.98076 32.87523
#
# Poissons Ratio (x) = 0.97776 0.12433
# Poissons Ratio (y) = 0.97758 0.12309
# Poissons Ratio (z) = 0.00749 0.00742
#
# Static dielectric constant tensor:
#      x y z
#    x 3.991090 0.000000 0.000000 
#    y 0.000000 3.991110 0.000000 
#    z 0.000000 0.000000 3.534840 
# 
# 
# High freq. dielectric constant tensor:
#      x y z
#    x 1.809730 0.000000 0.000000 
#    y 0.000000 1.809730 0.000000 
#    z 0.000000 0.000000 1.790820 
# 
# From -- ./inp_files/4976.got.cif
#   From: 2010.06.25/outbox.cif.g09.slc.cpg/sg140_3_cif.got.tgz:4976.got - 2010.06.28 10:53:23.
