data_PCOD8320289
_publ_section_title
;
Structure prediction by ZEFSAII (Michael W. Deem and Ramdas Pophale) SiO2 
 PCOD8320289
Probable space group: I 4/M C M
;
_chemical_formula_sum "Si O2"
_cell_formula_units_Z 152
_cell_length_a 29.276459
_cell_length_b 29.276459
_cell_length_c 11.056577
_cell_angle_alpha 90.000000
_cell_angle_beta 90.000000
_cell_angle_gamma 90.000000
_cell_volume 9476.714339
_symmetry_space_group_name_H-M "I 4/M C M"
_symmetry_group_IT_number 140
_symmetry_cell_setting 'tetragonal'
loop_
_space_group_symop_operation_xyz
x,y,z
-y,x,z
-x,-y,z
y,-x,z
x,-y,1/2-z
-x,y,1/2-z
y,x,1/2-z
-y,-x,1/2-z
-x,-y,-z
y,-x,-z
x,y,-z
-y,x,-z
-x,y,1/2+z
x,-y,1/2+z
-y,-x,1/2+z
y,x,1/2+z
1/2+x,1/2+y,1/2+z
1/2-y,1/2+x,1/2+z
1/2-x,1/2-y,1/2+z
1/2+y,1/2-x,1/2+z
1/2+x,1/2-y,-z
1/2-x,1/2+y,-z
1/2+y,1/2+x,-z
1/2-y,1/2-x,-z
1/2-x,1/2-y,1/2-z
1/2+y,1/2-x,1/2-z
1/2+x,1/2+y,1/2-z
1/2-y,1/2+x,1/2-z
1/2-x,1/2+y,z
1/2+x,1/2-y,z
1/2-y,1/2-x,z
1/2+y,1/2+x,z
loop_
_atom_site_type_symbol
_atom_site_label
_atom_site_fract_x
_atom_site_fract_y
_atom_site_fract_z
Si Si1 0.287006 0.860373 0.500000
Si Si2 0.412261 0.912261 0.500000
Si Si3 0.250547 0.323501 0.254244
Si Si4 0.818383 0.543074 0.500000
Si Si5 0.909603 0.718823 0.859539
Si Si6 0.947475 0.447475 0.757834
Si Si7 0.207484 0.500000 0.750000
Si Si8 0.880436 0.619565 0.860112
O O1 0.338702 0.838702 0.500000
O O2 0.259374 0.841122 0.612929
O O3 0.280734 0.916061 0.500000
O O4 0.422033 0.859587 0.500000
O O5 0.435526 0.935526 0.609811
O O6 0.300098 0.300098 0.250000
O O7 0.212222 0.287779 0.207966
O O8 0.251835 0.366880 0.163682
O O9 0.819700 0.512203 0.623681
O O10 0.896814 0.668214 0.805239
O O11 0.954789 0.736191 0.786546
O O12 0.921838 0.717563 0.000000
O O13 0.935386 0.500000 0.750000
O O14 0.918698 0.418698 0.660499
O O15 0.872302 0.627699 0.000000
#
# Coordination Sequence:
#
# PCOD8320289 Si02
#       8
#    16   8  32  16  32  16  16  16
#     4  10  20  36  53  75 101 138 172 217 261 319
#     4  12  28  37  60  70  90 128 166 216 270 340
#     4  10  21  35  54  77 106 135 168 209 263 323
#     4  12  24  40  58  79 106 132 178 222 279 324
#     4  11  22  36  54  77 100 131 169 214 260 314
#     4  11  28  41  54  68  88 117 160 214 277 337
#     4  12  24  36  58  80 103 132 172 223 268 318
#     4  10  23  37  54  66  92 124 158 203 261 316
#
# _framework density 16.039314000000001
#
# number of rings (size 3 to 8) (size 9 to 14) (size 15 to 20)
#    0.000    1.158    4.737    1.263    8.842    0.421 
#    0.000    0.000    0.000    0.000    0.000    0.000 
#    0.000    0.000    0.000    0.000    0.000    0.526 
#
# Total GULP energy -941593.232310 kJ/mol
# GULP energy per Si atom -12389.384636 kJ/mol
# Density = 1.600281 g / cm^3
# Si number density = 16.039314 Si / 1000 Ang^3
#
#
#
# Elastic Constant Matrix: (Units=GPa)
#
#
# Indices 1 2 3 4 5 6 
#
# 1 77.5805 45.1642 22.1262 0.0000 0.0000 0.0000
# 2 45.1642 77.5805 22.1261 0.0000 0.0000 0.0000
# 3 22.1262 22.1261 85.2320 0.0000 0.0000 0.0000
# 4 0.0000 0.0000 0.0000 17.8701 0.0000 0.0000
# 5 0.0000 0.0000 0.0000 0.0000 17.8701 0.0000
# 6 0.0000 0.0000 0.0000 0.0000 0.0000 23.6653
#
#
#
# Elastic Compliance Matrix: (Units=1/GPa)
#
#
# Indices 1 2 3 4 5 6 
#
# 1 0.019918 -0.010930 -0.002333 0.000000 0.000000 0.000000
# 2 -0.010930 0.019918 -0.002333 0.000000 0.000000 0.000000
# 3 -0.002333 -0.002333 0.012944 0.000000 0.000000 0.000000
# 4 0.000000 0.000000 0.000000 0.055959 0.000000 0.000000
# 5 0.000000 0.000000 0.000000 0.000000 0.055959 0.000000
# 6 0.000000 0.000000 0.000000 0.000000 0.000000 0.042256
#
#
# Mechanical properties :
#
#
# Convention : Reuss Voigt Hill
#
# Bulk Modulus (GPa) = 46.32366 46.58067 46.45217
# Shear Modulus (GPa) = 20.37942 21.94619 21.16280
#
# Velocity S-wave (km/s) = 3.56840 3.70303 3.63634
# Velocity P-wave (km/s) = 6.77658 6.88389 6.83044
#
# Compressibility (1/GPa) = 0.02158724
#
# Stress axis : x y z
#
# Youngs Moduli (GPa) = 50.20468 50.20468 77.25507
#
# Poissons Ratio (x) = 0.54875 0.18026
# Poissons Ratio (y) = 0.54875 0.18026
# Poissons Ratio (z) = 0.11714 0.11714
#
# Static dielectric constant tensor:
#      x y z
#    x 2.888250 0.000000 0.000000 
#    y 0.000000 2.888250 0.000000 
#    z 0.000000 0.000000 3.251250 
# 
# 
# High freq. dielectric constant tensor:
#      x y z
#    x 1.583500 0.000000 0.000000 
#    y 0.000000 1.583500 0.000000 
#    z 0.000000 0.000000 1.641070 
# 
# From -- ./inp_files/3384.got.cif
#   From: 2010.06.25/outbox.cif.g09.slc.cpg/sg140_2_cif.got.tgz:3384.got - 2010.06.28 10:53:23.
