data_PCOD8320094
_publ_section_title
;
Structure prediction by ZEFSAII (Michael W. Deem and Ramdas Pophale) SiO2 
 PCOD8320094
Probable space group: I 4/M C M
;
_chemical_formula_sum "Si O2"
_cell_formula_units_Z 160
_cell_length_a 21.381609
_cell_length_b 21.381609
_cell_length_c 17.850332
_cell_angle_alpha 90.000000
_cell_angle_beta 90.000000
_cell_angle_gamma 90.000000
_cell_volume 8160.693463
_symmetry_space_group_name_H-M "I 4/M C M"
_symmetry_group_IT_number 140
_symmetry_cell_setting 'tetragonal'
loop_
_space_group_symop_operation_xyz
x,y,z
-y,x,z
-x,-y,z
y,-x,z
x,-y,1/2-z
-x,y,1/2-z
y,x,1/2-z
-y,-x,1/2-z
-x,-y,-z
y,-x,-z
x,y,-z
-y,x,-z
-x,y,1/2+z
x,-y,1/2+z
-y,-x,1/2+z
y,x,1/2+z
1/2+x,1/2+y,1/2+z
1/2-y,1/2+x,1/2+z
1/2-x,1/2-y,1/2+z
1/2+y,1/2-x,1/2+z
1/2+x,1/2-y,-z
1/2-x,1/2+y,-z
1/2+y,1/2+x,-z
1/2-y,1/2-x,-z
1/2-x,1/2-y,1/2-z
1/2+y,1/2-x,1/2-z
1/2+x,1/2+y,1/2-z
1/2-y,1/2+x,1/2-z
1/2-x,1/2+y,z
1/2+x,1/2-y,z
1/2-y,1/2-x,z
1/2+y,1/2+x,z
loop_
_atom_site_type_symbol
_atom_site_label
_atom_site_fract_x
_atom_site_fract_y
_atom_site_fract_z
Si Si1 0.166374 0.431879 0.911707
Si Si2 0.513047 0.598026 0.337770
Si Si3 0.905063 0.806187 0.912200
Si Si4 0.570443 0.830608 0.089149
Si Si5 0.168516 0.767900 0.910864
O O1 0.112372 0.387629 0.876488
O O2 0.233146 0.402285 0.893137
O O3 0.163594 0.501301 0.875929
O O4 0.156110 0.436383 0.000000
O O5 0.447759 0.569209 0.366201
O O6 0.500000 0.603493 0.250000
O O7 0.533803 0.664379 0.371827
O O8 0.839088 0.832844 0.880447
O O9 0.913547 0.818409 0.000000
O O10 0.609368 0.890633 0.116507
O O11 0.605318 0.767165 0.116465
O O12 0.567099 0.828608 0.000000
O O13 0.229163 0.729163 0.881548
O O14 0.172088 0.769982 0.000000
#
# Coordination Sequence:
#
# PCOD8320094 Si02
#       5
#    32  32  32  32  32
#     4   9  17  27  39  64 103 135 162 202 252 303
#     4   9  20  38  53  67  94 131 169 203 254 313
#     4  10  19  28  48  76 101 130 169 213 257 301
#     4   8  14  24  38  57  88 133 173 200 236 296
#     4   8  14  25  40  63  99 136 166 200 250 304
#
# _framework density 19.606176999999999
#
# number of rings (size 3 to 8) (size 9 to 14) (size 15 to 20)
#    0.000    3.200    0.000    2.400    2.800    3.600 
#    0.000    3.000    0.000    0.000    0.000   14.000 
#    0.000    0.000    0.000    0.000    0.000    0.000 
#
# Total GULP energy -991078.438447 kJ/mol
# GULP energy per Si atom -12388.480481 kJ/mol
# Density = 1.956155 g / cm^3
# Si number density = 19.606177 Si / 1000 Ang^3
#
#
#
# Elastic Constant Matrix: (Units=GPa)
#
#
# Indices 1 2 3 4 5 6 
#
# 1 129.3434 72.3591 22.2984 0.0000 0.0000 0.0000
# 2 72.3591 129.3434 22.2984 0.0000 0.0000 0.0000
# 3 22.2984 22.2984 12.0614 0.0000 0.0000 0.0000
# 4 0.0000 0.0000 0.0000 9.6097 0.0000 0.0000
# 5 0.0000 0.0000 0.0000 0.0000 9.6097 0.0000
# 6 0.0000 0.0000 0.0000 0.0000 0.0000 34.0555
#
#
#
# Elastic Compliance Matrix: (Units=1/GPa)
#
#
# Indices 1 2 3 4 5 6 
#
# 1 0.012967 -0.004582 -0.015502 0.000000 0.000000 0.000000
# 2 -0.004582 0.012967 -0.015502 0.000000 0.000000 0.000000
# 3 -0.015502 -0.015502 0.140229 0.000000 0.000000 0.000000
# 4 0.000000 0.000000 0.000000 0.104062 0.000000 0.000000
# 5 0.000000 0.000000 0.000000 0.000000 0.104062 0.000000
# 6 0.000000 0.000000 0.000000 0.000000 0.000000 0.029364
#
#
# Mechanical properties :
#
#
# Convention : Reuss Voigt Hill
#
# Bulk Modulus (GPa) = 10.52740 56.07332 33.30036
# Shear Modulus (GPa) = 9.87192 20.90780 15.38986
#
# Velocity S-wave (km/s) = 2.24634 3.26910 2.80473
# Velocity P-wave (km/s) = 3.47982 6.55067 5.24502
#
# Compressibility (1/GPa) = 0.09499025
#
# Stress axis : x y z
#
# Youngs Moduli (GPa) = 77.11854 77.11854 7.13118
#
# Poissons Ratio (x) = 0.35333 0.11055
# Poissons Ratio (y) = 0.35333 0.11055
# Poissons Ratio (z) = 1.19552 1.19552
#
# Static dielectric constant tensor:
#      x y z
#    x 3.853490 0.000000 0.000000 
#    y 0.000000 3.853490 0.000000 
#    z 0.000000 0.000000 2.756570 
# 
# 
# High freq. dielectric constant tensor:
#      x y z
#    x 1.774190 0.000000 0.000000 
#    y 0.000000 1.774190 0.000000 
#    z 0.000000 0.000000 1.676150 
# 
# From -- ./inp_files/6795.got.cif
#   From: 2010.06.25/outbox.cif.g09.slc.cpg/sg140_4_cif.got.tgz:6795.got - 2010.06.28 10:53:23.
