data_PCOD8320898
_publ_section_title
;
Structure prediction by ZEFSAII (Michael W. Deem and Ramdas Pophale) SiO2 
 PCOD8320898
Probable space group: I 41/A M D
;
_chemical_formula_sum "Si O2"
_cell_formula_units_Z 128
_cell_length_a 19.537007
_cell_length_b 19.537007
_cell_length_c 16.984578
_cell_angle_alpha 90.000000
_cell_angle_beta 90.000000
_cell_angle_gamma 90.000000
_cell_volume 6482.922428
_symmetry_space_group_name_H-M "I 41/A M D"
_symmetry_group_IT_number 141
_space_group.IT_coordinate_system_code '2'
_symmetry_cell_setting 'tetragonal'
loop_
_space_group_symop_operation_xyz
x,y,z
1/4-y,3/4+x,1/4+z
-x,1/2-y,z
1/4+y,1/4-x,3/4+z
x,-y,-z
-x,1/2+y,-z
1/4+y,3/4+x,1/4-z
1/4-y,1/4-x,3/4-z
-x,-y,-z
3/4+y,1/4-x,3/4-z
x,1/2+y,-z
3/4-y,3/4+x,1/4-z
-x,y,z
x,1/2-y,z
3/4-y,1/4-x,3/4+z
3/4+y,3/4+x,1/4+z
1/2+x,1/2+y,1/2+z
3/4-y,1/4+x,3/4+z
1/2-x,-y,1/2+z
3/4+y,3/4-x,1/4+z
1/2+x,1/2-y,1/2-z
1/2-x,y,1/2-z
3/4+y,1/4+x,3/4-z
3/4-y,3/4-x,1/4-z
1/2-x,1/2-y,1/2-z
1/4+y,3/4-x,1/4-z
1/2+x,y,1/2-z
1/4-y,1/4+x,3/4-z
1/2-x,1/2+y,1/2+z
1/2+x,-y,1/2+z
1/4-y,3/4-x,1/4+z
1/4+y,1/4+x,3/4+z
loop_
_atom_site_type_symbol
_atom_site_label
_atom_site_fract_x
_atom_site_fract_y
_atom_site_fract_z
Si Si1 0.258686 0.250000 0.021105
Si Si2 0.892859 0.250000 0.779306
Si Si3 0.077518 0.893834 0.456170
Si Si4 0.500000 0.112672 0.352910
Si Si5 0.000000 0.633320 0.202694
Si Si6 0.216381 0.135978 0.359143
O O1 0.286500 0.182153 0.063100
O O2 0.287078 0.250000 0.932481
O O3 0.176922 0.250000 0.015932
O O4 0.851162 0.250000 0.697395
O O5 0.852670 0.250000 0.862945
O O6 0.935333 0.319649 0.779822
O O7 0.098803 0.817880 0.429157
O O8 0.081737 0.910070 0.549160
O O9 0.000000 0.905176 0.427808
O O10 0.121706 0.955103 0.417814
O O11 0.191416 0.058585 0.375000
#
# Coordination Sequence:
#
# PCOD8320898 Si02
#       6
#    16  16  32  16  16  32
#     4  12  21  36  59  87 129 172 200 253 317 376
#     4   9  20  39  61  95 113 146 213 271 318 374
#     4  11  22  37  60  90 126 168 210 260 306 373
#     4  12  24  34  61  97 122 158 208 267 314 377
#     4   9  20  39  66  84 119 160 200 266 327 372
#     4  11  21  38  58  85 128 172 211 246 310 382
#
# _framework density 19.744183
#
# number of rings (size 3 to 8) (size 9 to 14) (size 15 to 20)
#    0.000    1.250    5.000    3.375    3.500    0.500 
#    0.000    0.000    5.500    0.000    0.000    0.000 
#    0.000    0.000    0.000    0.000    0.000    0.000 
#
# Total GULP energy -792864.393515 kJ/mol
# GULP energy per Si atom -12388.506149 kJ/mol
# Density = 1.969924 g / cm^3
# Si number density = 19.744183 Si / 1000 Ang^3
#
#
#
# Elastic Constant Matrix: (Units=GPa)
#
#
# Indices 1 2 3 4 5 6 
#
# 1 126.0848 45.4931 36.9186 0.0000 0.0000 0.0000
# 2 45.4931 126.0870 36.9190 0.0000 0.0000 0.0000
# 3 36.9186 36.9190 134.4637 0.0000 0.0000 0.0000
# 4 0.0000 0.0000 0.0000 28.9263 0.0000 0.0000
# 5 0.0000 0.0000 0.0000 0.0000 28.9259 0.0000
# 6 0.0000 0.0000 0.0000 0.0000 0.0000 20.8701
#
#
#
# Elastic Compliance Matrix: (Units=1/GPa)
#
#
# Indices 1 2 3 4 5 6 
#
# 1 0.009509 -0.002899 -0.001815 0.000000 0.000000 0.000000
# 2 -0.002899 0.009509 -0.001815 0.000000 0.000000 0.000000
# 3 -0.001815 -0.001815 0.008433 0.000000 0.000000 0.000000
# 4 0.000000 0.000000 0.000000 0.034571 0.000000 0.000000
# 5 0.000000 0.000000 0.000000 0.000000 0.034571 0.000000
# 6 0.000000 0.000000 0.000000 0.000000 0.000000 0.047915
#
#
# Mechanical properties :
#
#
# Convention : Reuss Voigt Hill
#
# Bulk Modulus (GPa) = 69.47741 69.47744 69.47743
# Shear Modulus (GPa) = 30.79520 33.56477 32.17998
#
# Velocity S-wave (km/s) = 3.95360 4.12756 4.04152
# Velocity P-wave (km/s) = 7.49043 7.61452 7.55273
#
# Compressibility (1/GPa) = 0.01439317
#
# Stress axis : x y z
#
# Youngs Moduli (GPa) = 105.16718 105.16896 118.57593
#
# Poissons Ratio (x) = 0.30493 0.21517
# Poissons Ratio (y) = 0.30493 0.21517
# Poissons Ratio (z) = 0.19084 0.19084
#
# Static dielectric constant tensor:
#      x y z
#    x 3.440650 0.000000 0.000000 
#    y 0.000000 3.440650 0.000000 
#    z 0.000000 0.000000 3.866540 
# 
# 
# High freq. dielectric constant tensor:
#      x y z
#    x 1.753100 0.000000 0.000000 
#    y 0.000000 1.753100 0.000000 
#    z 0.000000 0.000000 1.787900 
# 
# From -- ./inp_files/8349.got.cif
#   From: 2010.03.12/outbox.cif.g09.slc.cpg/sg141_5_cif.got.tgz:8349.got - 2010.04.03 13:18:35.
