data_PCOD8320993
_publ_section_title
;
Structure prediction by ZEFSAII (Michael W. Deem and Ramdas Pophale) SiO2 
 PCOD8320993
Probable space group: I 41/A C D
;
_chemical_formula_sum "Si O2"
_cell_formula_units_Z 192
_cell_length_a 29.155989
_cell_length_b 29.155989
_cell_length_c 13.810468
_cell_angle_alpha 90.000000
_cell_angle_beta 90.000000
_cell_angle_gamma 90.000000
_cell_volume 11739.887936
_symmetry_space_group_name_H-M "I 41/A C D"
_symmetry_group_IT_number 142
_space_group.IT_coordinate_system_code '2'
_symmetry_cell_setting 'tetragonal'
loop_
_space_group_symop_operation_xyz
x,y,z
1/4-y,3/4+x,1/4+z
-x,1/2-y,z
1/4+y,1/4-x,3/4+z
x,-y,1/2-z
1/2-x,y,-z
3/4+y,1/4+x,1/4-z
1/4-y,1/4-x,1/4-z
-x,-y,-z
3/4+y,1/4-x,3/4-z
x,1/2+y,-z
3/4-y,3/4+x,1/4-z
-x,y,1/2+z
1/2+x,-y,z
1/4-y,3/4-x,3/4+z
3/4+y,3/4+x,3/4+z
1/2+x,1/2+y,1/2+z
3/4-y,1/4+x,3/4+z
1/2-x,-y,1/2+z
3/4+y,3/4-x,1/4+z
1/2+x,1/2-y,-z
-x,1/2+y,1/2-z
1/4+y,3/4+x,3/4-z
3/4-y,3/4-x,3/4-z
1/2-x,1/2-y,1/2-z
1/4+y,3/4-x,1/4-z
1/2+x,y,1/2-z
1/4-y,1/4+x,3/4-z
1/2-x,1/2+y,z
x,1/2-y,1/2+z
3/4-y,1/4-x,1/4+z
1/4+y,1/4+x,1/4+z
loop_
_atom_site_type_symbol
_atom_site_label
_atom_site_fract_x
_atom_site_fract_y
_atom_site_fract_z
Si Si1 0.334649 0.110587 0.766624
Si Si2 0.044394 0.053095 0.956504
Si Si3 0.139942 0.083878 0.429992
Si Si4 0.196390 0.699339 0.289144
Si Si5 0.081317 0.552659 0.248266
Si Si6 0.699980 0.004799 0.460790
O O1 0.350701 0.100701 0.875000
O O2 0.329094 0.164977 0.761280
O O3 0.370612 0.095281 0.683119
O O4 0.287543 0.084737 0.729029
O O5 0.046224 0.060718 0.840559
O O6 0.050617 0.000068 0.982506
O O7 0.997111 0.073762 0.998274
O O8 0.091873 0.076649 0.481351
O O9 0.165613 0.124396 0.486451
O O10 0.172533 0.039897 0.433450
O O11 0.184720 0.694875 0.402802
O O12 0.098214 0.500000 0.250000
O O13 0.750000 0.990268 0.500000
O O14 0.710304 0.039697 0.375000
#
# Coordination Sequence:
#
# PCOD8320993 Si02
#       6
#    32  32  32  32  32  32
#     4  10  21  34  47  69 103 133 173 213 252 306
#     4   9  19  35  49  69  99 133 173 216 254 309
#     4  11  20  32  49  73  99 134 178 213 251 300
#     4  10  19  33  52  70  97 134 177 212 260 300
#     4   9  19  33  49  72 101 129 168 215 255 305
#     4  11  20  30  44  66  99 141 175 204 246 293
#
# _framework density 16.354500000000002
#
# number of rings (size 3 to 8) (size 9 to 14) (size 15 to 20)
#    0.000    2.000    3.333    1.000    0.000    2.667 
#    0.000    1.667    0.000    0.000    0.000    0.000 
#    0.000   34.667    0.000    0.000    0.000    0.000 
#
# Total GULP energy -1189475.352958 kJ/mol
# GULP energy per Si atom -12390.368260 kJ/mol
# Density = 1.631728 g / cm^3
# Si number density = 16.354500 Si / 1000 Ang^3
#
#
#
# Elastic Constant Matrix: (Units=GPa)
#
#
# Indices 1 2 3 4 5 6 
#
# 1 101.9314 46.7563 57.8631 0.0000 0.0000 0.0000
# 2 46.7563 101.9312 57.8630 0.0000 0.0000 0.0000
# 3 57.8631 57.8630 135.2540 0.0000 0.0000 0.0000
# 4 0.0000 0.0000 0.0000 22.7965 0.0000 0.0000
# 5 0.0000 0.0000 0.0000 0.0000 22.7967 0.0000
# 6 0.0000 0.0000 0.0000 0.0000 0.0000 13.6969
#
#
#
# Elastic Compliance Matrix: (Units=1/GPa)
#
#
# Indices 1 2 3 4 5 6 
#
# 1 0.014103 -0.004021 -0.004314 0.000000 0.000000 0.000000
# 2 -0.004021 0.014103 -0.004314 0.000000 0.000000 0.000000
# 3 -0.004314 -0.004314 0.011084 0.000000 0.000000 0.000000
# 4 0.000000 0.000000 0.000000 0.043866 0.000000 0.000000
# 5 0.000000 0.000000 0.000000 0.000000 0.043866 0.000000
# 6 0.000000 0.000000 0.000000 0.000000 0.000000 0.073009
#
#
# Mechanical properties :
#
#
# Convention : Reuss Voigt Hill
#
# Bulk Modulus (GPa) = 71.45033 73.78683 72.61858
# Shear Modulus (GPa) = 21.73978 23.63366 22.68672
#
# Velocity S-wave (km/s) = 3.64989 3.80555 3.72853
# Velocity P-wave (km/s) = 7.84510 8.03273 7.93947
#
# Compressibility (1/GPa) = 0.01399574
#
# Stress axis : x y z
#
# Youngs Moduli (GPa) = 70.90463 70.90453 90.21821
#
# Poissons Ratio (x) = 0.28508 0.38916
# Poissons Ratio (y) = 0.28508 0.38916
# Poissons Ratio (z) = 0.30585 0.30585
#
# Static dielectric constant tensor:
#      x y z
#    x 2.972830 0.000000 0.000000 
#    y 0.000000 2.972830 0.000000 
#    z 0.000000 0.000000 3.303110 
# 
# 
# High freq. dielectric constant tensor:
#      x y z
#    x 1.606890 0.000000 0.000000 
#    y 0.000000 1.606890 0.000000 
#    z 0.000000 0.000000 1.643640 
# 
# From -- ./inp_files/5831.got.cif
#   From: 2010.03.12/outbox.cif.g09.slc.cpg/sg142_3_cif.got.tgz:5831.got - 2010.04.03 13:27:16.
