data_PCOD8320247
_publ_section_title
;
Structure prediction by ZEFSAII (Michael W. Deem and Ramdas Pophale) SiO2 
 PCOD8320247
Probable space group: I 4/M C M
;
_chemical_formula_sum "Si O2"
_cell_formula_units_Z 128
_cell_length_a 29.667396
_cell_length_b 29.667396
_cell_length_c 8.406183
_cell_angle_alpha 90.000000
_cell_angle_beta 90.000000
_cell_angle_gamma 90.000000
_cell_volume 7398.738832
_symmetry_space_group_name_H-M "I 4/M C M"
_symmetry_group_IT_number 140
_symmetry_cell_setting 'tetragonal'
loop_
_space_group_symop_operation_xyz
x,y,z
-y,x,z
-x,-y,z
y,-x,z
x,-y,1/2-z
-x,y,1/2-z
y,x,1/2-z
-y,-x,1/2-z
-x,-y,-z
y,-x,-z
x,y,-z
-y,x,-z
-x,y,1/2+z
x,-y,1/2+z
-y,-x,1/2+z
y,x,1/2+z
1/2+x,1/2+y,1/2+z
1/2-y,1/2+x,1/2+z
1/2-x,1/2-y,1/2+z
1/2+y,1/2-x,1/2+z
1/2+x,1/2-y,-z
1/2-x,1/2+y,-z
1/2+y,1/2+x,-z
1/2-y,1/2-x,-z
1/2-x,1/2-y,1/2-z
1/2+y,1/2-x,1/2-z
1/2+x,1/2+y,1/2-z
1/2-y,1/2+x,1/2-z
1/2-x,1/2+y,z
1/2+x,1/2-y,z
1/2-y,1/2-x,z
1/2+y,1/2+x,z
loop_
_atom_site_type_symbol
_atom_site_label
_atom_site_fract_x
_atom_site_fract_y
_atom_site_fract_z
Si Si1 0.664412 0.045685 0.815704
Si Si2 0.546096 0.263060 0.310600
Si Si3 0.799935 0.299935 0.319292
Si Si4 0.714036 0.352834 0.186339
Si Si5 0.134280 0.365721 0.678199
O O1 0.717616 0.045520 0.790081
O O2 0.642564 0.082231 0.702475
O O3 0.642608 0.000000 0.750000
O O4 0.652865 0.053612 0.000000
O O5 0.500000 0.289401 0.250000
O O6 0.543811 0.254895 0.500000
O O7 0.594205 0.285420 0.262268
O O8 0.788573 0.288573 0.500000
O O9 0.754860 0.320778 0.243635
O O10 0.837908 0.337908 0.307883
O O11 0.667067 0.332934 0.250000
O O12 0.715305 0.350033 0.000000
O O13 0.148835 0.351166 0.500000
#
# Coordination Sequence:
#
# PCOD8320247 Si02
#       5
#    32  32  16  32  16
#     4  11  21  34  53  76 100 130 167 211 263 311
#     4  10  20  34  53  75 102 134 171 216 259 301
#     4  12  23  35  52  74 102 141 181 216 259 307
#     4  11  23  37  53  74 106 143 179 217 258 306
#     4  12  22  35  53  75 103 132 170 216 259 310
#
# _framework density 17.300245
#
# number of rings (size 3 to 8) (size 9 to 14) (size 15 to 20)
#    0.000    1.000    2.500    7.875    0.000    3.000 
#    0.000    0.000    0.000    0.375    0.000    2.625 
#    0.000    0.500    0.000    5.500    0.000    4.000 
#
# Total GULP energy -793041.561865 kJ/mol
# GULP energy per Si atom -12391.274404 kJ/mol
# Density = 1.726087 g / cm^3
# Si number density = 17.300245 Si / 1000 Ang^3
#
#
#
# Elastic Constant Matrix: (Units=GPa)
#
#
# Indices 1 2 3 4 5 6 
#
# 1 115.3504 35.4022 20.2352 0.0000 0.0000 0.0000
# 2 35.4022 115.3492 20.2386 0.0000 0.0000 0.0000
# 3 20.2352 20.2386 83.0474 0.0000 0.0000 0.0000
# 4 0.0000 0.0000 0.0000 26.7172 0.0000 0.0000
# 5 0.0000 0.0000 0.0000 0.0000 26.7175 0.0000
# 6 0.0000 0.0000 0.0000 0.0000 0.0000 15.6737
#
#
#
# Elastic Compliance Matrix: (Units=1/GPa)
#
#
# Indices 1 2 3 4 5 6 
#
# 1 0.009803 -0.002705 -0.001729 0.000000 0.000000 0.000000
# 2 -0.002705 0.009803 -0.001730 0.000000 0.000000 0.000000
# 3 -0.001729 -0.001730 0.012884 0.000000 0.000000 0.000000
# 4 0.000000 0.000000 0.000000 0.037429 0.000000 0.000000
# 5 0.000000 0.000000 0.000000 0.000000 0.037429 0.000000
# 6 0.000000 0.000000 0.000000 0.000000 0.000000 0.063801
#
#
# Mechanical properties :
#
#
# Convention : Reuss Voigt Hill
#
# Bulk Modulus (GPa) = 49.59961 51.72215 50.66088
# Shear Modulus (GPa) = 26.28838 29.67976 27.98407
#
# Velocity S-wave (km/s) = 3.90235 4.14644 4.02625
# Velocity P-wave (km/s) = 7.00262 7.27225 7.13870
#
# Compressibility (1/GPa) = 0.02016145
#
# Stress axis : x y z
#
# Youngs Moduli (GPa) = 102.01113 102.00847 77.61424
#
# Poissons Ratio (x) = 0.27595 0.13422
# Poissons Ratio (y) = 0.27596 0.13426
# Poissons Ratio (z) = 0.17641 0.17646
#
# Static dielectric constant tensor:
#      x y z
#    x 2.965650 0.000000 0.000000 
#    y 0.000000 2.965590 0.000000 
#    z 0.000000 0.000000 3.320890 
# 
# 
# High freq. dielectric constant tensor:
#      x y z
#    x 1.649210 0.000000 0.000000 
#    y 0.000000 1.649210 0.000000 
#    z 0.000000 0.000000 1.688180 
# 
# From -- ./inp_files/1489.got.cif
#   From: 2010.06.25/outbox.cif.g09.slc.cpg/sg140_1_cif.got.tgz:1489.got - 2010.06.28 10:53:23.
