data_PCOD8320742
_publ_section_title
;
Structure prediction by ZEFSAII (Michael W. Deem and Ramdas Pophale) SiO2 
 PCOD8320742
Probable space group: I 41/A M D
;
_chemical_formula_sum "Si O2"
_cell_formula_units_Z 160
_cell_length_a 18.715121
_cell_length_b 18.715121
_cell_length_c 23.430103
_cell_angle_alpha 90.000000
_cell_angle_beta 90.000000
_cell_angle_gamma 90.000000
_cell_volume 8206.528394
_symmetry_space_group_name_H-M "I 41/A M D"
_symmetry_group_IT_number 141
_space_group.IT_coordinate_system_code '2'
_symmetry_cell_setting 'tetragonal'
loop_
_space_group_symop_operation_xyz
x,y,z
1/4-y,3/4+x,1/4+z
-x,1/2-y,z
1/4+y,1/4-x,3/4+z
x,-y,-z
-x,1/2+y,-z
1/4+y,3/4+x,1/4-z
1/4-y,1/4-x,3/4-z
-x,-y,-z
3/4+y,1/4-x,3/4-z
x,1/2+y,-z
3/4-y,3/4+x,1/4-z
-x,y,z
x,1/2-y,z
3/4-y,1/4-x,3/4+z
3/4+y,3/4+x,1/4+z
1/2+x,1/2+y,1/2+z
3/4-y,1/4+x,3/4+z
1/2-x,-y,1/2+z
3/4+y,3/4-x,1/4+z
1/2+x,1/2-y,1/2-z
1/2-x,y,1/2-z
3/4+y,1/4+x,3/4-z
3/4-y,3/4-x,1/4-z
1/2-x,1/2-y,1/2-z
1/4+y,3/4-x,1/4-z
1/2+x,y,1/2-z
1/4-y,1/4+x,3/4-z
1/2-x,1/2+y,1/2+z
1/2+x,-y,1/2+z
1/4-y,3/4-x,1/4+z
1/4+y,1/4+x,3/4+z
loop_
_atom_site_type_symbol
_atom_site_label
_atom_site_fract_x
_atom_site_fract_y
_atom_site_fract_z
Si Si1 0.686921 0.167419 0.101923
Si Si2 0.312122 0.556155 0.121172
Si Si3 0.177038 0.328467 0.718147
Si Si4 0.579666 0.037790 0.279920
Si Si5 0.375149 0.830091 0.435432
O O1 0.694459 0.250000 0.117241
O O2 0.610701 0.139300 0.125000
O O3 0.748805 0.124852 0.134864
O O4 0.693993 0.152365 0.034982
O O5 0.235146 0.514855 0.125000
O O6 0.328743 0.606476 0.174792
O O7 0.321382 0.606838 0.066559
O O8 0.175919 0.250000 0.687644
O O9 0.250000 0.340926 0.750000
O O10 0.115348 0.326793 0.765753
O O11 0.500000 0.067370 0.295490
O O12 0.581080 0.954188 0.290945
O O13 0.378503 0.871498 0.375000
O O14 0.402975 0.750000 0.425135
#
# Coordination Sequence:
#
# PCOD8320742 Si02
#       5
#    32  32  32  32  32
#     4  10  23  42  65  90 118 152 194 250 314 373
#     4  11  22  35  61  88 118 155 204 248 300 352
#     4  11  22  35  53  83 122 164 207 249 292 340
#     4  10  20  38  60  87 123 159 197 245 297 352
#     4  11  22  37  57  84 123 167 209 246 282 341
#
# _framework density 19.496672
#
# number of rings (size 3 to 8) (size 9 to 14) (size 15 to 20)
#    0.000    1.400    2.000    4.200    0.000    7.200 
#    0.000    2.000    0.000    3.000    0.000    0.000 
#    0.000    0.000    0.000    0.000    0.000    0.000 
#
# Total GULP energy -991771.196347 kJ/mol
# GULP energy per Si atom -12397.139954 kJ/mol
# Density = 1.945230 g / cm^3
# Si number density = 19.496672 Si / 1000 Ang^3
#
#
#
# Elastic Constant Matrix: (Units=GPa)
#
#
# Indices 1 2 3 4 5 6 
#
# 1 95.0149 51.3790 46.9208 0.0000 0.0000 0.0000
# 2 51.3790 95.0042 46.9186 0.0000 0.0000 0.0000
# 3 46.9208 46.9186 90.1005 0.0000 0.0000 0.0000
# 4 0.0000 0.0000 0.0000 30.2963 0.0000 0.0000
# 5 0.0000 0.0000 0.0000 0.0000 30.2972 0.0000
# 6 0.0000 0.0000 0.0000 0.0000 0.0000 30.7041
#
#
#
# Elastic Compliance Matrix: (Units=1/GPa)
#
#
# Indices 1 2 3 4 5 6 
#
# 1 0.016586 -0.006333 -0.005340 0.000000 0.000000 0.000000
# 2 -0.006333 0.016588 -0.005340 0.000000 0.000000 0.000000
# 3 -0.005340 -0.005340 0.016660 0.000000 0.000000 0.000000
# 4 0.000000 0.000000 0.000000 0.033007 0.000000 0.000000
# 5 0.000000 0.000000 0.000000 0.000000 0.033006 0.000000
# 6 0.000000 0.000000 0.000000 0.000000 0.000000 0.032569
#
#
# Mechanical properties :
#
#
# Convention : Reuss Voigt Hill
#
# Bulk Modulus (GPa) = 63.25476 63.39516 63.32496
# Shear Modulus (GPa) = 26.63667 27.25294 26.94481
#
# Velocity S-wave (km/s) = 3.70025 3.74281 3.72159
# Velocity P-wave (km/s) = 7.12531 7.15993 7.14264
#
# Compressibility (1/GPa) = 0.01580909
#
# Stress axis : x y z
#
# Youngs Moduli (GPa) = 60.29207 60.28479 60.02361
#
# Poissons Ratio (x) = 0.38177 0.32050
# Poissons Ratio (y) = 0.38182 0.32053
# Poissons Ratio (z) = 0.32193 0.32192
#
# Static dielectric constant tensor:
#      x y z
#    x 3.624810 0.000000 0.000000 
#    y 0.000000 3.624820 0.000000 
#    z 0.000000 0.000000 3.574730 
# 
# 
# High freq. dielectric constant tensor:
#      x y z
#    x 1.759230 0.000000 0.000000 
#    y 0.000000 1.759230 0.000000 
#    z 0.000000 0.000000 1.756010 
# 
# From -- ./inp_files/12681.got.cif
#   From: 2010.03.12/outbox.cif.g09.slc.cpg/sg141_7_cif.got.tgz:12681.got - 2010.04.03 13:18:35.
