data_PCOD8320140
_publ_section_title
;
Structure prediction by ZEFSAII (Michael W. Deem and Ramdas Pophale) SiO2 
 PCOD8320140
Probable space group: I 4/M C M
;
_chemical_formula_sum "Si O2"
_cell_formula_units_Z 160
_cell_length_a 31.794365
_cell_length_b 31.794365
_cell_length_c 9.019443
_cell_angle_alpha 90.000000
_cell_angle_beta 90.000000
_cell_angle_gamma 90.000000
_cell_volume 9117.589384
_symmetry_space_group_name_H-M "I 4/M C M"
_symmetry_group_IT_number 140
_symmetry_cell_setting 'tetragonal'
loop_
_space_group_symop_operation_xyz
x,y,z
-y,x,z
-x,-y,z
y,-x,z
x,-y,1/2-z
-x,y,1/2-z
y,x,1/2-z
-y,-x,1/2-z
-x,-y,-z
y,-x,-z
x,y,-z
-y,x,-z
-x,y,1/2+z
x,-y,1/2+z
-y,-x,1/2+z
y,x,1/2+z
1/2+x,1/2+y,1/2+z
1/2-y,1/2+x,1/2+z
1/2-x,1/2-y,1/2+z
1/2+y,1/2-x,1/2+z
1/2+x,1/2-y,-z
1/2-x,1/2+y,-z
1/2+y,1/2+x,-z
1/2-y,1/2-x,-z
1/2-x,1/2-y,1/2-z
1/2+y,1/2-x,1/2-z
1/2+x,1/2+y,1/2-z
1/2-y,1/2+x,1/2-z
1/2-x,1/2+y,z
1/2+x,1/2-y,z
1/2-y,1/2-x,z
1/2+y,1/2+x,z
loop_
_atom_site_type_symbol
_atom_site_label
_atom_site_fract_x
_atom_site_fract_y
_atom_site_fract_z
Si Si1 0.728758 0.544532 0.824357
Si Si2 0.115682 0.384319 0.838437
Si Si3 0.109556 0.831671 0.167439
Si Si4 0.315284 0.815284 0.161294
Si Si5 0.263269 0.319258 0.663698
Si Si6 0.324405 0.955480 0.823492
O O1 0.720835 0.500000 0.750000
O O2 0.692207 0.574110 0.760742
O O3 0.776562 0.559687 0.784741
O O4 0.722864 0.541278 0.000000
O O5 0.150296 0.349705 0.862927
O O6 0.076466 0.360424 0.758085
O O7 0.100003 0.399998 0.000000
O O8 0.125623 0.874378 0.250000
O O9 0.147869 0.800233 0.156681
O O10 0.093968 0.842867 0.000000
O O11 0.336954 0.776997 0.249569
O O12 0.299693 0.799693 0.000000
O O13 0.277677 0.277677 0.750000
O O14 0.249052 0.306295 0.500000
O O15 0.333975 0.000000 0.750000
O O16 0.328664 0.959131 0.000000
#
# Coordination Sequence:
#
# PCOD8320140 Si02
#       6
#    32  16  32  16  32  32
#     4  10  19  32  51  74 101 132 167 206 249 297
#     4   9  18  32  50  70  92 120 151 188 239 296
#     4  10  20  33  49  69  95 128 165 204 246 291
#     4  11  20  30  45  63  85 115 154 194 233 280
#     4  10  20  32  44  60  86 121 159 197 236 278
#     4   9  18  33  52  73  97 125 158 197 243 295
#
# _framework density 17.548499
#
# number of rings (size 3 to 8) (size 9 to 14) (size 15 to 20)
#    0.000    2.200    0.000    3.600    0.000    4.800 
#    0.000    2.500    0.000    0.300    0.000    2.100 
#    0.000    0.400    0.000    4.000    0.000    2.400 
#
# Total GULP energy -991061.663887 kJ/mol
# GULP energy per Si atom -12388.270799 kJ/mol
# Density = 1.750856 g / cm^3
# Si number density = 17.548499 Si / 1000 Ang^3
#
#
#
# Elastic Constant Matrix: (Units=GPa)
#
#
# Indices 1 2 3 4 5 6 
#
# 1 94.8100 48.4455 40.2455 0.0000 0.0000 0.0000
# 2 48.4455 94.8094 40.2453 0.0000 0.0000 0.0000
# 3 40.2455 40.2453 112.5162 0.0000 0.0000 0.0000
# 4 0.0000 0.0000 0.0000 29.7212 0.0000 0.0000
# 5 0.0000 0.0000 0.0000 0.0000 29.7205 0.0000
# 6 0.0000 0.0000 0.0000 0.0000 0.0000 31.7864
#
#
#
# Elastic Compliance Matrix: (Units=1/GPa)
#
#
# Indices 1 2 3 4 5 6 
#
# 1 0.015152 -0.006416 -0.003125 0.000000 0.000000 0.000000
# 2 -0.006416 0.015152 -0.003125 0.000000 0.000000 0.000000
# 3 -0.003125 -0.003125 0.011123 0.000000 0.000000 0.000000
# 4 0.000000 0.000000 0.000000 0.033646 0.000000 0.000000
# 5 0.000000 0.000000 0.000000 0.000000 0.033647 0.000000
# 6 0.000000 0.000000 0.000000 0.000000 0.000000 0.031460
#
#
# Mechanical properties :
#
#
# Convention : Reuss Voigt Hill
#
# Bulk Modulus (GPa) = 62.12628 62.22316 62.17472
# Shear Modulus (GPa) = 29.26074 29.79224 29.52649
#
# Velocity S-wave (km/s) = 4.08784 4.12480 4.10636
# Velocity P-wave (km/s) = 7.60000 7.63021 7.61512
#
# Compressibility (1/GPa) = 0.01609625
#
# Stress axis : x y z
#
# Youngs Moduli (GPa) = 65.99653 65.99621 89.90348
#
# Poissons Ratio (x) = 0.42343 0.28094
# Poissons Ratio (y) = 0.42344 0.28093
# Poissons Ratio (z) = 0.20623 0.20623
#
# Static dielectric constant tensor:
#      x y z
#    x 3.232610 0.000000 0.000000 
#    y 0.000000 3.232620 0.000000 
#    z 0.000000 0.000000 3.592410 
# 
# 
# High freq. dielectric constant tensor:
#      x y z
#    x 1.658210 0.000000 0.000000 
#    y 0.000000 1.658210 0.000000 
#    z 0.000000 0.000000 1.685060 
# 
# From -- ./inp_files/1793.got.cif
#   From: 2010.06.25/outbox.cif.g09.slc.cpg/sg140_1_cif.got.tgz:1793.got - 2010.06.28 10:53:23.
