data_PCOD8320625
_publ_section_title
;
Structure prediction by ZEFSAII (Michael W. Deem and Ramdas Pophale) SiO2 
 PCOD8320625
Probable space group: I 41/A M D
;
_chemical_formula_sum "Si O2"
_cell_formula_units_Z 192
_cell_length_a 17.325275
_cell_length_b 17.325275
_cell_length_c 34.859214
_cell_angle_alpha 90.000000
_cell_angle_beta 90.000000
_cell_angle_gamma 90.000000
_cell_volume 10463.521333
_symmetry_space_group_name_H-M "I 41/A M D"
_symmetry_group_IT_number 141
_space_group.IT_coordinate_system_code '2'
_symmetry_cell_setting 'tetragonal'
loop_
_space_group_symop_operation_xyz
x,y,z
1/4-y,3/4+x,1/4+z
-x,1/2-y,z
1/4+y,1/4-x,3/4+z
x,-y,-z
-x,1/2+y,-z
1/4+y,3/4+x,1/4-z
1/4-y,1/4-x,3/4-z
-x,-y,-z
3/4+y,1/4-x,3/4-z
x,1/2+y,-z
3/4-y,3/4+x,1/4-z
-x,y,z
x,1/2-y,z
3/4-y,1/4-x,3/4+z
3/4+y,3/4+x,1/4+z
1/2+x,1/2+y,1/2+z
3/4-y,1/4+x,3/4+z
1/2-x,-y,1/2+z
3/4+y,3/4-x,1/4+z
1/2+x,1/2-y,1/2-z
1/2-x,y,1/2-z
3/4+y,1/4+x,3/4-z
3/4-y,3/4-x,1/4-z
1/2-x,1/2-y,1/2-z
1/4+y,3/4-x,1/4-z
1/2+x,y,1/2-z
1/4-y,1/4+x,3/4-z
1/2-x,1/2+y,1/2+z
1/2+x,-y,1/2+z
1/4-y,3/4-x,1/4+z
1/4+y,1/4+x,3/4+z
loop_
_atom_site_type_symbol
_atom_site_label
_atom_site_fract_x
_atom_site_fract_y
_atom_site_fract_z
Si Si1 0.660438 0.045478 0.583148
Si Si2 0.414572 0.589255 0.271248
Si Si3 0.316942 0.663267 0.982592
Si Si4 0.000000 0.490455 0.047415
Si Si5 0.189710 0.838397 0.784503
Si Si6 0.795762 0.561517 0.667641
Si Si7 0.000000 0.162297 0.018430
O O1 0.665426 0.084575 0.625000
O O2 0.690147 0.110165 0.554560
O O3 0.574464 0.022344 0.569849
O O4 0.720411 0.974939 0.579123
O O5 0.500000 0.591113 0.288482
O O6 0.407247 0.525516 0.238050
O O7 0.393200 0.674696 0.256865
O O8 0.343183 0.750000 0.974620
O O9 0.365333 0.635234 0.019711
O O10 0.336349 0.614757 0.945122
O O11 0.000000 0.397373 0.053868
O O12 0.000000 0.500000 0.000000
O O13 0.169169 0.750000 0.795784
O O14 0.250000 0.840507 0.750000
O O15 0.223030 0.883490 0.821743
O O16 0.826615 0.576615 0.625000
O O17 0.000000 0.250000 0.033918
#
# Coordination Sequence:
#
# PCOD8320625 Si02
#       7
#    32  32  32  16  32  32  16
#     4  11  23  36  54  84 117 157 198 252 301 357
#     4  10  19  33  54  78 113 149 192 243 294 346
#     4  10  20  34  57  83 108 146 188 241 290 349
#     4  12  22  36  62  88 114 168 214 246 308 382
#     4   9  18  34  57  81 108 144 185 231 285 350
#     4  10  21  36  56  82 115 150 190 242 297 356
#     4  10  20  34  56  88 116 150 208 260 296 356
#
# _framework density 18.349461999999999
#
# number of rings (size 3 to 8) (size 9 to 14) (size 15 to 20)
#    0.000    1.833    3.333    1.000    1.167    1.000 
#    0.000    0.000    0.000    1.000    0.000    2.333 
#    0.000    0.000    0.000    0.000    0.000    0.000 
#
# Total GULP energy -1189711.836732 kJ/mol
# GULP energy per Si atom -12392.831633 kJ/mol
# Density = 1.830770 g / cm^3
# Si number density = 18.349462 Si / 1000 Ang^3
#
#
#
# Elastic Constant Matrix: (Units=GPa)
#
#
# Indices 1 2 3 4 5 6 
#
# 1 109.4515 29.4629 44.3069 0.0000 0.0000 0.0000
# 2 29.4629 109.4514 44.3068 0.0000 0.0000 0.0000
# 3 44.3069 44.3068 102.1014 0.0000 0.0000 0.0000
# 4 0.0000 0.0000 0.0000 22.6708 0.0000 0.0000
# 5 0.0000 0.0000 0.0000 0.0000 22.6706 0.0000
# 6 0.0000 0.0000 0.0000 0.0000 0.0000 22.3400
#
#
#
# Elastic Compliance Matrix: (Units=1/GPa)
#
#
# Indices 1 2 3 4 5 6 
#
# 1 0.011228 -0.001274 -0.004320 0.000000 0.000000 0.000000
# 2 -0.001274 0.011228 -0.004320 0.000000 0.000000 0.000000
# 3 -0.004320 -0.004320 0.013543 0.000000 0.000000 0.000000
# 4 0.000000 0.000000 0.000000 0.044110 0.000000 0.000000
# 5 0.000000 0.000000 0.000000 0.000000 0.044110 0.000000
# 6 0.000000 0.000000 0.000000 0.000000 0.000000 0.044763
#
#
# Mechanical properties :
#
#
# Convention : Reuss Voigt Hill
#
# Bulk Modulus (GPa) = 61.83115 61.90638 61.86876
# Shear Modulus (GPa) = 25.74684 27.06479 26.40581
#
# Velocity S-wave (km/s) = 3.74991 3.84469 3.79760
# Velocity P-wave (km/s) = 7.24698 7.31571 7.28142
#
# Compressibility (1/GPa) = 0.01617308
#
# Stress axis : x y z
#
# Youngs Moduli (GPa) = 89.06330 89.06328 73.83797
#
# Poissons Ratio (x) = 0.11345 0.31895
# Poissons Ratio (y) = 0.11345 0.31895
# Poissons Ratio (z) = 0.38472 0.38472
#
# Static dielectric constant tensor:
#      x y z
#    x 3.497580 0.000000 0.000000 
#    y 0.000000 3.497590 0.000000 
#    z 0.000000 0.000000 3.190810 
# 
# 
# High freq. dielectric constant tensor:
#      x y z
#    x 1.716760 0.000000 0.000000 
#    y 0.000000 1.716760 0.000000 
#    z 0.000000 0.000000 1.683950 
# 
# From -- ./inp_files/14451.got.cif
#   From: 2010.03.12/outbox.cif.g09.slc.cpg/sg141_8_cif.got.tgz:14451.got - 2010.04.03 13:18:35.
