data_PCOD8320090
_publ_section_title
;
Structure prediction by ZEFSAII (Michael W. Deem and Ramdas Pophale) SiO2 
 PCOD8320090
Probable space group: I 4/M C M
;
_chemical_formula_sum "Si O2"
_cell_formula_units_Z 176
_cell_length_a 18.323765
_cell_length_b 18.323765
_cell_length_c 27.593343
_cell_angle_alpha 90.000000
_cell_angle_beta 90.000000
_cell_angle_gamma 90.000000
_cell_volume 9264.750883
_symmetry_space_group_name_H-M "I 4/M C M"
_symmetry_group_IT_number 140
_symmetry_cell_setting 'tetragonal'
loop_
_space_group_symop_operation_xyz
x,y,z
-y,x,z
-x,-y,z
y,-x,z
x,-y,1/2-z
-x,y,1/2-z
y,x,1/2-z
-y,-x,1/2-z
-x,-y,-z
y,-x,-z
x,y,-z
-y,x,-z
-x,y,1/2+z
x,-y,1/2+z
-y,-x,1/2+z
y,x,1/2+z
1/2+x,1/2+y,1/2+z
1/2-y,1/2+x,1/2+z
1/2-x,1/2-y,1/2+z
1/2+y,1/2-x,1/2+z
1/2+x,1/2-y,-z
1/2-x,1/2+y,-z
1/2+y,1/2+x,-z
1/2-y,1/2-x,-z
1/2-x,1/2-y,1/2-z
1/2+y,1/2-x,1/2-z
1/2+x,1/2+y,1/2-z
1/2-y,1/2+x,1/2-z
1/2-x,1/2+y,z
1/2+x,1/2-y,z
1/2-y,1/2-x,z
1/2+y,1/2+x,z
loop_
_atom_site_type_symbol
_atom_site_label
_atom_site_fract_x
_atom_site_fract_y
_atom_site_fract_z
Si Si1 0.621854 0.000000 0.750000
Si Si2 0.339827 0.954364 0.649138
Si Si3 0.556088 0.056088 0.090051
Si Si4 0.191817 0.960968 0.398248
Si Si5 0.823398 0.111556 0.943438
Si Si6 0.498552 0.380217 0.802458
Si Si7 0.830760 0.669241 0.055119
O O1 0.570592 0.070592 0.758587
O O2 0.675014 0.013781 0.703380
O O3 0.375030 0.875030 0.655178
O O4 0.275541 0.941187 0.610246
O O5 0.394110 0.010334 0.625107
O O6 0.606827 0.106827 0.056428
O O7 0.500000 0.000000 0.061599
O O8 0.146131 0.889896 0.413222
O O9 0.175266 0.996165 0.346149
O O10 0.177752 0.023810 0.437960
O O11 0.746545 0.142913 0.922098
O O12 0.834185 0.129960 0.000000
O O13 0.570591 0.427451 0.807215
O O14 0.500000 0.340253 0.750000
O O15 0.814090 0.685911 0.000000
#
# Coordination Sequence:
#
# PCOD8320090 Si02
#       7
#    16  32  16  32  32  32  16
#     4   9  16  32  56  84 120 159 198 240 294 353
#     4  10  21  34  56  88 121 156 197 244 292 353
#     4  10  18  37  62  89 115 149 198 246 293 355
#     4  12  22  38  61  86 117 155 200 246 297 347
#     4  11  25  42  62  84 115 154 201 251 304 358
#     4   9  18  34  54  80 112 147 189 234 280 335
#     4  10  22  43  62  83 117 156 191 243 320 372
#
# _framework density 18.996732000000002
#
# number of rings (size 3 to 8) (size 9 to 14) (size 15 to 20)
#    0.000    1.727    4.545    1.091    2.545    0.545 
#    0.000    0.909    0.000    0.000    0.000    6.364 
#    0.000    0.000    0.000    0.000    0.000    0.000 
#
# Total GULP energy -1090218.665914 kJ/mol
# GULP energy per Si atom -12388.848476 kJ/mol
# Density = 1.895349 g / cm^3
# Si number density = 18.996732 Si / 1000 Ang^3
#
#
#
# Elastic Constant Matrix: (Units=GPa)
#
#
# Indices 1 2 3 4 5 6 
#
# 1 -1428.3666 1566.6641 24.8097 0.0000 0.0000 0.0000
# 2 1566.6641-1428.3637 24.8315 0.0000 0.0000 0.0000
# 3 24.8097 24.8315 75.9352 0.0000 0.0000 0.0000
# 4 0.0000 0.0000 0.0000 22.5879 0.0000 0.0000
# 5 0.0000 0.0000 0.0000 0.0000 22.5879 0.0000
# 6 0.0000 0.0000 0.0000 0.0000 0.0000 19.9370
#
#
#
# Elastic Compliance Matrix: (Units=1/GPa)
#
#
# Indices 1 2 3 4 5 6 
#
# 1 0.003929 0.004263 -0.002678 0.000000 0.000000 0.000000
# 2 0.004263 0.003929 -0.002678 0.000000 0.000000 0.000000
# 3 -0.002678 -0.002678 0.014920 0.000000 0.000000 0.000000
# 4 0.000000 0.000000 0.000000 0.044272 0.000000 0.000000
# 5 0.000000 0.000000 0.000000 0.000000 0.044272 0.000000
# 6 0.000000 0.000000 0.000000 0.000000 0.000000 0.050158
#
#
# Mechanical properties :
#
#
# Convention : Reuss Voigt Hill
#
# Bulk Modulus (GPa) = 48.56085 50.20171 49.38128
# Shear Modulus (GPa) = 29.32074 -280.11748 -125.39837
#
# Velocity S-wave (km/s) = 3.93295 -12.15630 -8.13350
# Velocity P-wave (km/s) = 6.80018 13.05950 7.88378
#
# Compressibility (1/GPa) = 0.02059272
#
# Stress axis : x y z
#
# Youngs Moduli (GPa) = 254.51880 254.52081 67.02611
#
# Poissons Ratio (x) = -1.08499 0.17947
# Poissons Ratio (y) = -1.08498 0.17947
# Poissons Ratio (z) = 0.68152 0.68150
#
# Static dielectric constant tensor:
#      x y z
#    x 3.574990 0.000000 0.000000 
#    y 0.000000 3.574990 0.000000 
#    z 0.000000 0.000000 3.556010 
# 
# 
# High freq. dielectric constant tensor:
#      x y z
#    x 1.731980 0.000000 0.000000 
#    y 0.000000 1.731980 0.000000 
#    z 0.000000 0.000000 1.737840 
# 
# From -- ./inp_files/11592.got.cif
#   From: 2010.06.25/outbox.cif.g09.slc.cpg/sg140_6_cif.got.tgz:11592.got - 2010.06.28 10:53:23.
