data_PCOD8320143
_publ_section_title
;
Structure prediction by ZEFSAII (Michael W. Deem and Ramdas Pophale) SiO2 
 PCOD8320143
Probable space group: I 4/M C M
;
_chemical_formula_sum "Si O2"
_cell_formula_units_Z 160
_cell_length_a 31.284877
_cell_length_b 31.284877
_cell_length_c 9.102422
_cell_angle_alpha 90.000000
_cell_angle_beta 90.000000
_cell_angle_gamma 90.000000
_cell_volume 8908.936630
_symmetry_space_group_name_H-M "I 4/M C M"
_symmetry_group_IT_number 140
_symmetry_cell_setting 'tetragonal'
loop_
_space_group_symop_operation_xyz
x,y,z
-y,x,z
-x,-y,z
y,-x,z
x,-y,1/2-z
-x,y,1/2-z
y,x,1/2-z
-y,-x,1/2-z
-x,-y,-z
y,-x,-z
x,y,-z
-y,x,-z
-x,y,1/2+z
x,-y,1/2+z
-y,-x,1/2+z
y,x,1/2+z
1/2+x,1/2+y,1/2+z
1/2-y,1/2+x,1/2+z
1/2-x,1/2-y,1/2+z
1/2+y,1/2-x,1/2+z
1/2+x,1/2-y,-z
1/2-x,1/2+y,-z
1/2+y,1/2+x,-z
1/2-y,1/2-x,-z
1/2-x,1/2-y,1/2-z
1/2+y,1/2-x,1/2-z
1/2+x,1/2+y,1/2-z
1/2-y,1/2+x,1/2-z
1/2-x,1/2+y,z
1/2+x,1/2-y,z
1/2-y,1/2-x,z
1/2+y,1/2+x,z
loop_
_atom_site_type_symbol
_atom_site_label
_atom_site_fract_x
_atom_site_fract_y
_atom_site_fract_z
Si Si1 0.175078 0.235242 0.831628
Si Si2 0.444634 0.543488 0.500000
Si Si3 0.307507 0.125199 0.170238
Si Si4 0.094747 0.905254 0.750000
Si Si5 0.589315 0.314162 0.833890
Si Si6 0.454950 0.772709 0.175581
O O1 0.216648 0.216648 0.750000
O O2 0.160010 0.276752 0.744044
O O3 0.137961 0.200454 0.828939
O O4 0.186442 0.247453 0.000000
O O5 0.440920 0.492936 0.500000
O O6 0.418238 0.562089 0.370598
O O7 0.355674 0.144326 0.180871
O O8 0.304974 0.080267 0.257162
O O9 0.294358 0.118139 0.000000
O O10 0.085765 0.854632 0.776546
O O11 0.558033 0.275947 0.783063
O O12 0.577931 0.328551 0.000000
O O13 0.500000 0.783558 0.250000
O O14 0.456734 0.779029 0.000000
#
# Coordination Sequence:
#
# PCOD8320143 Si02
#       6
#    32  16  32  16  32  32
#     4  10  19  32  52  74 107 141 178 224 276 328
#     4  11  26  42  54  68  90 120 157 210 276 338
#     4  10  21  37  56  80 110 149 193 231 274 328
#     4  12  20  39  60  74  95 122 166 218 272 340
#     4   9  19  35  52  79 104 131 167 215 270 330
#     4  10  21  38  58  84 118 148 183 228 278 333
#
# _framework density 17.959493999999999
#
# number of rings (size 3 to 8) (size 9 to 14) (size 15 to 20)
#    0.000    1.900    2.000    3.600    0.000    4.400 
#    9.000    0.000    0.000    0.000    0.000    0.000 
#    0.000    0.400    0.000    4.200    0.000    1.800 
#
# Total GULP energy -991381.146942 kJ/mol
# GULP energy per Si atom -12392.264337 kJ/mol
# Density = 1.791862 g / cm^3
# Si number density = 17.959494 Si / 1000 Ang^3
#
#
#
# Elastic Constant Matrix: (Units=GPa)
#
#
# Indices 1 2 3 4 5 6 
#
# 1 79.0633 62.8363 33.7396 0.0000 0.0000 0.0000
# 2 62.8363 79.0616 33.7389 0.0000 0.0000 0.0000
# 3 33.7396 33.7389 95.8534 0.0000 0.0000 0.0000
# 4 0.0000 0.0000 0.0000 30.9082 0.0000 0.0000
# 5 0.0000 0.0000 0.0000 0.0000 30.9024 0.0000
# 6 0.0000 0.0000 0.0000 0.0000 0.0000 16.6758
#
#
#
# Elastic Compliance Matrix: (Units=1/GPa)
#
#
# Indices 1 2 3 4 5 6 
#
# 1 0.035046 -0.026582 -0.002979 0.000000 0.000000 0.000000
# 2 -0.026582 0.035047 -0.002979 0.000000 0.000000 0.000000
# 3 -0.002979 -0.002979 0.012530 0.000000 0.000000 0.000000
# 4 0.000000 0.000000 0.000000 0.032354 0.000000 0.000000
# 5 0.000000 0.000000 0.000000 0.000000 0.032360 0.000000
# 6 0.000000 0.000000 0.000000 0.000000 0.000000 0.059967
#
#
# Mechanical properties :
#
#
# Convention : Reuss Voigt Hill
#
# Bulk Modulus (GPa) = 57.00925 57.17866 57.09396
# Shear Modulus (GPa) = 17.97059 23.94152 20.95605
#
# Velocity S-wave (km/s) = 3.16669 3.65510 3.41963
# Velocity P-wave (km/s) = 6.72181 7.05122 6.88848
#
# Compressibility (1/GPa) = 0.01754101
#
# Stress axis : x y z
#
# Youngs Moduli (GPa) = 28.53381 28.53333 79.80909
#
# Poissons Ratio (x) = 0.75848 0.23778
# Poissons Ratio (y) = 0.75850 0.23776
# Poissons Ratio (z) = 0.08501 0.08500
#
# Static dielectric constant tensor:
#      x y z
#    x 3.256840 0.000000 0.000000 
#    y 0.000000 3.256860 0.000000 
#    z 0.000000 0.000000 3.394060 
# 
# 
# High freq. dielectric constant tensor:
#      x y z
#    x 1.681010 0.000000 0.000000 
#    y 0.000000 1.681020 0.000000 
#    z 0.000000 0.000000 1.703710 
# 
# From -- ./inp_files/1806.got.cif
#   From: 2010.06.25/outbox.cif.g09.slc.cpg/sg140_1_cif.got.tgz:1806.got - 2010.06.28 10:53:23.
