data_PCOD8320773
_publ_section_title
;
Structure prediction by ZEFSAII (Michael W. Deem and Ramdas Pophale) SiO2 
 PCOD8320773
Probable space group: I 41/A M D
;
_chemical_formula_sum "Si O2"
_cell_formula_units_Z 80
_cell_length_a 19.056589
_cell_length_b 19.056589
_cell_length_c 12.270085
_cell_angle_alpha 90.000000
_cell_angle_beta 90.000000
_cell_angle_gamma 90.000000
_cell_volume 4455.925348
_symmetry_space_group_name_H-M "I 41/A M D"
_symmetry_group_IT_number 141
_space_group.IT_coordinate_system_code '2'
_symmetry_cell_setting 'tetragonal'
loop_
_space_group_symop_operation_xyz
x,y,z
1/4-y,3/4+x,1/4+z
-x,1/2-y,z
1/4+y,1/4-x,3/4+z
x,-y,-z
-x,1/2+y,-z
1/4+y,3/4+x,1/4-z
1/4-y,1/4-x,3/4-z
-x,-y,-z
3/4+y,1/4-x,3/4-z
x,1/2+y,-z
3/4-y,3/4+x,1/4-z
-x,y,z
x,1/2-y,z
3/4-y,1/4-x,3/4+z
3/4+y,3/4+x,1/4+z
1/2+x,1/2+y,1/2+z
3/4-y,1/4+x,3/4+z
1/2-x,-y,1/2+z
3/4+y,3/4-x,1/4+z
1/2+x,1/2-y,1/2-z
1/2-x,y,1/2-z
3/4+y,1/4+x,3/4-z
3/4-y,3/4-x,1/4-z
1/2-x,1/2-y,1/2-z
1/4+y,3/4-x,1/4-z
1/2+x,y,1/2-z
1/4-y,1/4+x,3/4-z
1/2-x,1/2+y,1/2+z
1/2+x,-y,1/2+z
1/4-y,3/4-x,1/4+z
1/4+y,1/4+x,3/4+z
loop_
_atom_site_type_symbol
_atom_site_label
_atom_site_fract_x
_atom_site_fract_y
_atom_site_fract_z
Si Si1 0.579099 0.829099 0.375000
Si Si2 0.171782 0.565014 0.745224
Si Si3 0.688571 0.667454 0.555137
O O1 0.593210 0.750000 0.338654
O O2 0.622598 0.848939 0.480711
O O3 0.250000 0.530912 0.750000
O O4 0.154701 0.595300 0.625000
O O5 0.113852 0.504627 0.762645
O O6 0.171139 0.628359 0.831622
O O7 0.700350 0.750000 0.578033
#
# Coordination Sequence:
#
# PCOD8320773 Si02
#       3
#    16  32  32
#     4   9  20  36  52  76 110 144 180 226 273 318
#     4   9  20  35  54  80 110 144 177 233 279 322
#     4  10  21  36  57  81 110 149 188 228 279 337
#
# _framework density 17.953623
#
# number of rings (size 3 to 8) (size 9 to 14) (size 15 to 20)
#    0.000    2.600    0.000    0.000    8.400    8.800 
#    0.000    4.000    0.000    0.000    0.000    8.400 
#    0.000    0.000    0.000    0.000    0.000    0.000 
#
# Total GULP energy -495661.366807 kJ/mol
# GULP energy per Si atom -12391.534170 kJ/mol
# Density = 1.791276 g / cm^3
# Si number density = 17.953623 Si / 1000 Ang^3
#
#
#
# Elastic Constant Matrix: (Units=GPa)
#
#
# Indices 1 2 3 4 5 6 
#
# 1 167.8899 21.8191 71.7554 0.0000 0.0000 0.0000
# 2 21.8191 167.8875 71.7547 0.0000 0.0000 0.0000
# 3 71.7554 71.7547 110.9027 0.0000 0.0000 0.0000
# 4 0.0000 0.0000 0.0000 28.2457 0.0000 0.0000
# 5 0.0000 0.0000 0.0000 0.0000 28.2456 0.0000
# 6 0.0000 0.0000 0.0000 0.0000 0.0000 29.7546
#
#
#
# Elastic Compliance Matrix: (Units=1/GPa)
#
#
# Indices 1 2 3 4 5 6 
#
# 1 0.008585 0.001739 -0.006680 0.000000 0.000000 0.000000
# 2 0.001739 0.008585 -0.006680 0.000000 0.000000 0.000000
# 3 -0.006680 -0.006680 0.017661 0.000000 0.000000 0.000000
# 4 0.000000 0.000000 0.000000 0.035404 0.000000 0.000000
# 5 0.000000 0.000000 0.000000 0.000000 0.035404 0.000000
# 6 0.000000 0.000000 0.000000 0.000000 0.000000 0.033608
#
#
# Mechanical properties :
#
#
# Convention : Reuss Voigt Hill
#
# Bulk Modulus (GPa) = 86.28223 86.37095 86.32659
# Shear Modulus (GPa) = 30.05661 36.00590 33.03125
#
# Velocity S-wave (km/s) = 4.09605 4.48313 4.29395
# Velocity P-wave (km/s) = 8.39838 8.66084 8.53062
#
# Compressibility (1/GPa) = 0.01158987
#
# Stress axis : x y z
#
# Youngs Moduli (GPa) = 116.47801 116.47667 56.62143
#
# Poissons Ratio (x) = -0.20259 0.37824
# Poissons Ratio (y) = -0.20259 0.37824
# Poissons Ratio (z) = 0.77809 0.77808
#
# Static dielectric constant tensor:
#      x y z
#    x 3.386470 0.000000 0.000000 
#    y 0.000000 3.386460 0.000000 
#    z 0.000000 0.000000 3.455290 
# 
# 
# High freq. dielectric constant tensor:
#      x y z
#    x 1.691660 0.000000 0.000000 
#    y 0.000000 1.691660 0.000000 
#    z 0.000000 0.000000 1.702640 
# 
# From -- ./inp_files/4041.got.cif
#   From: 2010.03.12/outbox.cif.g09.slc.cpg/sg141_3_cif.got.tgz:4041.got - 2010.04.03 13:18:35.
