data_PCOD8320838
_publ_section_title
;
Structure prediction by ZEFSAII (Michael W. Deem and Ramdas Pophale) SiO2 
 PCOD8320838
Probable space group: I 41/A M D
;
_chemical_formula_sum "Si O2"
_cell_formula_units_Z 96
_cell_length_a 17.625725
_cell_length_b 17.625725
_cell_length_c 16.958757
_cell_angle_alpha 90.000000
_cell_angle_beta 90.000000
_cell_angle_gamma 90.000000
_cell_volume 5268.512285
_symmetry_space_group_name_H-M "I 41/A M D"
_symmetry_group_IT_number 141
_space_group.IT_coordinate_system_code '2'
_symmetry_cell_setting 'tetragonal'
loop_
_space_group_symop_operation_xyz
x,y,z
1/4-y,3/4+x,1/4+z
-x,1/2-y,z
1/4+y,1/4-x,3/4+z
x,-y,-z
-x,1/2+y,-z
1/4+y,3/4+x,1/4-z
1/4-y,1/4-x,3/4-z
-x,-y,-z
3/4+y,1/4-x,3/4-z
x,1/2+y,-z
3/4-y,3/4+x,1/4-z
-x,y,z
x,1/2-y,z
3/4-y,1/4-x,3/4+z
3/4+y,3/4+x,1/4+z
1/2+x,1/2+y,1/2+z
3/4-y,1/4+x,3/4+z
1/2-x,-y,1/2+z
3/4+y,3/4-x,1/4+z
1/2+x,1/2-y,1/2-z
1/2-x,y,1/2-z
3/4+y,1/4+x,3/4-z
3/4-y,3/4-x,1/4-z
1/2-x,1/2-y,1/2-z
1/4+y,3/4-x,1/4-z
1/2+x,y,1/2-z
1/4-y,1/4+x,3/4-z
1/2-x,1/2+y,1/2+z
1/2+x,-y,1/2+z
1/4-y,3/4-x,1/4+z
1/4+y,1/4+x,3/4+z
loop_
_atom_site_type_symbol
_atom_site_label
_atom_site_fract_x
_atom_site_fract_y
_atom_site_fract_z
Si Si1 0.284333 0.750000 0.081444
Si Si2 0.250000 0.491601 0.750000
Si Si3 0.341076 0.089170 0.875695
Si Si4 0.000000 0.061207 0.684813
Si Si5 0.000000 0.366702 0.844017
O O1 0.333198 0.821887 0.107843
O O2 0.202894 0.750000 0.126913
O O3 0.267358 0.750000 0.986447
O O4 0.309049 0.435031 0.790858
O O5 0.206137 0.546332 0.808369
O O6 0.429129 0.066377 0.874358
O O7 0.000000 0.131312 0.748033
O O8 0.924814 0.325187 0.875000
#
# Coordination Sequence:
#
# PCOD8320838 Si02
#       5
#    16  16  32  16  16
#     4  10  23  36  59  90 127 162 196 262 311 372
#     4  10  22  38  64  90 114 168 212 258 300 384
#     4  11  22  40  62  89 126 158 213 255 318 370
#     4  10  23  39  57  91 124 157 207 252 309 375
#     4   9  20  36  53  82 132 161 201 245 304 371
#
# _framework density 18.221461000000001
#
# number of rings (size 3 to 8) (size 9 to 14) (size 15 to 20)
#    1.000    0.833    3.333    0.000    9.333    4.667 
#    0.000    0.000    0.000    0.000    0.000    0.000 
#    0.000    0.000    0.000    0.000    0.000    0.000 
#
# Total GULP energy -595016.948279 kJ/mol
# GULP energy per Si atom -12396.186422 kJ/mol
# Density = 1.817999 g / cm^3
# Si number density = 18.221461 Si / 1000 Ang^3
#
#
#
# Elastic Constant Matrix: (Units=GPa)
#
#
# Indices 1 2 3 4 5 6 
#
# 1 120.6480 27.1850 30.1106 0.0000 0.0000 0.0000
# 2 27.1850 120.6474 30.1105 0.0000 0.0000 0.0000
# 3 30.1106 30.1105 57.1834 0.0000 0.0000 0.0000
# 4 0.0000 0.0000 0.0000 23.0855 0.0000 0.0000
# 5 0.0000 0.0000 0.0000 0.0000 23.0855 0.0000
# 6 0.0000 0.0000 0.0000 0.0000 0.0000 26.6548
#
#
#
# Elastic Compliance Matrix: (Units=1/GPa)
#
#
# Indices 1 2 3 4 5 6 
#
# 1 0.009655 -0.001044 -0.004535 0.000000 0.000000 0.000000
# 2 -0.001044 0.009656 -0.004535 0.000000 0.000000 0.000000
# 3 -0.004535 -0.004535 0.022263 0.000000 0.000000 0.000000
# 4 0.000000 0.000000 0.000000 0.043317 0.000000 0.000000
# 5 0.000000 0.000000 0.000000 0.000000 0.043317 0.000000
# 6 0.000000 0.000000 0.000000 0.000000 0.000000 0.037517
#
#
# Mechanical properties :
#
#
# Convention : Reuss Voigt Hill
#
# Bulk Modulus (GPa) = 46.84264 52.58790 49.71527
# Shear Modulus (GPa) = 25.89771 28.63668 27.26720
#
# Velocity S-wave (km/s) = 3.77407 3.96863 3.87257
# Velocity P-wave (km/s) = 6.68989 7.06563 6.88033
#
# Compressibility (1/GPa) = 0.02134807
#
# Stress axis : x y z
#
# Youngs Moduli (GPa) = 103.56794 103.56743 44.91752
#
# Poissons Ratio (x) = 0.10812 0.20368
# Poissons Ratio (y) = 0.10812 0.20368
# Poissons Ratio (z) = 0.46963 0.46963
#
# Static dielectric constant tensor:
#      x y z
#    x 3.301220 0.000000 0.000000 
#    y 0.000000 3.301220 0.000000 
#    z 0.000000 0.000000 3.248290 
# 
# 
# High freq. dielectric constant tensor:
#      x y z
#    x 1.704890 0.000000 0.000000 
#    y 0.000000 1.704890 0.000000 
#    z 0.000000 0.000000 1.691710 
# 
# From -- ./inp_files/7765.got.cif
#   From: 2010.03.12/outbox.cif.g09.slc.cpg/sg141_4_cif.got.tgz:7765.got - 2010.04.03 13:18:35.
