data_PCOD8320927
_publ_section_title
;
Structure prediction by ZEFSAII (Michael W. Deem and Ramdas Pophale) SiO2 
 PCOD8320927
Probable space group: I 41/A M D
;
_chemical_formula_sum "Si O2"
_cell_formula_units_Z 192
_cell_length_a 17.308122
_cell_length_b 17.308122
_cell_length_c 32.856893
_cell_angle_alpha 90.000000
_cell_angle_beta 90.000000
_cell_angle_gamma 90.000000
_cell_volume 9842.975157
_symmetry_space_group_name_H-M "I 41/A M D"
_symmetry_group_IT_number 141
_space_group.IT_coordinate_system_code '2'
_symmetry_cell_setting 'tetragonal'
loop_
_space_group_symop_operation_xyz
x,y,z
1/4-y,3/4+x,1/4+z
-x,1/2-y,z
1/4+y,1/4-x,3/4+z
x,-y,-z
-x,1/2+y,-z
1/4+y,3/4+x,1/4-z
1/4-y,1/4-x,3/4-z
-x,-y,-z
3/4+y,1/4-x,3/4-z
x,1/2+y,-z
3/4-y,3/4+x,1/4-z
-x,y,z
x,1/2-y,z
3/4-y,1/4-x,3/4+z
3/4+y,3/4+x,1/4+z
1/2+x,1/2+y,1/2+z
3/4-y,1/4+x,3/4+z
1/2-x,-y,1/2+z
3/4+y,3/4-x,1/4+z
1/2+x,1/2-y,1/2-z
1/2-x,y,1/2-z
3/4+y,1/4+x,3/4-z
3/4-y,3/4-x,1/4-z
1/2-x,1/2-y,1/2-z
1/4+y,3/4-x,1/4-z
1/2+x,y,1/2-z
1/4-y,1/4+x,3/4-z
1/2-x,1/2+y,1/2+z
1/2+x,-y,1/2+z
1/4-y,3/4-x,1/4+z
1/4+y,1/4+x,3/4+z
loop_
_atom_site_type_symbol
_atom_site_label
_atom_site_fract_x
_atom_site_fract_y
_atom_site_fract_z
Si Si1 0.411404 0.660220 0.992572
Si Si2 0.160700 0.102305 0.655304
Si Si3 0.682876 0.093968 0.079068
Si Si4 0.086609 0.750000 0.211474
Si Si5 0.684231 0.084895 0.935390
Si Si6 0.000000 0.834908 0.942880
Si Si7 0.855575 0.408725 0.919706
O O1 0.500000 0.630551 0.990844
O O2 0.408838 0.750000 0.002863
O O3 0.370924 0.646414 0.949143
O O4 0.365634 0.616267 0.027665
O O5 0.146439 0.112257 0.607097
O O6 0.125628 0.173076 0.678761
O O7 0.250370 0.101152 0.664952
O O8 0.124635 0.021344 0.671128
O O9 0.651059 0.098942 0.125000
O O10 0.682334 0.007291 0.062007
O O11 0.082746 0.750000 0.259246
O O12 0.132299 0.673305 0.199170
O O13 0.000000 0.750000 0.192871
O O14 0.772362 0.117814 0.937686
O O15 0.000000 0.750000 0.923863
O O16 0.874978 0.375022 0.875000
#
# Coordination Sequence:
#
# PCOD8320927 Si02
#       7
#    32  32  32  16  32  16  32
#     4  11  25  40  58  89 125 156 192 239 298 356
#     4   9  20  40  63  86 115 154 202 245 299 350
#     4   9  20  41  66  89 115 150 198 247 297 354
#     4  11  25  37  51  85 127 161 201 245 293 351
#     4   9  20  40  64  89 115 151 198 250 294 353
#     4  11  25  39  53  85 127 163 203 245 297 361
#     4   9  20  38  61  87 115 156 201 248 297 347
#
# _framework density 19.506297
#
# number of rings (size 3 to 8) (size 9 to 14) (size 15 to 20)
#    0.000    2.333    0.000    3.000    4.667    5.333 
#    0.000    4.167    0.000    0.000    0.000    0.000 
#    0.000    0.000    0.000    0.000    0.000    0.000 
#
# Total GULP energy -1190275.256999 kJ/mol
# GULP energy per Si atom -12398.700594 kJ/mol
# Density = 1.946190 g / cm^3
# Si number density = 19.506297 Si / 1000 Ang^3
#
#
#
# Elastic Constant Matrix: (Units=GPa)
#
#
# Indices 1 2 3 4 5 6 
#
# 1 68.4231 37.2632 51.0424 0.0000 0.0000 0.0000
# 2 37.2632 68.4215 51.0421 0.0000 0.0000 0.0000
# 3 51.0424 51.0421 108.4285 0.0000 0.0000 0.0000
# 4 0.0000 0.0000 0.0000 31.3398 0.0000 0.0000
# 5 0.0000 0.0000 0.0000 0.0000 31.3395 0.0000
# 6 0.0000 0.0000 0.0000 0.0000 0.0000 27.2159
#
#
#
# Elastic Compliance Matrix: (Units=1/GPa)
#
#
# Indices 1 2 3 4 5 6 
#
# 1 0.024722 -0.007371 -0.008168 0.000000 0.000000 0.000000
# 2 -0.007371 0.024723 -0.008169 0.000000 0.000000 0.000000
# 3 -0.008168 -0.008169 0.016913 0.000000 0.000000 0.000000
# 4 0.000000 0.000000 0.000000 0.031908 0.000000 0.000000
# 5 0.000000 0.000000 0.000000 0.000000 0.031909 0.000000
# 6 0.000000 0.000000 0.000000 0.000000 0.000000 0.036743
#
#
# Mechanical properties :
#
#
# Convention : Reuss Voigt Hill
#
# Bulk Modulus (GPa) = 52.78798 58.21873 55.50336
# Shear Modulus (GPa) = 22.66047 25.04074 23.85061
#
# Velocity S-wave (km/s) = 3.41207 3.58680 3.50053
# Velocity P-wave (km/s) = 6.53022 6.86035 6.69732
#
# Compressibility (1/GPa) = 0.01894370
#
# Stress axis : x y z
#
# Youngs Moduli (GPa) = 40.44909 40.44791 59.12538
#
# Poissons Ratio (x) = 0.29813 0.48296
# Poissons Ratio (y) = 0.29813 0.48297
# Poissons Ratio (z) = 0.33040 0.33040
#
# Static dielectric constant tensor:
#      x y z
#    x 3.154080 0.000000 0.000000 
#    y 0.000000 3.154320 0.000000 
#    z 0.000000 0.000000 3.685890 
# 
# 
# High freq. dielectric constant tensor:
#      x y z
#    x 1.758580 0.000000 0.000000 
#    y 0.000000 1.758580 0.000000 
#    z 0.000000 0.000000 1.766050 
# 
# From -- ./inp_files/14458.got.cif
#   From: 2010.03.12/outbox.cif.g09.slc.cpg/sg141_8_cif.got.tgz:14458.got - 2010.04.03 13:18:35.
