data_PCOD8320566
_publ_section_title
;
Structure prediction by ZEFSAII (Michael W. Deem and Ramdas Pophale) SiO2 
 PCOD8320566
Probable space group: I 41/A M D
;
_chemical_formula_sum "Si O2"
_cell_formula_units_Z 192
_cell_length_a 28.975899
_cell_length_b 28.975899
_cell_length_c 14.858072
_cell_angle_alpha 90.000000
_cell_angle_beta 90.000000
_cell_angle_gamma 90.000000
_cell_volume 12474.877708
_symmetry_space_group_name_H-M "I 41/A M D"
_symmetry_group_IT_number 141
_space_group.IT_coordinate_system_code '2'
_symmetry_cell_setting 'tetragonal'
loop_
_space_group_symop_operation_xyz
x,y,z
1/4-y,3/4+x,1/4+z
-x,1/2-y,z
1/4+y,1/4-x,3/4+z
x,-y,-z
-x,1/2+y,-z
1/4+y,3/4+x,1/4-z
1/4-y,1/4-x,3/4-z
-x,-y,-z
3/4+y,1/4-x,3/4-z
x,1/2+y,-z
3/4-y,3/4+x,1/4-z
-x,y,z
x,1/2-y,z
3/4-y,1/4-x,3/4+z
3/4+y,3/4+x,1/4+z
1/2+x,1/2+y,1/2+z
3/4-y,1/4+x,3/4+z
1/2-x,-y,1/2+z
3/4+y,3/4-x,1/4+z
1/2+x,1/2-y,1/2-z
1/2-x,y,1/2-z
3/4+y,1/4+x,3/4-z
3/4-y,3/4-x,1/4-z
1/2-x,1/2-y,1/2-z
1/4+y,3/4-x,1/4-z
1/2+x,y,1/2-z
1/4-y,1/4+x,3/4-z
1/2-x,1/2+y,1/2+z
1/2+x,-y,1/2+z
1/4-y,3/4-x,1/4+z
1/4+y,1/4+x,3/4+z
loop_
_atom_site_type_symbol
_atom_site_label
_atom_site_fract_x
_atom_site_fract_y
_atom_site_fract_z
Si Si1 0.876168 0.196085 0.125340
Si Si2 0.053978 0.056845 0.268869
Si Si3 0.868211 0.695853 0.354391
Si Si4 0.703728 0.304240 0.705089
Si Si5 0.553037 0.373207 0.083121
Si Si6 0.445098 0.955031 0.254196
O O1 0.886145 0.250000 0.106992
O O2 0.921478 0.167733 0.097818
O O3 0.865798 0.186318 0.229777
O O4 0.833049 0.177253 0.066772
O O5 0.074004 0.088394 0.188129
O O6 0.065488 0.080008 0.364137
O O7 0.000000 0.052200 0.249810
O O8 0.075252 0.005463 0.271322
O O9 0.877881 0.750000 0.365099
O O10 0.840778 0.683783 0.263867
O O11 0.711941 0.250000 0.698256
O O12 0.750000 0.326047 0.750000
O O13 0.694272 0.323405 0.604765
O O14 0.581097 0.331097 0.125000
O O15 0.500000 0.359394 0.097958
O O16 0.500000 0.955111 0.249657
#
# Coordination Sequence:
#
# PCOD8320566 Si02
#       6
#    32  32  32  32  32  32
#     4  10  21  32  43  65  99 132 157 189 233 280
#     4   9  16  28  47  66  86 116 155 199 241 273
#     4  10  18  29  47  69  92 125 163 196 229 270
#     4   9  15  26  47  70  87 111 152 196 235 272
#     4  10  19  30  44  64  91 125 163 195 227 272
#     4   9  17  30  46  66  92 117 148 194 244 284
#
# _framework density 15.390933
#
# number of rings (size 3 to 8) (size 9 to 14) (size 15 to 20)
#    0.000    2.500    3.333    0.000    0.000    1.833 
#    0.000    5.000    0.000    0.000    0.000    4.667 
#    0.000    2.667    0.000    0.000    0.000    0.000 
#
# Total GULP energy -1189983.344094 kJ/mol
# GULP energy per Si atom -12395.659834 kJ/mol
# Density = 1.535590 g / cm^3
# Si number density = 15.390933 Si / 1000 Ang^3
#
#
#
# Elastic Constant Matrix: (Units=GPa)
#
#
# Indices 1 2 3 4 5 6 
#
# 1 70.9429 43.6650 50.0962 0.0000 0.0000 0.0000
# 2 43.6650 70.9429 50.0962 0.0000 0.0000 0.0000
# 3 50.0962 50.0962 135.8255 0.0000 0.0000 0.0000
# 4 0.0000 0.0000 0.0000 20.8539 0.0000 0.0000
# 5 0.0000 0.0000 0.0000 0.0000 20.8539 0.0000
# 6 0.0000 0.0000 0.0000 0.0000 0.0000 2.6858
#
#
#
# Elastic Compliance Matrix: (Units=1/GPa)
#
#
# Indices 1 2 3 4 5 6 
#
# 1 0.024769 -0.011891 -0.004750 0.000000 0.000000 0.000000
# 2 -0.011891 0.024769 -0.004750 0.000000 0.000000 0.000000
# 3 -0.004750 -0.004750 0.010866 0.000000 0.000000 0.000000
# 4 0.000000 0.000000 0.000000 0.047953 0.000000 0.000000
# 5 0.000000 0.000000 0.000000 0.000000 0.047953 0.000000
# 6 0.000000 0.000000 0.000000 0.000000 0.000000 0.372330
#
#
# Mechanical properties :
#
#
# Convention : Reuss Voigt Hill
#
# Bulk Modulus (GPa) = 56.74492 62.82511 59.78501
# Shear Modulus (GPa) = 8.66111 17.80232 13.23171
#
# Velocity S-wave (km/s) = 2.37479 3.40468 2.93526
# Velocity P-wave (km/s) = 6.66848 7.50760 7.10044
#
# Compressibility (1/GPa) = 0.01762272
#
# Stress axis : x y z
#
# Youngs Moduli (GPa) = 40.37358 40.37358 92.03036
#
# Poissons Ratio (x) = 0.48008 0.43711
# Poissons Ratio (y) = 0.48008 0.43711
# Poissons Ratio (z) = 0.19176 0.19176
#
# Static dielectric constant tensor:
#      x y z
#    x 2.761710 0.000000 0.000000 
#    y 0.000000 2.761710 0.000000 
#    z 0.000000 0.000000 3.230090 
# 
# 
# High freq. dielectric constant tensor:
#      x y z
#    x 1.558030 0.000000 0.000000 
#    y 0.000000 1.558030 0.000000 
#    z 0.000000 0.000000 1.608570 
# 
# From -- ./inp_files/6968.got.cif
#   From: 2010.03.12/outbox.cif.g09.slc.cpg/sg141_4_cif.got.tgz:6968.got - 2010.04.03 13:18:35.
