data_PCOD8320897
_publ_section_title
;
Structure prediction by ZEFSAII (Michael W. Deem and Ramdas Pophale) SiO2 
 PCOD8320897
Probable space group: I 41/A M D
;
_chemical_formula_sum "Si O2"
_cell_formula_units_Z 160
_cell_length_a 17.805788
_cell_length_b 17.805788
_cell_length_c 24.550730
_cell_angle_alpha 90.000000
_cell_angle_beta 90.000000
_cell_angle_gamma 90.000000
_cell_volume 7783.712862
_symmetry_space_group_name_H-M "I 41/A M D"
_symmetry_group_IT_number 141
_space_group.IT_coordinate_system_code '2'
_symmetry_cell_setting 'tetragonal'
loop_
_space_group_symop_operation_xyz
x,y,z
1/4-y,3/4+x,1/4+z
-x,1/2-y,z
1/4+y,1/4-x,3/4+z
x,-y,-z
-x,1/2+y,-z
1/4+y,3/4+x,1/4-z
1/4-y,1/4-x,3/4-z
-x,-y,-z
3/4+y,1/4-x,3/4-z
x,1/2+y,-z
3/4-y,3/4+x,1/4-z
-x,y,z
x,1/2-y,z
3/4-y,1/4-x,3/4+z
3/4+y,3/4+x,1/4+z
1/2+x,1/2+y,1/2+z
3/4-y,1/4+x,3/4+z
1/2-x,-y,1/2+z
3/4+y,3/4-x,1/4+z
1/2+x,1/2-y,1/2-z
1/2-x,y,1/2-z
3/4+y,1/4+x,3/4-z
3/4-y,3/4-x,1/4-z
1/2-x,1/2-y,1/2-z
1/4+y,3/4-x,1/4-z
1/2+x,y,1/2-z
1/4-y,1/4+x,3/4-z
1/2-x,1/2+y,1/2+z
1/2+x,-y,1/2+z
1/4-y,3/4-x,1/4+z
1/4+y,1/4+x,3/4+z
loop_
_atom_site_type_symbol
_atom_site_label
_atom_site_fract_x
_atom_site_fract_y
_atom_site_fract_z
Si Si1 0.584309 0.094349 0.676194
Si Si2 0.664910 0.459825 0.364799
Si Si3 0.195370 0.578078 0.974935
Si Si4 0.417353 0.080616 0.973592
Si Si5 0.410415 0.092524 0.180883
O O1 0.500000 0.109281 0.693276
O O2 0.603706 0.146295 0.625000
O O3 0.634029 0.108054 0.729797
O O4 0.597744 0.007689 0.660814
O O5 0.741233 0.508768 0.375000
O O6 0.638669 0.435721 0.424966
O O7 0.676269 0.388762 0.326842
O O8 0.262089 0.629217 0.950914
O O9 0.229303 0.500000 0.000000
O O10 0.500000 0.100604 0.950604
O O11 0.398232 0.142964 0.019142
O O12 0.417762 0.000000 0.000000
O O13 0.370216 0.120216 0.125000
O O14 0.500000 0.088258 0.170995
#
# Coordination Sequence:
#
# PCOD8320897 Si02
#       5
#    32  32  32  32  32
#     4  11  24  42  69 101 131 168 209 263 327 390
#     4  11  21  37  63  91 126 168 213 268 319 379
#     4  12  21  39  67 100 123 167 214 274 320 379
#     4  11  23  38  57  84 125 176 223 267 316 375
#     4  12  25  38  59  91 133 175 219 266 316 381
#
# _framework density 20.555741999999999
#
# number of rings (size 3 to 8) (size 9 to 14) (size 15 to 20)
#    0.000    0.600    6.000    4.800    0.000    4.800 
#    0.000    2.000    0.000    0.000    0.000    2.800 
#    0.000    0.000    0.000    0.000    0.000    0.000 
#
# Total GULP energy -991347.366273 kJ/mol
# GULP energy per Si atom -12391.842078 kJ/mol
# Density = 2.050896 g / cm^3
# Si number density = 20.555742 Si / 1000 Ang^3
#
#
#
# Elastic Constant Matrix: (Units=GPa)
#
#
# Indices 1 2 3 4 5 6 
#
# 1 66.1765 2.3788 20.9519 0.0000 0.0000 0.0000
# 2 2.3788 66.1791 20.9519 0.0000 0.0000 0.0000
# 3 20.9519 20.9519 156.8477 0.0000 0.0000 0.0000
# 4 0.0000 0.0000 0.0000 25.8412 0.0000 0.0000
# 5 0.0000 0.0000 0.0000 0.0000 25.8412 0.0000
# 6 0.0000 0.0000 0.0000 0.0000 0.0000 7.7206
#
#
#
# Elastic Compliance Matrix: (Units=1/GPa)
#
#
# Indices 1 2 3 4 5 6 
#
# 1 0.015779 0.000105 -0.002122 0.000000 0.000000 0.000000
# 2 0.000105 0.015778 -0.002122 0.000000 0.000000 0.000000
# 3 -0.002122 -0.002122 0.006942 0.000000 0.000000 0.000000
# 4 0.000000 0.000000 0.000000 0.038698 0.000000 0.000000
# 5 0.000000 0.000000 0.000000 0.000000 0.038698 0.000000
# 6 0.000000 0.000000 0.000000 0.000000 0.000000 0.129524
#
#
# Mechanical properties :
#
#
# Convention : Reuss Voigt Hill
#
# Bulk Modulus (GPa) = 33.08816 41.97426 37.53121
# Shear Modulus (GPa) = 18.95583 28.20866 23.58224
#
# Velocity S-wave (km/s) = 3.04001 3.70848 3.39076
# Velocity P-wave (km/s) = 5.33423 6.22905 5.79893
#
# Compressibility (1/GPa) = 0.03022229
#
# Stress axis : x y z
#
# Youngs Moduli (GPa) = 63.37494 63.37759 144.04131
#
# Poissons Ratio (x) = -0.00663 0.30562
# Poissons Ratio (y) = -0.00663 0.30561
# Poissons Ratio (z) = 0.13447 0.13447
#
# Static dielectric constant tensor:
#      x y z
#    x 3.625010 0.000000 0.000000 
#    y 0.000000 3.625010 0.000000 
#    z 0.000000 0.000000 3.743290 
# 
# 
# High freq. dielectric constant tensor:
#      x y z
#    x 1.780480 0.000000 0.000000 
#    y 0.000000 1.780480 0.000000 
#    z 0.000000 0.000000 1.834380 
# 
# From -- ./inp_files/12746.got.cif
#   From: 2010.03.12/outbox.cif.g09.slc.cpg/sg141_7_cif.got.tgz:12746.got - 2010.04.03 13:18:35.
