data_PCOD8320458
_publ_section_title
;
Structure prediction by ZEFSAII (Michael W. Deem and Ramdas Pophale) SiO2 
 PCOD8320458
Probable space group: I 4/M C M
;
_chemical_formula_sum "Si O2"
_cell_formula_units_Z 160
_cell_length_a 21.991014
_cell_length_b 21.991014
_cell_length_c 16.013910
_cell_angle_alpha 90.000000
_cell_angle_beta 90.000000
_cell_angle_gamma 90.000000
_cell_volume 7744.402089
_symmetry_space_group_name_H-M "I 4/M C M"
_symmetry_group_IT_number 140
_symmetry_cell_setting 'tetragonal'
loop_
_space_group_symop_operation_xyz
x,y,z
-y,x,z
-x,-y,z
y,-x,z
x,-y,1/2-z
-x,y,1/2-z
y,x,1/2-z
-y,-x,1/2-z
-x,-y,-z
y,-x,-z
x,y,-z
-y,x,-z
-x,y,1/2+z
x,-y,1/2+z
-y,-x,1/2+z
y,x,1/2+z
1/2+x,1/2+y,1/2+z
1/2-y,1/2+x,1/2+z
1/2-x,1/2-y,1/2+z
1/2+y,1/2-x,1/2+z
1/2+x,1/2-y,-z
1/2-x,1/2+y,-z
1/2+y,1/2+x,-z
1/2-y,1/2-x,-z
1/2-x,1/2-y,1/2-z
1/2+y,1/2-x,1/2-z
1/2+x,1/2+y,1/2-z
1/2-y,1/2+x,1/2-z
1/2-x,1/2+y,z
1/2+x,1/2-y,z
1/2-y,1/2-x,z
1/2+y,1/2+x,z
loop_
_atom_site_type_symbol
_atom_site_label
_atom_site_fract_x
_atom_site_fract_y
_atom_site_fract_z
Si Si1 0.142342 0.256243 0.682959
Si Si2 0.522718 0.879954 0.500000
Si Si3 0.145012 0.454180 0.672153
Si Si4 0.124201 0.721307 0.500000
Si Si5 0.417972 0.446378 0.902518
Si Si6 0.187812 0.865018 0.144236
O O1 0.197545 0.302455 0.689464
O O2 0.080768 0.291050 0.656695
O O3 0.133637 0.222740 0.769646
O O4 0.160467 0.201720 0.619251
O O5 0.553470 0.946531 0.500000
O O6 0.483770 0.873633 0.584341
O O7 0.573281 0.829190 0.500000
O O8 0.152033 0.500000 0.750000
O O9 0.093320 0.406681 0.699674
O O10 0.190748 0.690748 0.500000
O O11 0.113688 0.762414 0.420518
O O12 0.482748 0.417284 0.879041
O O13 0.366448 0.413331 0.849406
O O14 0.404667 0.436891 0.000000
#
# Coordination Sequence:
#
# PCOD8320458 Si02
#       6
#    32  16  32  16  32  32
#     4  10  23  41  59  84 125 163 200 256 313 369
#     4  11  25  43  65  96 129 163 213 272 318 379
#     4  11  24  43  66  94 129 170 211 263 327 381
#     4  11  22  36  58  88 119 149 196 258 311 361
#     4   9  19  37  57  83 121 156 193 250 310 363
#     4  11  20  37  63  88 113 162 208 242 304 384
#
# _framework density 20.660083
#
# number of rings (size 3 to 8) (size 9 to 14) (size 15 to 20)
#    0.000    1.600    1.000    5.100    0.000    9.000 
#    0.000    4.000    0.000    4.800    0.000    0.000 
#    0.000    0.000    0.000    0.000    0.000    0.000 
#
# Total GULP energy -991877.136722 kJ/mol
# GULP energy per Si atom -12398.464209 kJ/mol
# Density = 2.061306 g / cm^3
# Si number density = 20.660083 Si / 1000 Ang^3
#
#
#
# Elastic Constant Matrix: (Units=GPa)
#
#
# Indices 1 2 3 4 5 6 
#
# 1 64.7753 33.7096 -10.0963 0.0000 0.0000 0.0000
# 2 33.7096 64.7786 -10.0961 0.0000 0.0000 0.0000
# 3 -10.0963 -10.0961 34.0687 0.0000 0.0000 0.0000
# 4 0.0000 0.0000 0.0000 29.4404 0.0000 0.0000
# 5 0.0000 0.0000 0.0000 0.0000 29.4403 0.0000
# 6 0.0000 0.0000 0.0000 0.0000 0.0000 40.6796
#
#
#
# Elastic Compliance Matrix: (Units=1/GPa)
#
#
# Indices 1 2 3 4 5 6 
#
# 1 0.021500 -0.010689 0.003204 0.000000 0.000000 0.000000
# 2 -0.010689 0.021499 0.003203 0.000000 0.000000 0.000000
# 3 0.003204 0.003203 0.031251 0.000000 0.000000 0.000000
# 4 0.000000 0.000000 0.000000 0.033967 0.000000 0.000000
# 5 0.000000 0.000000 0.000000 0.000000 0.033967 0.000000
# 6 0.000000 0.000000 0.000000 0.000000 0.000000 0.024582
#
#
# Mechanical properties :
#
#
# Convention : Reuss Voigt Hill
#
# Bulk Modulus (GPa) = 15.22372 21.18411 18.20392
# Shear Modulus (GPa) = 25.35180 29.91910 27.63545
#
# Velocity S-wave (km/s) = 3.50679 3.80960 3.66132
# Velocity P-wave (km/s) = 4.87662 5.44303 5.16759
#
# Compressibility (1/GPa) = 0.06568697
#
# Stress axis : x y z
#
# Youngs Moduli (GPa) = 46.51190 46.51445 31.99872
#
# Poissons Ratio (x) = 0.49718 -0.10252
# Poissons Ratio (y) = 0.49716 -0.10251
# Poissons Ratio (z) = -0.14902 -0.14901
#
# Static dielectric constant tensor:
#      x y z
#    x 4.093580 0.000000 0.000000 
#    y 0.000000 4.093580 0.000000 
#    z 0.000000 0.000000 3.586900 
# 
# 
# High freq. dielectric constant tensor:
#      x y z
#    x 1.823000 0.000000 0.000000 
#    y 0.000000 1.823000 0.000000 
#    z 0.000000 0.000000 1.798770 
# 
# From -- ./inp_files/6896.got.cif
#   From: 2010.06.25/outbox.cif.g09.slc.cpg/sg140_4_cif.got.tgz:6896.got - 2010.06.28 10:53:23.
