data_PCOD8320690
_publ_section_title
;
Structure prediction by ZEFSAII (Michael W. Deem and Ramdas Pophale) SiO2 
 PCOD8320690
Probable space group: I 41/A M D
;
_chemical_formula_sum "Si O2"
_cell_formula_units_Z 176
_cell_length_a 18.011282
_cell_length_b 18.011282
_cell_length_c 26.478312
_cell_angle_alpha 90.000000
_cell_angle_beta 90.000000
_cell_angle_gamma 90.000000
_cell_volume 8589.730678
_symmetry_space_group_name_H-M "I 41/A M D"
_symmetry_group_IT_number 141
_space_group.IT_coordinate_system_code '2'
_symmetry_cell_setting 'tetragonal'
loop_
_space_group_symop_operation_xyz
x,y,z
1/4-y,3/4+x,1/4+z
-x,1/2-y,z
1/4+y,1/4-x,3/4+z
x,-y,-z
-x,1/2+y,-z
1/4+y,3/4+x,1/4-z
1/4-y,1/4-x,3/4-z
-x,-y,-z
3/4+y,1/4-x,3/4-z
x,1/2+y,-z
3/4-y,3/4+x,1/4-z
-x,y,z
x,1/2-y,z
3/4-y,1/4-x,3/4+z
3/4+y,3/4+x,1/4+z
1/2+x,1/2+y,1/2+z
3/4-y,1/4+x,3/4+z
1/2-x,-y,1/2+z
3/4+y,3/4-x,1/4+z
1/2+x,1/2-y,1/2-z
1/2-x,y,1/2-z
3/4+y,1/4+x,3/4-z
3/4-y,3/4-x,1/4-z
1/2-x,1/2-y,1/2-z
1/4+y,3/4-x,1/4-z
1/2+x,y,1/2-z
1/4-y,1/4+x,3/4-z
1/2-x,1/2+y,1/2+z
1/2+x,-y,1/2+z
1/4-y,3/4-x,1/4+z
1/4+y,1/4+x,3/4+z
loop_
_atom_site_type_symbol
_atom_site_label
_atom_site_fract_x
_atom_site_fract_y
_atom_site_fract_z
Si Si1 0.847669 0.831914 0.930258
Si Si2 0.814666 0.338005 0.412968
Si Si3 0.918159 0.332999 0.170687
Si Si4 0.685733 0.081682 0.986411
Si Si5 0.087244 0.337244 0.875000
Si Si6 0.328963 0.608652 0.274486
O O1 0.822464 0.750000 0.945274
O O2 0.770896 0.867262 0.907944
O O3 0.913140 0.833997 0.889809
O O4 0.882022 0.865365 0.980670
O O5 0.866949 0.383052 0.375000
O O6 0.825787 0.250000 0.403239
O O7 0.836020 0.359736 0.470092
O O8 0.903070 0.250000 0.191305
O O9 0.855466 0.388291 0.188710
O O10 0.000000 0.360032 0.186306
O O11 0.770431 0.080738 0.968534
O O12 0.658503 0.000000 0.000000
O O13 0.099929 0.250000 0.889440
O O14 0.143080 0.355234 0.827603
O O15 0.250000 0.634641 0.250000
#
# Coordination Sequence:
#
# PCOD8320690 Si02
#       6
#    32  32  32  32  16  32
#     4   9  19  37  57  80 117 159 198 246 306 369
#     4  10  20  34  53  79 112 154 200 248 311 377
#     4  10  21  35  55  85 116 153 204 257 308 367
#     4  10  21  38  59  85 118 159 200 259 313 372
#     4  11  26  46  68  98 138 176 210 259 324 386
#     4  10  23  41  64  97 125 162 213 261 310 372
#
# _framework density 20.489583
#
# number of rings (size 3 to 8) (size 9 to 14) (size 15 to 20)
#    0.000    2.091    0.000    2.182    2.545    4.545 
#    3.273    1.818    0.000    0.000    0.000    0.000 
#    0.000    0.000    0.000    0.000    0.000    0.000 
#
# Total GULP energy -1090219.928474 kJ/mol
# GULP energy per Si atom -12388.862824 kJ/mol
# Density = 2.044295 g / cm^3
# Si number density = 20.489583 Si / 1000 Ang^3
#
#
#
# Elastic Constant Matrix: (Units=GPa)
#
#
# Indices 1 2 3 4 5 6 
#
# 1 73.6941 48.8077 44.9376 0.0000 0.0000 0.0000
# 2 48.8077 73.6933 44.9395 0.0000 0.0000 0.0000
# 3 44.9376 44.9395 94.1998 0.0000 0.0000 0.0000
# 4 0.0000 0.0000 0.0000 35.0046 0.0000 0.0000
# 5 0.0000 0.0000 0.0000 0.0000 35.0046 0.0000
# 6 0.0000 0.0000 0.0000 0.0000 0.0000 25.2020
#
#
#
# Elastic Compliance Matrix: (Units=1/GPa)
#
#
# Indices 1 2 3 4 5 6 
#
# 1 0.026370 -0.013812 -0.005991 0.000000 0.000000 0.000000
# 2 -0.013812 0.026372 -0.005992 0.000000 0.000000 0.000000
# 3 -0.005991 -0.005992 0.016332 0.000000 0.000000 0.000000
# 4 0.000000 0.000000 0.000000 0.028568 0.000000 0.000000
# 5 0.000000 0.000000 0.000000 0.000000 0.028568 0.000000
# 6 0.000000 0.000000 0.000000 0.000000 0.000000 0.039679
#
#
# Mechanical properties :
#
#
# Convention : Reuss Voigt Hill
#
# Bulk Modulus (GPa) = 57.19284 57.66185 57.42735
# Shear Modulus (GPa) = 22.39072 25.90241 24.14657
#
# Velocity S-wave (km/s) = 3.30932 3.55938 3.43662
# Velocity P-wave (km/s) = 6.52502 6.71531 6.62085
#
# Compressibility (1/GPa) = 0.01748470
#
# Stress axis : x y z
#
# Youngs Moduli (GPa) = 37.92126 37.91934 61.22922
#
# Poissons Ratio (x) = 0.52375 0.36680
# Poissons Ratio (y) = 0.52378 0.36689
# Poissons Ratio (z) = 0.22717 0.22721
#
# Static dielectric constant tensor:
#      x y z
#    x 3.730590 0.000000 0.000000 
#    y 0.000000 3.730590 0.000000 
#    z 0.000000 0.000000 3.627510 
# 
# 
# High freq. dielectric constant tensor:
#      x y z
#    x 1.800730 0.000000 0.000000 
#    y 0.000000 1.800730 0.000000 
#    z 0.000000 0.000000 1.799230 
# 
# From -- ./inp_files/12890.got.cif
#   From: 2010.03.12/outbox.cif.g09.slc.cpg/sg141_7_cif.got.tgz:12890.got - 2010.04.03 13:18:35.
