data_PCOD8320799
_publ_section_title
;
Structure prediction by ZEFSAII (Michael W. Deem and Ramdas Pophale) SiO2 
 PCOD8320799
Probable space group: I 41/A M D
;
_chemical_formula_sum "Si O2"
_cell_formula_units_Z 96
_cell_length_a 26.108581
_cell_length_b 26.108581
_cell_length_c 7.134500
_cell_angle_alpha 90.000000
_cell_angle_beta 90.000000
_cell_angle_gamma 90.000000
_cell_volume 4863.289014
_symmetry_space_group_name_H-M "I 41/A M D"
_symmetry_group_IT_number 141
_space_group.IT_coordinate_system_code '2'
_symmetry_cell_setting 'tetragonal'
loop_
_space_group_symop_operation_xyz
x,y,z
1/4-y,3/4+x,1/4+z
-x,1/2-y,z
1/4+y,1/4-x,3/4+z
x,-y,-z
-x,1/2+y,-z
1/4+y,3/4+x,1/4-z
1/4-y,1/4-x,3/4-z
-x,-y,-z
3/4+y,1/4-x,3/4-z
x,1/2+y,-z
3/4-y,3/4+x,1/4-z
-x,y,z
x,1/2-y,z
3/4-y,1/4-x,3/4+z
3/4+y,3/4+x,1/4+z
1/2+x,1/2+y,1/2+z
3/4-y,1/4+x,3/4+z
1/2-x,-y,1/2+z
3/4+y,3/4-x,1/4+z
1/2+x,1/2-y,1/2-z
1/2-x,y,1/2-z
3/4+y,1/4+x,3/4-z
3/4-y,3/4-x,1/4-z
1/2-x,1/2-y,1/2-z
1/4+y,3/4-x,1/4-z
1/2+x,y,1/2-z
1/4-y,1/4+x,3/4-z
1/2-x,1/2+y,1/2+z
1/2+x,-y,1/2+z
1/4-y,3/4-x,1/4+z
1/4+y,1/4+x,3/4+z
loop_
_atom_site_type_symbol
_atom_site_label
_atom_site_fract_x
_atom_site_fract_y
_atom_site_fract_z
Si Si1 0.100051 0.427942 0.353211
Si Si2 0.283469 0.308018 0.473925
Si Si3 0.629123 0.192001 0.749891
O O1 0.159398 0.409398 0.375000
O O2 0.071279 0.427941 0.553296
O O3 0.097072 0.485559 0.271848
O O4 0.074979 0.385202 0.215679
O O5 0.262611 0.250000 0.449036
O O6 0.313730 0.313347 0.666607
O O7 0.609144 0.250000 0.741424
O O8 0.590818 0.159183 0.625000
#
# Coordination Sequence:
#
# PCOD8320799 Si02
#       3
#    32  32  32
#     4  11  20  35  59  88 117 145 188 245 293 339
#     4  10  21  38  61  86 113 151 201 245 285 342
#     4  11  22  38  59  85 117 155 196 241 290 344
#
# _framework density 19.739727999999999
#
# number of rings (size 3 to 8) (size 9 to 14) (size 15 to 20)
#    0.000    1.333    3.333    5.000    0.000    3.000 
#    0.000    0.000    0.000    8.000    0.000    0.000 
#    0.000    0.000    0.000    0.000    0.000    0.000 
#
# Total GULP energy -594924.971333 kJ/mol
# GULP energy per Si atom -12394.270236 kJ/mol
# Density = 1.969480 g / cm^3
# Si number density = 19.739728 Si / 1000 Ang^3
#
#
#
# Elastic Constant Matrix: (Units=GPa)
#
#
# Indices 1 2 3 4 5 6 
#
# 1 105.0487 70.3144 24.6314 0.0000 0.0000 0.0000
# 2 70.3144 105.0546 24.6339 0.0000 0.0000 0.0000
# 3 24.6314 24.6339 88.9082 0.0000 0.0000 0.0000
# 4 0.0000 0.0000 0.0000 22.6545 0.0000 0.0000
# 5 0.0000 0.0000 0.0000 0.0000 22.6551 0.0000
# 6 0.0000 0.0000 0.0000 0.0000 0.0000 29.3793
#
#
#
# Elastic Compliance Matrix: (Units=1/GPa)
#
#
# Indices 1 2 3 4 5 6 
#
# 1 0.017486 -0.011302 -0.001713 0.000000 0.000000 0.000000
# 2 -0.011302 0.017485 -0.001714 0.000000 0.000000 0.000000
# 3 -0.001713 -0.001714 0.012197 0.000000 0.000000 0.000000
# 4 0.000000 0.000000 0.000000 0.044141 0.000000 0.000000
# 5 0.000000 0.000000 0.000000 0.000000 0.044140 0.000000
# 6 0.000000 0.000000 0.000000 0.000000 0.000000 0.034038
#
#
# Mechanical properties :
#
#
# Convention : Reuss Voigt Hill
#
# Bulk Modulus (GPa) = 56.46118 59.79676 58.12897
# Shear Modulus (GPa) = 24.40837 26.89990 25.65413
#
# Velocity S-wave (km/s) = 3.52022 3.69552 3.60893
# Velocity P-wave (km/s) = 6.72217 6.96904 6.84672
#
# Compressibility (1/GPa) = 0.01771128
#
# Stress axis : x y z
#
# Youngs Moduli (GPa) = 57.18861 57.19123 81.98815
#
# Poissons Ratio (x) = 0.64637 0.14044
# Poissons Ratio (y) = 0.64634 0.14049
# Poissons Ratio (z) = 0.09796 0.09800
#
# Static dielectric constant tensor:
#      x y z
#    x 3.460570 0.000000 0.000000 
#    y 0.000000 3.460560 0.000000 
#    z 0.000000 0.000000 3.850090 
# 
# 
# High freq. dielectric constant tensor:
#      x y z
#    x 1.749630 0.000000 0.000000 
#    y 0.000000 1.749630 0.000000 
#    z 0.000000 0.000000 1.795790 
# 
# From -- ./inp_files/2507.got.cif
#   From: 2010.03.12/outbox.cif.g09.slc.cpg/sg141_2_cif.got.tgz:2507.got - 2010.04.03 13:18:35.
