data_PCOD8320111
_publ_section_title
;
Structure prediction by ZEFSAII (Michael W. Deem and Ramdas Pophale) SiO2 
 PCOD8320111
Probable space group: I 4/M C M
;
_chemical_formula_sum "Si O2"
_cell_formula_units_Z 176
_cell_length_a 18.087964
_cell_length_b 18.087964
_cell_length_c 26.097616
_cell_angle_alpha 90.000000
_cell_angle_beta 90.000000
_cell_angle_gamma 90.000000
_cell_volume 8538.472944
_symmetry_space_group_name_H-M "I 4/M C M"
_symmetry_group_IT_number 140
_symmetry_cell_setting 'tetragonal'
loop_
_space_group_symop_operation_xyz
x,y,z
-y,x,z
-x,-y,z
y,-x,z
x,-y,1/2-z
-x,y,1/2-z
y,x,1/2-z
-y,-x,1/2-z
-x,-y,-z
y,-x,-z
x,y,-z
-y,x,-z
-x,y,1/2+z
x,-y,1/2+z
-y,-x,1/2+z
y,x,1/2+z
1/2+x,1/2+y,1/2+z
1/2-y,1/2+x,1/2+z
1/2-x,1/2-y,1/2+z
1/2+y,1/2-x,1/2+z
1/2+x,1/2-y,-z
1/2-x,1/2+y,-z
1/2+y,1/2+x,-z
1/2-y,1/2-x,-z
1/2-x,1/2-y,1/2-z
1/2+y,1/2-x,1/2-z
1/2+x,1/2+y,1/2-z
1/2-y,1/2+x,1/2-z
1/2-x,1/2+y,z
1/2+x,1/2-y,z
1/2-y,1/2-x,z
1/2+y,1/2+x,z
loop_
_atom_site_type_symbol
_atom_site_label
_atom_site_fract_x
_atom_site_fract_y
_atom_site_fract_z
Si Si1 0.735550 0.354410 0.785778
Si Si2 0.903915 0.069964 0.939455
Si Si3 0.936283 0.684269 0.444199
Si Si4 0.697981 0.000000 0.750000
Si Si5 0.204636 0.822297 0.402617
Si Si6 0.500442 0.117857 0.148805
O O1 0.667657 0.332344 0.750000
O O2 0.808072 0.308072 0.770611
O O3 0.750067 0.439154 0.774908
O O4 0.714742 0.342840 0.844047
O O5 0.835017 0.117985 0.916438
O O6 0.984100 0.102639 0.921536
O O7 0.898338 0.072968 0.000000
O O8 0.975832 0.695132 0.500000
O O9 0.893134 0.606867 0.444839
O O10 0.879728 0.751364 0.437780
O O11 0.993124 0.679652 0.396240
O O12 0.649722 0.969617 0.702536
O O13 0.238858 0.738858 0.412105
O O14 0.559003 0.059003 0.128163
O O15 0.420731 0.079270 0.159641
#
# Coordination Sequence:
#
# PCOD8320111 Si02
#       6
#    32  32  32  16  32  32
#     4  10  22  38  56  82 114 148 189 237 292 348
#     4   9  19  36  59  87 118 153 195 245 300 354
#     4   9  17  30  49  75 108 146 185 228 280 338
#     4  12  20  35  58  77 108 148 194 242 284 342
#     4  10  19  35  58  84 115 152 198 243 292 358
#     4  10  19  30  49  79 110 144 187 233 281 337
#
# _framework density 20.612584999999999
#
# number of rings (size 3 to 8) (size 9 to 14) (size 15 to 20)
#    0.000    2.182    1.818    2.727    0.000    3.636 
#    0.000    1.818    0.000    0.273    0.000    2.545 
#    0.000    0.000    0.000    0.000    0.000    0.000 
#
# Total GULP energy -1090528.532316 kJ/mol
# GULP energy per Si atom -12392.369685 kJ/mol
# Density = 2.056567 g / cm^3
# Si number density = 20.612585 Si / 1000 Ang^3
#
#
#
# Elastic Constant Matrix: (Units=GPa)
#
#
# Indices 1 2 3 4 5 6 
#
# 1 75.4679 10.6786 11.5227 0.0000 0.0000 0.0000
# 2 10.6786 75.4766 11.5198 0.0000 0.0000 0.0000
# 3 11.5227 11.5198 116.6905 0.0000 0.0000 0.0000
# 4 0.0000 0.0000 0.0000 23.5862 0.0000 0.0000
# 5 0.0000 0.0000 0.0000 0.0000 23.5862 0.0000
# 6 0.0000 0.0000 0.0000 0.0000 0.0000 23.3436
#
#
#
# Elastic Compliance Matrix: (Units=1/GPa)
#
#
# Indices 1 2 3 4 5 6 
#
# 1 0.013679 -0.001756 -0.001177 0.000000 0.000000 0.000000
# 2 -0.001756 0.013677 -0.001177 0.000000 0.000000 0.000000
# 3 -0.001177 -0.001177 0.008802 0.000000 0.000000 0.000000
# 4 0.000000 0.000000 0.000000 0.042398 0.000000 0.000000
# 5 0.000000 0.000000 0.000000 0.000000 0.042398 0.000000
# 6 0.000000 0.000000 0.000000 0.000000 0.000000 0.042838
#
#
# Mechanical properties :
#
#
# Convention : Reuss Voigt Hill
#
# Bulk Modulus (GPa) = 35.79307 37.23078 36.51192
# Shear Modulus (GPa) = 27.57487 29.69744 28.63615
#
# Velocity S-wave (km/s) = 3.66152 3.79983 3.73132
# Velocity P-wave (km/s) = 5.93953 6.11171 6.02623
#
# Compressibility (1/GPa) = 0.02793837
#
# Stress axis : x y z
#
# Youngs Moduli (GPa) = 73.10549 73.11462 113.60895
#
# Poissons Ratio (x) = 0.12836 0.13377
# Poissons Ratio (y) = 0.12834 0.13370
# Poissons Ratio (z) = 0.08608 0.08605
#
# Static dielectric constant tensor:
#      x y z
#    x 3.631670 0.000000 0.000000 
#    y 0.000000 3.631680 0.000000 
#    z 0.000000 0.000000 3.790830 
# 
# 
# High freq. dielectric constant tensor:
#      x y z
#    x 1.781000 0.000000 0.000000 
#    y 0.000000 1.781000 0.000000 
#    z 0.000000 0.000000 1.814700 
# 
# From -- ./inp_files/10728.got.cif
#   From: 2010.06.25/outbox.cif.g09.slc.cpg/sg140_6_cif.got.tgz:10728.got - 2010.06.28 10:53:23.
