data_PCOD8320741
_publ_section_title
;
Structure prediction by ZEFSAII (Michael W. Deem and Ramdas Pophale) SiO2 
 PCOD8320741
Probable space group: I 41/A M D
;
_chemical_formula_sum "Si O2"
_cell_formula_units_Z 192
_cell_length_a 19.778369
_cell_length_b 19.778369
_cell_length_c 23.262976
_cell_angle_alpha 90.000000
_cell_angle_beta 90.000000
_cell_angle_gamma 90.000000
_cell_volume 9100.101219
_symmetry_space_group_name_H-M "I 41/A M D"
_symmetry_group_IT_number 141
_space_group.IT_coordinate_system_code '2'
_symmetry_cell_setting 'tetragonal'
loop_
_space_group_symop_operation_xyz
x,y,z
1/4-y,3/4+x,1/4+z
-x,1/2-y,z
1/4+y,1/4-x,3/4+z
x,-y,-z
-x,1/2+y,-z
1/4+y,3/4+x,1/4-z
1/4-y,1/4-x,3/4-z
-x,-y,-z
3/4+y,1/4-x,3/4-z
x,1/2+y,-z
3/4-y,3/4+x,1/4-z
-x,y,z
x,1/2-y,z
3/4-y,1/4-x,3/4+z
3/4+y,3/4+x,1/4+z
1/2+x,1/2+y,1/2+z
3/4-y,1/4+x,3/4+z
1/2-x,-y,1/2+z
3/4+y,3/4-x,1/4+z
1/2+x,1/2-y,1/2-z
1/2-x,y,1/2-z
3/4+y,1/4+x,3/4-z
3/4-y,3/4-x,1/4-z
1/2-x,1/2-y,1/2-z
1/4+y,3/4-x,1/4-z
1/2+x,y,1/2-z
1/4-y,1/4+x,3/4-z
1/2-x,1/2+y,1/2+z
1/2+x,-y,1/2+z
1/4-y,3/4-x,1/4+z
1/4+y,1/4+x,3/4+z
loop_
_atom_site_type_symbol
_atom_site_label
_atom_site_fract_x
_atom_site_fract_y
_atom_site_fract_z
Si Si1 0.178466 0.398113 0.223669
Si Si2 0.425504 0.619087 0.243241
Si Si3 0.701814 0.173240 0.703235
Si Si4 0.578416 0.962932 0.138721
Si Si5 0.078834 0.390618 0.322924
Si Si6 0.924143 0.000337 0.831269
O O1 0.250000 0.425719 0.250000
O O2 0.197939 0.340479 0.178005
O O3 0.127625 0.367001 0.271005
O O4 0.136712 0.452118 0.186981
O O5 0.500000 0.653422 0.237565
O O6 0.375580 0.669618 0.275980
O O7 0.394714 0.597063 0.180898
O O8 0.432301 0.552066 0.280100
O O9 0.724432 0.250000 0.700298
O O10 0.750000 0.135356 0.750000
O O11 0.713228 0.145658 0.638886
O O12 0.500000 0.967152 0.150527
O O13 0.607243 0.036109 0.157142
O O14 0.087838 0.337838 0.375000
O O15 0.000000 0.390954 0.303655
O O16 0.000000 0.966970 0.839667
#
# Coordination Sequence:
#
# PCOD8320741 Si02
#       6
#    32  32  32  32  32  32
#     4  12  23  38  64  98 124 160 217 266 317 385
#     4  10  20  38  60  84 117 166 215 254 318 389
#     4  10  21  37  57  86 122 160 206 262 327 383
#     4  10  22  41  62  87 127 170 207 257 327 386
#     4  11  23  44  67  94 133 175 214 269 332 393
#     4  10  21  39  60  86 124 167 203 256 328 391
#
# _framework density 21.098666999999999
#
# number of rings (size 3 to 8) (size 9 to 14) (size 15 to 20)
#    0.000    1.500    3.333    2.000    0.000    2.167 
#    6.000    0.833    0.000    6.500    0.000    0.000 
#    0.000    0.000    0.000    0.000    0.000    0.000 
#
# Total GULP energy -1189461.566322 kJ/mol
# GULP energy per Si atom -12390.224649 kJ/mol
# Density = 2.105065 g / cm^3
# Si number density = 21.098667 Si / 1000 Ang^3
#
#
#
# Elastic Constant Matrix: (Units=GPa)
#
#
# Indices 1 2 3 4 5 6 
#
# 1 72.9624 17.7301 37.2945 0.0000 0.0000 0.0000
# 2 17.7301 72.9624 37.2945 0.0000 0.0000 0.0000
# 3 37.2945 37.2945 151.2653 0.0000 0.0000 0.0000
# 4 0.0000 0.0000 0.0000 27.7154 0.0000 0.0000
# 5 0.0000 0.0000 0.0000 0.0000 27.7154 0.0000
# 6 0.0000 0.0000 0.0000 0.0000 0.0000 14.4537
#
#
#
# Elastic Compliance Matrix: (Units=1/GPa)
#
#
# Indices 1 2 3 4 5 6 
#
# 1 0.015968 -0.002137 -0.003410 0.000000 0.000000 0.000000
# 2 -0.002137 0.015968 -0.003410 0.000000 0.000000 0.000000
# 3 -0.003410 -0.003410 0.008292 0.000000 0.000000 0.000000
# 4 0.000000 0.000000 0.000000 0.036081 0.000000 0.000000
# 5 0.000000 0.000000 0.000000 0.000000 0.036081 0.000000
# 6 0.000000 0.000000 0.000000 0.000000 0.000000 0.069186
#
#
# Mechanical properties :
#
#
# Convention : Reuss Voigt Hill
#
# Bulk Modulus (GPa) = 44.81496 53.53648 49.17572
# Shear Modulus (GPa) = 24.16284 27.63497 25.89890
#
# Velocity S-wave (km/s) = 3.38780 3.62304 3.50739
# Velocity P-wave (km/s) = 6.04894 6.55220 6.30559
#
# Compressibility (1/GPa) = 0.02231398
#
# Stress axis : x y z
#
# Youngs Moduli (GPa) = 62.62499 62.62500 120.59291
#
# Poissons Ratio (x) = 0.13385 0.41122
# Poissons Ratio (y) = 0.13385 0.41122
# Poissons Ratio (z) = 0.21355 0.21355
#
# Static dielectric constant tensor:
#      x y z
#    x 3.771150 0.000000 0.000000 
#    y 0.000000 3.771150 0.000000 
#    z 0.000000 0.000000 4.340510 
# 
# 
# High freq. dielectric constant tensor:
#      x y z
#    x 1.806590 0.000000 0.000000 
#    y 0.000000 1.806590 0.000000 
#    z 0.000000 0.000000 1.851910 
# 
# From -- ./inp_files/11681.got.cif
#   From: 2010.03.12/outbox.cif.g09.slc.cpg/sg141_6_cif.got.tgz:11681.got - 2010.04.03 13:18:35.
