data_PCOD8320452
_publ_section_title
;
Structure prediction by ZEFSAII (Michael W. Deem and Ramdas Pophale) SiO2 
 PCOD8320452
Probable space group: I 4/M C M
;
_chemical_formula_sum "Si O2"
_cell_formula_units_Z 96
_cell_length_a 12.910307
_cell_length_b 12.910307
_cell_length_c 26.576947
_cell_angle_alpha 90.000000
_cell_angle_beta 90.000000
_cell_angle_gamma 90.000000
_cell_volume 4429.739931
_symmetry_space_group_name_H-M "I 4/M C M"
_symmetry_group_IT_number 140
_symmetry_cell_setting 'tetragonal'
loop_
_space_group_symop_operation_xyz
x,y,z
-y,x,z
-x,-y,z
y,-x,z
x,-y,1/2-z
-x,y,1/2-z
y,x,1/2-z
-y,-x,1/2-z
-x,-y,-z
y,-x,-z
x,y,-z
-y,x,-z
-x,y,1/2+z
x,-y,1/2+z
-y,-x,1/2+z
y,x,1/2+z
1/2+x,1/2+y,1/2+z
1/2-y,1/2+x,1/2+z
1/2-x,1/2-y,1/2+z
1/2+y,1/2-x,1/2+z
1/2+x,1/2-y,-z
1/2-x,1/2+y,-z
1/2+y,1/2+x,-z
1/2-y,1/2-x,-z
1/2-x,1/2-y,1/2-z
1/2+y,1/2-x,1/2-z
1/2+x,1/2+y,1/2-z
1/2-y,1/2+x,1/2-z
1/2-x,1/2+y,z
1/2+x,1/2-y,z
1/2-y,1/2-x,z
1/2+y,1/2+x,z
loop_
_atom_site_type_symbol
_atom_site_label
_atom_site_fract_x
_atom_site_fract_y
_atom_site_fract_z
Si Si1 0.779200 0.720800 0.558697
Si Si2 0.416051 0.083950 0.131314
Si Si3 0.363196 0.400922 0.115671
Si Si4 0.943571 0.276673 0.299177
O O1 0.794357 0.705644 0.500000
O O2 0.858001 0.642000 0.585922
O O3 0.659454 0.703158 0.574049
O O4 0.473169 0.171113 0.163863
O O5 0.500000 0.000000 0.110827
O O6 0.477195 0.357260 0.107950
O O7 0.316018 0.382763 0.171760
O O8 0.861817 0.361817 0.280490
O O9 0.000000 0.230802 0.250000
#
# Coordination Sequence:
#
# PCOD8320452 Si02
#       4
#    16  16  32  32
#     4  12  26  48  75 100 135 189 242 304 368 413
#     4  10  22  42  69 105 142 180 241 299 334 424
#     4  11  25  46  68 100 145 183 235 295 349 431
#     4  11  21  39  72 107 146 191 233 284 358 422
#
# _framework density 21.671703000000001
#
# number of rings (size 3 to 8) (size 9 to 14) (size 15 to 20)
#    0.000    1.000    6.667    0.000    0.000    3.000 
#    0.000    6.667    0.000    0.000    0.000    0.000 
#    0.000    0.000    0.000    0.000    0.000    0.000 
#
# Total GULP energy -595041.817567 kJ/mol
# GULP energy per Si atom -12396.704533 kJ/mol
# Density = 2.162238 g / cm^3
# Si number density = 21.671703 Si / 1000 Ang^3
#
#
#
# Elastic Constant Matrix: (Units=GPa)
#
#
# Indices 1 2 3 4 5 6 
#
# 1 122.8565 44.2244 62.4521 0.0000 0.0000 0.0000
# 2 44.2244 122.8568 62.4524 0.0000 0.0000 0.0000
# 3 62.4521 62.4524 158.8117 0.0000 0.0000 0.0000
# 4 0.0000 0.0000 0.0000 30.4158 0.0000 0.0000
# 5 0.0000 0.0000 0.0000 0.0000 30.4156 0.0000
# 6 0.0000 0.0000 0.0000 0.0000 0.0000 20.9254
#
#
#
# Elastic Compliance Matrix: (Units=1/GPa)
#
#
# Indices 1 2 3 4 5 6 
#
# 1 0.010597 -0.002120 -0.003334 0.000000 0.000000 0.000000
# 2 -0.002120 0.010597 -0.003334 0.000000 0.000000 0.000000
# 3 -0.003334 -0.003334 0.008919 0.000000 0.000000 0.000000
# 4 0.000000 0.000000 0.000000 0.032878 0.000000 0.000000
# 5 0.000000 0.000000 0.000000 0.000000 0.032878 0.000000
# 6 0.000000 0.000000 0.000000 0.000000 0.000000 0.047789
#
#
# Mechanical properties :
#
#
# Convention : Reuss Voigt Hill
#
# Bulk Modulus (GPa) = 79.75403 82.53143 81.14273
# Shear Modulus (GPa) = 30.22753 32.04441 31.13597
#
# Velocity S-wave (km/s) = 3.73874 3.84947 3.79451
# Velocity P-wave (km/s) = 7.45107 7.61072 7.53132
#
# Compressibility (1/GPa) = 0.01253855
#
# Stress axis : x y z
#
# Youngs Moduli (GPa) = 94.36326 94.36330 112.12427
#
# Poissons Ratio (x) = 0.20006 0.37378
# Poissons Ratio (y) = 0.20006 0.37379
# Poissons Ratio (z) = 0.31457 0.31458
#
# Static dielectric constant tensor:
#      x y z
#    x 4.153540 0.000000 0.000000 
#    y 0.000000 4.153540 0.000000 
#    z 0.000000 0.000000 3.544590 
# 
# 
# High freq. dielectric constant tensor:
#      x y z
#    x 1.864430 0.000000 0.000000 
#    y 0.000000 1.864430 0.000000 
#    z 0.000000 0.000000 1.819220 
# 
# From -- ./inp_files/7712.got.cif
#   From: 2010.06.25/outbox.cif.g09.slc.cpg/sg140_4_cif.got.tgz:7712.got - 2010.06.28 10:53:23.
