data_PCOD8320699
_publ_section_title
;
Structure prediction by ZEFSAII (Michael W. Deem and Ramdas Pophale) SiO2 
 PCOD8320699
Probable space group: I 41/A M D
;
_chemical_formula_sum "Si O2"
_cell_formula_units_Z 192
_cell_length_a 22.235110
_cell_length_b 22.235110
_cell_length_c 21.923582
_cell_angle_alpha 90.000000
_cell_angle_beta 90.000000
_cell_angle_gamma 90.000000
_cell_volume 10839.021500
_symmetry_space_group_name_H-M "I 41/A M D"
_symmetry_group_IT_number 141
_space_group.IT_coordinate_system_code '2'
_symmetry_cell_setting 'tetragonal'
loop_
_space_group_symop_operation_xyz
x,y,z
1/4-y,3/4+x,1/4+z
-x,1/2-y,z
1/4+y,1/4-x,3/4+z
x,-y,-z
-x,1/2+y,-z
1/4+y,3/4+x,1/4-z
1/4-y,1/4-x,3/4-z
-x,-y,-z
3/4+y,1/4-x,3/4-z
x,1/2+y,-z
3/4-y,3/4+x,1/4-z
-x,y,z
x,1/2-y,z
3/4-y,1/4-x,3/4+z
3/4+y,3/4+x,1/4+z
1/2+x,1/2+y,1/2+z
3/4-y,1/4+x,3/4+z
1/2-x,-y,1/2+z
3/4+y,3/4-x,1/4+z
1/2+x,1/2-y,1/2-z
1/2-x,y,1/2-z
3/4+y,1/4+x,3/4-z
3/4-y,3/4-x,1/4-z
1/2-x,1/2-y,1/2-z
1/4+y,3/4-x,1/4-z
1/2+x,y,1/2-z
1/4-y,1/4+x,3/4-z
1/2-x,1/2+y,1/2+z
1/2+x,-y,1/2+z
1/4-y,3/4-x,1/4+z
1/4+y,1/4+x,3/4+z
loop_
_atom_site_type_symbol
_atom_site_label
_atom_site_fract_x
_atom_site_fract_y
_atom_site_fract_z
Si Si1 0.929304 0.493492 0.190786
Si Si2 0.869085 0.641997 0.008469
Si Si3 0.500000 0.683084 0.055236
Si Si4 0.434170 0.457189 0.443777
Si Si5 0.120547 0.179722 0.501303
Si Si6 0.930373 0.319628 0.875000
Si Si7 0.568430 0.181571 0.125000
Si Si8 0.500000 0.817943 0.198061
O O1 0.895391 0.549662 0.221516
O O2 0.915024 0.491265 0.118421
O O3 0.903048 0.432846 0.222464
O O4 0.000000 0.502206 0.202689
O O5 0.911554 0.639373 0.068136
O O6 0.879928 0.585630 0.964325
O O7 0.891321 0.695271 0.966921
O O8 0.500000 0.750000 0.025107
O O9 0.561614 0.650033 0.033568
O O10 0.500000 0.688806 0.126673
O O11 0.444557 0.500000 0.500000
O O12 0.500000 0.424998 0.431826
O O13 0.121244 0.250000 0.516949
O O14 0.115298 0.167592 0.429025
O O15 0.917961 0.250000 0.891522
O O16 0.576841 0.250000 0.149109
O O17 0.500000 0.750000 0.227642
#
# Coordination Sequence:
#
# PCOD8320699 Si02
#       8
#    32  32  16  32  32  16  16  16
#     4  10  20  35  50  77 112 147 181 223 278 341
#     4  12  21  34  52  75 106 144 184 225 274 342
#     4   9  16  28  46  77 111 140 173 222 279 329
#     4  10  21  36  55  76 103 141 185 231 279 329
#     4   9  16  27  47  74 110 143 169 216 271 333
#     4  11  20  30  46  72 107 136 172 230 283 322
#     4   9  14  24  46  78 107 130 170 216 275 332
#     4  11  20  30  48  77 108 139 171 218 277 338
#
# _framework density 17.713775999999999
#
# number of rings (size 3 to 8) (size 9 to 14) (size 15 to 20)
#    0.000    1.833    2.500    3.500    0.000    4.000 
#    0.000    0.000    0.000    2.000    0.000    4.667 
#    0.000    0.000    0.000    0.000    0.000    0.000 
#
# Total GULP energy -1189659.435315 kJ/mol
# GULP energy per Si atom -12392.285785 kJ/mol
# Density = 1.767346 g / cm^3
# Si number density = 17.713776 Si / 1000 Ang^3
#
#
#
# Elastic Constant Matrix: (Units=GPa)
#
#
# Indices 1 2 3 4 5 6 
#
# 1 85.0049 42.1060 39.3078 0.0000 0.0000 0.0000
# 2 42.1060 85.0070 39.3072 0.0000 0.0000 0.0000
# 3 39.3078 39.3072 93.0233 0.0000 0.0000 0.0000
# 4 0.0000 0.0000 0.0000 23.7570 0.0000 0.0000
# 5 0.0000 0.0000 0.0000 0.0000 23.7570 0.0000
# 6 0.0000 0.0000 0.0000 0.0000 0.0000 17.9586
#
#
#
# Elastic Compliance Matrix: (Units=1/GPa)
#
#
# Indices 1 2 3 4 5 6 
#
# 1 0.016981 -0.006330 -0.004501 0.000000 0.000000 0.000000
# 2 -0.006330 0.016980 -0.004500 0.000000 0.000000 0.000000
# 3 -0.004501 -0.004500 0.014553 0.000000 0.000000 0.000000
# 4 0.000000 0.000000 0.000000 0.042093 0.000000 0.000000
# 5 0.000000 0.000000 0.000000 0.000000 0.042093 0.000000
# 6 0.000000 0.000000 0.000000 0.000000 0.000000 0.055684
#
#
# Mechanical properties :
#
#
# Convention : Reuss Voigt Hill
#
# Bulk Modulus (GPa) = 56.01421 56.05303 56.03362
# Shear Modulus (GPa) = 22.22268 22.58213 22.40240
#
# Velocity S-wave (km/s) = 3.54579 3.57436 3.56010
# Velocity P-wave (km/s) = 6.96089 6.98191 6.97141
#
# Compressibility (1/GPa) = 0.01785261
#
# Stress axis : x y z
#
# Youngs Moduli (GPa) = 58.89084 58.89311 68.71279
#
# Poissons Ratio (x) = 0.37278 0.30925
# Poissons Ratio (y) = 0.37277 0.30922
# Poissons Ratio (z) = 0.26505 0.26503
#
# Static dielectric constant tensor:
#      x y z
#    x 3.121230 0.000000 0.000000 
#    y 0.000000 3.121250 0.000000 
#    z 0.000000 0.000000 3.343760 
# 
# 
# High freq. dielectric constant tensor:
#      x y z
#    x 1.650900 0.000000 0.000000 
#    y 0.000000 1.650900 0.000000 
#    z 0.000000 0.000000 1.700970 
# 
# From -- ./inp_files/10512.got.cif
#   From: 2010.03.12/outbox.cif.g09.slc.cpg/sg141_6_cif.got.tgz:10512.got - 2010.04.03 13:18:35.
