data_PCOD8320836
_publ_section_title
;
Structure prediction by ZEFSAII (Michael W. Deem and Ramdas Pophale) SiO2 
 PCOD8320836
Probable space group: I 41/A M D
;
_chemical_formula_sum "Si O2"
_cell_formula_units_Z 176
_cell_length_a 17.085152
_cell_length_b 17.085152
_cell_length_c 28.785218
_cell_angle_alpha 90.000000
_cell_angle_beta 90.000000
_cell_angle_gamma 90.000000
_cell_volume 8402.474762
_symmetry_space_group_name_H-M "I 41/A M D"
_symmetry_group_IT_number 141
_space_group.IT_coordinate_system_code '2'
_symmetry_cell_setting 'tetragonal'
loop_
_space_group_symop_operation_xyz
x,y,z
1/4-y,3/4+x,1/4+z
-x,1/2-y,z
1/4+y,1/4-x,3/4+z
x,-y,-z
-x,1/2+y,-z
1/4+y,3/4+x,1/4-z
1/4-y,1/4-x,3/4-z
-x,-y,-z
3/4+y,1/4-x,3/4-z
x,1/2+y,-z
3/4-y,3/4+x,1/4-z
-x,y,z
x,1/2-y,z
3/4-y,1/4-x,3/4+z
3/4+y,3/4+x,1/4+z
1/2+x,1/2+y,1/2+z
3/4-y,1/4+x,3/4+z
1/2-x,-y,1/2+z
3/4+y,3/4-x,1/4+z
1/2+x,1/2-y,1/2-z
1/2-x,y,1/2-z
3/4+y,1/4+x,3/4-z
3/4-y,3/4-x,1/4-z
1/2-x,1/2-y,1/2-z
1/4+y,3/4-x,1/4-z
1/2+x,y,1/2-z
1/4-y,1/4+x,3/4-z
1/2-x,1/2+y,1/2+z
1/2+x,-y,1/2+z
1/4-y,3/4-x,1/4+z
1/4+y,1/4+x,3/4+z
loop_
_atom_site_type_symbol
_atom_site_label
_atom_site_fract_x
_atom_site_fract_y
_atom_site_fract_z
Si Si1 0.589382 0.385071 0.712750
Si Si2 0.590510 0.556963 0.845766
Si Si3 0.341586 0.602197 0.652235
Si Si4 0.161828 0.750000 0.268063
Si Si5 0.216251 0.586366 0.498034
Si Si6 0.673702 0.576299 0.375000
Si Si7 0.910326 0.750000 0.363834
O O1 0.500000 0.371237 0.698167
O O2 0.615288 0.325952 0.752135
O O3 0.598133 0.471693 0.733301
O O4 0.645164 0.372670 0.668568
O O5 0.618347 0.631654 0.875000
O O6 0.500000 0.565182 0.833458
O O7 0.603987 0.477537 0.874901
O O8 0.640765 0.563778 0.798686
O O9 0.330265 0.601585 0.708408
O O10 0.344066 0.514305 0.632712
O O11 0.422841 0.646612 0.644351
O O12 0.250000 0.750000 0.250000
O O13 0.154787 0.750000 0.323421
O O14 0.256077 0.500000 0.500000
O O15 0.000000 0.750000 0.345427
#
# Coordination Sequence:
#
# PCOD8320836 Si02
#       7
#    32  32  32  16  32  16  16
#     4  11  23  36  60  95 131 173 224 278 339 401
#     4  12  24  44  71 102 138 182 230 290 352 419
#     4  11  23  44  68 100 134 180 235 279 347 418
#     4  12  24  42  60  88 132 182 230 280 341 409
#     4  11  22  43  72  98 127 172 234 282 336 418
#     4  10  22  38  63  92 133 180 230 276 332 408
#     4  12  26  42  68  98 140 176 222 295 351 407
#
# _framework density 20.946211000000002
#
# number of rings (size 3 to 8) (size 9 to 14) (size 15 to 20)
#    0.000    0.727    2.727    5.727    7.636    0.182 
#    0.000    2.727    0.000    0.000    0.000    0.000 
#    0.000    0.000    0.000    0.000    0.000    0.000 
#
# Total GULP energy -1091285.721343 kJ/mol
# GULP energy per Si atom -12400.974106 kJ/mol
# Density = 2.089854 g / cm^3
# Si number density = 20.946211 Si / 1000 Ang^3
#
#
#
# Elastic Constant Matrix: (Units=GPa)
#
#
# Indices 1 2 3 4 5 6 
#
# 1 103.2869 26.0221 27.7606 0.0000 0.0000 0.0000
# 2 26.0221 103.2847 27.7601 0.0000 0.0000 0.0000
# 3 27.7606 27.7601 131.8373 0.0000 0.0000 0.0000
# 4 0.0000 0.0000 0.0000 82.0967 0.0000 0.0000
# 5 0.0000 0.0000 0.0000 0.0000 82.0343 0.0000
# 6 0.0000 0.0000 0.0000 0.0000 0.0000 19.8852
#
#
#
# Elastic Compliance Matrix: (Units=1/GPa)
#
#
# Indices 1 2 3 4 5 6 
#
# 1 0.010722 -0.002220 -0.001790 0.000000 0.000000 0.000000
# 2 -0.002220 0.010723 -0.001790 0.000000 0.000000 0.000000
# 3 -0.001790 -0.001790 0.008339 0.000000 0.000000 0.000000
# 4 0.000000 0.000000 0.000000 0.012181 0.000000 0.000000
# 5 0.000000 0.000000 0.000000 0.000000 0.012190 0.000000
# 6 0.000000 0.000000 0.000000 0.000000 0.000000 0.050289
#
#
# Mechanical properties :
#
#
# Convention : Reuss Voigt Hill
#
# Bulk Modulus (GPa) = 54.99849 55.72162 55.36006
# Shear Modulus (GPa) = 40.94817 53.92765 47.43791
#
# Velocity S-wave (km/s) = 4.42624 5.07953 4.76410
# Velocity P-wave (km/s) = 7.24128 7.81423 7.53321
#
# Compressibility (1/GPa) = 0.01818232
#
# Stress axis : x y z
#
# Youngs Moduli (GPa) = 93.26347 93.26157 119.91794
#
# Poissons Ratio (x) = 0.20707 0.21468
# Poissons Ratio (y) = 0.20707 0.21468
# Poissons Ratio (z) = 0.16697 0.16696
#
# Static dielectric constant tensor:
#      x y z
#    x 3.721850 0.000000 0.000000 
#    y 0.000000 3.721870 0.000000 
#    z 0.000000 0.000000 4.092700 
# 
# 
# High freq. dielectric constant tensor:
#      x y z
#    x 1.814300 0.000000 0.000000 
#    y 0.000000 1.814300 0.000000 
#    z 0.000000 0.000000 1.833490 
# 
# From -- ./inp_files/12974.got.cif
#   From: 2010.03.12/outbox.cif.g09.slc.cpg/sg141_7_cif.got.tgz:12974.got - 2010.04.03 13:18:35.
