data_PCOD8320066
_publ_section_title
;
Structure prediction by ZEFSAII (Michael W. Deem and Ramdas Pophale) SiO2 
 PCOD8320066
Probable space group: I 4/M C M
;
_chemical_formula_sum "Si O2"
_cell_formula_units_Z 160
_cell_length_a 34.491450
_cell_length_b 34.491450
_cell_length_c 7.688579
_cell_angle_alpha 90.000000
_cell_angle_beta 90.000000
_cell_angle_gamma 90.000000
_cell_volume 9146.795840
_symmetry_space_group_name_H-M "I 4/M C M"
_symmetry_group_IT_number 140
_symmetry_cell_setting 'tetragonal'
loop_
_space_group_symop_operation_xyz
x,y,z
-y,x,z
-x,-y,z
y,-x,z
x,-y,1/2-z
-x,y,1/2-z
y,x,1/2-z
-y,-x,1/2-z
-x,-y,-z
y,-x,-z
x,y,-z
-y,x,-z
-x,y,1/2+z
x,-y,1/2+z
-y,-x,1/2+z
y,x,1/2+z
1/2+x,1/2+y,1/2+z
1/2-y,1/2+x,1/2+z
1/2-x,1/2-y,1/2+z
1/2+y,1/2-x,1/2+z
1/2+x,1/2-y,-z
1/2-x,1/2+y,-z
1/2+y,1/2+x,-z
1/2-y,1/2-x,-z
1/2-x,1/2-y,1/2-z
1/2+y,1/2-x,1/2-z
1/2+x,1/2+y,1/2-z
1/2-y,1/2+x,1/2-z
1/2-x,1/2+y,z
1/2+x,1/2-y,z
1/2-y,1/2-x,z
1/2+y,1/2+x,z
loop_
_atom_site_type_symbol
_atom_site_label
_atom_site_fract_x
_atom_site_fract_y
_atom_site_fract_z
Si Si1 0.395992 0.663783 0.796469
Si Si2 0.416949 0.144140 0.000000
Si Si3 0.896983 0.044200 0.799274
Si Si4 0.208496 0.648104 0.000000
Si Si5 0.749114 0.892123 0.298272
Si Si6 0.314137 0.956555 0.199724
O O1 0.353862 0.646139 0.750000
O O2 0.429487 0.636621 0.708893
O O3 0.400206 0.707544 0.728096
O O4 0.401653 0.664996 0.000000
O O5 0.442370 0.151050 0.825597
O O6 0.399744 0.100257 0.000000
O O7 0.381731 0.173493 0.000000
O O8 0.939472 0.060529 0.750000
O O9 0.892981 0.000000 0.750000
O O10 0.890814 0.048469 0.000000
O O11 0.232860 0.642242 0.176990
O O12 0.191768 0.691768 0.000000
O O13 0.747982 0.878507 0.500000
O O14 0.724446 0.931191 0.270926
O O15 0.302364 0.000000 0.250000
O O16 0.328506 0.953580 0.000000
#
# Coordination Sequence:
#
# PCOD8320066 Si02
#       6
#    32  16  32  16  32  32
#     4   9  19  34  51  73  97 127 167 208 249 299
#     4   9  18  32  48  72 104 136 175 210 244 301
#     4  10  20  35  52  72  98 126 162 206 253 301
#     4   9  18  32  52  76  99 131 172 208 250 305
#     4   9  19  33  49  75 103 133 171 205 254 308
#     4  10  18  30  49  73 106 139 164 206 258 302
#
# _framework density 17.492463999999998
#
# number of rings (size 3 to 8) (size 9 to 14) (size 15 to 20)
#    0.000    2.600    1.000    0.600    1.400    2.600 
#    0.000    5.000    0.000    0.600    0.000    0.000 
#    0.000    1.200    0.000    0.000    0.000    0.000 
#
# Total GULP energy -991560.586773 kJ/mol
# GULP energy per Si atom -12394.507335 kJ/mol
# Density = 1.745265 g / cm^3
# Si number density = 17.492464 Si / 1000 Ang^3
#
#
#
# Elastic Constant Matrix: (Units=GPa)
#
#
# Indices 1 2 3 4 5 6 
#
# 1 93.0991 77.0576 45.4218 0.0000 0.0000 0.0000
# 2 77.0576 93.1002 45.4251 0.0000 0.0000 0.0000
# 3 45.4218 45.4251 94.3997 0.0000 0.0000 0.0000
# 4 0.0000 0.0000 0.0000 21.6706 0.0000 0.0000
# 5 0.0000 0.0000 0.0000 0.0000 21.6704 0.0000
# 6 0.0000 0.0000 0.0000 0.0000 0.0000 19.1026
#
#
#
# Elastic Compliance Matrix: (Units=1/GPa)
#
#
# Indices 1 2 3 4 5 6 
#
# 1 0.035122 -0.027214 -0.003804 0.000000 0.000000 0.000000
# 2 -0.027214 0.035123 -0.003807 0.000000 0.000000 0.000000
# 3 -0.003804 -0.003807 0.014256 0.000000 0.000000 0.000000
# 4 0.000000 0.000000 0.000000 0.046146 0.000000 0.000000
# 5 0.000000 0.000000 0.000000 0.000000 0.046146 0.000000
# 6 0.000000 0.000000 0.000000 0.000000 0.000000 0.052349
#
#
# Mechanical properties :
#
#
# Convention : Reuss Voigt Hill
#
# Bulk Modulus (GPa) = 67.33626 68.48979 67.91302
# Shear Modulus (GPa) = 16.46140 20.00167 18.23154
#
# Velocity S-wave (km/s) = 3.07099 3.38515 3.23189
# Velocity P-wave (km/s) = 7.15211 7.38362 7.26879
#
# Compressibility (1/GPa) = 0.01485084
#
# Stress axis : x y z
#
# Youngs Moduli (GPa) = 28.47224 28.47137 70.14817
#
# Poissons Ratio (x) = 0.77481 0.26685
# Poissons Ratio (y) = 0.77484 0.26705
# Poissons Ratio (z) = 0.10831 0.10839
#
# Static dielectric constant tensor:
#      x y z
#    x 3.729160 0.000000 0.000000 
#    y 0.000000 3.729480 0.000000 
#    z 0.000000 0.000000 3.428680 
# 
# 
# High freq. dielectric constant tensor:
#      x y z
#    x 1.656510 0.000000 0.000000 
#    y 0.000000 1.656510 0.000000 
#    z 0.000000 0.000000 1.689110 
# 
# From -- ./inp_files/1846.got.cif
#   From: 2010.06.25/outbox.cif.g09.slc.cpg/sg140_1_cif.got.tgz:1846.got - 2010.06.28 10:53:23.
