data_PCOD8320188
_publ_section_title
;
Structure prediction by ZEFSAII (Michael W. Deem and Ramdas Pophale) SiO2 
 PCOD8320188
Probable space group: I 4/M C M
;
_chemical_formula_sum "Si O2"
_cell_formula_units_Z 160
_cell_length_a 23.171587
_cell_length_b 23.171587
_cell_length_c 14.279955
_cell_angle_alpha 90.000000
_cell_angle_beta 90.000000
_cell_angle_gamma 90.000000
_cell_volume 7667.228340
_symmetry_space_group_name_H-M "I 4/M C M"
_symmetry_group_IT_number 140
_symmetry_cell_setting 'tetragonal'
loop_
_space_group_symop_operation_xyz
x,y,z
-y,x,z
-x,-y,z
y,-x,z
x,-y,1/2-z
-x,y,1/2-z
y,x,1/2-z
-y,-x,1/2-z
-x,-y,-z
y,-x,-z
x,y,-z
-y,x,-z
-x,y,1/2+z
x,-y,1/2+z
-y,-x,1/2+z
y,x,1/2+z
1/2+x,1/2+y,1/2+z
1/2-y,1/2+x,1/2+z
1/2-x,1/2-y,1/2+z
1/2+y,1/2-x,1/2+z
1/2+x,1/2-y,-z
1/2-x,1/2+y,-z
1/2+y,1/2+x,-z
1/2-y,1/2-x,-z
1/2-x,1/2-y,1/2-z
1/2+y,1/2-x,1/2-z
1/2+x,1/2+y,1/2-z
1/2-y,1/2+x,1/2-z
1/2-x,1/2+y,z
1/2+x,1/2-y,z
1/2-y,1/2-x,z
1/2+y,1/2+x,z
loop_
_atom_site_type_symbol
_atom_site_label
_atom_site_fract_x
_atom_site_fract_y
_atom_site_fract_z
Si Si1 0.499215 0.331280 0.861592
Si Si2 0.761304 0.830031 0.394832
Si Si3 0.202796 0.481817 0.604603
Si Si4 0.379358 0.619567 0.640550
Si Si5 0.682442 0.088699 0.780059
O O1 0.500000 0.324968 0.750000
O O2 0.500939 0.268590 0.906338
O O3 0.441670 0.362776 0.900021
O O4 0.556172 0.363982 0.899369
O O5 0.743321 0.848267 0.500000
O O6 0.733959 0.766042 0.373708
O O7 0.830939 0.832103 0.386061
O O8 0.736493 0.875957 0.321215
O O9 0.177918 0.469165 0.500000
O O10 0.168649 0.533646 0.655065
O O11 0.197825 0.426273 0.672332
O O12 0.384963 0.615037 0.750000
O O13 0.624491 0.124491 0.782109
#
# Coordination Sequence:
#
# PCOD8320188 Si02
#       5
#    32  32  32  32  32
#     4  10  19  36  56  83 119 164 208 257 314 362
#     4  10  20  36  60  88 119 161 213 264 316 381
#     4  11  21  37  62  90 124 162 204 252 313 377
#     4  10  20  34  56  82 119 163 211 260 312 366
#     4  10  20  37  62  91 123 158 204 257 307 368
#
# _framework density 20.868034999999999
#
# number of rings (size 3 to 8) (size 9 to 14) (size 15 to 20)
#    0.000    1.800    4.000    1.800    0.000    3.200 
#    0.000    3.000    0.000    4.800    0.000    8.400 
#    0.000    0.000    0.000    0.000    0.000    0.000 
#
# Total GULP energy -991634.601463 kJ/mol
# GULP energy per Si atom -12395.432518 kJ/mol
# Density = 2.082054 g / cm^3
# Si number density = 20.868035 Si / 1000 Ang^3
#
#
#
# Elastic Constant Matrix: (Units=GPa)
#
#
# Indices 1 2 3 4 5 6 
#
# 1 107.9038 72.6921 23.6995 0.0000 0.0000 0.0000
# 2 72.6921 107.9044 23.7000 0.0000 0.0000 0.0000
# 3 23.6995 23.7000 125.2520 0.0000 0.0000 0.0000
# 4 0.0000 0.0000 0.0000 4.1619 0.0000 0.0000
# 5 0.0000 0.0000 0.0000 0.0000 4.1621 0.0000
# 6 0.0000 0.0000 0.0000 0.0000 0.0000 34.4348
#
#
#
# Elastic Compliance Matrix: (Units=1/GPa)
#
#
# Indices 1 2 3 4 5 6 
#
# 1 0.017113 -0.011286 -0.001102 0.000000 0.000000 0.000000
# 2 -0.011286 0.017113 -0.001103 0.000000 0.000000 0.000000
# 3 -0.001102 -0.001103 0.008401 0.000000 0.000000 0.000000
# 4 0.000000 0.000000 0.000000 0.240276 0.000000 0.000000
# 5 0.000000 0.000000 0.000000 0.000000 0.240266 0.000000
# 6 0.000000 0.000000 0.000000 0.000000 0.000000 0.029040
#
#
# Mechanical properties :
#
#
# Convention : Reuss Voigt Hill
#
# Bulk Modulus (GPa) = 63.92089 64.58259 64.25174
# Shear Modulus (GPa) = 8.55568 23.28298 15.91933
#
# Velocity S-wave (km/s) = 2.02702 3.34387 2.76498
# Velocity P-wave (km/s) = 6.01464 6.77672 6.40702
#
# Compressibility (1/GPa) = 0.01564434
#
# Stress axis : x y z
#
# Youngs Moduli (GPa) = 58.43498 58.43518 119.03172
#
# Poissons Ratio (x) = 0.65952 0.13122
# Poissons Ratio (y) = 0.65952 0.13124
# Poissons Ratio (z) = 0.06442 0.06443
#
# Static dielectric constant tensor:
#      x y z
#    x 3.882470 0.000000 0.000000 
#    y 0.000000 3.882460 0.000000 
#    z 0.000000 0.000000 3.889980 
# 
# 
# High freq. dielectric constant tensor:
#      x y z
#    x 1.800700 0.000000 0.000000 
#    y 0.000000 1.800700 0.000000 
#    z 0.000000 0.000000 1.827870 
# 
# From -- ./inp_files/4704.got.cif
#   From: 2010.06.25/outbox.cif.g09.slc.cpg/sg140_3_cif.got.tgz:4704.got - 2010.06.28 10:53:23.
