data_PCOD8320629
_publ_section_title
;
Structure prediction by ZEFSAII (Michael W. Deem and Ramdas Pophale) SiO2 
 PCOD8320629
Probable space group: I 41/A M D
;
_chemical_formula_sum "Si O2"
_cell_formula_units_Z 176
_cell_length_a 17.418273
_cell_length_b 17.418273
_cell_length_c 27.438110
_cell_angle_alpha 90.000000
_cell_angle_beta 90.000000
_cell_angle_gamma 90.000000
_cell_volume 8324.619250
_symmetry_space_group_name_H-M "I 41/A M D"
_symmetry_group_IT_number 141
_space_group.IT_coordinate_system_code '2'
_symmetry_cell_setting 'tetragonal'
loop_
_space_group_symop_operation_xyz
x,y,z
1/4-y,3/4+x,1/4+z
-x,1/2-y,z
1/4+y,1/4-x,3/4+z
x,-y,-z
-x,1/2+y,-z
1/4+y,3/4+x,1/4-z
1/4-y,1/4-x,3/4-z
-x,-y,-z
3/4+y,1/4-x,3/4-z
x,1/2+y,-z
3/4-y,3/4+x,1/4-z
-x,y,z
x,1/2-y,z
3/4-y,1/4-x,3/4+z
3/4+y,3/4+x,1/4+z
1/2+x,1/2+y,1/2+z
3/4-y,1/4+x,3/4+z
1/2-x,-y,1/2+z
3/4+y,3/4-x,1/4+z
1/2+x,1/2-y,1/2-z
1/2-x,y,1/2-z
3/4+y,1/4+x,3/4-z
3/4-y,3/4-x,1/4-z
1/2-x,1/2-y,1/2-z
1/4+y,3/4-x,1/4-z
1/2+x,y,1/2-z
1/4-y,1/4+x,3/4-z
1/2-x,1/2+y,1/2+z
1/2+x,-y,1/2+z
1/4-y,3/4-x,1/4+z
1/4+y,1/4+x,3/4+z
loop_
_atom_site_type_symbol
_atom_site_label
_atom_site_fract_x
_atom_site_fract_y
_atom_site_fract_z
Si Si1 0.410155 0.433758 0.900348
Si Si2 0.160860 0.930676 0.759767
Si Si3 0.356000 0.836059 0.828551
Si Si4 0.643392 0.915056 0.475729
Si Si5 0.408925 0.841075 0.375000
Si Si6 0.582605 0.160215 0.434809
O O1 0.500000 0.419601 0.906601
O O2 0.368035 0.387153 0.943115
O O3 0.388933 0.522985 0.900905
O O4 0.376516 0.399465 0.849794
O O5 0.250000 0.916794 0.750000
O O6 0.115871 0.895426 0.713128
O O7 0.140618 0.018251 0.769631
O O8 0.412175 0.837825 0.875000
O O9 0.354462 0.750000 0.806653
O O10 0.614921 0.897824 0.420344
O O11 0.595868 0.857304 0.508830
O O12 0.630188 0.000000 0.500000
O O13 0.500000 0.854719 0.363435
O O14 0.500000 0.125655 0.419120
O O15 0.580994 0.250000 0.428026
#
# Coordination Sequence:
#
# PCOD8320629 Si02
#       6
#    32  32  32  32  16  32
#     4   9  18  34  58  84 112 152 202 247 298 361
#     4   9  19  36  57  86 117 154 195 254 308 359
#     4  10  19  33  55  82 117 160 203 247 300 367
#     4  11  24  40  63  94 124 158 203 257 310 367
#     4  11  26  48  70  94 130 172 210 256 319 384
#     4  10  21  38  58  81 114 154 194 241 300 363
#
# _framework density 21.142106999999999
#
# number of rings (size 3 to 8) (size 9 to 14) (size 15 to 20)
#    0.000    2.091    0.000    2.727    2.545    5.273 
#    3.273    2.727    0.000    2.182    0.000    0.000 
#    0.000    0.000    0.000    0.000    0.000    0.000 
#
# Total GULP energy -1090472.228954 kJ/mol
# GULP energy per Si atom -12391.729874 kJ/mol
# Density = 2.109399 g / cm^3
# Si number density = 21.142107 Si / 1000 Ang^3
#
#
#
# Elastic Constant Matrix: (Units=GPa)
#
#
# Indices 1 2 3 4 5 6 
#
# 1 67.7921 29.5522 41.8779 0.0000 0.0000 0.0000
# 2 29.5522 67.7915 41.8779 0.0000 0.0000 0.0000
# 3 41.8779 41.8779 141.7224 0.0000 0.0000 0.0000
# 4 0.0000 0.0000 0.0000 29.3973 0.0000 0.0000
# 5 0.0000 0.0000 0.0000 0.0000 29.3969 0.0000
# 6 0.0000 0.0000 0.0000 0.0000 0.0000 22.5859
#
#
#
# Elastic Compliance Matrix: (Units=1/GPa)
#
#
# Indices 1 2 3 4 5 6 
#
# 1 0.019963 -0.006188 -0.004070 0.000000 0.000000 0.000000
# 2 -0.006188 0.019963 -0.004070 0.000000 0.000000 0.000000
# 3 -0.004070 -0.004070 0.009462 0.000000 0.000000 0.000000
# 4 0.000000 0.000000 0.000000 0.034017 0.000000 0.000000
# 5 0.000000 0.000000 0.000000 0.000000 0.034017 0.000000
# 6 0.000000 0.000000 0.000000 0.000000 0.000000 0.044275
#
#
# Mechanical properties :
#
#
# Convention : Reuss Voigt Hill
#
# Bulk Modulus (GPa) = 48.23914 55.99133 52.11524
# Shear Modulus (GPa) = 25.34667 27.20921 26.27794
#
# Velocity S-wave (km/s) = 3.46623 3.59133 3.52933
# Velocity P-wave (km/s) = 6.23585 6.61344 6.42742
#
# Compressibility (1/GPa) = 0.02073005
#
# Stress axis : x y z
#
# Youngs Moduli (GPa) = 50.09297 50.09234 105.69021
#
# Poissons Ratio (x) = 0.30997 0.43020
# Poissons Ratio (y) = 0.30997 0.43021
# Poissons Ratio (z) = 0.20390 0.20390
#
# Static dielectric constant tensor:
#      x y z
#    x 3.826330 0.000000 0.000000 
#    y 0.000000 3.826360 0.000000 
#    z 0.000000 0.000000 4.145320 
# 
# 
# High freq. dielectric constant tensor:
#      x y z
#    x 1.816010 0.000000 0.000000 
#    y 0.000000 1.816010 0.000000 
#    z 0.000000 0.000000 1.839570 
# 
# From -- ./inp_files/12907.got.cif
#   From: 2010.03.12/outbox.cif.g09.slc.cpg/sg141_7_cif.got.tgz:12907.got - 2010.04.03 13:18:35.
