data_PCOD8320652
_publ_section_title
;
Structure prediction by ZEFSAII (Michael W. Deem and Ramdas Pophale) SiO2 
 PCOD8320652
Probable space group: I 41/A M D
;
_chemical_formula_sum "Si O2"
_cell_formula_units_Z 120
_cell_length_a 14.288431
_cell_length_b 14.288431
_cell_length_c 27.368196
_cell_angle_alpha 90.000000
_cell_angle_beta 90.000000
_cell_angle_gamma 90.000000
_cell_volume 5587.470655
_symmetry_space_group_name_H-M "I 41/A M D"
_symmetry_group_IT_number 141
_space_group.IT_coordinate_system_code '2'
_symmetry_cell_setting 'tetragonal'
loop_
_space_group_symop_operation_xyz
x,y,z
1/4-y,3/4+x,1/4+z
-x,1/2-y,z
1/4+y,1/4-x,3/4+z
x,-y,-z
-x,1/2+y,-z
1/4+y,3/4+x,1/4-z
1/4-y,1/4-x,3/4-z
-x,-y,-z
3/4+y,1/4-x,3/4-z
x,1/2+y,-z
3/4-y,3/4+x,1/4-z
-x,y,z
x,1/2-y,z
3/4-y,1/4-x,3/4+z
3/4+y,3/4+x,1/4+z
1/2+x,1/2+y,1/2+z
3/4-y,1/4+x,3/4+z
1/2-x,-y,1/2+z
3/4+y,3/4-x,1/4+z
1/2+x,1/2-y,1/2-z
1/2-x,y,1/2-z
3/4+y,1/4+x,3/4-z
3/4-y,3/4-x,1/4-z
1/2-x,1/2-y,1/2-z
1/4+y,3/4-x,1/4-z
1/2+x,y,1/2-z
1/4-y,1/4+x,3/4-z
1/2-x,1/2+y,1/2+z
1/2+x,-y,1/2+z
1/4-y,3/4-x,1/4+z
1/4+y,1/4+x,3/4+z
loop_
_atom_site_type_symbol
_atom_site_label
_atom_site_fract_x
_atom_site_fract_y
_atom_site_fract_z
Si Si1 0.649869 0.750000 0.861694
Si Si2 0.859181 0.250000 0.104584
Si Si3 0.000000 0.750000 0.271878
Si Si4 0.327403 0.577403 0.375000
Si Si5 0.655213 0.853744 0.073272
Si Si6 0.893223 0.750000 0.180599
Si Si7 0.500000 0.138700 0.002752
O O1 0.593094 0.656907 0.875000
O O2 0.745936 0.750000 0.892360
O O3 0.668985 0.750000 0.803286
O O4 0.903105 0.339895 0.129817
O O5 0.901001 0.250000 0.050268
O O6 0.095445 0.750000 0.239367
O O7 0.326255 0.487920 0.338841
O O8 0.412984 0.582123 0.412464
O O9 0.695944 0.750000 0.061994
O O10 0.593637 0.890003 0.027253
O O11 0.000000 0.750000 0.159068
O O12 0.500000 0.250000 0.013360
#
# Coordination Sequence:
#
# PCOD8320652 Si02
#       7
#    16  16   8  16  32  16  16
#     4  11  24  42  67  96 129 165 214 283 334 384
#     4  11  23  44  63  88 128 174 222 266 331 381
#     4  10  22  41  64  92 130 184 211 258 318 380
#     4  12  19  38  62 104 125 172 216 264 324 372
#     4  10  21  37  69  88 127 173 213 267 318 399
#     4  10  19  35  61  87 136 166 206 257 305 384
#     4   9  19  42  65  95 122 172 218 264 336 392
#
# _framework density 21.476623
#
# number of rings (size 3 to 8) (size 9 to 14) (size 15 to 20)
#    0.400    1.200    5.333    0.800    1.867    4.267 
#    0.000    2.667    5.867    0.000    0.000    0.000 
#    0.000    0.000    0.000    0.000    0.000    0.000 
#
# Total GULP energy -743463.997687 kJ/mol
# GULP energy per Si atom -12391.066628 kJ/mol
# Density = 2.142774 g / cm^3
# Si number density = 21.476623 Si / 1000 Ang^3
#
#
#
# Elastic Constant Matrix: (Units=GPa)
#
#
# Indices 1 2 3 4 5 6 
#
# 1 121.0966 31.0104 47.1277 0.0000 0.0000 0.0000
# 2 31.0104 121.0974 47.1283 0.0000 0.0000 0.0000
# 3 47.1277 47.1283 157.1852 0.0000 0.0000 0.0000
# 4 0.0000 0.0000 0.0000 13.1722 0.0000 0.0000
# 5 0.0000 0.0000 0.0000 0.0000 13.1752 0.0000
# 6 0.0000 0.0000 0.0000 0.0000 0.0000 26.6196
#
#
#
# Elastic Compliance Matrix: (Units=1/GPa)
#
#
# Indices 1 2 3 4 5 6 
#
# 1 0.009587 -0.001513 -0.002421 0.000000 0.000000 0.000000
# 2 -0.001513 0.009587 -0.002421 0.000000 0.000000 0.000000
# 3 -0.002421 -0.002421 0.007814 0.000000 0.000000 0.000000
# 4 0.000000 0.000000 0.000000 0.075917 0.000000 0.000000
# 5 0.000000 0.000000 0.000000 0.000000 0.075900 0.000000
# 6 0.000000 0.000000 0.000000 0.000000 0.000000 0.037566
#
#
# Mechanical properties :
#
#
# Convention : Reuss Voigt Hill
#
# Bulk Modulus (GPa) = 70.03355 72.21244 71.12300
# Shear Modulus (GPa) = 21.38200 28.86760 25.12480
#
# Velocity S-wave (km/s) = 3.15873 3.67023 3.42404
# Velocity P-wave (km/s) = 6.78111 7.18732 6.98716
#
# Compressibility (1/GPa) = 0.01427887
#
# Stress axis : x y z
#
# Youngs Moduli (GPa) = 104.30279 104.30329 127.98154
#
# Poissons Ratio (x) = 0.15781 0.30983
# Poissons Ratio (y) = 0.15781 0.30984
# Poissons Ratio (z) = 0.25251 0.25251
#
# Static dielectric constant tensor:
#      x y z
#    x 5.612750 0.000000 0.000000 
#    y 0.000000 5.613360 0.000000 
#    z 0.000000 0.000000 3.822050 
# 
# 
# High freq. dielectric constant tensor:
#      x y z
#    x 1.833600 0.000000 0.000000 
#    y 0.000000 1.833600 0.000000 
#    z 0.000000 0.000000 1.838460 
# 
# From -- ./inp_files/14177.got.cif
#   From: 2010.03.12/outbox.cif.g09.slc.cpg/sg141_8_cif.got.tgz:14177.got - 2010.04.03 13:18:35.
