data_PCOD8320096
_publ_section_title
;
Structure prediction by ZEFSAII (Michael W. Deem and Ramdas Pophale) SiO2 
 PCOD8320096
Probable space group: I 4/M C M
;
_chemical_formula_sum "Si O2"
_cell_formula_units_Z 144
_cell_length_a 31.423344
_cell_length_b 31.423344
_cell_length_c 9.006051
_cell_angle_alpha 90.000000
_cell_angle_beta 90.000000
_cell_angle_gamma 90.000000
_cell_volume 8892.813851
_symmetry_space_group_name_H-M "I 4/M C M"
_symmetry_group_IT_number 140
_symmetry_cell_setting 'tetragonal'
loop_
_space_group_symop_operation_xyz
x,y,z
-y,x,z
-x,-y,z
y,-x,z
x,-y,1/2-z
-x,y,1/2-z
y,x,1/2-z
-y,-x,1/2-z
-x,-y,-z
y,-x,-z
x,y,-z
-y,x,-z
-x,y,1/2+z
x,-y,1/2+z
-y,-x,1/2+z
y,x,1/2+z
1/2+x,1/2+y,1/2+z
1/2-y,1/2+x,1/2+z
1/2-x,1/2-y,1/2+z
1/2+y,1/2-x,1/2+z
1/2+x,1/2-y,-z
1/2-x,1/2+y,-z
1/2+y,1/2+x,-z
1/2-y,1/2-x,-z
1/2-x,1/2-y,1/2-z
1/2+y,1/2-x,1/2-z
1/2+x,1/2+y,1/2-z
1/2-y,1/2+x,1/2-z
1/2-x,1/2+y,z
1/2+x,1/2-y,z
1/2-y,1/2-x,z
1/2+y,1/2+x,z
loop_
_atom_site_type_symbol
_atom_site_label
_atom_site_fract_x
_atom_site_fract_y
_atom_site_fract_z
Si Si1 0.824868 0.879004 0.338389
Si Si2 0.458895 0.324036 0.165664
Si Si3 0.777507 0.457138 0.831557
Si Si4 0.273336 0.873543 0.165977
Si Si5 0.783705 0.283705 0.179098
O O1 0.835725 0.835725 0.250000
O O2 0.846363 0.877105 0.500000
O O3 0.844172 0.918371 0.247571
O O4 0.775265 0.884972 0.356406
O O5 0.500000 0.340963 0.250000
O O6 0.456935 0.273170 0.166045
O O7 0.460155 0.341894 0.000000
O O8 0.794227 0.500000 0.750000
O O9 0.794798 0.414486 0.747159
O O10 0.795287 0.456743 0.000000
O O11 0.274978 0.831638 0.267547
O O12 0.293480 0.866564 0.000000
O O13 0.750000 0.250000 0.250000
O O14 0.780508 0.280508 0.000000
#
# Coordination Sequence:
#
# PCOD8320096 Si02
#       5
#    32  32  32  32  16
#     4  10  19  29  42  59  79 103 132 166 205 246
#     4   9  16  26  40  57  78 101 125 155 195 243
#     4   9  16  27  44  65  86 108 136 173 218 266
#     4  10  20  33  47  63  84 112 147 186 225 264
#     4  12  24  36  48  62  84 118 160 201 236 271
#
# _framework density 16.192851000000001
#
# number of rings (size 3 to 8) (size 9 to 14) (size 15 to 20)
#    0.000    2.222    0.000    4.333    0.000    9.778 
#    0.000    0.000    0.000    0.000    0.000    0.000 
#    0.000    0.444    0.000    4.444    0.000    3.667 
#
# Total GULP energy -892202.503099 kJ/mol
# GULP energy per Si atom -12391.701432 kJ/mol
# Density = 1.615600 g / cm^3
# Si number density = 16.192851 Si / 1000 Ang^3
#
#
#
# Elastic Constant Matrix: (Units=GPa)
#
#
# Indices 1 2 3 4 5 6 
#
# 1 61.6699 13.2206 39.0042 0.0000 0.0000 0.0000
# 2 13.2206 61.6699 39.0042 0.0000 0.0000 0.0000
# 3 39.0042 39.0042 172.6540 0.0000 0.0000 0.0000
# 4 0.0000 0.0000 0.0000 8.4789 0.0000 0.0000
# 5 0.0000 0.0000 0.0000 0.0000 8.4789 0.0000
# 6 0.0000 0.0000 0.0000 0.0000 0.0000 5.5267
#
#
#
# Elastic Compliance Matrix: (Units=1/GPa)
#
#
# Indices 1 2 3 4 5 6 
#
# 1 0.019051 -0.001589 -0.003945 0.000000 0.000000 0.000000
# 2 -0.001589 0.019051 -0.003945 0.000000 0.000000 0.000000
# 3 -0.003945 -0.003945 0.007574 0.000000 0.000000 0.000000
# 4 0.000000 0.000000 0.000000 0.117940 0.000000 0.000000
# 5 0.000000 0.000000 0.000000 0.000000 0.117940 0.000000
# 6 0.000000 0.000000 0.000000 0.000000 0.000000 0.180939
#
#
# Mechanical properties :
#
#
# Convention : Reuss Voigt Hill
#
# Bulk Modulus (GPa) = 37.42683 53.16131 45.29407
# Shear Modulus (GPa) = 10.19659 18.14786 14.17223
#
# Velocity S-wave (km/s) = 2.51210 3.35137 2.96161
# Velocity P-wave (km/s) = 5.61939 6.91932 6.30295
#
# Compressibility (1/GPa) = 0.02671880
#
# Stress axis : x y z
#
# Youngs Moduli (GPa) = 52.49064 52.49064 132.02585
#
# Poissons Ratio (x) = 0.08341 0.52082
# Poissons Ratio (y) = 0.08341 0.52082
# Poissons Ratio (z) = 0.20707 0.20707
#
# Static dielectric constant tensor:
#      x y z
#    x 2.842710 0.000000 0.000000 
#    y 0.000000 2.842710 0.000000 
#    z 0.000000 0.000000 3.576690 
# 
# 
# High freq. dielectric constant tensor:
#      x y z
#    x 1.580150 0.000000 0.000000 
#    y 0.000000 1.580150 0.000000 
#    z 0.000000 0.000000 1.653900 
# 
# From -- ./inp_files/1606.got.cif
#   From: 2010.06.25/outbox.cif.g09.slc.cpg/sg140_1_cif.got.tgz:1606.got - 2010.06.28 10:53:23.
