data_PCOD8320664
_publ_section_title
;
Structure prediction by ZEFSAII (Michael W. Deem and Ramdas Pophale) SiO2 
 PCOD8320664
Probable space group: I 41/A M D
;
_chemical_formula_sum "Si O2"
_cell_formula_units_Z 112
_cell_length_a 19.610833
_cell_length_b 19.610833
_cell_length_c 16.880647
_cell_angle_alpha 90.000000
_cell_angle_beta 90.000000
_cell_angle_gamma 90.000000
_cell_volume 6492.039760
_symmetry_space_group_name_H-M "I 41/A M D"
_symmetry_group_IT_number 141
_space_group.IT_coordinate_system_code '2'
_symmetry_cell_setting 'tetragonal'
loop_
_space_group_symop_operation_xyz
x,y,z
1/4-y,3/4+x,1/4+z
-x,1/2-y,z
1/4+y,1/4-x,3/4+z
x,-y,-z
-x,1/2+y,-z
1/4+y,3/4+x,1/4-z
1/4-y,1/4-x,3/4-z
-x,-y,-z
3/4+y,1/4-x,3/4-z
x,1/2+y,-z
3/4-y,3/4+x,1/4-z
-x,y,z
x,1/2-y,z
3/4-y,1/4-x,3/4+z
3/4+y,3/4+x,1/4+z
1/2+x,1/2+y,1/2+z
3/4-y,1/4+x,3/4+z
1/2-x,-y,1/2+z
3/4+y,3/4-x,1/4+z
1/2+x,1/2-y,1/2-z
1/2-x,y,1/2-z
3/4+y,1/4+x,3/4-z
3/4-y,3/4-x,1/4-z
1/2-x,1/2-y,1/2-z
1/4+y,3/4-x,1/4-z
1/2+x,y,1/2-z
1/4-y,1/4+x,3/4-z
1/2-x,1/2+y,1/2+z
1/2+x,-y,1/2+z
1/4-y,3/4-x,1/4+z
1/4+y,1/4+x,3/4+z
loop_
_atom_site_type_symbol
_atom_site_label
_atom_site_fract_x
_atom_site_fract_y
_atom_site_fract_z
Si Si1 0.420323 0.672933 0.596044
Si Si2 0.722632 0.500000 0.500000
Si Si3 0.343376 0.676283 0.433040
Si Si4 0.789992 0.888326 0.403395
O O1 0.500000 0.659894 0.575639
O O2 0.410841 0.750000 0.629964
O O3 0.373535 0.662580 0.519245
O O4 0.392752 0.616623 0.658367
O O5 0.672436 0.472903 0.431941
O O6 0.775754 0.443036 0.528373
O O7 0.368568 0.750000 0.403448
O O8 0.367885 0.617885 0.375000
O O9 0.261622 0.673265 0.425670
#
# Coordination Sequence:
#
# PCOD8320664 Si02
#       4
#    32  16  32  32
#     4  10  21  35  51  75 108 141 174 212 258 314
#     4  10  20  30  56  72 104 128 178 216 260 294
#     4  11  20  30  48  74 107 143 176 206 247 306
#     4  11  18  36  50  77 100 140 170 223 256 306
#
# _framework density 17.251897
#
# number of rings (size 3 to 8) (size 9 to 14) (size 15 to 20)
#    0.000    1.429    5.714    1.714    0.000    1.429 
#    0.000    5.000    0.000    0.000    0.000    0.000 
#    0.000    9.143    0.000    0.000    0.000    0.000 
#
# Total GULP energy -693759.146044 kJ/mol
# GULP energy per Si atom -12388.556179 kJ/mol
# Density = 1.721263 g / cm^3
# Si number density = 17.251897 Si / 1000 Ang^3
#
#
#
# Elastic Constant Matrix: (Units=GPa)
#
#
# Indices 1 2 3 4 5 6 
#
# 1 108.5343 57.4143 26.4489 0.0000 0.0000 0.0000
# 2 57.4143 108.5343 26.4489 0.0000 0.0000 0.0000
# 3 26.4489 26.4489 40.6315 0.0000 0.0000 0.0000
# 4 0.0000 0.0000 0.0000 14.8468 0.0000 0.0000
# 5 0.0000 0.0000 0.0000 0.0000 14.8468 0.0000
# 6 0.0000 0.0000 0.0000 0.0000 0.0000 33.7101
#
#
#
# Elastic Compliance Matrix: (Units=1/GPa)
#
#
# Indices 1 2 3 4 5 6 
#
# 1 0.013583 -0.005979 -0.004950 0.000000 0.000000 0.000000
# 2 -0.005979 0.013583 -0.004950 0.000000 0.000000 0.000000
# 3 -0.004950 -0.004950 0.031055 0.000000 0.000000 0.000000
# 4 0.000000 0.000000 0.000000 0.067355 0.000000 0.000000
# 5 0.000000 0.000000 0.000000 0.000000 0.067355 0.000000
# 6 0.000000 0.000000 0.000000 0.000000 0.000000 0.029665
#
#
# Mechanical properties :
#
#
# Convention : Reuss Voigt Hill
#
# Bulk Modulus (GPa) = 37.78678 53.14715 45.46696
# Shear Modulus (GPa) = 18.99895 22.50660 20.75278
#
# Velocity S-wave (km/s) = 3.32213 3.61583 3.47209
# Velocity P-wave (km/s) = 6.05524 6.95023 6.51812
#
# Compressibility (1/GPa) = 0.02646428
#
# Stress axis : x y z
#
# Youngs Moduli (GPa) = 73.62272 73.62272 32.20067
#
# Poissons Ratio (x) = 0.44020 0.15938
# Poissons Ratio (y) = 0.44020 0.15938
# Poissons Ratio (z) = 0.36440 0.36440
#
# Static dielectric constant tensor:
#      x y z
#    x 3.410200 0.000000 0.000000 
#    y 0.000000 3.410200 0.000000 
#    z 0.000000 0.000000 3.007230 
# 
# 
# High freq. dielectric constant tensor:
#      x y z
#    x 1.676050 0.000000 0.000000 
#    y 0.000000 1.676050 0.000000 
#    z 0.000000 0.000000 1.622120 
# 
# From -- ./inp_files/7939.got.cif
#   From: 2010.03.12/outbox.cif.g09.slc.cpg/sg141_4_cif.got.tgz:7939.got - 2010.04.03 13:18:35.
