data_PCOD8320979
_publ_section_title
;
Structure prediction by ZEFSAII (Michael W. Deem and Ramdas Pophale) SiO2 
 PCOD8320979
Probable space group: I 41/A C D
;
_chemical_formula_sum "Si O2"
_cell_formula_units_Z 160
_cell_length_a 25.390775
_cell_length_b 25.390775
_cell_length_c 13.221660
_cell_angle_alpha 90.000000
_cell_angle_beta 90.000000
_cell_angle_gamma 90.000000
_cell_volume 8523.891224
_symmetry_space_group_name_H-M "I 41/A C D"
_symmetry_group_IT_number 142
_space_group.IT_coordinate_system_code '2'
_symmetry_cell_setting 'tetragonal'
loop_
_space_group_symop_operation_xyz
x,y,z
1/4-y,3/4+x,1/4+z
-x,1/2-y,z
1/4+y,1/4-x,3/4+z
x,-y,1/2-z
1/2-x,y,-z
3/4+y,1/4+x,1/4-z
1/4-y,1/4-x,1/4-z
-x,-y,-z
3/4+y,1/4-x,3/4-z
x,1/2+y,-z
3/4-y,3/4+x,1/4-z
-x,y,1/2+z
1/2+x,-y,z
1/4-y,3/4-x,3/4+z
3/4+y,3/4+x,3/4+z
1/2+x,1/2+y,1/2+z
3/4-y,1/4+x,3/4+z
1/2-x,-y,1/2+z
3/4+y,3/4-x,1/4+z
1/2+x,1/2-y,-z
-x,1/2+y,1/2-z
1/4+y,3/4+x,3/4-z
3/4-y,3/4-x,3/4-z
1/2-x,1/2-y,1/2-z
1/4+y,3/4-x,1/4-z
1/2+x,y,1/2-z
1/4-y,1/4+x,3/4-z
1/2-x,1/2+y,z
x,1/2-y,1/2+z
3/4-y,1/4-x,1/4+z
1/4+y,1/4+x,1/4+z
loop_
_atom_site_type_symbol
_atom_site_label
_atom_site_fract_x
_atom_site_fract_y
_atom_site_fract_z
Si Si1 0.962429 0.500000 0.750000
Si Si2 0.928214 0.718546 0.167246
Si Si3 0.414579 0.432983 0.572810
Si Si4 0.685264 0.303142 0.903648
Si Si5 0.159750 0.556532 0.765675
Si Si6 0.435215 0.185215 0.875000
O O1 0.926063 0.526486 0.663550
O O2 0.997308 0.543263 0.808027
O O3 0.929731 0.777776 0.127862
O O4 0.872040 0.692069 0.148607
O O5 0.943195 0.726011 0.284872
O O6 0.437166 0.452517 0.464076
O O7 0.350779 0.426210 0.566597
O O8 0.705731 0.347346 0.982048
O O9 0.622975 0.306201 0.917967
O O10 0.188855 0.500000 0.750000
O O11 0.171726 0.578275 0.875000
#
# Coordination Sequence:
#
# PCOD8320979 Si02
#       6
#    16  32  32  32  32  16
#     4  12  22  34  60  90 120 150 192 268 326 324
#     4  10  20  33  55  81 113 156 188 229 291 356
#     4  10  22  37  55  87 122 147 202 253 296 371
#     4  10  18  35  62  83 107 157 198 241 288 375
#     4  10  19  38  62  83 104 150 207 241 283 361
#     4  10  18  37  54  78 118 140 196 238 274 358
#
# _framework density 18.770769000000001
#
# number of rings (size 3 to 8) (size 9 to 14) (size 15 to 20)
#    0.000    1.800    6.000    1.800    0.000    1.600 
#    1.800    0.000    0.000    9.600    0.000    0.000 
#    0.000    0.000    0.000    0.000    0.000    0.000 
#
# Total GULP energy -991138.562062 kJ/mol
# GULP energy per Si atom -12389.232026 kJ/mol
# Density = 1.872805 g / cm^3
# Si number density = 18.770769 Si / 1000 Ang^3
#
#
#
# Elastic Constant Matrix: (Units=GPa)
#
#
# Indices 1 2 3 4 5 6 
#
# 1 106.3836 37.9649 38.3298 0.0000 0.0000 0.0000
# 2 37.9649 106.3828 38.3297 0.0000 0.0000 0.0000
# 3 38.3298 38.3297 85.4770 0.0000 0.0000 0.0000
# 4 0.0000 0.0000 0.0000 19.1597 0.0000 0.0000
# 5 0.0000 0.0000 0.0000 0.0000 19.1602 0.0000
# 6 0.0000 0.0000 0.0000 0.0000 0.0000 17.1969
#
#
#
# Elastic Compliance Matrix: (Units=1/GPa)
#
#
# Indices 1 2 3 4 5 6 
#
# 1 0.011855 -0.002761 -0.004078 0.000000 0.000000 0.000000
# 2 -0.002761 0.011855 -0.004078 0.000000 0.000000 0.000000
# 3 -0.004078 -0.004078 0.015356 0.000000 0.000000 0.000000
# 4 0.000000 0.000000 0.000000 0.052193 0.000000 0.000000
# 5 0.000000 0.000000 0.000000 0.000000 0.052192 0.000000
# 6 0.000000 0.000000 0.000000 0.000000 0.000000 0.058150
#
#
# Mechanical properties :
#
#
# Convention : Reuss Voigt Hill
#
# Bulk Modulus (GPa) = 58.03136 58.61023 58.32079
# Shear Modulus (GPa) = 21.81723 23.34464 22.58093
#
# Velocity S-wave (km/s) = 3.41295 3.53040 3.47217
# Velocity P-wave (km/s) = 6.82011 6.92172 6.87110
#
# Compressibility (1/GPa) = 0.01723206
#
# Stress axis : x y z
#
# Youngs Moduli (GPa) = 84.35587 84.35527 65.12112
#
# Poissons Ratio (x) = 0.23294 0.26554
# Poissons Ratio (y) = 0.23294 0.26554
# Poissons Ratio (z) = 0.34397 0.34397
#
# Static dielectric constant tensor:
#      x y z
#    x 3.494430 0.000000 0.000000 
#    y 0.000000 3.494430 0.000000 
#    z 0.000000 0.000000 3.556770 
# 
# 
# High freq. dielectric constant tensor:
#      x y z
#    x 1.721830 0.000000 0.000000 
#    y 0.000000 1.721830 0.000000 
#    z 0.000000 0.000000 1.728200 
# 
# From -- ./inp_files/3912.got.cif
#   From: 2010.03.12/outbox.cif.g09.slc.cpg/sg142_2_cif.got.tgz:3912.got - 2010.04.03 13:27:16.
