data_PCOD8320530
_publ_section_title
;
Structure prediction by ZEFSAII (Michael W. Deem and Ramdas Pophale) SiO2 
 PCOD8320530
Probable space group: I 4/M C M
;
_chemical_formula_sum "Si O2"
_cell_formula_units_Z 128
_cell_length_a 21.056638
_cell_length_b 21.056638
_cell_length_c 19.887230
_cell_angle_alpha 90.000000
_cell_angle_beta 90.000000
_cell_angle_gamma 90.000000
_cell_volume 8817.639889
_symmetry_space_group_name_H-M "I 4/M C M"
_symmetry_group_IT_number 140
_symmetry_cell_setting 'tetragonal'
loop_
_space_group_symop_operation_xyz
x,y,z
-y,x,z
-x,-y,z
y,-x,z
x,-y,1/2-z
-x,y,1/2-z
y,x,1/2-z
-y,-x,1/2-z
-x,-y,-z
y,-x,-z
x,y,-z
-y,x,-z
-x,y,1/2+z
x,-y,1/2+z
-y,-x,1/2+z
y,x,1/2+z
1/2+x,1/2+y,1/2+z
1/2-y,1/2+x,1/2+z
1/2-x,1/2-y,1/2+z
1/2+y,1/2-x,1/2+z
1/2+x,1/2-y,-z
1/2-x,1/2+y,-z
1/2+y,1/2+x,-z
1/2-y,1/2-x,-z
1/2-x,1/2-y,1/2-z
1/2+y,1/2-x,1/2-z
1/2+x,1/2+y,1/2-z
1/2-y,1/2+x,1/2-z
1/2-x,1/2+y,z
1/2+x,1/2-y,z
1/2-y,1/2-x,z
1/2+y,1/2+x,z
loop_
_atom_site_type_symbol
_atom_site_label
_atom_site_fract_x
_atom_site_fract_y
_atom_site_fract_z
Si Si1 0.818988 0.419712 0.814830
Si Si2 0.783507 0.823990 0.820077
Si Si3 0.336939 0.061482 0.341056
Si Si4 0.145635 0.751699 0.574855
O O1 0.872549 0.372549 0.841997
O O2 0.749195 0.392632 0.833775
O O3 0.837216 0.485845 0.850123
O O4 0.818458 0.422057 0.734539
O O5 0.822363 0.822363 0.750000
O O6 0.728937 0.771064 0.816837
O O7 0.832798 0.811921 0.880739
O O8 0.405458 0.094543 0.357638
O O9 0.282896 0.086223 0.390966
O O10 0.126543 0.774640 0.500000
O O11 0.203615 0.703615 0.571264
#
# Coordination Sequence:
#
# PCOD8320530 Si02
#       4
#    32  32  32  32
#     4   9  16  25  40  61  83 110 145 181 213 242
#     4   9  14  24  41  59  79 103 135 178 221 255
#     4   9  16  26  39  58  85 115 145 173 204 246
#     4   9  16  26  41  59  79 107 140 172 211 258
#
# _framework density 14.516356999999999
#
# number of rings (size 3 to 8) (size 9 to 14) (size 15 to 20)
#    0.000    3.000    2.500    0.000    0.000    0.500 
#    0.000    3.750    0.000    2.250    0.000    3.500 
#    0.000    1.000    2.000    2.250    0.000    0.250 
#
# Total GULP energy -793066.392530 kJ/mol
# GULP energy per Si atom -12391.662383 kJ/mol
# Density = 1.448332 g / cm^3
# Si number density = 14.516357 Si / 1000 Ang^3
#
#
#
# Elastic Constant Matrix: (Units=GPa)
#
#
# Indices 1 2 3 4 5 6 
#
# 1 68.3778 66.6525 38.0469 0.0000 0.0000 0.0000
# 2 66.6525 68.3778 38.0469 0.0000 0.0000 0.0000
# 3 38.0469 38.0469 71.9958 0.0000 0.0000 0.0000
# 4 0.0000 0.0000 0.0000 14.6097 0.0000 0.0000
# 5 0.0000 0.0000 0.0000 0.0000 14.6097 0.0000
# 6 0.0000 0.0000 0.0000 0.0000 0.0000 15.0091
#
#
#
# Elastic Compliance Matrix: (Units=1/GPa)
#
#
# Indices 1 2 3 4 5 6 
#
# 1 0.295075 -0.284528 -0.005573 0.000000 0.000000 0.000000
# 2 -0.284528 0.295075 -0.005573 0.000000 0.000000 0.000000
# 3 -0.005573 -0.005573 0.019780 0.000000 0.000000 0.000000
# 4 0.000000 0.000000 0.000000 0.068447 0.000000 0.000000
# 5 0.000000 0.000000 0.000000 0.000000 0.068447 0.000000
# 6 0.000000 0.000000 0.000000 0.000000 0.000000 0.066626
#
#
# Mechanical properties :
#
#
# Convention : Reuss Voigt Hill
#
# Bulk Modulus (GPa) = 53.82204 54.91599 54.36902
# Shear Modulus (GPa) = 3.54360 13.24606 8.39483
#
# Velocity S-wave (km/s) = 1.56410 3.02403 2.40740
# Velocity P-wave (km/s) = 6.35761 7.07853 6.72773
#
# Compressibility (1/GPa) = 0.01857975
#
# Stress axis : x y z
#
# Youngs Moduli (GPa) = 3.38897 3.38897 50.55520
#
# Poissons Ratio (x) = 0.96426 0.28177
# Poissons Ratio (y) = 0.96426 0.28177
# Poissons Ratio (z) = 0.01889 0.01889
#
# Static dielectric constant tensor:
#      x y z
#    x 2.724210 0.000000 0.000000 
#    y 0.000000 2.724210 0.000000 
#    z 0.000000 0.000000 2.924680 
# 
# 
# High freq. dielectric constant tensor:
#      x y z
#    x 1.527760 0.000000 0.000000 
#    y 0.000000 1.527760 0.000000 
#    z 0.000000 0.000000 1.544050 
# 
# From -- ./inp_files/6446.got.cif
#   From: 2010.06.25/outbox.cif.g09.slc.cpg/sg140_4_cif.got.tgz:6446.got - 2010.06.28 10:53:23.
