data_PCOD8320931
_publ_section_title
;
Structure prediction by ZEFSAII (Michael W. Deem and Ramdas Pophale) SiO2 
 PCOD8320931
Probable space group: I 41/A M D
;
_chemical_formula_sum "Si O2"
_cell_formula_units_Z 76
_cell_length_a 10.518092
_cell_length_b 10.518092
_cell_length_c 35.132839
_cell_angle_alpha 90.000000
_cell_angle_beta 90.000000
_cell_angle_gamma 90.000000
_cell_volume 3886.755089
_symmetry_space_group_name_H-M "I 41/A M D"
_symmetry_group_IT_number 141
_space_group.IT_coordinate_system_code '2'
_symmetry_cell_setting 'tetragonal'
loop_
_space_group_symop_operation_xyz
x,y,z
1/4-y,3/4+x,1/4+z
-x,1/2-y,z
1/4+y,1/4-x,3/4+z
x,-y,-z
-x,1/2+y,-z
1/4+y,3/4+x,1/4-z
1/4-y,1/4-x,3/4-z
-x,-y,-z
3/4+y,1/4-x,3/4-z
x,1/2+y,-z
3/4-y,3/4+x,1/4-z
-x,y,z
x,1/2-y,z
3/4-y,1/4-x,3/4+z
3/4+y,3/4+x,1/4+z
1/2+x,1/2+y,1/2+z
3/4-y,1/4+x,3/4+z
1/2-x,-y,1/2+z
3/4+y,3/4-x,1/4+z
1/2+x,1/2-y,1/2-z
1/2-x,y,1/2-z
3/4+y,1/4+x,3/4-z
3/4-y,3/4-x,1/4-z
1/2-x,1/2-y,1/2-z
1/4+y,3/4-x,1/4-z
1/2+x,y,1/2-z
1/4-y,1/4+x,3/4-z
1/2-x,1/2+y,1/2+z
1/2+x,-y,1/2+z
1/4-y,3/4-x,1/4+z
1/4+y,1/4+x,3/4+z
loop_
_atom_site_type_symbol
_atom_site_label
_atom_site_fract_x
_atom_site_fract_y
_atom_site_fract_z
Si Si1 0.720179 0.250000 0.843942
Si Si2 0.000000 0.250000 0.875000
Si Si3 0.000000 0.250000 0.156557
Si Si4 0.263629 0.604324 0.913934
Si Si5 0.500000 0.003503 0.044878
O O1 0.629853 0.250000 0.881834
O O2 0.685346 0.375657 0.819261
O O3 0.871093 0.250000 0.850574
O O4 0.118330 0.250000 0.185002
O O5 0.265092 0.750000 0.901413
O O6 0.276078 0.526078 0.875000
O O7 0.373660 0.580194 0.944036
O O8 0.500000 0.000000 0.000000
#
# Coordination Sequence:
#
# PCOD8320931 Si02
#       5
#    16   4   8  32  16
#     4  12  20  38  63  96 121 159 214 279 315 374
#     4  12  20  28  60  96 126 152 184 264 344 364
#     4  12  20  42  58  90 134 160 216 282 323 376
#     4  12  21  38  64  93 124 164 222 269 316 383
#     4  12  27  40  60  96 137 174 211 273 344 405
#
# _framework density 19.553585999999999
#
# number of rings (size 3 to 8) (size 9 to 14) (size 15 to 20)
#    0.000    0.000   10.526    0.632    2.947    0.000 
#    0.000    1.053    0.000    0.000    0.000    0.000 
#    0.000    0.000    0.000    0.000    0.000    0.000 
#
# Total GULP energy -471096.491767 kJ/mol
# GULP energy per Si atom -12397.276099 kJ/mol
# Density = 1.950908 g / cm^3
# Si number density = 19.553586 Si / 1000 Ang^3
#
#
#
# Elastic Constant Matrix: (Units=GPa)
#
#
# Indices 1 2 3 4 5 6 
#
# 1 173.9979 45.6832 30.8995 0.0000 0.0000 0.0000
# 2 45.6832 173.9979 30.8995 0.0000 0.0000 0.0000
# 3 30.8995 30.8995 68.8934 0.0000 0.0000 0.0000
# 4 0.0000 0.0000 0.0000 12.4802 0.0000 0.0000
# 5 0.0000 0.0000 0.0000 0.0000 12.4802 0.0000
# 6 0.0000 0.0000 0.0000 0.0000 0.0000 37.6252
#
#
#
# Elastic Compliance Matrix: (Units=1/GPa)
#
#
# Indices 1 2 3 4 5 6 
#
# 1 0.006501 -0.001292 -0.002336 0.000000 0.000000 0.000000
# 2 -0.001292 0.006501 -0.002336 0.000000 0.000000 0.000000
# 3 -0.002336 -0.002336 0.016611 0.000000 0.000000 0.000000
# 4 0.000000 0.000000 0.000000 0.080127 0.000000 0.000000
# 5 0.000000 0.000000 0.000000 0.000000 0.080127 0.000000
# 6 0.000000 0.000000 0.000000 0.000000 0.000000 0.026578
#
#
# Mechanical properties :
#
#
# Convention : Reuss Voigt Hill
#
# Bulk Modulus (GPa) = 56.54860 70.20593 63.37726
# Shear Modulus (GPa) = 21.34287 33.14425 27.24356
#
# Velocity S-wave (km/s) = 3.30738 4.12156 3.73671
# Velocity P-wave (km/s) = 6.60058 7.65715 7.14841
#
# Compressibility (1/GPa) = 0.01768391
#
# Stress axis : x y z
#
# Youngs Moduli (GPa) = 153.81467 153.81467 60.20100
#
# Poissons Ratio (x) = 0.19873 0.14066
# Poissons Ratio (y) = 0.19873 0.14066
# Poissons Ratio (z) = 0.35938 0.35938
#
# Static dielectric constant tensor:
#      x y z
#    x 4.565530 0.000000 0.000000 
#    y 0.000000 4.565530 0.000000 
#    z 0.000000 0.000000 2.993690 
# 
# 
# High freq. dielectric constant tensor:
#      x y z
#    x 1.793400 0.000000 0.000000 
#    y 0.000000 1.793400 0.000000 
#    z 0.000000 0.000000 1.691720 
# 
# From -- ./inp_files/13696.got.cif
#   From: 2010.03.12/outbox.cif.g09.slc.cpg/sg141_7_cif.got.tgz:13696.got - 2010.04.03 13:18:35.
