data_PCOD8320798
_publ_section_title
;
Structure prediction by ZEFSAII (Michael W. Deem and Ramdas Pophale) SiO2 
 PCOD8320798
Probable space group: I 41/A M D
;
_chemical_formula_sum "Si O2"
_cell_formula_units_Z 176
_cell_length_a 18.331314
_cell_length_b 18.331314
_cell_length_c 26.394029
_cell_angle_alpha 90.000000
_cell_angle_beta 90.000000
_cell_angle_gamma 90.000000
_cell_volume 8869.372249
_symmetry_space_group_name_H-M "I 41/A M D"
_symmetry_group_IT_number 141
_space_group.IT_coordinate_system_code '2'
_symmetry_cell_setting 'tetragonal'
loop_
_space_group_symop_operation_xyz
x,y,z
1/4-y,3/4+x,1/4+z
-x,1/2-y,z
1/4+y,1/4-x,3/4+z
x,-y,-z
-x,1/2+y,-z
1/4+y,3/4+x,1/4-z
1/4-y,1/4-x,3/4-z
-x,-y,-z
3/4+y,1/4-x,3/4-z
x,1/2+y,-z
3/4-y,3/4+x,1/4-z
-x,y,z
x,1/2-y,z
3/4-y,1/4-x,3/4+z
3/4+y,3/4+x,1/4+z
1/2+x,1/2+y,1/2+z
3/4-y,1/4+x,3/4+z
1/2-x,-y,1/2+z
3/4+y,3/4-x,1/4+z
1/2+x,1/2-y,1/2-z
1/2-x,y,1/2-z
3/4+y,1/4+x,3/4-z
3/4-y,3/4-x,1/4-z
1/2-x,1/2-y,1/2-z
1/4+y,3/4-x,1/4-z
1/2+x,y,1/2-z
1/4-y,1/4+x,3/4-z
1/2-x,1/2+y,1/2+z
1/2+x,-y,1/2+z
1/4-y,3/4-x,1/4+z
1/4+y,1/4+x,3/4+z
loop_
_atom_site_type_symbol
_atom_site_label
_atom_site_fract_x
_atom_site_fract_y
_atom_site_fract_z
Si Si1 0.664338 0.582056 0.599554
Si Si2 0.081885 0.071169 0.200057
Si Si3 0.418445 0.165293 0.204470
Si Si4 0.918618 0.956538 0.051835
Si Si5 0.169145 0.919145 0.625000
Si Si6 0.666972 0.336373 0.503689
O O1 0.625404 0.601489 0.651952
O O2 0.638227 0.499369 0.587696
O O3 0.748647 0.591810 0.609354
O O4 0.647234 0.636728 0.553169
O O5 0.086538 0.137571 0.238613
O O6 0.000000 0.055246 0.181910
O O7 0.111217 0.997986 0.228375
O O8 0.500000 0.147647 0.182289
O O9 0.403461 0.250000 0.205067
O O10 0.354274 0.129602 0.172302
O O11 0.889162 0.874749 0.042533
O O12 0.000000 0.952244 0.076156
O O13 0.922711 0.000000 0.000000
O O14 0.655883 0.250000 0.505842
#
# Coordination Sequence:
#
# PCOD8320798 Si02
#       6
#    32  32  32  32  16  32
#     4  11  22  36  61  89 121 162 207 259 310 374
#     4  10  21  40  62  87 124 168 209 258 324 383
#     4  10  22  41  62  86 123 170 212 252 308 379
#     4   9  19  37  59  86 120 160 203 246 306 382
#     4  12  22  35  60  90 120 161 216 262 308 370
#     4  10  21  38  60  89 126 161 204 264 319 363
#
# _framework density 19.843568999999999
#
# number of rings (size 3 to 8) (size 9 to 14) (size 15 to 20)
#    0.000    1.818    1.818    2.182    0.000    4.000 
#    0.000    0.909    0.000    0.000    0.000    2.545 
#    0.000    0.000    0.000    0.000    0.000    0.000 
#
# Total GULP energy -1090807.376027 kJ/mol
# GULP energy per Si atom -12395.538364 kJ/mol
# Density = 1.979840 g / cm^3
# Si number density = 19.843569 Si / 1000 Ang^3
#
#
#
# Elastic Constant Matrix: (Units=GPa)
#
#
# Indices 1 2 3 4 5 6 
#
# 1 139.9920 51.9892 50.6323 0.0000 0.0000 0.0000
# 2 51.9892 139.9920 50.6323 0.0000 0.0000 0.0000
# 3 50.6323 50.6323 91.0866 0.0000 0.0000 0.0000
# 4 0.0000 0.0000 0.0000 34.6324 0.0000 0.0000
# 5 0.0000 0.0000 0.0000 0.0000 34.6324 0.0000
# 6 0.0000 0.0000 0.0000 0.0000 0.0000 31.7157
#
#
#
# Elastic Compliance Matrix: (Units=1/GPa)
#
#
# Indices 1 2 3 4 5 6 
#
# 1 0.009366 -0.001997 -0.004097 0.000000 0.000000 0.000000
# 2 -0.001997 0.009366 -0.004097 0.000000 0.000000 0.000000
# 3 -0.004097 -0.004097 0.015533 0.000000 0.000000 0.000000
# 4 0.000000 0.000000 0.000000 0.028875 0.000000 0.000000
# 5 0.000000 0.000000 0.000000 0.000000 0.028875 0.000000
# 6 0.000000 0.000000 0.000000 0.000000 0.000000 0.031530
#
#
# Mechanical properties :
#
#
# Convention : Reuss Voigt Hill
#
# Bulk Modulus (GPa) = 72.01538 75.28647 73.65092
# Shear Modulus (GPa) = 33.65782 34.71722 34.18752
#
# Velocity S-wave (km/s) = 4.12291 4.18729 4.15523
# Velocity P-wave (km/s) = 7.68341 7.83583 7.76000
#
# Compressibility (1/GPa) = 0.01388592
#
# Stress axis : x y z
#
# Youngs Moduli (GPa) = 106.76372 106.76372 64.37946
#
# Poissons Ratio (x) = 0.21319 0.26374
# Poissons Ratio (y) = 0.21319 0.26374
# Poissons Ratio (z) = 0.43737 0.43737
#
# Static dielectric constant tensor:
#      x y z
#    x 3.768110 0.000000 0.000000 
#    y 0.000000 3.768110 0.000000 
#    z 0.000000 0.000000 3.762330 
# 
# 
# High freq. dielectric constant tensor:
#      x y z
#    x 1.771440 0.000000 0.000000 
#    y 0.000000 1.771440 0.000000 
#    z 0.000000 0.000000 1.778300 
# 
# From -- ./inp_files/12922.got.cif
#   From: 2010.03.12/outbox.cif.g09.slc.cpg/sg141_7_cif.got.tgz:12922.got - 2010.04.03 13:18:35.
