data_PCOD8320134
_publ_section_title
;
Structure prediction by ZEFSAII (Michael W. Deem and Ramdas Pophale) SiO2 
 PCOD8320134
Probable space group: I 4/M C M
;
_chemical_formula_sum "Si O2"
_cell_formula_units_Z 192
_cell_length_a 26.625100
_cell_length_b 26.625100
_cell_length_c 14.193361
_cell_angle_alpha 90.000000
_cell_angle_beta 90.000000
_cell_angle_gamma 90.000000
_cell_volume 10061.616130
_symmetry_space_group_name_H-M "I 4/M C M"
_symmetry_group_IT_number 140
_symmetry_cell_setting 'tetragonal'
loop_
_space_group_symop_operation_xyz
x,y,z
-y,x,z
-x,-y,z
y,-x,z
x,-y,1/2-z
-x,y,1/2-z
y,x,1/2-z
-y,-x,1/2-z
-x,-y,-z
y,-x,-z
x,y,-z
-y,x,-z
-x,y,1/2+z
x,-y,1/2+z
-y,-x,1/2+z
y,x,1/2+z
1/2+x,1/2+y,1/2+z
1/2-y,1/2+x,1/2+z
1/2-x,1/2-y,1/2+z
1/2+y,1/2-x,1/2+z
1/2+x,1/2-y,-z
1/2-x,1/2+y,-z
1/2+y,1/2+x,-z
1/2-y,1/2-x,-z
1/2-x,1/2-y,1/2-z
1/2+y,1/2-x,1/2-z
1/2+x,1/2+y,1/2-z
1/2-y,1/2+x,1/2-z
1/2-x,1/2+y,z
1/2+x,1/2-y,z
1/2-y,1/2-x,z
1/2+y,1/2+x,z
loop_
_atom_site_type_symbol
_atom_site_label
_atom_site_fract_x
_atom_site_fract_y
_atom_site_fract_z
Si Si1 0.638779 0.138779 0.607066
Si Si2 0.418367 0.379817 0.893202
Si Si3 0.723429 0.223429 0.602592
Si Si4 0.259195 0.023014 0.609828
Si Si5 0.855312 0.972577 0.388175
Si Si6 0.202975 0.852257 0.677298
Si Si7 0.787966 0.426561 0.210164
O O1 0.623218 0.123218 0.500000
O O2 0.681049 0.181049 0.600608
O O3 0.591404 0.159216 0.666262
O O4 0.388846 0.427044 0.845235
O O5 0.473096 0.371295 0.843911
O O6 0.386487 0.327653 0.896955
O O7 0.428125 0.395727 0.000000
O O8 0.739678 0.239678 0.500000
O O9 0.775259 0.201759 0.644581
O O10 0.272874 0.033847 0.500000
O O11 0.202629 0.039437 0.635848
O O12 0.295995 0.051678 0.683851
O O13 0.264817 0.964417 0.633108
O O14 0.860234 0.975810 0.500000
O O15 0.159007 0.840994 0.750000
O O16 0.249726 0.880921 0.721848
#
# Coordination Sequence:
#
# PCOD8320134 Si02
#       7
#    16  32  16  32  32  32  32
#     4   9  18  33  54  82 110 140 179 224 271 324
#     4  10  19  32  49  69  96 133 177 228 285 338
#     4   9  19  33  51  72  97 129 172 219 273 341
#     4  10  19  34  54  78 107 142 183 227 278 337
#     4   9  18  31  49  71  97 133 180 232 285 341
#     4  11  20  32  49  73 100 133 170 225 280 336
#     4  10  20  33  54  78 107 141 182 226 275 330
#
# _framework density 19.082421
#
# number of rings (size 3 to 8) (size 9 to 14) (size 15 to 20)
#    0.000    2.167    1.667    2.250    0.000    1.667 
#    0.000    2.917    0.000    0.000    0.000    1.167 
#    0.000    5.333    0.000   19.333    0.000    0.333 
#
# Total GULP energy -1189430.078696 kJ/mol
# GULP energy per Si atom -12389.896653 kJ/mol
# Density = 1.903899 g / cm^3
# Si number density = 19.082421 Si / 1000 Ang^3
#
#
#
# Elastic Constant Matrix: (Units=GPa)
#
#
# Indices 1 2 3 4 5 6 
#
# 1 79.1286 53.3948 32.2839 0.0000 0.0000 0.0000
# 2 53.3948 79.1267 32.2829 0.0000 0.0000 0.0000
# 3 32.2839 32.2829 93.5590 0.0000 0.0000 0.0000
# 4 0.0000 0.0000 0.0000 24.3133 0.0000 0.0000
# 5 0.0000 0.0000 0.0000 0.0000 24.3139 0.0000
# 6 0.0000 0.0000 0.0000 0.0000 0.0000 41.6559
#
#
#
# Elastic Compliance Matrix: (Units=1/GPa)
#
#
# Indices 1 2 3 4 5 6 
#
# 1 0.023966 -0.014895 -0.003130 0.000000 0.000000 0.000000
# 2 -0.014895 0.023966 -0.003130 0.000000 0.000000 0.000000
# 3 -0.003130 -0.003130 0.012849 0.000000 0.000000 0.000000
# 4 0.000000 0.000000 0.000000 0.041130 0.000000 0.000000
# 5 0.000000 0.000000 0.000000 0.000000 0.041129 0.000000
# 6 0.000000 0.000000 0.000000 0.000000 0.000000 0.024006
#
#
# Mechanical properties :
#
#
# Convention : Reuss Voigt Hill
#
# Bulk Modulus (GPa) = 54.14102 54.19307 54.16705
# Shear Modulus (GPa) = 23.20058 26.98012 25.09035
#
# Velocity S-wave (km/s) = 3.49063 3.76423 3.63001
# Velocity P-wave (km/s) = 6.68429 6.88140 6.78356
#
# Compressibility (1/GPa) = 0.01847028
#
# Stress axis : x y z
#
# Youngs Moduli (GPa) = 41.72635 41.72558 77.83008
#
# Poissons Ratio (x) = 0.62150 0.24362
# Poissons Ratio (y) = 0.62152 0.24360
# Poissons Ratio (z) = 0.13061 0.13060
#
# Static dielectric constant tensor:
#      x y z
#    x 3.494770 0.000000 0.000000 
#    y 0.000000 3.494770 0.000000 
#    z 0.000000 0.000000 3.393660 
# 
# 
# High freq. dielectric constant tensor:
#      x y z
#    x 1.720470 0.000000 0.000000 
#    y 0.000000 1.720470 0.000000 
#    z 0.000000 0.000000 1.741850 
# 
# From -- ./inp_files/5216.got.cif
#   From: 2010.06.25/outbox.cif.g09.slc.cpg/sg140_3_cif.got.tgz:5216.got - 2010.06.28 10:53:23.
