data_PCOD8320899
_publ_section_title
;
Structure prediction by ZEFSAII (Michael W. Deem and Ramdas Pophale) SiO2 
 PCOD8320899
Probable space group: I 41/A M D
;
_chemical_formula_sum "Si O2"
_cell_formula_units_Z 176
_cell_length_a 18.234455
_cell_length_b 18.234455
_cell_length_c 26.950405
_cell_angle_alpha 90.000000
_cell_angle_beta 90.000000
_cell_angle_gamma 90.000000
_cell_volume 8960.884320
_symmetry_space_group_name_H-M "I 41/A M D"
_symmetry_group_IT_number 141
_space_group.IT_coordinate_system_code '2'
_symmetry_cell_setting 'tetragonal'
loop_
_space_group_symop_operation_xyz
x,y,z
1/4-y,3/4+x,1/4+z
-x,1/2-y,z
1/4+y,1/4-x,3/4+z
x,-y,-z
-x,1/2+y,-z
1/4+y,3/4+x,1/4-z
1/4-y,1/4-x,3/4-z
-x,-y,-z
3/4+y,1/4-x,3/4-z
x,1/2+y,-z
3/4-y,3/4+x,1/4-z
-x,y,z
x,1/2-y,z
3/4-y,1/4-x,3/4+z
3/4+y,3/4+x,1/4+z
1/2+x,1/2+y,1/2+z
3/4-y,1/4+x,3/4+z
1/2-x,-y,1/2+z
3/4+y,3/4-x,1/4+z
1/2+x,1/2-y,1/2-z
1/2-x,y,1/2-z
3/4+y,1/4+x,3/4-z
3/4-y,3/4-x,1/4-z
1/2-x,1/2-y,1/2-z
1/4+y,3/4-x,1/4-z
1/2+x,y,1/2-z
1/4-y,1/4+x,3/4-z
1/2-x,1/2+y,1/2+z
1/2+x,-y,1/2+z
1/4-y,3/4-x,1/4+z
1/4+y,1/4+x,3/4+z
loop_
_atom_site_type_symbol
_atom_site_label
_atom_site_fract_x
_atom_site_fract_y
_atom_site_fract_z
Si Si1 0.334293 0.663213 0.417253
Si Si2 0.676042 0.835489 0.602844
Si Si3 0.174816 0.055041 0.187811
Si Si4 0.344748 0.437987 0.198751
Si Si5 0.914270 0.164270 0.375000
Si Si6 0.919333 0.663025 0.986781
O O1 0.319293 0.750000 0.416095
O O2 0.392628 0.642628 0.375000
O O3 0.259477 0.618501 0.409895
O O4 0.367277 0.635167 0.469302
O O5 0.671520 0.750000 0.612739
O O6 0.662894 0.872134 0.655881
O O7 0.753107 0.853025 0.577108
O O8 0.612648 0.863059 0.565667
O O9 0.261226 0.037901 0.188884
O O10 0.141301 0.068259 0.242454
O O11 0.366648 0.360857 0.173124
O O12 0.898944 0.250000 0.383929
O O13 0.923635 0.750000 0.989536
O O14 0.000000 0.628301 0.992968
#
# Coordination Sequence:
#
# PCOD8320899 Si02
#       6
#    32  32  32  32  16  32
#     4  11  22  38  61  90 126 164 209 267 320 377
#     4  11  21  39  64  89 125 172 214 259 323 391
#     4  11  24  39  63  95 126 165 217 263 318 384
#     4  11  22  40  64  91 127 169 210 264 316 387
#     4  11  24  42  68 100 130 164 213 270 324 384
#     4   9  19  36  58  85 118 162 209 253 314 385
#
# _framework density 19.640919
#
# number of rings (size 3 to 8) (size 9 to 14) (size 15 to 20)
#    0.000    1.364    3.636    2.182    0.000    3.091 
#    0.000    1.818    0.000    5.455    0.000    0.000 
#    0.000    0.000    0.000    0.000    0.000    0.000 
#
# Total GULP energy -1091389.444297 kJ/mol
# GULP energy per Si atom -12402.152776 kJ/mol
# Density = 1.959621 g / cm^3
# Si number density = 19.640919 Si / 1000 Ang^3
#
#
#
# Elastic Constant Matrix: (Units=GPa)
#
#
# Indices 1 2 3 4 5 6 
#
# 1 95.3234 36.2071 43.9667 0.0000 0.0000 0.0000
# 2 36.2071 95.3234 43.9667 0.0000 0.0000 0.0000
# 3 43.9667 43.9667 131.0594 0.0000 0.0000 0.0000
# 4 0.0000 0.0000 0.0000 30.1658 0.0000 0.0000
# 5 0.0000 0.0000 0.0000 0.0000 30.1658 0.0000
# 6 0.0000 0.0000 0.0000 0.0000 0.0000 29.0224
#
#
#
# Elastic Compliance Matrix: (Units=1/GPa)
#
#
# Indices 1 2 3 4 5 6 
#
# 1 0.013358 -0.003557 -0.003288 0.000000 0.000000 0.000000
# 2 -0.003557 0.013358 -0.003288 0.000000 0.000000 0.000000
# 3 -0.003288 -0.003288 0.009836 0.000000 0.000000 0.000000
# 4 0.000000 0.000000 0.000000 0.033150 0.000000 0.000000
# 5 0.000000 0.000000 0.000000 0.000000 0.033150 0.000000
# 6 0.000000 0.000000 0.000000 0.000000 0.000000 0.034456
#
#
# Mechanical properties :
#
#
# Convention : Reuss Voigt Hill
#
# Bulk Modulus (GPa) = 61.40149 63.33193 62.36671
# Shear Modulus (GPa) = 30.67398 31.04185 30.85792
#
# Velocity S-wave (km/s) = 3.95617 3.97982 3.96801
# Velocity P-wave (km/s) = 7.22484 7.30983 7.26746
#
# Compressibility (1/GPa) = 0.01628625
#
# Stress axis : x y z
#
# Youngs Moduli (GPa) = 74.85949 74.85949 101.66590
#
# Poissons Ratio (x) = 0.26631 0.33427
# Poissons Ratio (y) = 0.26631 0.33427
# Poissons Ratio (z) = 0.24613 0.24613
#
# Static dielectric constant tensor:
#      x y z
#    x 3.541340 0.000000 0.000000 
#    y 0.000000 3.541340 0.000000 
#    z 0.000000 0.000000 3.799380 
# 
# 
# High freq. dielectric constant tensor:
#      x y z
#    x 1.760340 0.000000 0.000000 
#    y 0.000000 1.760340 0.000000 
#    z 0.000000 0.000000 1.775740 
# 
# From -- ./inp_files/12857.got.cif
#   From: 2010.03.12/outbox.cif.g09.slc.cpg/sg141_7_cif.got.tgz:12857.got - 2010.04.03 13:18:35.
