data_PCOD8320948
_publ_section_title
;
Structure prediction by ZEFSAII (Michael W. Deem and Ramdas Pophale) SiO2 
 PCOD8320948
Probable space group: I 41/A C D
;
_chemical_formula_sum "Si O2"
_cell_formula_units_Z 152
_cell_length_a 17.525009
_cell_length_b 17.525009
_cell_length_c 26.281462
_cell_angle_alpha 90.000000
_cell_angle_beta 90.000000
_cell_angle_gamma 90.000000
_cell_volume 8071.718733
_symmetry_space_group_name_H-M "I 41/A C D"
_symmetry_group_IT_number 142
_space_group.IT_coordinate_system_code '2'
_symmetry_cell_setting 'tetragonal'
loop_
_space_group_symop_operation_xyz
x,y,z
1/4-y,3/4+x,1/4+z
-x,1/2-y,z
1/4+y,1/4-x,3/4+z
x,-y,1/2-z
1/2-x,y,-z
3/4+y,1/4+x,1/4-z
1/4-y,1/4-x,1/4-z
-x,-y,-z
3/4+y,1/4-x,3/4-z
x,1/2+y,-z
3/4-y,3/4+x,1/4-z
-x,y,1/2+z
1/2+x,-y,z
1/4-y,3/4-x,3/4+z
3/4+y,3/4+x,3/4+z
1/2+x,1/2+y,1/2+z
3/4-y,1/4+x,3/4+z
1/2-x,-y,1/2+z
3/4+y,3/4-x,1/4+z
1/2+x,1/2-y,-z
-x,1/2+y,1/2-z
1/4+y,3/4+x,3/4-z
3/4-y,3/4-x,3/4-z
1/2-x,1/2-y,1/2-z
1/4+y,3/4-x,1/4-z
1/2+x,y,1/2-z
1/4-y,1/4+x,3/4-z
1/2-x,1/2+y,z
x,1/2-y,1/2+z
3/4-y,1/4-x,1/4+z
1/4+y,1/4+x,1/4+z
loop_
_atom_site_type_symbol
_atom_site_label
_atom_site_fract_x
_atom_site_fract_y
_atom_site_fract_z
Si Si1 0.500000 0.750000 0.375000
Si Si2 0.974463 0.500000 0.750000
Si Si3 0.699242 0.900436 0.574257
Si Si4 0.856045 0.179774 0.429378
Si Si5 0.161773 0.038296 0.991517
Si Si6 0.150568 0.009650 0.401869
O O1 0.430697 0.776230 0.410703
O O2 0.928004 0.455854 0.706079
O O3 0.022715 0.565003 0.722988
O O4 0.646351 0.896351 0.625000
O O5 0.658295 0.958891 0.537161
O O6 0.784339 0.927117 0.589059
O O7 0.880605 0.100662 0.456610
O O8 0.798534 0.165332 0.381902
O O9 0.250000 0.064176 0.000000
O O10 0.117983 0.022953 0.044762
O O11 0.185932 0.935932 0.375000
#
# Coordination Sequence:
#
# PCOD8320948 Si02
#       6
#     8  16  32  32  32  32
#     4  12  32  40  56  88 162 168 184 248 368 424
#     4  12  22  36  66  88 124 164 224 264 326 368
#     4  10  18  32  59  91 118 145 208 284 299 347
#     4  12  23  42  58  94 133 180 202 261 336 406
#     4  10  17  34  63  92 112 154 219 272 296 351
#     4  10  16  33  62  93 118 150 220 274 300 352
#
# _framework density 18.831181999999998
#
# number of rings (size 3 to 8) (size 9 to 14) (size 15 to 20)
#    0.000    1.263   10.526    1.263    0.000    0.000 
#    0.000    3.158    0.000    0.000    0.000    0.000 
#    0.000    0.000    0.000    0.000    0.000    0.000 
#
# Total GULP energy -942063.643197 kJ/mol
# GULP energy per Si atom -12395.574253 kJ/mol
# Density = 1.878832 g / cm^3
# Si number density = 18.831182 Si / 1000 Ang^3
#
#
#
# Elastic Constant Matrix: (Units=GPa)
#
#
# Indices 1 2 3 4 5 6 
#
# 1 42.8318 26.2635 15.7544 0.0000 0.0000 0.0000
# 2 26.2635 42.8318 15.7544 0.0000 0.0000 0.0000
# 3 15.7544 15.7544 109.7041 0.0000 0.0000 0.0000
# 4 0.0000 0.0000 0.0000 37.0903 0.0000 0.0000
# 5 0.0000 0.0000 0.0000 0.0000 37.0903 0.0000
# 6 0.0000 0.0000 0.0000 0.0000 0.0000 17.4096
#
#
#
# Elastic Compliance Matrix: (Units=1/GPa)
#
#
# Indices 1 2 3 4 5 6 
#
# 1 0.037922 -0.022435 -0.002224 0.000000 0.000000 0.000000
# 2 -0.022435 0.037922 -0.002224 0.000000 0.000000 0.000000
# 3 -0.002224 -0.002224 0.009754 0.000000 0.000000 0.000000
# 4 0.000000 0.000000 0.000000 0.026961 0.000000 0.000000
# 5 0.000000 0.000000 0.000000 0.000000 0.026961 0.000000
# 6 0.000000 0.000000 0.000000 0.000000 0.000000 0.057440
#
#
# Mechanical properties :
#
#
# Convention : Reuss Voigt Hill
#
# Bulk Modulus (GPa) = 31.41497 34.54580 32.98038
# Shear Modulus (GPa) = 19.13248 27.49107 23.31178
#
# Velocity S-wave (km/s) = 3.19093 3.82497 3.52225
# Velocity P-wave (km/s) = 5.50406 6.15565 5.83895
#
# Compressibility (1/GPa) = 0.03183196
#
# Stress axis : x y z
#
# Youngs Moduli (GPa) = 26.37016 26.37016 102.51979
#
# Poissons Ratio (x) = 0.59161 0.22801
# Poissons Ratio (y) = 0.59161 0.22801
# Poissons Ratio (z) = 0.05865 0.05865
#
# Static dielectric constant tensor:
#      x y z
#    x 3.210460 0.000000 0.000000 
#    y 0.000000 3.210460 0.000000 
#    z 0.000000 0.000000 4.220650 
# 
# 
# High freq. dielectric constant tensor:
#      x y z
#    x 1.696690 0.000000 0.000000 
#    y 0.000000 1.696690 0.000000 
#    z 0.000000 0.000000 1.763540 
# 
# From -- ./inp_files/12489.got.cif
#   From: 2010.03.12/outbox.cif.g09.slc.cpg/sg142_7_cif.got.tgz:12489.got - 2010.04.03 13:27:16.
