data_PCOD8320470
_publ_section_title
;
Structure prediction by ZEFSAII (Michael W. Deem and Ramdas Pophale) SiO2 
 PCOD8320470
Probable space group: I 4/M C M
;
_chemical_formula_sum "Si O2"
_cell_formula_units_Z 128
_cell_length_a 18.600198
_cell_length_b 18.600198
_cell_length_c 22.885540
_cell_angle_alpha 90.000000
_cell_angle_beta 90.000000
_cell_angle_gamma 90.000000
_cell_volume 7917.649985
_symmetry_space_group_name_H-M "I 4/M C M"
_symmetry_group_IT_number 140
_symmetry_cell_setting 'tetragonal'
loop_
_space_group_symop_operation_xyz
x,y,z
-y,x,z
-x,-y,z
y,-x,z
x,-y,1/2-z
-x,y,1/2-z
y,x,1/2-z
-y,-x,1/2-z
-x,-y,-z
y,-x,-z
x,y,-z
-y,x,-z
-x,y,1/2+z
x,-y,1/2+z
-y,-x,1/2+z
y,x,1/2+z
1/2+x,1/2+y,1/2+z
1/2-y,1/2+x,1/2+z
1/2-x,1/2-y,1/2+z
1/2+y,1/2-x,1/2+z
1/2+x,1/2-y,-z
1/2-x,1/2+y,-z
1/2+y,1/2+x,-z
1/2-y,1/2-x,-z
1/2-x,1/2-y,1/2-z
1/2+y,1/2-x,1/2-z
1/2+x,1/2+y,1/2-z
1/2-y,1/2+x,1/2-z
1/2-x,1/2+y,z
1/2+x,1/2-y,z
1/2-y,1/2-x,z
1/2+y,1/2+x,z
loop_
_atom_site_type_symbol
_atom_site_label
_atom_site_fract_x
_atom_site_fract_y
_atom_site_fract_z
Si Si1 0.513859 0.801949 0.630199
Si Si2 0.141074 0.760548 0.433685
Si Si3 0.059383 0.440618 0.936712
Si Si4 0.757299 0.623694 0.566484
Si Si5 0.500000 0.120272 0.750000
O O1 0.577812 0.746829 0.613929
O O2 0.523209 0.874705 0.594977
O O3 0.440304 0.762881 0.612659
O O4 0.513548 0.824482 0.697484
O O5 0.110840 0.765819 0.500000
O O6 0.190853 0.690853 0.428094
O O7 0.185299 0.832225 0.418435
O O8 0.000000 0.500000 0.943017
O O9 0.086028 0.413973 0.000000
O O10 0.753912 0.594309 0.500000
O O11 0.826088 0.673913 0.573769
O O12 0.430213 0.069788 0.760602
#
# Coordination Sequence:
#
# PCOD8320470 Si02
#       5
#    32  32  16  32  16
#     4  12  20  32  50  70  99 139 172 201 249 308
#     4   9  17  31  50  73  99 128 165 211 264 313
#     4  11  20  28  46  76  99 118 158 211 256 309
#     4   9  18  31  49  74 102 127 160 214 270 311
#     4  11  22  34  46  68 108 145 172 202 248 301
#
# _framework density 16.166412999999999
#
# number of rings (size 3 to 8) (size 9 to 14) (size 15 to 20)
#    0.000    1.750    2.500    6.000    0.000    2.000 
#    0.000    1.250    0.000    5.250    0.000    3.500 
#    0.000    2.000    0.000    0.000    0.000    0.000 
#
# Total GULP energy -793476.559202 kJ/mol
# GULP energy per Si atom -12398.071238 kJ/mol
# Density = 1.612962 g / cm^3
# Si number density = 16.166413 Si / 1000 Ang^3
#
#
#
# Elastic Constant Matrix: (Units=GPa)
#
#
# Indices 1 2 3 4 5 6 
#
# 1 82.9791 42.8685 47.0791 0.0000 0.0000 0.0000
# 2 42.8685 82.9793 47.0791 0.0000 0.0000 0.0000
# 3 47.0791 47.0791 117.3322 0.0000 0.0000 0.0000
# 4 0.0000 0.0000 0.0000 28.1868 0.0000 0.0000
# 5 0.0000 0.0000 0.0000 0.0000 28.1859 0.0000
# 6 0.0000 0.0000 0.0000 0.0000 0.0000 25.8182
#
#
#
# Elastic Compliance Matrix: (Units=1/GPa)
#
#
# Indices 1 2 3 4 5 6 
#
# 1 0.018143 -0.006788 -0.004556 0.000000 0.000000 0.000000
# 2 -0.006788 0.018143 -0.004556 0.000000 0.000000 0.000000
# 3 -0.004556 -0.004556 0.012179 0.000000 0.000000 0.000000
# 4 0.000000 0.000000 0.000000 0.035478 0.000000 0.000000
# 5 0.000000 0.000000 0.000000 0.000000 0.035479 0.000000
# 6 0.000000 0.000000 0.000000 0.000000 0.000000 0.038732
#
#
# Mechanical properties :
#
#
# Convention : Reuss Voigt Hill
#
# Bulk Modulus (GPa) = 60.00792 61.92712 60.96752
# Shear Modulus (GPa) = 25.57425 26.18911 25.88168
#
# Velocity S-wave (km/s) = 3.98167 4.02925 4.00553
# Velocity P-wave (km/s) = 7.63792 7.74827 7.69329
#
# Compressibility (1/GPa) = 0.01666447
#
# Stress axis : x y z
#
# Youngs Moduli (GPa) = 55.11758 55.11776 82.10792
#
# Poissons Ratio (x) = 0.37414 0.37410
# Poissons Ratio (y) = 0.37414 0.37409
# Poissons Ratio (z) = 0.25112 0.25112
#
# Static dielectric constant tensor:
#      x y z
#    x 3.014500 0.000000 0.000000 
#    y 0.000000 3.014500 0.000000 
#    z 0.000000 0.000000 3.140590 
# 
# 
# High freq. dielectric constant tensor:
#      x y z
#    x 1.610030 0.000000 0.000000 
#    y 0.000000 1.610030 0.000000 
#    z 0.000000 0.000000 1.609830 
# 
# From -- ./inp_files/9305.got.cif
#   From: 2010.06.25/outbox.cif.g09.slc.cpg/sg140_5_cif.got.tgz:9305.got - 2010.06.28 10:53:23.
