data_PCOD8320312
_publ_section_title
;
Structure prediction by ZEFSAII (Michael W. Deem and Ramdas Pophale) SiO2 
 PCOD8320312
Probable space group: I 4/M C M
;
_chemical_formula_sum "Si O2"
_cell_formula_units_Z 160
_cell_length_a 28.700513
_cell_length_b 28.700513
_cell_length_c 9.537358
_cell_angle_alpha 90.000000
_cell_angle_beta 90.000000
_cell_angle_gamma 90.000000
_cell_volume 7856.107252
_symmetry_space_group_name_H-M "I 4/M C M"
_symmetry_group_IT_number 140
_symmetry_cell_setting 'tetragonal'
loop_
_space_group_symop_operation_xyz
x,y,z
-y,x,z
-x,-y,z
y,-x,z
x,-y,1/2-z
-x,y,1/2-z
y,x,1/2-z
-y,-x,1/2-z
-x,-y,-z
y,-x,-z
x,y,-z
-y,x,-z
-x,y,1/2+z
x,-y,1/2+z
-y,-x,1/2+z
y,x,1/2+z
1/2+x,1/2+y,1/2+z
1/2-y,1/2+x,1/2+z
1/2-x,1/2-y,1/2+z
1/2+y,1/2-x,1/2+z
1/2+x,1/2-y,-z
1/2-x,1/2+y,-z
1/2+y,1/2+x,-z
1/2-y,1/2-x,-z
1/2-x,1/2-y,1/2-z
1/2+y,1/2-x,1/2-z
1/2+x,1/2+y,1/2-z
1/2-y,1/2+x,1/2-z
1/2-x,1/2+y,z
1/2+x,1/2-y,z
1/2-y,1/2-x,z
1/2+y,1/2+x,z
loop_
_atom_site_type_symbol
_atom_site_label
_atom_site_fract_x
_atom_site_fract_y
_atom_site_fract_z
Si Si1 0.720100 0.428972 0.155336
Si Si2 0.297419 0.797419 0.151081
Si Si3 0.821562 0.458468 0.157702
Si Si4 0.359338 0.140663 0.165262
Si Si5 0.151174 0.207207 0.155071
Si Si6 0.953680 0.114144 0.168008
O O1 0.764949 0.462431 0.161696
O O2 0.732927 0.392117 0.275091
O O3 0.670307 0.452574 0.187147
O O4 0.718070 0.405650 0.000000
O O5 0.322609 0.822609 0.277115
O O6 0.242064 0.805217 0.155439
O O7 0.316363 0.816363 0.000000
O O8 0.842450 0.500000 0.250000
O O9 0.843745 0.410526 0.216896
O O10 0.839271 0.465688 0.000000
O O11 0.355298 0.144703 0.000000
O O12 0.162250 0.162250 0.250000
O O13 0.138240 0.189589 0.000000
O O14 0.910382 0.089619 0.250000
O O15 0.000000 0.096683 0.250000
O O16 0.954567 0.101468 0.000000
#
# Coordination Sequence:
#
# PCOD8320312 Si02
#       6
#    32  16  32  16  32  32
#     4  10  21  38  60  87 118 153 193 236 290 347
#     4  10  21  35  51  78 111 151 199 244 288 333
#     4  10  21  37  60  90 120 156 195 239 290 344
#     4  10  20  37  61  85 118 156 196 240 291 352
#     4  11  22  34  51  77 113 157 202 243 286 338
#     4  11  24  42  64  89 117 150 192 241 297 356
#
# _framework density 20.366320999999999
#
# number of rings (size 3 to 8) (size 9 to 14) (size 15 to 20)
#    0.000    1.600    2.000    2.700    0.000    5.800 
#    0.000    1.000    0.000    0.300    0.000    2.100 
#    0.000    0.000    0.000    0.000    0.000    0.000 
#
# Total GULP energy -991325.431678 kJ/mol
# GULP energy per Si atom -12391.567896 kJ/mol
# Density = 2.031997 g / cm^3
# Si number density = 20.366321 Si / 1000 Ang^3
#
#
#
# Elastic Constant Matrix: (Units=GPa)
#
#
# Indices 1 2 3 4 5 6 
#
# 1 68.1128 25.6651 36.9410 0.0000 0.0000 0.0000
# 2 25.6651 68.1089 36.9414 0.0000 0.0000 0.0000
# 3 36.9410 36.9414 127.8186 0.0000 0.0000 0.0000
# 4 0.0000 0.0000 0.0000 32.1517 0.0000 0.0000
# 5 0.0000 0.0000 0.0000 0.0000 32.1520 0.0000
# 6 0.0000 0.0000 0.0000 0.0000 0.0000 16.6149
#
#
#
# Elastic Compliance Matrix: (Units=1/GPa)
#
#
# Indices 1 2 3 4 5 6 
#
# 1 0.018683 -0.004876 -0.003990 0.000000 0.000000 0.000000
# 2 -0.004876 0.018684 -0.003991 0.000000 0.000000 0.000000
# 3 -0.003990 -0.003991 0.010130 0.000000 0.000000 0.000000
# 4 0.000000 0.000000 0.000000 0.031103 0.000000 0.000000
# 5 0.000000 0.000000 0.000000 0.000000 0.031102 0.000000
# 6 0.000000 0.000000 0.000000 0.000000 0.000000 0.060187
#
#
# Mechanical properties :
#
#
# Convention : Reuss Voigt Hill
#
# Bulk Modulus (GPa) = 45.90666 51.45948 48.68307
# Shear Modulus (GPa) = 24.64698 27.14991 25.89844
#
# Velocity S-wave (km/s) = 3.48254 3.65510 3.56986
# Velocity P-wave (km/s) = 6.22577 6.56771 6.39902
#
# Compressibility (1/GPa) = 0.02178333
#
# Stress axis : x y z
#
# Youngs Moduli (GPa) = 53.52473 53.52092 98.71407
#
# Poissons Ratio (x) = 0.26096 0.39391
# Poissons Ratio (y) = 0.26098 0.39395
# Poissons Ratio (z) = 0.21358 0.21359
#
# Static dielectric constant tensor:
#      x y z
#    x 3.496460 0.000000 0.000000 
#    y 0.000000 3.496450 0.000000 
#    z 0.000000 0.000000 3.918310 
# 
# 
# High freq. dielectric constant tensor:
#      x y z
#    x 1.776560 0.000000 0.000000 
#    y 0.000000 1.776560 0.000000 
#    z 0.000000 0.000000 1.810650 
# 
# From -- ./inp_files/1853.got.cif
#   From: 2010.06.25/outbox.cif.g09.slc.cpg/sg140_1_cif.got.tgz:1853.got - 2010.06.28 10:53:23.
