data_PCOD8320800
_publ_section_title
;
Structure prediction by ZEFSAII (Michael W. Deem and Ramdas Pophale) SiO2 
 PCOD8320800
Probable space group: I 41/A M D
;
_chemical_formula_sum "Si O2"
_cell_formula_units_Z 112
_cell_length_a 18.492671
_cell_length_b 18.492671
_cell_length_c 17.421849
_cell_angle_alpha 90.000000
_cell_angle_beta 90.000000
_cell_angle_gamma 90.000000
_cell_volume 5957.904421
_symmetry_space_group_name_H-M "I 41/A M D"
_symmetry_group_IT_number 141
_space_group.IT_coordinate_system_code '2'
_symmetry_cell_setting 'tetragonal'
loop_
_space_group_symop_operation_xyz
x,y,z
1/4-y,3/4+x,1/4+z
-x,1/2-y,z
1/4+y,1/4-x,3/4+z
x,-y,-z
-x,1/2+y,-z
1/4+y,3/4+x,1/4-z
1/4-y,1/4-x,3/4-z
-x,-y,-z
3/4+y,1/4-x,3/4-z
x,1/2+y,-z
3/4-y,3/4+x,1/4-z
-x,y,z
x,1/2-y,z
3/4-y,1/4-x,3/4+z
3/4+y,3/4+x,1/4+z
1/2+x,1/2+y,1/2+z
3/4-y,1/4+x,3/4+z
1/2-x,-y,1/2+z
3/4+y,3/4-x,1/4+z
1/2+x,1/2-y,1/2-z
1/2-x,y,1/2-z
3/4+y,1/4+x,3/4-z
3/4-y,3/4-x,1/4-z
1/2-x,1/2-y,1/2-z
1/4+y,3/4-x,1/4-z
1/2+x,y,1/2-z
1/4-y,1/4+x,3/4-z
1/2-x,1/2+y,1/2+z
1/2+x,-y,1/2+z
1/4-y,3/4-x,1/4+z
1/4+y,1/4+x,3/4+z
loop_
_atom_site_type_symbol
_atom_site_label
_atom_site_fract_x
_atom_site_fract_y
_atom_site_fract_z
Si Si1 0.582932 0.335189 0.823562
Si Si2 0.417147 0.332854 0.125000
Si Si3 0.668842 0.335067 0.975335
Si Si4 0.829757 0.065311 0.785146
O O1 0.500000 0.361961 0.826019
O O2 0.586890 0.250000 0.811497
O O3 0.621060 0.358594 0.902623
O O4 0.624893 0.370362 0.752843
O O5 0.402600 0.250000 0.144692
O O6 0.391843 0.376338 0.198916
O O7 0.686299 0.250000 0.972547
O O8 0.741092 0.380204 0.980316
O O9 0.750000 0.062841 0.750000
O O10 0.829164 0.079164 0.875000
#
# Coordination Sequence:
#
# PCOD8320800 Si02
#       4
#    32  16  32  32
#     4  10  22  41  65  91 118 152 200 253 300 352
#     4   9  18  34  60  92 124 158 196 243 300 360
#     4  10  21  38  61  89 122 159 198 245 300 357
#     4  12  25  42  60  86 122 160 201 244 299 356
#
# _framework density 18.798556000000001
#
# number of rings (size 3 to 8) (size 9 to 14) (size 15 to 20)
#    0.000    1.571    2.857    1.714    2.000    6.286 
#    0.000    1.429    0.000    6.857    0.000    0.000 
#    0.000    0.000    0.000    0.000    0.000    0.000 
#
# Total GULP energy -694582.228723 kJ/mol
# GULP energy per Si atom -12403.254084 kJ/mol
# Density = 1.875577 g / cm^3
# Si number density = 18.798556 Si / 1000 Ang^3
#
#
#
# Elastic Constant Matrix: (Units=GPa)
#
#
# Indices 1 2 3 4 5 6 
#
# 1 65.0291 42.0695 52.7554 0.0000 0.0000 0.0000
# 2 42.0695 65.0313 52.7530 0.0000 0.0000 0.0000
# 3 52.7554 52.7530 162.8801 0.0000 0.0000 0.0000
# 4 0.0000 0.0000 0.0000 36.2638 0.0000 0.0000
# 5 0.0000 0.0000 0.0000 0.0000 36.2645 0.0000
# 6 0.0000 0.0000 0.0000 0.0000 0.0000 38.0870
#
#
#
# Elastic Compliance Matrix: (Units=1/GPa)
#
#
# Indices 1 2 3 4 5 6 
#
# 1 0.028634 -0.014920 -0.004442 0.000000 0.000000 0.000000
# 2 -0.014920 0.028631 -0.004441 0.000000 0.000000 0.000000
# 3 -0.004442 -0.004441 0.009016 0.000000 0.000000 0.000000
# 4 0.000000 0.000000 0.000000 0.027576 0.000000 0.000000
# 5 0.000000 0.000000 0.000000 0.000000 0.027575 0.000000
# 6 0.000000 0.000000 0.000000 0.000000 0.000000 0.026256
#
#
# Mechanical properties :
#
#
# Convention : Reuss Voigt Hill
#
# Bulk Modulus (GPa) = 53.54414 65.34404 59.44409
# Shear Modulus (GPa) = 24.81165 31.81392 28.31278
#
# Velocity S-wave (km/s) = 3.63694 4.11829 3.88508
# Velocity P-wave (km/s) = 6.79569 7.57954 7.19829
#
# Compressibility (1/GPa) = 0.01867618
#
# Stress axis : x y z
#
# Youngs Moduli (GPa) = 34.92404 34.92678 110.90969
#
# Poissons Ratio (x) = 0.52111 0.49265
# Poissons Ratio (y) = 0.52107 0.49250
# Poissons Ratio (z) = 0.15513 0.15509
#
# Static dielectric constant tensor:
#      x y z
#    x 3.587410 0.000000 0.000000 
#    y 0.000000 3.587480 0.000000 
#    z 0.000000 0.000000 3.791880 
# 
# 
# High freq. dielectric constant tensor:
#      x y z
#    x 1.736380 0.000000 0.000000 
#    y 0.000000 1.736380 0.000000 
#    z 0.000000 0.000000 1.746230 
# 
# From -- ./inp_files/7903.got.cif
#   From: 2010.03.12/outbox.cif.g09.slc.cpg/sg141_4_cif.got.tgz:7903.got - 2010.04.03 13:18:35.
