data_PCOD8320620
_publ_section_title
;
Structure prediction by ZEFSAII (Michael W. Deem and Ramdas Pophale) SiO2 
 PCOD8320620
Probable space group: I 41/A M D
;
_chemical_formula_sum "Si O2"
_cell_formula_units_Z 164
_cell_length_a 24.107782
_cell_length_b 24.107782
_cell_length_c 15.605394
_cell_angle_alpha 90.000000
_cell_angle_beta 90.000000
_cell_angle_gamma 90.000000
_cell_volume 9069.623299
_symmetry_space_group_name_H-M "I 41/A M D"
_symmetry_group_IT_number 141
_space_group.IT_coordinate_system_code '2'
_symmetry_cell_setting 'tetragonal'
loop_
_space_group_symop_operation_xyz
x,y,z
1/4-y,3/4+x,1/4+z
-x,1/2-y,z
1/4+y,1/4-x,3/4+z
x,-y,-z
-x,1/2+y,-z
1/4+y,3/4+x,1/4-z
1/4-y,1/4-x,3/4-z
-x,-y,-z
3/4+y,1/4-x,3/4-z
x,1/2+y,-z
3/4-y,3/4+x,1/4-z
-x,y,z
x,1/2-y,z
3/4-y,1/4-x,3/4+z
3/4+y,3/4+x,1/4+z
1/2+x,1/2+y,1/2+z
3/4-y,1/4+x,3/4+z
1/2-x,-y,1/2+z
3/4+y,3/4-x,1/4+z
1/2+x,1/2-y,1/2-z
1/2-x,y,1/2-z
3/4+y,1/4+x,3/4-z
3/4-y,3/4-x,1/4-z
1/2-x,1/2-y,1/2-z
1/4+y,3/4-x,1/4-z
1/2+x,y,1/2-z
1/4-y,1/4+x,3/4-z
1/2-x,1/2+y,1/2+z
1/2+x,-y,1/2+z
1/4-y,3/4-x,1/4+z
1/4+y,1/4+x,3/4+z
loop_
_atom_site_type_symbol
_atom_site_label
_atom_site_fract_x
_atom_site_fract_y
_atom_site_fract_z
Si Si1 0.935773 0.446935 0.945970
Si Si2 0.563728 0.525723 0.249863
Si Si3 0.500000 0.250000 0.625000
Si Si4 0.935805 0.098740 0.229403
Si Si5 0.386729 0.870066 0.186645
Si Si6 0.000000 0.188988 0.710842
Si Si7 0.936365 0.186365 0.375000
O O1 0.922987 0.459551 0.847822
O O2 0.000000 0.433212 0.962369
O O3 0.916954 0.500000 0.000000
O O4 0.900701 0.394339 0.978098
O O5 0.500000 0.540532 0.229431
O O6 0.575558 0.461392 0.228743
O O7 0.604008 0.563500 0.191386
O O8 0.445011 0.250000 0.565058
O O9 0.895860 0.102617 0.147732
O O10 0.920787 0.146761 0.296299
O O11 0.000000 0.102548 0.199327
O O12 0.446438 0.842408 0.178914
O O13 0.000000 0.250000 0.667472
O O14 0.926705 0.250000 0.346093
#
# Coordination Sequence:
#
# PCOD8320620 Si02
#       7
#    32  32   4  32  32  16  16
#     4  10  19  32  52  78 111 157 196 227 272 330
#     4  10  21  35  53  82 116 150 191 229 275 343
#     4   8  24  32  32  68 132 146 172 216 300 316
#     4  10  21  39  59  84 116 148 187 241 295 351
#     4  12  21  33  55  83 113 150 194 234 278 342
#     4  10  22  30  46  79 116 152 178 229 286 338
#     4   9  20  38  64  90 112 141 182 237 304 362
#
# _framework density 18.082338
#
# number of rings (size 3 to 8) (size 9 to 14) (size 15 to 20)
#    0.293    1.463    2.927    2.341    4.098    0.000 
#    0.000    0.976    0.000    5.854    0.000    0.000 
#    0.000    0.000    0.000    0.000    0.000    0.000 
#
# Total GULP energy -1016811.856521 kJ/mol
# GULP energy per Si atom -12400.144592 kJ/mol
# Density = 1.804118 g / cm^3
# Si number density = 18.082338 Si / 1000 Ang^3
#
#
#
# Elastic Constant Matrix: (Units=GPa)
#
#
# Indices 1 2 3 4 5 6 
#
# 1 93.0202 37.2542 29.7107 0.0000 0.0000 0.0000
# 2 37.2542 93.0202 29.7107 0.0000 0.0000 0.0000
# 3 29.7107 29.7107 58.0303 0.0000 0.0000 0.0000
# 4 0.0000 0.0000 0.0000 24.9940 0.0000 0.0000
# 5 0.0000 0.0000 0.0000 0.0000 24.9940 0.0000
# 6 0.0000 0.0000 0.0000 0.0000 0.0000 22.1987
#
#
#
# Elastic Compliance Matrix: (Units=1/GPa)
#
#
# Indices 1 2 3 4 5 6 
#
# 1 0.013973 -0.003959 -0.005127 0.000000 0.000000 0.000000
# 2 -0.003959 0.013973 -0.005127 0.000000 0.000000 0.000000
# 3 -0.005127 -0.005127 0.022483 0.000000 0.000000 0.000000
# 4 0.000000 0.000000 0.000000 0.040010 0.000000 0.000000
# 5 0.000000 0.000000 0.000000 0.000000 0.040010 0.000000
# 6 0.000000 0.000000 0.000000 0.000000 0.000000 0.045048
#
#
# Mechanical properties :
#
#
# Convention : Reuss Voigt Hill
#
# Bulk Modulus (GPa) = 45.44916 48.60245 47.02580
# Shear Modulus (GPa) = 23.66774 24.26366 23.96570
#
# Velocity S-wave (km/s) = 3.62178 3.66709 3.64451
# Velocity P-wave (km/s) = 6.53290 6.69827 6.61610
#
# Compressibility (1/GPa) = 0.02200261
#
# Stress axis : x y z
#
# Youngs Moduli (GPa) = 71.56422 71.56422 44.47856
#
# Poissons Ratio (x) = 0.28329 0.22806
# Poissons Ratio (y) = 0.28329 0.22806
# Poissons Ratio (z) = 0.36694 0.36694
#
# Static dielectric constant tensor:
#      x y z
#    x 3.413070 0.000000 0.000000 
#    y 0.000000 3.413070 0.000000 
#    z 0.000000 0.000000 3.107690 
# 
# 
# High freq. dielectric constant tensor:
#      x y z
#    x 1.692040 0.000000 0.000000 
#    y 0.000000 1.692040 0.000000 
#    z 0.000000 0.000000 1.678150 
# 
# From -- ./inp_files/8833.got.cif
#   From: 2010.03.12/outbox.cif.g09.slc.cpg/sg141_5_cif.got.tgz:8833.got - 2010.04.03 13:18:35.
