data_PCOD8320962
_publ_section_title
;
Structure prediction by ZEFSAII (Michael W. Deem and Ramdas Pophale) SiO2 
 PCOD8320962
Probable space group: I 41/A C D
;
_chemical_formula_sum "Si O2"
_cell_formula_units_Z 160
_cell_length_a 17.887761
_cell_length_b 17.887761
_cell_length_c 26.814460
_cell_angle_alpha 90.000000
_cell_angle_beta 90.000000
_cell_angle_gamma 90.000000
_cell_volume 8579.876223
_symmetry_space_group_name_H-M "I 41/A C D"
_symmetry_group_IT_number 142
_space_group.IT_coordinate_system_code '2'
_symmetry_cell_setting 'tetragonal'
loop_
_space_group_symop_operation_xyz
x,y,z
1/4-y,3/4+x,1/4+z
-x,1/2-y,z
1/4+y,1/4-x,3/4+z
x,-y,1/2-z
1/2-x,y,-z
3/4+y,1/4+x,1/4-z
1/4-y,1/4-x,1/4-z
-x,-y,-z
3/4+y,1/4-x,3/4-z
x,1/2+y,-z
3/4-y,3/4+x,1/4-z
-x,y,1/2+z
1/2+x,-y,z
1/4-y,3/4-x,3/4+z
3/4+y,3/4+x,3/4+z
1/2+x,1/2+y,1/2+z
3/4-y,1/4+x,3/4+z
1/2-x,-y,1/2+z
3/4+y,3/4-x,1/4+z
1/2+x,1/2-y,-z
-x,1/2+y,1/2-z
1/4+y,3/4+x,3/4-z
3/4-y,3/4-x,3/4-z
1/2-x,1/2-y,1/2-z
1/4+y,3/4-x,1/4-z
1/2+x,y,1/2-z
1/4-y,1/4+x,3/4-z
1/2-x,1/2+y,z
x,1/2-y,1/2+z
3/4-y,1/4-x,1/4+z
1/4+y,1/4+x,1/4+z
loop_
_atom_site_type_symbol
_atom_site_label
_atom_site_fract_x
_atom_site_fract_y
_atom_site_fract_z
Si Si1 0.176562 0.842403 0.722387
Si Si2 0.377594 0.746765 0.121700
Si Si3 0.949278 0.989819 0.066656
Si Si4 0.168740 0.475233 0.350406
Si Si5 0.681380 0.182879 0.968509
O O1 0.239474 0.844339 0.765776
O O2 0.176298 0.760968 0.696294
O O3 0.194323 0.902876 0.679881
O O4 0.095893 0.863419 0.746409
O O5 0.416118 0.666118 0.125000
O O6 0.436188 0.813813 0.125000
O O7 0.314238 0.757780 0.163519
O O8 0.343870 0.749173 0.066114
O O9 0.893408 0.955543 0.107628
O O10 0.243859 0.506142 0.375000
O O11 0.137314 0.540272 0.314493
O O12 0.750000 0.215362 0.000000
#
# Coordination Sequence:
#
# PCOD8320962 Si02
#       5
#    32  32  32  32  32
#     4  10  19  31  57  75 107 139 175 226 272 315
#     4  10  18  31  54  76 106 137 175 218 261 322
#     4  10  19  34  53  79 107 144 178 222 277 325
#     4  10  18  32  56  81 104 137 187 228 264 328
#     4   9  16  31  55  79  97 137 184 216 260 325
#
# _framework density 18.648287
#
# number of rings (size 3 to 8) (size 9 to 14) (size 15 to 20)
#    0.000    2.200    4.000    1.200    0.000    0.800 
#    0.000    0.000   30.800    0.000    0.000    0.000 
#    0.000    0.000    0.000    0.000    0.000    0.000 
#
# Total GULP energy -991695.332364 kJ/mol
# GULP energy per Si atom -12396.191655 kJ/mol
# Density = 1.860584 g / cm^3
# Si number density = 18.648287 Si / 1000 Ang^3
#
#
#
# Elastic Constant Matrix: (Units=GPa)
#
#
# Indices 1 2 3 4 5 6 
#
# 1 77.3855 49.4413 58.5529 0.0000 0.0000 0.0000
# 2 49.4413 77.3868 58.5531 0.0000 0.0000 0.0000
# 3 58.5529 58.5531 135.6864 0.0000 0.0000 0.0000
# 4 0.0000 0.0000 0.0000 27.8966 0.0000 0.0000
# 5 0.0000 0.0000 0.0000 0.0000 27.8967 0.0000
# 6 0.0000 0.0000 0.0000 0.0000 0.0000 25.2559
#
#
#
# Elastic Compliance Matrix: (Units=1/GPa)
#
#
# Indices 1 2 3 4 5 6 
#
# 1 0.024446 -0.011339 -0.005656 0.000000 0.000000 0.000000
# 2 -0.011339 0.024446 -0.005656 0.000000 0.000000 0.000000
# 3 -0.005656 -0.005656 0.012252 0.000000 0.000000 0.000000
# 4 0.000000 0.000000 0.000000 0.035847 0.000000 0.000000
# 5 0.000000 0.000000 0.000000 0.000000 0.035846 0.000000
# 6 0.000000 0.000000 0.000000 0.000000 0.000000 0.039595
#
#
# Mechanical properties :
#
#
# Convention : Reuss Voigt Hill
#
# Bulk Modulus (GPa) = 63.12555 69.28370 66.20462
# Shear Modulus (GPa) = 22.42005 24.47060 23.44532
#
# Velocity S-wave (km/s) = 3.47112 3.62638 3.54960
# Velocity P-wave (km/s) = 7.07029 7.40052 7.23729
#
# Compressibility (1/GPa) = 0.01584145
#
# Stress axis : x y z
#
# Youngs Moduli (GPa) = 40.90591 40.90673 81.62148
#
# Poissons Ratio (x) = 0.46383 0.46168
# Poissons Ratio (y) = 0.46382 0.46167
# Poissons Ratio (z) = 0.23138 0.23138
#
# Static dielectric constant tensor:
#      x y z
#    x 3.210830 0.000000 0.000000 
#    y 0.000000 3.210830 0.000000 
#    z 0.000000 0.000000 3.810600 
# 
# 
# High freq. dielectric constant tensor:
#      x y z
#    x 1.694310 0.000000 0.000000 
#    y 0.000000 1.694310 0.000000 
#    z 0.000000 0.000000 1.744640 
# 
# From -- ./inp_files/11268.got.cif
#   From: 2010.03.12/outbox.cif.g09.slc.cpg/sg142_6_cif.got.tgz:11268.got - 2010.04.03 13:27:16.
