data_PCOD8320909
_publ_section_title
;
Structure prediction by ZEFSAII (Michael W. Deem and Ramdas Pophale) SiO2 
 PCOD8320909
Probable space group: I 41/A M D
;
_chemical_formula_sum "Si O2"
_cell_formula_units_Z 128
_cell_length_a 21.665112
_cell_length_b 21.665112
_cell_length_c 13.152545
_cell_angle_alpha 90.000000
_cell_angle_beta 90.000000
_cell_angle_gamma 90.000000
_cell_volume 6173.503140
_symmetry_space_group_name_H-M "I 41/A M D"
_symmetry_group_IT_number 141
_space_group.IT_coordinate_system_code '2'
_symmetry_cell_setting 'tetragonal'
loop_
_space_group_symop_operation_xyz
x,y,z
1/4-y,3/4+x,1/4+z
-x,1/2-y,z
1/4+y,1/4-x,3/4+z
x,-y,-z
-x,1/2+y,-z
1/4+y,3/4+x,1/4-z
1/4-y,1/4-x,3/4-z
-x,-y,-z
3/4+y,1/4-x,3/4-z
x,1/2+y,-z
3/4-y,3/4+x,1/4-z
-x,y,z
x,1/2-y,z
3/4-y,1/4-x,3/4+z
3/4+y,3/4+x,1/4+z
1/2+x,1/2+y,1/2+z
3/4-y,1/4+x,3/4+z
1/2-x,-y,1/2+z
3/4+y,3/4-x,1/4+z
1/2+x,1/2-y,1/2-z
1/2-x,y,1/2-z
3/4+y,1/4+x,3/4-z
3/4-y,3/4-x,1/4-z
1/2-x,1/2-y,1/2-z
1/4+y,3/4-x,1/4-z
1/2+x,y,1/2-z
1/4-y,1/4+x,3/4-z
1/2-x,1/2+y,1/2+z
1/2+x,-y,1/2+z
1/4-y,3/4-x,1/4+z
1/4+y,1/4+x,3/4+z
loop_
_atom_site_type_symbol
_atom_site_label
_atom_site_fract_x
_atom_site_fract_y
_atom_site_fract_z
Si Si1 0.630784 0.065922 0.023655
Si Si2 0.500000 0.567002 0.237438
Si Si3 0.433769 0.750000 0.004211
Si Si4 0.000000 0.071231 0.977103
Si Si5 0.000000 0.061402 0.382708
Si Si6 0.398592 0.143434 0.398627
O O1 0.659753 0.090248 0.125000
O O2 0.557248 0.059844 0.040401
O O3 0.649454 0.109597 0.929037
O O4 0.660204 0.000000 0.000000
O O5 0.500000 0.575212 0.357343
O O6 0.500000 0.495831 0.197749
O O7 0.562358 0.600625 0.204474
O O8 0.500000 0.750000 0.946114
O O9 0.434200 0.808726 0.076843
O O10 0.376334 0.750000 0.927398
O O11 0.061711 0.102693 0.022906
O O12 0.000000 0.000000 0.000000
#
# Coordination Sequence:
#
# PCOD8320909 Si02
#       6
#    32  16  16  16  16  32
#     4  12  25  43  69  99 138 178 228 286 351 423
#     4  12  22  44  71  99 134 193 233 279 353 425
#     4  11  22  39  60 103 141 172 215 288 355 416
#     4  11  27  44  67 101 141 186 236 290 343 420
#     4  12  24  40  72 102 139 180 224 287 364 422
#     4  11  23  43  67 100 139 179 229 285 343 421
#
# _framework density 20.733771000000001
#
# number of rings (size 3 to 8) (size 9 to 14) (size 15 to 20)
#    0.000    0.500    6.250    3.375    0.000    0.000 
#    4.500    2.500    0.000    0.000    0.000    0.000 
#    0.000    0.000    0.000    0.000    0.000    0.000 
#
# Total GULP energy -793319.919288 kJ/mol
# GULP energy per Si atom -12395.623739 kJ/mol
# Density = 2.068658 g / cm^3
# Si number density = 20.733771 Si / 1000 Ang^3
#
#
#
# Elastic Constant Matrix: (Units=GPa)
#
#
# Indices 1 2 3 4 5 6 
#
# 1 121.3118 16.7159 35.4350 0.0000 0.0000 0.0000
# 2 16.7159 121.3091 35.4335 0.0000 0.0000 0.0000
# 3 35.4350 35.4335 138.5226 0.0000 0.0000 0.0000
# 4 0.0000 0.0000 0.0000 30.7675 0.0000 0.0000
# 5 0.0000 0.0000 0.0000 0.0000 30.7677 0.0000
# 6 0.0000 0.0000 0.0000 0.0000 0.0000 27.2845
#
#
#
# Elastic Compliance Matrix: (Units=1/GPa)
#
#
# Indices 1 2 3 4 5 6 
#
# 1 0.008950 -0.000610 -0.002134 0.000000 0.000000 0.000000
# 2 -0.000610 0.008951 -0.002133 0.000000 0.000000 0.000000
# 3 -0.002134 -0.002133 0.008311 0.000000 0.000000 0.000000
# 4 0.000000 0.000000 0.000000 0.032502 0.000000 0.000000
# 5 0.000000 0.000000 0.000000 0.000000 0.032502 0.000000
# 6 0.000000 0.000000 0.000000 0.000000 0.000000 0.036651
#
#
# Mechanical properties :
#
#
# Convention : Reuss Voigt Hill
#
# Bulk Modulus (GPa) = 60.76292 61.81250 61.28771
# Shear Modulus (GPa) = 34.93913 37.33454 36.13684
#
# Velocity S-wave (km/s) = 4.10949 4.24803 4.17933
# Velocity P-wave (km/s) = 7.20327 7.34426 7.27411
#
# Compressibility (1/GPa) = 0.01645741
#
# Stress axis : x y z
#
# Youngs Moduli (GPa) = 111.72570 111.72378 120.32913
#
# Poissons Ratio (x) = 0.06817 0.25672
# Poissons Ratio (y) = 0.06817 0.25672
# Poissons Ratio (z) = 0.23837 0.23836
#
# Static dielectric constant tensor:
#      x y z
#    x 4.226040 0.000000 0.000000 
#    y 0.000000 4.226150 0.000000 
#    z 0.000000 0.000000 3.554370 
# 
# 
# High freq. dielectric constant tensor:
#      x y z
#    x 1.811420 0.000000 0.000000 
#    y 0.000000 1.811420 0.000000 
#    z 0.000000 0.000000 1.829720 
# 
# From -- ./inp_files/6287.got.cif
#   From: 2010.03.12/outbox.cif.g09.slc.cpg/sg141_4_cif.got.tgz:6287.got - 2010.04.03 13:18:35.
