data_PCOD8320044
_publ_section_title
;
Structure prediction by ZEFSAII (Michael W. Deem and Ramdas Pophale) SiO2 
 PCOD8320044
Probable space group: I 4/M C M
;
_chemical_formula_sum "Si O2"
_cell_formula_units_Z 176
_cell_length_a 26.095333
_cell_length_b 26.095333
_cell_length_c 17.668473
_cell_angle_alpha 90.000000
_cell_angle_beta 90.000000
_cell_angle_gamma 90.000000
_cell_volume 12031.636530
_symmetry_space_group_name_H-M "I 4/M C M"
_symmetry_group_IT_number 140
_symmetry_cell_setting 'tetragonal'
loop_
_space_group_symop_operation_xyz
x,y,z
-y,x,z
-x,-y,z
y,-x,z
x,-y,1/2-z
-x,y,1/2-z
y,x,1/2-z
-y,-x,1/2-z
-x,-y,-z
y,-x,-z
x,y,-z
-y,x,-z
-x,y,1/2+z
x,-y,1/2+z
-y,-x,1/2+z
y,x,1/2+z
1/2+x,1/2+y,1/2+z
1/2-y,1/2+x,1/2+z
1/2-x,1/2-y,1/2+z
1/2+y,1/2-x,1/2+z
1/2+x,1/2-y,-z
1/2-x,1/2+y,-z
1/2+y,1/2+x,-z
1/2-y,1/2-x,-z
1/2-x,1/2-y,1/2-z
1/2+y,1/2-x,1/2-z
1/2+x,1/2+y,1/2-z
1/2-y,1/2+x,1/2-z
1/2-x,1/2+y,z
1/2+x,1/2-y,z
1/2-y,1/2-x,z
1/2+y,1/2+x,z
loop_
_atom_site_type_symbol
_atom_site_label
_atom_site_fract_x
_atom_site_fract_y
_atom_site_fract_z
Si Si1 0.527639 0.156940 0.910091
Si Si2 0.303001 0.717312 0.916456
Si Si3 0.623928 0.209402 0.839083
Si Si4 0.540821 0.959180 0.589433
Si Si5 0.833925 0.413489 0.089127
Si Si6 0.737378 0.846023 0.180996
O O1 0.567749 0.192275 0.865479
O O2 0.529416 0.098177 0.883635
O O3 0.471366 0.174197 0.883189
O O4 0.537565 0.162319 0.000000
O O5 0.253899 0.753899 0.917537
O O6 0.353762 0.749670 0.898274
O O7 0.292184 0.673817 0.852007
O O8 0.310344 0.692735 0.000000
O O9 0.658579 0.158579 0.835180
O O10 0.621135 0.239218 0.758437
O O11 0.536716 0.963285 0.500000
O O12 0.500000 0.000000 0.624833
O O13 0.886558 0.386558 0.120239
O O14 0.785659 0.380660 0.114900
O O15 0.836256 0.413054 0.000000
O O16 0.703241 0.796759 0.200813
#
# Coordination Sequence:
#
# PCOD8320044 Si02
#       6
#    32  32  32  16  32  32
#     4  10  18  27  40  57  77 102 134 173 213 252
#     4   9  16  26  42  60  78  97 122 156 196 244
#     4  10  18  27  39  58  81 104 124 156 206 260
#     4   9  16  26  40  56  73  96 133 177 218 253
#     4   9  17  29  43  57  73  98 137 178 209 238
#     4   9  17  28  41  57  75 100 127 161 198 245
#
# _framework density 14.628102
#
# number of rings (size 3 to 8) (size 9 to 14) (size 15 to 20)
#    0.000    2.636    0.909    2.182    0.000    8.000 
#    0.000    0.000    0.000    0.000    0.000    0.000 
#    0.000    0.000    0.000    0.000    0.000    1.091 
#
# Total GULP energy -1090405.331288 kJ/mol
# GULP energy per Si atom -12390.969674 kJ/mol
# Density = 1.459481 g / cm^3
# Si number density = 14.628102 Si / 1000 Ang^3
#
#
#
# Elastic Constant Matrix: (Units=GPa)
#
#
# Indices 1 2 3 4 5 6 
#
# 1 48.4234 51.2921 30.0550 0.0000 0.0000 0.0000
# 2 51.2921 48.4239 30.0540 0.0000 0.0000 0.0000
# 3 30.0550 30.0540 47.9627 0.0000 0.0000 0.0000
# 4 0.0000 0.0000 0.0000 14.8747 0.0000 0.0000
# 5 0.0000 0.0000 0.0000 0.0000 14.8747 0.0000
# 6 0.0000 0.0000 0.0000 0.0000 0.0000 24.4973
#
#
#
# Elastic Compliance Matrix: (Units=1/GPa)
#
#
# Indices 1 2 3 4 5 6 
#
# 1 -0.166257 0.182368 -0.010092 0.000000 0.000000 0.000000
# 2 0.182368 -0.166247 -0.010105 0.000000 0.000000 0.000000
# 3 -0.010092 -0.010105 0.033506 0.000000 0.000000 0.000000
# 4 0.000000 0.000000 0.000000 0.067228 0.000000 0.000000
# 5 0.000000 0.000000 0.000000 0.000000 0.067228 0.000000
# 6 0.000000 0.000000 0.000000 0.000000 0.000000 0.040821
#
#
# Mechanical properties :
#
#
# Convention : Reuss Voigt Hill
#
# Bulk Modulus (GPa) = 39.45861 40.84582 40.15221
# Shear Modulus (GPa) = -11.37357 13.07661 0.85152
#
# Velocity S-wave (km/s) = -2.79142 2.99312 0.76379
# Velocity P-wave (km/s) = 4.07967 6.31890 5.31847
#
# Compressibility (1/GPa) = 0.02534301
#
# Stress axis : x y z
#
# Youngs Moduli (GPa) = -6.01477 -6.01514 29.84575
#
# Poissons Ratio (x) = 1.09697 0.30120
# Poissons Ratio (y) = 1.09690 0.30160
# Poissons Ratio (z) = -0.06070 -0.06079
#
# Static dielectric constant tensor:
#      x y z
#    x 2.737840 0.000000 0.000000 
#    y 0.000000 2.737830 0.000000 
#    z 0.000000 0.000000 2.913100 
# 
# 
# High freq. dielectric constant tensor:
#      x y z
#    x 1.526530 0.000000 0.000000 
#    y 0.000000 1.526530 0.000000 
#    z 0.000000 0.000000 1.564070 
# 
# From -- ./inp_files/5128.got.cif
#   From: 2010.06.25/outbox.cif.g09.slc.cpg/sg140_3_cif.got.tgz:5128.got - 2010.06.28 10:53:23.
