data_PCOD8320907
_publ_section_title
;
Structure prediction by ZEFSAII (Michael W. Deem and Ramdas Pophale) SiO2 
 PCOD8320907
Probable space group: I 41/A M D
;
_chemical_formula_sum "Si O2"
_cell_formula_units_Z 160
_cell_length_a 30.129284
_cell_length_b 30.129284
_cell_length_c 9.097669
_cell_angle_alpha 90.000000
_cell_angle_beta 90.000000
_cell_angle_gamma 90.000000
_cell_volume 8258.625144
_symmetry_space_group_name_H-M "I 41/A M D"
_symmetry_group_IT_number 141
_space_group.IT_coordinate_system_code '2'
_symmetry_cell_setting 'tetragonal'
loop_
_space_group_symop_operation_xyz
x,y,z
1/4-y,3/4+x,1/4+z
-x,1/2-y,z
1/4+y,1/4-x,3/4+z
x,-y,-z
-x,1/2+y,-z
1/4+y,3/4+x,1/4-z
1/4-y,1/4-x,3/4-z
-x,-y,-z
3/4+y,1/4-x,3/4-z
x,1/2+y,-z
3/4-y,3/4+x,1/4-z
-x,y,z
x,1/2-y,z
3/4-y,1/4-x,3/4+z
3/4+y,3/4+x,1/4+z
1/2+x,1/2+y,1/2+z
3/4-y,1/4+x,3/4+z
1/2-x,-y,1/2+z
3/4+y,3/4-x,1/4+z
1/2+x,1/2-y,1/2-z
1/2-x,y,1/2-z
3/4+y,1/4+x,3/4-z
3/4-y,3/4-x,1/4-z
1/2-x,1/2-y,1/2-z
1/4+y,3/4-x,1/4-z
1/2+x,y,1/2-z
1/4-y,1/4+x,3/4-z
1/2-x,1/2+y,1/2+z
1/2+x,-y,1/2+z
1/4-y,3/4-x,1/4+z
1/4+y,1/4+x,3/4+z
loop_
_atom_site_type_symbol
_atom_site_label
_atom_site_fract_x
_atom_site_fract_y
_atom_site_fract_z
Si Si1 0.448530 0.801471 0.875000
Si Si2 0.598512 0.459961 0.809563
Si Si3 0.805379 0.119671 0.381680
Si Si4 0.000000 0.034058 0.790247
Si Si5 0.372761 0.668827 0.078855
Si Si6 0.500000 0.565290 0.600825
Si Si7 0.130555 0.380555 0.875000
O O1 0.500000 0.810236 0.911814
O O2 0.433151 0.829518 0.733769
O O3 0.618999 0.509177 0.788989
O O4 0.544932 0.458651 0.802156
O O5 0.622109 0.430931 0.681788
O O6 0.608379 0.442097 0.971277
O O7 0.815916 0.065916 0.375000
O O8 0.847722 0.133583 0.478701
O O9 0.000000 0.985078 0.851696
O O10 0.000000 0.068968 0.924207
O O11 0.338663 0.708583 0.078625
O O12 0.381775 0.651721 0.242284
#
# Coordination Sequence:
#
# PCOD8320907 Si02
#       7
#    16  32  32  16  32  16  16
#     4  11  24  42  64  90 125 174 221 260 310 387
#     4  11  24  40  67  93 131 163 213 266 318 389
#     4  11  23  42  64  91 126 166 206 261 323 379
#     4  11  22  38  63 106 126 159 215 271 329 388
#     4  12  22  43  64  92 128 170 209 265 328 381
#     4  11  22  37  65  97 131 160 209 274 330 375
#     4  12  24  42  64  93 125 178 207 256 334 385
#
# _framework density 19.373684000000001
#
# number of rings (size 3 to 8) (size 9 to 14) (size 15 to 20)
#    0.000    0.700    8.000    0.000    0.000    3.200 
#    7.200    0.000    8.800    1.200    0.000    0.000 
#    0.000    0.000    0.000    0.000    0.000    0.000 
#
# Total GULP energy -991561.692283 kJ/mol
# GULP energy per Si atom -12394.521154 kJ/mol
# Density = 1.932959 g / cm^3
# Si number density = 19.373684 Si / 1000 Ang^3
#
#
#
# Elastic Constant Matrix: (Units=GPa)
#
#
# Indices 1 2 3 4 5 6 
#
# 1 112.4982 70.8635 46.8883 0.0000 0.0000 0.0000
# 2 70.8635 112.4959 46.8884 0.0000 0.0000 0.0000
# 3 46.8883 46.8884 119.1377 0.0000 0.0000 0.0000
# 4 0.0000 0.0000 0.0000 36.9080 0.0000 0.0000
# 5 0.0000 0.0000 0.0000 0.0000 36.9073 0.0000
# 6 0.0000 0.0000 0.0000 0.0000 0.0000 41.7586
#
#
#
# Elastic Compliance Matrix: (Units=1/GPa)
#
#
# Indices 1 2 3 4 5 6 
#
# 1 0.015423 -0.008595 -0.002687 0.000000 0.000000 0.000000
# 2 -0.008595 0.015424 -0.002687 0.000000 0.000000 0.000000
# 3 -0.002687 -0.002687 0.010509 0.000000 0.000000 0.000000
# 4 0.000000 0.000000 0.000000 0.027094 0.000000 0.000000
# 5 0.000000 0.000000 0.000000 0.000000 0.027095 0.000000
# 6 0.000000 0.000000 0.000000 0.000000 0.000000 0.023947
#
#
# Mechanical properties :
#
#
# Convention : Reuss Voigt Hill
#
# Bulk Modulus (GPa) = 74.53831 74.82357 74.68094
# Shear Modulus (GPa) = 32.91537 35.08089 33.99813
#
# Velocity S-wave (km/s) = 4.12633 4.25991 4.19365
# Velocity P-wave (km/s) = 7.82686 7.93100 7.87910
#
# Compressibility (1/GPa) = 0.01341592
#
# Stress axis : x y z
#
# Youngs Moduli (GPa) = 64.83652 64.83483 95.15746
#
# Poissons Ratio (x) = 0.55729 0.25571
# Poissons Ratio (y) = 0.55730 0.25573
# Poissons Ratio (z) = 0.17423 0.17424
#
# Static dielectric constant tensor:
#      x y z
#    x 3.712050 0.000000 0.000000 
#    y 0.000000 3.712090 0.000000 
#    z 0.000000 0.000000 3.626610 
# 
# 
# High freq. dielectric constant tensor:
#      x y z
#    x 1.759630 0.000000 0.000000 
#    y 0.000000 1.759630 0.000000 
#    z 0.000000 0.000000 1.759900 
# 
# From -- ./inp_files/3337.got.cif
#   From: 2010.03.12/outbox.cif.g09.slc.cpg/sg141_2_cif.got.tgz:3337.got - 2010.04.03 13:18:35.
