data_PCOD8320287
_publ_section_title
;
Structure prediction by ZEFSAII (Michael W. Deem and Ramdas Pophale) SiO2 
 PCOD8320287
Probable space group: I 4/M C M
;
_chemical_formula_sum "Si O2"
_cell_formula_units_Z 112
_cell_length_a 17.840344
_cell_length_b 17.840344
_cell_length_c 19.246730
_cell_angle_alpha 90.000000
_cell_angle_beta 90.000000
_cell_angle_gamma 90.000000
_cell_volume 6125.808307
_symmetry_space_group_name_H-M "I 4/M C M"
_symmetry_group_IT_number 140
_symmetry_cell_setting 'tetragonal'
loop_
_space_group_symop_operation_xyz
x,y,z
-y,x,z
-x,-y,z
y,-x,z
x,-y,1/2-z
-x,y,1/2-z
y,x,1/2-z
-y,-x,1/2-z
-x,-y,-z
y,-x,-z
x,y,-z
-y,x,-z
-x,y,1/2+z
x,-y,1/2+z
-y,-x,1/2+z
y,x,1/2+z
1/2+x,1/2+y,1/2+z
1/2-y,1/2+x,1/2+z
1/2-x,1/2-y,1/2+z
1/2+y,1/2-x,1/2+z
1/2+x,1/2-y,-z
1/2-x,1/2+y,-z
1/2+y,1/2+x,-z
1/2-y,1/2-x,-z
1/2-x,1/2-y,1/2-z
1/2+y,1/2-x,1/2-z
1/2+x,1/2+y,1/2-z
1/2-y,1/2+x,1/2-z
1/2-x,1/2+y,z
1/2+x,1/2-y,z
1/2-y,1/2-x,z
1/2+y,1/2+x,z
loop_
_atom_site_type_symbol
_atom_site_label
_atom_site_fract_x
_atom_site_fract_y
_atom_site_fract_z
Si Si1 0.233485 0.266516 0.852250
Si Si2 0.413299 0.413299 0.750000
Si Si3 0.000000 0.284300 0.750000
Si Si4 0.120051 0.029157 0.500000
Si Si5 0.659710 0.840291 0.781981
Si Si6 0.586807 0.692679 0.634590
O O1 0.298202 0.201799 0.846497
O O2 0.201467 0.298534 0.780302
O O3 0.264157 0.339476 0.893097
O O4 0.500000 0.395021 0.750000
O O5 0.379580 0.377040 0.679946
O O6 0.069545 0.331303 0.718707
O O7 0.032062 0.237317 0.814224
O O8 0.169177 0.038418 0.431322
O O9 0.054475 0.089650 0.500000
#
# Coordination Sequence:
#
# PCOD8320287 Si02
#       6
#    16  16  16  16  16  32
#     4   9  20  33  56  82 111 146 191 236 264 352
#     4  11  20  29  52  80 102 145 192 215 268 352
#     4  10  20  35  61  84 110 154 188 240 282 343
#     4  11  26  39  52  82 120 146 185 246 287 340
#     4   9  18  33  54  90 113 136 194 238 283 320
#     4  11  21  38  57  79 113 150 191 231 290 335
#
# _framework density 18.283301000000002
#
# number of rings (size 3 to 8) (size 9 to 14) (size 15 to 20)
#    0.000    1.714    1.429    5.143    4.000    3.143 
#    0.000    0.000    0.000    0.857    0.000    0.000 
#    0.000    6.857    0.000    0.000    0.000    0.000 
#
# Total GULP energy -693851.057408 kJ/mol
# GULP energy per Si atom -12390.197454 kJ/mol
# Density = 1.824169 g / cm^3
# Si number density = 18.283301 Si / 1000 Ang^3
#
#
#
# Elastic Constant Matrix: (Units=GPa)
#
#
# Indices 1 2 3 4 5 6 
#
# 1 102.2508 72.1245 28.5756 0.0000 0.0000 0.0000
# 2 72.1245 102.2508 28.5756 0.0000 0.0000 0.0000
# 3 28.5756 28.5756 90.5342 0.0000 0.0000 0.0000
# 4 0.0000 0.0000 0.0000 10.0093 0.0000 0.0000
# 5 0.0000 0.0000 0.0000 0.0000 10.0093 0.0000
# 6 0.0000 0.0000 0.0000 0.0000 0.0000 12.4112
#
#
#
# Elastic Compliance Matrix: (Units=1/GPa)
#
#
# Indices 1 2 3 4 5 6 
#
# 1 0.019795 -0.013399 -0.002019 0.000000 0.000000 0.000000
# 2 -0.013399 0.019795 -0.002019 0.000000 0.000000 0.000000
# 3 -0.002019 -0.002019 0.012320 0.000000 0.000000 0.000000
# 4 0.000000 0.000000 0.000000 0.099907 0.000000 0.000000
# 5 0.000000 0.000000 0.000000 0.000000 0.099907 0.000000
# 6 0.000000 0.000000 0.000000 0.000000 0.000000 0.080572
#
#
# Mechanical properties :
#
#
# Convention : Reuss Voigt Hill
#
# Bulk Modulus (GPa) = 58.69505 61.50969 60.10237
# Shear Modulus (GPa) = 13.41029 17.53665 15.47347
#
# Velocity S-wave (km/s) = 2.71121 3.10039 2.91231
# Velocity P-wave (km/s) = 6.47871 6.82145 6.65229
#
# Compressibility (1/GPa) = 0.01703721
#
# Stress axis : x y z
#
# Youngs Moduli (GPa) = 50.51785 50.51785 81.16860
#
# Poissons Ratio (x) = 0.67686 0.16387
# Poissons Ratio (y) = 0.67686 0.16387
# Poissons Ratio (z) = 0.10199 0.10199
#
# Static dielectric constant tensor:
#      x y z
#    x 3.562280 0.000000 0.000000 
#    y 0.000000 3.562280 0.000000 
#    z 0.000000 0.000000 3.124070 
# 
# 
# High freq. dielectric constant tensor:
#      x y z
#    x 1.712540 0.000000 0.000000 
#    y 0.000000 1.712540 0.000000 
#    z 0.000000 0.000000 1.671940 
# 
# From -- ./inp_files/7985.got.cif
#   From: 2010.06.25/outbox.cif.g09.slc.cpg/sg140_4_cif.got.tgz:7985.got - 2010.06.28 10:53:23.
