data_PCOD8320881
_publ_section_title
;
Structure prediction by ZEFSAII (Michael W. Deem and Ramdas Pophale) SiO2 
 PCOD8320881
Probable space group: I 41/A M D
;
_chemical_formula_sum "Si O2"
_cell_formula_units_Z 160
_cell_length_a 20.749664
_cell_length_b 20.749664
_cell_length_c 17.871494
_cell_angle_alpha 90.000000
_cell_angle_beta 90.000000
_cell_angle_gamma 90.000000
_cell_volume 7694.545937
_symmetry_space_group_name_H-M "I 41/A M D"
_symmetry_group_IT_number 141
_space_group.IT_coordinate_system_code '2'
_symmetry_cell_setting 'tetragonal'
loop_
_space_group_symop_operation_xyz
x,y,z
1/4-y,3/4+x,1/4+z
-x,1/2-y,z
1/4+y,1/4-x,3/4+z
x,-y,-z
-x,1/2+y,-z
1/4+y,3/4+x,1/4-z
1/4-y,1/4-x,3/4-z
-x,-y,-z
3/4+y,1/4-x,3/4-z
x,1/2+y,-z
3/4-y,3/4+x,1/4-z
-x,y,z
x,1/2-y,z
3/4-y,1/4-x,3/4+z
3/4+y,3/4+x,1/4+z
1/2+x,1/2+y,1/2+z
3/4-y,1/4+x,3/4+z
1/2-x,-y,1/2+z
3/4+y,3/4-x,1/4+z
1/2+x,1/2-y,1/2-z
1/2-x,y,1/2-z
3/4+y,1/4+x,3/4-z
3/4-y,3/4-x,1/4-z
1/2-x,1/2-y,1/2-z
1/4+y,3/4-x,1/4-z
1/2+x,y,1/2-z
1/4-y,1/4+x,3/4-z
1/2-x,1/2+y,1/2+z
1/2+x,-y,1/2+z
1/4-y,3/4-x,1/4+z
1/4+y,1/4+x,3/4+z
loop_
_atom_site_type_symbol
_atom_site_label
_atom_site_fract_x
_atom_site_fract_y
_atom_site_fract_z
Si Si1 0.183202 0.321549 0.490802
Si Si2 0.926717 0.176717 0.375000
Si Si3 0.137892 0.146585 0.648847
Si Si4 0.399728 0.750000 0.400035
Si Si5 0.000000 0.573911 0.012210
Si Si6 0.761126 0.557911 0.940897
Si Si7 0.921429 0.250000 0.069293
O O1 0.208487 0.250000 0.466853
O O2 0.119167 0.340037 0.444602
O O3 0.167236 0.317059 0.578161
O O4 0.236187 0.376525 0.478651
O O5 0.916145 0.250000 0.347410
O O6 0.145655 0.186658 0.725180
O O7 0.060981 0.142837 0.636184
O O8 0.174534 0.079291 0.655288
O O9 0.436754 0.813247 0.375000
O O10 0.333950 0.750000 0.351894
O O11 0.387895 0.750000 0.487845
O O12 0.000000 0.500000 0.000000
O O13 0.713176 0.536825 0.875000
O O14 0.768325 0.500000 0.000000
O O15 0.000000 0.250000 0.063219
#
# Coordination Sequence:
#
# PCOD8320881 Si02
#       7
#    32  16  32  16  16  32  16
#     4  11  23  43  69 100 138 172 230 292 342 414
#     4   9  20  38  64 100 132 176 218 268 347 406
#     4  12  25  43  67 101 135 178 226 285 351 413
#     4  11  18  40  67  90 128 174 218 282 346 411
#     4  12  25  43  60  95 135 178 230 280 341 418
#     4  12  26  49  70  94 135 192 236 282 341 412
#     4  12  22  42  72 103 135 169 224 293 362 410
#
# _framework density 20.793951
#
# number of rings (size 3 to 8) (size 9 to 14) (size 15 to 20)
#    0.000    0.600    8.000    0.600    2.800    1.600 
#    3.600    0.000    0.000    4.800    0.000    0.000 
#    0.000    0.000    0.000    0.000    0.000    0.000 
#
# Total GULP energy -991960.115702 kJ/mol
# GULP energy per Si atom -12399.501446 kJ/mol
# Density = 2.074662 g / cm^3
# Si number density = 20.793951 Si / 1000 Ang^3
#
#
#
# Elastic Constant Matrix: (Units=GPa)
#
#
# Indices 1 2 3 4 5 6 
#
# 1 111.6317 45.3409 24.0060 0.0000 0.0000 0.0000
# 2 45.3409 111.6304 24.0070 0.0000 0.0000 0.0000
# 3 24.0060 24.0070 78.4857 0.0000 0.0000 0.0000
# 4 0.0000 0.0000 0.0000 25.0179 0.0000 0.0000
# 5 0.0000 0.0000 0.0000 0.0000 25.0183 0.0000
# 6 0.0000 0.0000 0.0000 0.0000 0.0000 37.4924
#
#
#
# Elastic Compliance Matrix: (Units=1/GPa)
#
#
# Indices 1 2 3 4 5 6 
#
# 1 0.011057 -0.004029 -0.002150 0.000000 0.000000 0.000000
# 2 -0.004029 0.011057 -0.002150 0.000000 0.000000 0.000000
# 3 -0.002150 -0.002150 0.014056 0.000000 0.000000 0.000000
# 4 0.000000 0.000000 0.000000 0.039971 0.000000 0.000000
# 5 0.000000 0.000000 0.000000 0.000000 0.039971 0.000000
# 6 0.000000 0.000000 0.000000 0.000000 0.000000 0.026672
#
#
# Mechanical properties :
#
#
# Convention : Reuss Voigt Hill
#
# Bulk Modulus (GPa) = 51.24617 54.27284 52.75950
# Shear Modulus (GPa) = 30.13063 31.39865 30.76464
#
# Velocity S-wave (km/s) = 3.81072 3.89007 3.85060
# Velocity P-wave (km/s) = 6.63779 6.80690 6.72288
#
# Compressibility (1/GPa) = 0.01951365
#
# Stress axis : x y z
#
# Youngs Moduli (GPa) = 90.44425 90.44257 71.14280
#
# Poissons Ratio (x) = 0.36435 0.15293
# Poissons Ratio (y) = 0.36436 0.15294
# Poissons Ratio (z) = 0.19442 0.19443
#
# Static dielectric constant tensor:
#      x y z
#    x 4.100650 0.000000 0.000000 
#    y 0.000000 4.100570 0.000000 
#    z 0.000000 0.000000 3.770050 
# 
# 
# High freq. dielectric constant tensor:
#      x y z
#    x 1.817280 0.000000 0.000000 
#    y 0.000000 1.817280 0.000000 
#    z 0.000000 0.000000 1.811460 
# 
# From -- ./inp_files/8730.got.cif
#   From: 2010.03.12/outbox.cif.g09.slc.cpg/sg141_5_cif.got.tgz:8730.got - 2010.04.03 13:18:35.
