data_PCOD8320353
_publ_section_title
;
Structure prediction by ZEFSAII (Michael W. Deem and Ramdas Pophale) SiO2 
 PCOD8320353
Probable space group: I 4/M C M
;
_chemical_formula_sum "Si O2"
_cell_formula_units_Z 160
_cell_length_a 30.568040
_cell_length_b 30.568040
_cell_length_c 9.398039
_cell_angle_alpha 90.000000
_cell_angle_beta 90.000000
_cell_angle_gamma 90.000000
_cell_volume 8781.575284
_symmetry_space_group_name_H-M "I 4/M C M"
_symmetry_group_IT_number 140
_symmetry_cell_setting 'tetragonal'
loop_
_space_group_symop_operation_xyz
x,y,z
-y,x,z
-x,-y,z
y,-x,z
x,-y,1/2-z
-x,y,1/2-z
y,x,1/2-z
-y,-x,1/2-z
-x,-y,-z
y,-x,-z
x,y,-z
-y,x,-z
-x,y,1/2+z
x,-y,1/2+z
-y,-x,1/2+z
y,x,1/2+z
1/2+x,1/2+y,1/2+z
1/2-y,1/2+x,1/2+z
1/2-x,1/2-y,1/2+z
1/2+y,1/2-x,1/2+z
1/2+x,1/2-y,-z
1/2-x,1/2+y,-z
1/2+y,1/2+x,-z
1/2-y,1/2-x,-z
1/2-x,1/2-y,1/2-z
1/2+y,1/2-x,1/2-z
1/2+x,1/2+y,1/2-z
1/2-y,1/2+x,1/2-z
1/2-x,1/2+y,z
1/2+x,1/2-y,z
1/2-y,1/2-x,z
1/2+y,1/2+x,z
loop_
_atom_site_type_symbol
_atom_site_label
_atom_site_fract_x
_atom_site_fract_y
_atom_site_fract_z
Si Si1 0.722373 0.844973 0.661086
Si Si2 0.614055 0.954942 0.000000
Si Si3 0.542323 0.276914 0.333620
Si Si4 0.629566 0.054159 0.000000
Si Si5 0.182265 0.428650 0.727943
Si Si6 0.814841 0.123966 0.832522
O O1 0.712608 0.861025 0.500000
O O2 0.703469 0.796532 0.688440
O O3 0.697305 0.878066 0.766449
O O4 0.774232 0.842709 0.685354
O O5 0.640595 0.936302 0.868380
O O6 0.605774 0.007060 0.000000
O O7 0.565648 0.934353 0.000000
O O8 0.500000 0.293683 0.250000
O O9 0.541803 0.290812 0.500000
O O10 0.544227 0.224335 0.323490
O O11 0.580358 0.301239 0.248510
O O12 0.664621 0.054956 0.876167
O O13 0.593462 0.093462 0.000000
O O14 0.856310 0.143691 0.750000
O O15 0.825501 0.115559 0.000000
#
# Coordination Sequence:
#
# PCOD8320353 Si02
#       6
#    32  16  32  16  32  32
#     4   9  17  32  54  76 100 137 183 225 267 326
#     4  12  24  37  52  76 101 125 167 227 288 352
#     4  11  22  37  60  88 116 144 186 234 282 334
#     4  12  24  39  56  70  93 135 175 219 284 360
#     4  11  22  36  56  79 104 132 171 226 290 346
#     4  10  21  36  55  80 118 159 194 229 276 326
#
# _framework density 18.219964999999998
#
# number of rings (size 3 to 8) (size 9 to 14) (size 15 to 20)
#    0.000    1.400    2.000    4.800    2.800    0.600 
#    0.000    0.000    0.000    2.400    0.000    0.000 
#    0.000    0.400    0.000    4.000    0.000    2.400 
#
# Total GULP energy -991408.493507 kJ/mol
# GULP energy per Si atom -12392.606169 kJ/mol
# Density = 1.817850 g / cm^3
# Si number density = 18.219965 Si / 1000 Ang^3
#
#
#
# Elastic Constant Matrix: (Units=GPa)
#
#
# Indices 1 2 3 4 5 6 
#
# 1 68.2723 43.0385 38.6930 0.0000 0.0000 0.0000
# 2 43.0385 68.2780 38.6947 0.0000 0.0000 0.0000
# 3 38.6930 38.6947 139.0903 0.0000 0.0000 0.0000
# 4 0.0000 0.0000 0.0000 19.4098 0.0000 0.0000
# 5 0.0000 0.0000 0.0000 0.0000 19.4111 0.0000
# 6 0.0000 0.0000 0.0000 0.0000 0.0000 22.7138
#
#
#
# Elastic Compliance Matrix: (Units=1/GPa)
#
#
# Indices 1 2 3 4 5 6 
#
# 1 0.025382 -0.014244 -0.003098 0.000000 0.000000 0.000000
# 2 -0.014244 0.025380 -0.003098 0.000000 0.000000 0.000000
# 3 -0.003098 -0.003098 0.008913 0.000000 0.000000 0.000000
# 4 0.000000 0.000000 0.000000 0.051520 0.000000 0.000000
# 5 0.000000 0.000000 0.000000 0.000000 0.051517 0.000000
# 6 0.000000 0.000000 0.000000 0.000000 0.000000 0.044026
#
#
# Mechanical properties :
#
#
# Convention : Reuss Voigt Hill
#
# Bulk Modulus (GPa) = 53.20503 57.38811 55.29657
# Shear Modulus (GPa) = 19.69393 22.65458 21.17426
#
# Velocity S-wave (km/s) = 3.29127 3.53000 3.41272
# Velocity P-wave (km/s) = 6.61121 6.94120 6.77822
#
# Compressibility (1/GPa) = 0.01879522
#
# Stress axis : x y z
#
# Youngs Moduli (GPa) = 39.39747 39.40074 112.18949
#
# Poissons Ratio (x) = 0.56121 0.34762
# Poissons Ratio (y) = 0.56116 0.34760
# Poissons Ratio (z) = 0.12207 0.12208
#
# Static dielectric constant tensor:
#      x y z
#    x 3.193550 0.000000 0.000000 
#    y 0.000000 3.193550 0.000000 
#    z 0.000000 0.000000 3.393900 
# 
# 
# High freq. dielectric constant tensor:
#      x y z
#    x 1.685680 0.000000 0.000000 
#    y 0.000000 1.685680 0.000000 
#    z 0.000000 0.000000 1.721150 
# 
# From -- ./inp_files/1784.got.cif
#   From: 2010.06.25/outbox.cif.g09.slc.cpg/sg140_1_cif.got.tgz:1784.got - 2010.06.28 10:53:23.
