data_PCOD8320371
_publ_section_title
;
Structure prediction by ZEFSAII (Michael W. Deem and Ramdas Pophale) SiO2 
 PCOD8320371
Probable space group: I 4/M C M
;
_chemical_formula_sum "Si O2"
_cell_formula_units_Z 192
_cell_length_a 20.543160
_cell_length_b 20.543160
_cell_length_c 23.155952
_cell_angle_alpha 90.000000
_cell_angle_beta 90.000000
_cell_angle_gamma 90.000000
_cell_volume 9772.307809
_symmetry_space_group_name_H-M "I 4/M C M"
_symmetry_group_IT_number 140
_symmetry_cell_setting 'tetragonal'
loop_
_space_group_symop_operation_xyz
x,y,z
-y,x,z
-x,-y,z
y,-x,z
x,-y,1/2-z
-x,y,1/2-z
y,x,1/2-z
-y,-x,1/2-z
-x,-y,-z
y,-x,-z
x,y,-z
-y,x,-z
-x,y,1/2+z
x,-y,1/2+z
-y,-x,1/2+z
y,x,1/2+z
1/2+x,1/2+y,1/2+z
1/2-y,1/2+x,1/2+z
1/2-x,1/2-y,1/2+z
1/2+y,1/2-x,1/2+z
1/2+x,1/2-y,-z
1/2-x,1/2+y,-z
1/2+y,1/2+x,-z
1/2-y,1/2-x,-z
1/2-x,1/2-y,1/2-z
1/2+y,1/2-x,1/2-z
1/2+x,1/2+y,1/2-z
1/2-y,1/2+x,1/2-z
1/2-x,1/2+y,z
1/2+x,1/2-y,z
1/2-y,1/2-x,z
1/2+y,1/2+x,z
loop_
_atom_site_type_symbol
_atom_site_label
_atom_site_fract_x
_atom_site_fract_y
_atom_site_fract_z
Si Si1 0.000000 0.262073 0.250000
Si Si2 0.025077 0.623820 0.566137
Si Si3 0.200302 0.401247 0.566864
Si Si4 0.558608 0.314320 0.652443
Si Si5 0.414740 0.344279 0.380794
Si Si6 0.100443 0.297063 0.156721
Si Si7 0.061449 0.091000 0.000000
O O1 0.051665 0.218883 0.285369
O O2 0.045100 0.303541 0.206596
O O3 0.036537 0.641410 0.500000
O O4 0.048159 0.548159 0.577911
O O5 0.072550 0.670741 0.599969
O O6 0.950911 0.640883 0.582447
O O7 0.221367 0.408685 0.500000
O O8 0.170708 0.329293 0.578493
O O9 0.263113 0.413746 0.605739
O O10 0.490029 0.343348 0.633853
O O11 0.605712 0.375567 0.659420
O O12 0.382339 0.275344 0.364413
O O13 0.408988 0.368587 0.446569
O O14 0.165738 0.334263 0.177888
O O15 0.982685 0.089318 0.000000
#
# Coordination Sequence:
#
# PCOD8320371 Si02
#       7
#    16  32  32  32  32  32  16
#     4  10  22  44  62  88 122 168 210 266 308 366
#     4   9  17  33  59  89 119 152 195 248 308 371
#     4  10  21  37  57  86 123 158 197 249 315 383
#     4  11  24  40  62  90 121 163 209 257 316 369
#     4  11  23  39  62  93 128 163 206 259 319 381
#     4  10  22  40  64  94 124 163 212 260 314 374
#     4  11  22  36  63 100 132 164 210 263 329 392
#
# _framework density 19.647355000000001
#
# number of rings (size 3 to 8) (size 9 to 14) (size 15 to 20)
#    0.000    1.750    5.000    0.000    3.500    4.667 
#    0.000    2.500    0.000    4.250    0.000    0.000 
#    0.000    0.000    0.000    0.000    0.000    0.000 
#
# Total GULP energy -1189451.461622 kJ/mol
# GULP energy per Si atom -12390.119392 kJ/mol
# Density = 1.960264 g / cm^3
# Si number density = 19.647355 Si / 1000 Ang^3
#
#
#
# Elastic Constant Matrix: (Units=GPa)
#
#
# Indices 1 2 3 4 5 6 
#
# 1 93.0594 74.1458 33.0472 0.0000 0.0000 0.0000
# 2 74.1458 93.0594 33.0472 0.0000 0.0000 0.0000
# 3 33.0472 33.0472 64.0717 0.0000 0.0000 0.0000
# 4 0.0000 0.0000 0.0000 12.7614 0.0000 0.0000
# 5 0.0000 0.0000 0.0000 0.0000 12.7614 0.0000
# 6 0.0000 0.0000 0.0000 0.0000 0.0000 47.6055
#
#
#
# Elastic Compliance Matrix: (Units=1/GPa)
#
#
# Indices 1 2 3 4 5 6 
#
# 1 0.030192 -0.022680 -0.003875 0.000000 0.000000 0.000000
# 2 -0.022680 0.030192 -0.003875 0.000000 0.000000 0.000000
# 3 -0.003875 -0.003875 0.019605 0.000000 0.000000 0.000000
# 4 0.000000 0.000000 0.000000 0.078361 0.000000 0.000000
# 5 0.000000 0.000000 0.000000 0.000000 0.078361 0.000000
# 6 0.000000 0.000000 0.000000 0.000000 0.000000 0.021006
#
#
# Mechanical properties :
#
#
# Convention : Reuss Voigt Hill
#
# Bulk Modulus (GPa) = 52.27320 58.96343 55.61832
# Shear Modulus (GPa) = 15.38688 21.95570 18.67129
#
# Velocity S-wave (km/s) = 2.80152 3.34651 3.08607
# Velocity P-wave (km/s) = 6.09329 6.70882 6.40845
#
# Compressibility (1/GPa) = 0.01913026
#
# Stress axis : x y z
#
# Youngs Moduli (GPa) = 33.12126 33.12126 51.00853
#
# Poissons Ratio (x) = 0.75118 0.19764
# Poissons Ratio (y) = 0.75118 0.19764
# Poissons Ratio (z) = 0.12834 0.12834
#
# Static dielectric constant tensor:
#      x y z
#    x 3.731980 0.000000 0.000000 
#    y 0.000000 3.731980 0.000000 
#    z 0.000000 0.000000 3.633850 
# 
# 
# High freq. dielectric constant tensor:
#      x y z
#    x 1.763160 0.000000 0.000000 
#    y 0.000000 1.763160 0.000000 
#    z 0.000000 0.000000 1.762170 
# 
# From -- ./inp_files/9866.got.cif
#   From: 2010.06.25/outbox.cif.g09.slc.cpg/sg140_5_cif.got.tgz:9866.got - 2010.06.28 10:53:23.
