data_PCOD8320874
_publ_section_title
;
Structure prediction by ZEFSAII (Michael W. Deem and Ramdas Pophale) SiO2 
 PCOD8320874
Probable space group: I 41/A M D
;
_chemical_formula_sum "Si O2"
_cell_formula_units_Z 84
_cell_length_a 10.667064
_cell_length_b 10.667064
_cell_length_c 34.877432
_cell_angle_alpha 90.000000
_cell_angle_beta 90.000000
_cell_angle_gamma 90.000000
_cell_volume 3968.572350
_symmetry_space_group_name_H-M "I 41/A M D"
_symmetry_group_IT_number 141
_space_group.IT_coordinate_system_code '2'
_symmetry_cell_setting 'tetragonal'
loop_
_space_group_symop_operation_xyz
x,y,z
1/4-y,3/4+x,1/4+z
-x,1/2-y,z
1/4+y,1/4-x,3/4+z
x,-y,-z
-x,1/2+y,-z
1/4+y,3/4+x,1/4-z
1/4-y,1/4-x,3/4-z
-x,-y,-z
3/4+y,1/4-x,3/4-z
x,1/2+y,-z
3/4-y,3/4+x,1/4-z
-x,y,z
x,1/2-y,z
3/4-y,1/4-x,3/4+z
3/4+y,3/4+x,1/4+z
1/2+x,1/2+y,1/2+z
3/4-y,1/4+x,3/4+z
1/2-x,-y,1/2+z
3/4+y,3/4-x,1/4+z
1/2+x,1/2-y,1/2-z
1/2-x,y,1/2-z
3/4+y,1/4+x,3/4-z
3/4-y,3/4-x,1/4-z
1/2-x,1/2-y,1/2-z
1/4+y,3/4-x,1/4-z
1/2+x,y,1/2-z
1/4-y,1/4+x,3/4-z
1/2-x,1/2+y,1/2+z
1/2+x,-y,1/2+z
1/4-y,3/4-x,1/4+z
1/4+y,1/4+x,3/4+z
loop_
_atom_site_type_symbol
_atom_site_label
_atom_site_fract_x
_atom_site_fract_y
_atom_site_fract_z
Si Si1 0.000000 0.750000 0.125000
Si Si2 0.738278 0.750000 0.084969
Si Si3 0.500000 0.389868 0.031148
Si Si4 0.500000 0.608213 0.582327
Si Si5 0.753794 0.999845 0.294913
O O1 0.117552 0.750000 0.097162
O O2 0.648802 0.750000 0.121869
O O3 0.707802 0.632236 0.058634
O O4 0.500000 0.250000 0.013488
O O5 0.369506 0.406413 0.054744
O O6 0.500000 0.500000 0.000000
O O7 0.500000 0.750000 0.568016
O O8 0.374429 0.543851 0.567114
O O9 0.750000 0.968350 0.250000
#
# Coordination Sequence:
#
# PCOD8320874 Si02
#       5
#     4  16  16  16  32
#     4  12  20  48  68 100 136 184 232 284 372 432
#     4  12  24  45  70 100 139 189 232 292 365 430
#     4  10  24  42  68 102 143 182 229 288 364 426
#     4  12  25  42  69 100 139 180 244 296 360 424
#     4  11  25  43  72 102 140 184 237 297 358 435
#
# _framework density 21.166302000000002
#
# number of rings (size 3 to 8) (size 9 to 14) (size 15 to 20)
#    0.000    0.762    3.810    1.714   16.000    0.000 
#    0.000    0.000    0.000    0.000    0.000    0.000 
#    0.000    0.000    0.000    0.000    0.000    0.000 
#
# Total GULP energy -520712.540548 kJ/mol
# GULP energy per Si atom -12397.917632 kJ/mol
# Density = 2.111813 g / cm^3
# Si number density = 21.166302 Si / 1000 Ang^3
#
#
#
# Elastic Constant Matrix: (Units=GPa)
#
#
# Indices 1 2 3 4 5 6 
#
# 1 174.9975 35.4832 34.3544 0.0000 0.0000 0.0000
# 2 35.4832 174.9976 34.3544 0.0000 0.0000 0.0000
# 3 34.3544 34.3544 118.3433 0.0000 0.0000 0.0000
# 4 0.0000 0.0000 0.0000 16.6736 0.0000 0.0000
# 5 0.0000 0.0000 0.0000 0.0000 16.6736 0.0000
# 6 0.0000 0.0000 0.0000 0.0000 0.0000 30.7840
#
#
#
# Elastic Compliance Matrix: (Units=1/GPa)
#
#
# Indices 1 2 3 4 5 6 
#
# 1 0.006208 -0.000960 -0.001524 0.000000 0.000000 0.000000
# 2 -0.000960 0.006208 -0.001524 0.000000 0.000000 0.000000
# 3 -0.001524 -0.001524 0.009335 0.000000 0.000000 0.000000
# 4 0.000000 0.000000 0.000000 0.059975 0.000000 0.000000
# 5 0.000000 0.000000 0.000000 0.000000 0.059975 0.000000
# 6 0.000000 0.000000 0.000000 0.000000 0.000000 0.032484
#
#
# Mechanical properties :
#
#
# Convention : Reuss Voigt Hill
#
# Bulk Modulus (GPa) = 72.79595 75.19135 73.99365
# Shear Modulus (GPa) = 26.76982 37.10270 31.93626
#
# Velocity S-wave (km/s) = 3.56017 4.19132 3.88857
# Velocity P-wave (km/s) = 7.16707 7.68272 7.42937
#
# Compressibility (1/GPa) = 0.01373703
#
# Stress axis : x y z
#
# Youngs Moduli (GPa) = 161.08118 161.08119 107.12872
#
# Poissons Ratio (x) = 0.15458 0.16322
# Poissons Ratio (y) = 0.15458 0.16322
# Poissons Ratio (z) = 0.24542 0.24542
#
# Static dielectric constant tensor:
#      x y z
#    x 3.695120 0.000000 0.000000 
#    y 0.000000 3.695120 0.000000 
#    z 0.000000 0.000000 3.611000 
# 
# 
# High freq. dielectric constant tensor:
#      x y z
#    x 1.851060 0.000000 0.000000 
#    y 0.000000 1.851060 0.000000 
#    z 0.000000 0.000000 1.809820 
# 
# From -- ./inp_files/13785.got.cif
#   From: 2010.03.12/outbox.cif.g09.slc.cpg/sg141_7_cif.got.tgz:13785.got - 2010.04.03 13:18:35.
