data_PCOD8320257
_publ_section_title
;
Structure prediction by ZEFSAII (Michael W. Deem and Ramdas Pophale) SiO2 
 PCOD8320257
Probable space group: I 4/M C M
;
_chemical_formula_sum "Si O2"
_cell_formula_units_Z 160
_cell_length_a 31.538073
_cell_length_b 31.538073
_cell_length_c 9.331806
_cell_angle_alpha 90.000000
_cell_angle_beta 90.000000
_cell_angle_gamma 90.000000
_cell_volume 9281.881291
_symmetry_space_group_name_H-M "I 4/M C M"
_symmetry_group_IT_number 140
_symmetry_cell_setting 'tetragonal'
loop_
_space_group_symop_operation_xyz
x,y,z
-y,x,z
-x,-y,z
y,-x,z
x,-y,1/2-z
-x,y,1/2-z
y,x,1/2-z
-y,-x,1/2-z
-x,-y,-z
y,-x,-z
x,y,-z
-y,x,-z
-x,y,1/2+z
x,-y,1/2+z
-y,-x,1/2+z
y,x,1/2+z
1/2+x,1/2+y,1/2+z
1/2-y,1/2+x,1/2+z
1/2-x,1/2-y,1/2+z
1/2+y,1/2-x,1/2+z
1/2+x,1/2-y,-z
1/2-x,1/2+y,-z
1/2+y,1/2+x,-z
1/2-y,1/2-x,-z
1/2-x,1/2-y,1/2-z
1/2+y,1/2-x,1/2-z
1/2+x,1/2+y,1/2-z
1/2-y,1/2+x,1/2-z
1/2-x,1/2+y,z
1/2+x,1/2-y,z
1/2-y,1/2-x,z
1/2+y,1/2+x,z
loop_
_atom_site_type_symbol
_atom_site_label
_atom_site_fract_x
_atom_site_fract_y
_atom_site_fract_z
Si Si1 0.539318 0.717710 0.332046
Si Si2 0.500000 0.870675 0.750000
Si Si3 0.309381 0.631971 0.663442
Si Si4 0.501092 0.067996 0.500000
Si Si5 0.214900 0.646952 0.665509
Si Si6 0.566258 0.198952 0.669262
O O1 0.500000 0.694896 0.250000
O O2 0.529226 0.724549 0.500000
O O3 0.581344 0.689526 0.311358
O O4 0.544893 0.762957 0.256476
O O5 0.513172 0.902458 0.627932
O O6 0.460258 0.843075 0.698375
O O7 0.347469 0.652532 0.750000
O O8 0.317803 0.643440 0.500000
O O9 0.264001 0.651090 0.712438
O O10 0.550374 0.050374 0.500000
O O11 0.473454 0.026547 0.500000
O O12 0.212809 0.630983 0.500000
O O13 0.192353 0.692353 0.683935
O O14 0.191548 0.613340 0.768009
O O15 0.568141 0.209176 0.500000
#
# Coordination Sequence:
#
# PCOD8320257 Si02
#       6
#    32  16  32  16  32  32
#     4  10  20  34  56  80 111 143 174 217 263 307
#     4  12  24  39  60  80  96 122 162 212 267 328
#     4   9  19  34  52  77 108 144 186 222 261 312
#     4  11  26  46  60  70  90 122 160 206 266 332
#     4   9  20  37  54  74 106 142 176 221 269 315
#     4  11  22  35  53  80 105 129 164 210 263 327
#
# _framework density 17.237884999999999
#
# number of rings (size 3 to 8) (size 9 to 14) (size 15 to 20)
#    0.000    1.900    2.000    3.000    2.800    7.200 
#    0.000    0.000    0.000    0.000    0.000    0.000 
#    0.000    0.400    0.000    4.400    0.000    3.200 
#
# Total GULP energy -991685.645543 kJ/mol
# GULP energy per Si atom -12396.070569 kJ/mol
# Density = 1.719865 g / cm^3
# Si number density = 17.237885 Si / 1000 Ang^3
#
#
#
# Elastic Constant Matrix: (Units=GPa)
#
#
# Indices 1 2 3 4 5 6 
#
# 1 77.5772 45.3727 46.4084 0.0000 0.0000 0.0000
# 2 45.3727 77.5864 46.4104 0.0000 0.0000 0.0000
# 3 46.4084 46.4104 123.6603 0.0000 0.0000 0.0000
# 4 0.0000 0.0000 0.0000 79.9468 0.0000 0.0000
# 5 0.0000 0.0000 0.0000 0.0000 79.7697 0.0000
# 6 0.0000 0.0000 0.0000 0.0000 0.0000 24.0269
#
#
#
# Elastic Compliance Matrix: (Units=1/GPa)
#
#
# Indices 1 2 3 4 5 6 
#
# 1 0.021199 -0.009849 -0.004259 0.000000 0.000000 0.000000
# 2 -0.009849 0.021196 -0.004259 0.000000 0.000000 0.000000
# 3 -0.004259 -0.004259 0.011283 0.000000 0.000000 0.000000
# 4 0.000000 0.000000 0.000000 0.012508 0.000000 0.000000
# 5 0.000000 0.000000 0.000000 0.000000 0.012536 0.000000
# 6 0.000000 0.000000 0.000000 0.000000 0.000000 0.041620
#
#
# Mechanical properties :
#
#
# Convention : Reuss Voigt Hill
#
# Bulk Modulus (GPa) = 59.01793 61.68964 60.35379
# Shear Modulus (GPa) = 30.72651 46.12417 38.42534
#
# Velocity S-wave (km/s) = 4.22655 5.17837 4.72648
# Velocity P-wave (km/s) = 7.62430 8.46280 8.05447
#
# Compressibility (1/GPa) = 0.01694400
#
# Stress axis : x y z
#
# Youngs Moduli (GPa) = 47.17206 47.17801 88.62567
#
# Poissons Ratio (x) = 0.46468 0.37747
# Poissons Ratio (y) = 0.46462 0.37743
# Poissons Ratio (z) = 0.20091 0.20092
#
# Static dielectric constant tensor:
#      x y z
#    x 3.142840 0.000000 0.000000 
#    y 0.000000 3.142830 0.000000 
#    z 0.000000 0.000000 3.519600 
# 
# 
# High freq. dielectric constant tensor:
#      x y z
#    x 1.647860 0.000000 0.000000 
#    y 0.000000 1.647860 0.000000 
#    z 0.000000 0.000000 1.680310 
# 
# From -- ./inp_files/1871.got.cif
#   From: 2010.06.25/outbox.cif.g09.slc.cpg/sg140_1_cif.got.tgz:1871.got - 2010.06.28 10:53:23.
