data_PCOD8320291
_publ_section_title
;
Structure prediction by ZEFSAII (Michael W. Deem and Ramdas Pophale) SiO2 
 PCOD8320291
Probable space group: I 4/M C M
;
_chemical_formula_sum "Si O2"
_cell_formula_units_Z 144
_cell_length_a 21.400741
_cell_length_b 21.400741
_cell_length_c 17.307170
_cell_angle_alpha 90.000000
_cell_angle_beta 90.000000
_cell_angle_gamma 90.000000
_cell_volume 7926.540476
_symmetry_space_group_name_H-M "I 4/M C M"
_symmetry_group_IT_number 140
_symmetry_cell_setting 'tetragonal'
loop_
_space_group_symop_operation_xyz
x,y,z
-y,x,z
-x,-y,z
y,-x,z
x,-y,1/2-z
-x,y,1/2-z
y,x,1/2-z
-y,-x,1/2-z
-x,-y,-z
y,-x,-z
x,y,-z
-y,x,-z
-x,y,1/2+z
x,-y,1/2+z
-y,-x,1/2+z
y,x,1/2+z
1/2+x,1/2+y,1/2+z
1/2-y,1/2+x,1/2+z
1/2-x,1/2-y,1/2+z
1/2+y,1/2-x,1/2+z
1/2+x,1/2-y,-z
1/2-x,1/2+y,-z
1/2+y,1/2+x,-z
1/2-y,1/2-x,-z
1/2-x,1/2-y,1/2-z
1/2+y,1/2-x,1/2-z
1/2+x,1/2+y,1/2-z
1/2-y,1/2+x,1/2-z
1/2-x,1/2+y,z
1/2+x,1/2-y,z
1/2-y,1/2-x,z
1/2+y,1/2+x,z
loop_
_atom_site_type_symbol
_atom_site_label
_atom_site_fract_x
_atom_site_fract_y
_atom_site_fract_z
Si Si1 0.836355 0.760827 0.586394
Si Si2 0.959378 0.310727 0.912214
Si Si3 0.319772 0.506363 0.408402
Si Si4 0.624050 0.614405 0.660965
Si Si5 0.050776 0.449225 0.592728
O O1 0.842824 0.790018 0.500000
O O2 0.767971 0.732030 0.598423
O O3 0.886577 0.705689 0.595427
O O4 0.845345 0.813181 0.651017
O O5 0.969077 0.379982 0.874635
O O6 0.998485 0.251871 0.875755
O O7 0.981433 0.316549 0.000000
O O8 0.319026 0.498312 0.500000
O O9 0.366014 0.453881 0.374609
O O10 0.347413 0.571882 0.384246
O O11 0.606691 0.606691 0.750000
O O12 0.053930 0.446071 0.500000
O O13 0.000000 0.500000 0.621468
#
# Coordination Sequence:
#
# PCOD8320291 Si02
#       5
#    32  32  32  32  16
#     4   9  16  30  53  75  98 135 184 224 257 310
#     4   8  14  26  46  71 100 132 171 215 252 301
#     4  10  20  36  55  74 101 142 185 221 264 321
#     4  11  22  35  52  78 110 137 176 225 283 329
#     4   9  14  22  42  76 111 136 162 204 262 316
#
# _framework density 18.166816000000001
#
# number of rings (size 3 to 8) (size 9 to 14) (size 15 to 20)
#    0.000    2.556    1.111    4.000    0.000    0.889 
#    0.000    3.333    0.000    4.000    0.000    0.000 
#    0.000    0.000    0.000    0.000    0.000    0.000 
#
# Total GULP energy -892062.070951 kJ/mol
# GULP energy per Si atom -12389.750985 kJ/mol
# Density = 1.812547 g / cm^3
# Si number density = 18.166816 Si / 1000 Ang^3
#
#
#
# Elastic Constant Matrix: (Units=GPa)
#
#
# Indices 1 2 3 4 5 6 
#
# 1 88.0733 70.1348 16.8851 0.0000 0.0000 0.0000
# 2 70.1348 88.0744 16.8853 0.0000 0.0000 0.0000
# 3 16.8851 16.8853 52.8066 0.0000 0.0000 0.0000
# 4 0.0000 0.0000 0.0000 14.4655 0.0000 0.0000
# 5 0.0000 0.0000 0.0000 0.0000 14.4655 0.0000
# 6 0.0000 0.0000 0.0000 0.0000 0.0000 31.5614
#
#
#
# Elastic Compliance Matrix: (Units=1/GPa)
#
#
# Indices 1 2 3 4 5 6 
#
# 1 0.031264 -0.024480 -0.002169 0.000000 0.000000 0.000000
# 2 -0.024480 0.031264 -0.002169 0.000000 0.000000 0.000000
# 3 -0.002169 -0.002169 0.020324 0.000000 0.000000 0.000000
# 4 0.000000 0.000000 0.000000 0.069130 0.000000 0.000000
# 5 0.000000 0.000000 0.000000 0.000000 0.069130 0.000000
# 6 0.000000 0.000000 0.000000 0.000000 0.000000 0.031684
#
#
# Mechanical properties :
#
#
# Convention : Reuss Voigt Hill
#
# Bulk Modulus (GPa) = 39.65862 48.52939 44.09401
# Shear Modulus (GPa) = 15.68190 20.43508 18.05849
#
# Velocity S-wave (km/s) = 2.94124 3.35753 3.15626
# Velocity P-wave (km/s) = 5.78033 6.46544 6.13246
#
# Compressibility (1/GPa) = 0.02521520
#
# Stress axis : x y z
#
# Youngs Moduli (GPa) = 31.98542 31.98578 49.20233
#
# Poissons Ratio (x) = 0.78302 0.10673
# Poissons Ratio (y) = 0.78301 0.10673
# Poissons Ratio (z) = 0.06938 0.06938
#
# Static dielectric constant tensor:
#      x y z
#    x 3.446140 0.000000 0.000000 
#    y 0.000000 3.446130 0.000000 
#    z 0.000000 0.000000 2.977050 
# 
# 
# High freq. dielectric constant tensor:
#      x y z
#    x 1.703360 0.000000 0.000000 
#    y 0.000000 1.703360 0.000000 
#    z 0.000000 0.000000 1.661920 
# 
# From -- ./inp_files/6685.got.cif
#   From: 2010.06.25/outbox.cif.g09.slc.cpg/sg140_4_cif.got.tgz:6685.got - 2010.06.28 10:53:23.
