data_PCOD8320868
_publ_section_title
;
Structure prediction by ZEFSAII (Michael W. Deem and Ramdas Pophale) SiO2 
 PCOD8320868
Probable space group: I 41/A M D
;
_chemical_formula_sum "Si O2"
_cell_formula_units_Z 112
_cell_length_a 28.319787
_cell_length_b 28.319787
_cell_length_c 6.058197
_cell_angle_alpha 90.000000
_cell_angle_beta 90.000000
_cell_angle_gamma 90.000000
_cell_volume 4858.736610
_symmetry_space_group_name_H-M "I 41/A M D"
_symmetry_group_IT_number 141
_space_group.IT_coordinate_system_code '2'
_symmetry_cell_setting 'tetragonal'
loop_
_space_group_symop_operation_xyz
x,y,z
1/4-y,3/4+x,1/4+z
-x,1/2-y,z
1/4+y,1/4-x,3/4+z
x,-y,-z
-x,1/2+y,-z
1/4+y,3/4+x,1/4-z
1/4-y,1/4-x,3/4-z
-x,-y,-z
3/4+y,1/4-x,3/4-z
x,1/2+y,-z
3/4-y,3/4+x,1/4-z
-x,y,z
x,1/2-y,z
3/4-y,1/4-x,3/4+z
3/4+y,3/4+x,1/4+z
1/2+x,1/2+y,1/2+z
3/4-y,1/4+x,3/4+z
1/2-x,-y,1/2+z
3/4+y,3/4-x,1/4+z
1/2+x,1/2-y,1/2-z
1/2-x,y,1/2-z
3/4+y,1/4+x,3/4-z
3/4-y,3/4-x,1/4-z
1/2-x,1/2-y,1/2-z
1/4+y,3/4-x,1/4-z
1/2+x,y,1/2-z
1/4-y,1/4+x,3/4-z
1/2-x,1/2+y,1/2+z
1/2+x,-y,1/2+z
1/4-y,3/4-x,1/4+z
1/4+y,1/4+x,3/4+z
loop_
_atom_site_type_symbol
_atom_site_label
_atom_site_fract_x
_atom_site_fract_y
_atom_site_fract_z
Si Si1 0.370709 0.196318 0.107525
Si Si2 0.053557 0.038175 0.683238
Si Si3 0.380644 0.568974 0.531195
Si Si4 0.298950 0.048950 0.125000
O O1 0.420807 0.170807 0.125000
O O2 0.380807 0.250000 0.044561
O O3 0.340876 0.191787 0.333293
O O4 0.341312 0.173815 0.911086
O O5 0.000000 0.029626 0.769673
O O6 0.066797 0.000000 0.500000
O O7 0.092956 0.030528 0.873951
O O8 0.357386 0.607386 0.375000
O O9 0.341408 0.549023 0.698671
O O10 0.250000 0.052676 0.250000
#
# Coordination Sequence:
#
# PCOD8320868 Si02
#       4
#    32  32  32  16
#     4  11  23  44  70 108 151 193 249 305 368 440
#     4  10  23  44  73 110 148 189 246 311 373 438
#     4  12  24  47  75 105 143 195 247 301 363 437
#     4  12  32  54  72 108 149 196 242 300 371 450
#
# _framework density 23.051258000000001
#
# number of rings (size 3 to 8) (size 9 to 14) (size 15 to 20)
#    0.000    0.857    4.286    0.857    2.000    8.286 
#    0.000    4.286    0.000    2.571    0.000    0.000 
#    0.000    0.000    0.000    0.000    0.000    0.000 
#
# Total GULP energy -694335.109488 kJ/mol
# GULP energy per Si atom -12398.841241 kJ/mol
# Density = 2.299879 g / cm^3
# Si number density = 23.051258 Si / 1000 Ang^3
#
#
#
# Elastic Constant Matrix: (Units=GPa)
#
#
# Indices 1 2 3 4 5 6 
#
# 1 181.8877 72.0764 85.9852 0.0000 0.0000 0.0000
# 2 72.0764 181.8877 85.9852 0.0000 0.0000 0.0000
# 3 85.9852 85.9852 147.0277 0.0000 0.0000 0.0000
# 4 0.0000 0.0000 0.0000 34.9173 0.0000 0.0000
# 5 0.0000 0.0000 0.0000 0.0000 34.9173 0.0000
# 6 0.0000 0.0000 0.0000 0.0000 0.0000 38.2762
#
#
#
# Elastic Compliance Matrix: (Units=1/GPa)
#
#
# Indices 1 2 3 4 5 6 
#
# 1 0.007813 -0.001294 -0.003813 0.000000 0.000000 0.000000
# 2 -0.001294 0.007813 -0.003813 0.000000 0.000000 0.000000
# 3 -0.003813 -0.003813 0.011261 0.000000 0.000000 0.000000
# 4 0.000000 0.000000 0.000000 0.028639 0.000000 0.000000
# 5 0.000000 0.000000 0.000000 0.000000 0.028639 0.000000
# 6 0.000000 0.000000 0.000000 0.000000 0.000000 0.026126
#
#
# Mechanical properties :
#
#
# Convention : Reuss Voigt Hill
#
# Bulk Modulus (GPa) = 110.51052 110.98850 110.74951
# Shear Modulus (GPa) = 38.12581 39.40591 38.76586
#
# Velocity S-wave (km/s) = 4.07130 4.13908 4.10533
# Velocity P-wave (km/s) = 8.37532 8.43183 8.40362
#
# Compressibility (1/GPa) = 0.00904891
#
# Stress axis : x y z
#
# Youngs Moduli (GPa) = 127.99362 127.99362 88.80332
#
# Poissons Ratio (x) = 0.16558 0.33857
# Poissons Ratio (y) = 0.16558 0.33857
# Poissons Ratio (z) = 0.48799 0.48799
#
# Static dielectric constant tensor:
#      x y z
#    x 4.333980 0.000000 0.000000 
#    y 0.000000 4.333980 0.000000 
#    z 0.000000 0.000000 4.475680 
# 
# 
# High freq. dielectric constant tensor:
#      x y z
#    x 1.918600 0.000000 0.000000 
#    y 0.000000 1.918600 0.000000 
#    z 0.000000 0.000000 1.923000 
# 
# From -- ./inp_files/1284.got.cif
#   From: 2010.03.12/outbox.cif.g09.slc.cpg/sg141_1_cif.got.tgz:1284.got - 2010.04.03 13:18:35.
