data_PCOD8320847
_publ_section_title
;
Structure prediction by ZEFSAII (Michael W. Deem and Ramdas Pophale) SiO2 
 PCOD8320847
Probable space group: I 41/A M D
;
_chemical_formula_sum "Si O2"
_cell_formula_units_Z 160
_cell_length_a 23.178435
_cell_length_b 23.178435
_cell_length_c 14.948285
_cell_angle_alpha 90.000000
_cell_angle_beta 90.000000
_cell_angle_gamma 90.000000
_cell_volume 8030.814377
_symmetry_space_group_name_H-M "I 41/A M D"
_symmetry_group_IT_number 141
_space_group.IT_coordinate_system_code '2'
_symmetry_cell_setting 'tetragonal'
loop_
_space_group_symop_operation_xyz
x,y,z
1/4-y,3/4+x,1/4+z
-x,1/2-y,z
1/4+y,1/4-x,3/4+z
x,-y,-z
-x,1/2+y,-z
1/4+y,3/4+x,1/4-z
1/4-y,1/4-x,3/4-z
-x,-y,-z
3/4+y,1/4-x,3/4-z
x,1/2+y,-z
3/4-y,3/4+x,1/4-z
-x,y,z
x,1/2-y,z
3/4-y,1/4-x,3/4+z
3/4+y,3/4+x,1/4+z
1/2+x,1/2+y,1/2+z
3/4-y,1/4+x,3/4+z
1/2-x,-y,1/2+z
3/4+y,3/4-x,1/4+z
1/2+x,1/2-y,1/2-z
1/2-x,y,1/2-z
3/4+y,1/4+x,3/4-z
3/4-y,3/4-x,1/4-z
1/2-x,1/2-y,1/2-z
1/4+y,3/4-x,1/4-z
1/2+x,y,1/2-z
1/4-y,1/4+x,3/4-z
1/2-x,1/2+y,1/2+z
1/2+x,-y,1/2+z
1/4-y,3/4-x,1/4+z
1/4+y,1/4+x,3/4+z
loop_
_atom_site_type_symbol
_atom_site_label
_atom_site_fract_x
_atom_site_fract_y
_atom_site_fract_z
Si Si1 0.147250 0.514016 0.601927
Si Si2 0.362439 0.818035 0.443667
Si Si3 0.862637 0.682689 0.685827
Si Si4 0.741931 0.682659 0.145715
Si Si5 0.638045 0.121499 0.375928
O O1 0.148316 0.500000 0.500000
O O2 0.208475 0.541526 0.625000
O O3 0.094754 0.558620 0.618848
O O4 0.139576 0.454544 0.654158
O O5 0.409817 0.840184 0.375000
O O6 0.365878 0.750000 0.449085
O O7 0.298422 0.836643 0.410108
O O8 0.383666 0.842851 0.538988
O O9 0.918834 0.668834 0.625000
O O10 0.852355 0.750000 0.693147
O O11 0.868801 0.658186 0.785743
O O12 0.728251 0.750000 0.131343
O O13 0.750000 0.668523 0.250000
O O14 0.687950 0.645947 0.109882
#
# Coordination Sequence:
#
# PCOD8320847 Si02
#       5
#    32  32  32  32  32
#     4   9  21  37  56  86 123 157 197 251 307 361
#     4  11  24  41  63  93 127 165 209 257 314 377
#     4  10  23  43  63  89 126 165 208 259 310 364
#     4  10  22  41  62  88 126 164 202 254 313 373
#     4  11  23  39  65  94 120 163 213 254 309 377
#
# _framework density 19.923259999999999
#
# number of rings (size 3 to 8) (size 9 to 14) (size 15 to 20)
#    0.000    1.800    2.000    0.600    8.400    7.200 
#    0.000    0.000    0.000    3.600    0.000    0.000 
#    0.000    0.000    0.000    0.000    0.000    0.000 
#
# Total GULP energy -991814.629935 kJ/mol
# GULP energy per Si atom -12397.682874 kJ/mol
# Density = 1.987791 g / cm^3
# Si number density = 19.923260 Si / 1000 Ang^3
#
#
#
# Elastic Constant Matrix: (Units=GPa)
#
#
# Indices 1 2 3 4 5 6 
#
# 1 1112.7719-1095.2431 2.4016 0.0000 0.0000 0.0000
# 2 -1095.2431 1108.8271 1.9066 0.0000 0.0000 0.0000
# 3 2.4016 1.9066 60.6118 0.0000 0.0000 0.0000
# 4 0.0000 0.0000 0.0000 26.3384 0.0000 0.0000
# 5 0.0000 0.0000 0.0000 0.0000 26.3373 0.0000
# 6 0.0000 0.0000 0.0000 0.0000 0.0000 24.8110
#
#
#
# Elastic Compliance Matrix: (Units=1/GPa)
#
#
# Indices 1 2 3 4 5 6 
#
# 1 0.032633 0.032237 -0.002307 0.000000 0.000000 0.000000
# 2 0.032237 0.032748 -0.002307 0.000000 0.000000 0.000000
# 3 -0.002307 -0.002307 0.016662 0.000000 0.000000 0.000000
# 4 0.000000 0.000000 0.000000 0.037967 0.000000 0.000000
# 5 0.000000 0.000000 0.000000 0.000000 0.037969 0.000000
# 6 0.000000 0.000000 0.000000 0.000000 0.000000 0.040305
#
#
# Mechanical properties :
#
#
# Convention : Reuss Voigt Hill
#
# Bulk Modulus (GPa) = 7.28385 11.14901 9.21643
# Shear Modulus (GPa) = 26.48269 240.37373 133.42821
#
# Velocity S-wave (km/s) = 3.64982 10.99599 8.19246
# Velocity P-wave (km/s) = 4.62877 12.91603 9.70178
#
# Compressibility (1/GPa) = 0.13729003
#
# Stress axis : x y z
#
# Youngs Moduli (GPa) = 30.64353 30.53586 60.01528
#
# Poissons Ratio (x) = -0.98440 0.13846
# Poissons Ratio (y) = -0.98787 0.13848
# Poissons Ratio (z) = 0.07070 0.07046
#
# Static dielectric constant tensor:
#      x y z
#    x 3.995280 0.000000 0.000000 
#    y 0.000000 3.995380 0.000000 
#    z 0.000000 0.000000 3.705110 
# 
# 
# High freq. dielectric constant tensor:
#      x y z
#    x 1.773960 0.000000 0.000000 
#    y 0.000000 1.773960 0.000000 
#    z 0.000000 0.000000 1.790460 
# 
# From -- ./inp_files/6610.got.cif
#   From: 2010.03.12/outbox.cif.g09.slc.cpg/sg141_4_cif.got.tgz:6610.got - 2010.04.03 13:18:35.
