data_PCOD8320013
_publ_section_title
;
Structure prediction by ZEFSAII (Michael W. Deem and Ramdas Pophale) SiO2 
 PCOD8320013
Probable space group: I 4/M M M
;
_chemical_formula_sum "Si O2"
_cell_formula_units_Z 160
_cell_length_a 25.970708
_cell_length_b 25.970708
_cell_length_c 14.703439
_cell_angle_alpha 90.000000
_cell_angle_beta 90.000000
_cell_angle_gamma 90.000000
_cell_volume 9917.141337
_symmetry_space_group_name_H-M "I 4/M M M"
_symmetry_group_IT_number 139
_symmetry_cell_setting 'tetragonal'
loop_
_space_group_symop_operation_xyz
x,y,z
-y,x,z
-x,-y,z
y,-x,z
x,-y,-z
-x,y,-z
y,x,-z
-y,-x,-z
-x,-y,-z
y,-x,-z
x,y,-z
-y,x,-z
-x,y,z
x,-y,z
-y,-x,z
y,x,z
1/2+x,1/2+y,1/2+z
1/2-y,1/2+x,1/2+z
1/2-x,1/2-y,1/2+z
1/2+y,1/2-x,1/2+z
1/2+x,1/2-y,1/2-z
1/2-x,1/2+y,1/2-z
1/2+y,1/2+x,1/2-z
1/2-y,1/2-x,1/2-z
1/2-x,1/2-y,1/2-z
1/2+y,1/2-x,1/2-z
1/2+x,1/2+y,1/2-z
1/2-y,1/2+x,1/2-z
1/2-x,1/2+y,1/2+z
1/2+x,1/2-y,1/2+z
1/2-y,1/2-x,1/2+z
1/2+y,1/2+x,1/2+z
loop_
_atom_site_type_symbol
_atom_site_label
_atom_site_fract_x
_atom_site_fract_y
_atom_site_fract_z
Si Si1 0.940222 0.271681 0.098324
Si Si2 0.439212 0.840583 0.896812
Si Si3 0.061518 0.758122 0.289129
Si Si4 0.641972 0.441142 0.105678
Si Si5 0.943617 0.390846 0.894041
O O1 0.917675 0.240152 0.184533
O O2 0.932159 0.331173 0.121824
O O3 0.000000 0.259278 0.088907
O O4 0.914061 0.257553 0.000000
O O5 0.500000 0.838624 0.895701
O O6 0.416478 0.792653 0.839617
O O7 0.421959 0.895217 0.851683
O O8 0.418090 0.835844 0.000000
O O9 0.081045 0.809369 0.339177
O O10 0.000000 0.755843 0.291366
O O11 0.629547 0.500000 0.132328
O O12 0.591941 0.408060 0.131250
O O13 0.656074 0.436567 0.000000
O O14 0.000000 0.405231 0.850620
O O15 0.946828 0.404142 0.000000
#
# Coordination Sequence:
#
# PCOD8320013 Si02
#       5
#    32  32  32  32  32
#     4   8  14  25  40  56  74  99 136 183 226 256
#     4   9  16  24  35  54  81 112 144 177 216 263
#     4   9  16  26  41  60  82 108 139 175 211 245
#     4   9  17  29  46  69  96 121 140 159 187 229
#     4   8  14  24  36  52  77 108 143 183 223 261
#
# _framework density 16.133680999999999
#
# number of rings (size 3 to 8) (size 9 to 14) (size 15 to 20)
#    0.000    3.400    0.000    1.800    0.000    3.800 
#    0.000    3.000    0.000    0.600    0.000    8.400 
#    0.000    4.800    0.000    7.800    0.000    0.200 
#
# Total GULP energy -991058.350352 kJ/mol
# GULP energy per Si atom -12388.229379 kJ/mol
# Density = 1.609696 g / cm^3
# Si number density = 16.133681 Si / 1000 Ang^3
#
#
#
# Elastic Constant Matrix: (Units=GPa)
#
#
# Indices 1 2 3 4 5 6 
#
# 1 69.5468 36.1101 38.8796 0.0000 0.0000 0.0000
# 2 36.1101 69.5468 38.8796 0.0000 0.0000 0.0000
# 3 38.8796 38.8796 84.2082 0.0000 0.0000 0.0000
# 4 0.0000 0.0000 0.0000 13.7211 0.0000 0.0000
# 5 0.0000 0.0000 0.0000 0.0000 13.7211 0.0000
# 6 0.0000 0.0000 0.0000 0.0000 0.0000 4.1676
#
#
#
# Elastic Compliance Matrix: (Units=1/GPa)
#
#
# Indices 1 2 3 4 5 6 
#
# 1 0.022122 -0.007786 -0.006619 0.000000 0.000000 0.000000
# 2 -0.007786 0.022122 -0.006619 0.000000 0.000000 0.000000
# 3 -0.006619 -0.006619 0.017987 0.000000 0.000000 0.000000
# 4 0.000000 0.000000 0.000000 0.072880 0.000000 0.000000
# 5 0.000000 0.000000 0.000000 0.000000 0.072880 0.000000
# 6 0.000000 0.000000 0.000000 0.000000 0.000000 0.239946
#
#
# Mechanical properties :
#
#
# Convention : Reuss Voigt Hill
#
# Bulk Modulus (GPa) = 49.54611 50.11563 49.83087
# Shear Modulus (GPa) = 10.06618 13.61745 11.84182
#
# Velocity S-wave (km/s) = 2.50056 2.90839 2.71215
# Velocity P-wave (km/s) = 6.25407 6.51218 6.38443
#
# Compressibility (1/GPa) = 0.02018322
#
# Stress axis : x y z
#
# Youngs Moduli (GPa) = 45.20463 45.20463 55.59435
#
# Poissons Ratio (x) = 0.35195 0.36798
# Poissons Ratio (y) = 0.35195 0.36798
# Poissons Ratio (z) = 0.29921 0.29921
#
# Static dielectric constant tensor:
#      x y z
#    x 2.874240 0.000000 0.000000 
#    y 0.000000 2.874240 0.000000 
#    z 0.000000 0.000000 3.512350 
# 
# 
# High freq. dielectric constant tensor:
#      x y z
#    x 1.581380 0.000000 0.000000 
#    y 0.000000 1.581380 0.000000 
#    z 0.000000 0.000000 1.625620 
# 
# From -- ./inp_files/5953.got.cif
#   From: 2010.03.12/outbox.cif.g09.slc.cpg/sg139_3_cif.got.tgz:5953.got - 2010.04.08 09:46:31.
