data_PCOD8320017
_publ_section_title
;
Structure prediction by ZEFSAII (Michael W. Deem and Ramdas Pophale) SiO2 
 PCOD8320017
Probable space group: I 4/M M M
;
_chemical_formula_sum "Si O2"
_cell_formula_units_Z 128
_cell_length_a 33.626232
_cell_length_b 33.626232
_cell_length_c 10.155972
_cell_angle_alpha 90.000000
_cell_angle_beta 90.000000
_cell_angle_gamma 90.000000
_cell_volume 11483.595988
_symmetry_space_group_name_H-M "I 4/M M M"
_symmetry_group_IT_number 139
_symmetry_cell_setting 'tetragonal'
loop_
_space_group_symop_operation_xyz
x,y,z
-y,x,z
-x,-y,z
y,-x,z
x,-y,-z
-x,y,-z
y,x,-z
-y,-x,-z
-x,-y,-z
y,-x,-z
x,y,-z
-y,x,-z
-x,y,z
x,-y,z
-y,-x,z
y,x,z
1/2+x,1/2+y,1/2+z
1/2-y,1/2+x,1/2+z
1/2-x,1/2-y,1/2+z
1/2+y,1/2-x,1/2+z
1/2+x,1/2-y,1/2-z
1/2-x,1/2+y,1/2-z
1/2+y,1/2+x,1/2-z
1/2-y,1/2-x,1/2-z
1/2-x,1/2-y,1/2-z
1/2+y,1/2-x,1/2-z
1/2+x,1/2+y,1/2-z
1/2-y,1/2+x,1/2-z
1/2-x,1/2+y,1/2+z
1/2+x,1/2-y,1/2+z
1/2-y,1/2-x,1/2+z
1/2+y,1/2+x,1/2+z
loop_
_atom_site_type_symbol
_atom_site_label
_atom_site_fract_x
_atom_site_fract_y
_atom_site_fract_z
Si Si1 0.692107 0.240929 0.000000
Si Si2 0.454367 0.389541 0.650090
Si Si3 0.658466 0.408367 0.148159
Si Si4 0.244703 0.822373 0.000000
Si Si5 0.347683 0.280656 0.769961
O O1 0.664590 0.246212 0.128167
O O2 0.726484 0.273517 0.000000
O O3 0.711438 0.197162 0.000000
O O4 0.447052 0.375033 0.500000
O O5 0.500000 0.401001 0.673950
O O6 0.428973 0.428973 0.680734
O O7 0.442567 0.353914 0.748875
O O8 0.626288 0.373713 0.152889
O O9 0.701022 0.390379 0.191118
O O10 0.661465 0.425953 0.000000
O O11 0.239266 0.850421 0.873385
O O12 0.212387 0.787614 0.000000
O O13 0.315053 0.315053 0.772545
#
# Coordination Sequence:
#
# PCOD8320017 Si02
#       5
#    16  32  32  16  32
#     4   9  14  22  30  40  61  84 105 125 144 163
#     4   9  18  30  43  57  69  79  92 114 146 187
#     4   9  16  26  38  50  64  82 101 119 140 170
#     4   9  16  20  28  44  61  82 105 127 146 161
#     4   9  15  22  31  44  61  82 104 124 143 163
#
# _framework density 11.146335000000001
#
# number of rings (size 3 to 8) (size 9 to 14) (size 15 to 20)
#    0.000    3.000    1.250    0.750    1.750    3.750 
#    0.000    1.250    0.000    0.000    0.000    3.500 
#    0.000    0.000    0.000    0.000    0.000    0.000 
#
# Total GULP energy -793312.712090 kJ/mol
# GULP energy per Si atom -12395.511126 kJ/mol
# Density = 1.112097 g / cm^3
# Si number density = 11.146335 Si / 1000 Ang^3
#
#
#
# Elastic Constant Matrix: (Units=GPa)
#
#
# Indices 1 2 3 4 5 6 
#
# 1 30.0039 29.2308 31.4483 0.0000 0.0000 0.0000
# 2 29.2308 30.0040 31.4480 0.0000 0.0000 0.0000
# 3 31.4483 31.4480 106.3298 0.0000 0.0000 0.0000
# 4 0.0000 0.0000 0.0000 14.9231 0.0000 0.0000
# 5 0.0000 0.0000 0.0000 0.0000 14.9232 0.0000
# 6 0.0000 0.0000 0.0000 0.0000 0.0000 12.4525
#
#
#
# Elastic Compliance Matrix: (Units=1/GPa)
#
#
# Indices 1 2 3 4 5 6 
#
# 1 0.659020 -0.634404 -0.007282 0.000000 0.000000 0.000000
# 2 -0.634404 0.659010 -0.007275 0.000000 0.000000 0.000000
# 3 -0.007282 -0.007275 0.013710 0.000000 0.000000 0.000000
# 4 0.000000 0.000000 0.000000 0.067010 0.000000 0.000000
# 5 0.000000 0.000000 0.000000 0.000000 0.067010 0.000000
# 6 0.000000 0.000000 0.000000 0.000000 0.000000 0.080305
#
#
# Mechanical properties :
#
#
# Convention : Reuss Voigt Hill
#
# Bulk Modulus (GPa) = 29.57151 38.95464 34.26308
# Shear Modulus (GPa) = 1.75115 13.40714 7.57914
#
# Velocity S-wave (km/s) = 1.25478 3.47195 2.61045
# Velocity P-wave (km/s) = 5.35604 7.14820 6.31601
#
# Compressibility (1/GPa) = 0.03381633
#
# Stress axis : x y z
#
# Youngs Moduli (GPa) = 1.51740 1.51743 72.93776
#
# Poissons Ratio (x) = 0.96266 0.53116
# Poissons Ratio (y) = 0.96265 0.53066
# Poissons Ratio (z) = 0.01105 0.01104
#
# Static dielectric constant tensor:
#      x y z
#    x 2.143150 0.000000 0.000000 
#    y 0.000000 2.143150 0.000000 
#    z 0.000000 0.000000 2.632170 
# 
# 
# High freq. dielectric constant tensor:
#      x y z
#    x 1.377930 0.000000 0.000000 
#    y 0.000000 1.377930 0.000000 
#    z 0.000000 0.000000 1.443390 
# 
# From -- ./inp_files/4138.got.cif
#   From: 2010.03.12/outbox.cif.g09.slc.cpg/sg139_3_cif.got.tgz:4138.got - 2010.04.08 09:46:31.
