data_PCOD8320914
_publ_section_title
;
Structure prediction by ZEFSAII (Michael W. Deem and Ramdas Pophale) SiO2 
 PCOD8320914
Probable space group: I 41/A M D
;
_chemical_formula_sum "Si O2"
_cell_formula_units_Z 160
_cell_length_a 26.532005
_cell_length_b 26.532005
_cell_length_c 10.693170
_cell_angle_alpha 90.000000
_cell_angle_beta 90.000000
_cell_angle_gamma 90.000000
_cell_volume 7527.428036
_symmetry_space_group_name_H-M "I 41/A M D"
_symmetry_group_IT_number 141
_space_group.IT_coordinate_system_code '2'
_symmetry_cell_setting 'tetragonal'
loop_
_space_group_symop_operation_xyz
x,y,z
1/4-y,3/4+x,1/4+z
-x,1/2-y,z
1/4+y,1/4-x,3/4+z
x,-y,-z
-x,1/2+y,-z
1/4+y,3/4+x,1/4-z
1/4-y,1/4-x,3/4-z
-x,-y,-z
3/4+y,1/4-x,3/4-z
x,1/2+y,-z
3/4-y,3/4+x,1/4-z
-x,y,z
x,1/2-y,z
3/4-y,1/4-x,3/4+z
3/4+y,3/4+x,1/4+z
1/2+x,1/2+y,1/2+z
3/4-y,1/4+x,3/4+z
1/2-x,-y,1/2+z
3/4+y,3/4-x,1/4+z
1/2+x,1/2-y,1/2-z
1/2-x,y,1/2-z
3/4+y,1/4+x,3/4-z
3/4-y,3/4-x,1/4-z
1/2-x,1/2-y,1/2-z
1/4+y,3/4-x,1/4-z
1/2+x,y,1/2-z
1/4-y,1/4+x,3/4-z
1/2-x,1/2+y,1/2+z
1/2+x,-y,1/2+z
1/4-y,3/4-x,1/4+z
1/4+y,1/4+x,3/4+z
loop_
_atom_site_type_symbol
_atom_site_label
_atom_site_fract_x
_atom_site_fract_y
_atom_site_fract_z
Si Si1 0.000000 0.676415 0.061281
Si Si2 0.500000 0.418507 0.921946
Si Si3 0.695243 0.854508 0.771411
Si Si4 0.000000 0.937579 0.131637
Si Si5 0.500000 0.622545 0.662278
Si Si6 0.000000 0.669559 0.591861
Si Si7 0.915765 0.500000 0.000000
Si Si8 0.607301 0.922058 0.687930
O O1 0.049164 0.700837 0.125000
O O2 0.000000 0.616068 0.062552
O O3 0.000000 0.678906 0.908057
O O4 0.500000 0.423011 0.774891
O O5 0.452618 0.447178 0.977372
O O6 0.500000 0.357816 0.957181
O O7 0.750000 0.879969 0.750000
O O8 0.651729 0.880491 0.686091
O O9 0.687590 0.855225 0.918766
O O10 0.049724 0.968134 0.095630
O O11 0.500000 0.624327 0.811215
O O12 0.447312 0.594479 0.632223
O O13 0.049860 0.700141 0.625000
O O14 0.879272 0.533070 0.909493
#
# Coordination Sequence:
#
# PCOD8320914 Si02
#       8
#    16  16  32  16  16  16  16  32
#     4  11  27  42  60  93 145 188 215 268 340 415
#     4  12  23  38  66  98 132 173 230 272 343 408
#     4  11  24  43  68 101 136 176 225 291 346 407
#     4  11  24  38  64 100 136 172 229 288 328 413
#     4  12  21  44  67  95 137 187 225 281 351 407
#     4  11  24  36  58  93 133 184 232 275 325 411
#     4  11  22  46  68  98 128 180 228 287 354 408
#     4  11  23  43  71  98 135 177 229 290 347 412
#
# _framework density 21.255600999999999
#
# number of rings (size 3 to 8) (size 9 to 14) (size 15 to 20)
#    0.000    0.800    4.000    3.300    5.600    0.800 
#    0.000    3.000    8.800    0.000    0.000    0.000 
#    0.000    0.000    0.000    0.000    0.000    0.000 
#
# Total GULP energy -991101.128800 kJ/mol
# GULP energy per Si atom -12388.764110 kJ/mol
# Density = 2.120722 g / cm^3
# Si number density = 21.255601 Si / 1000 Ang^3
#
#
#
# Elastic Constant Matrix: (Units=GPa)
#
#
# Indices 1 2 3 4 5 6 
#
# 1 120.5590 51.2918 43.7390 0.0000 0.0000 0.0000
# 2 51.2918 120.5617 43.7397 0.0000 0.0000 0.0000
# 3 43.7390 43.7397 129.9049 0.0000 0.0000 0.0000
# 4 0.0000 0.0000 0.0000 34.9114 0.0000 0.0000
# 5 0.0000 0.0000 0.0000 0.0000 34.9117 0.0000
# 6 0.0000 0.0000 0.0000 0.0000 0.0000 12.9898
#
#
#
# Elastic Compliance Matrix: (Units=1/GPa)
#
#
# Indices 1 2 3 4 5 6 
#
# 1 0.010730 -0.003707 -0.002365 0.000000 0.000000 0.000000
# 2 -0.003707 0.010729 -0.002365 0.000000 0.000000 0.000000
# 3 -0.002365 -0.002365 0.009290 0.000000 0.000000 0.000000
# 4 0.000000 0.000000 0.000000 0.028644 0.000000 0.000000
# 5 0.000000 0.000000 0.000000 0.000000 0.028644 0.000000
# 6 0.000000 0.000000 0.000000 0.000000 0.000000 0.076983
#
#
# Mechanical properties :
#
#
# Convention : Reuss Voigt Hill
#
# Bulk Modulus (GPa) = 72.06018 72.06296 72.06157
# Shear Modulus (GPa) = 26.80705 32.04626 29.42666
#
# Velocity S-wave (km/s) = 3.55516 3.88707 3.72481
# Velocity P-wave (km/s) = 7.12934 7.35680 7.24396
#
# Compressibility (1/GPa) = 0.01387729
#
# Stress axis : x y z
#
# Youngs Moduli (GPa) = 93.19940 93.20137 107.64007
#
# Poissons Ratio (x) = 0.34550 0.25452
# Poissons Ratio (y) = 0.34549 0.25452
# Poissons Ratio (z) = 0.22037 0.22038
#
# Static dielectric constant tensor:
#      x y z
#    x 3.997770 0.000000 0.000000 
#    y 0.000000 3.997830 0.000000 
#    z 0.000000 0.000000 4.166430 
# 
# 
# High freq. dielectric constant tensor:
#      x y z
#    x 1.821250 0.000000 0.000000 
#    y 0.000000 1.821250 0.000000 
#    z 0.000000 0.000000 1.856940 
# 
# From -- ./inp_files/4998.got.cif
#   From: 2010.03.12/outbox.cif.g09.slc.cpg/sg141_3_cif.got.tgz:4998.got - 2010.04.03 13:18:35.
