data_PCOD8320365
_publ_section_title
;
Structure prediction by ZEFSAII (Michael W. Deem and Ramdas Pophale) SiO2 
 PCOD8320365
Probable space group: I 4/M C M
;
_chemical_formula_sum "Si O2"
_cell_formula_units_Z 176
_cell_length_a 26.027332
_cell_length_b 26.027332
_cell_length_c 14.106727
_cell_angle_alpha 90.000000
_cell_angle_beta 90.000000
_cell_angle_gamma 90.000000
_cell_volume 9556.207374
_symmetry_space_group_name_H-M "I 4/M C M"
_symmetry_group_IT_number 140
_symmetry_cell_setting 'tetragonal'
loop_
_space_group_symop_operation_xyz
x,y,z
-y,x,z
-x,-y,z
y,-x,z
x,-y,1/2-z
-x,y,1/2-z
y,x,1/2-z
-y,-x,1/2-z
-x,-y,-z
y,-x,-z
x,y,-z
-y,x,-z
-x,y,1/2+z
x,-y,1/2+z
-y,-x,1/2+z
y,x,1/2+z
1/2+x,1/2+y,1/2+z
1/2-y,1/2+x,1/2+z
1/2-x,1/2-y,1/2+z
1/2+y,1/2-x,1/2+z
1/2+x,1/2-y,-z
1/2-x,1/2+y,-z
1/2+y,1/2+x,-z
1/2-y,1/2-x,-z
1/2-x,1/2-y,1/2-z
1/2+y,1/2-x,1/2-z
1/2+x,1/2+y,1/2-z
1/2-y,1/2+x,1/2-z
1/2-x,1/2+y,z
1/2+x,1/2-y,z
1/2-y,1/2-x,z
1/2+y,1/2+x,z
loop_
_atom_site_type_symbol
_atom_site_label
_atom_site_fract_x
_atom_site_fract_y
_atom_site_fract_z
Si Si1 0.788514 0.796329 0.500000
Si Si2 0.191028 0.607193 0.796300
Si Si3 0.223584 0.500000 0.750000
Si Si4 0.788670 0.141031 0.187760
Si Si5 0.998273 0.919517 0.111843
Si Si6 0.807418 0.970254 0.613048
Si Si7 0.783452 0.631723 0.500000
O O1 0.751076 0.748925 0.500000
O O2 0.776967 0.829283 0.407966
O O3 0.847528 0.775486 0.500000
O O4 0.137149 0.637149 0.782171
O O5 0.187280 0.550382 0.750191
O O6 0.236047 0.639798 0.747262
O O7 0.204599 0.598672 0.906749
O O8 0.259896 0.502036 0.843340
O O9 0.831892 0.168109 0.250000
O O10 0.808934 0.085254 0.160718
O O11 0.998010 0.860362 0.144464
O O12 0.049661 0.947827 0.149840
O O13 0.996323 0.921511 0.000000
O O14 0.800890 0.967000 0.500000
O O15 0.818430 0.681571 0.500000
#
# Coordination Sequence:
#
# PCOD8320365 Si02
#       7
#    16  32  16  32  32  32  16
#     4  11  20  32  51  78 112 149 186 223 274 327
#     4  10  21  38  58  83 113 146 184 226 274 330
#     4  10  24  38  58  82 108 144 176 222 272 340
#     4  11  21  34  53  80 114 150 187 228 273 334
#     4   8  15  30  51  72  95 135 186 231 273 311
#     4  10  21  37  53  77 112 144 181 232 285 333
#     4   9  18  32  55  84 111 143 181 220 268 320
#
# _framework density 18.417348
#
# number of rings (size 3 to 8) (size 9 to 14) (size 15 to 20)
#    0.000    2.182    2.727    1.091    1.273    3.636 
#    0.000    0.000    0.000    1.364    0.000    0.000 
#    0.000    2.182    0.000    0.000    0.000    0.000 
#
# Total GULP energy -1090866.094671 kJ/mol
# GULP energy per Si atom -12396.205621 kJ/mol
# Density = 1.837543 g / cm^3
# Si number density = 18.417348 Si / 1000 Ang^3
#
#
#
# Elastic Constant Matrix: (Units=GPa)
#
#
# Indices 1 2 3 4 5 6 
#
# 1 79.9752 42.8829 22.9816 0.0000 0.0000 0.0000
# 2 42.8829 79.9766 22.9824 0.0000 0.0000 0.0000
# 3 22.9816 22.9824 99.9011 0.0000 0.0000 0.0000
# 4 0.0000 0.0000 0.0000 15.5607 0.0000 0.0000
# 5 0.0000 0.0000 0.0000 0.0000 15.5658 0.0000
# 6 0.0000 0.0000 0.0000 0.0000 0.0000 23.8734
#
#
#
# Elastic Compliance Matrix: (Units=1/GPa)
#
#
# Indices 1 2 3 4 5 6 
#
# 1 0.017933 -0.009027 -0.002049 0.000000 0.000000 0.000000
# 2 -0.009027 0.017932 -0.002049 0.000000 0.000000 0.000000
# 3 -0.002049 -0.002049 0.010953 0.000000 0.000000 0.000000
# 4 0.000000 0.000000 0.000000 0.064265 0.000000 0.000000
# 5 0.000000 0.000000 0.000000 0.000000 0.064243 0.000000
# 6 0.000000 0.000000 0.000000 0.000000 0.000000 0.041888
#
#
# Mechanical properties :
#
#
# Convention : Reuss Voigt Hill
#
# Bulk Modulus (GPa) = 48.61630 48.61630 48.61630
# Shear Modulus (GPa) = 19.97459 22.40039 21.18749
#
# Velocity S-wave (km/s) = 3.29683 3.49128 3.39545
# Velocity P-wave (km/s) = 6.39894 6.53501 6.46733
#
# Compressibility (1/GPa) = 0.02056923
#
# Stress axis : x y z
#
# Youngs Moduli (GPa) = 55.76403 55.76478 91.30310
#
# Poissons Ratio (x) = 0.50337 0.18705
# Poissons Ratio (y) = 0.50336 0.18707
# Poissons Ratio (z) = 0.11424 0.11425
#
# Static dielectric constant tensor:
#      x y z
#    x 3.306420 0.000000 0.000000 
#    y 0.000000 3.306420 0.000000 
#    z 0.000000 0.000000 3.620940 
# 
# 
# High freq. dielectric constant tensor:
#      x y z
#    x 1.695110 0.000000 0.000000 
#    y 0.000000 1.695110 0.000000 
#    z 0.000000 0.000000 1.730060 
# 
# From -- ./inp_files/4999.got.cif
#   From: 2010.06.25/outbox.cif.g09.slc.cpg/sg140_3_cif.got.tgz:4999.got - 2010.06.28 10:53:23.
