data_PCOD8320749
_publ_section_title
;
Structure prediction by ZEFSAII (Michael W. Deem and Ramdas Pophale) SiO2 
 PCOD8320749
Probable space group: I 41/A M D
;
_chemical_formula_sum "Si O2"
_cell_formula_units_Z 128
_cell_length_a 27.516923
_cell_length_b 27.516923
_cell_length_c 9.400978
_cell_angle_alpha 90.000000
_cell_angle_beta 90.000000
_cell_angle_gamma 90.000000
_cell_volume 7118.242406
_symmetry_space_group_name_H-M "I 41/A M D"
_symmetry_group_IT_number 141
_space_group.IT_coordinate_system_code '2'
_symmetry_cell_setting 'tetragonal'
loop_
_space_group_symop_operation_xyz
x,y,z
1/4-y,3/4+x,1/4+z
-x,1/2-y,z
1/4+y,1/4-x,3/4+z
x,-y,-z
-x,1/2+y,-z
1/4+y,3/4+x,1/4-z
1/4-y,1/4-x,3/4-z
-x,-y,-z
3/4+y,1/4-x,3/4-z
x,1/2+y,-z
3/4-y,3/4+x,1/4-z
-x,y,z
x,1/2-y,z
3/4-y,1/4-x,3/4+z
3/4+y,3/4+x,1/4+z
1/2+x,1/2+y,1/2+z
3/4-y,1/4+x,3/4+z
1/2-x,-y,1/2+z
3/4+y,3/4-x,1/4+z
1/2+x,1/2-y,1/2-z
1/2-x,y,1/2-z
3/4+y,1/4+x,3/4-z
3/4-y,3/4-x,1/4-z
1/2-x,1/2-y,1/2-z
1/4+y,3/4-x,1/4-z
1/2+x,y,1/2-z
1/4-y,1/4+x,3/4-z
1/2-x,1/2+y,1/2+z
1/2+x,-y,1/2+z
1/4-y,3/4-x,1/4+z
1/4+y,1/4+x,3/4+z
loop_
_atom_site_type_symbol
_atom_site_label
_atom_site_fract_x
_atom_site_fract_y
_atom_site_fract_z
Si Si1 0.750000 0.550563 0.750000
Si Si2 0.446207 0.803794 0.375000
Si Si3 0.363107 0.093437 0.965631
Si Si4 0.444903 0.904278 0.236474
Si Si5 0.373267 0.056084 0.538790
O O1 0.765299 0.515299 0.625000
O O2 0.706871 0.584991 0.700805
O O3 0.500000 0.808572 0.447231
O O4 0.440606 0.846196 0.259127
O O5 0.418106 0.084731 0.912599
O O6 0.335901 0.130482 0.858190
O O7 0.364085 0.114085 0.125000
O O8 0.500000 0.922105 0.222927
O O9 0.420928 0.934548 0.365801
O O10 0.326145 0.076145 0.625000
O O11 0.366119 0.000000 0.500000
#
# Coordination Sequence:
#
# PCOD8320749 Si02
#       5
#    16  16  32  32  32
#     4  10  24  34  57  82 110 154 201 238 286 332
#     4   9  16  32  62  90 106 132 184 242 290 332
#     4  10  22  37  53  83 119 150 185 237 291 343
#     4  10  20  39  61  85 114 152 194 238 290 351
#     4  10  22  37  57  81 114 151 196 243 284 341
#
# _framework density 17.981966
#
# number of rings (size 3 to 8) (size 9 to 14) (size 15 to 20)
#    0.000    2.125    3.750    0.000   15.750    0.500 
#    0.000    3.125    0.000    0.000    0.000    0.000 
#    0.000    0.000    0.000    0.000    0.000    0.000 
#
# Total GULP energy -793291.305199 kJ/mol
# GULP energy per Si atom -12395.176644 kJ/mol
# Density = 1.794104 g / cm^3
# Si number density = 17.981966 Si / 1000 Ang^3
#
#
#
# Elastic Constant Matrix: (Units=GPa)
#
#
# Indices 1 2 3 4 5 6 
#
# 1 128.2877 40.8943 62.9494 0.0000 0.0000 0.0000
# 2 40.8943 128.2861 62.9499 0.0000 0.0000 0.0000
# 3 62.9494 62.9499 150.1204 0.0000 0.0000 0.0000
# 4 0.0000 0.0000 0.0000 3.0877 0.0000 0.0000
# 5 0.0000 0.0000 0.0000 0.0000 3.0860 0.0000
# 6 0.0000 0.0000 0.0000 0.0000 0.0000 21.4678
#
#
#
# Elastic Compliance Matrix: (Units=1/GPa)
#
#
# Indices 1 2 3 4 5 6 
#
# 1 0.010017 -0.001425 -0.003603 0.000000 0.000000 0.000000
# 2 -0.001425 0.010017 -0.003603 0.000000 0.000000 0.000000
# 3 -0.003603 -0.003603 0.009683 0.000000 0.000000 0.000000
# 4 0.000000 0.000000 0.000000 0.323864 0.000000 0.000000
# 5 0.000000 0.000000 0.000000 0.000000 0.324045 0.000000
# 6 0.000000 0.000000 0.000000 0.000000 0.000000 0.046581
#
#
# Mechanical properties :
#
#
# Convention : Reuss Voigt Hill
#
# Bulk Modulus (GPa) = 80.28656 82.25349 81.27002
# Shear Modulus (GPa) = 6.70581 21.52168 14.11375
#
# Velocity S-wave (km/s) = 1.93321 3.46330 2.80462
# Velocity P-wave (km/s) = 7.05183 7.86347 7.46868
#
# Compressibility (1/GPa) = 0.01245539
#
# Stress axis : x y z
#
# Youngs Moduli (GPa) = 99.82850 99.82655 103.27530
#
# Poissons Ratio (x) = 0.14229 0.37208
# Poissons Ratio (y) = 0.14229 0.37209
# Poissons Ratio (z) = 0.35966 0.35966
#
# Static dielectric constant tensor:
#      x y z
#    x 3.420760 0.000000 0.000000 
#    y 0.000000 3.420780 0.000000 
#    z 0.000000 0.000000 3.396260 
# 
# 
# High freq. dielectric constant tensor:
#      x y z
#    x 1.694600 0.000000 0.000000 
#    y 0.000000 1.694600 0.000000 
#    z 0.000000 0.000000 1.684810 
# 
# From -- ./inp_files/3035.got.cif
#   From: 2010.03.12/outbox.cif.g09.slc.cpg/sg141_2_cif.got.tgz:3035.got - 2010.04.03 13:18:35.
