data_PCOD8320206
_publ_section_title
;
Structure prediction by ZEFSAII (Michael W. Deem and Ramdas Pophale) SiO2 
 PCOD8320206
Probable space group: I 4/M C M
;
_chemical_formula_sum "Si O2"
_cell_formula_units_Z 144
_cell_length_a 23.993339
_cell_length_b 23.993339
_cell_length_c 16.557984
_cell_angle_alpha 90.000000
_cell_angle_beta 90.000000
_cell_angle_gamma 90.000000
_cell_volume 9532.105468
_symmetry_space_group_name_H-M "I 4/M C M"
_symmetry_group_IT_number 140
_symmetry_cell_setting 'tetragonal'
loop_
_space_group_symop_operation_xyz
x,y,z
-y,x,z
-x,-y,z
y,-x,z
x,-y,1/2-z
-x,y,1/2-z
y,x,1/2-z
-y,-x,1/2-z
-x,-y,-z
y,-x,-z
x,y,-z
-y,x,-z
-x,y,1/2+z
x,-y,1/2+z
-y,-x,1/2+z
y,x,1/2+z
1/2+x,1/2+y,1/2+z
1/2-y,1/2+x,1/2+z
1/2-x,1/2-y,1/2+z
1/2+y,1/2-x,1/2+z
1/2+x,1/2-y,-z
1/2-x,1/2+y,-z
1/2+y,1/2+x,-z
1/2-y,1/2-x,-z
1/2-x,1/2-y,1/2-z
1/2+y,1/2-x,1/2-z
1/2+x,1/2+y,1/2-z
1/2-y,1/2+x,1/2-z
1/2-x,1/2+y,z
1/2+x,1/2-y,z
1/2-y,1/2-x,z
1/2+y,1/2+x,z
loop_
_atom_site_type_symbol
_atom_site_label
_atom_site_fract_x
_atom_site_fract_y
_atom_site_fract_z
Si Si1 0.819365 0.773014 0.671525
Si Si2 0.711244 0.302330 0.500000
Si Si3 0.971631 0.668145 0.859405
Si Si4 0.955362 0.544639 0.904723
Si Si5 0.196643 0.395279 0.000000
Si Si6 0.818359 0.588835 0.691544
O O1 0.814103 0.814103 0.750000
O O2 0.763804 0.736197 0.669116
O O3 0.824264 0.804675 0.584160
O O4 0.874397 0.736582 0.682455
O O5 0.744489 0.244489 0.500000
O O6 0.751436 0.354866 0.500000
O O7 0.973964 0.602502 0.868462
O O8 0.940529 0.681873 0.777365
O O9 0.036421 0.686341 0.869365
O O10 0.934990 0.700633 0.923738
O O11 0.000000 0.500000 0.875564
O O12 0.950778 0.549223 0.000000
O O13 0.138424 0.361577 0.000000
O O14 0.873407 0.626594 0.676915
#
# Coordination Sequence:
#
# PCOD8320206 Si02
#       6
#    32  16  32  16  16  32
#     4   9  17  31  47  66  85 110 144 195 239 282
#     4   9  18  29  48  68  82 106 147 189 237 279
#     4  11  19  31  44  63  84 121 154 192 235 267
#     4  11  20  32  44  58  83 118 170 210 234 260
#     4  11  18  31  48  62  82 113 154 194 220 277
#     4  10  20  31  44  62  89 115 153 192 237 277
#
# _framework density 15.106840999999999
#
# number of rings (size 3 to 8) (size 9 to 14) (size 15 to 20)
#    0.000    1.889    3.333    2.000    0.000    4.444 
#    0.000    1.111    0.000    0.000    0.000    0.000 
#    0.000    0.000    0.000    0.000    0.000  177.778 
#
# Total GULP energy -892241.091325 kJ/mol
# GULP energy per Si atom -12392.237380 kJ/mol
# Density = 1.507246 g / cm^3
# Si number density = 15.106841 Si / 1000 Ang^3
#
#
#
# Elastic Constant Matrix: (Units=GPa)
#
#
# Indices 1 2 3 4 5 6 
#
# 1 63.5029 43.9927 38.9994 0.0000 0.0000 0.0000
# 2 43.9927 63.5032 38.9996 0.0000 0.0000 0.0000
# 3 38.9994 38.9996 98.2006 0.0000 0.0000 0.0000
# 4 0.0000 0.0000 0.0000 -83.8143 0.0000 0.0000
# 5 0.0000 0.0000 0.0000 0.0000 -82.7715 0.0000
# 6 0.0000 0.0000 0.0000 0.0000 0.0000 23.3183
#
#
#
# Elastic Compliance Matrix: (Units=1/GPa)
#
#
# Indices 1 2 3 4 5 6 
#
# 1 0.032162 -0.019093 -0.005190 0.000000 0.000000 0.000000
# 2 -0.019093 0.032162 -0.005190 0.000000 0.000000 0.000000
# 3 -0.005190 -0.005190 0.014306 0.000000 0.000000 0.000000
# 4 0.000000 0.000000 0.000000 -0.011931 0.000000 0.000000
# 5 0.000000 0.000000 0.000000 0.000000 -0.012081 0.000000
# 6 0.000000 0.000000 0.000000 0.000000 0.000000 0.042885
#
#
# Mechanical properties :
#
#
# Convention : Reuss Voigt Hill
#
# Bulk Modulus (GPa) = 50.80647 52.13222 51.46935
# Shear Modulus (GPa) = 30.67324 -21.77250 4.45037
#
# Velocity S-wave (km/s) = 4.51091 -3.80048 1.71823
# Velocity P-wave (km/s) = 7.79971 3.91481 6.17095
#
# Compressibility (1/GPa) = 0.01968253
#
# Stress axis : x y z
#
# Youngs Moduli (GPa) = 31.09288 31.09290 69.90249
#
# Poissons Ratio (x) = 0.59366 0.36280
# Poissons Ratio (y) = 0.59366 0.36280
# Poissons Ratio (z) = 0.16137 0.16138
#
# Static dielectric constant tensor:
#      x y z
#    x 2.812100 0.000000 0.000000 
#    y 0.000000 2.812100 0.000000 
#    z 0.000000 0.000000 3.259380 
# 
# 
# High freq. dielectric constant tensor:
#      x y z
#    x 1.552760 0.000000 0.000000 
#    y 0.000000 1.552760 0.000000 
#    z 0.000000 0.000000 1.597620 
# 
# From -- ./inp_files/7070.got.cif
#   From: 2010.06.25/outbox.cif.g09.slc.cpg/sg140_4_cif.got.tgz:7070.got - 2010.06.28 10:53:23.
