data_PCOD8320205
_publ_section_title
;
Structure prediction by ZEFSAII (Michael W. Deem and Ramdas Pophale) SiO2 
 PCOD8320205
Probable space group: I 4/M C M
;
_chemical_formula_sum "Si O2"
_cell_formula_units_Z 160
_cell_length_a 19.025007
_cell_length_b 19.025007
_cell_length_c 25.676038
_cell_angle_alpha 90.000000
_cell_angle_beta 90.000000
_cell_angle_gamma 90.000000
_cell_volume 9293.464840
_symmetry_space_group_name_H-M "I 4/M C M"
_symmetry_group_IT_number 140
_symmetry_cell_setting 'tetragonal'
loop_
_space_group_symop_operation_xyz
x,y,z
-y,x,z
-x,-y,z
y,-x,z
x,-y,1/2-z
-x,y,1/2-z
y,x,1/2-z
-y,-x,1/2-z
-x,-y,-z
y,-x,-z
x,y,-z
-y,x,-z
-x,y,1/2+z
x,-y,1/2+z
-y,-x,1/2+z
y,x,1/2+z
1/2+x,1/2+y,1/2+z
1/2-y,1/2+x,1/2+z
1/2-x,1/2-y,1/2+z
1/2+y,1/2-x,1/2+z
1/2+x,1/2-y,-z
1/2-x,1/2+y,-z
1/2+y,1/2+x,-z
1/2-y,1/2-x,-z
1/2-x,1/2-y,1/2-z
1/2+y,1/2-x,1/2-z
1/2+x,1/2+y,1/2-z
1/2-y,1/2+x,1/2-z
1/2-x,1/2+y,z
1/2+x,1/2-y,z
1/2-y,1/2-x,z
1/2+y,1/2+x,z
loop_
_atom_site_type_symbol
_atom_site_label
_atom_site_fract_x
_atom_site_fract_y
_atom_site_fract_z
Si Si1 0.986740 0.699337 0.306939
Si Si2 0.450168 0.399437 0.438674
Si Si3 0.828157 0.328157 0.791158
Si Si4 0.586891 0.256801 0.112723
Si Si5 0.286309 0.786309 0.180960
Si Si6 0.942332 0.442332 0.337756
Si Si7 0.384420 0.884420 0.059357
O O1 0.903749 0.690551 0.315146
O O2 0.000000 0.733405 0.250000
O O3 0.015648 0.748067 0.353424
O O4 0.030485 0.626749 0.308643
O O5 0.531376 0.407183 0.421330
O O6 0.446129 0.389889 0.500000
O O7 0.414125 0.332870 0.412632
O O8 0.771254 0.271254 0.807249
O O9 0.825718 0.325718 0.728533
O O10 0.653637 0.253502 0.149840
O O11 0.596546 0.197431 0.068354
O O12 0.929231 0.429231 0.399156
O O13 0.000000 0.500000 0.331540
O O14 0.404408 0.904408 0.000000
#
# Coordination Sequence:
#
# PCOD8320205 Si02
#       7
#    32  32  16  32  16  16  16
#     4  11  20  33  52  77 105 138 176 218 257 303
#     4   9  19  36  58  81 102 128 170 225 275 315
#     4  11  21  35  52  72 113 146 174 214 264 307
#     4  10  20  34  54  80 103 134 182 212 258 321
#     4  10  22  36  49  77 112 143 176 210 258 320
#     4  10  20  30  49  78 100 130 176 218 251 302
#     4   9  19  34  51  72 103 138 167 208 263 316
#
# _framework density 17.216398999999999
#
# number of rings (size 3 to 8) (size 9 to 14) (size 15 to 20)
#    0.000    2.000    3.000    2.400    2.800    0.200 
#    0.000    0.000    0.000    0.000    0.000    1.400 
#    0.000    0.000    0.000    0.000    0.000    0.000 
#
# Total GULP energy -991782.602880 kJ/mol
# GULP energy per Si atom -12397.282536 kJ/mol
# Density = 1.717721 g / cm^3
# Si number density = 17.216399 Si / 1000 Ang^3
#
#
#
# Elastic Constant Matrix: (Units=GPa)
#
#
# Indices 1 2 3 4 5 6 
#
# 1 78.2857 18.9977 15.5557 0.0000 0.0000 0.0000
# 2 18.9977 78.2857 15.5557 0.0000 0.0000 0.0000
# 3 15.5557 15.5557 67.9007 0.0000 0.0000 0.0000
# 4 0.0000 0.0000 0.0000 26.2502 0.0000 0.0000
# 5 0.0000 0.0000 0.0000 0.0000 26.2502 0.0000
# 6 0.0000 0.0000 0.0000 0.0000 0.0000 24.9164
#
#
#
# Elastic Compliance Matrix: (Units=1/GPa)
#
#
# Indices 1 2 3 4 5 6 
#
# 1 0.013979 -0.002887 -0.002541 0.000000 0.000000 0.000000
# 2 -0.002887 0.013979 -0.002541 0.000000 0.000000 0.000000
# 3 -0.002541 -0.002541 0.015892 0.000000 0.000000 0.000000
# 4 0.000000 0.000000 0.000000 0.038095 0.000000 0.000000
# 5 0.000000 0.000000 0.000000 0.000000 0.038095 0.000000
# 6 0.000000 0.000000 0.000000 0.000000 0.000000 0.040134
#
#
# Mechanical properties :
#
#
# Convention : Reuss Voigt Hill
#
# Bulk Modulus (GPa) = 35.82805 36.07670 35.95238
# Shear Modulus (GPa) = 26.96617 27.10755 27.03686
#
# Velocity S-wave (km/s) = 3.96195 3.97233 3.96714
# Velocity P-wave (km/s) = 6.46413 6.48379 6.47397
#
# Compressibility (1/GPa) = 0.02791109
#
# Stress axis : x y z
#
# Youngs Moduli (GPa) = 71.53399 71.53399 62.92590
#
# Poissons Ratio (x) = 0.20655 0.15990
# Poissons Ratio (y) = 0.20655 0.15990
# Poissons Ratio (z) = 0.18178 0.18178
#
# Static dielectric constant tensor:
#      x y z
#    x 3.196760 0.000000 0.000000 
#    y 0.000000 3.196760 0.000000 
#    z 0.000000 0.000000 3.135070 
# 
# 
# High freq. dielectric constant tensor:
#      x y z
#    x 1.664080 0.000000 0.000000 
#    y 0.000000 1.664080 0.000000 
#    z 0.000000 0.000000 1.658820 
# 
# From -- ./inp_files/10648.got.cif
#   From: 2010.06.25/outbox.cif.g09.slc.cpg/sg140_6_cif.got.tgz:10648.got - 2010.06.28 10:53:23.
