data_PCOD8320669
_publ_section_title
;
Structure prediction by ZEFSAII (Michael W. Deem and Ramdas Pophale) SiO2 
 PCOD8320669
Probable space group: I 41/A M D
;
_chemical_formula_sum "Si O2"
_cell_formula_units_Z 128
_cell_length_a 18.567148
_cell_length_b 18.567148
_cell_length_c 20.680748
_cell_angle_alpha 90.000000
_cell_angle_beta 90.000000
_cell_angle_gamma 90.000000
_cell_volume 7129.460072
_symmetry_space_group_name_H-M "I 41/A M D"
_symmetry_group_IT_number 141
_space_group.IT_coordinate_system_code '2'
_symmetry_cell_setting 'tetragonal'
loop_
_space_group_symop_operation_xyz
x,y,z
1/4-y,3/4+x,1/4+z
-x,1/2-y,z
1/4+y,1/4-x,3/4+z
x,-y,-z
-x,1/2+y,-z
1/4+y,3/4+x,1/4-z
1/4-y,1/4-x,3/4-z
-x,-y,-z
3/4+y,1/4-x,3/4-z
x,1/2+y,-z
3/4-y,3/4+x,1/4-z
-x,y,z
x,1/2-y,z
3/4-y,1/4-x,3/4+z
3/4+y,3/4+x,1/4+z
1/2+x,1/2+y,1/2+z
3/4-y,1/4+x,3/4+z
1/2-x,-y,1/2+z
3/4+y,3/4-x,1/4+z
1/2+x,1/2-y,1/2-z
1/2-x,y,1/2-z
3/4+y,1/4+x,3/4-z
3/4-y,3/4-x,1/4-z
1/2-x,1/2-y,1/2-z
1/4+y,3/4-x,1/4-z
1/2+x,y,1/2-z
1/4-y,1/4+x,3/4-z
1/2-x,1/2+y,1/2+z
1/2+x,-y,1/2+z
1/4-y,3/4-x,1/4+z
1/4+y,1/4+x,3/4+z
loop_
_atom_site_type_symbol
_atom_site_label
_atom_site_fract_x
_atom_site_fract_y
_atom_site_fract_z
Si Si1 0.583579 0.166662 0.437975
Si Si2 0.415017 0.414409 0.682315
Si Si3 0.585560 0.421930 0.314791
Si Si4 0.085849 0.830448 0.696127
O O1 0.500000 0.151179 0.452280
O O2 0.596342 0.250000 0.420699
O O3 0.628160 0.142612 0.500396
O O4 0.612932 0.119898 0.378225
O O5 0.500000 0.409157 0.670932
O O6 0.376976 0.373024 0.625000
O O7 0.387217 0.496316 0.683111
O O8 0.500000 0.418681 0.311854
O O9 0.617586 0.383461 0.250819
O O10 0.109155 0.859155 0.625000
O O11 0.116212 0.750000 0.708749
O O12 0.000000 0.827896 0.698752
#
# Coordination Sequence:
#
# PCOD8320669 Si02
#       4
#    32  32  32  32
#     4   9  17  30  50  74  97 121 151 190 234 278
#     4  10  20  32  47  67  92 124 159 196 236 275
#     4   9  17  29  47  71  96 122 154 192 232 275
#     4   8  13  23  44  74 101 121 145 183 229 274
#
# _framework density 17.953673999999999
#
# number of rings (size 3 to 8) (size 9 to 14) (size 15 to 20)
#    0.000    3.000    0.000    2.250    0.000    5.250 
#    0.000    3.750    0.000    6.000    0.000    8.750 
#    0.000    0.000    0.000    0.000    0.000    0.000 
#
# Total GULP energy -793483.099147 kJ/mol
# GULP energy per Si atom -12398.173424 kJ/mol
# Density = 1.791281 g / cm^3
# Si number density = 17.953674 Si / 1000 Ang^3
#
#
#
# Elastic Constant Matrix: (Units=GPa)
#
#
# Indices 1 2 3 4 5 6 
#
# 1 63.1800 34.0382 71.4112 0.0000 0.0000 0.0000
# 2 34.0382 63.1800 71.4112 0.0000 0.0000 0.0000
# 3 71.4112 71.4112 194.9149 0.0000 0.0000 0.0000
# 4 0.0000 0.0000 0.0000 -13.9329 0.0000 0.0000
# 5 0.0000 0.0000 0.0000 0.0000 -13.9329 0.0000
# 6 0.0000 0.0000 0.0000 0.0000 0.0000 9.3475
#
#
#
# Elastic Compliance Matrix: (Units=1/GPa)
#
#
# Indices 1 2 3 4 5 6 
#
# 1 0.028295 -0.006020 -0.008161 0.000000 0.000000 0.000000
# 2 -0.006020 0.028295 -0.008161 0.000000 0.000000 0.000000
# 3 -0.008161 -0.008161 0.011110 0.000000 0.000000 0.000000
# 4 0.000000 0.000000 0.000000 -0.071773 0.000000 0.000000
# 5 0.000000 0.000000 0.000000 0.000000 -0.071773 0.000000
# 6 0.000000 0.000000 0.000000 0.000000 0.000000 0.106980
#
#
# Mechanical properties :
#
#
# Convention : Reuss Voigt Hill
#
# Bulk Modulus (GPa) = 43.44601 74.99957 59.22279
# Shear Modulus (GPa) = 59.88619 5.92399 32.90509
#
# Velocity S-wave (km/s) = 5.78173 1.81845 4.28574
# Velocity P-wave (km/s) = 8.29594 6.80247 7.58605
#
# Compressibility (1/GPa) = 0.02301707
#
# Stress axis : x y z
#
# Youngs Moduli (GPa) = 35.34162 35.34162 90.00549
#
# Poissons Ratio (x) = 0.21275 0.73455
# Poissons Ratio (y) = 0.21275 0.73455
# Poissons Ratio (z) = 0.28843 0.28843
#
# Static dielectric constant tensor:
#      x y z
#    x 3.137790 0.000000 0.000000 
#    y 0.000000 3.137790 0.000000 
#    z 0.000000 0.000000 3.628650 
# 
# 
# High freq. dielectric constant tensor:
#      x y z
#    x 1.662690 0.000000 0.000000 
#    y 0.000000 1.662690 0.000000 
#    z 0.000000 0.000000 1.713760 
# 
# From -- ./inp_files/8271.got.cif
#   From: 2010.03.12/outbox.cif.g09.slc.cpg/sg141_5_cif.got.tgz:8271.got - 2010.04.03 13:18:35.
