data_PCOD8320535
_publ_section_title
;
Structure prediction by ZEFSAII (Michael W. Deem and Ramdas Pophale) SiO2 
 PCOD8320535
Probable space group: I 41/A M D
;
_chemical_formula_sum "Si O2"
_cell_formula_units_Z 80
_cell_length_a 19.568755
_cell_length_b 19.568755
_cell_length_c 12.617673
_cell_angle_alpha 90.000000
_cell_angle_beta 90.000000
_cell_angle_gamma 90.000000
_cell_volume 4831.763401
_symmetry_space_group_name_H-M "I 41/A M D"
_symmetry_group_IT_number 141
_space_group.IT_coordinate_system_code '2'
_symmetry_cell_setting 'tetragonal'
loop_
_space_group_symop_operation_xyz
x,y,z
1/4-y,3/4+x,1/4+z
-x,1/2-y,z
1/4+y,1/4-x,3/4+z
x,-y,-z
-x,1/2+y,-z
1/4+y,3/4+x,1/4-z
1/4-y,1/4-x,3/4-z
-x,-y,-z
3/4+y,1/4-x,3/4-z
x,1/2+y,-z
3/4-y,3/4+x,1/4-z
-x,y,z
x,1/2-y,z
3/4-y,1/4-x,3/4+z
3/4+y,3/4+x,1/4+z
1/2+x,1/2+y,1/2+z
3/4-y,1/4+x,3/4+z
1/2-x,-y,1/2+z
3/4+y,3/4-x,1/4+z
1/2+x,1/2-y,1/2-z
1/2-x,y,1/2-z
3/4+y,1/4+x,3/4-z
3/4-y,3/4-x,1/4-z
1/2-x,1/2-y,1/2-z
1/4+y,3/4-x,1/4-z
1/2+x,y,1/2-z
1/4-y,1/4+x,3/4-z
1/2-x,1/2+y,1/2+z
1/2+x,-y,1/2+z
1/4-y,3/4-x,1/4+z
1/4+y,1/4+x,3/4+z
loop_
_atom_site_type_symbol
_atom_site_label
_atom_site_fract_x
_atom_site_fract_y
_atom_site_fract_z
Si Si1 0.169130 0.050268 0.265341
Si Si2 0.353598 0.077691 0.461213
Si Si3 0.422045 0.172045 0.625000
O O1 0.156976 0.093025 0.375000
O O2 0.250000 0.047145 0.250000
O O3 0.131019 0.084267 0.165122
O O4 0.143186 0.972368 0.269933
O O5 0.405994 0.124941 0.523952
O O6 0.361192 0.000000 0.500000
O O7 0.500000 0.159384 0.658861
#
# Coordination Sequence:
#
# PCOD8320535 Si02
#       3
#    32  32  16
#     4   8  14  24  48  79 104 121 150 203 253 290
#     4  10  15  30  51  74  98 128 166 202 247 299
#     4  11  24  36  46  68 104 138 166 208 258 293
#
# _framework density 16.557102
#
# number of rings (size 3 to 8) (size 9 to 14) (size 15 to 20)
#    0.000    2.600    4.000    2.400    0.000    0.800 
#    0.000    0.000    0.000   13.200    0.000    2.800 
#    0.000    0.000    0.000    0.000    0.000    0.000 
#
# Total GULP energy -495614.115140 kJ/mol
# GULP energy per Si atom -12390.352878 kJ/mol
# Density = 1.651942 g / cm^3
# Si number density = 16.557102 Si / 1000 Ang^3
#
#
#
# Elastic Constant Matrix: (Units=GPa)
#
#
# Indices 1 2 3 4 5 6 
#
# 1 57.7602 33.1110 39.6495 0.0000 0.0000 0.0000
# 2 33.1110 57.7598 39.6494 0.0000 0.0000 0.0000
# 3 39.6495 39.6494 170.0000 0.0000 0.0000 0.0000
# 4 0.0000 0.0000 0.0000 15.9524 0.0000 0.0000
# 5 0.0000 0.0000 0.0000 0.0000 15.9525 0.0000
# 6 0.0000 0.0000 0.0000 0.0000 0.0000 18.4910
#
#
#
# Elastic Compliance Matrix: (Units=1/GPa)
#
#
# Indices 1 2 3 4 5 6 
#
# 1 0.027193 -0.013376 -0.003222 0.000000 0.000000 0.000000
# 2 -0.013376 0.027193 -0.003223 0.000000 0.000000 0.000000
# 3 -0.003222 -0.003223 0.007386 0.000000 0.000000 0.000000
# 4 0.000000 0.000000 0.000000 0.062687 0.000000 0.000000
# 5 0.000000 0.000000 0.000000 0.000000 0.062686 0.000000
# 6 0.000000 0.000000 0.000000 0.000000 0.000000 0.054080
#
#
# Mechanical properties :
#
#
# Convention : Reuss Voigt Hill
#
# Bulk Modulus (GPa) = 45.18955 56.70440 50.94698
# Shear Modulus (GPa) = 17.34639 21.61984 19.48311
#
# Velocity S-wave (km/s) = 3.24029 3.61747 3.43406
# Velocity P-wave (km/s) = 6.43053 7.19515 6.82356
#
# Compressibility (1/GPa) = 0.02212901
#
# Stress axis : x y z
#
# Youngs Moduli (GPa) = 36.77409 36.77381 135.39980
#
# Poissons Ratio (x) = 0.49190 0.43632
# Poissons Ratio (y) = 0.49191 0.43633
# Poissons Ratio (z) = 0.11850 0.11850
#
# Static dielectric constant tensor:
#      x y z
#    x 2.723510 0.000000 0.000000 
#    y 0.000000 2.723500 0.000000 
#    z 0.000000 0.000000 3.889980 
# 
# 
# High freq. dielectric constant tensor:
#      x y z
#    x 1.592280 0.000000 0.000000 
#    y 0.000000 1.592280 0.000000 
#    z 0.000000 0.000000 1.661490 
# 
# From -- ./inp_files/4083.got.cif
#   From: 2010.03.12/outbox.cif.g09.slc.cpg/sg141_3_cif.got.tgz:4083.got - 2010.04.03 13:18:35.
