data_PCOD8320604
_publ_section_title
;
Structure prediction by ZEFSAII (Michael W. Deem and Ramdas Pophale) SiO2 
 PCOD8320604
Probable space group: I 41/A M D
;
_chemical_formula_sum "Si O2"
_cell_formula_units_Z 224
_cell_length_a 24.110116
_cell_length_b 24.110116
_cell_length_c 20.523595
_cell_angle_alpha 90.000000
_cell_angle_beta 90.000000
_cell_angle_gamma 90.000000
_cell_volume 11930.318437
_symmetry_space_group_name_H-M "I 41/A M D"
_symmetry_group_IT_number 141
_space_group.IT_coordinate_system_code '2'
_symmetry_cell_setting 'tetragonal'
loop_
_space_group_symop_operation_xyz
x,y,z
1/4-y,3/4+x,1/4+z
-x,1/2-y,z
1/4+y,1/4-x,3/4+z
x,-y,-z
-x,1/2+y,-z
1/4+y,3/4+x,1/4-z
1/4-y,1/4-x,3/4-z
-x,-y,-z
3/4+y,1/4-x,3/4-z
x,1/2+y,-z
3/4-y,3/4+x,1/4-z
-x,y,z
x,1/2-y,z
3/4-y,1/4-x,3/4+z
3/4+y,3/4+x,1/4+z
1/2+x,1/2+y,1/2+z
3/4-y,1/4+x,3/4+z
1/2-x,-y,1/2+z
3/4+y,3/4-x,1/4+z
1/2+x,1/2-y,1/2-z
1/2-x,y,1/2-z
3/4+y,1/4+x,3/4-z
3/4-y,3/4-x,1/4-z
1/2-x,1/2-y,1/2-z
1/4+y,3/4-x,1/4-z
1/2+x,y,1/2-z
1/4-y,1/4+x,3/4-z
1/2-x,1/2+y,1/2+z
1/2+x,-y,1/2+z
1/4-y,3/4-x,1/4+z
1/4+y,1/4+x,3/4+z
loop_
_atom_site_type_symbol
_atom_site_label
_atom_site_fract_x
_atom_site_fract_y
_atom_site_fract_z
Si Si1 0.560486 0.936599 0.985776
Si Si2 0.726006 0.630239 0.513271
Si Si3 0.191158 0.123407 0.782122
Si Si4 0.436091 0.905449 0.130666
Si Si5 0.359761 0.813288 0.172644
Si Si6 0.437302 0.994744 0.360299
Si Si7 0.301624 0.569940 0.801629
O O1 0.500000 0.914819 0.956945
O O2 0.573749 0.907250 0.053900
O O3 0.615087 0.929147 0.940119
O O4 0.550941 0.000000 0.000000
O O5 0.684780 0.589941 0.473886
O O6 0.702921 0.649844 0.583218
O O7 0.735843 0.683274 0.467118
O O8 0.784931 0.600778 0.520255
O O9 0.250000 0.113915 0.750000
O O10 0.156524 0.171554 0.746306
O O11 0.201169 0.145335 0.855320
O O12 0.500000 0.913041 0.149962
O O13 0.414969 0.845718 0.152699
O O14 0.376441 0.750000 0.167624
O O15 0.308027 0.829374 0.126478
O O16 0.500000 0.983496 0.384040
O O17 0.250000 0.566172 0.750000
O O18 0.293408 0.543408 0.875000
#
# Coordination Sequence:
#
# PCOD8320604 Si02
#       7
#    32  32  32  32  32  32  32
#     4   9  18  35  57  78 104 140 178 214 259 318
#     4  11  20  31  49  75 106 136 171 215 273 330
#     4   9  18  31  47  68  97 137 176 215 264 326
#     4  10  20  34  52  75 103 133 173 225 273 321
#     4   9  18  32  49  69  95 132 177 222 268 319
#     4  10  19  31  48  70  99 134 175 219 264 321
#     4  11  23  37  56  84 117 149 181 223 273 332
#
# _framework density 18.775694000000001
#
# number of rings (size 3 to 8) (size 9 to 14) (size 15 to 20)
#    0.000    2.143    0.000    4.286    0.000    5.429 
#    0.000    0.714    0.000    0.857    0.000    0.000 
#    0.000   10.286    0.000    0.000    0.000    0.000 
#
# Total GULP energy -1387693.331265 kJ/mol
# GULP energy per Si atom -12390.119029 kJ/mol
# Density = 1.873296 g / cm^3
# Si number density = 18.775694 Si / 1000 Ang^3
#
#
#
# Elastic Constant Matrix: (Units=GPa)
#
#
# Indices 1 2 3 4 5 6 
#
# 1 196.6378 -76.7362 18.6066 0.0000 0.0000 0.0000
# 2 -76.7362 196.6378 18.6066 0.0000 0.0000 0.0000
# 3 18.6066 18.6066 73.4936 0.0000 0.0000 0.0000
# 4 0.0000 0.0000 0.0000 15.5674 0.0000 0.0000
# 5 0.0000 0.0000 0.0000 0.0000 15.5674 0.0000
# 6 0.0000 0.0000 0.0000 0.0000 0.0000 17.9670
#
#
#
# Elastic Compliance Matrix: (Units=1/GPa)
#
#
# Indices 1 2 3 4 5 6 
#
# 1 0.006355 0.002697 -0.002292 0.000000 0.000000 0.000000
# 2 0.002697 0.006355 -0.002292 0.000000 0.000000 0.000000
# 3 -0.002292 -0.002292 0.014767 0.000000 0.000000 0.000000
# 4 0.000000 0.000000 0.000000 0.064237 0.000000 0.000000
# 5 0.000000 0.000000 0.000000 0.000000 0.064237 0.000000
# 6 0.000000 0.000000 0.000000 0.000000 0.000000 0.055658
#
#
# Mechanical properties :
#
#
# Convention : Reuss Voigt Hill
#
# Bulk Modulus (GPa) = 42.18791 43.08034 42.63413
# Shear Modulus (GPa) = 22.39324 43.57317 32.98321
#
# Velocity S-wave (km/s) = 3.45725 4.82261 4.19584
# Velocity P-wave (km/s) = 6.20121 7.34879 6.79925
#
# Compressibility (1/GPa) = 0.02370347
#
# Stress axis : x y z
#
# Youngs Moduli (GPa) = 157.36409 157.36409 67.71885
#
# Poissons Ratio (x) = -0.42436 0.15518
# Poissons Ratio (y) = -0.42436 0.15518
# Poissons Ratio (z) = 0.36061 0.36061
#
# Static dielectric constant tensor:
#      x y z
#    x 11.190250 0.000000 0.000000 
#    y 0.000000 11.190250 0.000000 
#    z 0.000000 0.000000 2.902980 
# 
# 
# High freq. dielectric constant tensor:
#      x y z
#    x 1.721850 0.000000 0.000000 
#    y 0.000000 1.721850 0.000000 
#    z 0.000000 0.000000 1.721780 
# 
# From -- ./inp_files/11895.got.cif
#   From: 2010.03.12/outbox.cif.g09.slc.cpg/sg141_6_cif.got.tgz:11895.got - 2010.04.03 13:18:35.
