data_PCOD8320119
_publ_section_title
;
Structure prediction by ZEFSAII (Michael W. Deem and Ramdas Pophale) SiO2 
 PCOD8320119
Probable space group: I 4/M C M
;
_chemical_formula_sum "Si O2"
_cell_formula_units_Z 240
_cell_length_a 23.914599
_cell_length_b 23.914599
_cell_length_c 25.012716
_cell_angle_alpha 90.000000
_cell_angle_beta 90.000000
_cell_angle_gamma 90.000000
_cell_volume 14304.973516
_symmetry_space_group_name_H-M "I 4/M C M"
_symmetry_group_IT_number 140
_symmetry_cell_setting 'tetragonal'
loop_
_space_group_symop_operation_xyz
x,y,z
-y,x,z
-x,-y,z
y,-x,z
x,-y,1/2-z
-x,y,1/2-z
y,x,1/2-z
-y,-x,1/2-z
-x,-y,-z
y,-x,-z
x,y,-z
-y,x,-z
-x,y,1/2+z
x,-y,1/2+z
-y,-x,1/2+z
y,x,1/2+z
1/2+x,1/2+y,1/2+z
1/2-y,1/2+x,1/2+z
1/2-x,1/2-y,1/2+z
1/2+y,1/2-x,1/2+z
1/2+x,1/2-y,-z
1/2-x,1/2+y,-z
1/2+y,1/2+x,-z
1/2-y,1/2-x,-z
1/2-x,1/2-y,1/2-z
1/2+y,1/2-x,1/2-z
1/2+x,1/2+y,1/2-z
1/2-y,1/2+x,1/2-z
1/2-x,1/2+y,z
1/2+x,1/2-y,z
1/2-y,1/2-x,z
1/2+y,1/2+x,z
loop_
_atom_site_type_symbol
_atom_site_label
_atom_site_fract_x
_atom_site_fract_y
_atom_site_fract_z
Si Si1 0.836896 0.838037 0.188905
Si Si2 0.621924 0.626809 0.416536
Si Si3 0.123255 0.715887 0.658866
Si Si4 0.876213 0.284556 0.153089
Si Si5 0.069246 0.760736 0.560031
Si Si6 0.440448 0.731305 0.440639
Si Si7 0.065056 0.344128 0.251497
Si Si8 0.073136 0.051462 0.500000
O O1 0.852778 0.852778 0.250000
O O2 0.875177 0.875655 0.148510
O O3 0.848601 0.773715 0.176570
O O4 0.772147 0.851395 0.178105
O O5 0.616322 0.691024 0.434908
O O6 0.675101 0.596034 0.441208
O O7 0.567654 0.600081 0.443366
O O8 0.172700 0.672700 0.652091
O O9 0.088060 0.715583 0.603795
O O10 0.079626 0.698140 0.704019
O O11 0.824145 0.324145 0.138672
O O12 0.912910 0.274664 0.100258
O O13 0.918048 0.314084 0.193826
O O14 0.071971 0.735719 0.500000
O O15 0.005717 0.781045 0.573386
O O16 0.436932 0.757526 0.500000
O O17 0.097660 0.402340 0.244692
O O18 0.000000 0.358134 0.250000
O O19 0.013458 0.078169 0.500000
#
# Coordination Sequence:
#
# PCOD8320119 Si02
#       8
#    32  32  32  32  32  32  32  16
#     4  10  19  33  52  75 102 135 166 195 243 304
#     4  10  19  31  49  73 102 127 167 210 249 288
#     4  10  20  32  50  74 100 130 164 203 241 294
#     4  10  20  32  50  74 100 130 164 203 241 294
#     4  10  19  32  50  70  99 134 163 202 251 298
#     4  10  19  32  50  70  99 134 163 202 251 298
#     4  10  20  34  51  71  97 125 162 208 247 290
#     4  11  20  32  54  76  97 132 178 222 261 300
#
# _framework density 16.777380999999998
#
# number of rings (size 3 to 8) (size 9 to 14) (size 15 to 20)
#    0.000    1.933    2.667    2.000    0.000    1.200 
#    0.000    0.000    0.000    4.800    0.000    0.933 
#    0.000    0.000    0.000   24.800    0.000    0.000 
#
# Total GULP energy -1487027.429021 kJ/mol
# GULP energy per Si atom -12391.895242 kJ/mol
# Density = 1.673920 g / cm^3
# Si number density = 16.777381 Si / 1000 Ang^3
#
#
#
# Elastic Constant Matrix: (Units=GPa)
#
#
# Indices 1 2 3 4 5 6 
#
# 1 65.5349 11.2936 30.4028 0.0000 0.0000 0.0000
# 2 11.2936 65.5349 30.4028 0.0000 0.0000 0.0000
# 3 30.4028 30.4028 128.7092 0.0000 0.0000 0.0000
# 4 0.0000 0.0000 0.0000 24.8190 0.0000 0.0000
# 5 0.0000 0.0000 0.0000 0.0000 24.8190 0.0000
# 6 0.0000 0.0000 0.0000 0.0000 0.0000 19.4517
#
#
#
# Elastic Compliance Matrix: (Units=1/GPa)
#
#
# Indices 1 2 3 4 5 6 
#
# 1 0.017223 -0.001214 -0.003782 0.000000 0.000000 0.000000
# 2 -0.001214 0.017223 -0.003782 0.000000 0.000000 0.000000
# 3 -0.003782 -0.003782 0.009556 0.000000 0.000000 0.000000
# 4 0.000000 0.000000 0.000000 0.040292 0.000000 0.000000
# 5 0.000000 0.000000 0.000000 0.000000 0.040292 0.000000
# 6 0.000000 0.000000 0.000000 0.000000 0.000000 0.051409
#
#
# Mechanical properties :
#
#
# Convention : Reuss Voigt Hill
#
# Bulk Modulus (GPa) = 37.81055 44.88639 41.34847
# Shear Modulus (GPa) = 24.70810 26.32993 25.51902
#
# Velocity S-wave (km/s) = 3.84174 3.96583 3.90428
# Velocity P-wave (km/s) = 6.50109 6.91249 6.70995
#
# Compressibility (1/GPa) = 0.02644764
#
# Stress axis : x y z
#
# Youngs Moduli (GPa) = 58.06353 58.06352 104.64697
#
# Poissons Ratio (x) = 0.07047 0.39572
# Poissons Ratio (y) = 0.07047 0.39572
# Poissons Ratio (z) = 0.21957 0.21957
#
# Static dielectric constant tensor:
#      x y z
#    x 3.090670 0.000000 0.000000 
#    y 0.000000 3.090670 0.000000 
#    z 0.000000 0.000000 3.549420 
# 
# 
# High freq. dielectric constant tensor:
#      x y z
#    x 1.636190 0.000000 0.000000 
#    y 0.000000 1.636190 0.000000 
#    z 0.000000 0.000000 1.661070 
# 
# From -- ./inp_files/10974.got.cif
#   From: 2010.06.25/outbox.cif.g09.slc.cpg/sg140_6_cif.got.tgz:10974.got - 2010.06.28 10:53:23.
