data_PCOD8320161
_publ_section_title
;
Structure prediction by ZEFSAII (Michael W. Deem and Ramdas Pophale) SiO2 
 PCOD8320161
Probable space group: I 4/M C M
;
_chemical_formula_sum "Si O2"
_cell_formula_units_Z 192
_cell_length_a 19.776730
_cell_length_b 19.776730
_cell_length_c 26.957755
_cell_angle_alpha 90.000000
_cell_angle_beta 90.000000
_cell_angle_gamma 90.000000
_cell_volume 10543.691512
_symmetry_space_group_name_H-M "I 4/M C M"
_symmetry_group_IT_number 140
_symmetry_cell_setting 'tetragonal'
loop_
_space_group_symop_operation_xyz
x,y,z
-y,x,z
-x,-y,z
y,-x,z
x,-y,1/2-z
-x,y,1/2-z
y,x,1/2-z
-y,-x,1/2-z
-x,-y,-z
y,-x,-z
x,y,-z
-y,x,-z
-x,y,1/2+z
x,-y,1/2+z
-y,-x,1/2+z
y,x,1/2+z
1/2+x,1/2+y,1/2+z
1/2-y,1/2+x,1/2+z
1/2-x,1/2-y,1/2+z
1/2+y,1/2-x,1/2+z
1/2+x,1/2-y,-z
1/2-x,1/2+y,-z
1/2+y,1/2+x,-z
1/2-y,1/2-x,-z
1/2-x,1/2-y,1/2-z
1/2+y,1/2-x,1/2-z
1/2+x,1/2+y,1/2-z
1/2-y,1/2+x,1/2-z
1/2-x,1/2+y,z
1/2+x,1/2-y,z
1/2-y,1/2-x,z
1/2+y,1/2+x,z
loop_
_atom_site_type_symbol
_atom_site_label
_atom_site_fract_x
_atom_site_fract_y
_atom_site_fract_z
Si Si1 0.625576 0.231794 0.860591
Si Si2 0.783986 0.825524 0.200915
Si Si3 0.858755 0.529781 0.195019
Si Si4 0.568591 0.310228 0.443582
Si Si5 0.178637 0.918621 0.056192
Si Si6 0.300785 0.088924 0.136841
O O1 0.670237 0.170237 0.880403
O O2 0.672076 0.292663 0.842363
O O3 0.578658 0.205338 0.815279
O O4 0.584207 0.256411 0.908102
O O5 0.831519 0.831519 0.250000
O O6 0.719557 0.780444 0.215635
O O7 0.754226 0.896534 0.180839
O O8 0.854538 0.500000 0.250000
O O9 0.929609 0.570392 0.188178
O O10 0.852436 0.469598 0.154677
O O11 0.584180 0.288451 0.500000
O O12 0.495714 0.346995 0.440130
O O13 0.621481 0.366681 0.425153
O O14 0.570147 0.241215 0.412047
O O15 0.200867 0.901206 0.000000
O O16 0.343773 0.156228 0.124923
#
# Coordination Sequence:
#
# PCOD8320161 Si02
#       6
#    32  32  32  32  32  32
#     4  10  19  33  54  81 111 145 186 233 282 335
#     4   9  17  30  49  76 108 139 176 224 278 331
#     4  11  23  38  56  80 113 154 197 235 277 331
#     4  10  21  37  58  84 111 142 182 228 283 345
#     4  10  20  36  58  83 112 143 180 228 282 343
#     4  11  21  34  55  81 111 147 187 235 286 333
#
# _framework density 18.209942000000002
#
# number of rings (size 3 to 8) (size 9 to 14) (size 15 to 20)
#    0.000    1.833    3.333    1.500    0.000    4.833 
#    0.000    3.333    0.000    0.500    0.000    1.167 
#    0.000    2.667    0.000    0.000    0.000    0.000 
#
# Total GULP energy -1189769.647807 kJ/mol
# GULP energy per Si atom -12393.433831 kJ/mol
# Density = 1.816849 g / cm^3
# Si number density = 18.209942 Si / 1000 Ang^3
#
#
#
# Elastic Constant Matrix: (Units=GPa)
#
#
# Indices 1 2 3 4 5 6 
#
# 1 90.3091 45.1015 47.7082 0.0000 0.0000 0.0000
# 2 45.1015 90.3091 47.7082 0.0000 0.0000 0.0000
# 3 47.7082 47.7082 97.2805 0.0000 0.0000 0.0000
# 4 0.0000 0.0000 0.0000 24.5609 0.0000 0.0000
# 5 0.0000 0.0000 0.0000 0.0000 24.5609 0.0000
# 6 0.0000 0.0000 0.0000 0.0000 0.0000 31.8764
#
#
#
# Elastic Compliance Matrix: (Units=1/GPa)
#
#
# Indices 1 2 3 4 5 6 
#
# 1 0.016702 -0.005418 -0.005534 0.000000 0.000000 0.000000
# 2 -0.005418 0.016702 -0.005534 0.000000 0.000000 0.000000
# 3 -0.005534 -0.005534 0.015708 0.000000 0.000000 0.000000
# 4 0.000000 0.000000 0.000000 0.040715 0.000000 0.000000
# 5 0.000000 0.000000 0.000000 0.000000 0.040715 0.000000
# 6 0.000000 0.000000 0.000000 0.000000 0.000000 0.031371
#
#
# Mechanical properties :
#
#
# Convention : Reuss Voigt Hill
#
# Bulk Modulus (GPa) = 61.95730 62.10382 62.03056
# Shear Modulus (GPa) = 24.96678 25.35837 25.16258
#
# Velocity S-wave (km/s) = 3.70679 3.73575 3.72130
# Velocity P-wave (km/s) = 7.24004 7.26540 7.25273
#
# Compressibility (1/GPa) = 0.01614015
#
# Stress axis : x y z
#
# Youngs Moduli (GPa) = 59.87172 59.87172 63.66318
#
# Poissons Ratio (x) = 0.32437 0.35232
# Poissons Ratio (y) = 0.32437 0.35232
# Poissons Ratio (z) = 0.33134 0.33134
#
# Static dielectric constant tensor:
#      x y z
#    x 3.360920 0.000000 0.000000 
#    y 0.000000 3.360920 0.000000 
#    z 0.000000 0.000000 3.371810 
# 
# 
# High freq. dielectric constant tensor:
#      x y z
#    x 1.697240 0.000000 0.000000 
#    y 0.000000 1.697240 0.000000 
#    z 0.000000 0.000000 1.705270 
# 
# From -- ./inp_files/9799.got.cif
#   From: 2010.06.25/outbox.cif.g09.slc.cpg/sg140_5_cif.got.tgz:9799.got - 2010.06.28 10:53:23.
