data_PCOD8320919
_publ_section_title
;
Structure prediction by ZEFSAII (Michael W. Deem and Ramdas Pophale) SiO2 
 PCOD8320919
Probable space group: I 41/A M D
;
_chemical_formula_sum "Si O2"
_cell_formula_units_Z 100
_cell_length_a 14.688671
_cell_length_b 14.688671
_cell_length_c 20.967585
_cell_angle_alpha 90.000000
_cell_angle_beta 90.000000
_cell_angle_gamma 90.000000
_cell_volume 4523.904406
_symmetry_space_group_name_H-M "I 41/A M D"
_symmetry_group_IT_number 141
_space_group.IT_coordinate_system_code '2'
_symmetry_cell_setting 'tetragonal'
loop_
_space_group_symop_operation_xyz
x,y,z
1/4-y,3/4+x,1/4+z
-x,1/2-y,z
1/4+y,1/4-x,3/4+z
x,-y,-z
-x,1/2+y,-z
1/4+y,3/4+x,1/4-z
1/4-y,1/4-x,3/4-z
-x,-y,-z
3/4+y,1/4-x,3/4-z
x,1/2+y,-z
3/4-y,3/4+x,1/4-z
-x,y,z
x,1/2-y,z
3/4-y,1/4-x,3/4+z
3/4+y,3/4+x,1/4+z
1/2+x,1/2+y,1/2+z
3/4-y,1/4+x,3/4+z
1/2-x,-y,1/2+z
3/4+y,3/4-x,1/4+z
1/2+x,1/2-y,1/2-z
1/2-x,y,1/2-z
3/4+y,1/4+x,3/4-z
3/4-y,3/4-x,1/4-z
1/2-x,1/2-y,1/2-z
1/4+y,3/4-x,1/4-z
1/2+x,y,1/2-z
1/4-y,1/4+x,3/4-z
1/2-x,1/2+y,1/2+z
1/2+x,-y,1/2+z
1/4-y,3/4-x,1/4+z
1/4+y,1/4+x,3/4+z
loop_
_atom_site_type_symbol
_atom_site_label
_atom_site_fract_x
_atom_site_fract_y
_atom_site_fract_z
Si Si1 0.500000 0.250000 0.125000
Si Si2 0.659459 0.611630 0.569417
Si Si3 0.600991 0.750000 0.082841
Si Si4 0.312162 0.750000 0.948824
Si Si5 0.100728 0.081780 0.936758
O O1 0.500000 0.160782 0.168111
O O2 0.591238 0.639835 0.625446
O O3 0.756805 0.661166 0.575683
O O4 0.619958 0.640984 0.499936
O O5 0.671511 0.502303 0.569587
O O6 0.500000 0.750000 0.052930
O O7 0.675210 0.750000 0.025856
O O8 0.104854 0.145147 0.875000
O O9 0.000000 0.038232 0.940398
#
# Coordination Sequence:
#
# PCOD8320919 Si02
#       5
#     4  32  16  16  32
#     4  12  32  60  68 100 140 172 270 324 360 428
#     4  11  23  43  70 102 147 194 237 294 368 434
#     4  12  22  45  73 109 143 183 244 300 371 449
#     4  12  28  50  78 102 138 193 243 321 376 442
#     4  11  23  40  66 109 158 194 240 292 354 454
#
# _framework density 22.104799
#
# number of rings (size 3 to 8) (size 9 to 14) (size 15 to 20)
#    0.000    0.640    5.600    2.880    4.480    0.320 
#    0.000    1.600    0.000    0.000    0.000    0.000 
#    0.000    0.000    0.000    0.000    0.000    0.000 
#
# Total GULP energy -619753.572446 kJ/mol
# GULP energy per Si atom -12395.071449 kJ/mol
# Density = 2.205449 g / cm^3
# Si number density = 22.104799 Si / 1000 Ang^3
#
#
#
# Elastic Constant Matrix: (Units=GPa)
#
#
# Indices 1 2 3 4 5 6 
#
# 1 124.0887 48.3343 39.6326 0.0000 0.0000 0.0000
# 2 48.3343 124.0883 39.6318 0.0000 0.0000 0.0000
# 3 39.6326 39.6318 134.2033 0.0000 0.0000 0.0000
# 4 0.0000 0.0000 0.0000 30.9957 0.0000 0.0000
# 5 0.0000 0.0000 0.0000 0.0000 30.9958 0.0000
# 6 0.0000 0.0000 0.0000 0.0000 0.0000 32.3758
#
#
#
# Elastic Compliance Matrix: (Units=1/GPa)
#
#
# Indices 1 2 3 4 5 6 
#
# 1 0.009956 -0.003245 -0.001982 0.000000 0.000000 0.000000
# 2 -0.003245 0.009956 -0.001982 0.000000 0.000000 0.000000
# 3 -0.001982 -0.001982 0.008622 0.000000 0.000000 0.000000
# 4 0.000000 0.000000 0.000000 0.032263 0.000000 0.000000
# 5 0.000000 0.000000 0.000000 0.000000 0.032262 0.000000
# 6 0.000000 0.000000 0.000000 0.000000 0.000000 0.030887
#
#
# Mechanical properties :
#
#
# Convention : Reuss Voigt Hill
#
# Bulk Modulus (GPa) = 70.84040 70.84197 70.84118
# Shear Modulus (GPa) = 34.94848 35.85892 35.40370
#
# Velocity S-wave (km/s) = 3.98054 4.03205 4.00638
# Velocity P-wave (km/s) = 7.29680 7.33447 7.31566
#
# Compressibility (1/GPa) = 0.01411624
#
# Stress axis : x y z
#
# Youngs Moduli (GPa) = 100.44534 100.44542 115.98396
#
# Poissons Ratio (x) = 0.32594 0.22986
# Poissons Ratio (y) = 0.32594 0.22985
# Poissons Ratio (z) = 0.19906 0.19906
#
# Static dielectric constant tensor:
#      x y z
#    x 3.837770 0.000000 0.000000 
#    y 0.000000 3.837770 0.000000 
#    z 0.000000 0.000000 4.125010 
# 
# 
# High freq. dielectric constant tensor:
#      x y z
#    x 1.861440 0.000000 0.000000 
#    y 0.000000 1.861440 0.000000 
#    z 0.000000 0.000000 1.881090 
# 
# From -- ./inp_files/11095.got.cif
#   From: 2010.03.12/outbox.cif.g09.slc.cpg/sg141_6_cif.got.tgz:11095.got - 2010.04.03 13:18:35.
