data_PCOD8320552
_publ_section_title
;
Structure prediction by ZEFSAII (Michael W. Deem and Ramdas Pophale) SiO2 
 PCOD8320552
Probable space group: I 41/A M D
;
_chemical_formula_sum "Si O2"
_cell_formula_units_Z 104
_cell_length_a 22.304301
_cell_length_b 22.304301
_cell_length_c 13.234803
_cell_angle_alpha 90.000000
_cell_angle_beta 90.000000
_cell_angle_gamma 90.000000
_cell_volume 6584.074189
_symmetry_space_group_name_H-M "I 41/A M D"
_symmetry_group_IT_number 141
_space_group.IT_coordinate_system_code '2'
_symmetry_cell_setting 'tetragonal'
loop_
_space_group_symop_operation_xyz
x,y,z
1/4-y,3/4+x,1/4+z
-x,1/2-y,z
1/4+y,1/4-x,3/4+z
x,-y,-z
-x,1/2+y,-z
1/4+y,3/4+x,1/4-z
1/4-y,1/4-x,3/4-z
-x,-y,-z
3/4+y,1/4-x,3/4-z
x,1/2+y,-z
3/4-y,3/4+x,1/4-z
-x,y,z
x,1/2-y,z
3/4-y,1/4-x,3/4+z
3/4+y,3/4+x,1/4+z
1/2+x,1/2+y,1/2+z
3/4-y,1/4+x,3/4+z
1/2-x,-y,1/2+z
3/4+y,3/4-x,1/4+z
1/2+x,1/2-y,1/2-z
1/2-x,y,1/2-z
3/4+y,1/4+x,3/4-z
3/4-y,3/4-x,1/4-z
1/2-x,1/2-y,1/2-z
1/4+y,3/4-x,1/4-z
1/2+x,y,1/2-z
1/4-y,1/4+x,3/4-z
1/2-x,1/2+y,1/2+z
1/2+x,-y,1/2+z
1/4-y,3/4-x,1/4+z
1/4+y,1/4+x,3/4+z
loop_
_atom_site_type_symbol
_atom_site_label
_atom_site_fract_x
_atom_site_fract_y
_atom_site_fract_z
Si Si1 0.500000 0.250000 0.991074
Si Si2 0.500000 0.118186 0.181736
Si Si3 0.500000 0.381368 0.943937
Si Si4 0.613143 0.954746 0.090066
Si Si5 0.377074 0.436082 0.217243
O O1 0.500000 0.309922 0.922467
O O2 0.439974 0.250000 0.059366
O O3 0.556160 0.087687 0.237845
O O4 0.500000 0.103606 0.063067
O O5 0.441895 0.409897 0.891508
O O6 0.625082 0.993050 0.191828
O O7 0.672567 0.915722 0.063405
O O8 0.595966 0.000000 0.000000
O O9 0.353113 0.396888 0.125000
#
# Coordination Sequence:
#
# PCOD8320552 Si02
#       5
#     8  16  16  32  32
#     4  12  21  22  36  52  78 104 136 168 177 215
#     4  12  16  26  33  51  72 103 134 160 188 211
#     4  12  17  26  34  50  74 102 134 160 189 214
#     4  10  18  27  36  50  70 102 136 167 195 220
#     4  10  18  26  38  50  71 101 135 168 192 223
#
# _framework density 15.795691
#
# number of rings (size 3 to 8) (size 9 to 14) (size 15 to 20)
#    0.000    1.231    9.231    2.769    0.000    0.000 
#    0.000    0.000    0.000    0.000    0.000    0.000 
#    0.000    0.000    0.000  213.231    0.000    0.000 
#
# Total GULP energy -644623.140628 kJ/mol
# GULP energy per Si atom -12396.598858 kJ/mol
# Density = 1.575974 g / cm^3
# Si number density = 15.795691 Si / 1000 Ang^3
#
#
#
# Elastic Constant Matrix: (Units=GPa)
#
#
# Indices 1 2 3 4 5 6 
#
# 1 129.3958 61.5415 31.1713 0.0000 0.0000 0.0000
# 2 61.5415 129.3959 31.1712 0.0000 0.0000 0.0000
# 3 31.1713 31.1712 17.7266 0.0000 0.0000 0.0000
# 4 0.0000 0.0000 0.0000 11.3819 0.0000 0.0000
# 5 0.0000 0.0000 0.0000 0.0000 11.3815 0.0000
# 6 0.0000 0.0000 0.0000 0.0000 0.0000 24.9297
#
#
#
# Elastic Compliance Matrix: (Units=1/GPa)
#
#
# Indices 1 2 3 4 5 6 
#
# 1 0.013518 -0.001220 -0.021626 0.000000 0.000000 0.000000
# 2 -0.001220 0.013518 -0.021626 0.000000 0.000000 0.000000
# 3 -0.021626 -0.021626 0.132468 0.000000 0.000000 0.000000
# 4 0.000000 0.000000 0.000000 0.087859 0.000000 0.000000
# 5 0.000000 0.000000 0.000000 0.000000 0.087862 0.000000
# 6 0.000000 0.000000 0.000000 0.000000 0.000000 0.040113
#
#
# Mechanical properties :
#
#
# Convention : Reuss Voigt Hill
#
# Bulk Modulus (GPa) = 14.17213 58.25403 36.21308
# Shear Modulus (GPa) = 10.25010 19.71425 14.98218
#
# Velocity S-wave (km/s) = 2.55015 3.53665 3.08311
# Velocity P-wave (km/s) = 4.20270 7.32372 5.97074
#
# Compressibility (1/GPa) = 0.07056102
#
# Stress axis : x y z
#
# Youngs Moduli (GPa) = 73.97574 73.97638 7.54900
#
# Poissons Ratio (x) = 0.09022 0.16326
# Poissons Ratio (y) = 0.09022 0.16325
# Poissons Ratio (z) = 1.59980 1.59979
#
# Static dielectric constant tensor:
#      x y z
#    x 3.311000 0.000000 0.000000 
#    y 0.000000 3.311010 0.000000 
#    z 0.000000 0.000000 2.364330 
# 
# 
# High freq. dielectric constant tensor:
#      x y z
#    x 1.619760 0.000000 0.000000 
#    y 0.000000 1.619760 0.000000 
#    z 0.000000 0.000000 1.498000 
# 
# From -- ./inp_files/6099.got.cif
#   From: 2010.03.12/outbox.cif.g09.slc.cpg/sg141_4_cif.got.tgz:6099.got - 2010.04.03 13:18:35.
