data_PCOD8320746
_publ_section_title
;
Structure prediction by ZEFSAII (Michael W. Deem and Ramdas Pophale) SiO2 
 PCOD8320746
Probable space group: I 41/A M D
;
_chemical_formula_sum "Si O2"
_cell_formula_units_Z 176
_cell_length_a 17.961053
_cell_length_b 17.961053
_cell_length_c 26.792478
_cell_angle_alpha 90.000000
_cell_angle_beta 90.000000
_cell_angle_gamma 90.000000
_cell_volume 8643.237994
_symmetry_space_group_name_H-M "I 41/A M D"
_symmetry_group_IT_number 141
_space_group.IT_coordinate_system_code '2'
_symmetry_cell_setting 'tetragonal'
loop_
_space_group_symop_operation_xyz
x,y,z
1/4-y,3/4+x,1/4+z
-x,1/2-y,z
1/4+y,1/4-x,3/4+z
x,-y,-z
-x,1/2+y,-z
1/4+y,3/4+x,1/4-z
1/4-y,1/4-x,3/4-z
-x,-y,-z
3/4+y,1/4-x,3/4-z
x,1/2+y,-z
3/4-y,3/4+x,1/4-z
-x,y,z
x,1/2-y,z
3/4-y,1/4-x,3/4+z
3/4+y,3/4+x,1/4+z
1/2+x,1/2+y,1/2+z
3/4-y,1/4+x,3/4+z
1/2-x,-y,1/2+z
3/4+y,3/4-x,1/4+z
1/2+x,1/2-y,1/2-z
1/2-x,y,1/2-z
3/4+y,1/4+x,3/4-z
3/4-y,3/4-x,1/4-z
1/2-x,1/2-y,1/2-z
1/4+y,3/4-x,1/4-z
1/2+x,y,1/2-z
1/4-y,1/4+x,3/4-z
1/2-x,1/2+y,1/2+z
1/2+x,-y,1/2+z
1/4-y,3/4-x,1/4+z
1/4+y,1/4+x,3/4+z
loop_
_atom_site_type_symbol
_atom_site_label
_atom_site_fract_x
_atom_site_fract_y
_atom_site_fract_z
Si Si1 0.643529 0.540402 0.577536
Si Si2 0.086383 0.065685 0.186174
Si Si3 0.274325 0.163802 0.306259
Si Si4 0.914121 0.889724 0.074595
Si Si5 0.206762 0.543239 0.625000
Si Si6 0.676257 0.331706 0.495208
O O1 0.597804 0.539941 0.629316
O O2 0.608600 0.469198 0.548947
O O3 0.731673 0.529556 0.583066
O O4 0.639638 0.616828 0.547145
O O5 0.140380 0.136331 0.192253
O O6 0.000000 0.088487 0.193959
O O7 0.109077 0.002050 0.226809
O O8 0.271102 0.250000 0.321584
O O9 0.250000 0.150384 0.250000
O O10 0.219464 0.121777 0.346118
O O11 0.867325 0.882676 0.125000
O O12 0.888023 0.825605 0.036979
O O13 0.000000 0.881532 0.086604
O O14 0.689396 0.250000 0.471820
#
# Coordination Sequence:
#
# PCOD8320746 Si02
#       6
#    32  32  32  32  16  32
#     4  11  21  37  64  90 113 157 210 254 300 370
#     4  10  21  40  63  88 124 164 204 260 322 381
#     4  10  21  38  61  91 124 160 209 263 314 380
#     4  12  23  39  59  82 115 159 206 250 303 365
#     4  10  20  38  64  89 115 158 200 250 310 370
#     4  11  24  40  59  88 124 159 203 257 315 372
#
# _framework density 20.362739000000001
#
# number of rings (size 3 to 8) (size 9 to 14) (size 15 to 20)
#    0.000    1.273    2.727    3.818    0.000    6.727 
#    0.000    0.909    0.000    1.364    0.000    0.000 
#    0.000    0.000    0.000    0.000    0.000    0.000 
#
# Total GULP energy -1090314.029844 kJ/mol
# GULP energy per Si atom -12389.932157 kJ/mol
# Density = 2.031639 g / cm^3
# Si number density = 20.362739 Si / 1000 Ang^3
#
#
#
# Elastic Constant Matrix: (Units=GPa)
#
#
# Indices 1 2 3 4 5 6 
#
# 1 -91.5768 255.4585 30.6248 0.0000 0.0000 0.0000
# 2 255.4585 -91.5606 30.5801 0.0000 0.0000 0.0000
# 3 30.6248 30.5801 50.3526 0.0000 0.0000 0.0000
# 4 0.0000 0.0000 0.0000 20.7011 0.0000 0.0000
# 5 0.0000 0.0000 0.0000 0.0000 20.7021 0.0000
# 6 0.0000 0.0000 0.0000 0.0000 0.0000 23.6327
#
#
#
# Elastic Compliance Matrix: (Units=1/GPa)
#
#
# Indices 1 2 3 4 5 6 
#
# 1 0.002505 0.005387 -0.004795 0.000000 0.000000 0.000000
# 2 0.005387 0.002507 -0.004799 0.000000 0.000000 0.000000
# 3 -0.004795 -0.004799 0.025691 0.000000 0.000000 0.000000
# 4 0.000000 0.000000 0.000000 0.048307 0.000000 0.000000
# 5 0.000000 0.000000 0.000000 0.000000 0.048304 0.000000
# 6 0.000000 0.000000 0.000000 0.000000 0.000000 0.042314
#
#
# Mechanical properties :
#
#
# Convention : Reuss Voigt Hill
#
# Bulk Modulus (GPa) = 44.86584 55.61578 50.24081
# Shear Modulus (GPa) = 26.95835 -16.95604 5.00116
#
# Velocity S-wave (km/s) = 3.64250 -2.88878 1.56887
# Velocity P-wave (km/s) = 6.30647 4.03052 5.29229
#
# Compressibility (1/GPa) = 0.02228867
#
# Stress axis : x y z
#
# Youngs Moduli (GPa) = 399.20538 398.95021 38.92409
#
# Poissons Ratio (x) = -2.14930 0.18666
# Poissons Ratio (y) = -2.15068 0.18679
# Poissons Ratio (z) = 1.91435 1.91454
#
# Static dielectric constant tensor:
#      x y z
#    x 3.645810 0.000000 0.000000 
#    y 0.000000 3.645810 0.000000 
#    z 0.000000 0.000000 0.372540 
# 
# 
# High freq. dielectric constant tensor:
#      x y z
#    x 1.790230 0.000000 0.000000 
#    y 0.000000 1.790230 0.000000 
#    z 0.000000 0.000000 1.795520 
# 
# From -- ./inp_files/12879.got.cif
#   From: 2010.03.12/outbox.cif.g09.slc.cpg/sg141_7_cif.got.tgz:12879.got - 2010.04.03 13:18:35.
