data_PCOD8320448
_publ_section_title
;
Structure prediction by ZEFSAII (Michael W. Deem and Ramdas Pophale) SiO2 
 PCOD8320448
Probable space group: I 4/M C M
;
_chemical_formula_sum "Si O2"
_cell_formula_units_Z 160
_cell_length_a 17.711740
_cell_length_b 17.711740
_cell_length_c 26.362594
_cell_angle_alpha 90.000000
_cell_angle_beta 90.000000
_cell_angle_gamma 90.000000
_cell_volume 8270.096896
_symmetry_space_group_name_H-M "I 4/M C M"
_symmetry_group_IT_number 140
_symmetry_cell_setting 'tetragonal'
loop_
_space_group_symop_operation_xyz
x,y,z
-y,x,z
-x,-y,z
y,-x,z
x,-y,1/2-z
-x,y,1/2-z
y,x,1/2-z
-y,-x,1/2-z
-x,-y,-z
y,-x,-z
x,y,-z
-y,x,-z
-x,y,1/2+z
x,-y,1/2+z
-y,-x,1/2+z
y,x,1/2+z
1/2+x,1/2+y,1/2+z
1/2-y,1/2+x,1/2+z
1/2-x,1/2-y,1/2+z
1/2+y,1/2-x,1/2+z
1/2+x,1/2-y,-z
1/2-x,1/2+y,-z
1/2+y,1/2+x,-z
1/2-y,1/2-x,-z
1/2-x,1/2-y,1/2-z
1/2+y,1/2-x,1/2-z
1/2+x,1/2+y,1/2-z
1/2-y,1/2+x,1/2-z
1/2-x,1/2+y,z
1/2+x,1/2-y,z
1/2-y,1/2-x,z
1/2+y,1/2+x,z
loop_
_atom_site_type_symbol
_atom_site_label
_atom_site_fract_x
_atom_site_fract_y
_atom_site_fract_z
Si Si1 0.916815 0.908353 0.500000
Si Si2 0.341048 0.036285 0.302606
Si Si3 0.062088 0.562088 0.125525
Si Si4 0.308409 0.551652 0.650455
Si Si5 0.898132 0.821762 0.402295
Si Si6 0.500000 0.377126 0.250000
Si Si7 0.837244 0.337244 0.061603
O O1 0.880256 0.869867 0.451745
O O2 0.005378 0.894720 0.500000
O O3 0.404314 0.095687 0.286783
O O4 0.276355 0.077836 0.335769
O O5 0.311043 0.000000 0.250000
O O6 0.373214 0.973284 0.339921
O O7 0.099708 0.599708 0.075539
O O8 0.000000 0.500000 0.107965
O O9 0.357754 0.626987 0.641193
O O10 0.313531 0.488459 0.605967
O O11 0.329866 0.501654 0.698985
O O12 0.859988 0.740844 0.411138
O O13 0.574979 0.425022 0.250000
O O14 0.831281 0.331281 0.000000
#
# Coordination Sequence:
#
# PCOD8320448 Si02
#       7
#    16  32  16  32  32  16  16
#     4  11  22  39  66  94 117 155 224 275 311 372
#     4  11  22  38  64  95 126 167 216 269 316 382
#     4  10  22  41  67  97 125 161 218 272 321 375
#     4  12  24  39  62  92 135 167 212 259 324 383
#     4  12  25  41  62  93 125 170 212 269 323 385
#     4  11  22  36  58  90 127 168 206 246 305 388
#     4  12  26  45  67  91 131 174 219 273 334 390
#
# _framework density 19.346812
#
# number of rings (size 3 to 8) (size 9 to 14) (size 15 to 20)
#    0.000    0.600    9.000    0.000    1.400    0.600 
#    0.000    0.000    0.000    4.200    0.000    0.000 
#    0.000    0.000    0.000    0.000    0.000    0.000 
#
# Total GULP energy -991436.462504 kJ/mol
# GULP energy per Si atom -12392.955781 kJ/mol
# Density = 1.930278 g / cm^3
# Si number density = 19.346812 Si / 1000 Ang^3
#
#
#
# Elastic Constant Matrix: (Units=GPa)
#
#
# Indices 1 2 3 4 5 6 
#
# 1 99.3149 22.4268 27.9515 0.0000 0.0000 0.0000
# 2 22.4268 99.3152 27.9513 0.0000 0.0000 0.0000
# 3 27.9515 27.9513 85.7260 0.0000 0.0000 0.0000
# 4 0.0000 0.0000 0.0000 23.8242 0.0000 0.0000
# 5 0.0000 0.0000 0.0000 0.0000 23.8248 0.0000
# 6 0.0000 0.0000 0.0000 0.0000 0.0000 27.3383
#
#
#
# Elastic Compliance Matrix: (Units=1/GPa)
#
#
# Indices 1 2 3 4 5 6 
#
# 1 0.011333 -0.001673 -0.003150 0.000000 0.000000 0.000000
# 2 -0.001673 0.011333 -0.003150 0.000000 0.000000 0.000000
# 3 -0.003150 -0.003150 0.013719 0.000000 0.000000 0.000000
# 4 0.000000 0.000000 0.000000 0.041974 0.000000 0.000000
# 5 0.000000 0.000000 0.000000 0.000000 0.041973 0.000000
# 6 0.000000 0.000000 0.000000 0.000000 0.000000 0.036579
#
#
# Mechanical properties :
#
#
# Convention : Reuss Voigt Hill
#
# Bulk Modulus (GPa) = 48.92202 49.00170 48.96186
# Shear Modulus (GPa) = 27.82883 28.73256 28.28070
#
# Velocity S-wave (km/s) = 3.79676 3.85792 3.82747
# Velocity P-wave (km/s) = 6.67550 6.72516 6.70038
#
# Compressibility (1/GPa) = 0.02044069
#
# Stress axis : x y z
#
# Youngs Moduli (GPa) = 88.23628 88.23663 72.89102
#
# Poissons Ratio (x) = 0.14759 0.22960
# Poissons Ratio (y) = 0.14759 0.22959
# Poissons Ratio (z) = 0.27793 0.27793
#
# Static dielectric constant tensor:
#      x y z
#    x 3.477420 0.000000 0.000000 
#    y 0.000000 3.477430 0.000000 
#    z 0.000000 0.000000 3.494110 
# 
# 
# High freq. dielectric constant tensor:
#      x y z
#    x 1.752320 0.000000 0.000000 
#    y 0.000000 1.752320 0.000000 
#    z 0.000000 0.000000 1.757340 
# 
# From -- ./inp_files/10645.got.cif
#   From: 2010.06.25/outbox.cif.g09.slc.cpg/sg140_6_cif.got.tgz:10645.got - 2010.06.28 10:53:23.
