data_PCOD8320432
_publ_section_title
;
Structure prediction by ZEFSAII (Michael W. Deem and Ramdas Pophale) SiO2 
 PCOD8320432
Probable space group: I 4/M C M
;
_chemical_formula_sum "Si O2"
_cell_formula_units_Z 176
_cell_length_a 18.716303
_cell_length_b 18.716303
_cell_length_c 25.465356
_cell_angle_alpha 90.000000
_cell_angle_beta 90.000000
_cell_angle_gamma 90.000000
_cell_volume 8920.514156
_symmetry_space_group_name_H-M "I 4/M C M"
_symmetry_group_IT_number 140
_symmetry_cell_setting 'tetragonal'
loop_
_space_group_symop_operation_xyz
x,y,z
-y,x,z
-x,-y,z
y,-x,z
x,-y,1/2-z
-x,y,1/2-z
y,x,1/2-z
-y,-x,1/2-z
-x,-y,-z
y,-x,-z
x,y,-z
-y,x,-z
-x,y,1/2+z
x,-y,1/2+z
-y,-x,1/2+z
y,x,1/2+z
1/2+x,1/2+y,1/2+z
1/2-y,1/2+x,1/2+z
1/2-x,1/2-y,1/2+z
1/2+y,1/2-x,1/2+z
1/2+x,1/2-y,-z
1/2-x,1/2+y,-z
1/2+y,1/2+x,-z
1/2-y,1/2-x,-z
1/2-x,1/2-y,1/2-z
1/2+y,1/2-x,1/2-z
1/2+x,1/2+y,1/2-z
1/2-y,1/2+x,1/2-z
1/2-x,1/2+y,z
1/2+x,1/2-y,z
1/2-y,1/2-x,z
1/2+y,1/2+x,z
loop_
_atom_site_type_symbol
_atom_site_label
_atom_site_fract_x
_atom_site_fract_y
_atom_site_fract_z
Si Si1 0.979862 0.698561 0.441388
Si Si2 0.201955 0.500000 0.750000
Si Si3 0.357682 0.363173 0.310469
Si Si4 0.498720 0.295241 0.846310
Si Si5 0.126152 0.373849 0.192313
Si Si6 0.758021 0.741980 0.842269
Si Si7 0.058284 0.441717 0.092081
Si Si8 0.313261 0.186740 0.060454
O O1 0.991124 0.728659 0.500000
O O2 0.012532 0.753593 0.400211
O O3 0.896467 0.697080 0.427514
O O4 0.019919 0.622222 0.439502
O O5 0.246764 0.529802 0.798614
O O6 0.160400 0.431296 0.769547
O O7 0.377494 0.377494 0.250000
O O8 0.423475 0.323705 0.336038
O O9 0.353418 0.435306 0.346027
O O10 0.286563 0.313981 0.314458
O O11 0.181061 0.318940 0.164341
O O12 0.085731 0.414270 0.146982
O O13 0.736870 0.763131 0.902607
O O14 0.000000 0.500000 0.105488
O O15 0.294313 0.205688 0.000000
#
# Coordination Sequence:
#
# PCOD8320432 Si02
#       8
#    32  16  32  32  16  16  16  16
#     4  11  23  42  64  94 132 173 223 278 329 402
#     4  12  24  41  62  91 138 168 214 270 332 400
#     4  12  23  40  66  96 132 171 218 272 334 401
#     4  12  24  43  64  96 129 173 221 276 337 392
#     4  12  26  39  62  97 138 173 219 266 330 408
#     4  12  21  42  67  95 128 175 224 269 332 398
#     4  12  23  38  63  94 130 178 219 261 337 413
#     4  10  22  39  67  98 125 168 226 276 329 387
#
# _framework density 19.729804000000001
#
# number of rings (size 3 to 8) (size 9 to 14) (size 15 to 20)
#    0.000    0.364    8.182    0.545    1.273    2.182 
#    0.000    5.455    0.000    0.000    0.000    1.273 
#    0.000    0.000    0.000    0.000    0.000    0.000 
#
# Total GULP energy -1090726.489740 kJ/mol
# GULP energy per Si atom -12394.619202 kJ/mol
# Density = 1.968490 g / cm^3
# Si number density = 19.729804 Si / 1000 Ang^3
#
#
#
# Elastic Constant Matrix: (Units=GPa)
#
#
# Indices 1 2 3 4 5 6 
#
# 1 91.0179 43.4246 46.8002 0.0000 0.0000 0.0000
# 2 43.4246 91.0179 46.8001 0.0000 0.0000 0.0000
# 3 46.8002 46.8001 133.1826 0.0000 0.0000 0.0000
# 4 0.0000 0.0000 0.0000 37.4143 0.0000 0.0000
# 5 0.0000 0.0000 0.0000 0.0000 37.4144 0.0000
# 6 0.0000 0.0000 0.0000 0.0000 0.0000 0.7481
#
#
#
# Elastic Compliance Matrix: (Units=1/GPa)
#
#
# Indices 1 2 3 4 5 6 
#
# 1 0.015429 -0.005582 -0.003460 0.000000 0.000000 0.000000
# 2 -0.005582 0.015429 -0.003460 0.000000 0.000000 0.000000
# 3 -0.003460 -0.003460 0.009940 0.000000 0.000000 0.000000
# 4 0.000000 0.000000 0.000000 0.026728 0.000000 0.000000
# 5 0.000000 0.000000 0.000000 0.000000 0.026728 0.000000
# 6 0.000000 0.000000 0.000000 0.000000 0.000000 1.336743
#
#
# Mechanical properties :
#
#
# Convention : Reuss Voigt Hill
#
# Bulk Modulus (GPa) = 63.31669 65.47425 64.39547
# Shear Modulus (GPa) = 3.42169 26.99491 15.20830
#
# Velocity S-wave (km/s) = 1.31835 3.70297 2.77939
# Velocity P-wave (km/s) = 5.87188 7.17915 6.55817
#
# Compressibility (1/GPa) = 0.01579362
#
# Stress axis : x y z
#
# Youngs Moduli (GPa) = 64.81173 64.81184 100.59976
#
# Poissons Ratio (x) = 0.36178 0.34811
# Poissons Ratio (y) = 0.36178 0.34810
# Poissons Ratio (z) = 0.22427 0.22427
#
# Static dielectric constant tensor:
#      x y z
#    x 3.654770 0.000000 0.000000 
#    y 0.000000 3.654770 0.000000 
#    z 0.000000 0.000000 3.548120 
# 
# 
# High freq. dielectric constant tensor:
#      x y z
#    x 1.773310 0.000000 0.000000 
#    y 0.000000 1.773310 0.000000 
#    z 0.000000 0.000000 1.770000 
# 
# From -- ./inp_files/10799.got.cif
#   From: 2010.06.25/outbox.cif.g09.slc.cpg/sg140_6_cif.got.tgz:10799.got - 2010.06.28 10:53:23.
