data_PCOD8320578
_publ_section_title
;
Structure prediction by ZEFSAII (Michael W. Deem and Ramdas Pophale) SiO2 
 PCOD8320578
Probable space group: I 41/A M D
;
_chemical_formula_sum "Si O2"
_cell_formula_units_Z 120
_cell_length_a 15.360180
_cell_length_b 15.360180
_cell_length_c 29.957043
_cell_angle_alpha 90.000000
_cell_angle_beta 90.000000
_cell_angle_gamma 90.000000
_cell_volume 7067.918824
_symmetry_space_group_name_H-M "I 41/A M D"
_symmetry_group_IT_number 141
_space_group.IT_coordinate_system_code '2'
_symmetry_cell_setting 'tetragonal'
loop_
_space_group_symop_operation_xyz
x,y,z
1/4-y,3/4+x,1/4+z
-x,1/2-y,z
1/4+y,1/4-x,3/4+z
x,-y,-z
-x,1/2+y,-z
1/4+y,3/4+x,1/4-z
1/4-y,1/4-x,3/4-z
-x,-y,-z
3/4+y,1/4-x,3/4-z
x,1/2+y,-z
3/4-y,3/4+x,1/4-z
-x,y,z
x,1/2-y,z
3/4-y,1/4-x,3/4+z
3/4+y,3/4+x,1/4+z
1/2+x,1/2+y,1/2+z
3/4-y,1/4+x,3/4+z
1/2-x,-y,1/2+z
3/4+y,3/4-x,1/4+z
1/2+x,1/2-y,1/2-z
1/2-x,y,1/2-z
3/4+y,1/4+x,3/4-z
3/4-y,3/4-x,1/4-z
1/2-x,1/2-y,1/2-z
1/4+y,3/4-x,1/4-z
1/2+x,y,1/2-z
1/4-y,1/4+x,3/4-z
1/2-x,1/2+y,1/2+z
1/2+x,-y,1/2+z
1/4-y,3/4-x,1/4+z
1/4+y,1/4+x,3/4+z
loop_
_atom_site_type_symbol
_atom_site_label
_atom_site_fract_x
_atom_site_fract_y
_atom_site_fract_z
Si Si1 0.500000 0.250000 0.389559
Si Si2 0.000000 0.956554 0.763115
Si Si3 0.683223 0.250000 0.429196
Si Si4 0.398014 0.585166 0.025659
Si Si5 0.500000 0.937686 0.636892
Si Si6 0.686491 0.917676 0.624705
O O1 0.579858 0.250000 0.423895
O O2 0.500000 0.167916 0.356148
O O3 0.084533 0.899596 0.752005
O O4 0.000000 0.985928 0.815117
O O5 0.000000 0.041124 0.731265
O O6 0.719823 0.161084 0.406643
O O7 0.500000 0.599440 0.020988
O O8 0.371692 0.576926 0.076733
O O9 0.365975 0.500000 0.000000
O O10 0.590703 0.958092 0.610350
O O11 0.756037 0.993964 0.625000
#
# Coordination Sequence:
#
# PCOD8320578 Si02
#       6
#     8  16  16  32  16  32
#     4   8  16  32  54  68  96 124 174 214 244 294
#     4  10  19  28  48  71  98 119 162 204 244 288
#     4  10  18  31  47  75  95 129 165 208 257 293
#     4  10  19  31  46  68  95 133 165 196 240 298
#     4   8  18  30  50  73  88 125 166 206 245 292
#     4  10  18  31  51  70  98 126 167 212 246 298
#
# _framework density 16.978124000000001
#
# number of rings (size 3 to 8) (size 9 to 14) (size 15 to 20)
#    0.000    2.400    1.333    2.000    5.600    0.000 
#    0.000    0.000    0.000    6.800    0.000   24.267 
#    0.000    0.000    0.000    0.000    0.000    0.000 
#
# Total GULP energy -743493.508540 kJ/mol
# GULP energy per Si atom -12391.558476 kJ/mol
# Density = 1.693948 g / cm^3
# Si number density = 16.978124 Si / 1000 Ang^3
#
#
#
# Elastic Constant Matrix: (Units=GPa)
#
#
# Indices 1 2 3 4 5 6 
#
# 1 79.7169 51.1616 20.4490 0.0000 0.0000 0.0000
# 2 51.1616 79.7207 20.4525 0.0000 0.0000 0.0000
# 3 20.4490 20.4525 67.3456 0.0000 0.0000 0.0000
# 4 0.0000 0.0000 0.0000 23.5689 0.0000 0.0000
# 5 0.0000 0.0000 0.0000 0.0000 23.5699 0.0000
# 6 0.0000 0.0000 0.0000 0.0000 0.0000 18.9651
#
#
#
# Elastic Compliance Matrix: (Units=1/GPa)
#
#
# Indices 1 2 3 4 5 6 
#
# 1 0.021730 -0.013288 -0.002563 0.000000 0.000000 0.000000
# 2 -0.013288 0.021729 -0.002564 0.000000 0.000000 0.000000
# 3 -0.002563 -0.002564 0.016406 0.000000 0.000000 0.000000
# 4 0.000000 0.000000 0.000000 0.042429 0.000000 0.000000
# 5 0.000000 0.000000 0.000000 0.000000 0.042427 0.000000
# 6 0.000000 0.000000 0.000000 0.000000 0.000000 0.052728
#
#
# Mechanical properties :
#
#
# Convention : Reuss Voigt Hill
#
# Bulk Modulus (GPa) = 43.41194 45.65660 44.53427
# Shear Modulus (GPa) = 20.66482 22.20212 21.43347
#
# Velocity S-wave (km/s) = 3.49254 3.62012 3.55691
# Velocity P-wave (km/s) = 6.47215 6.66510 6.56933
#
# Compressibility (1/GPa) = 0.02303514
#
# Stress axis : x y z
#
# Youngs Moduli (GPa) = 46.01970 46.02074 60.95452
#
# Poissons Ratio (x) = 0.61152 0.15620
# Poissons Ratio (y) = 0.61151 0.15631
# Poissons Ratio (z) = 0.11793 0.11801
#
# Static dielectric constant tensor:
#      x y z
#    x 2.906180 0.000000 0.000000 
#    y 0.000000 2.906860 0.000000 
#    z 0.000000 0.000000 2.962120 
# 
# 
# High freq. dielectric constant tensor:
#      x y z
#    x 1.654620 0.000000 0.000000 
#    y 0.000000 1.654620 0.000000 
#    z 0.000000 0.000000 1.628890 
# 
# From -- ./inp_files/14144.got.cif
#   From: 2010.03.12/outbox.cif.g09.slc.cpg/sg141_8_cif.got.tgz:14144.got - 2010.04.03 13:18:35.
