data_PCOD8320857
_publ_section_title
;
Structure prediction by ZEFSAII (Michael W. Deem and Ramdas Pophale) SiO2 
 PCOD8320857
Probable space group: I 41/A M D
;
_chemical_formula_sum "Si O2"
_cell_formula_units_Z 120
_cell_length_a 17.483515
_cell_length_b 17.483515
_cell_length_c 20.333240
_cell_angle_alpha 90.000000
_cell_angle_beta 90.000000
_cell_angle_gamma 90.000000
_cell_volume 6215.328505
_symmetry_space_group_name_H-M "I 41/A M D"
_symmetry_group_IT_number 141
_space_group.IT_coordinate_system_code '2'
_symmetry_cell_setting 'tetragonal'
loop_
_space_group_symop_operation_xyz
x,y,z
1/4-y,3/4+x,1/4+z
-x,1/2-y,z
1/4+y,1/4-x,3/4+z
x,-y,-z
-x,1/2+y,-z
1/4+y,3/4+x,1/4-z
1/4-y,1/4-x,3/4-z
-x,-y,-z
3/4+y,1/4-x,3/4-z
x,1/2+y,-z
3/4-y,3/4+x,1/4-z
-x,y,z
x,1/2-y,z
3/4-y,1/4-x,3/4+z
3/4+y,3/4+x,1/4+z
1/2+x,1/2+y,1/2+z
3/4-y,1/4+x,3/4+z
1/2-x,-y,1/2+z
3/4+y,3/4-x,1/4+z
1/2+x,1/2-y,1/2-z
1/2-x,y,1/2-z
3/4+y,1/4+x,3/4-z
3/4-y,3/4-x,1/4-z
1/2-x,1/2-y,1/2-z
1/4+y,3/4-x,1/4-z
1/2+x,y,1/2-z
1/4-y,1/4+x,3/4-z
1/2-x,1/2+y,1/2+z
1/2+x,-y,1/2+z
1/4-y,3/4-x,1/4+z
1/4+y,1/4+x,3/4+z
loop_
_atom_site_type_symbol
_atom_site_label
_atom_site_fract_x
_atom_site_fract_y
_atom_site_fract_z
Si Si1 0.000000 0.750000 0.837141
Si Si2 0.374233 0.030009 0.174605
Si Si3 0.500000 0.560631 0.308898
Si Si4 0.158578 0.591423 0.125000
Si Si5 0.851964 0.250000 0.500030
Si Si6 0.702639 0.000000 0.500000
Si Si7 0.000000 0.088814 0.661019
O O1 0.000000 0.678017 0.790623
O O2 0.922355 0.750000 0.879081
O O3 0.312627 0.062627 0.125000
O O4 0.426567 0.098361 0.202235
O O5 0.326650 0.000063 0.236677
O O6 0.424751 0.961515 0.141863
O O7 0.425624 0.586410 0.346728
O O8 0.500000 0.469415 0.299395
O O9 0.500000 0.602602 0.238635
O O10 0.225525 0.589913 0.181758
#
# Coordination Sequence:
#
# PCOD8320857 Si02
#       7
#     8  32  16  16  16  16  16
#     4  12  28  38  69  93 144 180 208 276 352 400
#     4  10  22  42  70  92 129 171 223 279 322 399
#     4  10  24  44  62  92 136 168 218 281 313 401
#     4  12  24  41  68  98 132 175 226 266 346 386
#     4  10  24  45  57  98 135 163 214 284 324 396
#     4  12  22  37  70 101 124 174 224 270 332 389
#     4  10  24  45  57 100 135 173 212 272 333 393
#
# _framework density 19.307106000000001
#
# number of rings (size 3 to 8) (size 9 to 14) (size 15 to 20)
#    0.000    1.600    6.667    0.000    7.467    4.000 
#    0.000    1.333    0.000    0.000    0.000    0.000 
#    0.000    0.000    0.000    0.000    0.000    0.000 
#
# Total GULP energy -743427.436119 kJ/mol
# GULP energy per Si atom -12390.457269 kJ/mol
# Density = 1.926316 g / cm^3
# Si number density = 19.307106 Si / 1000 Ang^3
#
#
#
# Elastic Constant Matrix: (Units=GPa)
#
#
# Indices 1 2 3 4 5 6 
#
# 1 115.0881 42.6643 45.3630 0.0000 0.0000 0.0000
# 2 42.6643 115.0884 45.3628 0.0000 0.0000 0.0000
# 3 45.3630 45.3628 95.6363 0.0000 0.0000 0.0000
# 4 0.0000 0.0000 0.0000 27.3744 0.0000 0.0000
# 5 0.0000 0.0000 0.0000 0.0000 27.3746 0.0000
# 6 0.0000 0.0000 0.0000 0.0000 0.0000 18.1105
#
#
#
# Elastic Compliance Matrix: (Units=1/GPa)
#
#
# Indices 1 2 3 4 5 6 
#
# 1 0.011262 -0.002545 -0.004135 0.000000 0.000000 0.000000
# 2 -0.002545 0.011262 -0.004135 0.000000 0.000000 0.000000
# 3 -0.004135 -0.004135 0.014379 0.000000 0.000000 0.000000
# 4 0.000000 0.000000 0.000000 0.036530 0.000000 0.000000
# 5 0.000000 0.000000 0.000000 0.000000 0.036530 0.000000
# 6 0.000000 0.000000 0.000000 0.000000 0.000000 0.055217
#
#
# Mechanical properties :
#
#
# Convention : Reuss Voigt Hill
#
# Bulk Modulus (GPa) = 65.47144 65.84365 65.65755
# Shear Modulus (GPa) = 26.05510 27.40010 26.72760
#
# Velocity S-wave (km/s) = 3.67755 3.77128 3.72471
# Velocity P-wave (km/s) = 7.21226 7.28977 7.25112
#
# Compressibility (1/GPa) = 0.01527384
#
# Stress axis : x y z
#
# Youngs Moduli (GPa) = 88.79173 88.79231 69.54741
#
# Poissons Ratio (x) = 0.22600 0.28756
# Poissons Ratio (y) = 0.22600 0.28755
# Poissons Ratio (z) = 0.36713 0.36713
#
# Static dielectric constant tensor:
#      x y z
#    x 3.591690 0.000000 0.000000 
#    y 0.000000 3.591690 0.000000 
#    z 0.000000 0.000000 3.615990 
# 
# 
# High freq. dielectric constant tensor:
#      x y z
#    x 1.755000 0.000000 0.000000 
#    y 0.000000 1.755000 0.000000 
#    z 0.000000 0.000000 1.753100 
# 
# From -- ./inp_files/10076.got.cif
#   From: 2010.03.12/outbox.cif.g09.slc.cpg/sg141_6_cif.got.tgz:10076.got - 2010.04.03 13:18:35.
