data_PCOD8320194
_publ_section_title
;
Structure prediction by ZEFSAII (Michael W. Deem and Ramdas Pophale) SiO2 
 PCOD8320194
Probable space group: I 4/M C M
;
_chemical_formula_sum "Si O2"
_cell_formula_units_Z 176
_cell_length_a 25.955705
_cell_length_b 25.955705
_cell_length_c 13.556745
_cell_angle_alpha 90.000000
_cell_angle_beta 90.000000
_cell_angle_gamma 90.000000
_cell_volume 9133.160426
_symmetry_space_group_name_H-M "I 4/M C M"
_symmetry_group_IT_number 140
_symmetry_cell_setting 'tetragonal'
loop_
_space_group_symop_operation_xyz
x,y,z
-y,x,z
-x,-y,z
y,-x,z
x,-y,1/2-z
-x,y,1/2-z
y,x,1/2-z
-y,-x,1/2-z
-x,-y,-z
y,-x,-z
x,y,-z
-y,x,-z
-x,y,1/2+z
x,-y,1/2+z
-y,-x,1/2+z
y,x,1/2+z
1/2+x,1/2+y,1/2+z
1/2-y,1/2+x,1/2+z
1/2-x,1/2-y,1/2+z
1/2+y,1/2-x,1/2+z
1/2+x,1/2-y,-z
1/2-x,1/2+y,-z
1/2+y,1/2+x,-z
1/2-y,1/2-x,-z
1/2-x,1/2-y,1/2-z
1/2+y,1/2-x,1/2-z
1/2+x,1/2+y,1/2-z
1/2-y,1/2+x,1/2-z
1/2-x,1/2+y,z
1/2+x,1/2-y,z
1/2-y,1/2-x,z
1/2+y,1/2+x,z
loop_
_atom_site_type_symbol
_atom_site_label
_atom_site_fract_x
_atom_site_fract_y
_atom_site_fract_z
Si Si1 0.311967 0.269290 0.383189
Si Si2 0.698876 0.000000 0.750000
Si Si3 0.427779 0.267095 0.385930
Si Si4 0.617870 0.286165 0.613200
Si Si5 0.169441 0.585583 0.112630
Si Si6 0.558687 0.356809 0.757062
O O1 0.304944 0.272954 0.500000
O O2 0.272107 0.227894 0.338260
O O3 0.369593 0.250623 0.356948
O O4 0.299751 0.326219 0.339914
O O5 0.734503 0.032209 0.823404
O O6 0.662422 0.036699 0.684593
O O7 0.439957 0.257861 0.500000
O O8 0.433011 0.327894 0.361569
O O9 0.614225 0.303712 0.500000
O O10 0.609617 0.225716 0.625617
O O11 0.573264 0.316201 0.671253
O O12 0.128281 0.628281 0.144494
O O13 0.160539 0.567805 0.000000
O O14 0.500000 0.374565 0.750000
O O15 0.592072 0.407929 0.750000
#
# Coordination Sequence:
#
# PCOD8320194 Si02
#       6
#    32  16  32  32  32  32
#     4   9  18  33  56  88 124 157 187 225 285 360
#     4  12  22  38  60  89 117 158 200 240 296 352
#     4  11  22  38  58  84 120 157 197 241 291 352
#     4  10  19  36  60  88 120 155 190 232 287 358
#     4  10  21  37  60  91 124 156 195 244 293 348
#     4  12  24  40  58  83 112 151 207 252 302 347
#
# _framework density 19.270437999999999
#
# number of rings (size 3 to 8) (size 9 to 14) (size 15 to 20)
#    0.000    1.455    4.545    1.091    0.000    5.273 
#    0.000    0.909    0.000    1.909    0.000    3.818 
#    0.000    0.000    0.000    0.000    0.000    0.000 
#
# Total GULP energy -1091410.834554 kJ/mol
# GULP energy per Si atom -12402.395847 kJ/mol
# Density = 1.922658 g / cm^3
# Si number density = 19.270438 Si / 1000 Ang^3
#
#
#
# Elastic Constant Matrix: (Units=GPa)
#
#
# Indices 1 2 3 4 5 6 
#
# 1 117.8043 75.9049 57.2242 0.0000 0.0000 0.0000
# 2 75.9049 117.8017 57.2233 0.0000 0.0000 0.0000
# 3 57.2242 57.2233 87.0384 0.0000 0.0000 0.0000
# 4 0.0000 0.0000 0.0000 27.8337 0.0000 0.0000
# 5 0.0000 0.0000 0.0000 0.0000 27.8330 0.0000
# 6 0.0000 0.0000 0.0000 0.0000 0.0000 27.1385
#
#
#
# Elastic Compliance Matrix: (Units=1/GPa)
#
#
# Indices 1 2 3 4 5 6 
#
# 1 0.016154 -0.007713 -0.005550 0.000000 0.000000 0.000000
# 2 -0.007713 0.016155 -0.005550 0.000000 0.000000 0.000000
# 3 -0.005550 -0.005550 0.018787 0.000000 0.000000 0.000000
# 4 0.000000 0.000000 0.000000 0.035928 0.000000 0.000000
# 5 0.000000 0.000000 0.000000 0.000000 0.035929 0.000000
# 6 0.000000 0.000000 0.000000 0.000000 0.000000 0.036848
#
#
# Mechanical properties :
#
#
# Convention : Reuss Voigt Hill
#
# Bulk Modulus (GPa) = 74.23812 78.14991 76.19402
# Shear Modulus (GPa) = 24.76286 25.38049 25.07167
#
# Velocity S-wave (km/s) = 3.58860 3.63308 3.61091
# Velocity P-wave (km/s) = 7.46852 7.63160 7.55050
#
# Compressibility (1/GPa) = 0.01347017
#
# Stress axis : x y z
#
# Youngs Moduli (GPa) = 61.90319 61.90203 53.22918
#
# Poissons Ratio (x) = 0.47745 0.29541
# Poissons Ratio (y) = 0.47746 0.29541
# Poissons Ratio (z) = 0.34355 0.34354
#
# Static dielectric constant tensor:
#      x y z
#    x 3.532550 0.000000 0.000000 
#    y 0.000000 3.532550 0.000000 
#    z 0.000000 0.000000 3.795470 
# 
# 
# High freq. dielectric constant tensor:
#      x y z
#    x 1.736440 0.000000 0.000000 
#    y 0.000000 1.736440 0.000000 
#    z 0.000000 0.000000 1.765030 
# 
# From -- ./inp_files/4883.got.cif
#   From: 2010.06.25/outbox.cif.g09.slc.cpg/sg140_3_cif.got.tgz:4883.got - 2010.06.28 10:53:23.
