data_PCOD8320197
_publ_section_title
;
Structure prediction by ZEFSAII (Michael W. Deem and Ramdas Pophale) SiO2 
 PCOD8320197
Probable space group: I 4/M C M
;
_chemical_formula_sum "Si O2"
_cell_formula_units_Z 176
_cell_length_a 16.844041
_cell_length_b 16.844041
_cell_length_c 29.002718
_cell_angle_alpha 90.000000
_cell_angle_beta 90.000000
_cell_angle_gamma 90.000000
_cell_volume 8228.700955
_symmetry_space_group_name_H-M "I 4/M C M"
_symmetry_group_IT_number 140
_symmetry_cell_setting 'tetragonal'
loop_
_space_group_symop_operation_xyz
x,y,z
-y,x,z
-x,-y,z
y,-x,z
x,-y,1/2-z
-x,y,1/2-z
y,x,1/2-z
-y,-x,1/2-z
-x,-y,-z
y,-x,-z
x,y,-z
-y,x,-z
-x,y,1/2+z
x,-y,1/2+z
-y,-x,1/2+z
y,x,1/2+z
1/2+x,1/2+y,1/2+z
1/2-y,1/2+x,1/2+z
1/2-x,1/2-y,1/2+z
1/2+y,1/2-x,1/2+z
1/2+x,1/2-y,-z
1/2-x,1/2+y,-z
1/2+y,1/2+x,-z
1/2-y,1/2-x,-z
1/2-x,1/2-y,1/2-z
1/2+y,1/2-x,1/2-z
1/2+x,1/2+y,1/2-z
1/2-y,1/2+x,1/2-z
1/2-x,1/2+y,z
1/2+x,1/2-y,z
1/2-y,1/2-x,z
1/2+y,1/2+x,z
loop_
_atom_site_type_symbol
_atom_site_label
_atom_site_fract_x
_atom_site_fract_y
_atom_site_fract_z
Si Si1 0.981094 0.236736 0.824127
Si Si2 0.747398 0.877150 0.740403
Si Si3 0.691810 0.317232 0.553247
Si Si4 0.370529 0.003876 0.000000
Si Si5 0.059103 0.687088 0.408868
Si Si6 0.441235 0.616292 0.606480
O O1 0.921506 0.276871 0.787851
O O2 0.939967 0.154718 0.842238
O O3 0.063966 0.219599 0.798431
O O4 0.999476 0.294552 0.866936
O O5 0.816868 0.816868 0.750000
O O6 0.668830 0.831171 0.722646
O O7 0.695716 0.343231 0.500000
O O8 0.728600 0.228600 0.559195
O O9 0.743094 0.377143 0.584400
O O10 0.600677 0.321201 0.571411
O O11 0.317467 0.994914 0.045500
O O12 0.409103 0.090898 0.000000
O O13 0.435708 0.935708 0.000000
O O14 0.104133 0.604133 0.398968
O O15 0.394767 0.534662 0.597792
#
# Coordination Sequence:
#
# PCOD8320197 Si02
#       6
#    32  32  32  16  32  32
#     4  11  22  40  64  92 127 163 211 262 328 388
#     4  10  23  42  66  94 123 160 211 269 330 396
#     4  10  21  40  65  90 124 174 227 273 320 378
#     4   9  18  34  58  90 125 164 212 264 321 380
#     4  10  19  36  64  92 125 171 217 264 317 383
#     4  11  23  39  61  93 133 173 214 262 324 390
#
# _framework density 21.388552000000001
#
# number of rings (size 3 to 8) (size 9 to 14) (size 15 to 20)
#    0.000    1.727    2.727    1.636    0.000    2.182 
#    1.636    0.909    0.000   13.091    0.000    0.000 
#    0.000    0.000    0.000    0.000    0.000    0.000 
#
# Total GULP energy -1090582.810933 kJ/mol
# GULP energy per Si atom -12392.986488 kJ/mol
# Density = 2.133987 g / cm^3
# Si number density = 21.388552 Si / 1000 Ang^3
#
#
#
# Elastic Constant Matrix: (Units=GPa)
#
#
# Indices 1 2 3 4 5 6 
#
# 1 75.2585 62.2820 46.3554 0.0000 0.0000 0.0000
# 2 62.2820 75.2586 46.3551 0.0000 0.0000 0.0000
# 3 46.3554 46.3551 132.1647 0.0000 0.0000 0.0000
# 4 0.0000 0.0000 0.0000 37.0064 0.0000 0.0000
# 5 0.0000 0.0000 0.0000 0.0000 37.0065 0.0000
# 6 0.0000 0.0000 0.0000 0.0000 0.0000 30.3284
#
#
#
# Elastic Compliance Matrix: (Units=1/GPa)
#
#
# Indices 1 2 3 4 5 6 
#
# 1 0.043292 -0.033770 -0.003340 0.000000 0.000000 0.000000
# 2 -0.033770 0.043292 -0.003339 0.000000 0.000000 0.000000
# 3 -0.003340 -0.003339 0.009909 0.000000 0.000000 0.000000
# 4 0.000000 0.000000 0.000000 0.027022 0.000000 0.000000
# 5 0.000000 0.000000 0.000000 0.000000 0.027022 0.000000
# 6 0.000000 0.000000 0.000000 0.000000 0.000000 0.032972
#
#
# Mechanical properties :
#
#
# Convention : Reuss Voigt Hill
#
# Bulk Modulus (GPa) = 64.12775 65.85186 64.98980
# Shear Modulus (GPa) = 18.54552 29.38090 23.96321
#
# Velocity S-wave (km/s) = 2.94781 3.71033 3.35083
# Velocity P-wave (km/s) = 6.45240 7.01503 6.73959
#
# Compressibility (1/GPa) = 0.01559387
#
# Stress axis : x y z
#
# Youngs Moduli (GPa) = 23.09890 23.09905 100.91855
#
# Poissons Ratio (x) = 0.78006 0.33705
# Poissons Ratio (y) = 0.78006 0.33701
# Poissons Ratio (z) = 0.07715 0.07714
#
# Static dielectric constant tensor:
#      x y z
#    x 3.918800 0.000000 0.000000 
#    y 0.000000 3.918800 0.000000 
#    z 0.000000 0.000000 3.888130 
# 
# 
# High freq. dielectric constant tensor:
#      x y z
#    x 1.834220 0.000000 0.000000 
#    y 0.000000 1.834220 0.000000 
#    z 0.000000 0.000000 1.838890 
# 
# From -- ./inp_files/10717.got.cif
#   From: 2010.06.25/outbox.cif.g09.slc.cpg/sg140_6_cif.got.tgz:10717.got - 2010.06.28 10:53:23.
