data_PCOD8320739
_publ_section_title
;
Structure prediction by ZEFSAII (Michael W. Deem and Ramdas Pophale) SiO2 
 PCOD8320739
Probable space group: I 41/A M D
;
_chemical_formula_sum "Si O2"
_cell_formula_units_Z 160
_cell_length_a 24.442720
_cell_length_b 24.442720
_cell_length_c 13.566138
_cell_angle_alpha 90.000000
_cell_angle_beta 90.000000
_cell_angle_gamma 90.000000
_cell_volume 8105.042494
_symmetry_space_group_name_H-M "I 41/A M D"
_symmetry_group_IT_number 141
_space_group.IT_coordinate_system_code '2'
_symmetry_cell_setting 'tetragonal'
loop_
_space_group_symop_operation_xyz
x,y,z
1/4-y,3/4+x,1/4+z
-x,1/2-y,z
1/4+y,1/4-x,3/4+z
x,-y,-z
-x,1/2+y,-z
1/4+y,3/4+x,1/4-z
1/4-y,1/4-x,3/4-z
-x,-y,-z
3/4+y,1/4-x,3/4-z
x,1/2+y,-z
3/4-y,3/4+x,1/4-z
-x,y,z
x,1/2-y,z
3/4-y,1/4-x,3/4+z
3/4+y,3/4+x,1/4+z
1/2+x,1/2+y,1/2+z
3/4-y,1/4+x,3/4+z
1/2-x,-y,1/2+z
3/4+y,3/4-x,1/4+z
1/2+x,1/2-y,1/2-z
1/2-x,y,1/2-z
3/4+y,1/4+x,3/4-z
3/4-y,3/4-x,1/4-z
1/2-x,1/2-y,1/2-z
1/4+y,3/4-x,1/4-z
1/2+x,y,1/2-z
1/4-y,1/4+x,3/4-z
1/2-x,1/2+y,1/2+z
1/2+x,-y,1/2+z
1/4-y,3/4-x,1/4+z
1/4+y,1/4+x,3/4+z
loop_
_atom_site_type_symbol
_atom_site_label
_atom_site_fract_x
_atom_site_fract_y
_atom_site_fract_z
Si Si1 0.257997 0.812386 0.986998
Si Si2 0.061754 0.607426 0.365860
Si Si3 0.564100 0.102657 0.088637
Si Si4 0.128194 0.534415 0.092146
Si Si5 0.063049 0.135322 0.967128
O O1 0.271673 0.750000 0.020456
O O2 0.197434 0.815500 0.945381
O O3 0.300696 0.832433 0.903999
O O4 0.258843 0.855263 0.077288
O O5 0.082109 0.593376 0.475719
O O6 0.099144 0.653022 0.314655
O O7 0.000000 0.630178 0.367755
O O8 0.500000 0.111898 0.097966
O O9 0.592383 0.157618 0.125000
O O10 0.180286 0.569715 0.125000
O O11 0.077744 0.573794 0.064380
O O12 0.149090 0.500000 0.000000
O O13 0.074640 0.175361 0.875000
O O14 0.000000 0.138572 0.996048
#
# Coordination Sequence:
#
# PCOD8320739 Si02
#       5
#    32  32  32  32  32
#     4  10  20  39  65  91 119 160 209 255 303 373
#     4  10  20  38  59  86 122 162 205 252 304 360
#     4  10  23  39  60  89 123 163 213 263 311 371
#     4  11  24  42  64  89 125 158 204 265 324 380
#     4  11  22  37  61  93 131 167 204 254 318 389
#
# _framework density 19.740797000000001
#
# number of rings (size 3 to 8) (size 9 to 14) (size 15 to 20)
#    0.000    1.600    4.000    1.800    2.800    6.400 
#    0.000    3.000    0.000    0.000    0.000    0.000 
#    0.000    0.000    0.000    0.000    0.000    0.000 
#
# Total GULP energy -992124.077533 kJ/mol
# GULP energy per Si atom -12401.550969 kJ/mol
# Density = 1.969587 g / cm^3
# Si number density = 19.740797 Si / 1000 Ang^3
#
#
#
# Elastic Constant Matrix: (Units=GPa)
#
#
# Indices 1 2 3 4 5 6 
#
# 1 73.9008 49.8510 53.6296 0.0000 0.0000 0.0000
# 2 49.8510 73.8886 53.6333 0.0000 0.0000 0.0000
# 3 53.6296 53.6333 150.4750 0.0000 0.0000 0.0000
# 4 0.0000 0.0000 0.0000 26.7153 0.0000 0.0000
# 5 0.0000 0.0000 0.0000 0.0000 26.7183 0.0000
# 6 0.0000 0.0000 0.0000 0.0000 0.0000 24.2619
#
#
#
# Elastic Compliance Matrix: (Units=1/GPa)
#
#
# Indices 1 2 3 4 5 6 
#
# 1 0.026639 -0.014949 -0.004166 0.000000 0.000000 0.000000
# 2 -0.014949 0.026646 -0.004170 0.000000 0.000000 0.000000
# 3 -0.004166 -0.004170 0.009617 0.000000 0.000000 0.000000
# 4 0.000000 0.000000 0.000000 0.037432 0.000000 0.000000
# 5 0.000000 0.000000 0.000000 0.000000 0.037428 0.000000
# 6 0.000000 0.000000 0.000000 0.000000 0.000000 0.041217
#
#
# Mechanical properties :
#
#
# Convention : Reuss Voigt Hill
#
# Bulk Modulus (GPa) = 61.22652 68.05470 64.64061
# Shear Modulus (GPa) = 21.64592 24.94912 23.29752
#
# Velocity S-wave (km/s) = 3.31495 3.55890 3.43909
# Velocity P-wave (km/s) = 6.76272 7.17194 6.97033
#
# Compressibility (1/GPa) = 0.01633279
#
# Stress axis : x y z
#
# Youngs Moduli (GPa) = 37.53926 37.52910 103.98714
#
# Poissons Ratio (x) = 0.56101 0.43321
# Poissons Ratio (y) = 0.56116 0.43359
# Poissons Ratio (z) = 0.15639 0.15648
#
# Static dielectric constant tensor:
#      x y z
#    x 3.517290 0.000000 0.000000 
#    y 0.000000 3.517300 0.000000 
#    z 0.000000 0.000000 3.983680 
# 
# 
# High freq. dielectric constant tensor:
#      x y z
#    x 1.758440 0.000000 0.000000 
#    y 0.000000 1.758440 0.000000 
#    z 0.000000 0.000000 1.783910 
# 
# From -- ./inp_files/6614.got.cif
#   From: 2010.03.12/outbox.cif.g09.slc.cpg/sg141_4_cif.got.tgz:6614.got - 2010.04.03 13:18:35.
