data_PCOD8320168
_publ_section_title
;
Structure prediction by ZEFSAII (Michael W. Deem and Ramdas Pophale) SiO2 
 PCOD8320168
Probable space group: I 4/M C M
;
_chemical_formula_sum "Si O2"
_cell_formula_units_Z 176
_cell_length_a 23.412626
_cell_length_b 23.412626
_cell_length_c 15.401760
_cell_angle_alpha 90.000000
_cell_angle_beta 90.000000
_cell_angle_gamma 90.000000
_cell_volume 8442.491012
_symmetry_space_group_name_H-M "I 4/M C M"
_symmetry_group_IT_number 140
_symmetry_cell_setting 'tetragonal'
loop_
_space_group_symop_operation_xyz
x,y,z
-y,x,z
-x,-y,z
y,-x,z
x,-y,1/2-z
-x,y,1/2-z
y,x,1/2-z
-y,-x,1/2-z
-x,-y,-z
y,-x,-z
x,y,-z
-y,x,-z
-x,y,1/2+z
x,-y,1/2+z
-y,-x,1/2+z
y,x,1/2+z
1/2+x,1/2+y,1/2+z
1/2-y,1/2+x,1/2+z
1/2-x,1/2-y,1/2+z
1/2+y,1/2-x,1/2+z
1/2+x,1/2-y,-z
1/2-x,1/2+y,-z
1/2+y,1/2+x,-z
1/2-y,1/2-x,-z
1/2-x,1/2-y,1/2-z
1/2+y,1/2-x,1/2-z
1/2+x,1/2+y,1/2-z
1/2-y,1/2+x,1/2-z
1/2-x,1/2+y,z
1/2+x,1/2-y,z
1/2-y,1/2-x,z
1/2+y,1/2+x,z
loop_
_atom_site_type_symbol
_atom_site_label
_atom_site_fract_x
_atom_site_fract_y
_atom_site_fract_z
Si Si1 0.183006 0.510641 0.344542
Si Si2 0.781023 0.191614 0.396512
Si Si3 0.289688 0.563079 0.896504
Si Si4 0.499869 0.904990 0.500000
Si Si5 0.521986 0.412206 0.603247
Si Si6 0.778155 0.372519 0.596734
O O1 0.155547 0.500000 0.250000
O O2 0.236612 0.469853 0.357702
O O3 0.134163 0.499922 0.415068
O O4 0.207424 0.574411 0.343203
O O5 0.781983 0.194360 0.500000
O O6 0.723639 0.223639 0.362446
O O7 0.783335 0.127597 0.361769
O O8 0.837419 0.224984 0.362887
O O9 0.349338 0.537064 0.860694
O O10 0.287663 0.560566 0.000000
O O11 0.442748 0.942748 0.500000
O O12 0.556209 0.943792 0.500000
O O13 0.568760 0.458910 0.635866
O O14 0.523413 0.411145 0.500000
O O15 0.763190 0.395651 0.500000
O O16 0.832951 0.332951 0.590703
#
# Coordination Sequence:
#
# PCOD8320168 Si02
#       6
#    32  32  32  16  32  32
#     4  12  25  41  64  98 133 165 210 261 317 377
#     4   8  16  30  53  86 118 154 202 253 310 370
#     4  10  19  33  56  88 121 170 211 261 319 380
#     4  11  26  50  76  98 126 165 206 258 322 389
#     4   8  15  27  47  80 119 160 216 276 321 371
#     4   9  17  35  64  89 116 158 207 258 302 364
#
# _framework density 20.846927999999998
#
# number of rings (size 3 to 8) (size 9 to 14) (size 15 to 20)
#    0.000    2.455    1.818    2.182    2.545    2.182 
#    0.000    1.818    0.000    2.182    0.000    1.273 
#    0.000    0.000    0.000    0.000    0.000    0.000 
#
# Total GULP energy -1090960.063464 kJ/mol
# GULP energy per Si atom -12397.273448 kJ/mol
# Density = 2.079948 g / cm^3
# Si number density = 20.846928 Si / 1000 Ang^3
#
#
#
# Elastic Constant Matrix: (Units=GPa)
#
#
# Indices 1 2 3 4 5 6 
#
# 1 162.3184 60.0213 41.9171 0.0000 0.0000 0.0000
# 2 60.0213 162.3203 41.9164 0.0000 0.0000 0.0000
# 3 41.9171 41.9164 68.2780 0.0000 0.0000 0.0000
# 4 0.0000 0.0000 0.0000 1.5030 0.0000 0.0000
# 5 0.0000 0.0000 0.0000 0.0000 1.5043 0.0000
# 6 0.0000 0.0000 0.0000 0.0000 0.0000 19.1431
#
#
#
# Elastic Compliance Matrix: (Units=1/GPa)
#
#
# Indices 1 2 3 4 5 6 
#
# 1 0.007814 -0.001962 -0.003593 0.000000 0.000000 0.000000
# 2 -0.001962 0.007814 -0.003593 0.000000 0.000000 0.000000
# 3 -0.003593 -0.003593 0.019057 0.000000 0.000000 0.000000
# 4 0.000000 0.000000 0.000000 0.665323 0.000000 0.000000
# 5 0.000000 0.000000 0.000000 0.000000 0.664779 0.000000
# 6 0.000000 0.000000 0.000000 0.000000 0.000000 0.052238
#
#
# Mechanical properties :
#
#
# Convention : Reuss Voigt Hill
#
# Bulk Modulus (GPa) = 61.01012 75.62513 68.31763
# Shear Modulus (GPa) = 3.47033 21.03421 12.25227
#
# Velocity S-wave (km/s) = 1.29162 3.17990 2.42694
# Velocity P-wave (km/s) = 5.61727 7.05957 6.37931
#
# Compressibility (1/GPa) = 0.01639072
#
# Stress axis : x y z
#
# Youngs Moduli (GPa) = 127.97731 127.97985 52.47334
#
# Poissons Ratio (x) = 0.25104 0.18853
# Poissons Ratio (y) = 0.25103 0.18852
# Poissons Ratio (z) = 0.45981 0.45979
#
# Static dielectric constant tensor:
#      x y z
#    x 4.033050 0.000000 0.000000 
#    y 0.000000 4.033050 0.000000 
#    z 0.000000 0.000000 5.095120 
# 
# 
# High freq. dielectric constant tensor:
#      x y z
#    x 1.822600 0.000000 0.000000 
#    y 0.000000 1.822600 0.000000 
#    z 0.000000 0.000000 1.778930 
# 
# From -- ./inp_files/4956.got.cif
#   From: 2010.06.25/outbox.cif.g09.slc.cpg/sg140_3_cif.got.tgz:4956.got - 2010.06.28 10:53:23.
