data_PCOD8320816
_publ_section_title
;
Structure prediction by ZEFSAII (Michael W. Deem and Ramdas Pophale) SiO2 
 PCOD8320816
Probable space group: I 41/A M D
;
_chemical_formula_sum "Si O2"
_cell_formula_units_Z 144
_cell_length_a 27.824476
_cell_length_b 27.824476
_cell_length_c 9.273273
_cell_angle_alpha 90.000000
_cell_angle_beta 90.000000
_cell_angle_gamma 90.000000
_cell_volume 7179.381539
_symmetry_space_group_name_H-M "I 41/A M D"
_symmetry_group_IT_number 141
_space_group.IT_coordinate_system_code '2'
_symmetry_cell_setting 'tetragonal'
loop_
_space_group_symop_operation_xyz
x,y,z
1/4-y,3/4+x,1/4+z
-x,1/2-y,z
1/4+y,1/4-x,3/4+z
x,-y,-z
-x,1/2+y,-z
1/4+y,3/4+x,1/4-z
1/4-y,1/4-x,3/4-z
-x,-y,-z
3/4+y,1/4-x,3/4-z
x,1/2+y,-z
3/4-y,3/4+x,1/4-z
-x,y,z
x,1/2-y,z
3/4-y,1/4-x,3/4+z
3/4+y,3/4+x,1/4+z
1/2+x,1/2+y,1/2+z
3/4-y,1/4+x,3/4+z
1/2-x,-y,1/2+z
3/4+y,3/4-x,1/4+z
1/2+x,1/2-y,1/2-z
1/2-x,y,1/2-z
3/4+y,1/4+x,3/4-z
3/4-y,3/4-x,1/4-z
1/2-x,1/2-y,1/2-z
1/4+y,3/4-x,1/4-z
1/2+x,y,1/2-z
1/4-y,1/4+x,3/4-z
1/2-x,1/2+y,1/2+z
1/2+x,-y,1/2+z
1/4-y,3/4-x,1/4+z
1/4+y,1/4+x,3/4+z
loop_
_atom_site_type_symbol
_atom_site_label
_atom_site_fract_x
_atom_site_fract_y
_atom_site_fract_z
Si Si1 0.190532 0.194547 0.044286
Si Si2 0.381451 0.696040 0.287591
Si Si3 0.786590 0.463410 0.875000
Si Si4 0.372711 0.619245 0.708736
Si Si5 0.118114 0.509592 0.838813
O O1 0.190213 0.250000 0.100523
O O2 0.166877 0.157798 0.157516
O O3 0.165025 0.190418 0.888856
O O4 0.245461 0.175856 0.018704
O O5 0.392404 0.750000 0.245856
O O6 0.426983 0.676983 0.375000
O O7 0.375151 0.670574 0.134504
O O8 0.750000 0.474104 0.750000
O O9 0.839948 0.470191 0.811816
O O10 0.359521 0.562535 0.690611
O O11 0.381911 0.631911 0.875000
O O12 0.099510 0.500000 0.000000
#
# Coordination Sequence:
#
# PCOD8320816 Si02
#       5
#    32  32  16  32  32
#     4  10  21  40  64  89 119 162 210 256 308 376
#     4   9  19  37  63  88 116 155 205 256 308 369
#     4  10  22  34  54  80 114 162 205 252 300 359
#     4  11  24  39  59  90 130 162 201 264 319 375
#     4  11  21  38  61  85 121 165 213 261 306 368
#
# _framework density 20.057438999999999
#
# number of rings (size 3 to 8) (size 9 to 14) (size 15 to 20)
#    0.000    1.778    2.222    2.667    3.111    3.333 
#    0.000    1.111    0.000    0.000    0.000    3.111 
#    0.000    0.000    0.000    0.000    0.000    0.000 
#
# Total GULP energy -892177.564048 kJ/mol
# GULP energy per Si atom -12391.355056 kJ/mol
# Density = 2.001179 g / cm^3
# Si number density = 20.057439 Si / 1000 Ang^3
#
#
#
# Elastic Constant Matrix: (Units=GPa)
#
#
# Indices 1 2 3 4 5 6 
#
# 1 126.5238 57.2096 34.4468 0.0000 0.0000 0.0000
# 2 57.2096 126.5223 34.4497 0.0000 0.0000 0.0000
# 3 34.4468 34.4497 108.0748 0.0000 0.0000 0.0000
# 4 0.0000 0.0000 0.0000 27.6669 0.0000 0.0000
# 5 0.0000 0.0000 0.0000 0.0000 27.6668 0.0000
# 6 0.0000 0.0000 0.0000 0.0000 0.0000 19.5445
#
#
#
# Elastic Compliance Matrix: (Units=1/GPa)
#
#
# Indices 1 2 3 4 5 6 
#
# 1 0.010304 -0.004123 -0.001970 0.000000 0.000000 0.000000
# 2 -0.004123 0.010305 -0.001971 0.000000 0.000000 0.000000
# 3 -0.001970 -0.001971 0.010509 0.000000 0.000000 0.000000
# 4 0.000000 0.000000 0.000000 0.036144 0.000000 0.000000
# 5 0.000000 0.000000 0.000000 0.000000 0.036144 0.000000
# 6 0.000000 0.000000 0.000000 0.000000 0.000000 0.051165
#
#
# Mechanical properties :
#
#
# Convention : Reuss Voigt Hill
#
# Bulk Modulus (GPa) = 66.70822 68.14813 67.42817
# Shear Modulus (GPa) = 28.45834 30.64330 29.55082
#
# Velocity S-wave (km/s) = 3.77084 3.91292 3.84254
# Velocity P-wave (km/s) = 7.23117 7.38003 7.30598
#
# Compressibility (1/GPa) = 0.01499066
#
# Stress axis : x y z
#
# Youngs Moduli (GPa) = 97.04759 97.04471 95.15732
#
# Poissons Ratio (x) = 0.40010 0.18747
# Poissons Ratio (y) = 0.40011 0.18751
# Poissons Ratio (z) = 0.19119 0.19123
#
# Static dielectric constant tensor:
#      x y z
#    x 3.682290 0.000000 0.000000 
#    y 0.000000 3.682320 0.000000 
#    z 0.000000 0.000000 3.513990 
# 
# 
# High freq. dielectric constant tensor:
#      x y z
#    x 1.779230 0.000000 0.000000 
#    y 0.000000 1.779230 0.000000 
#    z 0.000000 0.000000 1.772820 
# 
# From -- ./inp_files/3141.got.cif
#   From: 2010.03.12/outbox.cif.g09.slc.cpg/sg141_2_cif.got.tgz:3141.got - 2010.04.03 13:18:35.
