data_PCOD8320020
_publ_section_title
;
Structure prediction by ZEFSAII (Michael W. Deem and Ramdas Pophale) SiO2 
 PCOD8320020
Probable space group: I 4/M M M
;
_chemical_formula_sum "Si O2"
_cell_formula_units_Z 192
_cell_length_a 21.557738
_cell_length_b 21.557738
_cell_length_c 30.487251
_cell_angle_alpha 90.000000
_cell_angle_beta 90.000000
_cell_angle_gamma 90.000000
_cell_volume 14168.525144
_symmetry_space_group_name_H-M "I 4/M M M"
_symmetry_group_IT_number 139
_symmetry_cell_setting 'tetragonal'
loop_
_space_group_symop_operation_xyz
x,y,z
-y,x,z
-x,-y,z
y,-x,z
x,-y,-z
-x,y,-z
y,x,-z
-y,-x,-z
-x,-y,-z
y,-x,-z
x,y,-z
-y,x,-z
-x,y,z
x,-y,z
-y,-x,z
y,x,z
1/2+x,1/2+y,1/2+z
1/2-y,1/2+x,1/2+z
1/2-x,1/2-y,1/2+z
1/2+y,1/2-x,1/2+z
1/2+x,1/2-y,1/2-z
1/2-x,1/2+y,1/2-z
1/2+y,1/2+x,1/2-z
1/2-y,1/2-x,1/2-z
1/2-x,1/2-y,1/2-z
1/2+y,1/2-x,1/2-z
1/2+x,1/2+y,1/2-z
1/2-y,1/2+x,1/2-z
1/2-x,1/2+y,1/2+z
1/2+x,1/2-y,1/2+z
1/2-y,1/2-x,1/2+z
1/2+y,1/2+x,1/2+z
loop_
_atom_site_type_symbol
_atom_site_label
_atom_site_fract_x
_atom_site_fract_y
_atom_site_fract_z
Si Si1 0.071304 0.430150 0.108381
Si Si2 0.712196 0.071042 0.749273
Si Si3 0.756136 0.856194 0.878382
Si Si4 0.140892 0.357654 0.320577
Si Si5 0.315453 0.072217 0.949971
Si Si6 0.571589 0.671647 0.693835
O O1 0.087103 0.500000 0.093209
O O2 0.112741 0.413063 0.150161
O O3 0.085616 0.384552 0.067890
O O4 0.000000 0.423825 0.122881
O O5 0.700342 0.113239 0.706448
O O6 0.665207 0.089032 0.788087
O O7 0.782642 0.081578 0.764916
O O8 0.699678 0.000000 0.737098
O O9 0.796170 0.796170 0.890901
O O10 0.697026 0.832806 0.850532
O O11 0.735366 0.889571 0.922898
O O12 0.796131 0.905015 0.850573
O O13 0.298855 0.000000 0.945558
O O14 0.312928 0.094731 0.000000
O O15 0.500000 0.654205 0.687532
O O16 0.609099 0.609099 0.703830
#
# Coordination Sequence:
#
# PCOD8320020 Si02
#       6
#    32  32  32  32  32  32
#     4   9  16  25  37  53  74  99 125 151 177 205
#     4   9  16  25  37  53  74  99 125 151 177 205
#     4   9  17  28  41  56  73  93 117 146 180 216
#     4   9  16  25  37  53  74  99 125 151 177 205
#     4   9  17  28  41  56  73  93 117 146 180 216
#     4   9  17  28  41  56  73  93 117 146 180 216
#
# _framework density 13.551163000000001
#
# number of rings (size 3 to 8) (size 9 to 14) (size 15 to 20)
#    0.000    3.000    0.000    1.500    0.000    5.500 
#    0.000    5.000    0.000    4.000    0.000    0.000 
#    0.000    0.000    0.000   15.500    0.000    0.000 
#
# Total GULP energy -1190266.160192 kJ/mol
# GULP energy per Si atom -12398.605835 kJ/mol
# Density = 1.352032 g / cm^3
# Si number density = 13.551163 Si / 1000 Ang^3
#
#
#
# Elastic Constant Matrix: (Units=GPa)
#
#
# Indices 1 2 3 4 5 6 
#
# 1 85.3388 53.1974 45.0661 0.0000 0.0000 0.0000
# 2 53.1974 85.3388 45.0661 0.0000 0.0000 0.0000
# 3 45.0661 45.0661 93.4701 0.0000 0.0000 0.0000
# 4 0.0000 0.0000 0.0000 16.0707 0.0000 0.0000
# 5 0.0000 0.0000 0.0000 0.0000 16.0707 0.0000
# 6 0.0000 0.0000 0.0000 0.0000 0.0000 24.2020
#
#
#
# Elastic Compliance Matrix: (Units=1/GPa)
#
#
# Indices 1 2 3 4 5 6 
#
# 1 0.020815 -0.010297 -0.005071 0.000000 0.000000 0.000000
# 2 -0.010297 0.020815 -0.005071 0.000000 0.000000 0.000000
# 3 -0.005071 -0.005071 0.015588 0.000000 0.000000 0.000000
# 4 0.000000 0.000000 0.000000 0.062225 0.000000 0.000000
# 5 0.000000 0.000000 0.000000 0.000000 0.062225 0.000000
# 6 0.000000 0.000000 0.000000 0.000000 0.000000 0.041319
#
#
# Mechanical properties :
#
#
# Convention : Reuss Voigt Hill
#
# Bulk Modulus (GPa) = 61.20077 61.20077 61.20077
# Shear Modulus (GPa) = 18.56577 19.32322 18.94450
#
# Velocity S-wave (km/s) = 3.70543 3.78027 3.74304
# Velocity P-wave (km/s) = 7.97294 8.01964 7.99633
#
# Compressibility (1/GPa) = 0.01633966
#
# Stress axis : x y z
#
# Youngs Moduli (GPa) = 48.04224 48.04224 64.14992
#
# Poissons Ratio (x) = 0.49471 0.32530
# Poissons Ratio (y) = 0.49471 0.32530
# Poissons Ratio (z) = 0.24362 0.24362
#
# Static dielectric constant tensor:
#      x y z
#    x 2.639630 0.000000 0.000000 
#    y 0.000000 2.639630 0.000000 
#    z 0.000000 0.000000 2.639630 
# 
# 
# High freq. dielectric constant tensor:
#      x y z
#    x 1.506620 0.000000 0.000000 
#    y 0.000000 1.506620 0.000000 
#    z 0.000000 0.000000 1.506620 
# 
# From -- ./inp_files/13279.got.cif
#   From: 2010.03.12/outbox.cif.g09.slc.cpg/sg139_7_cif.got.tgz:13279.got - 2010.04.08 09:46:31.
