data_PCOD8320086
_publ_section_title
;
Structure prediction by ZEFSAII (Michael W. Deem and Ramdas Pophale) SiO2 
 PCOD8320086
Probable space group: I 4/M C M
;
_chemical_formula_sum "Si O2"
_cell_formula_units_Z 144
_cell_length_a 18.563691
_cell_length_b 18.563691
_cell_length_c 22.287434
_cell_angle_alpha 90.000000
_cell_angle_beta 90.000000
_cell_angle_gamma 90.000000
_cell_volume 7680.486528
_symmetry_space_group_name_H-M "I 4/M C M"
_symmetry_group_IT_number 140
_symmetry_cell_setting 'tetragonal'
loop_
_space_group_symop_operation_xyz
x,y,z
-y,x,z
-x,-y,z
y,-x,z
x,-y,1/2-z
-x,y,1/2-z
y,x,1/2-z
-y,-x,1/2-z
-x,-y,-z
y,-x,-z
x,y,-z
-y,x,-z
-x,y,1/2+z
x,-y,1/2+z
-y,-x,1/2+z
y,x,1/2+z
1/2+x,1/2+y,1/2+z
1/2-y,1/2+x,1/2+z
1/2-x,1/2-y,1/2+z
1/2+y,1/2-x,1/2+z
1/2+x,1/2-y,-z
1/2-x,1/2+y,-z
1/2+y,1/2+x,-z
1/2-y,1/2-x,-z
1/2-x,1/2-y,1/2-z
1/2+y,1/2-x,1/2-z
1/2+x,1/2+y,1/2-z
1/2-y,1/2+x,1/2-z
1/2-x,1/2+y,z
1/2+x,1/2-y,z
1/2-y,1/2-x,z
1/2+y,1/2+x,z
loop_
_atom_site_type_symbol
_atom_site_label
_atom_site_fract_x
_atom_site_fract_y
_atom_site_fract_z
Si Si1 0.329532 0.286890 0.065103
Si Si2 0.747767 0.637845 0.732150
Si Si3 0.769103 0.617468 0.135558
Si Si4 0.780655 0.457563 0.881287
Si Si5 0.560975 0.060975 0.571699
O O1 0.288573 0.211428 0.069952
O O2 0.303602 0.339045 0.118489
O O3 0.412965 0.265911 0.070908
O O4 0.316647 0.323478 0.000000
O O5 0.667139 0.667139 0.750000
O O6 0.794003 0.705998 0.707460
O O7 0.780864 0.608002 0.793689
O O8 0.756178 0.574034 0.683801
O O9 0.837937 0.662064 0.108707
O O10 0.757769 0.539362 0.108296
O O11 0.865435 0.459681 0.894860
O O12 0.571438 0.071438 0.500000
O O13 0.500000 0.000000 0.584263
#
# Coordination Sequence:
#
# PCOD8320086 Si02
#       5
#    32  32  32  32  16
#     4  10  20  36  57  82 111 151 203 247 288 352
#     4  10  18  34  59  85 111 148 196 246 285 347
#     4  10  22  36  56  87 120 147 189 246 302 352
#     4  12  20  36  59  85 116 155 197 243 300 359
#     4  11  24  38  55  84 124 166 202 236 290 367
#
# _framework density 18.748812000000001
#
# number of rings (size 3 to 8) (size 9 to 14) (size 15 to 20)
#    0.000    1.444    4.444    2.000    0.000    1.778 
#    0.000    2.222    0.000    0.667    0.000    3.111 
#    0.000    0.000    0.000    0.000    0.000    0.000 
#
# Total GULP energy -892011.451780 kJ/mol
# GULP energy per Si atom -12389.047941 kJ/mol
# Density = 1.870614 g / cm^3
# Si number density = 18.748812 Si / 1000 Ang^3
#
#
#
# Elastic Constant Matrix: (Units=GPa)
#
#
# Indices 1 2 3 4 5 6 
#
# 1 104.3847 57.9212 25.0625 0.0000 0.0000 0.0000
# 2 57.9212 104.3847 25.0625 0.0000 0.0000 0.0000
# 3 25.0625 25.0625 94.7816 0.0000 0.0000 0.0000
# 4 0.0000 0.0000 0.0000 22.9613 0.0000 0.0000
# 5 0.0000 0.0000 0.0000 0.0000 22.9613 0.0000
# 6 0.0000 0.0000 0.0000 0.0000 0.0000 22.9858
#
#
#
# Elastic Compliance Matrix: (Units=1/GPa)
#
#
# Indices 1 2 3 4 5 6 
#
# 1 0.014116 -0.007407 -0.001774 0.000000 0.000000 0.000000
# 2 -0.007407 0.014116 -0.001774 0.000000 0.000000 0.000000
# 3 -0.001774 -0.001774 0.011489 0.000000 0.000000 0.000000
# 4 0.000000 0.000000 0.000000 0.043551 0.000000 0.000000
# 5 0.000000 0.000000 0.000000 0.000000 0.043551 0.000000
# 6 0.000000 0.000000 0.000000 0.000000 0.000000 0.043505
#
#
# Mechanical properties :
#
#
# Convention : Reuss Voigt Hill
#
# Bulk Modulus (GPa) = 56.14581 57.73817 56.94199
# Shear Modulus (GPa) = 25.23029 26.81535 26.02282
#
# Velocity S-wave (km/s) = 3.67236 3.78596 3.72959
# Velocity P-wave (km/s) = 6.92770 7.06921 6.99881
#
# Compressibility (1/GPa) = 0.01781077
#
# Stress axis : x y z
#
# Youngs Moduli (GPa) = 70.84319 70.84319 87.04154
#
# Poissons Ratio (x) = 0.52471 0.15442
# Poissons Ratio (y) = 0.52471 0.15442
# Poissons Ratio (z) = 0.12568 0.12568
#
# Static dielectric constant tensor:
#      x y z
#    x 3.319890 0.000000 0.000000 
#    y 0.000000 3.319890 0.000000 
#    z 0.000000 0.000000 3.561960 
# 
# 
# High freq. dielectric constant tensor:
#      x y z
#    x 1.706650 0.000000 0.000000 
#    y 0.000000 1.706650 0.000000 
#    z 0.000000 0.000000 1.743150 
# 
# From -- ./inp_files/10428.got.cif
#   From: 2010.06.25/outbox.cif.g09.slc.cpg/sg140_6_cif.got.tgz:10428.got - 2010.06.28 10:53:23.
