data_PCOD8320179
_publ_section_title
;
Structure prediction by ZEFSAII (Michael W. Deem and Ramdas Pophale) SiO2 
 PCOD8320179
Probable space group: I 4/M C M
;
_chemical_formula_sum "Si O2"
_cell_formula_units_Z 160
_cell_length_a 21.099832
_cell_length_b 21.099832
_cell_length_c 18.655541
_cell_angle_alpha 90.000000
_cell_angle_beta 90.000000
_cell_angle_gamma 90.000000
_cell_volume 8305.501149
_symmetry_space_group_name_H-M "I 4/M C M"
_symmetry_group_IT_number 140
_symmetry_cell_setting 'tetragonal'
loop_
_space_group_symop_operation_xyz
x,y,z
-y,x,z
-x,-y,z
y,-x,z
x,-y,1/2-z
-x,y,1/2-z
y,x,1/2-z
-y,-x,1/2-z
-x,-y,-z
y,-x,-z
x,y,-z
-y,x,-z
-x,y,1/2+z
x,-y,1/2+z
-y,-x,1/2+z
y,x,1/2+z
1/2+x,1/2+y,1/2+z
1/2-y,1/2+x,1/2+z
1/2-x,1/2-y,1/2+z
1/2+y,1/2-x,1/2+z
1/2+x,1/2-y,-z
1/2-x,1/2+y,-z
1/2+y,1/2+x,-z
1/2-y,1/2-x,-z
1/2-x,1/2-y,1/2-z
1/2+y,1/2-x,1/2-z
1/2+x,1/2+y,1/2-z
1/2-y,1/2+x,1/2-z
1/2-x,1/2+y,z
1/2+x,1/2-y,z
1/2-y,1/2-x,z
1/2+y,1/2+x,z
loop_
_atom_site_type_symbol
_atom_site_label
_atom_site_fract_x
_atom_site_fract_y
_atom_site_fract_z
Si Si1 0.062728 0.337765 0.655720
Si Si2 0.220579 0.173440 0.322050
Si Si3 0.466961 0.405995 0.914871
Si Si4 0.323085 0.923026 0.823863
Si Si5 0.287405 0.610354 0.915264
O O1 0.096797 0.403204 0.629690
O O2 0.067685 0.334327 0.740357
O O3 0.099908 0.279803 0.621018
O O4 0.988920 0.333546 0.633292
O O5 0.177399 0.177399 0.250000
O O6 0.277571 0.222430 0.314088
O O7 0.251640 0.103863 0.333329
O O8 0.179109 0.187556 0.391992
O O9 0.538144 0.419747 0.886724
O O10 0.442461 0.337843 0.887763
O O11 0.465451 0.407369 0.000000
O O12 0.374428 0.874428 0.856263
O O13 0.279357 0.609413 0.000000
#
# Coordination Sequence:
#
# PCOD8320179 Si02
#       5
#    32  32  32  32  32
#     4  10  20  35  55  82 113 144 185 236 288 338
#     4  10  19  35  55  76 108 145 179 222 275 331
#     4   8  16  32  50  70 102 142 179 216 263 324
#     4   9  19  36  58  81 107 144 190 235 282 338
#     4  11  22  33  54  84 113 144 183 228 282 343
#
# _framework density 19.264340000000001
#
# number of rings (size 3 to 8) (size 9 to 14) (size 15 to 20)
#    0.000    2.400    2.000    1.200    2.800    2.000 
#    0.000    2.000    0.000    1.800    0.000    2.800 
#    0.000    0.000    0.000    0.000    0.000    0.000 
#
# Total GULP energy -991609.145102 kJ/mol
# GULP energy per Si atom -12395.114314 kJ/mol
# Density = 1.922049 g / cm^3
# Si number density = 19.264340 Si / 1000 Ang^3
#
#
#
# Elastic Constant Matrix: (Units=GPa)
#
#
# Indices 1 2 3 4 5 6 
#
# 1 125.5423 55.5235 14.7785 0.0000 0.0000 0.0000
# 2 55.5235 125.5423 14.7785 0.0000 0.0000 0.0000
# 3 14.7785 14.7785 13.3198 0.0000 0.0000 0.0000
# 4 0.0000 0.0000 0.0000 15.9956 0.0000 0.0000
# 5 0.0000 0.0000 0.0000 0.0000 15.9956 0.0000
# 6 0.0000 0.0000 0.0000 0.0000 0.0000 27.8408
#
#
#
# Elastic Compliance Matrix: (Units=1/GPa)
#
#
# Indices 1 2 3 4 5 6 
#
# 1 0.010513 -0.003769 -0.007483 0.000000 0.000000 0.000000
# 2 -0.003769 0.010513 -0.007483 0.000000 0.000000 0.000000
# 3 -0.007483 -0.007483 0.091681 0.000000 0.000000 0.000000
# 4 0.000000 0.000000 0.000000 0.062517 0.000000 0.000000
# 5 0.000000 0.000000 0.000000 0.000000 0.062517 0.000000
# 6 0.000000 0.000000 0.000000 0.000000 0.000000 0.035918
#
#
# Mechanical properties :
#
#
# Convention : Reuss Voigt Hill
#
# Bulk Modulus (GPa) = 13.29115 48.28506 30.78811
# Shear Modulus (GPa) = 14.87168 23.92131 19.39650
#
# Velocity S-wave (km/s) = 2.78147 3.52766 3.17655
# Velocity P-wave (km/s) = 4.15087 6.45843 5.42868
#
# Compressibility (1/GPa) = 0.07523801
#
# Stress axis : x y z
#
# Youngs Moduli (GPa) = 95.11918 95.11918 10.90735
#
# Poissons Ratio (x) = 0.35848 0.08162
# Poissons Ratio (y) = 0.35848 0.08162
# Poissons Ratio (z) = 0.71178 0.71178
#
# Static dielectric constant tensor:
#      x y z
#    x 4.449590 0.000000 0.000000 
#    y 0.000000 4.449590 0.000000 
#    z 0.000000 0.000000 3.054950 
# 
# 
# High freq. dielectric constant tensor:
#      x y z
#    x 1.755320 0.000000 0.000000 
#    y 0.000000 1.755320 0.000000 
#    z 0.000000 0.000000 1.701410 
# 
# From -- ./inp_files/6793.got.cif
#   From: 2010.06.25/outbox.cif.g09.slc.cpg/sg140_4_cif.got.tgz:6793.got - 2010.06.28 10:53:23.
