data_PCOD8320867
_publ_section_title
;
Structure prediction by ZEFSAII (Michael W. Deem and Ramdas Pophale) SiO2 
 PCOD8320867
Probable space group: I 41/A M D
;
_chemical_formula_sum "Si O2"
_cell_formula_units_Z 160
_cell_length_a 25.054269
_cell_length_b 25.054269
_cell_length_c 11.833980
_cell_angle_alpha 90.000000
_cell_angle_beta 90.000000
_cell_angle_gamma 90.000000
_cell_volume 7428.383266
_symmetry_space_group_name_H-M "I 41/A M D"
_symmetry_group_IT_number 141
_space_group.IT_coordinate_system_code '2'
_symmetry_cell_setting 'tetragonal'
loop_
_space_group_symop_operation_xyz
x,y,z
1/4-y,3/4+x,1/4+z
-x,1/2-y,z
1/4+y,1/4-x,3/4+z
x,-y,-z
-x,1/2+y,-z
1/4+y,3/4+x,1/4-z
1/4-y,1/4-x,3/4-z
-x,-y,-z
3/4+y,1/4-x,3/4-z
x,1/2+y,-z
3/4-y,3/4+x,1/4-z
-x,y,z
x,1/2-y,z
3/4-y,1/4-x,3/4+z
3/4+y,3/4+x,1/4+z
1/2+x,1/2+y,1/2+z
3/4-y,1/4+x,3/4+z
1/2-x,-y,1/2+z
3/4+y,3/4-x,1/4+z
1/2+x,1/2-y,1/2-z
1/2-x,y,1/2-z
3/4+y,1/4+x,3/4-z
3/4-y,3/4-x,1/4-z
1/2-x,1/2-y,1/2-z
1/4+y,3/4-x,1/4-z
1/2+x,y,1/2-z
1/4-y,1/4+x,3/4-z
1/2-x,1/2+y,1/2+z
1/2+x,-y,1/2+z
1/4-y,3/4-x,1/4+z
1/4+y,1/4+x,3/4+z
loop_
_atom_site_type_symbol
_atom_site_label
_atom_site_fract_x
_atom_site_fract_y
_atom_site_fract_z
Si Si1 0.300509 0.250000 0.551246
Si Si2 0.092762 0.861201 0.502851
Si Si3 0.170077 0.895159 0.310821
Si Si4 0.689327 0.750000 0.708999
Si Si5 0.884913 0.527506 0.158060
Si Si6 0.060048 0.750000 0.415867
Si Si7 0.000000 0.334533 0.915432
O O1 0.317272 0.250000 0.423195
O O2 0.264100 0.302407 0.574398
O O3 0.356296 0.250000 0.615925
O O4 0.119837 0.869837 0.625000
O O5 0.132724 0.864505 0.397647
O O6 0.068862 0.801772 0.494191
O O7 0.051385 0.909163 0.504111
O O8 0.142213 0.950827 0.273611
O O9 0.227085 0.901270 0.372872
O O10 0.179064 0.863571 0.193502
O O11 0.750000 0.750000 0.750000
O O12 0.093935 0.750000 0.300486
O O13 0.000000 0.750000 0.370636
O O14 0.053049 0.303049 0.875000
#
# Coordination Sequence:
#
# PCOD8320867 Si02
#       7
#    16  32  32  16  32  16  16
#     4  12  23  39  72 101 142 179 218 292 357 417
#     4  12  26  43  68  97 136 185 232 276 338 417
#     4  10  23  44  71 100 136 181 228 295 346 420
#     4  12  27  45  66  98 137 186 228 278 342 410
#     4  10  23  43  74 102 140 174 231 288 366 406
#     4  12  23  40  62  98 141 178 228 271 346 418
#     4  11  22  35  63 105 133 177 228 275 345 420
#
# _framework density 21.539007000000002
#
# number of rings (size 3 to 8) (size 9 to 14) (size 15 to 20)
#    0.000    0.900    4.000    3.000    5.600    2.400 
#    0.000    0.000   30.800    0.000    0.000    0.000 
#    0.000    0.000    0.000    0.000    0.000    0.000 
#
# Total GULP energy -991527.113646 kJ/mol
# GULP energy per Si atom -12394.088921 kJ/mol
# Density = 2.148998 g / cm^3
# Si number density = 21.539007 Si / 1000 Ang^3
#
#
#
# Elastic Constant Matrix: (Units=GPa)
#
#
# Indices 1 2 3 4 5 6 
#
# 1 120.7658 55.1152 44.9978 0.0000 0.0000 0.0000
# 2 55.1152 120.7658 44.9978 0.0000 0.0000 0.0000
# 3 44.9978 44.9978 123.2474 0.0000 0.0000 0.0000
# 4 0.0000 0.0000 0.0000 31.4437 0.0000 0.0000
# 5 0.0000 0.0000 0.0000 0.0000 31.4437 0.0000
# 6 0.0000 0.0000 0.0000 0.0000 0.0000 19.3577
#
#
#
# Elastic Compliance Matrix: (Units=1/GPa)
#
#
# Indices 1 2 3 4 5 6 
#
# 1 0.011112 -0.004120 -0.002553 0.000000 0.000000 0.000000
# 2 -0.004120 0.011112 -0.002553 0.000000 0.000000 0.000000
# 3 -0.002553 -0.002553 0.009978 0.000000 0.000000 0.000000
# 4 0.000000 0.000000 0.000000 0.031803 0.000000 0.000000
# 5 0.000000 0.000000 0.000000 0.000000 0.031803 0.000000
# 6 0.000000 0.000000 0.000000 0.000000 0.000000 0.051659
#
#
# Mechanical properties :
#
#
# Convention : Reuss Voigt Hill
#
# Bulk Modulus (GPa) = 72.72439 72.77785 72.75112
# Shear Modulus (GPa) = 29.32527 31.09355 30.20941
#
# Velocity S-wave (km/s) = 3.69385 3.80359 3.74912
# Velocity P-wave (km/s) = 7.21318 7.29053 7.25196
#
# Compressibility (1/GPa) = 0.01375054
#
# Stress axis : x y z
#
# Youngs Moduli (GPa) = 89.99278 89.99278 100.22265
#
# Poissons Ratio (x) = 0.37078 0.25584
# Poissons Ratio (y) = 0.37078 0.25584
# Poissons Ratio (z) = 0.22973 0.22973
#
# Static dielectric constant tensor:
#      x y z
#    x 3.857800 0.000000 0.000000 
#    y 0.000000 3.857800 0.000000 
#    z 0.000000 0.000000 4.099990 
# 
# 
# High freq. dielectric constant tensor:
#      x y z
#    x 1.835850 0.000000 0.000000 
#    y 0.000000 1.835850 0.000000 
#    z 0.000000 0.000000 1.860510 
# 
# From -- ./inp_files/4952.got.cif
#   From: 2010.03.12/outbox.cif.g09.slc.cpg/sg141_3_cif.got.tgz:4952.got - 2010.04.03 13:18:35.
