data_PCOD8320079
_publ_section_title
;
Structure prediction by ZEFSAII (Michael W. Deem and Ramdas Pophale) SiO2 
 PCOD8320079
Probable space group: I 4/M C M
;
_chemical_formula_sum "Si O2"
_cell_formula_units_Z 144
_cell_length_a 29.018163
_cell_length_b 29.018163
_cell_length_c 8.997397
_cell_angle_alpha 90.000000
_cell_angle_beta 90.000000
_cell_angle_gamma 90.000000
_cell_volume 7576.292189
_symmetry_space_group_name_H-M "I 4/M C M"
_symmetry_group_IT_number 140
_symmetry_cell_setting 'tetragonal'
loop_
_space_group_symop_operation_xyz
x,y,z
-y,x,z
-x,-y,z
y,-x,z
x,-y,1/2-z
-x,y,1/2-z
y,x,1/2-z
-y,-x,1/2-z
-x,-y,-z
y,-x,-z
x,y,-z
-y,x,-z
-x,y,1/2+z
x,-y,1/2+z
-y,-x,1/2+z
y,x,1/2+z
1/2+x,1/2+y,1/2+z
1/2-y,1/2+x,1/2+z
1/2-x,1/2-y,1/2+z
1/2+y,1/2-x,1/2+z
1/2+x,1/2-y,-z
1/2-x,1/2+y,-z
1/2+y,1/2+x,-z
1/2-y,1/2-x,-z
1/2-x,1/2-y,1/2-z
1/2+y,1/2-x,1/2-z
1/2+x,1/2+y,1/2-z
1/2-y,1/2+x,1/2-z
1/2-x,1/2+y,z
1/2+x,1/2-y,z
1/2-y,1/2-x,z
1/2+y,1/2+x,z
loop_
_atom_site_type_symbol
_atom_site_label
_atom_site_fract_x
_atom_site_fract_y
_atom_site_fract_z
Si Si1 0.214650 0.714650 0.678300
Si Si2 0.742001 0.049794 0.822269
Si Si3 0.624847 0.196196 0.670104
Si Si4 0.958191 0.897811 0.837573
Si Si5 0.821018 0.117374 0.162843
O O1 0.250000 0.750000 0.750000
O O2 0.216216 0.716216 0.500000
O O3 0.227274 0.662928 0.738995
O O4 0.696803 0.075346 0.755175
O O5 0.781630 0.085130 0.763950
O O6 0.748734 0.000000 0.750000
O O7 0.740716 0.044570 0.000000
O O8 0.620275 0.213949 0.500000
O O9 0.643313 0.143313 0.671318
O O10 0.944027 0.944027 0.750000
O O11 0.914760 0.865096 0.851625
O O12 0.000000 0.873019 0.750000
O O13 0.976321 0.911343 0.000000
O O14 0.836074 0.163927 0.250000
O O15 0.804513 0.133722 0.000000
#
# Coordination Sequence:
#
# PCOD8320079 Si02
#       5
#    16  32  32  32  32
#     4  10  18  32  54  80 110 150 197 242 291 350
#     4  11  22  36  56  83 114 150 193 241 295 353
#     4   9  20  37  55  78 110 147 188 236 289 343
#     4  10  19  32  47  63  83 108 143 188 245 306
#     4   9  20  35  51  72  98 132 172 219 273 330
#
# _framework density 19.006658999999999
#
# number of rings (size 3 to 8) (size 9 to 14) (size 15 to 20)
#    0.667    1.556    0.000    3.333    0.000    3.778 
#    0.000    3.333    0.000    0.000    0.000    0.000 
#    0.000    0.444    0.000    4.667    0.000    2.000 
#
# Total GULP energy -891954.817167 kJ/mol
# GULP energy per Si atom -12388.261350 kJ/mol
# Density = 1.896340 g / cm^3
# Si number density = 19.006659 Si / 1000 Ang^3
#
#
#
# Elastic Constant Matrix: (Units=GPa)
#
#
# Indices 1 2 3 4 5 6 
#
# 1 65.3389 36.8266 37.9801 0.0000 0.0000 0.0000
# 2 36.8266 65.3384 37.9798 0.0000 0.0000 0.0000
# 3 37.9801 37.9798 141.4693 0.0000 0.0000 0.0000
# 4 0.0000 0.0000 0.0000 26.9434 0.0000 0.0000
# 5 0.0000 0.0000 0.0000 0.0000 26.9436 0.0000
# 6 0.0000 0.0000 0.0000 0.0000 0.0000 18.6492
#
#
#
# Elastic Compliance Matrix: (Units=1/GPa)
#
#
# Indices 1 2 3 4 5 6 
#
# 1 0.023651 -0.011422 -0.003283 0.000000 0.000000 0.000000
# 2 -0.011422 0.023651 -0.003283 0.000000 0.000000 0.000000
# 3 -0.003283 -0.003283 0.008831 0.000000 0.000000 0.000000
# 4 0.000000 0.000000 0.000000 0.037115 0.000000 0.000000
# 5 0.000000 0.000000 0.000000 0.000000 0.037115 0.000000
# 6 0.000000 0.000000 0.000000 0.000000 0.000000 0.053622
#
#
# Mechanical properties :
#
#
# Convention : Reuss Voigt Hill
#
# Bulk Modulus (GPa) = 49.61015 55.30218 52.45617
# Shear Modulus (GPa) = 22.05753 25.13123 23.59438
#
# Velocity S-wave (km/s) = 3.41033 3.64020 3.52714
# Velocity P-wave (km/s) = 6.45486 6.84306 6.65179
#
# Compressibility (1/GPa) = 0.02015717
#
# Stress axis : x y z
#
# Youngs Moduli (GPa) = 42.28167 42.28135 113.23118
#
# Poissons Ratio (x) = 0.48294 0.37175
# Poissons Ratio (y) = 0.48294 0.37175
# Poissons Ratio (z) = 0.13882 0.13881
#
# Static dielectric constant tensor:
#      x y z
#    x 3.329640 0.000000 0.000000 
#    y 0.000000 3.329650 0.000000 
#    z 0.000000 0.000000 3.828320 
# 
# 
# High freq. dielectric constant tensor:
#      x y z
#    x 1.713200 0.000000 0.000000 
#    y 0.000000 1.713200 0.000000 
#    z 0.000000 0.000000 1.756640 
# 
# From -- ./inp_files/1605.got.cif
#   From: 2010.06.25/outbox.cif.g09.slc.cpg/sg140_1_cif.got.tgz:1605.got - 2010.06.28 10:53:23.
