data_PCOD8320133
_publ_section_title
;
Structure prediction by ZEFSAII (Michael W. Deem and Ramdas Pophale) SiO2 
 PCOD8320133
Probable space group: I 4/M C M
;
_chemical_formula_sum "Si O2"
_cell_formula_units_Z 144
_cell_length_a 28.069413
_cell_length_b 28.069413
_cell_length_c 9.323954
_cell_angle_alpha 90.000000
_cell_angle_beta 90.000000
_cell_angle_gamma 90.000000
_cell_volume 7346.268263
_symmetry_space_group_name_H-M "I 4/M C M"
_symmetry_group_IT_number 140
_symmetry_cell_setting 'tetragonal'
loop_
_space_group_symop_operation_xyz
x,y,z
-y,x,z
-x,-y,z
y,-x,z
x,-y,1/2-z
-x,y,1/2-z
y,x,1/2-z
-y,-x,1/2-z
-x,-y,-z
y,-x,-z
x,y,-z
-y,x,-z
-x,y,1/2+z
x,-y,1/2+z
-y,-x,1/2+z
y,x,1/2+z
1/2+x,1/2+y,1/2+z
1/2-y,1/2+x,1/2+z
1/2-x,1/2-y,1/2+z
1/2+y,1/2-x,1/2+z
1/2+x,1/2-y,-z
1/2-x,1/2+y,-z
1/2+y,1/2+x,-z
1/2-y,1/2-x,-z
1/2-x,1/2-y,1/2-z
1/2+y,1/2-x,1/2-z
1/2+x,1/2+y,1/2-z
1/2-y,1/2+x,1/2-z
1/2-x,1/2+y,z
1/2+x,1/2-y,z
1/2-y,1/2-x,z
1/2+y,1/2+x,z
loop_
_atom_site_type_symbol
_atom_site_label
_atom_site_fract_x
_atom_site_fract_y
_atom_site_fract_z
Si Si1 0.146666 0.570925 0.656896
Si Si2 0.604505 0.457395 0.839793
Si Si3 0.238019 0.548365 0.171591
Si Si4 0.621888 0.316171 0.658226
Si Si5 0.000000 0.426449 0.250000
O O1 0.171531 0.574054 0.500000
O O2 0.120602 0.620602 0.694463
O O3 0.184484 0.560535 0.781171
O O4 0.107847 0.528587 0.642211
O O5 0.629062 0.500000 0.750000
O O6 0.557751 0.442250 0.750000
O O7 0.640200 0.413942 0.850814
O O8 0.590555 0.474426 0.000000
O O9 0.255211 0.500000 0.250000
O O10 0.271198 0.592642 0.221603
O O11 0.240646 0.540903 0.000000
O O12 0.668364 0.331637 0.750000
O O13 0.640954 0.303324 0.500000
O O14 0.960937 0.460937 0.170656
#
# Coordination Sequence:
#
# PCOD8320133 Si02
#       5
#    32  32  32  32  16
#     4  10  21  36  54  80 115 153 193 236 282 329
#     4  10  19  32  48  68  95 127 163 204 252 307
#     4  11  22  36  56  84 114 147 187 228 277 334
#     4   9  20  36  55  79 105 134 172 220 274 331
#     4   9  18  32  52  80 116 156 198 238 273 314
#
# _framework density 19.601787999999999
#
# number of rings (size 3 to 8) (size 9 to 14) (size 15 to 20)
#    0.000    2.111    1.111    2.000    0.000    3.778 
#    0.000    5.556    0.000    0.667    0.000    0.000 
#    0.000    0.000    0.000    0.000    0.000    0.000 
#
# Total GULP energy -892043.598225 kJ/mol
# GULP energy per Si atom -12389.494420 kJ/mol
# Density = 1.955717 g / cm^3
# Si number density = 19.601788 Si / 1000 Ang^3
#
#
#
# Elastic Constant Matrix: (Units=GPa)
#
#
# Indices 1 2 3 4 5 6 
#
# 1 88.9546 41.4895 39.7842 0.0000 0.0000 0.0000
# 2 41.4895 88.9539 39.7850 0.0000 0.0000 0.0000
# 3 39.7842 39.7850 108.9294 0.0000 0.0000 0.0000
# 4 0.0000 0.0000 0.0000 20.9911 0.0000 0.0000
# 5 0.0000 0.0000 0.0000 0.0000 20.9909 0.0000
# 6 0.0000 0.0000 0.0000 0.0000 0.0000 35.3217
#
#
#
# Elastic Compliance Matrix: (Units=1/GPa)
#
#
# Indices 1 2 3 4 5 6 
#
# 1 0.015466 -0.005602 -0.003602 0.000000 0.000000 0.000000
# 2 -0.005602 0.015466 -0.003603 0.000000 0.000000 0.000000
# 3 -0.003602 -0.003603 0.011812 0.000000 0.000000 0.000000
# 4 0.000000 0.000000 0.000000 0.047639 0.000000 0.000000
# 5 0.000000 0.000000 0.000000 0.000000 0.047640 0.000000
# 6 0.000000 0.000000 0.000000 0.000000 0.000000 0.028311
#
#
# Mechanical properties :
#
#
# Convention : Reuss Voigt Hill
#
# Bulk Modulus (GPa) = 58.38067 58.77281 58.57674
# Shear Modulus (GPa) = 25.29618 26.51267 25.90443
#
# Velocity S-wave (km/s) = 3.59626 3.68171 3.63923
# Velocity P-wave (km/s) = 6.86237 6.93699 6.89978
#
# Compressibility (1/GPa) = 0.01712896
#
# Stress axis : x y z
#
# Youngs Moduli (GPa) = 64.65870 64.65761 84.66115
#
# Poissons Ratio (x) = 0.36223 0.30498
# Poissons Ratio (y) = 0.36224 0.30501
# Poissons Ratio (z) = 0.23293 0.23294
#
# Static dielectric constant tensor:
#      x y z
#    x 3.530650 0.000000 0.000000 
#    y 0.000000 3.530650 0.000000 
#    z 0.000000 0.000000 3.698390 
# 
# 
# High freq. dielectric constant tensor:
#      x y z
#    x 1.747860 0.000000 0.000000 
#    y 0.000000 1.747860 0.000000 
#    z 0.000000 0.000000 1.760630 
# 
# From -- ./inp_files/1676.got.cif
#   From: 2010.06.25/outbox.cif.g09.slc.cpg/sg140_1_cif.got.tgz:1676.got - 2010.06.28 10:53:23.
