data_PCOD8320790
_publ_section_title
;
Structure prediction by ZEFSAII (Michael W. Deem and Ramdas Pophale) SiO2 
 PCOD8320790
Probable space group: I 41/A M D
;
_chemical_formula_sum "Si O2"
_cell_formula_units_Z 160
_cell_length_a 22.976106
_cell_length_b 22.976106
_cell_length_c 13.926541
_cell_angle_alpha 90.000000
_cell_angle_beta 90.000000
_cell_angle_gamma 90.000000
_cell_volume 7351.841145
_symmetry_space_group_name_H-M "I 41/A M D"
_symmetry_group_IT_number 141
_space_group.IT_coordinate_system_code '2'
_symmetry_cell_setting 'tetragonal'
loop_
_space_group_symop_operation_xyz
x,y,z
1/4-y,3/4+x,1/4+z
-x,1/2-y,z
1/4+y,1/4-x,3/4+z
x,-y,-z
-x,1/2+y,-z
1/4+y,3/4+x,1/4-z
1/4-y,1/4-x,3/4-z
-x,-y,-z
3/4+y,1/4-x,3/4-z
x,1/2+y,-z
3/4-y,3/4+x,1/4-z
-x,y,z
x,1/2-y,z
3/4-y,1/4-x,3/4+z
3/4+y,3/4+x,1/4+z
1/2+x,1/2+y,1/2+z
3/4-y,1/4+x,3/4+z
1/2-x,-y,1/2+z
3/4+y,3/4-x,1/4+z
1/2+x,1/2-y,1/2-z
1/2-x,y,1/2-z
3/4+y,1/4+x,3/4-z
3/4-y,3/4-x,1/4-z
1/2-x,1/2-y,1/2-z
1/4+y,3/4-x,1/4-z
1/2+x,y,1/2-z
1/4-y,1/4+x,3/4-z
1/2-x,1/2+y,1/2+z
1/2+x,-y,1/2+z
1/4-y,3/4-x,1/4+z
1/4+y,1/4+x,3/4+z
loop_
_atom_site_type_symbol
_atom_site_label
_atom_site_fract_x
_atom_site_fract_y
_atom_site_fract_z
Si Si1 0.649064 0.490270 0.111607
Si Si2 0.434045 0.609424 0.813389
Si Si3 0.106969 0.909799 0.260474
Si Si4 0.805328 0.683861 0.183935
Si Si5 0.564712 0.313143 0.363465
O O1 0.714215 0.464215 0.125000
O O2 0.604246 0.446314 0.161547
O O3 0.644172 0.551468 0.165385
O O4 0.634036 0.500000 0.000000
O O5 0.500000 0.592476 0.836504
O O6 0.414964 0.664964 0.875000
O O7 0.426105 0.630569 0.704086
O O8 0.147589 0.862087 0.213824
O O9 0.076814 0.952469 0.181270
O O10 0.059979 0.869066 0.313571
O O11 0.826175 0.750000 0.200738
O O12 0.750000 0.671237 0.250000
O O13 0.500000 0.320018 0.411521
O O14 0.566261 0.250000 0.310099
#
# Coordination Sequence:
#
# PCOD8320790 Si02
#       5
#    32  32  32  32  32
#     4  11  26  44  64  95 134 175 227 279 332 397
#     4  10  21  37  60  91 131 177 222 274 329 391
#     4  11  23  42  69  96 132 178 220 274 341 395
#     4  10  24  43  67  99 131 170 224 277 333 403
#     4  10  21  38  65 100 137 176 220 273 335 404
#
# _framework density 21.763255000000001
#
# number of rings (size 3 to 8) (size 9 to 14) (size 15 to 20)
#    0.000    1.600    0.000    4.200    5.600    3.800 
#    0.000    0.000    0.000    4.800    0.000    0.000 
#    0.000    0.000    0.000    0.000    0.000    0.000 
#
# Total GULP energy -991103.371785 kJ/mol
# GULP energy per Si atom -12388.792147 kJ/mol
# Density = 2.171372 g / cm^3
# Si number density = 21.763255 Si / 1000 Ang^3
#
#
#
# Elastic Constant Matrix: (Units=GPa)
#
#
# Indices 1 2 3 4 5 6 
#
# 1 106.2864 44.3748 45.7631 0.0000 0.0000 0.0000
# 2 44.3748 106.2864 45.7631 0.0000 0.0000 0.0000
# 3 45.7631 45.7631 107.7563 0.0000 0.0000 0.0000
# 4 0.0000 0.0000 0.0000 34.9217 0.0000 0.0000
# 5 0.0000 0.0000 0.0000 0.0000 34.9217 0.0000
# 6 0.0000 0.0000 0.0000 0.0000 0.0000 32.4618
#
#
#
# Elastic Compliance Matrix: (Units=1/GPa)
#
#
# Indices 1 2 3 4 5 6 
#
# 1 0.012549 -0.003603 -0.003799 0.000000 0.000000 0.000000
# 2 -0.003603 0.012549 -0.003799 0.000000 0.000000 0.000000
# 3 -0.003799 -0.003799 0.012507 0.000000 0.000000 0.000000
# 4 0.000000 0.000000 0.000000 0.028635 0.000000 0.000000
# 5 0.000000 0.000000 0.000000 0.000000 0.028635 0.000000
# 6 0.000000 0.000000 0.000000 0.000000 0.000000 0.030805
#
#
# Mechanical properties :
#
#
# Convention : Reuss Voigt Hill
#
# Bulk Modulus (GPa) = 65.78243 65.79234 65.78738
# Shear Modulus (GPa) = 32.64759 32.75624 32.70191
#
# Velocity S-wave (km/s) = 3.87735 3.88379 3.88057
# Velocity P-wave (km/s) = 7.09486 7.09988 7.09737
#
# Compressibility (1/GPa) = 0.01520163
#
# Stress axis : x y z
#
# Youngs Moduli (GPa) = 79.68974 79.68974 79.95530
#
# Poissons Ratio (x) = 0.28715 0.30375
# Poissons Ratio (y) = 0.28715 0.30375
# Poissons Ratio (z) = 0.30274 0.30274
#
# Static dielectric constant tensor:
#      x y z
#    x 4.054430 0.000000 0.000000 
#    y 0.000000 4.054430 0.000000 
#    z 0.000000 0.000000 5.428810 
# 
# 
# High freq. dielectric constant tensor:
#      x y z
#    x 1.858560 0.000000 0.000000 
#    y 0.000000 1.858560 0.000000 
#    z 0.000000 0.000000 1.854910 
# 
# From -- ./inp_files/6587.got.cif
#   From: 2010.03.12/outbox.cif.g09.slc.cpg/sg141_4_cif.got.tgz:6587.got - 2010.04.03 13:18:35.
