data_PCOD8320823
_publ_section_title
;
Structure prediction by ZEFSAII (Michael W. Deem and Ramdas Pophale) SiO2 
 PCOD8320823
Probable space group: I 41/A M D
;
_chemical_formula_sum "Si O2"
_cell_formula_units_Z 120
_cell_length_a 14.409002
_cell_length_b 14.409002
_cell_length_c 25.614846
_cell_angle_alpha 90.000000
_cell_angle_beta 90.000000
_cell_angle_gamma 90.000000
_cell_volume 5318.137386
_symmetry_space_group_name_H-M "I 41/A M D"
_symmetry_group_IT_number 141
_space_group.IT_coordinate_system_code '2'
_symmetry_cell_setting 'tetragonal'
loop_
_space_group_symop_operation_xyz
x,y,z
1/4-y,3/4+x,1/4+z
-x,1/2-y,z
1/4+y,1/4-x,3/4+z
x,-y,-z
-x,1/2+y,-z
1/4+y,3/4+x,1/4-z
1/4-y,1/4-x,3/4-z
-x,-y,-z
3/4+y,1/4-x,3/4-z
x,1/2+y,-z
3/4-y,3/4+x,1/4-z
-x,y,z
x,1/2-y,z
3/4-y,1/4-x,3/4+z
3/4+y,3/4+x,1/4+z
1/2+x,1/2+y,1/2+z
3/4-y,1/4+x,3/4+z
1/2-x,-y,1/2+z
3/4+y,3/4-x,1/4+z
1/2+x,1/2-y,1/2-z
1/2-x,y,1/2-z
3/4+y,1/4+x,3/4-z
3/4-y,3/4-x,1/4-z
1/2-x,1/2-y,1/2-z
1/4+y,3/4-x,1/4-z
1/2+x,y,1/2-z
1/4-y,1/4+x,3/4-z
1/2-x,1/2+y,1/2+z
1/2+x,-y,1/2+z
1/4-y,3/4-x,1/4+z
1/4+y,1/4+x,3/4+z
loop_
_atom_site_type_symbol
_atom_site_label
_atom_site_fract_x
_atom_site_fract_y
_atom_site_fract_z
Si Si1 0.651564 0.750000 0.866635
Si Si2 0.856288 0.250000 0.096146
Si Si3 0.000000 0.750000 0.258146
Si Si4 0.322027 0.572027 0.375000
Si Si5 0.654353 0.853912 0.075640
Si Si6 0.815406 0.750000 0.198346
Si Si7 0.500000 0.140405 0.005317
O O1 0.593230 0.656771 0.875000
O O2 0.743244 0.750000 0.902981
O O3 0.677556 0.750000 0.805226
O O4 0.902168 0.250000 0.039157
O O5 0.896386 0.341176 0.123024
O O6 0.082492 0.750000 0.218539
O O7 0.321781 0.486786 0.333801
O O8 0.412325 0.555148 0.410240
O O9 0.694059 0.750000 0.067303
O O10 0.592500 0.883929 0.026538
O O11 0.750000 0.750000 0.250000
O O12 0.500000 0.250000 0.021840
#
# Coordination Sequence:
#
# PCOD8320823 Si02
#       7
#    16  16   8  16  32  16  16
#     4  11  24  42  63 100 142 175 216 286 343 406
#     4  11  23  44  69  96 135 183 231 286 344 416
#     4  12  24  43  70 100 132 188 243 268 348 424
#     4  12  24  47  70 104 145 180 240 302 360 418
#     4  10  21  41  73  95 130 181 226 292 343 414
#     4  12  27  47  71 104 148 188 242 308 368 430
#     4   9  19  42  69  95 131 180 229 270 346 420
#
# _framework density 22.564291000000001
#
# number of rings (size 3 to 8) (size 9 to 14) (size 15 to 20)
#    0.000    1.200    4.000    3.200    1.867    4.267 
#    4.800    0.000    0.000    0.000    0.000    0.000 
#    0.000    0.000    0.000    0.000    0.000    0.000 
#
# Total GULP energy -743611.855386 kJ/mol
# GULP energy per Si atom -12393.530923 kJ/mol
# Density = 2.251293 g / cm^3
# Si number density = 22.564291 Si / 1000 Ang^3
#
#
#
# Elastic Constant Matrix: (Units=GPa)
#
#
# Indices 1 2 3 4 5 6 
#
# 1 133.5238 33.2289 35.1585 0.0000 0.0000 0.0000
# 2 33.2289 133.5249 35.1592 0.0000 0.0000 0.0000
# 3 35.1585 35.1592 104.1924 0.0000 0.0000 0.0000
# 4 0.0000 0.0000 0.0000 -330.8728 0.0000 0.0000
# 5 0.0000 0.0000 0.0000 0.0000 -324.6027 0.0000
# 6 0.0000 0.0000 0.0000 0.0000 0.0000 33.9529
#
#
#
# Elastic Compliance Matrix: (Units=1/GPa)
#
#
# Indices 1 2 3 4 5 6 
#
# 1 0.008481 -0.001489 -0.002359 0.000000 0.000000 0.000000
# 2 -0.001489 0.008481 -0.002359 0.000000 0.000000 0.000000
# 3 -0.002359 -0.002359 0.011190 0.000000 0.000000 0.000000
# 4 0.000000 0.000000 0.000000 -0.003022 0.000000 0.000000
# 5 0.000000 0.000000 0.000000 0.000000 -0.003081 0.000000
# 6 0.000000 0.000000 0.000000 0.000000 0.000000 0.029453
#
#
# Mechanical properties :
#
#
# Convention : Reuss Voigt Hill
#
# Bulk Modulus (GPa) = 63.54781 64.25935 63.90358
# Shear Modulus (GPa) = 72.29275 -106.45821 -17.08273
#
# Velocity S-wave (km/s) = 5.66640 -6.87622 -2.75447
# Velocity P-wave (km/s) = 8.42822 5.87393 4.27387
#
# Compressibility (1/GPa) = 0.01573618
#
# Stress axis : x y z
#
# Youngs Moduli (GPa) = 117.90812 117.90870 89.36636
#
# Poissons Ratio (x) = 0.17561 0.21084
# Poissons Ratio (y) = 0.17561 0.21085
# Poissons Ratio (z) = 0.27818 0.27819
#
# Static dielectric constant tensor:
#      x y z
#    x 4.226960 0.000000 0.000000 
#    y 0.000000 4.226970 0.000000 
#    z 0.000000 0.000000 4.106290 
# 
# 
# High freq. dielectric constant tensor:
#      x y z
#    x 1.891140 0.000000 0.000000 
#    y 0.000000 1.891140 0.000000 
#    z 0.000000 0.000000 1.889490 
# 
# From -- ./inp_files/14175.got.cif
#   From: 2010.03.12/outbox.cif.g09.slc.cpg/sg141_8_cif.got.tgz:14175.got - 2010.04.03 13:18:35.
