data_PCOD8320345
_publ_section_title
;
Structure prediction by ZEFSAII (Michael W. Deem and Ramdas Pophale) SiO2 
 PCOD8320345
Probable space group: I 4/M C M
;
_chemical_formula_sum "Si O2"
_cell_formula_units_Z 160
_cell_length_a 16.628398
_cell_length_b 16.628398
_cell_length_c 27.455393
_cell_angle_alpha 90.000000
_cell_angle_beta 90.000000
_cell_angle_gamma 90.000000
_cell_volume 7591.515554
_symmetry_space_group_name_H-M "I 4/M C M"
_symmetry_group_IT_number 140
_symmetry_cell_setting 'tetragonal'
loop_
_space_group_symop_operation_xyz
x,y,z
-y,x,z
-x,-y,z
y,-x,z
x,-y,1/2-z
-x,y,1/2-z
y,x,1/2-z
-y,-x,1/2-z
-x,-y,-z
y,-x,-z
x,y,-z
-y,x,-z
-x,y,1/2+z
x,-y,1/2+z
-y,-x,1/2+z
y,x,1/2+z
1/2+x,1/2+y,1/2+z
1/2-y,1/2+x,1/2+z
1/2-x,1/2-y,1/2+z
1/2+y,1/2-x,1/2+z
1/2+x,1/2-y,-z
1/2-x,1/2+y,-z
1/2+y,1/2+x,-z
1/2-y,1/2-x,-z
1/2-x,1/2-y,1/2-z
1/2+y,1/2-x,1/2-z
1/2+x,1/2+y,1/2-z
1/2-y,1/2+x,1/2-z
1/2-x,1/2+y,z
1/2+x,1/2-y,z
1/2-y,1/2-x,z
1/2+y,1/2+x,z
loop_
_atom_site_type_symbol
_atom_site_label
_atom_site_fract_x
_atom_site_fract_y
_atom_site_fract_z
Si Si1 0.856832 0.929877 0.787932
Si Si2 0.254848 0.112537 0.556470
Si Si3 0.675757 0.952296 0.799127
Si Si4 0.503395 0.126800 0.402151
Si Si5 0.421314 0.599269 0.890672
O O1 0.854211 0.854211 0.750000
O O2 0.769865 0.944151 0.810724
O O3 0.918321 0.904697 0.831602
O O4 0.886607 0.000000 0.750000
O O5 0.232753 0.114151 0.500000
O O6 0.316483 0.183518 0.570712
O O7 0.292893 0.024756 0.569534
O O8 0.173222 0.128845 0.586976
O O9 0.635254 0.864747 0.795319
O O10 0.657924 0.000000 0.750000
O O11 0.640166 0.001954 0.844207
O O12 0.441850 0.058151 0.417322
O O13 0.593634 0.093634 0.416413
O O14 0.388171 0.513257 0.908793
#
# Coordination Sequence:
#
# PCOD8320345 Si02
#       5
#    32  32  32  32  32
#     4  11  22  37  58  85 118 156 204 255 306 367
#     4  10  23  43  66  94 128 164 209 269 328 378
#     4  10  21  35  54  85 125 164 204 248 305 376
#     4   9  18  35  60  87 118 159 205 254 309 371
#     4  11  23  40  65  92 123 164 208 259 313 378
#
# _framework density 21.076160000000002
#
# number of rings (size 3 to 8) (size 9 to 14) (size 15 to 20)
#    0.000    1.800    2.000    1.800    2.800    3.600 
#    0.000    4.000    0.000    0.000    0.000    0.000 
#    0.000    0.000    0.000    0.000    0.000    0.000 
#
# Total GULP energy -991142.341087 kJ/mol
# GULP energy per Si atom -12389.279264 kJ/mol
# Density = 2.102819 g / cm^3
# Si number density = 21.076160 Si / 1000 Ang^3
#
#
#
# Elastic Constant Matrix: (Units=GPa)
#
#
# Indices 1 2 3 4 5 6 
#
# 1 97.2584 44.8196 42.2697 0.0000 0.0000 0.0000
# 2 44.8196 97.2584 42.2697 0.0000 0.0000 0.0000
# 3 42.2697 42.2697 99.2954 0.0000 0.0000 0.0000
# 4 0.0000 0.0000 0.0000 32.2153 0.0000 0.0000
# 5 0.0000 0.0000 0.0000 0.0000 32.2153 0.0000
# 6 0.0000 0.0000 0.0000 0.0000 0.0000 20.0772
#
#
#
# Elastic Compliance Matrix: (Units=1/GPa)
#
#
# Indices 1 2 3 4 5 6 
#
# 1 0.014248 -0.004822 -0.004013 0.000000 0.000000 0.000000
# 2 -0.004822 0.014248 -0.004013 0.000000 0.000000 0.000000
# 3 -0.004013 -0.004013 0.013487 0.000000 0.000000 0.000000
# 4 0.000000 0.000000 0.000000 0.031041 0.000000 0.000000
# 5 0.000000 0.000000 0.000000 0.000000 0.031041 0.000000
# 6 0.000000 0.000000 0.000000 0.000000 0.000000 0.049808
#
#
# Mechanical properties :
#
#
# Convention : Reuss Voigt Hill
#
# Bulk Modulus (GPa) = 61.39188 61.39222 61.39205
# Shear Modulus (GPa) = 27.02747 27.86512 27.44629
#
# Velocity S-wave (km/s) = 3.58491 3.64004 3.61258
# Velocity P-wave (km/s) = 6.80641 6.84532 6.82590
#
# Compressibility (1/GPa) = 0.01628880
#
# Stress axis : x y z
#
# Youngs Moduli (GPa) = 70.18574 70.18574 74.14405
#
# Poissons Ratio (x) = 0.33843 0.29751
# Poissons Ratio (y) = 0.33843 0.29751
# Poissons Ratio (z) = 0.28163 0.28163
#
# Static dielectric constant tensor:
#      x y z
#    x 3.828530 0.000000 0.000000 
#    y 0.000000 3.828530 0.000000 
#    z 0.000000 0.000000 3.673310 
# 
# 
# High freq. dielectric constant tensor:
#      x y z
#    x 1.818360 0.000000 0.000000 
#    y 0.000000 1.818360 0.000000 
#    z 0.000000 0.000000 1.819930 
# 
# From -- ./inp_files/10514.got.cif
#   From: 2010.06.25/outbox.cif.g09.slc.cpg/sg140_6_cif.got.tgz:10514.got - 2010.06.28 10:53:23.
