data_PCOD8320596
_publ_section_title
;
Structure prediction by ZEFSAII (Michael W. Deem and Ramdas Pophale) SiO2 
 PCOD8320596
Probable space group: I 41/A M D
;
_chemical_formula_sum "Si O2"
_cell_formula_units_Z 96
_cell_length_a 34.687303
_cell_length_b 34.687303
_cell_length_c 5.108559
_cell_angle_alpha 90.000000
_cell_angle_beta 90.000000
_cell_angle_gamma 90.000000
_cell_volume 6146.664112
_symmetry_space_group_name_H-M "I 41/A M D"
_symmetry_group_IT_number 141
_space_group.IT_coordinate_system_code '2'
_symmetry_cell_setting 'tetragonal'
loop_
_space_group_symop_operation_xyz
x,y,z
1/4-y,3/4+x,1/4+z
-x,1/2-y,z
1/4+y,1/4-x,3/4+z
x,-y,-z
-x,1/2+y,-z
1/4+y,3/4+x,1/4-z
1/4-y,1/4-x,3/4-z
-x,-y,-z
3/4+y,1/4-x,3/4-z
x,1/2+y,-z
3/4-y,3/4+x,1/4-z
-x,y,z
x,1/2-y,z
3/4-y,1/4-x,3/4+z
3/4+y,3/4+x,1/4+z
1/2+x,1/2+y,1/2+z
3/4-y,1/4+x,3/4+z
1/2-x,-y,1/2+z
3/4+y,3/4-x,1/4+z
1/2+x,1/2-y,1/2-z
1/2-x,y,1/2-z
3/4+y,1/4+x,3/4-z
3/4-y,3/4-x,1/4-z
1/2-x,1/2-y,1/2-z
1/4+y,3/4-x,1/4-z
1/2+x,y,1/2-z
1/4-y,1/4+x,3/4-z
1/2-x,1/2+y,1/2+z
1/2+x,-y,1/2+z
1/4-y,3/4-x,1/4+z
1/4+y,1/4+x,3/4+z
loop_
_atom_site_type_symbol
_atom_site_label
_atom_site_fract_x
_atom_site_fract_y
_atom_site_fract_z
Si Si1 0.578555 0.171446 0.125000
Si Si2 0.545167 0.910100 0.954222
Si Si3 0.791632 0.794769 0.191226
Si Si4 0.456284 0.293717 0.625000
O O1 0.571106 0.127946 0.033892
O O2 0.551670 0.179729 0.374505
O O3 0.500000 0.899868 0.998330
O O4 0.552439 0.929888 0.678569
O O5 0.561278 0.938666 0.178922
O O6 0.784203 0.750000 0.140699
O O7 0.750000 0.814431 0.250000
O O8 0.448971 0.250000 0.535190
#
# Coordination Sequence:
#
# PCOD8320596 Si02
#       4
#    16  32  32  16
#     4  12  22  33  46  64  90 116 150 192 233 272
#     4  10  19  30  45  64  86 114 146 183 226 265
#     4   9  17  30  47  65  83 105 140 184 225 268
#     4  11  22  34  46  58  78 116 162 202 233 258
#
# _framework density 15.618226
#
# number of rings (size 3 to 8) (size 9 to 14) (size 15 to 20)
#    0.000    1.833    0.000    6.000    0.000    8.000 
#    0.000    0.000    0.000    0.000    0.000    0.000 
#    0.000    0.000    0.000    0.000    0.000   46.667 
#
# Total GULP energy -595240.915266 kJ/mol
# GULP energy per Si atom -12400.852401 kJ/mol
# Density = 1.558268 g / cm^3
# Si number density = 15.618226 Si / 1000 Ang^3
#
#
#
# Elastic Constant Matrix: (Units=GPa)
#
#
# Indices 1 2 3 4 5 6 
#
# 1 53.4661 27.7957 6.7540 0.0000 0.0000 0.0000
# 2 27.7957 53.4667 6.7530 0.0000 0.0000 0.0000
# 3 6.7540 6.7530 76.8980 0.0000 0.0000 0.0000
# 4 0.0000 0.0000 0.0000 16.7527 0.0000 0.0000
# 5 0.0000 0.0000 0.0000 0.0000 16.7525 0.0000
# 6 0.0000 0.0000 0.0000 0.0000 0.0000 10.6434
#
#
#
# Elastic Compliance Matrix: (Units=1/GPa)
#
#
# Indices 1 2 3 4 5 6 
#
# 1 0.025722 -0.013233 -0.001097 0.000000 0.000000 0.000000
# 2 -0.013233 0.025721 -0.001096 0.000000 0.000000 0.000000
# 3 -0.001097 -0.001096 0.013197 0.000000 0.000000 0.000000
# 4 0.000000 0.000000 0.000000 0.059692 0.000000 0.000000
# 5 0.000000 0.000000 0.000000 0.000000 0.059692 0.000000
# 6 0.000000 0.000000 0.000000 0.000000 0.000000 0.093955
#
#
# Mechanical properties :
#
#
# Convention : Reuss Voigt Hill
#
# Bulk Modulus (GPa) = 29.59791 29.60401 29.60096
# Shear Modulus (GPa) = 15.62037 18.33160 16.97598
#
# Velocity S-wave (km/s) = 3.16593 3.42969 3.30045
# Velocity P-wave (km/s) = 5.68824 5.88894 5.78946
#
# Compressibility (1/GPa) = 0.03378617
#
# Stress axis : x y z
#
# Youngs Moduli (GPa) = 38.87763 38.87825 75.77543
#
# Poissons Ratio (x) = 0.51449 0.08313
# Poissons Ratio (y) = 0.51448 0.08309
# Poissons Ratio (z) = 0.04265 0.04263
#
# Static dielectric constant tensor:
#      x y z
#    x 2.816570 0.000000 0.000000 
#    y 0.000000 2.816650 0.000000 
#    z 0.000000 0.000000 3.205210 
# 
# 
# High freq. dielectric constant tensor:
#      x y z
#    x 1.564870 0.000000 0.000000 
#    y 0.000000 1.564870 0.000000 
#    z 0.000000 0.000000 1.626690 
# 
# From -- ./inp_files/1174.got.cif
#   From: 2010.03.12/outbox.cif.g09.slc.cpg/sg141_1_cif.got.tgz:1174.got - 2010.04.03 13:18:35.
