data_PCOD8320903
_publ_section_title
;
Structure prediction by ZEFSAII (Michael W. Deem and Ramdas Pophale) SiO2 
 PCOD8320903
Probable space group: I 41/A M D
;
_chemical_formula_sum "Si O2"
_cell_formula_units_Z 160
_cell_length_a 17.835199
_cell_length_b 17.835199
_cell_length_c 24.912163
_cell_angle_alpha 90.000000
_cell_angle_beta 90.000000
_cell_angle_gamma 90.000000
_cell_volume 7924.417633
_symmetry_space_group_name_H-M "I 41/A M D"
_symmetry_group_IT_number 141
_space_group.IT_coordinate_system_code '2'
_symmetry_cell_setting 'tetragonal'
loop_
_space_group_symop_operation_xyz
x,y,z
1/4-y,3/4+x,1/4+z
-x,1/2-y,z
1/4+y,1/4-x,3/4+z
x,-y,-z
-x,1/2+y,-z
1/4+y,3/4+x,1/4-z
1/4-y,1/4-x,3/4-z
-x,-y,-z
3/4+y,1/4-x,3/4-z
x,1/2+y,-z
3/4-y,3/4+x,1/4-z
-x,y,z
x,1/2-y,z
3/4-y,1/4-x,3/4+z
3/4+y,3/4+x,1/4+z
1/2+x,1/2+y,1/2+z
3/4-y,1/4+x,3/4+z
1/2-x,-y,1/2+z
3/4+y,3/4-x,1/4+z
1/2+x,1/2-y,1/2-z
1/2-x,y,1/2-z
3/4+y,1/4+x,3/4-z
3/4-y,3/4-x,1/4-z
1/2-x,1/2-y,1/2-z
1/4+y,3/4-x,1/4-z
1/2+x,y,1/2-z
1/4-y,1/4+x,3/4-z
1/2-x,1/2+y,1/2+z
1/2+x,-y,1/2+z
1/4-y,3/4-x,1/4+z
1/4+y,1/4+x,3/4+z
loop_
_atom_site_type_symbol
_atom_site_label
_atom_site_fract_x
_atom_site_fract_y
_atom_site_fract_z
Si Si1 0.181709 0.084299 0.514740
Si Si2 0.681467 0.951057 0.616372
Si Si3 0.416693 0.838104 0.815893
Si Si4 0.324523 0.337523 0.479865
Si Si5 0.692918 0.166622 0.701274
O O1 0.164821 0.093740 0.577447
O O2 0.110197 0.105622 0.478908
O O3 0.242513 0.147221 0.502085
O O4 0.210550 0.000000 0.500000
O O5 0.671637 0.882510 0.575893
O O6 0.766057 0.983944 0.625000
O O7 0.631614 0.022101 0.597180
O O8 0.387041 0.862960 0.875000
O O9 0.500000 0.872219 0.804566
O O10 0.423190 0.750000 0.815381
O O11 0.338843 0.250000 0.468907
O O12 0.382501 0.365908 0.525276
O O13 0.676487 0.250000 0.679430
O O14 0.750000 0.168244 0.750000
#
# Coordination Sequence:
#
# PCOD8320903 Si02
#       5
#    32  32  32  32  32
#     4  12  23  37  62  89 126 164 210 262 312 368
#     4  11  21  41  62  89 129 164 205 267 317 371
#     4   9  21  42  63  88 128 171 208 253 312 377
#     4  11  23  39  62  93 126 166 209 256 317 382
#     4   9  19  39  65  89 119 161 203 249 313 378
#
# _framework density 20.190759
#
# number of rings (size 3 to 8) (size 9 to 14) (size 15 to 20)
#    0.000    1.600    4.000    1.800    2.800    3.200 
#    0.000    0.000    0.000    0.000    0.000    0.000 
#    0.000    0.000    0.000    0.000    0.000    0.000 
#
# Total GULP energy -991531.425234 kJ/mol
# GULP energy per Si atom -12394.142815 kJ/mol
# Density = 2.014480 g / cm^3
# Si number density = 20.190759 Si / 1000 Ang^3
#
#
#
# Elastic Constant Matrix: (Units=GPa)
#
#
# Indices 1 2 3 4 5 6 
#
# 1 98.8942 38.3498 42.9311 0.0000 0.0000 0.0000
# 2 38.3498 98.8952 42.9304 0.0000 0.0000 0.0000
# 3 42.9311 42.9304 132.8709 0.0000 0.0000 0.0000
# 4 0.0000 0.0000 0.0000 27.4923 0.0000 0.0000
# 5 0.0000 0.0000 0.0000 0.0000 27.4920 0.0000
# 6 0.0000 0.0000 0.0000 0.0000 0.0000 26.1213
#
#
#
# Elastic Compliance Matrix: (Units=1/GPa)
#
#
# Indices 1 2 3 4 5 6 
#
# 1 0.012825 -0.003692 -0.002951 0.000000 0.000000 0.000000
# 2 -0.003692 0.012824 -0.002951 0.000000 0.000000 0.000000
# 3 -0.002951 -0.002951 0.009433 0.000000 0.000000 0.000000
# 4 0.000000 0.000000 0.000000 0.036374 0.000000 0.000000
# 5 0.000000 0.000000 0.000000 0.000000 0.036374 0.000000
# 6 0.000000 0.000000 0.000000 0.000000 0.000000 0.038283
#
#
# Mechanical properties :
#
#
# Convention : Reuss Voigt Hill
#
# Bulk Modulus (GPa) = 62.91402 64.34255 63.62828
# Shear Modulus (GPa) = 29.30870 29.98439 29.64655
#
# Velocity S-wave (km/s) = 3.81411 3.85782 3.83603
# Velocity P-wave (km/s) = 7.11505 7.19585 7.15557
#
# Compressibility (1/GPa) = 0.01589471
#
# Stress axis : x y z
#
# Youngs Moduli (GPa) = 77.97546 77.97685 106.01298
#
# Poissons Ratio (x) = 0.28791 0.31281
# Poissons Ratio (y) = 0.28790 0.31280
# Poissons Ratio (z) = 0.23008 0.23007
#
# Static dielectric constant tensor:
#      x y z
#    x 3.680990 0.000000 0.000000 
#    y 0.000000 3.680990 0.000000 
#    z 0.000000 0.000000 4.398160 
# 
# 
# High freq. dielectric constant tensor:
#      x y z
#    x 1.774860 0.000000 0.000000 
#    y 0.000000 1.774860 0.000000 
#    z 0.000000 0.000000 1.798430 
# 
# From -- ./inp_files/12673.got.cif
#   From: 2010.03.12/outbox.cif.g09.slc.cpg/sg141_7_cif.got.tgz:12673.got - 2010.04.03 13:18:35.
