data_PCOD8320770
_publ_section_title
;
Structure prediction by ZEFSAII (Michael W. Deem and Ramdas Pophale) SiO2 
 PCOD8320770
Probable space group: I 41/A M D
;
_chemical_formula_sum "Si O2"
_cell_formula_units_Z 176
_cell_length_a 17.709788
_cell_length_b 17.709788
_cell_length_c 29.976815
_cell_angle_alpha 90.000000
_cell_angle_beta 90.000000
_cell_angle_gamma 90.000000
_cell_volume 9401.826066
_symmetry_space_group_name_H-M "I 41/A M D"
_symmetry_group_IT_number 141
_space_group.IT_coordinate_system_code '2'
_symmetry_cell_setting 'tetragonal'
loop_
_space_group_symop_operation_xyz
x,y,z
1/4-y,3/4+x,1/4+z
-x,1/2-y,z
1/4+y,1/4-x,3/4+z
x,-y,-z
-x,1/2+y,-z
1/4+y,3/4+x,1/4-z
1/4-y,1/4-x,3/4-z
-x,-y,-z
3/4+y,1/4-x,3/4-z
x,1/2+y,-z
3/4-y,3/4+x,1/4-z
-x,y,z
x,1/2-y,z
3/4-y,1/4-x,3/4+z
3/4+y,3/4+x,1/4+z
1/2+x,1/2+y,1/2+z
3/4-y,1/4+x,3/4+z
1/2-x,-y,1/2+z
3/4+y,3/4-x,1/4+z
1/2+x,1/2-y,1/2-z
1/2-x,y,1/2-z
3/4+y,1/4+x,3/4-z
3/4-y,3/4-x,1/4-z
1/2-x,1/2-y,1/2-z
1/4+y,3/4-x,1/4-z
1/2+x,y,1/2-z
1/4-y,1/4+x,3/4-z
1/2-x,1/2+y,1/2+z
1/2+x,-y,1/2+z
1/4-y,3/4-x,1/4+z
1/4+y,1/4+x,3/4+z
loop_
_atom_site_type_symbol
_atom_site_label
_atom_site_fract_x
_atom_site_fract_y
_atom_site_fract_z
Si Si1 0.086518 0.835580 0.493441
Si Si2 0.846077 0.335128 0.334139
Si Si3 0.914219 0.333474 0.093296
Si Si4 0.411517 0.490880 0.448471
Si Si5 0.702812 0.452812 0.625000
Si Si6 0.860861 0.064750 0.579405
O O1 0.100080 0.750000 0.479555
O O2 0.106505 0.845900 0.545205
O O3 0.143903 0.886136 0.465266
O O4 0.000000 0.860599 0.484661
O O5 0.858831 0.391170 0.375000
O O6 0.859975 0.250000 0.350359
O O7 0.761634 0.346315 0.316824
O O8 0.902193 0.250000 0.070984
O O9 0.896470 0.401665 0.059502
O O10 0.859176 0.338793 0.135061
O O11 0.000000 0.341016 0.110758
O O12 0.384769 0.500000 0.500000
O O13 0.500000 0.512077 0.443199
O O14 0.366513 0.543106 0.411580
O O15 0.700714 0.526698 0.654874
#
# Coordination Sequence:
#
# PCOD8320770 Si02
#       6
#    32  32  32  32  16  32
#     4  10  21  36  56  81 107 142 188 232 274 323
#     4  11  22  36  52  74 109 152 189 223 266 320
#     4   9  17  31  55  84 110 138 180 234 288 341
#     4   9  19  37  60  83 114 154 192 236 298 363
#     4  10  22  38  58  85 115 146 182 234 290 350
#     4  11  20  35  54  80 110 142 177 231 281 327
#
# _framework density 18.719768999999999
#
# number of rings (size 3 to 8) (size 9 to 14) (size 15 to 20)
#    0.000    2.000    0.909    3.273    0.000    6.000 
#    0.000    0.909    0.000    1.364    0.000    0.000 
#    0.000    0.000    0.000    0.000    0.000    0.000 
#
# Total GULP energy -1090769.623145 kJ/mol
# GULP energy per Si atom -12395.109354 kJ/mol
# Density = 1.867716 g / cm^3
# Si number density = 18.719769 Si / 1000 Ang^3
#
#
#
# Elastic Constant Matrix: (Units=GPa)
#
#
# Indices 1 2 3 4 5 6 
#
# 1 89.2092 35.3493 50.1760 0.0000 0.0000 0.0000
# 2 35.3493 89.2083 50.1752 0.0000 0.0000 0.0000
# 3 50.1760 50.1752 103.4493 0.0000 0.0000 0.0000
# 4 0.0000 0.0000 0.0000 28.5868 0.0000 0.0000
# 5 0.0000 0.0000 0.0000 0.0000 28.5869 0.0000
# 6 0.0000 0.0000 0.0000 0.0000 0.0000 26.5828
#
#
#
# Elastic Compliance Matrix: (Units=1/GPa)
#
#
# Indices 1 2 3 4 5 6 
#
# 1 0.015872 -0.002695 -0.006392 0.000000 0.000000 0.000000
# 2 -0.002695 0.015872 -0.006392 0.000000 0.000000 0.000000
# 3 -0.006392 -0.006392 0.015867 0.000000 0.000000 0.000000
# 4 0.000000 0.000000 0.000000 0.034981 0.000000 0.000000
# 5 0.000000 0.000000 0.000000 0.000000 0.034981 0.000000
# 6 0.000000 0.000000 0.000000 0.000000 0.000000 0.037618
#
#
# Mechanical properties :
#
#
# Convention : Reuss Voigt Hill
#
# Bulk Modulus (GPa) = 60.03830 61.47421 60.75626
# Shear Modulus (GPa) = 26.08252 26.49572 26.28912
#
# Velocity S-wave (km/s) = 3.73676 3.76624 3.75153
# Velocity P-wave (km/s) = 7.12458 7.19884 7.16180
#
# Compressibility (1/GPa) = 0.01665603
#
# Stress axis : x y z
#
# Youngs Moduli (GPa) = 63.00276 63.00269 63.02500
#
# Poissons Ratio (x) = 0.16976 0.40283
# Poissons Ratio (y) = 0.16976 0.40282
# Poissons Ratio (z) = 0.40269 0.40268
#
# Static dielectric constant tensor:
#      x y z
#    x 3.472970 0.000000 0.000000 
#    y 0.000000 3.472970 0.000000 
#    z 0.000000 0.000000 3.404940 
# 
# 
# High freq. dielectric constant tensor:
#      x y z
#    x 1.724660 0.000000 0.000000 
#    y 0.000000 1.724660 0.000000 
#    z 0.000000 0.000000 1.722220 
# 
# From -- ./inp_files/12862.got.cif
#   From: 2010.03.12/outbox.cif.g09.slc.cpg/sg141_7_cif.got.tgz:12862.got - 2010.04.03 13:18:35.
