data_PCOD8320011
_publ_section_title
;
Structure prediction by ZEFSAII (Michael W. Deem and Ramdas Pophale) SiO2 
 PCOD8320011
Probable space group: I 4/M M M
;
_chemical_formula_sum "Si O2"
_cell_formula_units_Z 144
_cell_length_a 18.183062
_cell_length_b 18.183062
_cell_length_c 32.879022
_cell_angle_alpha 90.000000
_cell_angle_beta 90.000000
_cell_angle_gamma 90.000000
_cell_volume 10870.585343
_symmetry_space_group_name_H-M "I 4/M M M"
_symmetry_group_IT_number 139
_symmetry_cell_setting 'tetragonal'
loop_
_space_group_symop_operation_xyz
x,y,z
-y,x,z
-x,-y,z
y,-x,z
x,-y,-z
-x,y,-z
y,x,-z
-y,-x,-z
-x,-y,-z
y,-x,-z
x,y,-z
-y,x,-z
-x,y,z
x,-y,z
-y,-x,z
y,x,z
1/2+x,1/2+y,1/2+z
1/2-y,1/2+x,1/2+z
1/2-x,1/2-y,1/2+z
1/2+y,1/2-x,1/2+z
1/2+x,1/2-y,1/2-z
1/2-x,1/2+y,1/2-z
1/2+y,1/2+x,1/2-z
1/2-y,1/2-x,1/2-z
1/2-x,1/2-y,1/2-z
1/2+y,1/2-x,1/2-z
1/2+x,1/2+y,1/2-z
1/2-y,1/2+x,1/2-z
1/2-x,1/2+y,1/2+z
1/2+x,1/2-y,1/2+z
1/2-y,1/2-x,1/2+z
1/2+y,1/2+x,1/2+z
loop_
_atom_site_type_symbol
_atom_site_label
_atom_site_fract_x
_atom_site_fract_y
_atom_site_fract_z
Si Si1 0.417907 0.697901 0.735460
Si Si2 0.223731 0.658904 0.337869
Si Si3 0.708005 0.413438 0.411562
Si Si4 0.699882 0.582689 0.500000
Si Si5 0.417059 0.159733 0.213407
O O1 0.500000 0.670057 0.728223
O O2 0.370775 0.629226 0.750564
O O3 0.388805 0.729621 0.693413
O O4 0.413180 0.757667 0.770724
O O5 0.258180 0.741821 0.338987
O O6 0.230433 0.619416 0.381485
O O7 0.138165 0.656761 0.324947
O O8 0.693893 0.500000 0.403106
O O9 0.631196 0.368805 0.405507
O O10 0.741867 0.400369 0.457334
O O11 0.673747 0.500000 0.500000
O O12 0.623699 0.623699 0.500000
O O13 0.500000 0.139568 0.199154
O O14 0.394986 0.105015 0.250000
#
# Coordination Sequence:
#
# PCOD8320011 Si02
#       5
#    32  32  32  16  32
#     4   9  16  25  37  53  73  96 119 142 169 203
#     4   9  16  26  39  53  70  93 119 145 174 208
#     4   9  16  25  37  53  73  96 120 145 172 203
#     4   8  14  23  34  50  71  93 117 143 170 200
#     4   9  17  28  40  53  69  89 115 148 183 214
#
# _framework density 13.246756
#
# number of rings (size 3 to 8) (size 9 to 14) (size 15 to 20)
#    0.000    3.111    0.000    1.333    0.000    4.333 
#    0.000    2.222    0.000    4.000    0.000    0.778 
#    0.000    2.667    0.000    0.000    0.000    0.000 
#
# Total GULP energy -892012.472728 kJ/mol
# GULP energy per Si atom -12389.062121 kJ/mol
# Density = 1.321661 g / cm^3
# Si number density = 13.246756 Si / 1000 Ang^3
#
#
#
# Elastic Constant Matrix: (Units=GPa)
#
#
# Indices 1 2 3 4 5 6 
#
# 1 80.2603 39.6275 36.5276 0.0000 0.0000 0.0000
# 2 39.6275 80.2613 36.5275 0.0000 0.0000 0.0000
# 3 36.5276 36.5275 91.4794 0.0000 0.0000 0.0000
# 4 0.0000 0.0000 0.0000 15.8137 0.0000 0.0000
# 5 0.0000 0.0000 0.0000 0.0000 15.8137 0.0000
# 6 0.0000 0.0000 0.0000 0.0000 0.0000 13.1043
#
#
#
# Elastic Compliance Matrix: (Units=1/GPa)
#
#
# Indices 1 2 3 4 5 6 
#
# 1 0.017817 -0.006794 -0.004402 0.000000 0.000000 0.000000
# 2 -0.006794 0.017817 -0.004401 0.000000 0.000000 0.000000
# 3 -0.004402 -0.004401 0.014446 0.000000 0.000000 0.000000
# 4 0.000000 0.000000 0.000000 0.063236 0.000000 0.000000
# 5 0.000000 0.000000 0.000000 0.000000 0.063236 0.000000
# 6 0.000000 0.000000 0.000000 0.000000 0.000000 0.076311
#
#
# Mechanical properties :
#
#
# Convention : Reuss Voigt Hill
#
# Bulk Modulus (GPa) = 52.94725 53.04070 52.99398
# Shear Modulus (GPa) = 17.22046 18.23424 17.72735
#
# Velocity S-wave (km/s) = 3.60943 3.71415 3.66217
# Velocity P-wave (km/s) = 7.57809 7.64988 7.61407
#
# Compressibility (1/GPa) = 0.01888672
#
# Stress axis : x y z
#
# Youngs Moduli (GPa) = 56.12641 56.12730 69.22099
#
# Poissons Ratio (x) = 0.38130 0.30469
# Poissons Ratio (y) = 0.38130 0.30467
# Poissons Ratio (z) = 0.24705 0.24704
#
# Static dielectric constant tensor:
#      x y z
#    x 2.623800 0.000000 0.000000 
#    y 0.000000 2.623800 0.000000 
#    z 0.000000 0.000000 2.789740 
# 
# 
# High freq. dielectric constant tensor:
#      x y z
#    x 1.489150 0.000000 0.000000 
#    y 0.000000 1.489150 0.000000 
#    z 0.000000 0.000000 1.492820 
# 
# From -- ./inp_files/12794.got.cif
#   From: 2010.03.12/outbox.cif.g09.slc.cpg/sg139_7_cif.got.tgz:12794.got - 2010.04.08 09:46:31.
