data_PCOD8320963
_publ_section_title
;
Structure prediction by ZEFSAII (Michael W. Deem and Ramdas Pophale) SiO2 
 PCOD8320963
Probable space group: I 41/A C D
;
_chemical_formula_sum "Si O2"
_cell_formula_units_Z 232
_cell_length_a 27.851832
_cell_length_b 27.851832
_cell_length_c 15.923517
_cell_angle_alpha 90.000000
_cell_angle_beta 90.000000
_cell_angle_gamma 90.000000
_cell_volume 12352.262992
_symmetry_space_group_name_H-M "I 41/A C D"
_symmetry_group_IT_number 142
_space_group.IT_coordinate_system_code '2'
_symmetry_cell_setting 'tetragonal'
loop_
_space_group_symop_operation_xyz
x,y,z
1/4-y,3/4+x,1/4+z
-x,1/2-y,z
1/4+y,1/4-x,3/4+z
x,-y,1/2-z
1/2-x,y,-z
3/4+y,1/4+x,1/4-z
1/4-y,1/4-x,1/4-z
-x,-y,-z
3/4+y,1/4-x,3/4-z
x,1/2+y,-z
3/4-y,3/4+x,1/4-z
-x,y,1/2+z
1/2+x,-y,z
1/4-y,3/4-x,3/4+z
3/4+y,3/4+x,3/4+z
1/2+x,1/2+y,1/2+z
3/4-y,1/4+x,3/4+z
1/2-x,-y,1/2+z
3/4+y,3/4-x,1/4+z
1/2+x,1/2-y,-z
-x,1/2+y,1/2-z
1/4+y,3/4+x,3/4-z
3/4-y,3/4-x,3/4-z
1/2-x,1/2-y,1/2-z
1/4+y,3/4-x,1/4-z
1/2+x,y,1/2-z
1/4-y,1/4+x,3/4-z
1/2-x,1/2+y,z
x,1/2-y,1/2+z
3/4-y,1/4-x,1/4+z
1/4+y,1/4+x,1/4+z
loop_
_atom_site_type_symbol
_atom_site_label
_atom_site_fract_x
_atom_site_fract_y
_atom_site_fract_z
Si Si1 0.724518 0.814442 0.825635
Si Si2 0.000000 0.250000 0.375000
Si Si3 0.585479 0.561664 0.478577
Si Si4 0.570597 0.808628 0.780436
Si Si5 0.722137 0.779763 0.416933
Si Si6 0.636005 0.747284 0.515622
Si Si7 0.402243 0.885510 0.825104
Si Si8 0.657941 0.762910 0.700713
O O1 0.771230 0.846460 0.800226
O O2 0.745871 0.766493 0.870636
O O3 0.689790 0.844037 0.888023
O O4 0.698294 0.797872 0.739640
O O5 0.988436 0.297462 0.428016
O O6 0.575967 0.531902 0.392872
O O7 0.628940 0.599282 0.465874
O O8 0.537747 0.591731 0.501335
O O9 0.528431 0.837735 0.734375
O O10 0.598149 0.840841 0.849150
O O11 0.606804 0.788634 0.711228
O O12 0.750000 0.795489 0.500000
O O13 0.667980 0.763974 0.437677
O O14 0.625421 0.690936 0.498881
O O15 0.665402 0.755387 0.601496
#
# Coordination Sequence:
#
# PCOD8320963 Si02
#       8
#    32   8  32  32  32  32  32  32
#     4   9  20  35  55  76 110 139 175 230 277 326
#     4  12  20  32  50  60 100 160 202 212 260 308
#     4  11  19  36  53  75 109 143 175 230 278 318
#     4  11  20  34  48  69 106 151 192 222 261 314
#     4  10  18  31  55  79 101 140 179 213 272 324
#     4  11  20  33  50  74 109 146 182 225 258 324
#     4  10  21  35  52  77 105 147 187 221 282 335
#     4  10  21  33  51  79 105 145 186 229 269 311
#
# _framework density 18.781984000000001
#
# number of rings (size 3 to 8) (size 9 to 14) (size 15 to 20)
#    0.000    1.655    2.759    5.379    0.000    0.552 
#    0.000    0.690    0.000    0.000    0.000    0.000 
#    0.000   24.276    0.552    0.000    0.000    0.000 
#
# Total GULP energy -1438127.227728 kJ/mol
# GULP energy per Si atom -12397.648515 kJ/mol
# Density = 1.873924 g / cm^3
# Si number density = 18.781984 Si / 1000 Ang^3
#
#
#
# Elastic Constant Matrix: (Units=GPa)
#
#
# Indices 1 2 3 4 5 6 
#
# 1 87.7472 39.2602 24.9101 0.0000 0.0000 0.0000
# 2 39.2602 87.7472 24.9101 0.0000 0.0000 0.0000
# 3 24.9101 24.9101 83.2580 0.0000 0.0000 0.0000
# 4 0.0000 0.0000 0.0000 22.1617 0.0000 0.0000
# 5 0.0000 0.0000 0.0000 0.0000 22.1617 0.0000
# 6 0.0000 0.0000 0.0000 0.0000 0.0000 17.5293
#
#
#
# Elastic Compliance Matrix: (Units=1/GPa)
#
#
# Indices 1 2 3 4 5 6 
#
# 1 0.014772 -0.005852 -0.002669 0.000000 0.000000 0.000000
# 2 -0.005852 0.014772 -0.002669 0.000000 0.000000 0.000000
# 3 -0.002669 -0.002669 0.013608 0.000000 0.000000 0.000000
# 4 0.000000 0.000000 0.000000 0.045123 0.000000 0.000000
# 5 0.000000 0.000000 0.000000 0.000000 0.045123 0.000000
# 6 0.000000 0.000000 0.000000 0.000000 0.000000 0.057047
#
#
# Mechanical properties :
#
#
# Convention : Reuss Voigt Hill
#
# Bulk Modulus (GPa) = 48.13911 48.54591 48.34251
# Shear Modulus (GPa) = 22.75318 23.68199 23.21759
#
# Velocity S-wave (km/s) = 3.48435 3.55475 3.51972
# Velocity P-wave (km/s) = 6.47099 6.53846 6.50481
#
# Compressibility (1/GPa) = 0.02077313
#
# Stress axis : x y z
#
# Youngs Moduli (GPa) = 67.69438 67.69438 73.48670
#
# Poissons Ratio (x) = 0.39613 0.19613
# Poissons Ratio (y) = 0.39613 0.19613
# Poissons Ratio (z) = 0.18067 0.18067
#
# Static dielectric constant tensor:
#      x y z
#    x 3.235440 0.000000 0.000000 
#    y 0.000000 3.235440 0.000000 
#    z 0.000000 0.000000 3.467460 
# 
# 
# High freq. dielectric constant tensor:
#      x y z
#    x 1.704670 0.000000 0.000000 
#    y 0.000000 1.704670 0.000000 
#    z 0.000000 0.000000 1.736140 
# 
# From -- ./inp_files/7830.got.cif
#   From: 2010.03.12/outbox.cif.g09.slc.cpg/sg142_4_cif.got.tgz:7830.got - 2010.04.03 13:27:16.
