data_PCOD8320341
_publ_section_title
;
Structure prediction by ZEFSAII (Michael W. Deem and Ramdas Pophale) SiO2 
 PCOD8320341
Probable space group: I 4/M C M
;
_chemical_formula_sum "Si O2"
_cell_formula_units_Z 192
_cell_length_a 20.736941
_cell_length_b 20.736941
_cell_length_c 24.267210
_cell_angle_alpha 90.000000
_cell_angle_beta 90.000000
_cell_angle_gamma 90.000000
_cell_volume 10435.403166
_symmetry_space_group_name_H-M "I 4/M C M"
_symmetry_group_IT_number 140
_symmetry_cell_setting 'tetragonal'
loop_
_space_group_symop_operation_xyz
x,y,z
-y,x,z
-x,-y,z
y,-x,z
x,-y,1/2-z
-x,y,1/2-z
y,x,1/2-z
-y,-x,1/2-z
-x,-y,-z
y,-x,-z
x,y,-z
-y,x,-z
-x,y,1/2+z
x,-y,1/2+z
-y,-x,1/2+z
y,x,1/2+z
1/2+x,1/2+y,1/2+z
1/2-y,1/2+x,1/2+z
1/2-x,1/2-y,1/2+z
1/2+y,1/2-x,1/2+z
1/2+x,1/2-y,-z
1/2-x,1/2+y,-z
1/2+y,1/2+x,-z
1/2-y,1/2-x,-z
1/2-x,1/2-y,1/2-z
1/2+y,1/2-x,1/2-z
1/2+x,1/2+y,1/2-z
1/2-y,1/2+x,1/2-z
1/2-x,1/2+y,z
1/2+x,1/2-y,z
1/2-y,1/2-x,z
1/2+y,1/2+x,z
loop_
_atom_site_type_symbol
_atom_site_label
_atom_site_fract_x
_atom_site_fract_y
_atom_site_fract_z
Si Si1 0.926741 0.675717 0.063778
Si Si2 0.446943 0.591238 0.936875
Si Si3 0.250392 0.145408 0.845156
Si Si4 0.322539 0.926858 0.436993
Si Si5 0.295972 0.617717 0.630671
Si Si6 0.924872 0.818829 0.752330
O O1 0.890878 0.609123 0.077403
O O2 0.891956 0.733026 0.095058
O O3 0.000204 0.666209 0.082347
O O4 0.922347 0.693517 0.000000
O O5 0.413184 0.523000 0.925070
O O6 0.417187 0.642696 0.895911
O O7 0.435090 0.612238 0.000000
O O8 0.310769 0.189232 0.825422
O O9 0.267980 0.103353 0.898495
O O10 0.193577 0.192308 0.864176
O O11 0.228927 0.097771 0.796290
O O12 0.297567 0.922699 0.500000
O O13 0.390303 0.890303 0.430252
O O14 0.282430 0.588532 0.690688
O O15 0.886078 0.886078 0.750000
O O16 0.000000 0.835434 0.750000
#
# Coordination Sequence:
#
# PCOD8320341 Si02
#       6
#    32  32  32  32  32  32
#     4  10  21  35  53  82 115 142 177 227 280 333
#     4   9  20  36  53  79 114 153 193 230 276 332
#     4  10  22  40  57  79 112 146 184 233 282 339
#     4   9  19  36  59  83 107 142 183 224 278 341
#     4  11  22  34  57  80 108 147 189 227 275 333
#     4  10  23  38  55  80 108 144 187 230 279 330
#
# _framework density 18.398906
#
# number of rings (size 3 to 8) (size 9 to 14) (size 15 to 20)
#    0.000    2.167    0.000    2.500    7.000    5.500 
#    0.000    3.333    0.000    0.000    0.000    0.000 
#    0.000    4.000    0.000    0.000    0.000    0.000 
#
# Total GULP energy -1190634.191576 kJ/mol
# GULP energy per Si atom -12402.439496 kJ/mol
# Density = 1.835703 g / cm^3
# Si number density = 18.398906 Si / 1000 Ang^3
#
#
#
# Elastic Constant Matrix: (Units=GPa)
#
#
# Indices 1 2 3 4 5 6 
#
# 1 88.2191 36.5555 39.2792 0.0000 0.0000 0.0000
# 2 36.5555 88.2191 39.2792 0.0000 0.0000 0.0000
# 3 39.2792 39.2792 62.2370 0.0000 0.0000 0.0000
# 4 0.0000 0.0000 0.0000 22.6652 0.0000 0.0000
# 5 0.0000 0.0000 0.0000 0.0000 22.6652 0.0000
# 6 0.0000 0.0000 0.0000 0.0000 0.0000 15.0475
#
#
#
# Elastic Compliance Matrix: (Units=1/GPa)
#
#
# Indices 1 2 3 4 5 6 
#
# 1 0.016327 -0.003029 -0.008393 0.000000 0.000000 0.000000
# 2 -0.003029 0.016327 -0.008393 0.000000 0.000000 0.000000
# 3 -0.008393 -0.008393 0.026662 0.000000 0.000000 0.000000
# 4 0.000000 0.000000 0.000000 0.044120 0.000000 0.000000
# 5 0.000000 0.000000 0.000000 0.000000 0.044120 0.000000
# 6 0.000000 0.000000 0.000000 0.000000 0.000000 0.066456
#
#
# Mechanical properties :
#
#
# Convention : Reuss Voigt Hill
#
# Bulk Modulus (GPa) = 50.79552 52.10030 51.44791
# Shear Modulus (GPa) = 19.21554 20.31301 19.76428
#
# Velocity S-wave (km/s) = 3.23520 3.32630 3.28107
# Velocity P-wave (km/s) = 6.45160 6.56742 6.50977
#
# Compressibility (1/GPa) = 0.01968678
#
# Stress axis : x y z
#
# Youngs Moduli (GPa) = 61.24674 61.24674 37.50673
#
# Poissons Ratio (x) = 0.18549 0.31480
# Poissons Ratio (y) = 0.18549 0.31480
# Poissons Ratio (z) = 0.51406 0.51406
#
# Static dielectric constant tensor:
#      x y z
#    x 3.432040 0.000000 0.000000 
#    y 0.000000 3.432040 0.000000 
#    z 0.000000 0.000000 3.522510 
# 
# 
# High freq. dielectric constant tensor:
#      x y z
#    x 1.714540 0.000000 0.000000 
#    y 0.000000 1.714540 0.000000 
#    z 0.000000 0.000000 1.719220 
# 
# From -- ./inp_files/9737.got.cif
#   From: 2010.06.25/outbox.cif.g09.slc.cpg/sg140_5_cif.got.tgz:9737.got - 2010.06.28 10:53:23.
