data_PCOD8320212
_publ_section_title
;
Structure prediction by ZEFSAII (Michael W. Deem and Ramdas Pophale) SiO2 
 PCOD8320212
Probable space group: I 4/M C M
;
_chemical_formula_sum "Si O2"
_cell_formula_units_Z 192
_cell_length_a 20.089221
_cell_length_b 20.089221
_cell_length_c 25.388280
_cell_angle_alpha 90.000000
_cell_angle_beta 90.000000
_cell_angle_gamma 90.000000
_cell_volume 10246.120810
_symmetry_space_group_name_H-M "I 4/M C M"
_symmetry_group_IT_number 140
_symmetry_cell_setting 'tetragonal'
loop_
_space_group_symop_operation_xyz
x,y,z
-y,x,z
-x,-y,z
y,-x,z
x,-y,1/2-z
-x,y,1/2-z
y,x,1/2-z
-y,-x,1/2-z
-x,-y,-z
y,-x,-z
x,y,-z
-y,x,-z
-x,y,1/2+z
x,-y,1/2+z
-y,-x,1/2+z
y,x,1/2+z
1/2+x,1/2+y,1/2+z
1/2-y,1/2+x,1/2+z
1/2-x,1/2-y,1/2+z
1/2+y,1/2-x,1/2+z
1/2+x,1/2-y,-z
1/2-x,1/2+y,-z
1/2+y,1/2+x,-z
1/2-y,1/2-x,-z
1/2-x,1/2-y,1/2-z
1/2+y,1/2-x,1/2-z
1/2+x,1/2+y,1/2-z
1/2-y,1/2+x,1/2-z
1/2-x,1/2+y,z
1/2+x,1/2-y,z
1/2-y,1/2-x,z
1/2+y,1/2+x,z
loop_
_atom_site_type_symbol
_atom_site_label
_atom_site_fract_x
_atom_site_fract_y
_atom_site_fract_z
Si Si1 0.853369 0.244877 0.657907
Si Si2 0.749705 0.359357 0.154560
Si Si3 0.047048 0.751304 0.060661
Si Si4 0.991679 0.896193 0.437613
Si Si5 0.807492 0.412001 0.440683
Si Si6 0.688462 0.923691 0.251211
O O1 0.794350 0.294350 0.673387
O O2 0.825693 0.169095 0.661706
O O3 0.877200 0.255450 0.598102
O O4 0.912165 0.262326 0.698928
O O5 0.797449 0.297449 0.160494
O O6 0.763170 0.390143 0.097050
O O7 0.766404 0.412293 0.199630
O O8 0.014059 0.820258 0.081304
O O9 0.991784 0.692927 0.067714
O O10 0.071084 0.755811 0.000000
O O11 0.992111 0.898286 0.500000
O O12 0.060353 0.928873 0.416431
O O13 0.782745 0.395997 0.500000
O O14 0.882058 0.382058 0.431290
O O15 0.622832 0.877169 0.252854
O O16 0.664092 0.000000 0.250000
#
# Coordination Sequence:
#
# PCOD8320212 Si02
#       6
#    32  32  32  32  32  32
#     4   9  18  33  54  76 102 138 171 208 263 314
#     4  10  21  35  51  76 106 134 171 218 264 312
#     4  10  20  31  49  75 104 142 179 217 261 307
#     4   8  15  28  44  64  94 131 171 214 254 295
#     4   9  18  32  50  75 106 137 173 214 256 308
#     4  10  20  36  57  79 104 133 170 215 261 313
#
# _framework density 18.738799
#
# number of rings (size 3 to 8) (size 9 to 14) (size 15 to 20)
#    0.000    2.667    0.000    2.000    2.333    3.167 
#    0.000    1.667    0.000    1.500    0.000    2.333 
#    0.000    2.667    0.000    0.000    0.000    0.000 
#
# Total GULP energy -1189711.925725 kJ/mol
# GULP energy per Si atom -12392.832560 kJ/mol
# Density = 1.869615 g / cm^3
# Si number density = 18.738799 Si / 1000 Ang^3
#
#
#
# Elastic Constant Matrix: (Units=GPa)
#
#
# Indices 1 2 3 4 5 6 
#
# 1 58.3191 12.6464 35.7502 0.0000 0.0000 0.0000
# 2 12.6464 58.3191 35.7502 0.0000 0.0000 0.0000
# 3 35.7502 35.7502 100.1891 0.0000 0.0000 0.0000
# 4 0.0000 0.0000 0.0000 23.0609 0.0000 0.0000
# 5 0.0000 0.0000 0.0000 0.0000 23.0609 0.0000
# 6 0.0000 0.0000 0.0000 0.0000 0.0000 18.3751
#
#
#
# Elastic Compliance Matrix: (Units=1/GPa)
#
#
# Indices 1 2 3 4 5 6 
#
# 1 0.021948 0.000053 -0.007851 0.000000 0.000000 0.000000
# 2 0.000053 0.021948 -0.007851 0.000000 0.000000 0.000000
# 3 -0.007851 -0.007851 0.015584 0.000000 0.000000 0.000000
# 4 0.000000 0.000000 0.000000 0.043363 0.000000 0.000000
# 5 0.000000 0.000000 0.000000 0.000000 0.043363 0.000000
# 6 0.000000 0.000000 0.000000 0.000000 0.000000 0.054422
#
#
# Mechanical properties :
#
#
# Convention : Reuss Voigt Hill
#
# Bulk Modulus (GPa) = 35.48163 42.79121 39.13642
# Shear Modulus (GPa) = 20.71947 21.74474 21.23210
#
# Velocity S-wave (km/s) = 3.32881 3.41018 3.36974
# Velocity P-wave (km/s) = 5.80953 6.19604 6.00590
#
# Compressibility (1/GPa) = 0.02818360
#
# Stress axis : x y z
#
# Youngs Moduli (GPa) = 45.56216 45.56216 64.16943
#
# Poissons Ratio (x) = -0.00242 0.50377
# Poissons Ratio (y) = -0.00242 0.50377
# Poissons Ratio (z) = 0.35769 0.35769
#
# Static dielectric constant tensor:
#      x y z
#    x 3.444670 0.000000 0.000000 
#    y 0.000000 3.444670 0.000000 
#    z 0.000000 0.000000 3.395150 
# 
# 
# High freq. dielectric constant tensor:
#      x y z
#    x 1.711620 0.000000 0.000000 
#    y 0.000000 1.711620 0.000000 
#    z 0.000000 0.000000 1.720200 
# 
# From -- ./inp_files/9772.got.cif
#   From: 2010.06.25/outbox.cif.g09.slc.cpg/sg140_5_cif.got.tgz:9772.got - 2010.06.28 10:53:23.
