data_PCOD8320751
_publ_section_title
;
Structure prediction by ZEFSAII (Michael W. Deem and Ramdas Pophale) SiO2 
 PCOD8320751
Probable space group: I 41/A M D
;
_chemical_formula_sum "Si O2"
_cell_formula_units_Z 144
_cell_length_a 20.589225
_cell_length_b 20.589225
_cell_length_c 18.922403
_cell_angle_alpha 90.000000
_cell_angle_beta 90.000000
_cell_angle_gamma 90.000000
_cell_volume 8021.512912
_symmetry_space_group_name_H-M "I 41/A M D"
_symmetry_group_IT_number 141
_space_group.IT_coordinate_system_code '2'
_symmetry_cell_setting 'tetragonal'
loop_
_space_group_symop_operation_xyz
x,y,z
1/4-y,3/4+x,1/4+z
-x,1/2-y,z
1/4+y,1/4-x,3/4+z
x,-y,-z
-x,1/2+y,-z
1/4+y,3/4+x,1/4-z
1/4-y,1/4-x,3/4-z
-x,-y,-z
3/4+y,1/4-x,3/4-z
x,1/2+y,-z
3/4-y,3/4+x,1/4-z
-x,y,z
x,1/2-y,z
3/4-y,1/4-x,3/4+z
3/4+y,3/4+x,1/4+z
1/2+x,1/2+y,1/2+z
3/4-y,1/4+x,3/4+z
1/2-x,-y,1/2+z
3/4+y,3/4-x,1/4+z
1/2+x,1/2-y,1/2-z
1/2-x,y,1/2-z
3/4+y,1/4+x,3/4-z
3/4-y,3/4-x,1/4-z
1/2-x,1/2-y,1/2-z
1/4+y,3/4-x,1/4-z
1/2+x,y,1/2-z
1/4-y,1/4+x,3/4-z
1/2-x,1/2+y,1/2+z
1/2+x,-y,1/2+z
1/4-y,3/4-x,1/4+z
1/4+y,1/4+x,3/4+z
loop_
_atom_site_type_symbol
_atom_site_label
_atom_site_fract_x
_atom_site_fract_y
_atom_site_fract_z
Si Si1 0.862846 0.140566 0.162076
Si Si2 0.250004 0.441458 0.555321
Si Si3 0.215410 0.320062 0.027540
Si Si4 0.500000 0.924317 0.985850
Si Si5 0.500000 0.583558 0.823089
Si Si6 0.078318 0.250000 0.555297
O O1 0.831956 0.172306 0.093464
O O2 0.854123 0.185122 0.230672
O O3 0.940379 0.138775 0.152258
O O4 0.830765 0.071489 0.174816
O O5 0.247120 0.500000 0.500000
O O6 0.286766 0.463235 0.625000
O O7 0.290931 0.380773 0.524760
O O8 0.197393 0.250000 0.991000
O O9 0.290095 0.314445 0.055480
O O10 0.500000 0.900404 0.905467
O O11 0.500000 0.000000 0.000000
O O12 0.500000 0.649008 0.776929
O O13 0.000000 0.250000 0.558140
#
# Coordination Sequence:
#
# PCOD8320751 Si02
#       6
#    32  32  32  16  16  16
#     4  12  22  39  61  87 123 166 210 260 303 370
#     4  12  25  38  63  96 126 157 215 263 314 377
#     4  10  20  41  64  85 117 167 205 254 320 369
#     4  12  20  35  58  85 122 168 218 238 302 371
#     4  10  22  38  57  81 126 171 201 251 308 364
#     4  12  24  42  58  89 126 171 217 255 305 385
#
# _framework density 17.951725
#
# number of rings (size 3 to 8) (size 9 to 14) (size 15 to 20)
#    0.667    0.000    8.889    0.667    0.000    0.889 
#    2.000    0.000    2.444    2.000    0.000    0.000 
#    0.000    0.000    0.000    0.000    0.000    0.000 
#
# Total GULP energy -892475.665718 kJ/mol
# GULP energy per Si atom -12395.495357 kJ/mol
# Density = 1.791087 g / cm^3
# Si number density = 17.951725 Si / 1000 Ang^3
#
#
#
# Elastic Constant Matrix: (Units=GPa)
#
#
# Indices 1 2 3 4 5 6 
#
# 1 124.7506 42.0423 56.2664 0.0000 0.0000 0.0000
# 2 42.0423 124.7516 56.2667 0.0000 0.0000 0.0000
# 3 56.2664 56.2667 86.7887 0.0000 0.0000 0.0000
# 4 0.0000 0.0000 0.0000 -58.5550 0.0000 0.0000
# 5 0.0000 0.0000 0.0000 0.0000 -58.5570 0.0000
# 6 0.0000 0.0000 0.0000 0.0000 0.0000 13.0541
#
#
#
# Elastic Compliance Matrix: (Units=1/GPa)
#
#
# Indices 1 2 3 4 5 6 
#
# 1 0.011374 -0.000717 -0.006909 0.000000 0.000000 0.000000
# 2 -0.000717 0.011374 -0.006909 0.000000 0.000000 0.000000
# 3 -0.006909 -0.006909 0.020481 0.000000 0.000000 0.000000
# 4 0.000000 0.000000 0.000000 -0.017078 0.000000 0.000000
# 5 0.000000 0.000000 0.000000 0.000000 -0.017077 0.000000
# 6 0.000000 0.000000 0.000000 0.000000 0.000000 0.076605
#
#
# Mechanical properties :
#
#
# Convention : Reuss Voigt Hill
#
# Bulk Modulus (GPa) = 70.62972 71.71574 71.17273
# Shear Modulus (GPa) = 41.85270 -8.69722 16.57774
#
# Velocity S-wave (km/s) = 4.83370 -2.20347 3.04215
# Velocity P-wave (km/s) = 8.40134 5.79329 7.21612
#
# Compressibility (1/GPa) = 0.01415835
#
# Stress axis : x y z
#
# Youngs Moduli (GPa) = 87.92165 87.92224 48.82648
#
# Poissons Ratio (x) = 0.06303 0.33734
# Poissons Ratio (y) = 0.06303 0.33734
# Poissons Ratio (z) = 0.60745 0.60746
#
# Static dielectric constant tensor:
#      x y z
#    x 3.652170 0.000000 0.000000 
#    y 0.000000 3.652150 0.000000 
#    z 0.000000 0.000000 3.152380 
# 
# 
# High freq. dielectric constant tensor:
#      x y z
#    x 1.700620 0.000000 0.000000 
#    y 0.000000 1.700620 0.000000 
#    z 0.000000 0.000000 1.671390 
# 
# From -- ./inp_files/8493.got.cif
#   From: 2010.03.12/outbox.cif.g09.slc.cpg/sg141_5_cif.got.tgz:8493.got - 2010.04.03 13:18:35.
