data_PCOD8320267
_publ_section_title
;
Structure prediction by ZEFSAII (Michael W. Deem and Ramdas Pophale) SiO2 
 PCOD8320267
Probable space group: I 4/M C M
;
_chemical_formula_sum "Si O2"
_cell_formula_units_Z 128
_cell_length_a 20.498928
_cell_length_b 20.498928
_cell_length_c 14.632766
_cell_angle_alpha 90.000000
_cell_angle_beta 90.000000
_cell_angle_gamma 90.000000
_cell_volume 6148.776789
_symmetry_space_group_name_H-M "I 4/M C M"
_symmetry_group_IT_number 140
_symmetry_cell_setting 'tetragonal'
loop_
_space_group_symop_operation_xyz
x,y,z
-y,x,z
-x,-y,z
y,-x,z
x,-y,1/2-z
-x,y,1/2-z
y,x,1/2-z
-y,-x,1/2-z
-x,-y,-z
y,-x,-z
x,y,-z
-y,x,-z
-x,y,1/2+z
x,-y,1/2+z
-y,-x,1/2+z
y,x,1/2+z
1/2+x,1/2+y,1/2+z
1/2-y,1/2+x,1/2+z
1/2-x,1/2-y,1/2+z
1/2+y,1/2-x,1/2+z
1/2+x,1/2-y,-z
1/2-x,1/2+y,-z
1/2+y,1/2+x,-z
1/2-y,1/2-x,-z
1/2-x,1/2-y,1/2-z
1/2+y,1/2-x,1/2-z
1/2+x,1/2+y,1/2-z
1/2-y,1/2+x,1/2-z
1/2-x,1/2+y,z
1/2+x,1/2-y,z
1/2-y,1/2-x,z
1/2+y,1/2+x,z
loop_
_atom_site_type_symbol
_atom_site_label
_atom_site_fract_x
_atom_site_fract_y
_atom_site_fract_z
Si Si1 0.923967 0.682446 0.248046
Si Si2 0.148229 0.242746 0.898386
Si Si3 0.389266 0.717198 0.607560
Si Si4 0.969253 0.097044 0.891498
O O1 0.884668 0.615333 0.232496
O O2 0.910455 0.734655 0.167155
O O3 0.899733 0.714215 0.342686
O O4 0.000000 0.664885 0.250000
O O5 0.201555 0.298446 0.901227
O O6 0.183096 0.177879 0.861261
O O7 0.118981 0.230349 0.000000
O O8 0.388404 0.731678 0.500000
O O9 0.447417 0.668776 0.639155
O O10 0.041803 0.081542 0.854144
O O11 0.966863 0.092690 0.000000
#
# Coordination Sequence:
#
# PCOD8320267 Si02
#       4
#    32  32  32  32
#     4  11  25  42  61  87 118 154 203 258 307 362
#     4   9  19  38  62  86 114 149 190 240 301 360
#     4  10  20  34  61  93 123 156 193 240 296 356
#     4   8  15  28  47  77 119 162 196 224 265 333
#
# _framework density 20.817149000000001
#
# number of rings (size 3 to 8) (size 9 to 14) (size 15 to 20)
#    0.000    2.500    0.000    2.250    3.500    4.750 
#    0.000    0.000    0.000    0.000    0.000    5.250 
#    0.000    0.000    0.000    0.000    0.000    0.000 
#
# Total GULP energy -793526.480768 kJ/mol
# GULP energy per Si atom -12398.851262 kJ/mol
# Density = 2.076977 g / cm^3
# Si number density = 20.817149 Si / 1000 Ang^3
#
#
#
# Elastic Constant Matrix: (Units=GPa)
#
#
# Indices 1 2 3 4 5 6 
#
# 1 103.3018 29.4348 36.1681 0.0000 0.0000 0.0000
# 2 29.4348 103.3018 36.1681 0.0000 0.0000 0.0000
# 3 36.1681 36.1681 68.1001 0.0000 0.0000 0.0000
# 4 0.0000 0.0000 0.0000 19.8262 0.0000 0.0000
# 5 0.0000 0.0000 0.0000 0.0000 19.8262 0.0000
# 6 0.0000 0.0000 0.0000 0.0000 0.0000 19.3741
#
#
#
# Elastic Compliance Matrix: (Units=1/GPa)
#
#
# Indices 1 2 3 4 5 6 
#
# 1 0.012070 -0.001468 -0.005631 0.000000 0.000000 0.000000
# 2 -0.001468 0.012070 -0.005631 0.000000 0.000000 0.000000
# 3 -0.005631 -0.005631 0.020665 0.000000 0.000000 0.000000
# 4 0.000000 0.000000 0.000000 0.050438 0.000000 0.000000
# 5 0.000000 0.000000 0.000000 0.000000 0.050438 0.000000
# 6 0.000000 0.000000 0.000000 0.000000 0.000000 0.051615
#
#
# Mechanical properties :
#
#
# Convention : Reuss Voigt Hill
#
# Bulk Modulus (GPa) = 51.68910 53.13843 52.41377
# Shear Modulus (GPa) = 21.81447 23.33414 22.57431
#
# Velocity S-wave (km/s) = 3.24065 3.35163 3.29661
# Velocity P-wave (km/s) = 6.23590 6.36864 6.30262
#
# Compressibility (1/GPa) = 0.01934644
#
# Stress axis : x y z
#
# Youngs Moduli (GPa) = 82.84936 82.84936 48.38995
#
# Poissons Ratio (x) = 0.12160 0.27248
# Poissons Ratio (y) = 0.12160 0.27248
# Poissons Ratio (z) = 0.46652 0.46652
#
# Static dielectric constant tensor:
#      x y z
#    x 3.718660 0.000000 0.000000 
#    y 0.000000 3.718660 0.000000 
#    z 0.000000 0.000000 3.903130 
# 
# 
# High freq. dielectric constant tensor:
#      x y z
#    x 1.803650 0.000000 0.000000 
#    y 0.000000 1.803650 0.000000 
#    z 0.000000 0.000000 1.809600 
# 
# From -- ./inp_files/6462.got.cif
#   From: 2010.06.25/outbox.cif.g09.slc.cpg/sg140_4_cif.got.tgz:6462.got - 2010.06.28 10:53:23.
