data_PCOD8320360
_publ_section_title
;
Structure prediction by ZEFSAII (Michael W. Deem and Ramdas Pophale) SiO2 
 PCOD8320360
Probable space group: I 4/M C M
;
_chemical_formula_sum "Si O2"
_cell_formula_units_Z 160
_cell_length_a 21.304778
_cell_length_b 21.304778
_cell_length_c 17.886626
_cell_angle_alpha 90.000000
_cell_angle_beta 90.000000
_cell_angle_gamma 90.000000
_cell_volume 8118.624452
_symmetry_space_group_name_H-M "I 4/M C M"
_symmetry_group_IT_number 140
_symmetry_cell_setting 'tetragonal'
loop_
_space_group_symop_operation_xyz
x,y,z
-y,x,z
-x,-y,z
y,-x,z
x,-y,1/2-z
-x,y,1/2-z
y,x,1/2-z
-y,-x,1/2-z
-x,-y,-z
y,-x,-z
x,y,-z
-y,x,-z
-x,y,1/2+z
x,-y,1/2+z
-y,-x,1/2+z
y,x,1/2+z
1/2+x,1/2+y,1/2+z
1/2-y,1/2+x,1/2+z
1/2-x,1/2-y,1/2+z
1/2+y,1/2-x,1/2+z
1/2+x,1/2-y,-z
1/2-x,1/2+y,-z
1/2+y,1/2+x,-z
1/2-y,1/2-x,-z
1/2-x,1/2-y,1/2-z
1/2+y,1/2-x,1/2-z
1/2+x,1/2+y,1/2-z
1/2-y,1/2+x,1/2-z
1/2-x,1/2+y,z
1/2+x,1/2-y,z
1/2-y,1/2-x,z
1/2+y,1/2+x,z
loop_
_atom_site_type_symbol
_atom_site_label
_atom_site_fract_x
_atom_site_fract_y
_atom_site_fract_z
Si Si1 0.251816 0.648969 0.183073
Si Si2 0.591238 0.452783 0.414034
Si Si3 0.165589 0.435170 0.587326
Si Si4 0.424914 0.172985 0.587800
Si Si5 0.118846 0.201754 0.158220
O O1 0.200683 0.700683 0.207756
O O2 0.223439 0.598731 0.126803
O O3 0.277127 0.612264 0.255672
O O4 0.309262 0.682971 0.140897
O O5 0.583309 0.526438 0.398073
O O6 0.611792 0.441872 0.500000
O O7 0.643368 0.426749 0.357653
O O8 0.181501 0.435077 0.500000
O O9 0.100184 0.399817 0.603992
O O10 0.160853 0.505388 0.620035
O O11 0.426484 0.163337 0.500000
O O12 0.378283 0.121718 0.624750
O O13 0.400590 0.242121 0.604443
#
# Coordination Sequence:
#
# PCOD8320360 Si02
#       5
#    32  32  32  32  32
#     4  10  22  40  58  82 117 156 197 240 295 353
#     4   9  20  39  60  85 120 158 195 238 288 344
#     4   9  20  39  61  85 114 153 199 244 294 355
#     4  10  21  36  57  88 120 150 191 242 296 355
#     4  11  21  36  59  85 116 152 192 238 292 348
#
# _framework density 19.707771999999999
#
# number of rings (size 3 to 8) (size 9 to 14) (size 15 to 20)
#    0.000    2.200    0.000    3.600    2.800    2.800 
#    3.600    4.000    0.000    4.800    0.000    2.800 
#    0.000    0.000    0.000    0.000    0.000    0.000 
#
# Total GULP energy -992112.173241 kJ/mol
# GULP energy per Si atom -12401.402166 kJ/mol
# Density = 1.966292 g / cm^3
# Si number density = 19.707772 Si / 1000 Ang^3
#
#
#
# Elastic Constant Matrix: (Units=GPa)
#
#
# Indices 1 2 3 4 5 6 
#
# 1 143.6639 77.2302 47.7806 0.0000 0.0000 0.0000
# 2 77.2302 143.6639 47.7806 0.0000 0.0000 0.0000
# 3 47.7806 47.7806 49.0275 0.0000 0.0000 0.0000
# 4 0.0000 0.0000 0.0000 27.1930 0.0000 0.0000
# 5 0.0000 0.0000 0.0000 0.0000 27.1930 0.0000
# 6 0.0000 0.0000 0.0000 0.0000 0.0000 35.7382
#
#
#
# Elastic Compliance Matrix: (Units=1/GPa)
#
#
# Indices 1 2 3 4 5 6 
#
# 1 0.011440 -0.003613 -0.007628 0.000000 0.000000 0.000000
# 2 -0.003613 0.011440 -0.007628 0.000000 0.000000 0.000000
# 3 -0.007628 -0.007628 0.035265 0.000000 0.000000 0.000000
# 4 0.000000 0.000000 0.000000 0.036774 0.000000 0.000000
# 5 0.000000 0.000000 0.000000 0.000000 0.036774 0.000000
# 6 0.000000 0.000000 0.000000 0.000000 0.000000 0.027981
#
#
# Mechanical properties :
#
#
# Convention : Reuss Voigt Hill
#
# Bulk Modulus (GPa) = 49.00321 75.77091 62.38706
# Shear Modulus (GPa) = 24.48420 28.92909 26.70664
#
# Velocity S-wave (km/s) = 3.52854 3.83548 3.68521
# Velocity P-wave (km/s) = 6.44358 7.62530 7.05921
#
# Compressibility (1/GPa) = 0.02040683
#
# Stress axis : x y z
#
# Youngs Moduli (GPa) = 87.41415 87.41415 28.35711
#
# Poissons Ratio (x) = 0.31581 0.21631
# Poissons Ratio (y) = 0.31581 0.21631
# Poissons Ratio (z) = 0.66679 0.66679
#
# Static dielectric constant tensor:
#      x y z
#    x 3.773360 0.000000 0.000000 
#    y 0.000000 3.773360 0.000000 
#    z 0.000000 0.000000 3.351420 
# 
# 
# High freq. dielectric constant tensor:
#      x y z
#    x 1.777350 0.000000 0.000000 
#    y 0.000000 1.777350 0.000000 
#    z 0.000000 0.000000 1.750230 
# 
# From -- ./inp_files/6801.got.cif
#   From: 2010.06.25/outbox.cif.g09.slc.cpg/sg140_4_cif.got.tgz:6801.got - 2010.06.28 10:53:23.
