data_PCOD8320654
_publ_section_title
;
Structure prediction by ZEFSAII (Michael W. Deem and Ramdas Pophale) SiO2 
 PCOD8320654
Probable space group: I 41/A M D
;
_chemical_formula_sum "Si O2"
_cell_formula_units_Z 164
_cell_length_a 22.944286
_cell_length_b 22.944286
_cell_length_c 16.222564
_cell_angle_alpha 90.000000
_cell_angle_beta 90.000000
_cell_angle_gamma 90.000000
_cell_volume 8540.210811
_symmetry_space_group_name_H-M "I 41/A M D"
_symmetry_group_IT_number 141
_space_group.IT_coordinate_system_code '2'
_symmetry_cell_setting 'tetragonal'
loop_
_space_group_symop_operation_xyz
x,y,z
1/4-y,3/4+x,1/4+z
-x,1/2-y,z
1/4+y,1/4-x,3/4+z
x,-y,-z
-x,1/2+y,-z
1/4+y,3/4+x,1/4-z
1/4-y,1/4-x,3/4-z
-x,-y,-z
3/4+y,1/4-x,3/4-z
x,1/2+y,-z
3/4-y,3/4+x,1/4-z
-x,y,z
x,1/2-y,z
3/4-y,1/4-x,3/4+z
3/4+y,3/4+x,1/4+z
1/2+x,1/2+y,1/2+z
3/4-y,1/4+x,3/4+z
1/2-x,-y,1/2+z
3/4+y,3/4-x,1/4+z
1/2+x,1/2-y,1/2-z
1/2-x,y,1/2-z
3/4+y,1/4+x,3/4-z
3/4-y,3/4-x,1/4-z
1/2-x,1/2-y,1/2-z
1/4+y,3/4-x,1/4-z
1/2+x,y,1/2-z
1/4-y,1/4+x,3/4-z
1/2-x,1/2+y,1/2+z
1/2+x,-y,1/2+z
1/4-y,3/4-x,1/4+z
1/4+y,1/4+x,3/4+z
loop_
_atom_site_type_symbol
_atom_site_label
_atom_site_fract_x
_atom_site_fract_y
_atom_site_fract_z
Si Si1 0.899662 0.317057 0.465163
Si Si2 0.435077 0.558542 0.545674
Si Si3 0.500000 0.320254 0.913856
Si Si4 0.000000 0.637911 0.228947
Si Si5 0.500000 0.750000 0.375000
Si Si6 0.066491 0.972771 0.765406
Si Si7 0.660905 0.870773 0.459979
O O1 0.925665 0.324336 0.375000
O O2 0.893420 0.250000 0.487508
O O3 0.943471 0.342454 0.534433
O O4 0.833677 0.342198 0.467264
O O5 0.416586 0.500000 0.500000
O O6 0.500000 0.579895 0.517281
O O7 0.435908 0.546516 0.640929
O O8 0.385820 0.606320 0.526177
O O9 0.500000 0.250000 0.901776
O O10 0.500000 0.355118 0.828022
O O11 0.000000 0.699568 0.189360
O O12 0.945920 0.603449 0.190784
O O13 0.000000 0.990679 0.736531
O O14 0.115376 0.023547 0.752971
O O15 0.657991 0.907991 0.375000
#
# Coordination Sequence:
#
# PCOD8320654 Si02
#       7
#    32  32  16  16   4  32  32
#     4  10  19  35  64  92 119 146 195 254 310 371
#     4  10  21  36  59  83 113 150 203 251 285 345
#     4  10  20  34  58  93 124 150 182 251 315 369
#     4  12  24  34  49  83 127 155 189 236 304 354
#     4  12  24  32  44  76 122 164 192 224 308 352
#     4  10  21  39  58  86 118 161 197 239 303 361
#     4  12  23  35  57  81 117 160 201 241 283 351
#
# _framework density 19.203271999999998
#
# number of rings (size 3 to 8) (size 9 to 14) (size 15 to 20)
#    0.000    1.366    5.366    1.171    2.732    1.561 
#    0.000    0.000    4.293    4.683    0.000    0.000 
#    0.000    0.000    0.000    0.000    0.000    0.000 
#
# Total GULP energy -1016179.401032 kJ/mol
# GULP energy per Si atom -12392.431720 kJ/mol
# Density = 1.915956 g / cm^3
# Si number density = 19.203272 Si / 1000 Ang^3
#
#
#
# Elastic Constant Matrix: (Units=GPa)
#
#
# Indices 1 2 3 4 5 6 
#
# 1 87.3343 40.8779 3.6992 0.0000 0.0000 0.0000
# 2 40.8779 87.3373 3.6999 0.0000 0.0000 0.0000
# 3 3.6992 3.6999 56.1005 0.0000 0.0000 0.0000
# 4 0.0000 0.0000 0.0000 19.4952 0.0000 0.0000
# 5 0.0000 0.0000 0.0000 0.0000 19.4950 0.0000
# 6 0.0000 0.0000 0.0000 0.0000 0.0000 31.7665
#
#
#
# Elastic Compliance Matrix: (Units=1/GPa)
#
#
# Indices 1 2 3 4 5 6 
#
# 1 0.014677 -0.006848 -0.000516 0.000000 0.000000 0.000000
# 2 -0.006848 0.014677 -0.000516 0.000000 0.000000 0.000000
# 3 -0.000516 -0.000516 0.017893 0.000000 0.000000 0.000000
# 4 0.000000 0.000000 0.000000 0.051295 0.000000 0.000000
# 5 0.000000 0.000000 0.000000 0.000000 0.051295 0.000000
# 6 0.000000 0.000000 0.000000 0.000000 0.000000 0.031480
#
#
# Mechanical properties :
#
#
# Convention : Reuss Voigt Hill
#
# Bulk Modulus (GPa) = 31.75956 36.36957 34.06456
# Shear Modulus (GPa) = 24.08787 26.31768 25.20277
#
# Velocity S-wave (km/s) = 3.54554 3.70601 3.62667
# Velocity P-wave (km/s) = 5.77371 6.10681 5.94259
#
# Compressibility (1/GPa) = 0.03148658
#
# Stress axis : x y z
#
# Youngs Moduli (GPa) = 68.13233 68.13463 55.88703
#
# Poissons Ratio (x) = 0.46657 0.02885
# Poissons Ratio (y) = 0.46656 0.02886
# Poissons Ratio (z) = 0.03517 0.03519
#
# Static dielectric constant tensor:
#      x y z
#    x 3.314560 0.000000 0.000000 
#    y 0.000000 3.314570 0.000000 
#    z 0.000000 0.000000 3.098590 
# 
# 
# High freq. dielectric constant tensor:
#      x y z
#    x 1.733720 0.000000 0.000000 
#    y 0.000000 1.733720 0.000000 
#    z 0.000000 0.000000 1.737610 
# 
# From -- ./inp_files/8843.got.cif
#   From: 2010.03.12/outbox.cif.g09.slc.cpg/sg141_5_cif.got.tgz:8843.got - 2010.04.03 13:18:35.
