data_PCOD8320434
_publ_section_title
;
Structure prediction by ZEFSAII (Michael W. Deem and Ramdas Pophale) SiO2 
 PCOD8320434
Probable space group: I 4/M C M
;
_chemical_formula_sum "Si O2"
_cell_formula_units_Z 176
_cell_length_a 16.665262
_cell_length_b 16.665262
_cell_length_c 29.976974
_cell_angle_alpha 90.000000
_cell_angle_beta 90.000000
_cell_angle_gamma 90.000000
_cell_volume 8325.533693
_symmetry_space_group_name_H-M "I 4/M C M"
_symmetry_group_IT_number 140
_symmetry_cell_setting 'tetragonal'
loop_
_space_group_symop_operation_xyz
x,y,z
-y,x,z
-x,-y,z
y,-x,z
x,-y,1/2-z
-x,y,1/2-z
y,x,1/2-z
-y,-x,1/2-z
-x,-y,-z
y,-x,-z
x,y,-z
-y,x,-z
-x,y,1/2+z
x,-y,1/2+z
-y,-x,1/2+z
y,x,1/2+z
1/2+x,1/2+y,1/2+z
1/2-y,1/2+x,1/2+z
1/2-x,1/2-y,1/2+z
1/2+y,1/2-x,1/2+z
1/2+x,1/2-y,-z
1/2-x,1/2+y,-z
1/2+y,1/2+x,-z
1/2-y,1/2-x,-z
1/2-x,1/2-y,1/2-z
1/2+y,1/2-x,1/2-z
1/2+x,1/2+y,1/2-z
1/2-y,1/2+x,1/2-z
1/2-x,1/2+y,z
1/2+x,1/2-y,z
1/2-y,1/2-x,z
1/2+y,1/2+x,z
loop_
_atom_site_type_symbol
_atom_site_label
_atom_site_fract_x
_atom_site_fract_y
_atom_site_fract_z
Si Si1 0.739182 0.890003 0.394510
Si Si2 0.614698 0.553275 0.159601
Si Si3 0.707793 0.076572 0.718475
Si Si4 0.377506 0.622495 0.750000
Si Si5 0.843762 0.788245 0.548519
Si Si6 0.311326 0.941963 0.386167
O O1 0.684909 0.815092 0.378919
O O2 0.801447 0.909869 0.355401
O O3 0.791730 0.866456 0.437804
O O4 0.681963 0.966528 0.404146
O O5 0.538356 0.605217 0.142776
O O6 0.616931 0.551095 0.213613
O O7 0.638119 0.138119 0.731584
O O8 0.793132 0.118462 0.724541
O O9 0.703832 0.053860 0.666458
O O10 0.695596 0.000000 0.750000
O O11 0.884606 0.805971 0.500000
O O12 0.786775 0.713226 0.542437
O O13 0.905941 0.765730 0.587676
O O14 0.392788 0.892788 0.396978
#
# Coordination Sequence:
#
# PCOD8320434 Si02
#       6
#    32  32  32  16  32  32
#     4  11  22  37  59  87 118 153 198 249 303 369
#     4  11  23  38  56  81 115 153 196 251 314 375
#     4  11  24  39  57  84 120 163 211 261 312 371
#     4  12  21  35  56  82 110 145 199 258 316 372
#     4   9  19  37  61  87 115 150 194 247 306 367
#     4  10  22  40  60  86 122 164 209 256 312 378
#
# _framework density 21.139785
#
# number of rings (size 3 to 8) (size 9 to 14) (size 15 to 20)
#    0.000    1.455    0.000    6.273    0.000    7.091 
#    0.000    1.818    0.000    0.000    0.000    8.909 
#    0.000    0.000    0.000    0.000    0.000    0.000 
#
# Total GULP energy -1090841.643406 kJ/mol
# GULP energy per Si atom -12395.927766 kJ/mol
# Density = 2.109167 g / cm^3
# Si number density = 21.139785 Si / 1000 Ang^3
#
#
#
# Elastic Constant Matrix: (Units=GPa)
#
#
# Indices 1 2 3 4 5 6 
#
# 1 109.6920 46.6355 30.3377 0.0000 0.0000 0.0000
# 2 46.6355 109.6921 30.3379 0.0000 0.0000 0.0000
# 3 30.3377 30.3379 94.2158 0.0000 0.0000 0.0000
# 4 0.0000 0.0000 0.0000 19.1956 0.0000 0.0000
# 5 0.0000 0.0000 0.0000 0.0000 19.1956 0.0000
# 6 0.0000 0.0000 0.0000 0.0000 0.0000 33.8877
#
#
#
# Elastic Compliance Matrix: (Units=1/GPa)
#
#
# Indices 1 2 3 4 5 6 
#
# 1 0.011585 -0.004274 -0.002354 0.000000 0.000000 0.000000
# 2 -0.004274 0.011585 -0.002354 0.000000 0.000000 0.000000
# 3 -0.002354 -0.002354 0.012130 0.000000 0.000000 0.000000
# 4 0.000000 0.000000 0.000000 0.052095 0.000000 0.000000
# 5 0.000000 0.000000 0.000000 0.000000 0.052095 0.000000
# 6 0.000000 0.000000 0.000000 0.000000 0.000000 0.029509
#
#
# Mechanical properties :
#
#
# Convention : Reuss Voigt Hill
#
# Bulk Modulus (GPa) = 57.68712 58.69135 58.18923
# Shear Modulus (GPa) = 25.94150 28.20838 27.07494
#
# Velocity S-wave (km/s) = 3.50686 3.65687 3.58265
# Velocity P-wave (km/s) = 6.61400 6.75677 6.68577
#
# Compressibility (1/GPa) = 0.01733489
#
# Stress axis : x y z
#
# Youngs Moduli (GPa) = 86.32130 86.32128 82.44075
#
# Poissons Ratio (x) = 0.36895 0.19406
# Poissons Ratio (y) = 0.36895 0.19407
# Poissons Ratio (z) = 0.20320 0.20320
#
# Static dielectric constant tensor:
#      x y z
#    x 3.935230 0.000000 0.000000 
#    y 0.000000 3.935220 0.000000 
#    z 0.000000 0.000000 3.940830 
# 
# 
# High freq. dielectric constant tensor:
#      x y z
#    x 1.829770 0.000000 0.000000 
#    y 0.000000 1.829770 0.000000 
#    z 0.000000 0.000000 1.815900 
# 
# From -- ./inp_files/10672.got.cif
#   From: 2010.06.25/outbox.cif.g09.slc.cpg/sg140_6_cif.got.tgz:10672.got - 2010.06.28 10:53:23.
