data_PCOD8320506
_publ_section_title
;
Structure prediction by ZEFSAII (Michael W. Deem and Ramdas Pophale) SiO2 
 PCOD8320506
Probable space group: I 4/M C M
;
_chemical_formula_sum "Si O2"
_cell_formula_units_Z 128
_cell_length_a 19.647829
_cell_length_b 19.647829
_cell_length_c 17.245671
_cell_angle_alpha 90.000000
_cell_angle_beta 90.000000
_cell_angle_gamma 90.000000
_cell_volume 6657.470276
_symmetry_space_group_name_H-M "I 4/M C M"
_symmetry_group_IT_number 140
_symmetry_cell_setting 'tetragonal'
loop_
_space_group_symop_operation_xyz
x,y,z
-y,x,z
-x,-y,z
y,-x,z
x,-y,1/2-z
-x,y,1/2-z
y,x,1/2-z
-y,-x,1/2-z
-x,-y,-z
y,-x,-z
x,y,-z
-y,x,-z
-x,y,1/2+z
x,-y,1/2+z
-y,-x,1/2+z
y,x,1/2+z
1/2+x,1/2+y,1/2+z
1/2-y,1/2+x,1/2+z
1/2-x,1/2-y,1/2+z
1/2+y,1/2-x,1/2+z
1/2+x,1/2-y,-z
1/2-x,1/2+y,-z
1/2+y,1/2+x,-z
1/2-y,1/2-x,-z
1/2-x,1/2-y,1/2-z
1/2+y,1/2-x,1/2-z
1/2+x,1/2+y,1/2-z
1/2-y,1/2+x,1/2-z
1/2-x,1/2+y,z
1/2+x,1/2-y,z
1/2-y,1/2-x,z
1/2+y,1/2+x,z
loop_
_atom_site_type_symbol
_atom_site_label
_atom_site_fract_x
_atom_site_fract_y
_atom_site_fract_z
Si Si1 0.996011 0.110877 0.338776
Si Si2 0.965379 0.242546 0.089074
Si Si3 0.855372 0.755179 0.717183
Si Si4 0.160844 0.448538 0.815812
O O1 0.989958 0.174941 0.396072
O O2 0.931140 0.064497 0.355362
O O3 0.000000 0.137402 0.250000
O O4 0.896999 0.233283 0.138726
O O5 0.008300 0.309617 0.112492
O O6 0.944941 0.249854 0.000000
O O7 0.827116 0.827116 0.750000
O O8 0.792696 0.707305 0.694620
O O9 0.902470 0.721670 0.782587
O O10 0.133792 0.500000 0.750000
O O11 0.097986 0.402015 0.844347
#
# Coordination Sequence:
#
# PCOD8320506 Si02
#       4
#    32  32  32  32
#     4   9  19  35  55  76 104 151 202 241 279 334
#     4  11  23  34  53  86 120 150 181 236 300 350
#     4   9  19  37  60  80 102 144 196 237 278 339
#     4   9  19  37  59  83 110 145 194 241 283 344
#
# _framework density 19.226523
#
# number of rings (size 3 to 8) (size 9 to 14) (size 15 to 20)
#    0.000    2.500    0.000    3.000    7.000    2.250 
#    0.000    1.250    0.000    4.500    0.000    7.000 
#    0.000    0.000    0.000    0.000    0.000    0.000 
#
# Total GULP energy -793656.493122 kJ/mol
# GULP energy per Si atom -12400.882705 kJ/mol
# Density = 1.918276 g / cm^3
# Si number density = 19.226523 Si / 1000 Ang^3
#
#
#
# Elastic Constant Matrix: (Units=GPa)
#
#
# Indices 1 2 3 4 5 6 
#
# 1 94.5472 42.9918 49.8526 0.0000 0.0000 0.0000
# 2 42.9918 94.5472 49.8526 0.0000 0.0000 0.0000
# 3 49.8526 49.8526 125.0398 0.0000 0.0000 0.0000
# 4 0.0000 0.0000 0.0000 17.7609 0.0000 0.0000
# 5 0.0000 0.0000 0.0000 0.0000 17.7609 0.0000
# 6 0.0000 0.0000 0.0000 0.0000 0.0000 31.4121
#
#
#
# Elastic Compliance Matrix: (Units=1/GPa)
#
#
# Indices 1 2 3 4 5 6 
#
# 1 0.014811 -0.004585 -0.004077 0.000000 0.000000 0.000000
# 2 -0.004585 0.014811 -0.004077 0.000000 0.000000 0.000000
# 3 -0.004077 -0.004077 0.011249 0.000000 0.000000 0.000000
# 4 0.000000 0.000000 0.000000 0.056304 0.000000 0.000000
# 5 0.000000 0.000000 0.000000 0.000000 0.056304 0.000000
# 6 0.000000 0.000000 0.000000 0.000000 0.000000 0.031835
#
#
# Mechanical properties :
#
#
# Convention : Reuss Voigt Hill
#
# Bulk Modulus (GPa) = 64.96681 66.61425 65.79053
# Shear Modulus (GPa) = 23.15638 24.81591 23.98614
#
# Velocity S-wave (km/s) = 3.47421 3.59655 3.53591
# Velocity P-wave (km/s) = 7.06803 7.20896 7.13884
#
# Compressibility (1/GPa) = 0.01539247
#
# Stress axis : x y z
#
# Youngs Moduli (GPa) = 67.51529 67.51529 88.90055
#
# Poissons Ratio (x) = 0.30957 0.36246
# Poissons Ratio (y) = 0.30957 0.36246
# Poissons Ratio (z) = 0.27527 0.27527
#
# Static dielectric constant tensor:
#      x y z
#    x 3.591470 0.000000 0.000000 
#    y 0.000000 3.591470 0.000000 
#    z 0.000000 0.000000 3.102230 
# 
# 
# High freq. dielectric constant tensor:
#      x y z
#    x 1.754870 0.000000 0.000000 
#    y 0.000000 1.754870 0.000000 
#    z 0.000000 0.000000 1.707860 
# 
# From -- ./inp_files/6440.got.cif
#   From: 2010.06.25/outbox.cif.g09.slc.cpg/sg140_4_cif.got.tgz:6440.got - 2010.06.28 10:53:23.
