data_PCOD8320546
_publ_section_title
;
Structure prediction by ZEFSAII (Michael W. Deem and Ramdas Pophale) SiO2 
 PCOD8320546
Probable space group: I 41/A M D
;
_chemical_formula_sum "Si O2"
_cell_formula_units_Z 128
_cell_length_a 22.931835
_cell_length_b 22.931835
_cell_length_c 17.366722
_cell_angle_alpha 90.000000
_cell_angle_beta 90.000000
_cell_angle_gamma 90.000000
_cell_volume 9132.621712
_symmetry_space_group_name_H-M "I 41/A M D"
_symmetry_group_IT_number 141
_space_group.IT_coordinate_system_code '2'
_symmetry_cell_setting 'tetragonal'
loop_
_space_group_symop_operation_xyz
x,y,z
1/4-y,3/4+x,1/4+z
-x,1/2-y,z
1/4+y,1/4-x,3/4+z
x,-y,-z
-x,1/2+y,-z
1/4+y,3/4+x,1/4-z
1/4-y,1/4-x,3/4-z
-x,-y,-z
3/4+y,1/4-x,3/4-z
x,1/2+y,-z
3/4-y,3/4+x,1/4-z
-x,y,z
x,1/2-y,z
3/4-y,1/4-x,3/4+z
3/4+y,3/4+x,1/4+z
1/2+x,1/2+y,1/2+z
3/4-y,1/4+x,3/4+z
1/2-x,-y,1/2+z
3/4+y,3/4-x,1/4+z
1/2+x,1/2-y,1/2-z
1/2-x,y,1/2-z
3/4+y,1/4+x,3/4-z
3/4-y,3/4-x,1/4-z
1/2-x,1/2-y,1/2-z
1/4+y,3/4-x,1/4-z
1/2+x,y,1/2-z
1/4-y,1/4+x,3/4-z
1/2-x,1/2+y,1/2+z
1/2+x,-y,1/2+z
1/4-y,3/4-x,1/4+z
1/4+y,1/4+x,3/4+z
loop_
_atom_site_type_symbol
_atom_site_label
_atom_site_fract_x
_atom_site_fract_y
_atom_site_fract_z
Si Si1 0.270981 0.979020 0.375000
Si Si2 0.229322 0.682488 0.869603
Si Si3 0.163841 0.139774 0.268955
Si Si4 0.067716 0.317716 0.375000
Si Si5 0.251221 0.086089 0.019971
O O1 0.273206 0.924467 0.433853
O O2 0.211280 0.975088 0.327880
O O3 0.225536 0.750000 0.889415
O O4 0.174159 0.663784 0.817134
O O5 0.288818 0.667775 0.825673
O O6 0.229212 0.648913 0.951169
O O7 0.100452 0.159269 0.298544
O O8 0.170424 0.070700 0.270380
O O9 0.080496 0.250000 0.388668
#
# Coordination Sequence:
#
# PCOD8320546 Si02
#       5
#    16  32  32  16  32
#     4  10  17  28  43  60  88 105 146 179 222 253
#     4  11  19  28  42  62  87 116 146 176 212 253
#     4  11  18  29  40  62  88 118 149 175 208 248
#     4  11  21  30  41  58  88 128 158 178 204 243
#     4  11  17  28  44  64  84 117 142 182 214 259
#
# _framework density 14.015691
#
# number of rings (size 3 to 8) (size 9 to 14) (size 15 to 20)
#    0.000    1.125    7.500    4.500    0.000    0.000 
#    0.000    0.000    0.000    0.000    0.000    5.250 
#    0.000    0.000    0.000    0.000    0.000    0.000 
#
# Total GULP energy -793565.278776 kJ/mol
# GULP energy per Si atom -12399.457481 kJ/mol
# Density = 1.398379 g / cm^3
# Si number density = 14.015691 Si / 1000 Ang^3
#
#
#
# Elastic Constant Matrix: (Units=GPa)
#
#
# Indices 1 2 3 4 5 6 
#
# 1 71.7068 33.8125 53.2707 0.0000 0.0000 0.0000
# 2 33.8125 71.7087 53.2695 0.0000 0.0000 0.0000
# 3 53.2707 53.2695 102.7872 0.0000 0.0000 0.0000
# 4 0.0000 0.0000 0.0000 11.0040 0.0000 0.0000
# 5 0.0000 0.0000 0.0000 0.0000 11.0047 0.0000
# 6 0.0000 0.0000 0.0000 0.0000 0.0000 14.8386
#
#
#
# Elastic Compliance Matrix: (Units=1/GPa)
#
#
# Indices 1 2 3 4 5 6 
#
# 1 0.023134 -0.003255 -0.010303 0.000000 0.000000 0.000000
# 2 -0.003255 0.023133 -0.010302 0.000000 0.000000 0.000000
# 3 -0.010303 -0.010302 0.020407 0.000000 0.000000 0.000000
# 4 0.000000 0.000000 0.000000 0.090876 0.000000 0.000000
# 5 0.000000 0.000000 0.000000 0.000000 0.090871 0.000000
# 6 0.000000 0.000000 0.000000 0.000000 0.000000 0.067392
#
#
# Mechanical properties :
#
#
# Convention : Reuss Voigt Hill
#
# Bulk Modulus (GPa) = 52.75480 58.54534 55.65007
# Shear Modulus (GPa) = 13.51897 14.42611 13.97254
#
# Velocity S-wave (km/s) = 3.10911 3.21172 3.16083
# Velocity P-wave (km/s) = 7.11409 7.45758 7.28786
#
# Compressibility (1/GPa) = 0.01895562
#
# Stress axis : x y z
#
# Youngs Moduli (GPa) = 43.22557 43.22874 49.00217
#
# Poissons Ratio (x) = 0.14071 0.50486
# Poissons Ratio (y) = 0.14070 0.50480
# Poissons Ratio (z) = 0.44535 0.44533
#
# Static dielectric constant tensor:
#      x y z
#    x 2.742830 0.000000 0.000000 
#    y 0.000000 2.742840 0.000000 
#    z 0.000000 0.000000 2.920880 
# 
# 
# High freq. dielectric constant tensor:
#      x y z
#    x 1.520170 0.000000 0.000000 
#    y 0.000000 1.520170 0.000000 
#    z 0.000000 0.000000 1.519410 
# 
# From -- ./inp_files/8314.got.cif
#   From: 2010.03.12/outbox.cif.g09.slc.cpg/sg141_5_cif.got.tgz:8314.got - 2010.04.03 13:18:35.
