data_PCOD8320905
_publ_section_title
;
Structure prediction by ZEFSAII (Michael W. Deem and Ramdas Pophale) SiO2 
 PCOD8320905
Probable space group: I 41/A M D
;
_chemical_formula_sum "Si O2"
_cell_formula_units_Z 160
_cell_length_a 22.544263
_cell_length_b 22.544263
_cell_length_c 16.282288
_cell_angle_alpha 90.000000
_cell_angle_beta 90.000000
_cell_angle_gamma 90.000000
_cell_volume 8275.371832
_symmetry_space_group_name_H-M "I 41/A M D"
_symmetry_group_IT_number 141
_space_group.IT_coordinate_system_code '2'
_symmetry_cell_setting 'tetragonal'
loop_
_space_group_symop_operation_xyz
x,y,z
1/4-y,3/4+x,1/4+z
-x,1/2-y,z
1/4+y,1/4-x,3/4+z
x,-y,-z
-x,1/2+y,-z
1/4+y,3/4+x,1/4-z
1/4-y,1/4-x,3/4-z
-x,-y,-z
3/4+y,1/4-x,3/4-z
x,1/2+y,-z
3/4-y,3/4+x,1/4-z
-x,y,z
x,1/2-y,z
3/4-y,1/4-x,3/4+z
3/4+y,3/4+x,1/4+z
1/2+x,1/2+y,1/2+z
3/4-y,1/4+x,3/4+z
1/2-x,-y,1/2+z
3/4+y,3/4-x,1/4+z
1/2+x,1/2-y,1/2-z
1/2-x,y,1/2-z
3/4+y,1/4+x,3/4-z
3/4-y,3/4-x,1/4-z
1/2-x,1/2-y,1/2-z
1/4+y,3/4-x,1/4-z
1/2+x,y,1/2-z
1/4-y,1/4+x,3/4-z
1/2-x,1/2+y,1/2+z
1/2+x,-y,1/2+z
1/4-y,3/4-x,1/4+z
1/4+y,1/4+x,3/4+z
loop_
_atom_site_type_symbol
_atom_site_label
_atom_site_fract_x
_atom_site_fract_y
_atom_site_fract_z
Si Si1 0.569840 0.406518 0.972876
Si Si2 0.727327 0.179631 0.125961
Si Si3 0.069590 0.496053 0.197726
Si Si4 0.631156 0.680160 0.138570
Si Si5 0.069066 0.870990 0.202985
O O1 0.500000 0.397184 0.973608
O O2 0.589027 0.458276 0.910036
O O3 0.598302 0.345259 0.941894
O O4 0.593625 0.424803 0.063871
O O5 0.723389 0.250000 0.126801
O O6 0.722096 0.152776 0.034061
O O7 0.085027 0.451341 0.123176
O O8 0.090723 0.562831 0.178059
O O9 0.000000 0.497907 0.211454
O O10 0.619284 0.750000 0.141631
O O11 0.608486 0.651166 0.221814
O O12 0.078811 0.828811 0.125000
O O13 0.000000 0.868873 0.228874
#
# Coordination Sequence:
#
# PCOD8320905 Si02
#       5
#    32  32  32  32  32
#     4   9  16  28  52  83 112 148 190 234 284 338
#     4   8  14  29  53  77 106 150 199 231 263 332
#     4   9  19  36  56  80 112 150 194 232 272 343
#     4  11  22  34  55  88 119 149 187 241 299 342
#     4  11  23  40  61  84 113 151 193 240 297 356
#
# _framework density 19.334479000000002
#
# number of rings (size 3 to 8) (size 9 to 14) (size 15 to 20)
#    0.000    2.400    2.000    2.400    0.000    4.200 
#    0.000    3.000    0.000    6.000    0.000   11.200 
#    0.000    0.000    0.000    0.000    0.000    0.000 
#
# Total GULP energy -991369.568752 kJ/mol
# GULP energy per Si atom -12392.119609 kJ/mol
# Density = 1.929047 g / cm^3
# Si number density = 19.334479 Si / 1000 Ang^3
#
#
#
# Elastic Constant Matrix: (Units=GPa)
#
#
# Indices 1 2 3 4 5 6 
#
# 1 87.2404 43.6960 42.7935 0.0000 0.0000 0.0000
# 2 43.6960 87.2404 42.7935 0.0000 0.0000 0.0000
# 3 42.7935 42.7935 101.0915 0.0000 0.0000 0.0000
# 4 0.0000 0.0000 0.0000 27.1862 0.0000 0.0000
# 5 0.0000 0.0000 0.0000 0.0000 27.1862 0.0000
# 6 0.0000 0.0000 0.0000 0.0000 0.0000 4.2737
#
#
#
# Elastic Compliance Matrix: (Units=1/GPa)
#
#
# Indices 1 2 3 4 5 6 
#
# 1 0.016762 -0.006203 -0.004470 0.000000 0.000000 0.000000
# 2 -0.006203 0.016762 -0.004470 0.000000 0.000000 0.000000
# 3 -0.004470 -0.004470 0.013676 0.000000 0.000000 0.000000
# 4 0.000000 0.000000 0.000000 0.036783 0.000000 0.000000
# 5 0.000000 0.000000 0.000000 0.000000 0.036783 0.000000
# 6 0.000000 0.000000 0.000000 0.000000 0.000000 0.233991
#
#
# Mechanical properties :
#
#
# Convention : Reuss Voigt Hill
#
# Bulk Modulus (GPa) = 59.11860 59.34867 59.23363
# Shear Modulus (GPa) = 12.79815 21.48182 17.13999
#
# Velocity S-wave (km/s) = 2.57560 3.33688 2.98064
# Velocity P-wave (km/s) = 6.28396 6.75342 6.52291
#
# Compressibility (1/GPa) = 0.01691515
#
# Stress axis : x y z
#
# Youngs Moduli (GPa) = 59.65865 59.65865 73.11943
#
# Poissons Ratio (x) = 0.37007 0.32683
# Poissons Ratio (y) = 0.37007 0.32683
# Poissons Ratio (z) = 0.26666 0.26666
#
# Static dielectric constant tensor:
#      x y z
#    x 3.437190 0.000000 0.000000 
#    y 0.000000 3.437190 0.000000 
#    z 0.000000 0.000000 3.729100 
# 
# 
# High freq. dielectric constant tensor:
#      x y z
#    x 1.730290 0.000000 0.000000 
#    y 0.000000 1.730290 0.000000 
#    z 0.000000 0.000000 1.759640 
# 
# From -- ./inp_files/6595.got.cif
#   From: 2010.03.12/outbox.cif.g09.slc.cpg/sg141_4_cif.got.tgz:6595.got - 2010.04.03 13:18:35.
