data_PCOD8320734
_publ_section_title
;
Structure prediction by ZEFSAII (Michael W. Deem and Ramdas Pophale) SiO2 
 PCOD8320734
Probable space group: I 41/A M D
;
_chemical_formula_sum "Si O2"
_cell_formula_units_Z 96
_cell_length_a 16.282792
_cell_length_b 16.282792
_cell_length_c 13.823754
_cell_angle_alpha 90.000000
_cell_angle_beta 90.000000
_cell_angle_gamma 90.000000
_cell_volume 3665.082433
_symmetry_space_group_name_H-M "I 41/A M D"
_symmetry_group_IT_number 141
_space_group.IT_coordinate_system_code '2'
_symmetry_cell_setting 'tetragonal'
loop_
_space_group_symop_operation_xyz
x,y,z
1/4-y,3/4+x,1/4+z
-x,1/2-y,z
1/4+y,1/4-x,3/4+z
x,-y,-z
-x,1/2+y,-z
1/4+y,3/4+x,1/4-z
1/4-y,1/4-x,3/4-z
-x,-y,-z
3/4+y,1/4-x,3/4-z
x,1/2+y,-z
3/4-y,3/4+x,1/4-z
-x,y,z
x,1/2-y,z
3/4-y,1/4-x,3/4+z
3/4+y,3/4+x,1/4+z
1/2+x,1/2+y,1/2+z
3/4-y,1/4+x,3/4+z
1/2-x,-y,1/2+z
3/4+y,3/4-x,1/4+z
1/2+x,1/2-y,1/2-z
1/2-x,y,1/2-z
3/4+y,1/4+x,3/4-z
3/4-y,3/4-x,1/4-z
1/2-x,1/2-y,1/2-z
1/4+y,3/4-x,1/4-z
1/2+x,y,1/2-z
1/4-y,1/4+x,3/4-z
1/2-x,1/2+y,1/2+z
1/2+x,-y,1/2+z
1/4-y,3/4-x,1/4+z
1/4+y,1/4+x,3/4+z
loop_
_atom_site_type_symbol
_atom_site_label
_atom_site_fract_x
_atom_site_fract_y
_atom_site_fract_z
Si Si1 0.595718 0.250000 0.737405
Si Si2 0.093076 0.250000 0.535221
Si Si3 0.167907 0.590657 0.810073
Si Si4 0.823537 0.152722 0.976114
O O1 0.500000 0.250000 0.713507
O O2 0.608629 0.250000 0.850898
O O3 0.633111 0.334923 0.694107
O O4 0.131859 0.163800 0.498565
O O5 0.000000 0.250000 0.501738
O O6 0.250000 0.606060 0.750000
O O7 0.180635 0.640920 0.908137
O O8 0.153112 0.493598 0.827746
O O9 0.814388 0.250000 0.954108
#
# Coordination Sequence:
#
# PCOD8320734 Si02
#       4
#    16  16  32  32
#     4   7  14  30  55  83 114 157 203 258 318 388
#     4   9  18  34  56  84 119 171 212 257 333 401
#     4  11  21  36  59  90 131 171 224 277 334 409
#     4  10  20  37  61  92 131 174 222 273 340 409
#
# _framework density 26.193134000000001
#
# number of rings (size 3 to 8) (size 9 to 14) (size 15 to 20)
#    0.000    2.333    1.667    4.000    0.000    2.667 
#    0.000    0.833    0.000    2.000    0.000    0.000 
#    0.000    0.000    0.000    0.000    0.000    0.000 
#
# Total GULP energy -594778.568075 kJ/mol
# GULP energy per Si atom -12391.220168 kJ/mol
# Density = 2.613352 g / cm^3
# Si number density = 26.193134 Si / 1000 Ang^3
#
#
#
# Elastic Constant Matrix: (Units=GPa)
#
#
# Indices 1 2 3 4 5 6 
#
# 1 181.5383 48.4694 29.3328 0.0000 0.0000 0.0000
# 2 48.4694 181.5383 29.3328 0.0000 0.0000 0.0000
# 3 29.3328 29.3328 58.9263 0.0000 0.0000 0.0000
# 4 0.0000 0.0000 0.0000 37.9722 0.0000 0.0000
# 5 0.0000 0.0000 0.0000 0.0000 37.9722 0.0000
# 6 0.0000 0.0000 0.0000 0.0000 0.0000 47.6451
#
#
#
# Elastic Compliance Matrix: (Units=1/GPa)
#
#
# Indices 1 2 3 4 5 6 
#
# 1 0.006247 -0.001267 -0.002479 0.000000 0.000000 0.000000
# 2 -0.001267 0.006247 -0.002479 0.000000 0.000000 0.000000
# 3 -0.002479 -0.002479 0.019438 0.000000 0.000000 0.000000
# 4 0.000000 0.000000 0.000000 0.026335 0.000000 0.000000
# 5 0.000000 0.000000 0.000000 0.000000 0.026335 0.000000
# 6 0.000000 0.000000 0.000000 0.000000 0.000000 0.020988
#
#
# Mechanical properties :
#
#
# Convention : Reuss Voigt Hill
#
# Bulk Modulus (GPa) = 51.32832 70.69697 61.01264
# Shear Modulus (GPa) = 40.14881 45.70912 42.92896
#
# Velocity S-wave (km/s) = 3.91934 4.18195 4.05277
# Velocity P-wave (km/s) = 6.33406 7.09701 6.72636
#
# Compressibility (1/GPa) = 0.01948242
#
# Stress axis : x y z
#
# Youngs Moduli (GPa) = 160.06570 160.06570 51.44471
#
# Poissons Ratio (x) = 0.20288 0.12753
# Poissons Ratio (y) = 0.20288 0.12753
# Poissons Ratio (z) = 0.39680 0.39680
#
# Static dielectric constant tensor:
#      x y z
#    x 5.278770 0.000000 0.000000 
#    y 0.000000 5.278770 0.000000 
#    z 0.000000 0.000000 4.519820 
# 
# 
# High freq. dielectric constant tensor:
#      x y z
#    x 2.062090 0.000000 0.000000 
#    y 0.000000 2.062090 0.000000 
#    z 0.000000 0.000000 2.045700 
# 
# From -- ./inp_files/7732.got.cif
#   From: 2010.03.12/outbox.cif.g09.slc.cpg/sg141_4_cif.got.tgz:7732.got - 2010.04.03 13:18:35.
