data_PCOD8320296
_publ_section_title
;
Structure prediction by ZEFSAII (Michael W. Deem and Ramdas Pophale) SiO2 
 PCOD8320296
Probable space group: I 4/M C M
;
_chemical_formula_sum "Si O2"
_cell_formula_units_Z 160
_cell_length_a 30.559278
_cell_length_b 30.559278
_cell_length_c 8.850753
_cell_angle_alpha 90.000000
_cell_angle_beta 90.000000
_cell_angle_gamma 90.000000
_cell_volume 8265.448030
_symmetry_space_group_name_H-M "I 4/M C M"
_symmetry_group_IT_number 140
_symmetry_cell_setting 'tetragonal'
loop_
_space_group_symop_operation_xyz
x,y,z
-y,x,z
-x,-y,z
y,-x,z
x,-y,1/2-z
-x,y,1/2-z
y,x,1/2-z
-y,-x,1/2-z
-x,-y,-z
y,-x,-z
x,y,-z
-y,x,-z
-x,y,1/2+z
x,-y,1/2+z
-y,-x,1/2+z
y,x,1/2+z
1/2+x,1/2+y,1/2+z
1/2-y,1/2+x,1/2+z
1/2-x,1/2-y,1/2+z
1/2+y,1/2-x,1/2+z
1/2+x,1/2-y,-z
1/2-x,1/2+y,-z
1/2+y,1/2+x,-z
1/2-y,1/2-x,-z
1/2-x,1/2-y,1/2-z
1/2+y,1/2-x,1/2-z
1/2+x,1/2+y,1/2-z
1/2-y,1/2+x,1/2-z
1/2-x,1/2+y,z
1/2+x,1/2-y,z
1/2-y,1/2-x,z
1/2+y,1/2+x,z
loop_
_atom_site_type_symbol
_atom_site_label
_atom_site_fract_x
_atom_site_fract_y
_atom_site_fract_z
Si Si1 0.547505 0.615547 0.679590
Si Si2 0.386363 0.886363 0.679620
Si Si3 0.312057 0.257623 0.339302
Si Si4 0.953503 0.546498 0.818664
Si Si5 0.293285 0.892285 0.820369
Si Si6 0.045403 0.214594 0.823718
O O1 0.500000 0.604996 0.750000
O O2 0.583323 0.583323 0.750000
O O3 0.545101 0.608483 0.500000
O O4 0.561545 0.665627 0.721446
O O5 0.391097 0.891097 0.500000
O O6 0.418409 0.918409 0.767038
O O7 0.337688 0.900842 0.729602
O O8 0.302685 0.302685 0.250000
O O9 0.332986 0.271919 0.500000
O O10 0.265816 0.234185 0.366229
O O11 0.345058 0.223642 0.262876
O O12 0.939214 0.500000 0.750000
O O13 0.956181 0.543820 0.000000
O O14 0.253626 0.923323 0.769200
O O15 0.303404 0.893847 0.000000
O O16 0.000000 0.225962 0.750000
O O17 0.038692 0.216750 0.000000
#
# Coordination Sequence:
#
# PCOD8320296 Si02
#       6
#    32  16  32  16  32  32
#     4  10  20  36  57  85 116 151 191 239 292 350
#     4  12  25  39  59  91 123 155 197 243 290 343
#     4   9  17  30  49  72 101 137 178 221 274 329
#     4  11  23  44  71  97 125 155 188 231 284 347
#     4  10  20  38  58  79 111 154 194 237 290 345
#     4   9  20  37  58  80 109 147 189 231 281 337
#
# _framework density 19.357693000000001
#
# number of rings (size 3 to 8) (size 9 to 14) (size 15 to 20)
#    0.000    2.100    1.000    2.700    0.000    4.200 
#    0.000    3.000    0.000    0.000    0.000    0.000 
#    0.000    0.000    0.000    0.000    0.000    0.000 
#
# Total GULP energy -991241.532017 kJ/mol
# GULP energy per Si atom -12390.519150 kJ/mol
# Density = 1.931363 g / cm^3
# Si number density = 19.357693 Si / 1000 Ang^3
#
#
#
# Elastic Constant Matrix: (Units=GPa)
#
#
# Indices 1 2 3 4 5 6 
#
# 1 104.0458 99.4779 54.4556 0.0000 0.0000 0.0000
# 2 99.4779 104.0460 54.4558 0.0000 0.0000 0.0000
# 3 54.4556 54.4558 95.6576 0.0000 0.0000 0.0000
# 4 0.0000 0.0000 0.0000 29.6220 0.0000 0.0000
# 5 0.0000 0.0000 0.0000 0.0000 29.6221 0.0000
# 6 0.0000 0.0000 0.0000 0.0000 0.0000 44.6792
#
#
#
# Elastic Compliance Matrix: (Units=1/GPa)
#
#
# Indices 1 2 3 4 5 6 
#
# 1 0.112990 -0.105924 -0.004022 0.000000 0.000000 0.000000
# 2 -0.105924 0.112990 -0.004023 0.000000 0.000000 0.000000
# 3 -0.004022 -0.004023 0.015034 0.000000 0.000000 0.000000
# 4 0.000000 0.000000 0.000000 0.033759 0.000000 0.000000
# 5 0.000000 0.000000 0.000000 0.000000 0.033759 0.000000
# 6 0.000000 0.000000 0.000000 0.000000 0.000000 0.022382
#
#
# Mechanical properties :
#
#
# Convention : Reuss Voigt Hill
#
# Bulk Modulus (GPa) = 76.47746 80.05866 78.26806
# Shear Modulus (GPa) = 8.87771 27.14198 18.00985
#
# Velocity S-wave (km/s) = 2.14385 3.74856 3.05351
# Velocity P-wave (km/s) = 6.76176 7.75777 7.27683
#
# Compressibility (1/GPa) = 0.01307575
#
# Stress axis : x y z
#
# Youngs Moduli (GPa) = 8.85036 8.85037 66.51679
#
# Poissons Ratio (x) = 0.93746 0.26756
# Poissons Ratio (y) = 0.93746 0.26757
# Poissons Ratio (z) = 0.03560 0.03560
#
# Static dielectric constant tensor:
#      x y z
#    x 3.609000 0.000000 0.000000 
#    y 0.000000 3.609000 0.000000 
#    z 0.000000 0.000000 3.666900 
# 
# 
# High freq. dielectric constant tensor:
#      x y z
#    x 1.754390 0.000000 0.000000 
#    y 0.000000 1.754390 0.000000 
#    z 0.000000 0.000000 1.751760 
# 
# From -- ./inp_files/1827.got.cif
#   From: 2010.06.25/outbox.cif.g09.slc.cpg/sg140_1_cif.got.tgz:1827.got - 2010.06.28 10:53:23.
