data_PCOD8320278
_publ_section_title
;
Structure prediction by ZEFSAII (Michael W. Deem and Ramdas Pophale) SiO2 
 PCOD8320278
Probable space group: I 4/M C M
;
_chemical_formula_sum "Si O2"
_cell_formula_units_Z 160
_cell_length_a 16.975304
_cell_length_b 16.975304
_cell_length_c 28.744965
_cell_angle_alpha 90.000000
_cell_angle_beta 90.000000
_cell_angle_gamma 90.000000
_cell_volume 8283.176304
_symmetry_space_group_name_H-M "I 4/M C M"
_symmetry_group_IT_number 140
_symmetry_cell_setting 'tetragonal'
loop_
_space_group_symop_operation_xyz
x,y,z
-y,x,z
-x,-y,z
y,-x,z
x,-y,1/2-z
-x,y,1/2-z
y,x,1/2-z
-y,-x,1/2-z
-x,-y,-z
y,-x,-z
x,y,-z
-y,x,-z
-x,y,1/2+z
x,-y,1/2+z
-y,-x,1/2+z
y,x,1/2+z
1/2+x,1/2+y,1/2+z
1/2-y,1/2+x,1/2+z
1/2-x,1/2-y,1/2+z
1/2+y,1/2-x,1/2+z
1/2+x,1/2-y,-z
1/2-x,1/2+y,-z
1/2+y,1/2+x,-z
1/2-y,1/2-x,-z
1/2-x,1/2-y,1/2-z
1/2+y,1/2-x,1/2-z
1/2+x,1/2+y,1/2-z
1/2-y,1/2+x,1/2-z
1/2-x,1/2+y,z
1/2+x,1/2-y,z
1/2-y,1/2-x,z
1/2+y,1/2+x,z
loop_
_atom_site_type_symbol
_atom_site_label
_atom_site_fract_x
_atom_site_fract_y
_atom_site_fract_z
Si Si1 0.939916 0.688029 0.108230
Si Si2 0.004025 0.371677 0.699390
Si Si3 0.280122 0.090169 0.947206
Si Si4 0.314719 0.312551 0.124894
Si Si5 0.092929 0.913330 0.695770
O O1 0.894704 0.605297 0.101785
O O2 0.984043 0.689734 0.158495
O O3 0.880680 0.760313 0.104053
O O4 0.002253 0.696451 0.067184
O O5 0.940606 0.440606 0.701462
O O6 0.000000 0.328158 0.750000
O O7 0.090229 0.409772 0.689835
O O8 0.357773 0.142228 0.941889
O O9 0.210148 0.123951 0.915402
O O10 0.249127 0.089457 0.000000
O O11 0.261859 0.238141 0.140551
O O12 0.360558 0.343054 0.169783
O O13 0.103137 0.896863 0.750000
O O14 0.003837 0.890835 0.681845
#
# Coordination Sequence:
#
# PCOD8320278 Si02
#       5
#    32  32  32  32  32
#     4  10  20  35  57  83 109 141 186 232 275 332
#     4   8  14  27  48  75 109 145 178 216 266 322
#     4  10  22  39  57  79 109 145 184 231 287 334
#     4  10  21  37  54  78 114 148 178 219 277 341
#     4   9  18  35  59  82 105 140 187 233 271 311
#
# _framework density 19.316261999999998
#
# number of rings (size 3 to 8) (size 9 to 14) (size 15 to 20)
#    0.000    2.600    0.000    3.000    0.000    2.800 
#    7.200    3.000    0.000    0.000    0.000    4.200 
#    0.000    0.000    0.000    0.000    0.000    0.000 
#
# Total GULP energy -992024.630931 kJ/mol
# GULP energy per Si atom -12400.307887 kJ/mol
# Density = 1.927230 g / cm^3
# Si number density = 19.316262 Si / 1000 Ang^3
#
#
#
# Elastic Constant Matrix: (Units=GPa)
#
#
# Indices 1 2 3 4 5 6 
#
# 1 86.2280 46.3680 59.9351 0.0000 0.0000 0.0000
# 2 46.3680 86.2282 59.9353 0.0000 0.0000 0.0000
# 3 59.9351 59.9353 111.5928 0.0000 0.0000 0.0000
# 4 0.0000 0.0000 0.0000 29.7829 0.0000 0.0000
# 5 0.0000 0.0000 0.0000 0.0000 29.7828 0.0000
# 6 0.0000 0.0000 0.0000 0.0000 0.0000 23.5665
#
#
#
# Elastic Compliance Matrix: (Units=1/GPa)
#
#
# Indices 1 2 3 4 5 6 
#
# 1 0.019874 -0.005214 -0.007873 0.000000 0.000000 0.000000
# 2 -0.005214 0.019874 -0.007873 0.000000 0.000000 0.000000
# 3 -0.007873 -0.007873 0.017419 0.000000 0.000000 0.000000
# 4 0.000000 0.000000 0.000000 0.033576 0.000000 0.000000
# 5 0.000000 0.000000 0.000000 0.000000 0.033576 0.000000
# 6 0.000000 0.000000 0.000000 0.000000 0.000000 0.042433
#
#
# Mechanical properties :
#
#
# Convention : Reuss Voigt Hill
#
# Bulk Modulus (GPa) = 65.60026 68.50287 67.05156
# Shear Modulus (GPa) = 23.39124 24.48046 23.93585
#
# Velocity S-wave (km/s) = 3.48366 3.56385 3.52398
# Velocity P-wave (km/s) = 7.08633 7.24400 7.16560
#
# Compressibility (1/GPa) = 0.01524384
#
# Stress axis : x y z
#
# Youngs Moduli (GPa) = 50.31789 50.31789 57.40982
#
# Poissons Ratio (x) = 0.26236 0.45201
# Poissons Ratio (y) = 0.26236 0.45201
# Poissons Ratio (z) = 0.39617 0.39618
#
# Static dielectric constant tensor:
#      x y z
#    x 3.495000 0.000000 0.000000 
#    y 0.000000 3.495000 0.000000 
#    z 0.000000 0.000000 3.546420 
# 
# 
# High freq. dielectric constant tensor:
#      x y z
#    x 1.746970 0.000000 0.000000 
#    y 0.000000 1.746970 0.000000 
#    z 0.000000 0.000000 1.742800 
# 
# From -- ./inp_files/10534.got.cif
#   From: 2010.06.25/outbox.cif.g09.slc.cpg/sg140_6_cif.got.tgz:10534.got - 2010.06.28 10:53:23.
