data_PCOD8320175
_publ_section_title
;
Structure prediction by ZEFSAII (Michael W. Deem and Ramdas Pophale) SiO2 
 PCOD8320175
Probable space group: I 4/M C M
;
_chemical_formula_sum "Si O2"
_cell_formula_units_Z 144
_cell_length_a 18.725346
_cell_length_b 18.725346
_cell_length_c 23.534226
_cell_angle_alpha 90.000000
_cell_angle_beta 90.000000
_cell_angle_gamma 90.000000
_cell_volume 8252.007652
_symmetry_space_group_name_H-M "I 4/M C M"
_symmetry_group_IT_number 140
_symmetry_cell_setting 'tetragonal'
loop_
_space_group_symop_operation_xyz
x,y,z
-y,x,z
-x,-y,z
y,-x,z
x,-y,1/2-z
-x,y,1/2-z
y,x,1/2-z
-y,-x,1/2-z
-x,-y,-z
y,-x,-z
x,y,-z
-y,x,-z
-x,y,1/2+z
x,-y,1/2+z
-y,-x,1/2+z
y,x,1/2+z
1/2+x,1/2+y,1/2+z
1/2-y,1/2+x,1/2+z
1/2-x,1/2-y,1/2+z
1/2+y,1/2-x,1/2+z
1/2+x,1/2-y,-z
1/2-x,1/2+y,-z
1/2+y,1/2+x,-z
1/2-y,1/2-x,-z
1/2-x,1/2-y,1/2-z
1/2+y,1/2-x,1/2-z
1/2+x,1/2+y,1/2-z
1/2-y,1/2+x,1/2-z
1/2-x,1/2+y,z
1/2+x,1/2-y,z
1/2-y,1/2-x,z
1/2+y,1/2+x,z
loop_
_atom_site_type_symbol
_atom_site_label
_atom_site_fract_x
_atom_site_fract_y
_atom_site_fract_z
Si Si1 0.258502 0.639710 0.130221
Si Si2 0.916951 0.302002 0.756361
Si Si3 0.011855 0.712285 0.933433
Si Si4 0.743679 0.128066 0.135163
Si Si5 0.556748 0.056748 0.432403
O O1 0.194047 0.694047 0.118641
O O2 0.249205 0.600315 0.190628
O O3 0.261614 0.579766 0.081051
O O4 0.333406 0.680597 0.126613
O O5 0.877922 0.377922 0.763650
O O6 0.888862 0.260836 0.701440
O O7 0.000000 0.318328 0.750000
O O8 0.032187 0.633706 0.909072
O O9 0.942246 0.742064 0.902809
O O10 0.996609 0.711485 0.000000
O O11 0.678697 0.178697 0.115515
O O12 0.559405 0.059405 0.500000
O O13 0.500000 0.000000 0.409402
#
# Coordination Sequence:
#
# PCOD8320175 Si02
#       5
#    32  32  32  32  16
#     4  10  20  36  57  80 110 147 185 228 273 326
#     4  10  19  34  56  84 114 143 178 221 275 335
#     4  11  21  34  53  80 111 148 189 225 271 327
#     4  10  21  36  56  82 111 145 186 229 273 324
#     4   9  18  32  50  74 109 146 178 217 267 330
#
# _framework density 17.450299000000001
#
# number of rings (size 3 to 8) (size 9 to 14) (size 15 to 20)
#    0.000    1.889    3.333    1.333    0.000    5.111 
#    0.000    2.222    0.000    0.667    0.000    3.111 
#    0.000    0.000    0.000    0.000    0.000    0.000 
#
# Total GULP energy -892948.653083 kJ/mol
# GULP energy per Si atom -12402.064626 kJ/mol
# Density = 1.741058 g / cm^3
# Si number density = 17.450299 Si / 1000 Ang^3
#
#
#
# Elastic Constant Matrix: (Units=GPa)
#
#
# Indices 1 2 3 4 5 6 
#
# 1 107.2445 64.0898 27.7601 0.0000 0.0000 0.0000
# 2 64.0898 107.2445 27.7601 0.0000 0.0000 0.0000
# 3 27.7601 27.7601 58.0126 0.0000 0.0000 0.0000
# 4 0.0000 0.0000 0.0000 20.3267 0.0000 0.0000
# 5 0.0000 0.0000 0.0000 0.0000 20.3267 0.0000
# 6 0.0000 0.0000 0.0000 0.0000 0.0000 25.6615
#
#
#
# Elastic Compliance Matrix: (Units=1/GPa)
#
#
# Indices 1 2 3 4 5 6 
#
# 1 0.015040 -0.008132 -0.003305 0.000000 0.000000 0.000000
# 2 -0.008132 0.015040 -0.003305 0.000000 0.000000 0.000000
# 3 -0.003305 -0.003305 0.020401 0.000000 0.000000 0.000000
# 4 0.000000 0.000000 0.000000 0.049196 0.000000 0.000000
# 5 0.000000 0.000000 0.000000 0.000000 0.049196 0.000000
# 6 0.000000 0.000000 0.000000 0.000000 0.000000 0.038969
#
#
# Mechanical properties :
#
#
# Convention : Reuss Voigt Hill
#
# Bulk Modulus (GPa) = 47.63129 56.85797 52.24463
# Shear Modulus (GPa) = 22.28886 23.45578 22.87232
#
# Velocity S-wave (km/s) = 3.57778 3.67024 3.62430
# Velocity P-wave (km/s) = 6.66498 7.11438 6.89334
#
# Compressibility (1/GPa) = 0.02099460
#
# Stress axis : x y z
#
# Youngs Moduli (GPa) = 66.48923 66.48923 49.01709
#
# Poissons Ratio (x) = 0.54072 0.16202
# Poissons Ratio (y) = 0.54072 0.16202
# Poissons Ratio (z) = 0.21978 0.21978
#
# Static dielectric constant tensor:
#      x y z
#    x 3.208900 0.000000 0.000000 
#    y 0.000000 3.208900 0.000000 
#    z 0.000000 0.000000 3.219680 
# 
# 
# High freq. dielectric constant tensor:
#      x y z
#    x 1.663610 0.000000 0.000000 
#    y 0.000000 1.663610 0.000000 
#    z 0.000000 0.000000 1.677660 
# 
# From -- ./inp_files/8332.got.cif
#   From: 2010.06.25/outbox.cif.g09.slc.cpg/sg140_5_cif.got.tgz:8332.got - 2010.06.28 10:53:23.
