data_PCOD8320021
_publ_section_title
;
Structure prediction by ZEFSAII (Michael W. Deem and Ramdas Pophale) SiO2 
 PCOD8320021
Probable space group: I 4/M M M
;
_chemical_formula_sum "Si O2"
_cell_formula_units_Z 128
_cell_length_a 34.332522
_cell_length_b 34.332522
_cell_length_c 7.749636
_cell_angle_alpha 90.000000
_cell_angle_beta 90.000000
_cell_angle_gamma 90.000000
_cell_volume 9134.666963
_symmetry_space_group_name_H-M "I 4/M M M"
_symmetry_group_IT_number 139
_symmetry_cell_setting 'tetragonal'
loop_
_space_group_symop_operation_xyz
x,y,z
-y,x,z
-x,-y,z
y,-x,z
x,-y,-z
-x,y,-z
y,x,-z
-y,-x,-z
-x,-y,-z
y,-x,-z
x,y,-z
-y,x,-z
-x,y,z
x,-y,z
-y,-x,z
y,x,z
1/2+x,1/2+y,1/2+z
1/2-y,1/2+x,1/2+z
1/2-x,1/2-y,1/2+z
1/2+y,1/2-x,1/2+z
1/2+x,1/2-y,1/2-z
1/2-x,1/2+y,1/2-z
1/2+y,1/2+x,1/2-z
1/2-y,1/2-x,1/2-z
1/2-x,1/2-y,1/2-z
1/2+y,1/2-x,1/2-z
1/2+x,1/2+y,1/2-z
1/2-y,1/2+x,1/2-z
1/2-x,1/2+y,1/2+z
1/2+x,1/2-y,1/2+z
1/2-y,1/2-x,1/2+z
1/2+y,1/2+x,1/2+z
loop_
_atom_site_type_symbol
_atom_site_label
_atom_site_fract_x
_atom_site_fract_y
_atom_site_fract_z
Si Si1 0.044796 0.248242 0.000000
Si Si2 0.254586 0.601044 0.197419
Si Si3 0.750014 0.688505 0.797410
Si Si4 0.655364 0.542896 0.500000
Si Si5 0.845956 0.907374 0.312441
O O1 0.068171 0.262874 0.827871
O O2 0.043318 0.201905 0.000000
O O3 0.000000 0.264533 0.000000
O O4 0.245466 0.644318 0.271751
O O5 0.300527 0.598426 0.201117
O O6 0.238949 0.594346 0.000000
O O7 0.713059 0.713059 0.719101
O O8 0.789834 0.710167 0.750000
O O9 0.744098 0.685980 0.000000
O O10 0.638294 0.500000 0.500000
O O11 0.638291 0.563219 0.669464
O O12 0.857035 0.924707 0.500000
O O13 0.865241 0.865241 0.284377
#
# Coordination Sequence:
#
# PCOD8320021 Si02
#       5
#    16  32  32  16  32
#     4   9  18  29  41  57  73  95 130 165 199 240
#     4   9  17  28  41  56  76 101 127 159 198 234
#     4   9  17  27  38  55  79 106 137 170 202 239
#     4   9  17  27  37  53  75  94 115 144 180 223
#     4   9  16  26  40  55  71  93 119 145 175 217
#
# _framework density 14.012551999999999
#
# number of rings (size 3 to 8) (size 9 to 14) (size 15 to 20)
#    0.000    3.000    0.000    1.125    1.750    4.000 
#    0.000    6.250    0.000    0.000    0.000    0.000 
#    0.000    4.000    0.000   11.000    0.000    1.000 
#
# Total GULP energy -792897.738309 kJ/mol
# GULP energy per Si atom -12389.027161 kJ/mol
# Density = 1.398066 g / cm^3
# Si number density = 14.012552 Si / 1000 Ang^3
#
#
#
# Elastic Constant Matrix: (Units=GPa)
#
#
# Indices 1 2 3 4 5 6 
#
# 1 64.3835 13.6654 31.3540 0.0000 0.0000 0.0000
# 2 13.6654 64.3844 31.3528 0.0000 0.0000 0.0000
# 3 31.3540 31.3528 82.8458 0.0000 0.0000 0.0000
# 4 0.0000 0.0000 0.0000 12.5934 0.0000 0.0000
# 5 0.0000 0.0000 0.0000 0.0000 12.5932 0.0000
# 6 0.0000 0.0000 0.0000 0.0000 0.0000 8.4708
#
#
#
# Elastic Compliance Matrix: (Units=1/GPa)
#
#
# Indices 1 2 3 4 5 6 
#
# 1 0.019064 -0.000653 -0.006968 0.000000 0.000000 0.000000
# 2 -0.000653 0.019063 -0.006967 0.000000 0.000000 0.000000
# 3 -0.006968 -0.006967 0.017344 0.000000 0.000000 0.000000
# 4 0.000000 0.000000 0.000000 0.079407 0.000000 0.000000
# 5 0.000000 0.000000 0.000000 0.000000 0.079408 0.000000
# 6 0.000000 0.000000 0.000000 0.000000 0.000000 0.118052
#
#
# Mechanical properties :
#
#
# Convention : Reuss Voigt Hill
#
# Bulk Modulus (GPa) = 38.03002 40.48424 39.25713
# Shear Modulus (GPa) = 13.50333 15.74759 14.62546
#
# Velocity S-wave (km/s) = 3.10765 3.35598 3.23420
# Velocity P-wave (km/s) = 6.33053 6.63106 6.48253
#
# Compressibility (1/GPa) = 0.02629502
#
# Stress axis : x y z
#
# Youngs Moduli (GPa) = 52.45549 52.45739 57.65565
#
# Poissons Ratio (x) = 0.03427 0.40173
# Poissons Ratio (y) = 0.03427 0.40170
# Poissons Ratio (z) = 0.36550 0.36548
#
# Static dielectric constant tensor:
#      x y z
#    x 2.685660 0.000000 0.000000 
#    y 0.000000 2.685650 0.000000 
#    z 0.000000 0.000000 3.167620 
# 
# 
# High freq. dielectric constant tensor:
#      x y z
#    x 1.493700 0.000000 0.000000 
#    y 0.000000 1.493700 0.000000 
#    z 0.000000 0.000000 1.551900 
# 
# From -- ./inp_files/1796.got.cif
#   From: 2010.03.12/outbox.cif.g09.slc.cpg/sg139_1_cif.got.tgz:1796.got - 2010.04.08 09:46:31.
