data_PCOD8320647
_publ_section_title
;
Structure prediction by ZEFSAII (Michael W. Deem and Ramdas Pophale) SiO2 
 PCOD8320647
Probable space group: I 41/A M D
;
_chemical_formula_sum "Si O2"
_cell_formula_units_Z 160
_cell_length_a 26.820383
_cell_length_b 26.820383
_cell_length_c 11.540565
_cell_angle_alpha 90.000000
_cell_angle_beta 90.000000
_cell_angle_gamma 90.000000
_cell_volume 8301.508600
_symmetry_space_group_name_H-M "I 41/A M D"
_symmetry_group_IT_number 141
_space_group.IT_coordinate_system_code '2'
_symmetry_cell_setting 'tetragonal'
loop_
_space_group_symop_operation_xyz
x,y,z
1/4-y,3/4+x,1/4+z
-x,1/2-y,z
1/4+y,1/4-x,3/4+z
x,-y,-z
-x,1/2+y,-z
1/4+y,3/4+x,1/4-z
1/4-y,1/4-x,3/4-z
-x,-y,-z
3/4+y,1/4-x,3/4-z
x,1/2+y,-z
3/4-y,3/4+x,1/4-z
-x,y,z
x,1/2-y,z
3/4-y,1/4-x,3/4+z
3/4+y,3/4+x,1/4+z
1/2+x,1/2+y,1/2+z
3/4-y,1/4+x,3/4+z
1/2-x,-y,1/2+z
3/4+y,3/4-x,1/4+z
1/2+x,1/2-y,1/2-z
1/2-x,y,1/2-z
3/4+y,1/4+x,3/4-z
3/4-y,3/4-x,1/4-z
1/2-x,1/2-y,1/2-z
1/4+y,3/4-x,1/4-z
1/2+x,y,1/2-z
1/4-y,1/4+x,3/4-z
1/2-x,1/2+y,1/2+z
1/2+x,-y,1/2+z
1/4-y,3/4-x,1/4+z
1/4+y,1/4+x,3/4+z
loop_
_atom_site_type_symbol
_atom_site_label
_atom_site_fract_x
_atom_site_fract_y
_atom_site_fract_z
Si Si1 0.312511 0.806621 0.880711
Si Si2 0.556732 0.871906 0.072190
Si Si3 0.356551 0.307030 0.867065
Si Si4 0.626170 0.950599 0.437090
Si Si5 0.443200 0.535360 0.227691
O O1 0.313724 0.750000 0.835681
O O2 0.350376 0.832645 0.789660
O O3 0.254848 0.825647 0.880035
O O4 0.327700 0.812230 0.013419
O O5 0.500000 0.854969 0.048889
O O6 0.586486 0.822269 0.105782
O O7 0.560914 0.909181 0.180129
O O8 0.355414 0.250000 0.820317
O O9 0.334553 0.345529 0.774253
O O10 0.671025 0.921025 0.375000
O O11 0.588147 0.971121 0.342884
O O12 0.648258 0.000000 0.500000
O O13 0.500000 0.521477 0.260306
#
# Coordination Sequence:
#
# PCOD8320647 Si02
#       5
#    32  32  32  32  32
#     4   9  18  33  56  86 115 150 201 254 296 342
#     4  10  20  35  55  85 127 163 198 243 297 357
#     4  11  22  36  59  90 121 159 205 244 292 358
#     4  12  24  42  67  87 117 152 195 249 310 368
#     4  10  19  34  60  91 117 152 200 255 303 345
#
# _framework density 19.273605
#
# number of rings (size 3 to 8) (size 9 to 14) (size 15 to 20)
#    0.000    1.600    4.000    1.800    0.000    3.600 
#    0.000    0.000    4.400    3.600    0.000    0.000 
#    0.000    0.000    0.000    0.000    0.000    0.000 
#
# Total GULP energy -991442.048648 kJ/mol
# GULP energy per Si atom -12393.025608 kJ/mol
# Density = 1.922974 g / cm^3
# Si number density = 19.273605 Si / 1000 Ang^3
#
#
#
# Elastic Constant Matrix: (Units=GPa)
#
#
# Indices 1 2 3 4 5 6 
#
# 1 84.4035 44.7026 23.1190 0.0000 0.0000 0.0000
# 2 44.7026 84.4035 23.1190 0.0000 0.0000 0.0000
# 3 23.1190 23.1190 72.0534 0.0000 0.0000 0.0000
# 4 0.0000 0.0000 0.0000 28.4404 0.0000 0.0000
# 5 0.0000 0.0000 0.0000 0.0000 28.4404 0.0000
# 6 0.0000 0.0000 0.0000 0.0000 0.0000 24.7011
#
#
#
# Elastic Compliance Matrix: (Units=1/GPa)
#
#
# Indices 1 2 3 4 5 6 
#
# 1 0.016970 -0.008219 -0.002808 0.000000 0.000000 0.000000
# 2 -0.008219 0.016970 -0.002808 0.000000 0.000000 0.000000
# 3 -0.002808 -0.002808 0.015680 0.000000 0.000000 0.000000
# 4 0.000000 0.000000 0.000000 0.035161 0.000000 0.000000
# 5 0.000000 0.000000 0.000000 0.000000 0.035161 0.000000
# 6 0.000000 0.000000 0.000000 0.000000 0.000000 0.040484
#
#
# Mechanical properties :
#
#
# Convention : Reuss Voigt Hill
#
# Bulk Modulus (GPa) = 45.55550 46.97130 46.26340
# Shear Modulus (GPa) = 25.58690 26.31102 25.94896
#
# Velocity S-wave (km/s) = 3.64752 3.69878 3.67324
# Velocity P-wave (km/s) = 6.43636 6.53184 6.48428
#
# Compressibility (1/GPa) = 0.02195125
#
# Stress axis : x y z
#
# Youngs Moduli (GPa) = 58.92832 58.92832 63.77362
#
# Poissons Ratio (x) = 0.48431 0.17907
# Poissons Ratio (y) = 0.48431 0.17907
# Poissons Ratio (z) = 0.16546 0.16546
#
# Static dielectric constant tensor:
#      x y z
#    x 3.474110 0.000000 0.000000 
#    y 0.000000 3.474110 0.000000 
#    z 0.000000 0.000000 3.580930 
# 
# 
# High freq. dielectric constant tensor:
#      x y z
#    x 1.736060 0.000000 0.000000 
#    y 0.000000 1.736060 0.000000 
#    z 0.000000 0.000000 1.760530 
# 
# From -- ./inp_files/4825.got.cif
#   From: 2010.03.12/outbox.cif.g09.slc.cpg/sg141_3_cif.got.tgz:4825.got - 2010.04.03 13:18:35.
