data_PCOD8320924
_publ_section_title
;
Structure prediction by ZEFSAII (Michael W. Deem and Ramdas Pophale) SiO2 
 PCOD8320924
Probable space group: I 41/A M D
;
_chemical_formula_sum "Si O2"
_cell_formula_units_Z 128
_cell_length_a 15.491628
_cell_length_b 15.491628
_cell_length_c 26.254772
_cell_angle_alpha 90.000000
_cell_angle_beta 90.000000
_cell_angle_gamma 90.000000
_cell_volume 6300.896860
_symmetry_space_group_name_H-M "I 41/A M D"
_symmetry_group_IT_number 141
_space_group.IT_coordinate_system_code '2'
_symmetry_cell_setting 'tetragonal'
loop_
_space_group_symop_operation_xyz
x,y,z
1/4-y,3/4+x,1/4+z
-x,1/2-y,z
1/4+y,1/4-x,3/4+z
x,-y,-z
-x,1/2+y,-z
1/4+y,3/4+x,1/4-z
1/4-y,1/4-x,3/4-z
-x,-y,-z
3/4+y,1/4-x,3/4-z
x,1/2+y,-z
3/4-y,3/4+x,1/4-z
-x,y,z
x,1/2-y,z
3/4-y,1/4-x,3/4+z
3/4+y,3/4+x,1/4+z
1/2+x,1/2+y,1/2+z
3/4-y,1/4+x,3/4+z
1/2-x,-y,1/2+z
3/4+y,3/4-x,1/4+z
1/2+x,1/2-y,1/2-z
1/2-x,y,1/2-z
3/4+y,1/4+x,3/4-z
3/4-y,3/4-x,1/4-z
1/2-x,1/2-y,1/2-z
1/4+y,3/4-x,1/4-z
1/2+x,y,1/2-z
1/4-y,1/4+x,3/4-z
1/2-x,1/2+y,1/2+z
1/2+x,-y,1/2+z
1/4-y,3/4-x,1/4+z
1/4+y,1/4+x,3/4+z
loop_
_atom_site_type_symbol
_atom_site_label
_atom_site_fract_x
_atom_site_fract_y
_atom_site_fract_z
Si Si1 0.226248 0.653492 0.097671
Si Si2 0.172316 0.155041 0.327269
Si Si3 0.651217 0.653372 0.614830
Si Si4 0.901557 0.492848 0.266653
O O1 0.187065 0.750000 0.103438
O O2 0.166498 0.583503 0.125000
O O3 0.323965 0.660077 0.119899
O O4 0.225480 0.623962 0.038946
O O5 0.108658 0.141343 0.375000
O O6 0.156264 0.250000 0.304585
O O7 0.268371 0.144837 0.347716
O O8 0.157856 0.087829 0.281906
O O9 0.609159 0.750000 0.620886
O O10 0.678829 0.639946 0.556177
O O11 0.000000 0.459853 0.266738
#
# Coordination Sequence:
#
# PCOD8320924 Si02
#       4
#    32  32  32  32
#     4  11  24  41  61  82 107 144 190 243 296 339
#     4   9  16  27  49  82 119 158 190 212 247 317
#     4   9  19  36  57  84 118 151 182 218 268 336
#     4   9  19  35  53  77 112 149 185 232 283 327
#
# _framework density 20.314567
#
# number of rings (size 3 to 8) (size 9 to 14) (size 15 to 20)
#    0.000    2.500    0.000    4.500    0.000    7.500 
#    0.000    7.500    0.000    4.500    0.000    0.000 
#    0.000    0.000    0.000    0.000    0.000    0.000 
#
# Total GULP energy -793343.789183 kJ/mol
# GULP energy per Si atom -12395.996706 kJ/mol
# Density = 2.026833 g / cm^3
# Si number density = 20.314567 Si / 1000 Ang^3
#
#
#
# Elastic Constant Matrix: (Units=GPa)
#
#
# Indices 1 2 3 4 5 6 
#
# 1 68.5030 31.2538 38.7104 0.0000 0.0000 0.0000
# 2 31.2538 68.5054 38.7148 0.0000 0.0000 0.0000
# 3 38.7104 38.7148 125.8138 0.0000 0.0000 0.0000
# 4 0.0000 0.0000 0.0000 22.6859 0.0000 0.0000
# 5 0.0000 0.0000 0.0000 0.0000 22.6856 0.0000
# 6 0.0000 0.0000 0.0000 0.0000 0.0000 15.3509
#
#
#
# Elastic Compliance Matrix: (Units=1/GPa)
#
#
# Indices 1 2 3 4 5 6 
#
# 1 0.020007 -0.006838 -0.004052 0.000000 0.000000 0.000000
# 2 -0.006838 0.020007 -0.004053 0.000000 0.000000 0.000000
# 3 -0.004052 -0.004053 0.010442 0.000000 0.000000 0.000000
# 4 0.000000 0.000000 0.000000 0.044080 0.000000 0.000000
# 5 0.000000 0.000000 0.000000 0.000000 0.044081 0.000000
# 6 0.000000 0.000000 0.000000 0.000000 0.000000 0.065143
#
#
# Mechanical properties :
#
#
# Convention : Reuss Voigt Hill
#
# Bulk Modulus (GPa) = 48.61014 53.35335 50.98175
# Shear Modulus (GPa) = 20.78983 22.42070 21.60526
#
# Velocity S-wave (km/s) = 3.20253 3.32577 3.26473
# Velocity P-wave (km/s) = 6.13641 6.40845 6.27391
#
# Compressibility (1/GPa) = 0.02057184
#
# Stress axis : x y z
#
# Youngs Moduli (GPa) = 49.98194 49.98166 95.76786
#
# Poissons Ratio (x) = 0.34178 0.38802
# Poissons Ratio (y) = 0.34178 0.38811
# Poissons Ratio (z) = 0.20251 0.20256
#
# Static dielectric constant tensor:
#      x y z
#    x 3.562010 0.000000 0.000000 
#    y 0.000000 3.562000 0.000000 
#    z 0.000000 0.000000 3.752970 
# 
# 
# High freq. dielectric constant tensor:
#      x y z
#    x 1.779570 0.000000 0.000000 
#    y 0.000000 1.779570 0.000000 
#    z 0.000000 0.000000 1.793000 
# 
# From -- ./inp_files/11346.got.cif
#   From: 2010.03.12/outbox.cif.g09.slc.cpg/sg141_6_cif.got.tgz:11346.got - 2010.04.03 13:18:35.
