data_PCOD8320676
_publ_section_title
;
Structure prediction by ZEFSAII (Michael W. Deem and Ramdas Pophale) SiO2 
 PCOD8320676
Probable space group: I 41/A M D
;
_chemical_formula_sum "Si O2"
_cell_formula_units_Z 160
_cell_length_a 25.000656
_cell_length_b 25.000656
_cell_length_c 13.704774
_cell_angle_alpha 90.000000
_cell_angle_beta 90.000000
_cell_angle_gamma 90.000000
_cell_volume 8565.933272
_symmetry_space_group_name_H-M "I 41/A M D"
_symmetry_group_IT_number 141
_space_group.IT_coordinate_system_code '2'
_symmetry_cell_setting 'tetragonal'
loop_
_space_group_symop_operation_xyz
x,y,z
1/4-y,3/4+x,1/4+z
-x,1/2-y,z
1/4+y,1/4-x,3/4+z
x,-y,-z
-x,1/2+y,-z
1/4+y,3/4+x,1/4-z
1/4-y,1/4-x,3/4-z
-x,-y,-z
3/4+y,1/4-x,3/4-z
x,1/2+y,-z
3/4-y,3/4+x,1/4-z
-x,y,z
x,1/2-y,z
3/4-y,1/4-x,3/4+z
3/4+y,3/4+x,1/4+z
1/2+x,1/2+y,1/2+z
3/4-y,1/4+x,3/4+z
1/2-x,-y,1/2+z
3/4+y,3/4-x,1/4+z
1/2+x,1/2-y,1/2-z
1/2-x,y,1/2-z
3/4+y,1/4+x,3/4-z
3/4-y,3/4-x,1/4-z
1/2-x,1/2-y,1/2-z
1/4+y,3/4-x,1/4-z
1/2+x,y,1/2-z
1/4-y,1/4+x,3/4-z
1/2-x,1/2+y,1/2+z
1/2+x,-y,1/2+z
1/4-y,3/4-x,1/4+z
1/4+y,1/4+x,3/4+z
loop_
_atom_site_type_symbol
_atom_site_label
_atom_site_fract_x
_atom_site_fract_y
_atom_site_fract_z
Si Si1 0.436819 0.954363 0.568154
Si Si2 0.437206 0.339314 0.513916
Si Si3 0.059479 0.406940 0.637232
Si Si4 0.641294 0.813230 0.826941
Si Si5 0.563299 0.515721 0.778525
O O1 0.500000 0.959788 0.573134
O O2 0.421258 0.898947 0.517415
O O3 0.412328 0.961845 0.676662
O O4 0.411828 0.000000 0.500000
O O5 0.500000 0.326368 0.494585
O O6 0.422655 0.327346 0.625000
O O7 0.398241 0.303872 0.447613
O O8 0.087052 0.397048 0.532537
O O9 0.086626 0.456140 0.697218
O O10 0.000000 0.427011 0.612591
O O11 0.631205 0.750000 0.829429
O O12 0.589412 0.839412 0.875000
O O13 0.694587 0.829939 0.884946
O O14 0.500000 0.513030 0.765714
#
# Coordination Sequence:
#
# PCOD8320676 Si02
#       5
#    32  32  32  32  32
#     4   9  17  30  49  71  95 126 167 213 257 304
#     4  11  22  34  49  73 106 141 174 209 258 321
#     4  10  20  33  50  72  99 134 176 218 260 306
#     4  10  20  33  50  74 104 137 172 213 264 322
#     4   9  17  32  52  72  96 128 173 226 267 300
#
# _framework density 18.678640999999999
#
# number of rings (size 3 to 8) (size 9 to 14) (size 15 to 20)
#    0.000    2.200    0.000    3.600    0.000    9.600 
#    0.000    2.000    0.000    0.000    0.000    7.000 
#    0.000    0.000    0.000    0.000    0.000    0.000 
#
# Total GULP energy -991461.861665 kJ/mol
# GULP energy per Si atom -12393.273271 kJ/mol
# Density = 1.863613 g / cm^3
# Si number density = 18.678641 Si / 1000 Ang^3
#
#
#
# Elastic Constant Matrix: (Units=GPa)
#
#
# Indices 1 2 3 4 5 6 
#
# 1 83.3003 17.7101 39.7820 0.0000 0.0000 0.0000
# 2 17.7101 83.3010 39.7843 0.0000 0.0000 0.0000
# 3 39.7820 39.7843 152.9186 0.0000 0.0000 0.0000
# 4 0.0000 0.0000 0.0000 28.8639 0.0000 0.0000
# 5 0.0000 0.0000 0.0000 0.0000 28.8639 0.0000
# 6 0.0000 0.0000 0.0000 0.0000 0.0000 3.5516
#
#
#
# Elastic Compliance Matrix: (Units=1/GPa)
#
#
# Indices 1 2 3 4 5 6 
#
# 1 0.013849 -0.001397 -0.003239 0.000000 0.000000 0.000000
# 2 -0.001397 0.013849 -0.003240 0.000000 0.000000 0.000000
# 3 -0.003239 -0.003240 0.008225 0.000000 0.000000 0.000000
# 4 0.000000 0.000000 0.000000 0.034645 0.000000 0.000000
# 5 0.000000 0.000000 0.000000 0.000000 0.034645 0.000000
# 6 0.000000 0.000000 0.000000 0.000000 0.000000 0.281567
#
#
# Mechanical properties :
#
#
# Convention : Reuss Voigt Hill
#
# Bulk Modulus (GPa) = 49.57717 57.11919 53.34818
# Shear Modulus (GPa) = 12.21731 27.07212 19.64472
#
# Velocity S-wave (km/s) = 2.56027 3.81118 3.24654
# Velocity P-wave (km/s) = 5.94473 7.07200 6.53272
#
# Compressibility (1/GPa) = 0.02017057
#
# Stress axis : x y z
#
# Youngs Moduli (GPa) = 72.20836 72.20790 121.58136
#
# Poissons Ratio (x) = 0.10089 0.39384
# Poissons Ratio (y) = 0.10089 0.39387
# Poissons Ratio (z) = 0.23390 0.23392
#
# Static dielectric constant tensor:
#      x y z
#    x 3.263910 0.000000 0.000000 
#    y 0.000000 3.263910 0.000000 
#    z 0.000000 0.000000 3.778180 
# 
# 
# High freq. dielectric constant tensor:
#      x y z
#    x 1.695840 0.000000 0.000000 
#    y 0.000000 1.695840 0.000000 
#    z 0.000000 0.000000 1.749110 
# 
# From -- ./inp_files/6570.got.cif
#   From: 2010.03.12/outbox.cif.g09.slc.cpg/sg141_4_cif.got.tgz:6570.got - 2010.04.03 13:18:35.
