data_PCOD8320616
_publ_section_title
;
Structure prediction by ZEFSAII (Michael W. Deem and Ramdas Pophale) SiO2 
 PCOD8320616
Probable space group: I 41/A M D
;
_chemical_formula_sum "Si O2"
_cell_formula_units_Z 144
_cell_length_a 26.375691
_cell_length_b 26.375691
_cell_length_c 12.054122
_cell_angle_alpha 90.000000
_cell_angle_beta 90.000000
_cell_angle_gamma 90.000000
_cell_volume 8385.776343
_symmetry_space_group_name_H-M "I 41/A M D"
_symmetry_group_IT_number 141
_space_group.IT_coordinate_system_code '2'
_symmetry_cell_setting 'tetragonal'
loop_
_space_group_symop_operation_xyz
x,y,z
1/4-y,3/4+x,1/4+z
-x,1/2-y,z
1/4+y,1/4-x,3/4+z
x,-y,-z
-x,1/2+y,-z
1/4+y,3/4+x,1/4-z
1/4-y,1/4-x,3/4-z
-x,-y,-z
3/4+y,1/4-x,3/4-z
x,1/2+y,-z
3/4-y,3/4+x,1/4-z
-x,y,z
x,1/2-y,z
3/4-y,1/4-x,3/4+z
3/4+y,3/4+x,1/4+z
1/2+x,1/2+y,1/2+z
3/4-y,1/4+x,3/4+z
1/2-x,-y,1/2+z
3/4+y,3/4-x,1/4+z
1/2+x,1/2-y,1/2-z
1/2-x,y,1/2-z
3/4+y,1/4+x,3/4-z
3/4-y,3/4-x,1/4-z
1/2-x,1/2-y,1/2-z
1/4+y,3/4-x,1/4-z
1/2+x,y,1/2-z
1/4-y,1/4+x,3/4-z
1/2-x,1/2+y,1/2+z
1/2+x,-y,1/2+z
1/4-y,3/4-x,1/4+z
1/4+y,1/4+x,3/4+z
loop_
_atom_site_type_symbol
_atom_site_label
_atom_site_fract_x
_atom_site_fract_y
_atom_site_fract_z
Si Si1 0.800604 0.949397 0.625000
Si Si2 0.347007 0.449461 0.892063
Si Si3 0.230197 0.192259 0.017063
Si Si4 0.638126 0.304993 0.649549
Si Si5 0.401399 0.452580 0.422209
O O1 0.742020 0.941042 0.591160
O O2 0.809581 0.910494 0.726339
O O3 0.404882 0.467924 0.869930
O O4 0.332502 0.398029 0.832304
O O5 0.240749 0.250000 0.058472
O O6 0.181251 0.190320 0.941432
O O7 0.278993 0.172051 0.947412
O O8 0.596428 0.346428 0.625000
O O9 0.611792 0.250000 0.643495
O O10 0.665348 0.308416 0.769491
O O11 0.388732 0.500000 0.500000
#
# Coordination Sequence:
#
# PCOD8320616 Si02
#       5
#    16  32  32  32  32
#     4  10  24  34  50  80 108 132 171 228 267 324
#     4  11  20  36  53  75 109 140 172 222 269 323
#     4  10  20  35  55  77 105 143 184 223 264 321
#     4  10  19  32  50  78 109 139 178 222 264 314
#     4  10  20  31  52  77 108 144 180 210 261 326
#
# _framework density 17.171934
#
# number of rings (size 3 to 8) (size 9 to 14) (size 15 to 20)
#    0.000    1.778    4.444    0.667    3.111    2.889 
#    0.000    2.222    0.000    0.000    0.000    0.000 
#    0.000    0.000    0.000    0.667    0.000    0.000 
#
# Total GULP energy -892186.270071 kJ/mol
# GULP energy per Si atom -12391.475973 kJ/mol
# Density = 1.713285 g / cm^3
# Si number density = 17.171934 Si / 1000 Ang^3
#
#
#
# Elastic Constant Matrix: (Units=GPa)
#
#
# Indices 1 2 3 4 5 6 
#
# 1 98.1983 48.6463 32.8254 0.0000 0.0000 0.0000
# 2 48.6463 98.1996 32.8249 0.0000 0.0000 0.0000
# 3 32.8254 32.8249 88.1149 0.0000 0.0000 0.0000
# 4 0.0000 0.0000 0.0000 18.1390 0.0000 0.0000
# 5 0.0000 0.0000 0.0000 0.0000 18.1388 0.0000
# 6 0.0000 0.0000 0.0000 0.0000 0.0000 19.0055
#
#
#
# Elastic Compliance Matrix: (Units=1/GPa)
#
#
# Indices 1 2 3 4 5 6 
#
# 1 0.014176 -0.006005 -0.003044 0.000000 0.000000 0.000000
# 2 -0.006005 0.014175 -0.003044 0.000000 0.000000 0.000000
# 3 -0.003044 -0.003044 0.013617 0.000000 0.000000 0.000000
# 4 0.000000 0.000000 0.000000 0.055130 0.000000 0.000000
# 5 0.000000 0.000000 0.000000 0.000000 0.055130 0.000000
# 6 0.000000 0.000000 0.000000 0.000000 0.000000 0.052616
#
#
# Mechanical properties :
#
#
# Convention : Reuss Voigt Hill
#
# Bulk Modulus (GPa) = 56.23418 57.01181 56.62299
# Shear Modulus (GPa) = 21.28051 22.40443 21.84247
#
# Velocity S-wave (km/s) = 3.52413 3.61600 3.57036
# Velocity P-wave (km/s) = 7.02696 7.12085 7.07406
#
# Compressibility (1/GPa) = 0.01778278
#
# Stress axis : x y z
#
# Youngs Moduli (GPa) = 70.54300 70.54437 73.43973
#
# Poissons Ratio (x) = 0.42361 0.22354
# Poissons Ratio (y) = 0.42361 0.22353
# Poissons Ratio (z) = 0.21473 0.21472
#
# Static dielectric constant tensor:
#      x y z
#    x 3.289840 0.000000 0.000000 
#    y 0.000000 3.289830 0.000000 
#    z 0.000000 0.000000 3.114140 
# 
# 
# High freq. dielectric constant tensor:
#      x y z
#    x 1.656720 0.000000 0.000000 
#    y 0.000000 1.656720 0.000000 
#    z 0.000000 0.000000 1.647880 
# 
# From -- ./inp_files/4775.got.cif
#   From: 2010.03.12/outbox.cif.g09.slc.cpg/sg141_3_cif.got.tgz:4775.got - 2010.04.03 13:18:35.
