data_PCOD8320097
_publ_section_title
;
Structure prediction by ZEFSAII (Michael W. Deem and Ramdas Pophale) SiO2 
 PCOD8320097
Probable space group: I 4/M C M
;
_chemical_formula_sum "Si O2"
_cell_formula_units_Z 176
_cell_length_a 17.239166
_cell_length_b 17.239166
_cell_length_c 30.698644
_cell_angle_alpha 90.000000
_cell_angle_beta 90.000000
_cell_angle_gamma 90.000000
_cell_volume 9123.294534
_symmetry_space_group_name_H-M "I 4/M C M"
_symmetry_group_IT_number 140
_symmetry_cell_setting 'tetragonal'
loop_
_space_group_symop_operation_xyz
x,y,z
-y,x,z
-x,-y,z
y,-x,z
x,-y,1/2-z
-x,y,1/2-z
y,x,1/2-z
-y,-x,1/2-z
-x,-y,-z
y,-x,-z
x,y,-z
-y,x,-z
-x,y,1/2+z
x,-y,1/2+z
-y,-x,1/2+z
y,x,1/2+z
1/2+x,1/2+y,1/2+z
1/2-y,1/2+x,1/2+z
1/2-x,1/2-y,1/2+z
1/2+y,1/2-x,1/2+z
1/2+x,1/2-y,-z
1/2-x,1/2+y,-z
1/2+y,1/2+x,-z
1/2-y,1/2-x,-z
1/2-x,1/2-y,1/2-z
1/2+y,1/2-x,1/2-z
1/2+x,1/2+y,1/2-z
1/2-y,1/2+x,1/2-z
1/2-x,1/2+y,z
1/2+x,1/2-y,z
1/2-y,1/2-x,z
1/2+y,1/2+x,z
loop_
_atom_site_type_symbol
_atom_site_label
_atom_site_fract_x
_atom_site_fract_y
_atom_site_fract_z
Si Si1 0.353592 0.723925 0.710784
Si Si2 0.699587 0.931566 0.590211
Si Si3 0.379557 0.999448 0.333193
Si Si4 0.500000 0.799913 0.750000
Si Si5 0.180234 0.190204 0.384886
Si Si6 0.213281 0.412505 0.549148
O O1 0.332975 0.667026 0.750000
O O2 0.297228 0.797228 0.709758
O O3 0.439894 0.750577 0.721745
O O4 0.353416 0.679709 0.664205
O O5 0.631212 0.868788 0.582378
O O6 0.782321 0.889661 0.597303
O O7 0.688002 0.988567 0.631834
O O8 0.702080 0.993981 0.551109
O O9 0.408888 0.908888 0.329756
O O10 0.354457 0.036768 0.287011
O O11 0.451257 0.048744 0.350531
O O12 0.248167 0.251834 0.382459
O O13 0.114254 0.217926 0.418444
O O14 0.238856 0.391942 0.500000
O O15 0.132882 0.367119 0.560580
#
# Coordination Sequence:
#
# PCOD8320097 Si02
#       6
#    32  32  32  16  32  32
#     4  10  20  33  50  75 106 139 180 226 266 310
#     4  10  20  35  56  79 105 142 185 227 278 339
#     4  10  19  29  44  72 108 140 172 212 260 317
#     4  12  20  29  48  71 102 144 182 212 256 316
#     4   9  19  36  55  76 108 150 192 232 275 330
#     4  10  21  36  55  82 114 143 174 222 285 348
#
# _framework density 19.291277999999998
#
# number of rings (size 3 to 8) (size 9 to 14) (size 15 to 20)
#    0.000    2.000    0.000    4.364    0.000    7.273 
#    0.000    2.727    0.000    0.818    0.000    3.818 
#    0.000    0.000    0.000    0.000    0.000    0.000 
#
# Total GULP energy -1090400.441697 kJ/mol
# GULP energy per Si atom -12390.914110 kJ/mol
# Density = 1.924737 g / cm^3
# Si number density = 19.291278 Si / 1000 Ang^3
#
#
#
# Elastic Constant Matrix: (Units=GPa)
#
#
# Indices 1 2 3 4 5 6 
#
# 1 78.9334 45.0270 39.7218 0.0000 0.0000 0.0000
# 2 45.0270 78.9362 39.7220 0.0000 0.0000 0.0000
# 3 39.7218 39.7220 122.4364 0.0000 0.0000 0.0000
# 4 0.0000 0.0000 0.0000 24.5310 0.0000 0.0000
# 5 0.0000 0.0000 0.0000 0.0000 24.5322 0.0000
# 6 0.0000 0.0000 0.0000 0.0000 0.0000 26.4136
#
#
#
# Elastic Compliance Matrix: (Units=1/GPa)
#
#
# Indices 1 2 3 4 5 6 
#
# 1 0.019839 -0.009654 -0.003304 0.000000 0.000000 0.000000
# 2 -0.009654 0.019838 -0.003304 0.000000 0.000000 0.000000
# 3 -0.003304 -0.003304 0.010311 0.000000 0.000000 0.000000
# 4 0.000000 0.000000 0.000000 0.040765 0.000000 0.000000
# 5 0.000000 0.000000 0.000000 0.000000 0.040763 0.000000
# 6 0.000000 0.000000 0.000000 0.000000 0.000000 0.037859
#
#
# Mechanical properties :
#
#
# Convention : Reuss Voigt Hill
#
# Bulk Modulus (GPa) = 57.26103 58.80530 58.03316
# Shear Modulus (GPa) = 24.07090 25.48437 24.77764
#
# Velocity S-wave (km/s) = 3.53620 3.63854 3.58773
# Velocity P-wave (km/s) = 6.81320 6.94269 6.87825
#
# Compressibility (1/GPa) = 0.01746389
#
# Stress axis : x y z
#
# Youngs Moduli (GPa) = 50.40688 50.40892 96.97974
#
# Poissons Ratio (x) = 0.48663 0.32045
# Poissons Ratio (y) = 0.48661 0.32043
# Poissons Ratio (z) = 0.16656 0.16655
#
# Static dielectric constant tensor:
#      x y z
#    x 3.484270 0.000000 0.000000 
#    y 0.000000 3.484260 0.000000 
#    z 0.000000 0.000000 3.826530 
# 
# 
# High freq. dielectric constant tensor:
#      x y z
#    x 1.726100 0.000000 0.000000 
#    y 0.000000 1.726100 0.000000 
#    z 0.000000 0.000000 1.760000 
# 
# From -- ./inp_files/10681.got.cif
#   From: 2010.06.25/outbox.cif.g09.slc.cpg/sg140_6_cif.got.tgz:10681.got - 2010.06.28 10:53:23.
