data_PCOD8320419
_publ_section_title
;
Structure prediction by ZEFSAII (Michael W. Deem and Ramdas Pophale) SiO2 
 PCOD8320419
Probable space group: I 4/M C M
;
_chemical_formula_sum "Si O2"
_cell_formula_units_Z 160
_cell_length_a 26.654744
_cell_length_b 26.654744
_cell_length_c 11.564011
_cell_angle_alpha 90.000000
_cell_angle_beta 90.000000
_cell_angle_gamma 90.000000
_cell_volume 8215.945083
_symmetry_space_group_name_H-M "I 4/M C M"
_symmetry_group_IT_number 140
_symmetry_cell_setting 'tetragonal'
loop_
_space_group_symop_operation_xyz
x,y,z
-y,x,z
-x,-y,z
y,-x,z
x,-y,1/2-z
-x,y,1/2-z
y,x,1/2-z
-y,-x,1/2-z
-x,-y,-z
y,-x,-z
x,y,-z
-y,x,-z
-x,y,1/2+z
x,-y,1/2+z
-y,-x,1/2+z
y,x,1/2+z
1/2+x,1/2+y,1/2+z
1/2-y,1/2+x,1/2+z
1/2-x,1/2-y,1/2+z
1/2+y,1/2-x,1/2+z
1/2+x,1/2-y,-z
1/2-x,1/2+y,-z
1/2+y,1/2+x,-z
1/2-y,1/2-x,-z
1/2-x,1/2-y,1/2-z
1/2+y,1/2-x,1/2-z
1/2+x,1/2+y,1/2-z
1/2-y,1/2+x,1/2-z
1/2-x,1/2+y,z
1/2+x,1/2-y,z
1/2-y,1/2-x,z
1/2+y,1/2+x,z
loop_
_atom_site_type_symbol
_atom_site_label
_atom_site_fract_x
_atom_site_fract_y
_atom_site_fract_z
Si Si1 0.861017 0.445539 0.762439
Si Si2 0.751839 0.829307 0.000000
Si Si3 0.805372 0.877559 0.802958
Si Si4 0.668130 0.912739 0.000000
Si Si5 0.013345 0.822547 0.127683
Si Si6 0.761347 0.567545 0.870343
O O1 0.887360 0.500000 0.750000
O O2 0.902296 0.402296 0.748983
O O3 0.818812 0.439623 0.665358
O O4 0.831506 0.445894 0.884670
O O5 0.785092 0.833161 0.884829
O O6 0.714740 0.876161 0.000000
O O7 0.723574 0.776427 0.000000
O O8 0.857756 0.857756 0.750000
O O9 0.815177 0.927233 0.878227
O O10 0.764997 0.888978 0.703860
O O11 0.616025 0.883976 0.000000
O O12 0.000000 0.852586 0.250000
O O13 0.984723 0.769379 0.139376
O O14 0.998381 0.846919 0.000000
O O15 0.761263 0.587860 0.000000
#
# Coordination Sequence:
#
# PCOD8320419 Si02
#       6
#    32  16  32  16  32  32
#     4  11  23  39  59  82 108 141 183 235 294 357
#     4  11  22  38  56  72 105 156 203 238 281 347
#     4  11  22  35  58  83 113 150 192 238 289 340
#     4   9  20  38  59  77  98 139 193 229 267 345
#     4   9  18  35  57  85 113 147 186 235 287 341
#     4  10  22  37  59  88 116 146 188 238 291 345
#
# _framework density 19.474326999999999
#
# number of rings (size 3 to 8) (size 9 to 14) (size 15 to 20)
#    0.000    1.800    3.000    1.800    2.800    1.000 
#    0.000    0.000    0.000    1.800    0.000    0.000 
#    0.000   32.400    0.000   95.400    0.000    2.400 
#
# Total GULP energy -991239.027229 kJ/mol
# GULP energy per Si atom -12390.487840 kJ/mol
# Density = 1.943000 g / cm^3
# Si number density = 19.474327 Si / 1000 Ang^3
#
#
#
# Elastic Constant Matrix: (Units=GPa)
#
#
# Indices 1 2 3 4 5 6 
#
# 1 57.8400 36.5668 22.2212 0.0000 0.0000 0.0000
# 2 36.5668 57.8397 22.2213 0.0000 0.0000 0.0000
# 3 22.2212 22.2213 160.7520 0.0000 0.0000 0.0000
# 4 0.0000 0.0000 0.0000 11.8108 0.0000 0.0000
# 5 0.0000 0.0000 0.0000 0.0000 11.8067 0.0000
# 6 0.0000 0.0000 0.0000 0.0000 0.0000 22.1551
#
#
#
# Elastic Compliance Matrix: (Units=1/GPa)
#
#
# Indices 1 2 3 4 5 6 
#
# 1 0.029169 -0.017839 -0.001566 0.000000 0.000000 0.000000
# 2 -0.017839 0.029169 -0.001566 0.000000 0.000000 0.000000
# 3 -0.001566 -0.001566 0.006654 0.000000 0.000000 0.000000
# 4 0.000000 0.000000 0.000000 0.084669 0.000000 0.000000
# 5 0.000000 0.000000 0.000000 0.000000 0.084697 0.000000
# 6 0.000000 0.000000 0.000000 0.000000 0.000000 0.045136
#
#
# Mechanical properties :
#
#
# Convention : Reuss Voigt Hill
#
# Bulk Modulus (GPa) = 43.38648 48.71671 46.05160
# Shear Modulus (GPa) = 15.19208 22.18269 18.68738
#
# Velocity S-wave (km/s) = 2.79607 3.37868 3.10109
# Velocity P-wave (km/s) = 5.72287 6.34750 6.04326
#
# Compressibility (1/GPa) = 0.02304865
#
# Stress axis : x y z
#
# Youngs Moduli (GPa) = 34.28338 34.28315 150.29124
#
# Poissons Ratio (x) = 0.61158 0.23537
# Poissons Ratio (y) = 0.61158 0.23538
# Poissons Ratio (z) = 0.05369 0.05369
#
# Static dielectric constant tensor:
#      x y z
#    x 3.272380 0.000000 0.000000 
#    y 0.000000 3.272380 0.000000 
#    z 0.000000 0.000000 4.210430 
# 
# 
# High freq. dielectric constant tensor:
#      x y z
#    x 1.725990 0.000000 0.000000 
#    y 0.000000 1.725990 0.000000 
#    z 0.000000 0.000000 1.789490 
# 
# From -- ./inp_files/3183.got.cif
#   From: 2010.06.25/outbox.cif.g09.slc.cpg/sg140_2_cif.got.tgz:3183.got - 2010.06.28 10:53:23.
