data_PCOD8320787
_publ_section_title
;
Structure prediction by ZEFSAII (Michael W. Deem and Ramdas Pophale) SiO2 
 PCOD8320787
Probable space group: I 41/A M D
;
_chemical_formula_sum "Si O2"
_cell_formula_units_Z 112
_cell_length_a 32.565435
_cell_length_b 32.565435
_cell_length_c 5.129453
_cell_angle_alpha 90.000000
_cell_angle_beta 90.000000
_cell_angle_gamma 90.000000
_cell_volume 5439.823668
_symmetry_space_group_name_H-M "I 41/A M D"
_symmetry_group_IT_number 141
_space_group.IT_coordinate_system_code '2'
_symmetry_cell_setting 'tetragonal'
loop_
_space_group_symop_operation_xyz
x,y,z
1/4-y,3/4+x,1/4+z
-x,1/2-y,z
1/4+y,1/4-x,3/4+z
x,-y,-z
-x,1/2+y,-z
1/4+y,3/4+x,1/4-z
1/4-y,1/4-x,3/4-z
-x,-y,-z
3/4+y,1/4-x,3/4-z
x,1/2+y,-z
3/4-y,3/4+x,1/4-z
-x,y,z
x,1/2-y,z
3/4-y,1/4-x,3/4+z
3/4+y,3/4+x,1/4+z
1/2+x,1/2+y,1/2+z
3/4-y,1/4+x,3/4+z
1/2-x,-y,1/2+z
3/4+y,3/4-x,1/4+z
1/2+x,1/2-y,1/2-z
1/2-x,y,1/2-z
3/4+y,1/4+x,3/4-z
3/4-y,3/4-x,1/4-z
1/2-x,1/2-y,1/2-z
1/4+y,3/4-x,1/4-z
1/2+x,y,1/2-z
1/4-y,1/4+x,3/4-z
1/2-x,1/2+y,1/2+z
1/2+x,-y,1/2+z
1/4-y,3/4-x,1/4+z
1/4+y,1/4+x,3/4+z
loop_
_atom_site_type_symbol
_atom_site_label
_atom_site_fract_x
_atom_site_fract_y
_atom_site_fract_z
Si Si1 0.705351 0.955351 0.875000
Si Si2 0.954284 0.139523 0.785268
Si Si3 0.337906 0.203352 0.037887
Si Si4 0.380142 0.973666 0.746732
O O1 0.750000 0.953453 0.750000
O O2 0.664376 0.951667 0.688935
O O3 0.925867 0.175867 0.875000
O O4 0.943022 0.123473 0.497205
O O5 0.000000 0.157582 0.785342
O O6 0.950102 0.102933 0.992052
O O7 0.321141 0.250000 0.091229
O O8 0.304468 0.168383 0.072451
O O9 0.393728 0.000000 0.500000
O O10 0.371706 0.000000 0.000000
#
# Coordination Sequence:
#
# PCOD8320787 Si02
#       4
#    16  32  32  32
#     4  10  22  40  62  86 124 160 201 262 308 364
#     4  10  21  37  60  88 121 160 202 247 309 366
#     4  10  22  40  60  90 124 159 202 256 311 368
#     4  11  24  40  61  91 117 159 211 247 313 378
#
# _framework density 20.588902000000001
#
# number of rings (size 3 to 8) (size 9 to 14) (size 15 to 20)
#    0.000    1.714    0.000    3.429    4.000    4.857 
#    0.000    0.000    0.000    5.143    0.000    0.000 
#    0.000    0.000    0.000    0.000    0.000    0.000 
#
# Total GULP energy -693805.439237 kJ/mol
# GULP energy per Si atom -12389.382844 kJ/mol
# Density = 2.054204 g / cm^3
# Si number density = 20.588902 Si / 1000 Ang^3
#
#
#
# Elastic Constant Matrix: (Units=GPa)
#
#
# Indices 1 2 3 4 5 6 
#
# 1 131.8357 75.9698 17.0362 0.0000 0.0000 0.0000
# 2 75.9698 131.8357 17.0362 0.0000 0.0000 0.0000
# 3 17.0362 17.0362 81.7934 0.0000 0.0000 0.0000
# 4 0.0000 0.0000 0.0000 27.9953 0.0000 0.0000
# 5 0.0000 0.0000 0.0000 0.0000 27.9953 0.0000
# 6 0.0000 0.0000 0.0000 0.0000 0.0000 50.7996
#
#
#
# Elastic Compliance Matrix: (Units=1/GPa)
#
#
# Indices 1 2 3 4 5 6 
#
# 1 0.011441 -0.006459 -0.001038 0.000000 0.000000 0.000000
# 2 -0.006459 0.011441 -0.001038 0.000000 0.000000 0.000000
# 3 -0.001038 -0.001038 0.012658 0.000000 0.000000 0.000000
# 4 0.000000 0.000000 0.000000 0.035720 0.000000 0.000000
# 5 0.000000 0.000000 0.000000 0.000000 0.035720 0.000000
# 6 0.000000 0.000000 0.000000 0.000000 0.000000 0.019685
#
#
# Mechanical properties :
#
#
# Convention : Reuss Voigt Hill
#
# Bulk Modulus (GPa) = 54.13616 62.83879 58.48748
# Shear Modulus (GPa) = 33.35729 37.05288 35.20508
#
# Velocity S-wave (km/s) = 4.02949 4.24683 4.13959
# Velocity P-wave (km/s) = 6.92820 7.39151 7.16360
#
# Compressibility (1/GPa) = 0.01847194
#
# Stress axis : x y z
#
# Youngs Moduli (GPa) = 87.40357 87.40357 79.00013
#
# Poissons Ratio (x) = 0.56453 0.08198
# Poissons Ratio (y) = 0.56453 0.08198
# Poissons Ratio (z) = 0.09070 0.09070
#
# Static dielectric constant tensor:
#      x y z
#    x 3.967390 0.000000 0.000000 
#    y 0.000000 3.967390 0.000000 
#    z 0.000000 0.000000 3.857750 
# 
# 
# High freq. dielectric constant tensor:
#      x y z
#    x 1.808410 0.000000 0.000000 
#    y 0.000000 1.808410 0.000000 
#    z 0.000000 0.000000 1.810010 
# 
# From -- ./inp_files/1297.got.cif
#   From: 2010.03.12/outbox.cif.g09.slc.cpg/sg141_1_cif.got.tgz:1297.got - 2010.04.03 13:18:35.
