data_PCOD8320991
_publ_section_title
;
Structure prediction by ZEFSAII (Michael W. Deem and Ramdas Pophale) SiO2 
 PCOD8320991
Probable space group: I 41/A C D
;
_chemical_formula_sum "Si O2"
_cell_formula_units_Z 192
_cell_length_a 20.198166
_cell_length_b 20.198166
_cell_length_c 26.279280
_cell_angle_alpha 90.000000
_cell_angle_beta 90.000000
_cell_angle_gamma 90.000000
_cell_volume 10721.050373
_symmetry_space_group_name_H-M "I 41/A C D"
_symmetry_group_IT_number 142
_space_group.IT_coordinate_system_code '2'
_symmetry_cell_setting 'tetragonal'
loop_
_space_group_symop_operation_xyz
x,y,z
1/4-y,3/4+x,1/4+z
-x,1/2-y,z
1/4+y,1/4-x,3/4+z
x,-y,1/2-z
1/2-x,y,-z
3/4+y,1/4+x,1/4-z
1/4-y,1/4-x,1/4-z
-x,-y,-z
3/4+y,1/4-x,3/4-z
x,1/2+y,-z
3/4-y,3/4+x,1/4-z
-x,y,1/2+z
1/2+x,-y,z
1/4-y,3/4-x,3/4+z
3/4+y,3/4+x,3/4+z
1/2+x,1/2+y,1/2+z
3/4-y,1/4+x,3/4+z
1/2-x,-y,1/2+z
3/4+y,3/4-x,1/4+z
1/2+x,1/2-y,-z
-x,1/2+y,1/2-z
1/4+y,3/4+x,3/4-z
3/4-y,3/4-x,3/4-z
1/2-x,1/2-y,1/2-z
1/4+y,3/4-x,1/4-z
1/2+x,y,1/2-z
1/4-y,1/4+x,3/4-z
1/2-x,1/2+y,z
x,1/2-y,1/2+z
3/4-y,1/4-x,1/4+z
1/4+y,1/4+x,1/4+z
loop_
_atom_site_type_symbol
_atom_site_label
_atom_site_fract_x
_atom_site_fract_y
_atom_site_fract_z
Si Si1 0.081920 0.438275 0.137000
Si Si2 0.520667 0.468568 0.947754
Si Si3 0.405941 0.720163 0.249264
Si Si4 0.069426 0.583090 0.171400
Si Si5 0.848657 0.206893 0.346622
Si Si6 0.966759 0.144545 0.227525
O O1 0.150588 0.400588 0.125000
O O2 0.098383 0.509864 0.161745
O O3 0.034701 0.394927 0.174373
O O4 0.044218 0.450018 0.084500
O O5 0.560351 0.402686 0.964153
O O6 0.564047 0.523787 0.919236
O O7 0.500000 0.500000 0.000000
O O8 0.384460 0.743495 0.305983
O O9 0.429134 0.786340 0.219934
O O10 0.460386 0.662438 0.249143
O O11 0.114067 0.638546 0.143831
O O12 0.068864 0.597168 0.231524
O O13 0.995615 0.592495 0.149565
#
# Coordination Sequence:
#
# PCOD8320991 Si02
#       6
#    32  32  32  32  32  32
#     4  11  21  35  54  79 110 151 187 229 283 341
#     4   9  18  34  52  76 108 142 181 222 273 337
#     4   9  17  31  52  81 111 139 172 234 280 336
#     4  10  20  34  55  80 109 146 185 240 280 333
#     4   9  18  32  55  80 109 143 186 228 283 329
#     4  10  19  31  51  83 110 135 187 228 287 330
#
# _framework density 17.908691999999999
#
# number of rings (size 3 to 8) (size 9 to 14) (size 15 to 20)
#    0.000    2.333    1.667    1.500    0.000    2.333 
#    0.000    0.000    7.333    0.000    0.000    0.000 
#    0.000    0.000    0.000    0.000    0.000    0.000 
#
# Total GULP energy -1189406.693990 kJ/mol
# GULP energy per Si atom -12389.653062 kJ/mol
# Density = 1.786793 g / cm^3
# Si number density = 17.908692 Si / 1000 Ang^3
#
#
#
# Elastic Constant Matrix: (Units=GPa)
#
#
# Indices 1 2 3 4 5 6 
#
# 1 84.5225 26.8186 24.8995 0.0000 0.0000 0.0000
# 2 26.8186 84.5225 24.8995 0.0000 0.0000 0.0000
# 3 24.8995 24.8995 71.4719 0.0000 0.0000 0.0000
# 4 0.0000 0.0000 0.0000 23.2777 0.0000 0.0000
# 5 0.0000 0.0000 0.0000 0.0000 23.2777 0.0000
# 6 0.0000 0.0000 0.0000 0.0000 0.0000 22.3990
#
#
#
# Elastic Compliance Matrix: (Units=1/GPa)
#
#
# Indices 1 2 3 4 5 6 
#
# 1 0.013985 -0.003345 -0.003706 0.000000 0.000000 0.000000
# 2 -0.003345 0.013985 -0.003706 0.000000 0.000000 0.000000
# 3 -0.003706 -0.003706 0.016574 0.000000 0.000000 0.000000
# 4 0.000000 0.000000 0.000000 0.042959 0.000000 0.000000
# 5 0.000000 0.000000 0.000000 0.000000 0.042959 0.000000
# 6 0.000000 0.000000 0.000000 0.000000 0.000000 0.044645
#
#
# Mechanical properties :
#
#
# Convention : Reuss Voigt Hill
#
# Bulk Modulus (GPa) = 43.42831 43.75024 43.58928
# Shear Modulus (GPa) = 24.47391 24.71751 24.59571
#
# Velocity S-wave (km/s) = 3.70076 3.71913 3.70996
# Velocity P-wave (km/s) = 6.52406 6.55173 6.53791
#
# Compressibility (1/GPa) = 0.02302645
#
# Stress axis : x y z
#
# Youngs Moduli (GPa) = 71.50756 71.50756 60.33526
#
# Poissons Ratio (x) = 0.23922 0.22363
# Poissons Ratio (y) = 0.23922 0.22363
# Poissons Ratio (z) = 0.26504 0.26504
#
# Static dielectric constant tensor:
#      x y z
#    x 3.663480 0.000000 0.000000 
#    y 0.000000 3.663480 0.000000 
#    z 0.000000 0.000000 3.486080 
# 
# 
# High freq. dielectric constant tensor:
#      x y z
#    x 1.676810 0.000000 0.000000 
#    y 0.000000 1.676810 0.000000 
#    z 0.000000 0.000000 1.701410 
# 
# From -- ./inp_files/11568.got.cif
#   From: 2010.03.12/outbox.cif.g09.slc.cpg/sg142_6_cif.got.tgz:11568.got - 2010.04.03 13:27:16.
