data_PCOD8320187
_publ_section_title
;
Structure prediction by ZEFSAII (Michael W. Deem and Ramdas Pophale) SiO2 
 PCOD8320187
Probable space group: I 4/M C M
;
_chemical_formula_sum "Si O2"
_cell_formula_units_Z 240
_cell_length_a 20.373568
_cell_length_b 20.373568
_cell_length_c 25.899716
_cell_angle_alpha 90.000000
_cell_angle_beta 90.000000
_cell_angle_gamma 90.000000
_cell_volume 10750.512989
_symmetry_space_group_name_H-M "I 4/M C M"
_symmetry_group_IT_number 140
_symmetry_cell_setting 'tetragonal'
loop_
_space_group_symop_operation_xyz
x,y,z
-y,x,z
-x,-y,z
y,-x,z
x,-y,1/2-z
-x,y,1/2-z
y,x,1/2-z
-y,-x,1/2-z
-x,-y,-z
y,-x,-z
x,y,-z
-y,x,-z
-x,y,1/2+z
x,-y,1/2+z
-y,-x,1/2+z
y,x,1/2+z
1/2+x,1/2+y,1/2+z
1/2-y,1/2+x,1/2+z
1/2-x,1/2-y,1/2+z
1/2+y,1/2-x,1/2+z
1/2+x,1/2-y,-z
1/2-x,1/2+y,-z
1/2+y,1/2+x,-z
1/2-y,1/2-x,-z
1/2-x,1/2-y,1/2-z
1/2+y,1/2-x,1/2-z
1/2+x,1/2+y,1/2-z
1/2-y,1/2+x,1/2-z
1/2-x,1/2+y,z
1/2+x,1/2-y,z
1/2-y,1/2-x,z
1/2+y,1/2+x,z
loop_
_atom_site_type_symbol
_atom_site_label
_atom_site_fract_x
_atom_site_fract_y
_atom_site_fract_z
Si Si1 0.761414 0.513215 0.059043
Si Si2 0.917975 0.068752 0.309090
Si Si3 0.737807 0.659793 0.098986
Si Si4 0.839732 0.448774 0.708963
Si Si5 0.654917 0.742235 0.720407
Si Si6 0.559748 0.412671 0.500000
Si Si7 0.998763 0.391457 0.893499
Si Si8 0.903869 0.169347 0.903565
O O1 0.743682 0.585387 0.079370
O O2 0.839953 0.499206 0.059382
O O3 0.726638 0.457931 0.094761
O O4 0.736932 0.505702 0.000000
O O5 0.907668 0.092333 0.250000
O O6 0.866144 0.102870 0.347393
O O7 0.992014 0.090629 0.320853
O O8 0.798143 0.701858 0.075468
O O9 0.738624 0.664617 0.160033
O O10 0.669420 0.694497 0.082666
O O11 0.866946 0.500000 0.750000
O O12 0.887187 0.387187 0.704803
O O13 0.767498 0.421247 0.726556
O O14 0.842795 0.486679 0.654636
O O15 0.673384 0.673384 0.750000
O O16 0.702888 0.797113 0.745193
O O17 0.591103 0.482894 0.500000
O O18 0.582528 0.383260 0.446757
O O19 0.055497 0.444504 0.901683
O O20 0.928953 0.428953 0.887944
#
# Coordination Sequence:
#
# PCOD8320187 Si02
#       8
#    32  32  32  32  32  16  32  32
#     4  12  26  45  69 100 138 183 243 308 365 438
#     4   9  18  36  64  98 136 176 217 269 339 411
#     4  11  25  46  70  95 136 189 237 287 356 442
#     4  10  19  35  63 100 139 178 231 290 355 431
#     4   9  19  39  65  92 130 178 225 272 332 419
#     4  11  22  40  67  96 130 171 215 272 346 414
#     4  10  22  42  68  98 135 183 239 302 373 446
#     4  12  25  41  66 100 136 173 229 296 349 420
#
# _framework density 22.324515000000002
#
# number of rings (size 3 to 8) (size 9 to 14) (size 15 to 20)
#    0.000    1.533    2.000    3.600    0.933    5.200 
#    0.000    2.000    0.000    0.000    0.000    0.000 
#    0.000    0.267    0.000    0.000    0.000    0.000 
#
# Total GULP energy -1486805.958464 kJ/mol
# GULP energy per Si atom -12390.049654 kJ/mol
# Density = 2.227370 g / cm^3
# Si number density = 22.324515 Si / 1000 Ang^3
#
#
#
# Elastic Constant Matrix: (Units=GPa)
#
#
# Indices 1 2 3 4 5 6 
#
# 1 126.1571 52.7853 29.7224 0.0000 0.0000 0.0000
# 2 52.7853 126.1574 29.7223 0.0000 0.0000 0.0000
# 3 29.7224 29.7223 88.7912 0.0000 0.0000 0.0000
# 4 0.0000 0.0000 0.0000 -45.1618 0.0000 0.0000
# 5 0.0000 0.0000 0.0000 0.0000 -45.1773 0.0000
# 6 0.0000 0.0000 0.0000 0.0000 0.0000 18.8160
#
#
#
# Elastic Compliance Matrix: (Units=1/GPa)
#
#
# Indices 1 2 3 4 5 6 
#
# 1 0.009958 -0.003671 -0.002105 0.000000 0.000000 0.000000
# 2 -0.003671 0.009958 -0.002105 0.000000 0.000000 0.000000
# 3 -0.002105 -0.002105 0.012671 0.000000 0.000000 0.000000
# 4 0.000000 0.000000 0.000000 -0.022143 0.000000 0.000000
# 5 0.000000 0.000000 0.000000 0.000000 -0.022135 0.000000
# 6 0.000000 0.000000 0.000000 0.000000 0.000000 0.053146
#
#
# Mechanical properties :
#
#
# Convention : Reuss Voigt Hill
#
# Bulk Modulus (GPa) = 59.42584 62.84065 61.13325
# Shear Modulus (GPa) = 79.58399 0.95375 40.26887
#
# Velocity S-wave (km/s) = 5.97713 0.65433 4.25172
# Velocity P-wave (km/s) = 8.62042 5.36476 7.17957
#
# Compressibility (1/GPa) = 0.01682770
#
# Stress axis : x y z
#
# Youngs Moduli (GPa) = 100.41777 100.41803 78.91743
#
# Poissons Ratio (x) = 0.36862 0.16610
# Poissons Ratio (y) = 0.36861 0.16610
# Poissons Ratio (z) = 0.21135 0.21135
#
# Static dielectric constant tensor:
#      x y z
#    x 4.239240 0.000000 0.000000 
#    y 0.000000 4.239240 0.000000 
#    z 0.000000 0.000000 3.953560 
# 
# 
# High freq. dielectric constant tensor:
#      x y z
#    x 1.882320 0.000000 0.000000 
#    y 0.000000 1.882320 0.000000 
#    z 0.000000 0.000000 1.872380 
# 
# From -- ./inp_files/10981.got.cif
#   From: 2010.06.25/outbox.cif.g09.slc.cpg/sg140_6_cif.got.tgz:10981.got - 2010.06.28 10:53:23.
