data_PCOD8320076
_publ_section_title
;
Structure prediction by ZEFSAII (Michael W. Deem and Ramdas Pophale) SiO2 
 PCOD8320076
Probable space group: I 4/M C M
;
_chemical_formula_sum "Si O2"
_cell_formula_units_Z 128
_cell_length_a 33.633503
_cell_length_b 33.633503
_cell_length_c 9.814363
_cell_angle_alpha 90.000000
_cell_angle_beta 90.000000
_cell_angle_gamma 90.000000
_cell_volume 11102.130341
_symmetry_space_group_name_H-M "I 4/M C M"
_symmetry_group_IT_number 140
_symmetry_cell_setting 'tetragonal'
loop_
_space_group_symop_operation_xyz
x,y,z
-y,x,z
-x,-y,z
y,-x,z
x,-y,1/2-z
-x,y,1/2-z
y,x,1/2-z
-y,-x,1/2-z
-x,-y,-z
y,-x,-z
x,y,-z
-y,x,-z
-x,y,1/2+z
x,-y,1/2+z
-y,-x,1/2+z
y,x,1/2+z
1/2+x,1/2+y,1/2+z
1/2-y,1/2+x,1/2+z
1/2-x,1/2-y,1/2+z
1/2+y,1/2-x,1/2+z
1/2+x,1/2-y,-z
1/2-x,1/2+y,-z
1/2+y,1/2+x,-z
1/2-y,1/2-x,-z
1/2-x,1/2-y,1/2-z
1/2+y,1/2-x,1/2-z
1/2+x,1/2+y,1/2-z
1/2-y,1/2+x,1/2-z
1/2-x,1/2+y,z
1/2+x,1/2-y,z
1/2-y,1/2-x,z
1/2+y,1/2+x,z
loop_
_atom_site_type_symbol
_atom_site_label
_atom_site_fract_x
_atom_site_fract_y
_atom_site_fract_z
Si Si1 0.919166 0.646804 0.233279
Si Si2 0.859140 0.707882 0.847049
Si Si3 0.381883 0.948726 0.500000
Si Si4 0.757804 0.190884 0.343490
Si Si5 0.961762 0.396721 0.500000
O O1 0.881426 0.618575 0.245114
O O2 0.902514 0.690059 0.190841
O O3 0.942781 0.648022 0.374485
O O4 0.950493 0.629714 0.128031
O O5 0.826333 0.673668 0.846392
O O6 0.848085 0.740633 0.733075
O O7 0.860950 0.726454 0.000000
O O8 0.417587 0.917587 0.500000
O O9 0.403759 0.991239 0.500000
O O10 0.794544 0.205457 0.250000
O O11 0.770838 0.180624 0.500000
O O12 0.724949 0.224949 0.349510
O O13 0.939329 0.439329 0.500000
#
# Coordination Sequence:
#
# PCOD8320076 Si02
#       5
#    32  32  16  32  16
#     4   9  17  28  40  53  66  81 101 124 152 187
#     4   9  15  24  37  49  63  84 106 125 144 169
#     4  10  20  29  40  56  69  79  97 129 163 203
#     4   9  16  23  32  48  69  89 106 123 141 161
#     4  10  18  31  44  52  65  83 101 123 161 209
#
# _framework density 11.529318999999999
#
# number of rings (size 3 to 8) (size 9 to 14) (size 15 to 20)
#    0.000    2.750    1.250    1.500    1.750    3.250 
#    0.000    0.000    0.000    4.500    0.000    0.000 
#    0.000    0.000    0.000    0.000    0.000    0.000 
#
# Total GULP energy -793034.887387 kJ/mol
# GULP energy per Si atom -12391.170115 kJ/mol
# Density = 1.150308 g / cm^3
# Si number density = 11.529319 Si / 1000 Ang^3
#
#
#
# Elastic Constant Matrix: (Units=GPa)
#
#
# Indices 1 2 3 4 5 6 
#
# 1 26.3148 25.0545 26.7433 0.0000 0.0000 0.0000
# 2 25.0545 26.3155 26.7436 0.0000 0.0000 0.0000
# 3 26.7433 26.7436 119.0457 0.0000 0.0000 0.0000
# 4 0.0000 0.0000 0.0000 29.1006 0.0000 0.0000
# 5 0.0000 0.0000 0.0000 0.0000 29.0985 0.0000
# 6 0.0000 0.0000 0.0000 0.0000 0.0000 11.8405
#
#
#
# Elastic Compliance Matrix: (Units=1/GPa)
#
#
# Indices 1 2 3 4 5 6 
#
# 1 0.409321 -0.383905 -0.005709 0.000000 0.000000 0.000000
# 2 -0.383905 0.409310 -0.005708 0.000000 0.000000 0.000000
# 3 -0.005709 -0.005708 0.010965 0.000000 0.000000 0.000000
# 4 0.000000 0.000000 0.000000 0.034364 0.000000 0.000000
# 5 0.000000 0.000000 0.000000 0.000000 0.034366 0.000000
# 6 0.000000 0.000000 0.000000 0.000000 0.000000 0.084456
#
#
# Mechanical properties :
#
#
# Convention : Reuss Voigt Hill
#
# Bulk Modulus (GPa) = 25.67253 36.52877 31.10065
# Shear Modulus (GPa) = 2.79891 20.21690 11.50791
#
# Velocity S-wave (km/s) = 1.55978 4.19205 3.16277
# Velocity P-wave (km/s) = 5.05563 7.42854 6.35384
#
# Compressibility (1/GPa) = 0.03895214
#
# Stress axis : x y z
#
# Youngs Moduli (GPa) = 2.44307 2.44314 91.19997
#
# Poissons Ratio (x) = 0.93793 0.52064
# Poissons Ratio (y) = 0.93791 0.52058
# Poissons Ratio (z) = 0.01395 0.01395
#
# Static dielectric constant tensor:
#      x y z
#    x 2.197710 0.000000 0.000000 
#    y 0.000000 2.197700 0.000000 
#    z 0.000000 0.000000 2.721220 
# 
# 
# High freq. dielectric constant tensor:
#      x y z
#    x 1.391230 0.000000 0.000000 
#    y 0.000000 1.391230 0.000000 
#    z 0.000000 0.000000 1.462890 
# 
# From -- ./inp_files/3313.got.cif
#   From: 2010.06.25/outbox.cif.g09.slc.cpg/sg140_2_cif.got.tgz:3313.got - 2010.06.28 10:53:23.
