data_PCOD8320253
_publ_section_title
;
Structure prediction by ZEFSAII (Michael W. Deem and Ramdas Pophale) SiO2 
 PCOD8320253
Probable space group: I 4/M C M
;
_chemical_formula_sum "Si O2"
_cell_formula_units_Z 240
_cell_length_a 19.499162
_cell_length_b 19.499162
_cell_length_c 33.467249
_cell_angle_alpha 90.000000
_cell_angle_beta 90.000000
_cell_angle_gamma 90.000000
_cell_volume 12724.827679
_symmetry_space_group_name_H-M "I 4/M C M"
_symmetry_group_IT_number 140
_symmetry_cell_setting 'tetragonal'
loop_
_space_group_symop_operation_xyz
x,y,z
-y,x,z
-x,-y,z
y,-x,z
x,-y,1/2-z
-x,y,1/2-z
y,x,1/2-z
-y,-x,1/2-z
-x,-y,-z
y,-x,-z
x,y,-z
-y,x,-z
-x,y,1/2+z
x,-y,1/2+z
-y,-x,1/2+z
y,x,1/2+z
1/2+x,1/2+y,1/2+z
1/2-y,1/2+x,1/2+z
1/2-x,1/2-y,1/2+z
1/2+y,1/2-x,1/2+z
1/2+x,1/2-y,-z
1/2-x,1/2+y,-z
1/2+y,1/2+x,-z
1/2-y,1/2-x,-z
1/2-x,1/2-y,1/2-z
1/2+y,1/2-x,1/2-z
1/2+x,1/2+y,1/2-z
1/2-y,1/2+x,1/2-z
1/2-x,1/2+y,z
1/2+x,1/2-y,z
1/2-y,1/2-x,z
1/2+y,1/2+x,z
loop_
_atom_site_type_symbol
_atom_site_label
_atom_site_fract_x
_atom_site_fract_y
_atom_site_fract_z
Si Si1 0.201316 0.871466 0.412226
Si Si2 0.623749 0.765553 0.589001
Si Si3 0.090360 0.065334 0.956689
Si Si4 0.424055 0.690694 0.251611
Si Si5 0.206152 0.519076 0.047130
Si Si6 0.445397 0.945397 0.547508
Si Si7 0.866334 0.260160 0.320561
Si Si8 0.853751 0.753566 0.675205
O O1 0.182251 0.791908 0.422408
O O2 0.128288 0.907685 0.417575
O O3 0.252123 0.911294 0.442481
O O4 0.231486 0.883984 0.368486
O O5 0.661202 0.838799 0.582105
O O6 0.552182 0.762526 0.564771
O O7 0.601887 0.754727 0.635189
O O8 0.015280 0.094401 0.954187
O O9 0.122129 0.087960 0.000000
O O10 0.500000 0.659640 0.250000
O O11 0.372937 0.627064 0.250000
O O12 0.420401 0.741866 0.213640
O O13 0.412102 0.736055 0.291465
O O14 0.129294 0.531856 0.063468
O O15 0.207428 0.509204 0.000000
O O16 0.444308 0.944308 0.500000
O O17 0.500000 0.000000 0.564171
O O18 0.836527 0.336527 0.313538
O O19 0.804551 0.207476 0.315368
O O20 0.824083 0.675918 0.676625
#
# Coordination Sequence:
#
# PCOD8320253 Si02
#       8
#    32  32  32  32  32  16  32  32
#     4  11  21  33  56  83 119 144 185 241 297 344
#     4  10  22  39  60  85 115 149 190 243 300 346
#     4   9  18  34  53  73 105 154 205 243 283 346
#     4  10  20  34  55  81 114 148 183 213 261 327
#     4  11  24  38  57  84 114 153 195 240 298 351
#     4   9  20  40  60  76 104 148 199 237 275 349
#     4   8  16  34  58  81 105 139 184 230 275 328
#     4   9  19  35  55  79 108 143 179 226 280 331
#
# _framework density 18.860766999999999
#
# number of rings (size 3 to 8) (size 9 to 14) (size 15 to 20)
#    0.000    2.333    0.000    3.600    3.733    4.667 
#    2.400    0.000    0.000    0.000    0.000    0.000 
#    0.000    1.067    0.000    0.000    0.000    0.000 
#
# Total GULP energy -1486632.025708 kJ/mol
# GULP energy per Si atom -12388.600214 kJ/mol
# Density = 1.881784 g / cm^3
# Si number density = 18.860767 Si / 1000 Ang^3
#
#
#
# Elastic Constant Matrix: (Units=GPa)
#
#
# Indices 1 2 3 4 5 6 
#
# 1 67.6825 39.7063 45.4200 0.0000 0.0000 0.0000
# 2 39.7063 67.6827 45.4200 0.0000 0.0000 0.0000
# 3 45.4200 45.4200 99.8820 0.0000 0.0000 0.0000
# 4 0.0000 0.0000 0.0000 24.5401 0.0000 0.0000
# 5 0.0000 0.0000 0.0000 0.0000 24.5400 0.0000
# 6 0.0000 0.0000 0.0000 0.0000 0.0000 26.2575
#
#
#
# Elastic Compliance Matrix: (Units=1/GPa)
#
#
# Indices 1 2 3 4 5 6 
#
# 1 0.025439 -0.010306 -0.006882 0.000000 0.000000 0.000000
# 2 -0.010306 0.025439 -0.006882 0.000000 0.000000 0.000000
# 3 -0.006882 -0.006882 0.016270 0.000000 0.000000 0.000000
# 4 0.000000 0.000000 0.000000 0.040750 0.000000 0.000000
# 5 0.000000 0.000000 0.000000 0.000000 0.040750 0.000000
# 6 0.000000 0.000000 0.000000 0.000000 0.000000 0.038084
#
#
# Mechanical properties :
#
#
# Convention : Reuss Voigt Hill
#
# Bulk Modulus (GPa) = 52.60312 55.14887 53.87599
# Shear Modulus (GPa) = 20.72917 22.04759 21.38838
#
# Velocity S-wave (km/s) = 3.31881 3.42272 3.37117
# Velocity P-wave (km/s) = 6.52968 6.70250 6.61666
#
# Compressibility (1/GPa) = 0.01901028
#
# Stress axis : x y z
#
# Youngs Moduli (GPa) = 39.31004 39.31019 61.46140
#
# Poissons Ratio (x) = 0.40512 0.42295
# Poissons Ratio (y) = 0.40512 0.42295
# Poissons Ratio (z) = 0.27051 0.27051
#
# Static dielectric constant tensor:
#      x y z
#    x 3.457330 0.000000 0.000000 
#    y 0.000000 3.457330 0.000000 
#    z 0.000000 0.000000 3.557500 
# 
# 
# High freq. dielectric constant tensor:
#      x y z
#    x 1.723100 0.000000 0.000000 
#    y 0.000000 1.723100 0.000000 
#    z 0.000000 0.000000 1.727420 
# 
# From -- ./inp_files/11790.got.cif
#   From: 2010.06.25/outbox.cif.g09.slc.cpg/sg140_6_cif.got.tgz:11790.got - 2010.06.28 10:53:23.
