data_PCOD8320743
_publ_section_title
;
Structure prediction by ZEFSAII (Michael W. Deem and Ramdas Pophale) SiO2 
 PCOD8320743
Probable space group: I 41/A M D
;
_chemical_formula_sum "Si O2"
_cell_formula_units_Z 128
_cell_length_a 22.572403
_cell_length_b 22.572403
_cell_length_c 12.570789
_cell_angle_alpha 90.000000
_cell_angle_beta 90.000000
_cell_angle_gamma 90.000000
_cell_volume 6404.985157
_symmetry_space_group_name_H-M "I 41/A M D"
_symmetry_group_IT_number 141
_space_group.IT_coordinate_system_code '2'
_symmetry_cell_setting 'tetragonal'
loop_
_space_group_symop_operation_xyz
x,y,z
1/4-y,3/4+x,1/4+z
-x,1/2-y,z
1/4+y,1/4-x,3/4+z
x,-y,-z
-x,1/2+y,-z
1/4+y,3/4+x,1/4-z
1/4-y,1/4-x,3/4-z
-x,-y,-z
3/4+y,1/4-x,3/4-z
x,1/2+y,-z
3/4-y,3/4+x,1/4-z
-x,y,z
x,1/2-y,z
3/4-y,1/4-x,3/4+z
3/4+y,3/4+x,1/4+z
1/2+x,1/2+y,1/2+z
3/4-y,1/4+x,3/4+z
1/2-x,-y,1/2+z
3/4+y,3/4-x,1/4+z
1/2+x,1/2-y,1/2-z
1/2-x,y,1/2-z
3/4+y,1/4+x,3/4-z
3/4-y,3/4-x,1/4-z
1/2-x,1/2-y,1/2-z
1/4+y,3/4-x,1/4-z
1/2+x,y,1/2-z
1/4-y,1/4+x,3/4-z
1/2-x,1/2+y,1/2+z
1/2+x,-y,1/2+z
1/4-y,3/4-x,1/4+z
1/4+y,1/4+x,3/4+z
loop_
_atom_site_type_symbol
_atom_site_label
_atom_site_fract_x
_atom_site_fract_y
_atom_site_fract_z
Si Si1 0.155503 0.682723 0.410812
Si Si2 0.245894 0.653932 0.584459
Si Si3 0.318381 0.914621 0.255563
Si Si4 0.066062 0.408957 0.510317
O O1 0.138410 0.750000 0.381849
O O2 0.215369 0.683716 0.481718
O O3 0.165389 0.646395 0.303006
O O4 0.100407 0.652494 0.472103
O O5 0.275786 0.592466 0.550257
O O6 0.195538 0.645637 0.674145
O O7 0.300684 0.691842 0.633294
O O8 0.342423 0.907578 0.375000
O O9 0.250000 0.925739 0.250000
O O10 0.000000 0.394997 0.466695
#
# Coordination Sequence:
#
# PCOD8320743 Si02
#       4
#    32  32  32  32
#     4  11  23  39  61  89 123 163 208 253 307 368
#     4  10  20  38  60  89 122 160 201 250 309 374
#     4  11  23  42  60  91 123 160 209 257 321 378
#     4  10  21  38  61  90 124 163 207 250 304 365
#
# _framework density 19.984432999999999
#
# number of rings (size 3 to 8) (size 9 to 14) (size 15 to 20)
#    0.000    1.500    2.500    3.750    0.000    3.000 
#    0.000    1.250    0.000    3.000    0.000    0.000 
#    0.000    0.000    0.000    0.000    0.000    0.000 
#
# Total GULP energy -793230.708201 kJ/mol
# GULP energy per Si atom -12394.229816 kJ/mol
# Density = 1.993895 g / cm^3
# Si number density = 19.984433 Si / 1000 Ang^3
#
#
#
# Elastic Constant Matrix: (Units=GPa)
#
#
# Indices 1 2 3 4 5 6 
#
# 1 133.8370 81.5419 53.5394 0.0000 0.0000 0.0000
# 2 81.5419 133.8375 53.5397 0.0000 0.0000 0.0000
# 3 53.5394 53.5397 124.5588 0.0000 0.0000 0.0000
# 4 0.0000 0.0000 0.0000 21.8722 0.0000 0.0000
# 5 0.0000 0.0000 0.0000 0.0000 21.8719 0.0000
# 6 0.0000 0.0000 0.0000 0.0000 0.0000 11.2685
#
#
#
# Elastic Compliance Matrix: (Units=1/GPa)
#
#
# Indices 1 2 3 4 5 6 
#
# 1 0.012513 -0.006609 -0.002538 0.000000 0.000000 0.000000
# 2 -0.006609 0.012513 -0.002538 0.000000 0.000000 0.000000
# 3 -0.002538 -0.002538 0.010210 0.000000 0.000000 0.000000
# 4 0.000000 0.000000 0.000000 0.045720 0.000000 0.000000
# 5 0.000000 0.000000 0.000000 0.000000 0.045721 0.000000
# 6 0.000000 0.000000 0.000000 0.000000 0.000000 0.088743
#
#
# Mechanical properties :
#
#
# Convention : Reuss Voigt Hill
#
# Bulk Modulus (GPa) = 84.26349 85.49724 84.88037
# Shear Modulus (GPa) = 20.59759 24.57668 22.58713
#
# Velocity S-wave (km/s) = 3.21391 3.51064 3.36555
# Velocity P-wave (km/s) = 7.48521 7.70114 7.59394
#
# Compressibility (1/GPa) = 0.01186754
#
# Stress axis : x y z
#
# Youngs Moduli (GPa) = 79.91370 79.91386 97.94083
#
# Poissons Ratio (x) = 0.52812 0.24858
# Poissons Ratio (y) = 0.52812 0.24858
# Poissons Ratio (z) = 0.20283 0.20283
#
# Static dielectric constant tensor:
#      x y z
#    x 3.531730 0.000000 0.000000 
#    y 0.000000 3.531730 0.000000 
#    z 0.000000 0.000000 4.003300 
# 
# 
# High freq. dielectric constant tensor:
#      x y z
#    x 1.770730 0.000000 0.000000 
#    y 0.000000 1.770730 0.000000 
#    z 0.000000 0.000000 1.781820 
# 
# From -- ./inp_files/4585.got.cif
#   From: 2010.03.12/outbox.cif.g09.slc.cpg/sg141_3_cif.got.tgz:4585.got - 2010.04.03 13:18:35.
