data_PCOD8320255
_publ_section_title
;
Structure prediction by ZEFSAII (Michael W. Deem and Ramdas Pophale) SiO2 
 PCOD8320255
Probable space group: I 4/M C M
;
_chemical_formula_sum "Si O2"
_cell_formula_units_Z 240
_cell_length_a 22.078815
_cell_length_b 22.078815
_cell_length_c 25.584890
_cell_angle_alpha 90.000000
_cell_angle_beta 90.000000
_cell_angle_gamma 90.000000
_cell_volume 12471.970505
_symmetry_space_group_name_H-M "I 4/M C M"
_symmetry_group_IT_number 140
_symmetry_cell_setting 'tetragonal'
loop_
_space_group_symop_operation_xyz
x,y,z
-y,x,z
-x,-y,z
y,-x,z
x,-y,1/2-z
-x,y,1/2-z
y,x,1/2-z
-y,-x,1/2-z
-x,-y,-z
y,-x,-z
x,y,-z
-y,x,-z
-x,y,1/2+z
x,-y,1/2+z
-y,-x,1/2+z
y,x,1/2+z
1/2+x,1/2+y,1/2+z
1/2-y,1/2+x,1/2+z
1/2-x,1/2-y,1/2+z
1/2+y,1/2-x,1/2+z
1/2+x,1/2-y,-z
1/2-x,1/2+y,-z
1/2+y,1/2+x,-z
1/2-y,1/2-x,-z
1/2-x,1/2-y,1/2-z
1/2+y,1/2-x,1/2-z
1/2+x,1/2+y,1/2-z
1/2-y,1/2+x,1/2-z
1/2-x,1/2+y,z
1/2+x,1/2-y,z
1/2-y,1/2-x,z
1/2+y,1/2+x,z
loop_
_atom_site_type_symbol
_atom_site_label
_atom_site_fract_x
_atom_site_fract_y
_atom_site_fract_z
Si Si1 0.619948 0.217328 0.172618
Si Si2 0.401333 0.488894 0.309461
Si Si3 0.566087 0.326128 0.599373
Si Si4 0.686754 0.283553 0.354002
Si Si5 0.494599 0.788273 0.625185
Si Si6 0.002972 0.597643 0.557751
Si Si7 0.603834 0.800072 0.790308
Si Si8 0.040988 0.908220 0.000000
O O1 0.658703 0.158703 0.156307
O O2 0.661317 0.276692 0.171120
O O3 0.565291 0.225433 0.132405
O O4 0.591258 0.209026 0.229504
O O5 0.447970 0.434408 0.320777
O O6 0.377679 0.500000 0.250000
O O7 0.347283 0.471191 0.348430
O O8 0.637915 0.312584 0.605960
O O9 0.533777 0.262498 0.587014
O O10 0.558567 0.372148 0.551977
O O11 0.733649 0.233649 0.379733
O O12 0.650342 0.252207 0.307393
O O13 0.484742 0.851435 0.597693
O O14 0.459294 0.793053 0.679964
O O15 0.014600 0.624907 0.500000
O O16 0.948071 0.551930 0.554986
O O17 0.063366 0.563366 0.577436
O O18 0.634293 0.865708 0.801024
O O19 0.969757 0.920893 0.000000
#
# Coordination Sequence:
#
# PCOD8320255 Si02
#       8
#    32  32  32  32  32  32  32  16
#     4  10  20  34  55  81 117 159 189 229 282 341
#     4   9  19  37  59  87 121 153 193 252 311 351
#     4  11  24  38  61  90 115 160 199 246 293 363
#     4   9  20  38  57  80 114 157 199 241 284 338
#     4  11  22  33  54  86 120 145 188 241 289 342
#     4   9  19  38  63  85 106 141 190 245 305 358
#     4   9  18  35  54  78 114 154 196 230 276 339
#     4  11  26  46  67  86 116 157 203 250 300 362
#
# _framework density 19.24315
#
# number of rings (size 3 to 8) (size 9 to 14) (size 15 to 20)
#    0.000    2.200    0.000    3.200    4.667    5.333 
#    4.800    0.333    0.000    0.000    0.000    5.600 
#    0.000    0.000    0.000    0.000    0.000    0.000 
#
# Total GULP energy -1487286.408527 kJ/mol
# GULP energy per Si atom -12394.053404 kJ/mol
# Density = 1.919935 g / cm^3
# Si number density = 19.243150 Si / 1000 Ang^3
#
#
#
# Elastic Constant Matrix: (Units=GPa)
#
#
# Indices 1 2 3 4 5 6 
#
# 1 98.4038 40.7072 37.1032 0.0000 0.0000 0.0000
# 2 40.7072 98.4038 37.1032 0.0000 0.0000 0.0000
# 3 37.1032 37.1032 68.5572 0.0000 0.0000 0.0000
# 4 0.0000 0.0000 0.0000 22.4721 0.0000 0.0000
# 5 0.0000 0.0000 0.0000 0.0000 22.4721 0.0000
# 6 0.0000 0.0000 0.0000 0.0000 0.0000 27.8775
#
#
#
# Elastic Compliance Matrix: (Units=1/GPa)
#
#
# Indices 1 2 3 4 5 6 
#
# 1 0.013719 -0.003613 -0.005469 0.000000 0.000000 0.000000
# 2 -0.003613 0.013719 -0.005469 0.000000 0.000000 0.000000
# 3 -0.005469 -0.005469 0.020506 0.000000 0.000000 0.000000
# 4 0.000000 0.000000 0.000000 0.044500 0.000000 0.000000
# 5 0.000000 0.000000 0.000000 0.000000 0.044500 0.000000
# 6 0.000000 0.000000 0.000000 0.000000 0.000000 0.035871
#
#
# Mechanical properties :
#
#
# Convention : Reuss Voigt Hill
#
# Bulk Modulus (GPa) = 53.07585 55.02131 54.04858
# Shear Modulus (GPa) = 24.01550 24.59443 24.30496
#
# Velocity S-wave (km/s) = 3.53654 3.57891 3.55779
# Velocity P-wave (km/s) = 6.65716 6.76261 6.71009
#
# Compressibility (1/GPa) = 0.01884096
#
# Stress axis : x y z
#
# Youngs Moduli (GPa) = 72.89139 72.89139 48.76513
#
# Poissons Ratio (x) = 0.26336 0.26672
# Poissons Ratio (y) = 0.26336 0.26672
# Poissons Ratio (z) = 0.39867 0.39867
#
# Static dielectric constant tensor:
#      x y z
#    x 3.613140 0.000000 0.000000 
#    y 0.000000 3.613140 0.000000 
#    z 0.000000 0.000000 3.550470 
# 
# 
# High freq. dielectric constant tensor:
#      x y z
#    x 1.757720 0.000000 0.000000 
#    y 0.000000 1.757720 0.000000 
#    z 0.000000 0.000000 1.721250 
# 
# From -- ./inp_files/10958.got.cif
#   From: 2010.06.25/outbox.cif.g09.slc.cpg/sg140_6_cif.got.tgz:10958.got - 2010.06.28 10:53:23.
