data_PCOD8320721
_publ_section_title
;
Structure prediction by ZEFSAII (Michael W. Deem and Ramdas Pophale) SiO2 
 PCOD8320721
Probable space group: I 41/A M D
;
_chemical_formula_sum "Si O2"
_cell_formula_units_Z 176
_cell_length_a 28.665381
_cell_length_b 28.665381
_cell_length_c 11.021704
_cell_angle_alpha 90.000000
_cell_angle_beta 90.000000
_cell_angle_gamma 90.000000
_cell_volume 9056.579012
_symmetry_space_group_name_H-M "I 41/A M D"
_symmetry_group_IT_number 141
_space_group.IT_coordinate_system_code '2'
_symmetry_cell_setting 'tetragonal'
loop_
_space_group_symop_operation_xyz
x,y,z
1/4-y,3/4+x,1/4+z
-x,1/2-y,z
1/4+y,1/4-x,3/4+z
x,-y,-z
-x,1/2+y,-z
1/4+y,3/4+x,1/4-z
1/4-y,1/4-x,3/4-z
-x,-y,-z
3/4+y,1/4-x,3/4-z
x,1/2+y,-z
3/4-y,3/4+x,1/4-z
-x,y,z
x,1/2-y,z
3/4-y,1/4-x,3/4+z
3/4+y,3/4+x,1/4+z
1/2+x,1/2+y,1/2+z
3/4-y,1/4+x,3/4+z
1/2-x,-y,1/2+z
3/4+y,3/4-x,1/4+z
1/2+x,1/2-y,1/2-z
1/2-x,y,1/2-z
3/4+y,1/4+x,3/4-z
3/4-y,3/4-x,1/4-z
1/2-x,1/2-y,1/2-z
1/4+y,3/4-x,1/4-z
1/2+x,y,1/2-z
1/4-y,1/4+x,3/4-z
1/2-x,1/2+y,1/2+z
1/2+x,-y,1/2+z
1/4-y,3/4-x,1/4+z
1/4+y,1/4+x,3/4+z
loop_
_atom_site_type_symbol
_atom_site_label
_atom_site_fract_x
_atom_site_fract_y
_atom_site_fract_z
Si Si1 0.728798 0.803473 0.981649
Si Si2 0.329323 0.804086 0.461977
Si Si3 0.133304 0.949462 0.558478
Si Si4 0.947246 0.697246 0.625000
Si Si5 0.114991 0.341871 0.170696
Si Si6 0.834217 0.697091 0.303832
O O1 0.721548 0.750000 0.934111
O O2 0.700046 0.839068 0.898810
O O3 0.782157 0.820554 0.971451
O O4 0.714780 0.806570 0.124013
O O5 0.323470 0.750000 0.435917
O O6 0.373464 0.813426 0.547851
O O7 0.333317 0.828027 0.328431
O O8 0.180139 0.930139 0.625000
O O9 0.118634 0.911917 0.458280
O O10 0.144412 0.000000 0.500000
O O11 0.941214 0.750000 0.573293
O O12 0.907488 0.691319 0.727629
O O13 0.075843 0.378936 0.142184
O O14 0.850307 0.750000 0.287776
#
# Coordination Sequence:
#
# PCOD8320721 Si02
#       6
#    32  32  32  16  32  32
#     4  10  20  36  60  91 120 151 191 250 313 367
#     4  10  21  35  56  87 120 154 195 248 303 360
#     4  12  24  42  65  88 121 159 204 261 311 371
#     4  11  24  40  60  90 130 172 210 250 302 372
#     4  12  21  37  60  88 120 160 205 250 298 361
#     4  10  20  36  58  86 120 157 198 244 302 363
#
# _framework density 19.433385999999999
#
# number of rings (size 3 to 8) (size 9 to 14) (size 15 to 20)
#    0.000    1.182    4.545    2.182    0.000    5.455 
#    0.000    0.000    4.000    0.000    0.000    7.636 
#    0.000    0.000    0.000    0.000    0.000    0.000 
#
# Total GULP energy -1090779.408896 kJ/mol
# GULP energy per Si atom -12395.220556 kJ/mol
# Density = 1.938916 g / cm^3
# Si number density = 19.433386 Si / 1000 Ang^3
#
#
#
# Elastic Constant Matrix: (Units=GPa)
#
#
# Indices 1 2 3 4 5 6 
#
# 1 89.5938 38.1173 37.2389 0.0000 0.0000 0.0000
# 2 38.1173 89.5938 37.2389 0.0000 0.0000 0.0000
# 3 37.2389 37.2389 100.2495 0.0000 0.0000 0.0000
# 4 0.0000 0.0000 0.0000 31.1302 0.0000 0.0000
# 5 0.0000 0.0000 0.0000 0.0000 31.1302 0.0000
# 6 0.0000 0.0000 0.0000 0.0000 0.0000 25.4450
#
#
#
# Elastic Compliance Matrix: (Units=1/GPa)
#
#
# Indices 1 2 3 4 5 6 
#
# 1 0.014711 -0.004715 -0.003713 0.000000 0.000000 0.000000
# 2 -0.004715 0.014711 -0.003713 0.000000 0.000000 0.000000
# 3 -0.003713 -0.003713 0.012734 0.000000 0.000000 0.000000
# 4 0.000000 0.000000 0.000000 0.032123 0.000000 0.000000
# 5 0.000000 0.000000 0.000000 0.000000 0.032123 0.000000
# 6 0.000000 0.000000 0.000000 0.000000 0.000000 0.039300
#
#
# Mechanical properties :
#
#
# Convention : Reuss Voigt Hill
#
# Bulk Modulus (GPa) = 55.95121 56.06972 56.01046
# Shear Modulus (GPa) = 28.41842 28.66389 28.54116
#
# Velocity S-wave (km/s) = 3.82822 3.84472 3.83648
# Velocity P-wave (km/s) = 6.95659 6.97309 6.96485
#
# Compressibility (1/GPa) = 0.01787272
#
# Stress axis : x y z
#
# Youngs Moduli (GPa) = 67.97678 67.97678 78.53277
#
# Poissons Ratio (x) = 0.32054 0.29159
# Poissons Ratio (y) = 0.32054 0.29159
# Poissons Ratio (z) = 0.25239 0.25239
#
# Static dielectric constant tensor:
#      x y z
#    x 3.505170 0.000000 0.000000 
#    y 0.000000 3.505170 0.000000 
#    z 0.000000 0.000000 3.668930 
# 
# 
# High freq. dielectric constant tensor:
#      x y z
#    x 1.747020 0.000000 0.000000 
#    y 0.000000 1.747020 0.000000 
#    z 0.000000 0.000000 1.766070 
# 
# From -- ./inp_files/5032.got.cif
#   From: 2010.03.12/outbox.cif.g09.slc.cpg/sg141_3_cif.got.tgz:5032.got - 2010.04.03 13:18:35.
