data_PCOD8320840
_publ_section_title
;
Structure prediction by ZEFSAII (Michael W. Deem and Ramdas Pophale) SiO2 
 PCOD8320840
Probable space group: I 41/A M D
;
_chemical_formula_sum "Si O2"
_cell_formula_units_Z 160
_cell_length_a 17.143048
_cell_length_b 17.143048
_cell_length_c 24.822729
_cell_angle_alpha 90.000000
_cell_angle_beta 90.000000
_cell_angle_gamma 90.000000
_cell_volume 7295.005241
_symmetry_space_group_name_H-M "I 41/A M D"
_symmetry_group_IT_number 141
_space_group.IT_coordinate_system_code '2'
_symmetry_cell_setting 'tetragonal'
loop_
_space_group_symop_operation_xyz
x,y,z
1/4-y,3/4+x,1/4+z
-x,1/2-y,z
1/4+y,1/4-x,3/4+z
x,-y,-z
-x,1/2+y,-z
1/4+y,3/4+x,1/4-z
1/4-y,1/4-x,3/4-z
-x,-y,-z
3/4+y,1/4-x,3/4-z
x,1/2+y,-z
3/4-y,3/4+x,1/4-z
-x,y,z
x,1/2-y,z
3/4-y,1/4-x,3/4+z
3/4+y,3/4+x,1/4+z
1/2+x,1/2+y,1/2+z
3/4-y,1/4+x,3/4+z
1/2-x,-y,1/2+z
3/4+y,3/4-x,1/4+z
1/2+x,1/2-y,1/2-z
1/2-x,y,1/2-z
3/4+y,1/4+x,3/4-z
3/4-y,3/4-x,1/4-z
1/2-x,1/2-y,1/2-z
1/4+y,3/4-x,1/4-z
1/2+x,y,1/2-z
1/4-y,1/4+x,3/4-z
1/2-x,1/2+y,1/2+z
1/2+x,-y,1/2+z
1/4-y,3/4-x,1/4+z
1/4+y,1/4+x,3/4+z
loop_
_atom_site_type_symbol
_atom_site_label
_atom_site_fract_x
_atom_site_fract_y
_atom_site_fract_z
Si Si1 0.661459 0.024826 0.332420
Si Si2 0.830208 0.587937 0.566498
Si Si3 0.589386 0.438245 0.762067
Si Si4 0.589629 0.460613 0.442879
Si Si5 0.912970 0.339506 0.526406
O O1 0.749789 0.047651 0.317792
O O2 0.647037 0.003266 0.395895
O O3 0.607510 0.101259 0.323488
O O4 0.633815 0.953955 0.294535
O O5 0.861900 0.611900 0.625000
O O6 0.762033 0.647712 0.550644
O O7 0.898926 0.601019 0.523475
O O8 0.500000 0.423581 0.749065
O O9 0.621284 0.362748 0.794212
O O10 0.606062 0.500000 0.500000
O O11 0.500000 0.468083 0.424317
O O12 0.902399 0.250000 0.507567
O O13 0.000000 0.354252 0.548566
#
# Coordination Sequence:
#
# PCOD8320840 Si02
#       5
#    32  32  32  32  32
#     4  11  22  41  65  89 122 164 210 262 313 369
#     4  11  21  37  61  92 121 162 216 264 301 361
#     4  11  23  39  62  91 126 164 203 255 318 375
#     4  11  24  42  66  95 124 160 210 264 322 384
#     4  10  22  39  59  88 131 174 209 251 310 375
#
# _framework density 21.932814
#
# number of rings (size 3 to 8) (size 9 to 14) (size 15 to 20)
#    0.000    1.200    2.000    7.200    0.000    4.400 
#    0.000    1.000    0.000    0.000    0.000    2.800 
#    0.000    0.000    0.000    0.000    0.000    0.000 
#
# Total GULP energy -991623.172418 kJ/mol
# GULP energy per Si atom -12395.289655 kJ/mol
# Density = 2.188289 g / cm^3
# Si number density = 21.932814 Si / 1000 Ang^3
#
#
#
# Elastic Constant Matrix: (Units=GPa)
#
#
# Indices 1 2 3 4 5 6 
#
# 1 50.5949 -29.0324 -3.0162 0.0000 0.0000 0.0000
# 2 -29.0324 50.5949 -3.0162 0.0000 0.0000 0.0000
# 3 -3.0162 -3.0162 116.5919 0.0000 0.0000 0.0000
# 4 0.0000 0.0000 0.0000 28.9147 0.0000 0.0000
# 5 0.0000 0.0000 0.0000 0.0000 28.9147 0.0000
# 6 0.0000 0.0000 0.0000 0.0000 0.0000 27.5939
#
#
#
# Elastic Compliance Matrix: (Units=1/GPa)
#
#
# Indices 1 2 3 4 5 6 
#
# 1 0.029637 0.017078 0.001209 0.000000 0.000000 0.000000
# 2 0.017078 0.029637 0.001209 0.000000 0.000000 0.000000
# 3 0.001209 0.001209 0.008639 0.000000 0.000000 0.000000
# 4 0.000000 0.000000 0.000000 0.034585 0.000000 0.000000
# 5 0.000000 0.000000 0.000000 0.000000 0.034585 0.000000
# 6 0.000000 0.000000 0.000000 0.000000 0.000000 0.036240
#
#
# Mechanical properties :
#
#
# Convention : Reuss Voigt Hill
#
# Bulk Modulus (GPa) = 9.35426 16.40578 12.88002
# Shear Modulus (GPa) = 29.41769 33.94108 31.67939
#
# Velocity S-wave (km/s) = 3.66630 3.93810 3.80463
# Velocity P-wave (km/s) = 4.71132 5.30796 5.01851
#
# Compressibility (1/GPa) = 0.10690321
#
# Stress axis : x y z
#
# Youngs Moduli (GPa) = 33.74197 33.74197 115.74802
#
# Poissons Ratio (x) = -0.57625 -0.13988
# Poissons Ratio (y) = -0.57625 -0.13988
# Poissons Ratio (z) = -0.04078 -0.04078
#
# Static dielectric constant tensor:
#      x y z
#    x 4.023140 0.000000 0.000000 
#    y 0.000000 4.023140 0.000000 
#    z 0.000000 0.000000 4.266660 
# 
# 
# High freq. dielectric constant tensor:
#      x y z
#    x 1.855500 0.000000 0.000000 
#    y 0.000000 1.855500 0.000000 
#    z 0.000000 0.000000 1.872060 
# 
# From -- ./inp_files/12760.got.cif
#   From: 2010.03.12/outbox.cif.g09.slc.cpg/sg141_7_cif.got.tgz:12760.got - 2010.04.03 13:18:35.
