data_PCOD8320589
_publ_section_title
;
Structure prediction by ZEFSAII (Michael W. Deem and Ramdas Pophale) SiO2 
 PCOD8320589
Probable space group: I 41/A M D
;
_chemical_formula_sum "Si O2"
_cell_formula_units_Z 176
_cell_length_a 27.102560
_cell_length_b 27.102560
_cell_length_c 12.491188
_cell_angle_alpha 90.000000
_cell_angle_beta 90.000000
_cell_angle_gamma 90.000000
_cell_volume 9175.386638
_symmetry_space_group_name_H-M "I 41/A M D"
_symmetry_group_IT_number 141
_space_group.IT_coordinate_system_code '2'
_symmetry_cell_setting 'tetragonal'
loop_
_space_group_symop_operation_xyz
x,y,z
1/4-y,3/4+x,1/4+z
-x,1/2-y,z
1/4+y,1/4-x,3/4+z
x,-y,-z
-x,1/2+y,-z
1/4+y,3/4+x,1/4-z
1/4-y,1/4-x,3/4-z
-x,-y,-z
3/4+y,1/4-x,3/4-z
x,1/2+y,-z
3/4-y,3/4+x,1/4-z
-x,y,z
x,1/2-y,z
3/4-y,1/4-x,3/4+z
3/4+y,3/4+x,1/4+z
1/2+x,1/2+y,1/2+z
3/4-y,1/4+x,3/4+z
1/2-x,-y,1/2+z
3/4+y,3/4-x,1/4+z
1/2+x,1/2-y,1/2-z
1/2-x,y,1/2-z
3/4+y,1/4+x,3/4-z
3/4-y,3/4-x,1/4-z
1/2-x,1/2-y,1/2-z
1/4+y,3/4-x,1/4-z
1/2+x,y,1/2-z
1/4-y,1/4+x,3/4-z
1/2-x,1/2+y,1/2+z
1/2+x,-y,1/2+z
1/4-y,3/4-x,1/4+z
1/4+y,1/4+x,3/4+z
loop_
_atom_site_type_symbol
_atom_site_label
_atom_site_fract_x
_atom_site_fract_y
_atom_site_fract_z
Si Si1 0.711831 0.307411 0.030961
Si Si2 0.101057 0.634458 0.811765
Si Si3 0.557615 0.640125 0.463664
Si Si4 0.556870 0.193131 0.125000
Si Si5 0.301107 0.113154 0.204459
Si Si6 0.058384 0.531684 0.097260
O O1 0.715208 0.250000 0.059100
O O2 0.710279 0.336173 0.142393
O O3 0.663030 0.317297 0.961216
O O4 0.758850 0.325597 0.960812
O O5 0.088461 0.677463 0.727724
O O6 0.159273 0.622698 0.798925
O O7 0.089299 0.652922 0.930893
O O8 0.568291 0.681710 0.375000
O O9 0.500000 0.640267 0.493166
O O10 0.575517 0.588057 0.414172
O O11 0.567472 0.250000 0.100736
O O12 0.322105 0.072105 0.125000
O O13 0.250000 0.092146 0.250000
O O14 0.000000 0.527625 0.090984
O O15 0.081746 0.500000 0.000000
#
# Coordination Sequence:
#
# PCOD8320589 Si02
#       6
#    32  32  32  16  32  32
#     4  10  18  34  61  89 118 147 187 250 316 355
#     4  11  21  38  61  88 117 160 201 251 301 365
#     4  11  24  39  57  84 123 166 210 248 290 356
#     4  11  22  36  58  88 120 158 204 246 294 368
#     4  10  23  40  63  88 123 155 190 247 311 368
#     4   9  17  32  57  85 111 147 194 249 299 341
#
# _framework density 19.181754000000002
#
# number of rings (size 3 to 8) (size 9 to 14) (size 15 to 20)
#    0.000    1.727    4.545    1.636    2.545    1.273 
#    0.000    0.000    8.000    0.000    0.000    0.000 
#    0.000    0.000    0.000    0.000    0.000    0.000 
#
# Total GULP energy -1091342.642801 kJ/mol
# GULP energy per Si atom -12401.620941 kJ/mol
# Density = 1.913810 g / cm^3
# Si number density = 19.181754 Si / 1000 Ang^3
#
#
#
# Elastic Constant Matrix: (Units=GPa)
#
#
# Indices 1 2 3 4 5 6 
#
# 1 87.7140 33.7781 42.7433 0.0000 0.0000 0.0000
# 2 33.7781 87.7119 42.7411 0.0000 0.0000 0.0000
# 3 42.7433 42.7411 120.2311 0.0000 0.0000 0.0000
# 4 0.0000 0.0000 0.0000 27.9458 0.0000 0.0000
# 5 0.0000 0.0000 0.0000 0.0000 27.9468 0.0000
# 6 0.0000 0.0000 0.0000 0.0000 0.0000 17.0484
#
#
#
# Elastic Compliance Matrix: (Units=1/GPa)
#
#
# Indices 1 2 3 4 5 6 
#
# 1 0.014759 -0.003782 -0.003902 0.000000 0.000000 0.000000
# 2 -0.003782 0.014759 -0.003902 0.000000 0.000000 0.000000
# 3 -0.003902 -0.003902 0.011092 0.000000 0.000000 0.000000
# 4 0.000000 0.000000 0.000000 0.035783 0.000000 0.000000
# 5 0.000000 0.000000 0.000000 0.000000 0.035782 0.000000
# 6 0.000000 0.000000 0.000000 0.000000 0.000000 0.058656
#
#
# Mechanical properties :
#
#
# Convention : Reuss Voigt Hill
#
# Bulk Modulus (GPa) = 57.35132 59.35356 58.35244
# Shear Modulus (GPa) = 25.02292 26.34786 25.68539
#
# Velocity S-wave (km/s) = 3.61573 3.71022 3.66328
# Velocity P-wave (km/s) = 6.88441 7.02596 6.95555
#
# Compressibility (1/GPa) = 0.01743639
#
# Stress axis : x y z
#
# Youngs Moduli (GPa) = 67.75626 67.75575 90.15653
#
# Poissons Ratio (x) = 0.25626 0.35183
# Poissons Ratio (y) = 0.25626 0.35180
# Poissons Ratio (z) = 0.26441 0.26439
#
# Static dielectric constant tensor:
#      x y z
#    x 3.433430 0.000000 0.000000 
#    y 0.000000 3.433400 0.000000 
#    z 0.000000 0.000000 3.547960 
# 
# 
# High freq. dielectric constant tensor:
#      x y z
#    x 1.733840 0.000000 0.000000 
#    y 0.000000 1.733840 0.000000 
#    z 0.000000 0.000000 1.746530 
# 
# From -- ./inp_files/5005.got.cif
#   From: 2010.03.12/outbox.cif.g09.slc.cpg/sg141_3_cif.got.tgz:5005.got - 2010.04.03 13:18:35.
