data_PCOD8320352
_publ_section_title
;
Structure prediction by ZEFSAII (Michael W. Deem and Ramdas Pophale) SiO2 
 PCOD8320352
Probable space group: I 4/M C M
;
_chemical_formula_sum "Si O2"
_cell_formula_units_Z 112
_cell_length_a 16.464591
_cell_length_b 16.464591
_cell_length_c 21.141059
_cell_angle_alpha 90.000000
_cell_angle_beta 90.000000
_cell_angle_gamma 90.000000
_cell_volume 5730.976555
_symmetry_space_group_name_H-M "I 4/M C M"
_symmetry_group_IT_number 140
_symmetry_cell_setting 'tetragonal'
loop_
_space_group_symop_operation_xyz
x,y,z
-y,x,z
-x,-y,z
y,-x,z
x,-y,1/2-z
-x,y,1/2-z
y,x,1/2-z
-y,-x,1/2-z
-x,-y,-z
y,-x,-z
x,y,-z
-y,x,-z
-x,y,1/2+z
x,-y,1/2+z
-y,-x,1/2+z
y,x,1/2+z
1/2+x,1/2+y,1/2+z
1/2-y,1/2+x,1/2+z
1/2-x,1/2-y,1/2+z
1/2+y,1/2-x,1/2+z
1/2+x,1/2-y,-z
1/2-x,1/2+y,-z
1/2+y,1/2+x,-z
1/2-y,1/2-x,-z
1/2-x,1/2-y,1/2-z
1/2+y,1/2-x,1/2-z
1/2+x,1/2+y,1/2-z
1/2-y,1/2+x,1/2-z
1/2-x,1/2+y,z
1/2+x,1/2-y,z
1/2-y,1/2-x,z
1/2+y,1/2+x,z
loop_
_atom_site_type_symbol
_atom_site_label
_atom_site_fract_x
_atom_site_fract_y
_atom_site_fract_z
Si Si1 0.432183 0.067818 0.427100
Si Si2 0.456174 0.623541 0.073055
Si Si3 0.746406 0.624812 0.272296
Si Si4 0.530385 0.225700 0.151205
O O1 0.410905 0.089096 0.500000
O O2 0.469118 0.146358 0.392390
O O3 0.500000 0.000000 0.423636
O O4 0.398302 0.548850 0.090065
O O5 0.427956 0.700889 0.112980
O O6 0.448755 0.646307 0.000000
O O7 0.656734 0.656734 0.250000
O O8 0.798380 0.701621 0.295961
O O9 0.791440 0.583459 0.213012
O O10 0.745116 0.560449 0.329557
#
# Coordination Sequence:
#
# PCOD8320352 Si02
#       4
#    16  32  32  32
#     4  11  24  40  57  80 112 152 199 245 283 328
#     4   9  18  33  55  83 112 143 181 228 283 342
#     4  10  21  36  54  81 112 143 182 232 284 333
#     4  11  20  36  57  81 108 151 187 231 279 346
#
# _framework density 19.542916999999999
#
# number of rings (size 3 to 8) (size 9 to 14) (size 15 to 20)
#    0.000    1.857    1.429    4.286    0.000    0.000 
#    0.000    0.000    0.000    6.857    0.000    0.000 
#    0.000    0.000    0.000    0.000    0.000    0.000 
#
# Total GULP energy -694267.697194 kJ/mol
# GULP energy per Si atom -12397.637450 kJ/mol
# Density = 1.949844 g / cm^3
# Si number density = 19.542917 Si / 1000 Ang^3
#
#
#
# Elastic Constant Matrix: (Units=GPa)
#
#
# Indices 1 2 3 4 5 6 
#
# 1 78.4994 1.3386 28.5720 0.0000 0.0000 0.0000
# 2 1.3386 78.4992 28.5720 0.0000 0.0000 0.0000
# 3 28.5720 28.5720 85.7787 0.0000 0.0000 0.0000
# 4 0.0000 0.0000 0.0000 25.9374 0.0000 0.0000
# 5 0.0000 0.0000 0.0000 0.0000 25.9373 0.0000
# 6 0.0000 0.0000 0.0000 0.0000 0.0000 28.7772
#
#
#
# Elastic Compliance Matrix: (Units=1/GPa)
#
#
# Indices 1 2 3 4 5 6 
#
# 1 0.014703 0.001743 -0.005478 0.000000 0.000000 0.000000
# 2 0.001743 0.014703 -0.005478 0.000000 0.000000 0.000000
# 3 -0.005478 -0.005478 0.015307 0.000000 0.000000 0.000000
# 4 0.000000 0.000000 0.000000 0.038554 0.000000 0.000000
# 5 0.000000 0.000000 0.000000 0.000000 0.038555 0.000000
# 6 0.000000 0.000000 0.000000 0.000000 0.000000 0.034750
#
#
# Mechanical properties :
#
#
# Convention : Reuss Voigt Hill
#
# Bulk Modulus (GPa) = 38.04079 39.97137 39.00608
# Shear Modulus (GPa) = 27.20928 28.41669 27.81299
#
# Velocity S-wave (km/s) = 3.73538 3.81736 3.77659
# Velocity P-wave (km/s) = 6.17346 6.31879 6.24655
#
# Compressibility (1/GPa) = 0.02628757
#
# Stress axis : x y z
#
# Youngs Moduli (GPa) = 68.01269 68.01256 65.32833
#
# Poissons Ratio (x) = -0.11856 0.35788
# Poissons Ratio (y) = -0.11856 0.35788
# Poissons Ratio (z) = 0.37258 0.37258
#
# Static dielectric constant tensor:
#      x y z
#    x 3.435340 0.000000 0.000000 
#    y 0.000000 3.435340 0.000000 
#    z 0.000000 0.000000 3.531300 
# 
# 
# High freq. dielectric constant tensor:
#      x y z
#    x 1.757340 0.000000 0.000000 
#    y 0.000000 1.757340 0.000000 
#    z 0.000000 0.000000 1.762140 
# 
# From -- ./inp_files/6073.got.cif
#   From: 2010.06.25/outbox.cif.g09.slc.cpg/sg140_4_cif.got.tgz:6073.got - 2010.06.28 10:53:23.
