data_PCOD8320003
_publ_section_title
;
Structure prediction by ZEFSAII (Michael W. Deem and Ramdas Pophale) SiO2 
 PCOD8320003
Probable space group: I 4/M M M
;
_chemical_formula_sum "Si O2"
_cell_formula_units_Z 176
_cell_length_a 27.698304
_cell_length_b 27.698304
_cell_length_c 14.502211
_cell_angle_alpha 90.000000
_cell_angle_beta 90.000000
_cell_angle_gamma 90.000000
_cell_volume 11126.038915
_symmetry_space_group_name_H-M "I 4/M M M"
_symmetry_group_IT_number 139
_symmetry_cell_setting 'tetragonal'
loop_
_space_group_symop_operation_xyz
x,y,z
-y,x,z
-x,-y,z
y,-x,z
x,-y,-z
-x,y,-z
y,x,-z
-y,-x,-z
-x,-y,-z
y,-x,-z
x,y,-z
-y,x,-z
-x,y,z
x,-y,z
-y,-x,z
y,x,z
1/2+x,1/2+y,1/2+z
1/2-y,1/2+x,1/2+z
1/2-x,1/2-y,1/2+z
1/2+y,1/2-x,1/2+z
1/2+x,1/2-y,1/2-z
1/2-x,1/2+y,1/2-z
1/2+y,1/2+x,1/2-z
1/2-y,1/2-x,1/2-z
1/2-x,1/2-y,1/2-z
1/2+y,1/2-x,1/2-z
1/2+x,1/2+y,1/2-z
1/2-y,1/2+x,1/2-z
1/2-x,1/2+y,1/2+z
1/2+x,1/2-y,1/2+z
1/2-y,1/2-x,1/2+z
1/2+y,1/2+x,1/2+z
loop_
_atom_site_type_symbol
_atom_site_label
_atom_site_fract_x
_atom_site_fract_y
_atom_site_fract_z
Si Si1 0.054490 0.054490 0.607109
Si Si2 0.554490 0.554490 0.392891
Si Si3 0.788592 0.443316 0.897517
Si Si4 0.211408 0.443316 0.397517
Si Si5 0.790733 0.943074 0.250000
Si Si6 0.942753 0.365124 0.750000
Si Si7 0.888469 0.111532 0.250000
O O1 0.062203 0.062203 0.500000
O O2 0.089971 0.089971 0.657318
O O3 0.000000 0.066889 0.635979
O O4 0.500000 0.566889 0.364022
O O5 0.562203 0.562203 0.500000
O O6 0.589971 0.589971 0.342682
O O7 0.792894 0.500000 0.907860
O O8 0.739929 0.431417 0.841590
O O9 0.835267 0.425683 0.840289
O O10 0.787183 0.419382 0.000000
O O11 0.212817 0.419382 0.500000
O O12 0.207106 0.500000 0.407860
O O13 0.260071 0.431417 0.341590
O O14 0.164733 0.425683 0.340289
O O15 0.832547 0.902874 0.250000
O O16 0.807538 0.000000 0.250000
O O17 0.916701 0.416701 0.750000
O O18 0.000000 0.374089 0.750000
#
# Coordination Sequence:
#
# PCOD8320003 Si02
#       7
#    16  16  32  32  32  32  16
#     4   9  18  30  40  52  76 113 150 175 205 268
#     4   9  18  30  40  52  76 113 150 175 205 268
#     4   8  15  30  48  62  83 118 156 191 220 249
#     4   8  15  30  48  62  83 118 156 191 220 249
#     4   9  18  29  42  63  86 112 149 188 231 281
#     4   9  17  28  45  73 103 128 153 174 199 242
#     4  12  20  27  42  64  87 108 136 188 250 292
#
# _framework density 15.818747
#
# number of rings (size 3 to 8) (size 9 to 14) (size 15 to 20)
#    0.000    3.091    0.000    4.364    0.000    3.091 
#    0.000    3.636    0.000    0.000    0.000   15.273 
#    0.000   11.636    0.000    0.000    0.000    0.000 
#
# Total GULP energy -1090383.438609 kJ/mol
# GULP energy per Si atom -12390.720893 kJ/mol
# Density = 1.578274 g / cm^3
# Si number density = 15.818747 Si / 1000 Ang^3
#
#
#
# Elastic Constant Matrix: (Units=GPa)
#
#
# Indices 1 2 3 4 5 6 
#
# 1 73.5689 46.1921 39.0485 0.0000 0.0000 0.0000
# 2 46.1921 73.5689 39.0485 0.0000 0.0000 0.0000
# 3 39.0485 39.0485 132.0711 0.0000 0.0000 0.0000
# 4 0.0000 0.0000 0.0000 12.4958 0.0000 0.0000
# 5 0.0000 0.0000 0.0000 0.0000 12.4958 0.0000
# 6 0.0000 0.0000 0.0000 0.0000 0.0000 21.6919
#
#
#
# Elastic Compliance Matrix: (Units=1/GPa)
#
#
# Indices 1 2 3 4 5 6 
#
# 1 0.023436 -0.013091 -0.003058 0.000000 0.000000 0.000000
# 2 -0.013091 0.023436 -0.003058 0.000000 0.000000 0.000000
# 3 -0.003058 -0.003058 0.009380 0.000000 0.000000 0.000000
# 4 0.000000 0.000000 0.000000 0.080027 0.000000 0.000000
# 5 0.000000 0.000000 0.000000 0.000000 0.080027 0.000000
# 6 0.000000 0.000000 0.000000 0.000000 0.000000 0.046100
#
#
# Mechanical properties :
#
#
# Convention : Reuss Voigt Hill
#
# Bulk Modulus (GPa) = 56.06887 58.64302 57.35595
# Shear Modulus (GPa) = 16.29900 19.66470 17.98185
#
# Velocity S-wave (km/s) = 3.21340 3.52962 3.37522
# Velocity P-wave (km/s) = 7.02065 7.33235 7.17819
#
# Compressibility (1/GPa) = 0.01783521
#
# Stress axis : x y z
#
# Youngs Moduli (GPa) = 42.66973 42.66973 106.60730
#
# Poissons Ratio (x) = 0.55861 0.32605
# Poissons Ratio (y) = 0.55861 0.32605
# Poissons Ratio (z) = 0.13050 0.13050
#
# Static dielectric constant tensor:
#      x y z
#    x 2.725770 0.000000 0.000000 
#    y 0.000000 2.725770 0.000000 
#    z 0.000000 0.000000 3.701420 
# 
# 
# High freq. dielectric constant tensor:
#      x y z
#    x 1.574690 0.000000 0.000000 
#    y 0.000000 1.574690 0.000000 
#    z 0.000000 0.000000 1.626810 
# 
# From -- ./inp_files/6455.got.cif
#   From: 2010.03.12/outbox.cif.g09.slc.cpg/sg139_4_cif.got.tgz:6455.got - 2010.04.08 09:46:31.
