data_PCOD8320556
_publ_section_title
;
Structure prediction by ZEFSAII (Michael W. Deem and Ramdas Pophale) SiO2 
 PCOD8320556
Probable space group: I 41/A M D
;
_chemical_formula_sum "Si O2"
_cell_formula_units_Z 224
_cell_length_a 24.233596
_cell_length_b 24.233596
_cell_length_c 25.142060
_cell_angle_alpha 90.000000
_cell_angle_beta 90.000000
_cell_angle_gamma 90.000000
_cell_volume 14765.106552
_symmetry_space_group_name_H-M "I 41/A M D"
_symmetry_group_IT_number 141
_space_group.IT_coordinate_system_code '2'
_symmetry_cell_setting 'tetragonal'
loop_
_space_group_symop_operation_xyz
x,y,z
1/4-y,3/4+x,1/4+z
-x,1/2-y,z
1/4+y,1/4-x,3/4+z
x,-y,-z
-x,1/2+y,-z
1/4+y,3/4+x,1/4-z
1/4-y,1/4-x,3/4-z
-x,-y,-z
3/4+y,1/4-x,3/4-z
x,1/2+y,-z
3/4-y,3/4+x,1/4-z
-x,y,z
x,1/2-y,z
3/4-y,1/4-x,3/4+z
3/4+y,3/4+x,1/4+z
1/2+x,1/2+y,1/2+z
3/4-y,1/4+x,3/4+z
1/2-x,-y,1/2+z
3/4+y,3/4-x,1/4+z
1/2+x,1/2-y,1/2-z
1/2-x,y,1/2-z
3/4+y,1/4+x,3/4-z
3/4-y,3/4-x,1/4-z
1/2-x,1/2-y,1/2-z
1/4+y,3/4-x,1/4-z
1/2+x,y,1/2-z
1/4-y,1/4+x,3/4-z
1/2-x,1/2+y,1/2+z
1/2+x,-y,1/2+z
1/4-y,3/4-x,1/4+z
1/4+y,1/4+x,3/4+z
loop_
_atom_site_type_symbol
_atom_site_label
_atom_site_fract_x
_atom_site_fract_y
_atom_site_fract_z
Si Si1 0.934625 0.187909 0.315389
Si Si2 0.368346 0.187093 0.583007
Si Si3 0.565861 0.388560 0.278039
Si Si4 0.065366 0.006834 0.162312
Si Si5 0.912134 0.686422 0.269483
Si Si6 0.063276 0.310525 0.132463
Si Si7 0.213842 0.813531 0.296400
O O1 0.911131 0.250000 0.303122
O O2 0.918836 0.168836 0.375000
O O3 0.910593 0.140469 0.275626
O O4 0.000000 0.191272 0.309949
O O5 0.397985 0.147985 0.625000
O O6 0.368759 0.250000 0.604795
O O7 0.305525 0.166077 0.574901
O O8 0.399409 0.185253 0.527456
O O9 0.500000 0.384593 0.276093
O O10 0.585743 0.451560 0.290063
O O11 0.590749 0.353446 0.327317
O O12 0.000000 0.012071 0.160254
O O13 0.090195 0.025507 0.104746
O O14 0.928983 0.750000 0.258386
O O15 0.939047 0.661569 0.323255
O O16 0.847528 0.679438 0.276154
O O17 0.068948 0.250000 0.158009
O O18 0.000000 0.328725 0.124641
O O19 0.231620 0.750000 0.301152
O O20 0.250000 0.842510 0.250000
#
# Coordination Sequence:
#
# PCOD8320556 Si02
#       7
#    32  32  32  32  32  32  32
#     4   8  13  20  32  56  91 124 146 163 190 238
#     4  11  22  32  41  55  80 112 143 176 216 261
#     4   9  14  23  38  55  80 114 145 171 203 241
#     4   9  17  29  41  56  77 106 145 180 212 251
#     4  10  18  28  40  57  80 107 141 175 208 252
#     4   9  15  22  35  56  80 107 139 169 198 240
#     4   9  15  25  41  56  72  99 137 178 214 247
#
# _framework density 15.170902
#
# number of rings (size 3 to 8) (size 9 to 14) (size 15 to 20)
#    0.000    2.714    1.429    2.571    0.000    5.571 
#    0.000    0.000    0.000    0.000    0.000    0.000 
#    0.000    6.857    0.000   10.714    0.000    2.857 
#
# Total GULP energy -1387467.646872 kJ/mol
# GULP energy per Si atom -12388.103990 kJ/mol
# Density = 1.513637 g / cm^3
# Si number density = 15.170902 Si / 1000 Ang^3
#
#
#
# Elastic Constant Matrix: (Units=GPa)
#
#
# Indices 1 2 3 4 5 6 
#
# 1 60.2818 19.8763 35.7554 0.0000 0.0000 0.0000
# 2 19.8763 60.2818 35.7554 0.0000 0.0000 0.0000
# 3 35.7554 35.7554 106.6229 0.0000 0.0000 0.0000
# 4 0.0000 0.0000 0.0000 1.4199 0.0000 0.0000
# 5 0.0000 0.0000 0.0000 0.0000 1.4199 0.0000
# 6 0.0000 0.0000 0.0000 0.0000 0.0000 3.4137
#
#
#
# Elastic Compliance Matrix: (Units=1/GPa)
#
#
# Indices 1 2 3 4 5 6 
#
# 1 0.021275 -0.003474 -0.005969 0.000000 0.000000 0.000000
# 2 -0.003474 0.021275 -0.005969 0.000000 0.000000 0.000000
# 3 -0.005969 -0.005969 0.013382 0.000000 0.000000 0.000000
# 4 0.000000 0.000000 0.000000 0.704272 0.000000 0.000000
# 5 0.000000 0.000000 0.000000 0.000000 0.704272 0.000000
# 6 0.000000 0.000000 0.000000 0.000000 0.000000 0.292934
#
#
# Mechanical properties :
#
#
# Convention : Reuss Voigt Hill
#
# Bulk Modulus (GPa) = 39.83043 45.55119 42.69081
# Shear Modulus (GPa) = 2.78303 10.30399 6.54351
#
# Velocity S-wave (km/s) = 1.35589 2.60896 2.07908
# Velocity P-wave (km/s) = 5.36309 6.25829 5.82790
#
# Compressibility (1/GPa) = 0.02510643
#
# Stress axis : x y z
#
# Youngs Moduli (GPa) = 47.00361 47.00361 74.72463
#
# Poissons Ratio (x) = 0.16330 0.44606
# Poissons Ratio (y) = 0.16330 0.44606
# Poissons Ratio (z) = 0.28058 0.28058
#
# Static dielectric constant tensor:
#      x y z
#    x 2.692790 0.000000 0.000000 
#    y 0.000000 2.692790 0.000000 
#    z 0.000000 0.000000 3.219570 
# 
# 
# High freq. dielectric constant tensor:
#      x y z
#    x 1.535970 0.000000 0.000000 
#    y 0.000000 1.535970 0.000000 
#    z 0.000000 0.000000 1.594150 
# 
# From -- ./inp_files/11886.got.cif
#   From: 2010.03.12/outbox.cif.g09.slc.cpg/sg141_6_cif.got.tgz:11886.got - 2010.04.03 13:18:35.
