data_PCOD8320520
_publ_section_title
;
Structure prediction by ZEFSAII (Michael W. Deem and Ramdas Pophale) SiO2 
 PCOD8320520
Probable space group: I 4/M C M
;
_chemical_formula_sum "Si O2"
_cell_formula_units_Z 160
_cell_length_a 22.075446
_cell_length_b 22.075446
_cell_length_c 18.291580
_cell_angle_alpha 90.000000
_cell_angle_beta 90.000000
_cell_angle_gamma 90.000000
_cell_volume 8913.950005
_symmetry_space_group_name_H-M "I 4/M C M"
_symmetry_group_IT_number 140
_symmetry_cell_setting 'tetragonal'
loop_
_space_group_symop_operation_xyz
x,y,z
-y,x,z
-x,-y,z
y,-x,z
x,-y,1/2-z
-x,y,1/2-z
y,x,1/2-z
-y,-x,1/2-z
-x,-y,-z
y,-x,-z
x,y,-z
-y,x,-z
-x,y,1/2+z
x,-y,1/2+z
-y,-x,1/2+z
y,x,1/2+z
1/2+x,1/2+y,1/2+z
1/2-y,1/2+x,1/2+z
1/2-x,1/2-y,1/2+z
1/2+y,1/2-x,1/2+z
1/2+x,1/2-y,-z
1/2-x,1/2+y,-z
1/2+y,1/2+x,-z
1/2-y,1/2-x,-z
1/2-x,1/2-y,1/2-z
1/2+y,1/2-x,1/2-z
1/2+x,1/2+y,1/2-z
1/2-y,1/2+x,1/2-z
1/2-x,1/2+y,z
1/2+x,1/2-y,z
1/2-y,1/2-x,z
1/2+y,1/2+x,z
loop_
_atom_site_type_symbol
_atom_site_label
_atom_site_fract_x
_atom_site_fract_y
_atom_site_fract_z
Si Si1 0.837912 0.435221 0.083591
Si Si2 0.066583 0.156463 0.718695
Si Si3 0.459004 0.863971 0.184684
Si Si4 0.780826 0.623348 0.719310
Si Si5 0.591846 0.462853 0.082129
O O1 0.904375 0.404375 0.086461
O O2 0.841096 0.503211 0.114965
O O3 0.793356 0.397540 0.136090
O O4 0.813400 0.436389 0.000000
O O5 0.093796 0.093796 0.750000
O O6 0.116107 0.209259 0.732910
O O7 0.058599 0.147143 0.632168
O O8 0.000000 0.171667 0.750000
O O9 0.500000 0.890677 0.250000
O O10 0.416679 0.916679 0.154015
O O11 0.420008 0.810281 0.220068
O O12 0.808172 0.691829 0.729320
O O13 0.577250 0.532741 0.097829
O O14 0.614394 0.453615 0.000000
#
# Coordination Sequence:
#
# PCOD8320520 Si02
#       5
#    32  32  32  32  32
#     4   9  17  29  46  70  99 129 169 224 277 322
#     4  12  22  33  56  86 113 137 175 229 273 320
#     4   9  16  28  45  64  94 133 172 215 267 325
#     4   9  20  37  52  69 100 145 188 219 257 308
#     4   9  18  34  53  77 115 150 168 198 264 341
#
# _framework density 17.949394999999999
#
# number of rings (size 3 to 8) (size 9 to 14) (size 15 to 20)
#    0.000    2.400    2.000    4.200    0.000    3.200 
#    0.000    1.000    0.000    0.000    0.000    0.000 
#    0.000    0.000    0.000    0.000    0.000    0.000 
#
# Total GULP energy -991362.339540 kJ/mol
# GULP energy per Si atom -12392.029244 kJ/mol
# Density = 1.790854 g / cm^3
# Si number density = 17.949395 Si / 1000 Ang^3
#
#
#
# Elastic Constant Matrix: (Units=GPa)
#
#
# Indices 1 2 3 4 5 6 
#
# 1 75.0035 28.8761 23.0033 0.0000 0.0000 0.0000
# 2 28.8761 75.0035 23.0033 0.0000 0.0000 0.0000
# 3 23.0033 23.0033 88.0178 0.0000 0.0000 0.0000
# 4 0.0000 0.0000 0.0000 18.3735 0.0000 0.0000
# 5 0.0000 0.0000 0.0000 0.0000 18.3735 0.0000
# 6 0.0000 0.0000 0.0000 0.0000 0.0000 23.6729
#
#
#
# Elastic Compliance Matrix: (Units=1/GPa)
#
#
# Indices 1 2 3 4 5 6 
#
# 1 0.016283 -0.005396 -0.002845 0.000000 0.000000 0.000000
# 2 -0.005396 0.016283 -0.002845 0.000000 0.000000 0.000000
# 3 -0.002845 -0.002845 0.012849 0.000000 0.000000 0.000000
# 4 0.000000 0.000000 0.000000 0.054426 0.000000 0.000000
# 5 0.000000 0.000000 0.000000 0.000000 0.054426 0.000000
# 6 0.000000 0.000000 0.000000 0.000000 0.000000 0.042242
#
#
# Mechanical properties :
#
#
# Convention : Reuss Voigt Hill
#
# Bulk Modulus (GPa) = 43.02750 43.08781 43.05765
# Shear Modulus (GPa) = 22.08196 22.96013 22.52104
#
# Velocity S-wave (km/s) = 3.51127 3.58041 3.54601
# Velocity P-wave (km/s) = 6.36100 6.41481 6.38796
#
# Compressibility (1/GPa) = 0.02324095
#
# Stress axis : x y z
#
# Youngs Moduli (GPa) = 61.41436 61.41436 77.83005
#
# Poissons Ratio (x) = 0.33141 0.22144
# Poissons Ratio (y) = 0.33141 0.22144
# Poissons Ratio (z) = 0.17474 0.17474
#
# Static dielectric constant tensor:
#      x y z
#    x 3.125480 0.000000 0.000000 
#    y 0.000000 3.125480 0.000000 
#    z 0.000000 0.000000 3.291190 
# 
# 
# High freq. dielectric constant tensor:
#      x y z
#    x 1.676930 0.000000 0.000000 
#    y 0.000000 1.676930 0.000000 
#    z 0.000000 0.000000 1.691320 
# 
# From -- ./inp_files/6873.got.cif
#   From: 2010.06.25/outbox.cif.g09.slc.cpg/sg140_4_cif.got.tgz:6873.got - 2010.06.28 10:53:23.
