data_PCOD8320678
_publ_section_title
;
Structure prediction by ZEFSAII (Michael W. Deem and Ramdas Pophale) SiO2 
 PCOD8320678
Probable space group: I 41/A M D
;
_chemical_formula_sum "Si O2"
_cell_formula_units_Z 160
_cell_length_a 25.761773
_cell_length_b 25.761773
_cell_length_c 12.817375
_cell_angle_alpha 90.000000
_cell_angle_beta 90.000000
_cell_angle_gamma 90.000000
_cell_volume 8506.493784
_symmetry_space_group_name_H-M "I 41/A M D"
_symmetry_group_IT_number 141
_space_group.IT_coordinate_system_code '2'
_symmetry_cell_setting 'tetragonal'
loop_
_space_group_symop_operation_xyz
x,y,z
1/4-y,3/4+x,1/4+z
-x,1/2-y,z
1/4+y,1/4-x,3/4+z
x,-y,-z
-x,1/2+y,-z
1/4+y,3/4+x,1/4-z
1/4-y,1/4-x,3/4-z
-x,-y,-z
3/4+y,1/4-x,3/4-z
x,1/2+y,-z
3/4-y,3/4+x,1/4-z
-x,y,z
x,1/2-y,z
3/4-y,1/4-x,3/4+z
3/4+y,3/4+x,1/4+z
1/2+x,1/2+y,1/2+z
3/4-y,1/4+x,3/4+z
1/2-x,-y,1/2+z
3/4+y,3/4-x,1/4+z
1/2+x,1/2-y,1/2-z
1/2-x,y,1/2-z
3/4+y,1/4+x,3/4-z
3/4-y,3/4-x,1/4-z
1/2-x,1/2-y,1/2-z
1/4+y,3/4-x,1/4-z
1/2+x,y,1/2-z
1/4-y,1/4+x,3/4-z
1/2-x,1/2+y,1/2+z
1/2+x,-y,1/2+z
1/4-y,3/4-x,1/4+z
1/4+y,1/4+x,3/4+z
loop_
_atom_site_type_symbol
_atom_site_label
_atom_site_fract_x
_atom_site_fract_y
_atom_site_fract_z
Si Si1 0.278696 0.604600 0.141955
Si Si2 0.146559 0.308004 0.581673
Si Si3 0.676407 0.657884 0.863186
Si Si4 0.863468 0.690573 0.855166
Si Si5 0.282291 0.119123 0.435384
O O1 0.250000 0.598640 0.250000
O O2 0.309896 0.658669 0.141231
O O3 0.319125 0.557115 0.127336
O O4 0.236399 0.603026 0.050316
O O5 0.146802 0.250000 0.627534
O O6 0.160461 0.305316 0.459119
O O7 0.089310 0.331729 0.599494
O O8 0.645726 0.604275 0.875000
O O9 0.664841 0.687664 0.756723
O O10 0.736474 0.642036 0.865148
O O11 0.873837 0.750000 0.886353
O O12 0.826505 0.663880 0.942087
#
# Coordination Sequence:
#
# PCOD8320678 Si02
#       5
#    32  32  32  32  32
#     4  10  21  37  55  77 102 133 172 211 254 304
#     4   9  19  35  53  75 102 132 171 216 260 308
#     4   9  18  32  50  76 108 138 168 203 247 302
#     4  10  20  33  51  76 105 137 173 212 253 302
#     4  10  21  34  51  77 107 135 170 207 247 302
#
# _framework density 18.809159999999999
#
# number of rings (size 3 to 8) (size 9 to 14) (size 15 to 20)
#    0.000    2.400    0.000    3.000    0.000    7.200 
#    0.000    2.000    0.000    3.600    0.000    0.000 
#    0.000    6.400    0.000    0.000    0.000    0.200 
#
# Total GULP energy -991935.669017 kJ/mol
# GULP energy per Si atom -12399.195863 kJ/mol
# Density = 1.876635 g / cm^3
# Si number density = 18.809160 Si / 1000 Ang^3
#
#
#
# Elastic Constant Matrix: (Units=GPa)
#
#
# Indices 1 2 3 4 5 6 
#
# 1 119.3203 50.5558 13.7467 0.0000 0.0000 0.0000
# 2 50.5558 119.3189 13.7474 0.0000 0.0000 0.0000
# 3 13.7467 13.7474 30.6276 0.0000 0.0000 0.0000
# 4 0.0000 0.0000 0.0000 16.7298 0.0000 0.0000
# 5 0.0000 0.0000 0.0000 0.0000 16.7284 0.0000
# 6 0.0000 0.0000 0.0000 0.0000 0.0000 13.5108
#
#
#
# Elastic Compliance Matrix: (Units=1/GPa)
#
#
# Indices 1 2 3 4 5 6 
#
# 1 0.010445 -0.004097 -0.002849 0.000000 0.000000 0.000000
# 2 -0.004097 0.010445 -0.002849 0.000000 0.000000 0.000000
# 3 -0.002849 -0.002849 0.035208 0.000000 0.000000 0.000000
# 4 0.000000 0.000000 0.000000 0.059774 0.000000 0.000000
# 5 0.000000 0.000000 0.000000 0.000000 0.059779 0.000000
# 6 0.000000 0.000000 0.000000 0.000000 0.000000 0.074015
#
#
# Mechanical properties :
#
#
# Convention : Reuss Voigt Hill
#
# Bulk Modulus (GPa) = 27.39212 47.26295 37.32753
# Shear Modulus (GPa) = 17.76668 22.14159 19.95414
#
# Velocity S-wave (km/s) = 3.07673 3.43471 3.26064
# Velocity P-wave (km/s) = 5.21694 6.39624 5.83645
#
# Compressibility (1/GPa) = 0.03650686
#
# Stress axis : x y z
#
# Youngs Moduli (GPa) = 95.73881 95.73714 28.40267
#
# Poissons Ratio (x) = 0.39227 0.08092
# Poissons Ratio (y) = 0.39228 0.08093
# Poissons Ratio (z) = 0.27276 0.27279
#
# Static dielectric constant tensor:
#      x y z
#    x 3.394480 0.000000 0.000000 
#    y 0.000000 3.394480 0.000000 
#    z 0.000000 0.000000 3.320850 
# 
# 
# High freq. dielectric constant tensor:
#      x y z
#    x 1.729160 0.000000 0.000000 
#    y 0.000000 1.729150 0.000000 
#    z 0.000000 0.000000 1.708620 
# 
# From -- ./inp_files/4838.got.cif
#   From: 2010.03.12/outbox.cif.g09.slc.cpg/sg141_3_cif.got.tgz:4838.got - 2010.04.03 13:18:35.
