data_PCOD8320199
_publ_section_title
;
Structure prediction by ZEFSAII (Michael W. Deem and Ramdas Pophale) SiO2 
 PCOD8320199
Probable space group: I 4/M C M
;
_chemical_formula_sum "Si O2"
_cell_formula_units_Z 112
_cell_length_a 17.802210
_cell_length_b 17.802210
_cell_length_c 17.388393
_cell_angle_alpha 90.000000
_cell_angle_beta 90.000000
_cell_angle_gamma 90.000000
_cell_volume 5510.706572
_symmetry_space_group_name_H-M "I 4/M C M"
_symmetry_group_IT_number 140
_symmetry_cell_setting 'tetragonal'
loop_
_space_group_symop_operation_xyz
x,y,z
-y,x,z
-x,-y,z
y,-x,z
x,-y,1/2-z
-x,y,1/2-z
y,x,1/2-z
-y,-x,1/2-z
-x,-y,-z
y,-x,-z
x,y,-z
-y,x,-z
-x,y,1/2+z
x,-y,1/2+z
-y,-x,1/2+z
y,x,1/2+z
1/2+x,1/2+y,1/2+z
1/2-y,1/2+x,1/2+z
1/2-x,1/2-y,1/2+z
1/2+y,1/2-x,1/2+z
1/2+x,1/2-y,-z
1/2-x,1/2+y,-z
1/2+y,1/2+x,-z
1/2-y,1/2-x,-z
1/2-x,1/2-y,1/2-z
1/2+y,1/2-x,1/2-z
1/2+x,1/2+y,1/2-z
1/2-y,1/2+x,1/2-z
1/2-x,1/2+y,z
1/2+x,1/2-y,z
1/2-y,1/2-x,z
1/2+y,1/2+x,z
loop_
_atom_site_type_symbol
_atom_site_label
_atom_site_fract_x
_atom_site_fract_y
_atom_site_fract_z
Si Si1 0.583845 0.916156 0.773559
Si Si2 0.427607 0.297971 0.911089
Si Si3 0.854709 0.645292 0.589720
Si Si4 0.094780 0.800711 0.409051
Si Si5 0.801981 0.301981 0.304674
O O1 0.500000 0.894227 0.750000
O O2 0.588612 0.911389 0.866569
O O3 0.644112 0.855889 0.744301
O O4 0.373747 0.230158 0.883187
O O5 0.510573 0.296605 0.873959
O O6 0.385725 0.376167 0.894285
O O7 0.443192 0.287065 0.000000
O O8 0.867304 0.632697 0.500000
O O9 0.101096 0.780776 0.500000
O O10 0.146042 0.745822 0.360601
O O11 0.750000 0.250000 0.250000
#
# Coordination Sequence:
#
# PCOD8320199 Si02
#       5
#    16  32  16  32  16
#     4  11  24  41  58  83 118 150 182 232 290 338
#     4   9  18  32  56  83 111 145 186 233 280 330
#     4  10  19  37  60  81 109 151 192 230 278 340
#     4  10  20  36  56  83 113 147 188 234 284 345
#     4  12  24  36  58  85 110 147 190 236 288 339
#
# _framework density 20.324072000000001
#
# number of rings (size 3 to 8) (size 9 to 14) (size 15 to 20)
#    0.000    1.857    0.000    4.714    0.000    2.857 
#    0.000    5.714    0.000    0.000    0.000    6.000 
#    0.000    0.000    0.000    0.000    0.000    0.000 
#
# Total GULP energy -694004.507293 kJ/mol
# GULP energy per Si atom -12392.937630 kJ/mol
# Density = 2.027781 g / cm^3
# Si number density = 20.324072 Si / 1000 Ang^3
#
#
#
# Elastic Constant Matrix: (Units=GPa)
#
#
# Indices 1 2 3 4 5 6 
#
# 1 162.1137 98.6532 46.1764 0.0000 0.0000 0.0000
# 2 98.6532 162.1138 46.1762 0.0000 0.0000 0.0000
# 3 46.1764 46.1762 63.4880 0.0000 0.0000 0.0000
# 4 0.0000 0.0000 0.0000 21.3832 0.0000 0.0000
# 5 0.0000 0.0000 0.0000 0.0000 21.3833 0.0000
# 6 0.0000 0.0000 0.0000 0.0000 0.0000 33.5419
#
#
#
# Elastic Compliance Matrix: (Units=1/GPa)
#
#
# Indices 1 2 3 4 5 6 
#
# 1 0.010462 -0.005296 -0.003757 0.000000 0.000000 0.000000
# 2 -0.005296 0.010462 -0.003757 0.000000 0.000000 0.000000
# 3 -0.003757 -0.003757 0.021216 0.000000 0.000000 0.000000
# 4 0.000000 0.000000 0.000000 0.046766 0.000000 0.000000
# 5 0.000000 0.000000 0.000000 0.000000 0.046765 0.000000
# 6 0.000000 0.000000 0.000000 0.000000 0.000000 0.029813
#
#
# Mechanical properties :
#
#
# Convention : Reuss Voigt Hill
#
# Bulk Modulus (GPa) = 60.53587 85.52523 73.03055
# Shear Modulus (GPa) = 25.43104 28.37566 26.90335
#
# Velocity S-wave (km/s) = 3.54118 3.74058 3.64224
# Velocity P-wave (km/s) = 6.82421 7.79923 7.32796
#
# Compressibility (1/GPa) = 0.01651913
#
# Stress axis : x y z
#
# Youngs Moduli (GPa) = 95.58750 95.58776 47.13429
#
# Poissons Ratio (x) = 0.50625 0.17708
# Poissons Ratio (y) = 0.50625 0.17708
# Poissons Ratio (z) = 0.35912 0.35911
#
# Static dielectric constant tensor:
#      x y z
#    x 3.900820 0.000000 0.000000 
#    y 0.000000 3.900820 0.000000 
#    z 0.000000 0.000000 3.713670 
# 
# 
# High freq. dielectric constant tensor:
#      x y z
#    x 1.799510 0.000000 0.000000 
#    y 0.000000 1.799510 0.000000 
#    z 0.000000 0.000000 1.782690 
# 
# From -- ./inp_files/6150.got.cif
#   From: 2010.06.25/outbox.cif.g09.slc.cpg/sg140_4_cif.got.tgz:6150.got - 2010.06.28 10:53:23.
