data_PCOD8320577
_publ_section_title
;
Structure prediction by ZEFSAII (Michael W. Deem and Ramdas Pophale) SiO2 
 PCOD8320577
Probable space group: I 41/A M D
;
_chemical_formula_sum "Si O2"
_cell_formula_units_Z 128
_cell_length_a 17.892136
_cell_length_b 17.892136
_cell_length_c 20.577452
_cell_angle_alpha 90.000000
_cell_angle_beta 90.000000
_cell_angle_gamma 90.000000
_cell_volume 6587.429473
_symmetry_space_group_name_H-M "I 41/A M D"
_symmetry_group_IT_number 141
_space_group.IT_coordinate_system_code '2'
_symmetry_cell_setting 'tetragonal'
loop_
_space_group_symop_operation_xyz
x,y,z
1/4-y,3/4+x,1/4+z
-x,1/2-y,z
1/4+y,1/4-x,3/4+z
x,-y,-z
-x,1/2+y,-z
1/4+y,3/4+x,1/4-z
1/4-y,1/4-x,3/4-z
-x,-y,-z
3/4+y,1/4-x,3/4-z
x,1/2+y,-z
3/4-y,3/4+x,1/4-z
-x,y,z
x,1/2-y,z
3/4-y,1/4-x,3/4+z
3/4+y,3/4+x,1/4+z
1/2+x,1/2+y,1/2+z
3/4-y,1/4+x,3/4+z
1/2-x,-y,1/2+z
3/4+y,3/4-x,1/4+z
1/2+x,1/2-y,1/2-z
1/2-x,y,1/2-z
3/4+y,1/4+x,3/4-z
3/4-y,3/4-x,1/4-z
1/2-x,1/2-y,1/2-z
1/4+y,3/4-x,1/4-z
1/2+x,y,1/2-z
1/4-y,1/4+x,3/4-z
1/2-x,1/2+y,1/2+z
1/2+x,-y,1/2+z
1/4-y,3/4-x,1/4+z
1/4+y,1/4+x,3/4+z
loop_
_atom_site_type_symbol
_atom_site_label
_atom_site_fract_x
_atom_site_fract_y
_atom_site_fract_z
Si Si1 0.500000 0.831654 0.633640
Si Si2 0.914338 0.598545 0.246978
Si Si3 0.660844 0.832579 0.651484
Si Si4 0.197753 0.990940 0.808211
Si Si5 0.337887 0.750000 0.245040
O O1 0.500000 0.750000 0.597043
O O2 0.574794 0.836518 0.676701
O O3 0.500000 0.896736 0.581416
O O4 0.905224 0.586450 0.324121
O O5 0.882876 0.526362 0.208296
O O6 0.872205 0.674347 0.223730
O O7 0.000000 0.605962 0.226711
O O8 0.694714 0.750000 0.669115
O O9 0.701407 0.900444 0.687964
O O10 0.226062 0.023939 0.875000
O O11 0.250000 0.018156 0.750000
O O12 0.250000 0.750000 0.250000
#
# Coordination Sequence:
#
# PCOD8320577 Si02
#       5
#    16  32  32  32  16
#     4   8  16  32  56  84 110 148 195 242 278 350
#     4  10  21  39  59  84 119 163 202 244 289 355
#     4   9  19  37  62  86 114 149 201 246 301 356
#     4  12  24  40  59  89 124 155 196 250 308 363
#     4  10  18  30  58  86 120 160 200 242 293 344
#
# _framework density 19.430948000000001
#
# number of rings (size 3 to 8) (size 9 to 14) (size 15 to 20)
#    0.000    2.000    2.500    3.375    5.250    0.500 
#    2.250    0.000    0.000    0.000    0.000    0.000 
#    0.000    0.000    0.000    0.000    0.000    0.000 
#
# Total GULP energy -793069.401213 kJ/mol
# GULP energy per Si atom -12391.709394 kJ/mol
# Density = 1.938672 g / cm^3
# Si number density = 19.430948 Si / 1000 Ang^3
#
#
#
# Elastic Constant Matrix: (Units=GPa)
#
#
# Indices 1 2 3 4 5 6 
#
# 1 131.8217 40.5659 30.6291 0.0000 0.0000 0.0000
# 2 40.5659 131.8209 30.6293 0.0000 0.0000 0.0000
# 3 30.6291 30.6293 59.6923 0.0000 0.0000 0.0000
# 4 0.0000 0.0000 0.0000 21.3032 0.0000 0.0000
# 5 0.0000 0.0000 0.0000 0.0000 21.3032 0.0000
# 6 0.0000 0.0000 0.0000 0.0000 0.0000 29.1375
#
#
#
# Elastic Compliance Matrix: (Units=1/GPa)
#
#
# Indices 1 2 3 4 5 6 
#
# 1 0.009026 -0.001932 -0.003640 0.000000 0.000000 0.000000
# 2 -0.001932 0.009026 -0.003640 0.000000 0.000000 0.000000
# 3 -0.003640 -0.003640 0.020488 0.000000 0.000000 0.000000
# 4 0.000000 0.000000 0.000000 0.046941 0.000000 0.000000
# 5 0.000000 0.000000 0.000000 0.000000 0.046941 0.000000
# 6 0.000000 0.000000 0.000000 0.000000 0.000000 0.034320
#
#
# Mechanical properties :
#
#
# Convention : Reuss Voigt Hill
#
# Bulk Modulus (GPa) = 49.71134 58.55374 54.13254
# Shear Modulus (GPa) = 26.05874 29.11614 27.58744
#
# Velocity S-wave (km/s) = 3.66607 3.87517 3.77207
# Velocity P-wave (km/s) = 6.59994 7.08677 6.84768
#
# Compressibility (1/GPa) = 0.02011613
#
# Stress axis : x y z
#
# Youngs Moduli (GPa) = 110.78688 110.78598 48.80808
#
# Poissons Ratio (x) = 0.21403 0.17768
# Poissons Ratio (y) = 0.21403 0.17768
# Poissons Ratio (z) = 0.40330 0.40330
#
# Static dielectric constant tensor:
#      x y z
#    x 3.754760 0.000000 0.000000 
#    y 0.000000 3.754760 0.000000 
#    z 0.000000 0.000000 3.159150 
# 
# 
# High freq. dielectric constant tensor:
#      x y z
#    x 1.763560 0.000000 0.000000 
#    y 0.000000 1.763560 0.000000 
#    z 0.000000 0.000000 1.708750 
# 
# From -- ./inp_files/11385.got.cif
#   From: 2010.03.12/outbox.cif.g09.slc.cpg/sg141_6_cif.got.tgz:11385.got - 2010.04.03 13:18:35.
