data_PCOD8320091
_publ_section_title
;
Structure prediction by ZEFSAII (Michael W. Deem and Ramdas Pophale) SiO2 
 PCOD8320091
Probable space group: I 4/M C M
;
_chemical_formula_sum "Si O2"
_cell_formula_units_Z 192
_cell_length_a 22.753899
_cell_length_b 22.753899
_cell_length_c 27.285555
_cell_angle_alpha 90.000000
_cell_angle_beta 90.000000
_cell_angle_gamma 90.000000
_cell_volume 14126.821055
_symmetry_space_group_name_H-M "I 4/M C M"
_symmetry_group_IT_number 140
_symmetry_cell_setting 'tetragonal'
loop_
_space_group_symop_operation_xyz
x,y,z
-y,x,z
-x,-y,z
y,-x,z
x,-y,1/2-z
-x,y,1/2-z
y,x,1/2-z
-y,-x,1/2-z
-x,-y,-z
y,-x,-z
x,y,-z
-y,x,-z
-x,y,1/2+z
x,-y,1/2+z
-y,-x,1/2+z
y,x,1/2+z
1/2+x,1/2+y,1/2+z
1/2-y,1/2+x,1/2+z
1/2-x,1/2-y,1/2+z
1/2+y,1/2-x,1/2+z
1/2+x,1/2-y,-z
1/2-x,1/2+y,-z
1/2+y,1/2+x,-z
1/2-y,1/2-x,-z
1/2-x,1/2-y,1/2-z
1/2+y,1/2-x,1/2-z
1/2+x,1/2+y,1/2-z
1/2-y,1/2+x,1/2-z
1/2-x,1/2+y,z
1/2+x,1/2-y,z
1/2-y,1/2-x,z
1/2+y,1/2+x,z
loop_
_atom_site_type_symbol
_atom_site_label
_atom_site_fract_x
_atom_site_fract_y
_atom_site_fract_z
Si Si1 0.623718 0.383465 0.557640
Si Si2 0.591823 0.000588 0.558056
Si Si3 0.839147 0.752648 0.942702
Si Si4 0.496554 0.336829 0.900592
Si Si5 0.968737 0.718450 0.942472
Si Si6 0.501254 0.596713 0.694872
O O1 0.617397 0.375019 0.500000
O O2 0.680765 0.346882 0.577793
O O3 0.566343 0.360338 0.583697
O O4 0.631029 0.452567 0.568528
O O5 0.593096 0.993861 0.500000
O O6 0.563242 0.063242 0.573188
O O7 0.552037 0.947964 0.579888
O O8 0.657905 0.996109 0.577711
O O9 0.784171 0.715830 0.919092
O O10 0.899075 0.717008 0.932559
O O11 0.827930 0.757285 0.000000
O O12 0.499051 0.267586 0.910271
O O13 0.504048 0.349140 0.842741
O O14 0.981520 0.729949 0.000000
O O15 0.443217 0.558278 0.685908
O O16 0.500000 0.622268 0.750000
#
# Coordination Sequence:
#
# PCOD8320091 Si02
#       6
#    32  32  32  32  32  32
#     4  10  19  27  37  55  81 111 137 160 187 229
#     4   8  13  22  37  56  79 110 143 168 196 235
#     4   8  14  25  38  50  69 102 139 166 187 214
#     4  11  18  28  39  55  80 106 134 164 199 233
#     4   9  16  24  36  56  82 107 132 167 200 227
#     4   9  17  30  45  59  73  95 131 173 213 242
#
# _framework density 13.591168
#
# number of rings (size 3 to 8) (size 9 to 14) (size 15 to 20)
#    0.000    2.833    1.667    4.000    0.000    2.333 
#    0.000    1.667    0.000    4.000    0.000    0.000 
#    0.000   18.667    0.000    1.833    0.000    0.167 
#
# Total GULP energy -1189681.068577 kJ/mol
# GULP energy per Si atom -12392.511131 kJ/mol
# Density = 1.356023 g / cm^3
# Si number density = 13.591168 Si / 1000 Ang^3
#
#
#
# Elastic Constant Matrix: (Units=GPa)
#
#
# Indices 1 2 3 4 5 6 
#
# 1 97.5877 51.0396 22.5455 0.0000 0.0000 0.0000
# 2 51.0396 97.5877 22.5455 0.0000 0.0000 0.0000
# 3 22.5455 22.5455 48.7943 0.0000 0.0000 0.0000
# 4 0.0000 0.0000 0.0000 6.2455 0.0000 0.0000
# 5 0.0000 0.0000 0.0000 0.0000 6.2455 0.0000
# 6 0.0000 0.0000 0.0000 0.0000 0.0000 18.5882
#
#
#
# Elastic Compliance Matrix: (Units=1/GPa)
#
#
# Indices 1 2 3 4 5 6 
#
# 1 0.014654 -0.006829 -0.003616 0.000000 0.000000 0.000000
# 2 -0.006829 0.014654 -0.003616 0.000000 0.000000 0.000000
# 3 -0.003616 -0.003616 0.023835 0.000000 0.000000 0.000000
# 4 0.000000 0.000000 0.000000 0.160114 0.000000 0.000000
# 5 0.000000 0.000000 0.000000 0.000000 0.160114 0.000000
# 6 0.000000 0.000000 0.000000 0.000000 0.000000 0.053798
#
#
# Mechanical properties :
#
#
# Convention : Reuss Voigt Hill
#
# Bulk Modulus (GPa) = 39.96288 48.47011 44.21650
# Shear Modulus (GPa) = 10.78444 16.07180 13.42812
#
# Velocity S-wave (km/s) = 2.81995 3.44251 3.14666
# Velocity P-wave (km/s) = 6.33010 7.17924 6.76800
#
# Compressibility (1/GPa) = 0.02502322
#
# Stress axis : x y z
#
# Youngs Moduli (GPa) = 68.24001 68.24001 41.95436
#
# Poissons Ratio (x) = 0.46601 0.15169
# Poissons Ratio (y) = 0.46601 0.15169
# Poissons Ratio (z) = 0.24673 0.24673
#
# Static dielectric constant tensor:
#      x y z
#    x 2.842710 0.000000 0.000000 
#    y 0.000000 2.842710 0.000000 
#    z 0.000000 0.000000 2.367270 
# 
# 
# High freq. dielectric constant tensor:
#      x y z
#    x 1.516220 0.000000 0.000000 
#    y 0.000000 1.516220 0.000000 
#    z 0.000000 0.000000 1.465470 
# 
# From -- ./inp_files/10836.got.cif
#   From: 2010.06.25/outbox.cif.g09.slc.cpg/sg140_6_cif.got.tgz:10836.got - 2010.06.28 10:53:23.
