data_PCOD8320983
_publ_section_title
;
Structure prediction by ZEFSAII (Michael W. Deem and Ramdas Pophale) SiO2 
 PCOD8320983
Probable space group: I 41/A C D
;
_chemical_formula_sum "Si O2"
_cell_formula_units_Z 176
_cell_length_a 28.701269
_cell_length_b 28.701269
_cell_length_c 11.013861
_cell_angle_alpha 90.000000
_cell_angle_beta 90.000000
_cell_angle_gamma 90.000000
_cell_volume 9072.809441
_symmetry_space_group_name_H-M "I 41/A C D"
_symmetry_group_IT_number 142
_space_group.IT_coordinate_system_code '2'
_symmetry_cell_setting 'tetragonal'
loop_
_space_group_symop_operation_xyz
x,y,z
1/4-y,3/4+x,1/4+z
-x,1/2-y,z
1/4+y,1/4-x,3/4+z
x,-y,1/2-z
1/2-x,y,-z
3/4+y,1/4+x,1/4-z
1/4-y,1/4-x,1/4-z
-x,-y,-z
3/4+y,1/4-x,3/4-z
x,1/2+y,-z
3/4-y,3/4+x,1/4-z
-x,y,1/2+z
1/2+x,-y,z
1/4-y,3/4-x,3/4+z
3/4+y,3/4+x,3/4+z
1/2+x,1/2+y,1/2+z
3/4-y,1/4+x,3/4+z
1/2-x,-y,1/2+z
3/4+y,3/4-x,1/4+z
1/2+x,1/2-y,-z
-x,1/2+y,1/2-z
1/4+y,3/4+x,3/4-z
3/4-y,3/4-x,3/4-z
1/2-x,1/2-y,1/2-z
1/4+y,3/4-x,1/4-z
1/2+x,y,1/2-z
1/4-y,1/4+x,3/4-z
1/2-x,1/2+y,z
x,1/2-y,1/2+z
3/4-y,1/4-x,1/4+z
1/4+y,1/4+x,1/4+z
loop_
_atom_site_type_symbol
_atom_site_label
_atom_site_fract_x
_atom_site_fract_y
_atom_site_fract_z
Si Si1 0.089007 0.912128 0.382107
Si Si2 0.442879 0.370258 0.156381
Si Si3 0.049335 0.617599 0.129808
Si Si4 0.618448 0.500000 0.750000
Si Si5 0.394920 0.947968 0.218600
Si Si6 0.635582 0.433456 0.552019
O O1 0.142354 0.892354 0.375000
O O2 0.057378 0.876404 0.302452
O O3 0.069890 0.912610 0.518495
O O4 0.086462 0.963925 0.326207
O O5 0.419420 0.321514 0.115530
O O6 0.494996 0.374650 0.108841
O O7 0.411515 0.411225 0.102881
O O8 0.062142 0.587714 0.251767
O O9 0.649760 0.474349 0.646662
O O10 0.351580 0.929294 0.299095
O O11 0.410092 0.000000 0.250000
O O12 0.378739 0.950233 0.080491
#
# Coordination Sequence:
#
# PCOD8320983 Si02
#       6
#    32  32  32  16  32  32
#     4   9  19  36  55  79 112 145 185 234 279 339
#     4   9  20  36  55  82 110 152 189 235 286 341
#     4  10  20  36  58  80 115 150 190 236 290 338
#     4  10  18  36  62  84 108 154 188 230 294 346
#     4  10  20  37  58  81 111 154 185 234 284 344
#     4   9  20  36  57  79 116 147 186 233 292 340
#
# _framework density 19.398622
#
# number of rings (size 3 to 8) (size 9 to 14) (size 15 to 20)
#    0.000    2.545    0.000    2.182    2.545    0.364 
#    6.545    4.545   14.000    3.273    0.000    0.000 
#    0.000    0.000    0.000    0.000    0.000    0.000 
#
# Total GULP energy -1090430.916272 kJ/mol
# GULP energy per Si atom -12391.260412 kJ/mol
# Density = 1.935447 g / cm^3
# Si number density = 19.398622 Si / 1000 Ang^3
#
#
#
# Elastic Constant Matrix: (Units=GPa)
#
#
# Indices 1 2 3 4 5 6 
#
# 1 101.6167 44.3957 32.3788 0.0000 0.0000 0.0000
# 2 44.3957 101.6167 32.3788 0.0000 0.0000 0.0000
# 3 32.3788 32.3788 88.2249 0.0000 0.0000 0.0000
# 4 0.0000 0.0000 0.0000 19.6823 0.0000 0.0000
# 5 0.0000 0.0000 0.0000 0.0000 19.6823 0.0000
# 6 0.0000 0.0000 0.0000 0.0000 0.0000 10.2568
#
#
#
# Elastic Compliance Matrix: (Units=1/GPa)
#
#
# Indices 1 2 3 4 5 6 
#
# 1 0.012828 -0.004648 -0.003002 0.000000 0.000000 0.000000
# 2 -0.004648 0.012828 -0.003002 0.000000 0.000000 0.000000
# 3 -0.003002 -0.003002 0.013538 0.000000 0.000000 0.000000
# 4 0.000000 0.000000 0.000000 0.050807 0.000000 0.000000
# 5 0.000000 0.000000 0.000000 0.000000 0.050807 0.000000
# 6 0.000000 0.000000 0.000000 0.000000 0.000000 0.097497
#
#
# Mechanical properties :
#
#
# Convention : Reuss Voigt Hill
#
# Bulk Modulus (GPa) = 55.89700 56.64055 56.26877
# Shear Modulus (GPa) = 18.82718 22.07793 20.45255
#
# Velocity S-wave (km/s) = 3.11873 3.37726 3.25057
# Velocity P-wave (km/s) = 6.46886 6.66854 6.56946
#
# Compressibility (1/GPa) = 0.01789005
#
# Stress axis : x y z
#
# Youngs Moduli (GPa) = 77.95348 77.95348 73.86467
#
# Poissons Ratio (x) = 0.36232 0.22175
# Poissons Ratio (y) = 0.36232 0.22175
# Poissons Ratio (z) = 0.23403 0.23403
#
# Static dielectric constant tensor:
#      x y z
#    x 3.385640 0.000000 0.000000 
#    y 0.000000 3.385640 0.000000 
#    z 0.000000 0.000000 3.999610 
# 
# 
# High freq. dielectric constant tensor:
#      x y z
#    x 1.732420 0.000000 0.000000 
#    y 0.000000 1.732420 0.000000 
#    z 0.000000 0.000000 1.775370 
# 
# From -- ./inp_files/3956.got.cif
#   From: 2010.03.12/outbox.cif.g09.slc.cpg/sg142_2_cif.got.tgz:3956.got - 2010.04.03 13:27:16.
