data_PCOD8320547
_publ_section_title
;
Structure prediction by ZEFSAII (Michael W. Deem and Ramdas Pophale) SiO2 
 PCOD8320547
Probable space group: I 41/A M D
;
_chemical_formula_sum "Si O2"
_cell_formula_units_Z 112
_cell_length_a 22.508120
_cell_length_b 22.508120
_cell_length_c 14.577303
_cell_angle_alpha 90.000000
_cell_angle_beta 90.000000
_cell_angle_gamma 90.000000
_cell_volume 7385.087151
_symmetry_space_group_name_H-M "I 41/A M D"
_symmetry_group_IT_number 141
_space_group.IT_coordinate_system_code '2'
_symmetry_cell_setting 'tetragonal'
loop_
_space_group_symop_operation_xyz
x,y,z
1/4-y,3/4+x,1/4+z
-x,1/2-y,z
1/4+y,1/4-x,3/4+z
x,-y,-z
-x,1/2+y,-z
1/4+y,3/4+x,1/4-z
1/4-y,1/4-x,3/4-z
-x,-y,-z
3/4+y,1/4-x,3/4-z
x,1/2+y,-z
3/4-y,3/4+x,1/4-z
-x,y,z
x,1/2-y,z
3/4-y,1/4-x,3/4+z
3/4+y,3/4+x,1/4+z
1/2+x,1/2+y,1/2+z
3/4-y,1/4+x,3/4+z
1/2-x,-y,1/2+z
3/4+y,3/4-x,1/4+z
1/2+x,1/2-y,1/2-z
1/2-x,y,1/2-z
3/4+y,1/4+x,3/4-z
3/4-y,3/4-x,1/4-z
1/2-x,1/2-y,1/2-z
1/4+y,3/4-x,1/4-z
1/2+x,y,1/2-z
1/4-y,1/4+x,3/4-z
1/2-x,1/2+y,1/2+z
1/2+x,-y,1/2+z
1/4-y,3/4-x,1/4+z
1/4+y,1/4+x,3/4+z
loop_
_atom_site_type_symbol
_atom_site_label
_atom_site_fract_x
_atom_site_fract_y
_atom_site_fract_z
Si Si1 0.500000 0.475445 0.355370
Si Si2 0.383254 0.866747 0.375000
Si Si3 0.775533 0.432372 0.156845
Si Si4 0.653394 0.750000 0.281922
Si Si5 0.117834 0.991939 0.224052
O O1 0.500000 0.417984 0.422835
O O2 0.500000 0.534577 0.415612
O O3 0.555360 0.475071 0.286401
O O4 0.384459 0.808930 0.308526
O O5 0.322748 0.866811 0.430764
O O6 0.737693 0.487693 0.125000
O O7 0.750000 0.403621 0.250000
O O8 0.839666 0.461165 0.172883
O O9 0.771340 0.381843 0.080136
#
# Coordination Sequence:
#
# PCOD8320547 Si02
#       5
#    16  16  32  16  32
#     4   9  18  28  41  60  88 111 143 176 220 270
#     4  10  18  27  44  60  88 118 146 178 220 270
#     4   9  17  27  43  64  85 109 145 186 225 266
#     4   9  18  29  40  62  84 116 146 179 215 265
#     4  10  17  28  43  63  86 116 146 182 225 273
#
# _framework density 15.165698000000001
#
# number of rings (size 3 to 8) (size 9 to 14) (size 15 to 20)
#    0.000    2.571    1.429    1.714    0.000    2.571 
#    0.000    0.714    0.000    0.000    0.000    0.000 
#    0.000    0.000    0.000    0.000    0.000    0.000 
#
# Total GULP energy -693893.079789 kJ/mol
# GULP energy per Si atom -12390.947853 kJ/mol
# Density = 1.513118 g / cm^3
# Si number density = 15.165698 Si / 1000 Ang^3
#
#
#
# Elastic Constant Matrix: (Units=GPa)
#
#
# Indices 1 2 3 4 5 6 
#
# 1 93.5469 40.6084 55.9652 0.0000 0.0000 0.0000
# 2 40.6084 93.5469 55.9651 0.0000 0.0000 0.0000
# 3 55.9652 55.9651 113.7977 0.0000 0.0000 0.0000
# 4 0.0000 0.0000 0.0000 26.7597 0.0000 0.0000
# 5 0.0000 0.0000 0.0000 0.0000 26.7598 0.0000
# 6 0.0000 0.0000 0.0000 0.0000 0.0000 18.3102
#
#
#
# Elastic Compliance Matrix: (Units=1/GPa)
#
#
# Indices 1 2 3 4 5 6 
#
# 1 0.015765 -0.003124 -0.006217 0.000000 0.000000 0.000000
# 2 -0.003124 0.015765 -0.006217 0.000000 0.000000 0.000000
# 3 -0.006217 -0.006217 0.014902 0.000000 0.000000 0.000000
# 4 0.000000 0.000000 0.000000 0.037370 0.000000 0.000000
# 5 0.000000 0.000000 0.000000 0.000000 0.037370 0.000000
# 6 0.000000 0.000000 0.000000 0.000000 0.000000 0.054614
#
#
# Mechanical properties :
#
#
# Convention : Reuss Voigt Hill
#
# Bulk Modulus (GPa) = 65.28656 67.32988 66.30822
# Shear Modulus (GPa) = 23.58402 24.25612 23.92007
#
# Velocity S-wave (km/s) = 3.94774 4.00360 3.97577
# Velocity P-wave (km/s) = 7.99511 8.11568 8.05562
#
# Compressibility (1/GPa) = 0.01531709
#
# Stress axis : x y z
#
# Youngs Moduli (GPa) = 63.43023 63.43021 67.10404
#
# Poissons Ratio (x) = 0.19819 0.41717
# Poissons Ratio (y) = 0.19819 0.41717
# Poissons Ratio (z) = 0.39433 0.39433
#
# Static dielectric constant tensor:
#      x y z
#    x 2.978430 0.000000 0.000000 
#    y 0.000000 2.978400 0.000000 
#    z 0.000000 0.000000 2.880930 
# 
# 
# High freq. dielectric constant tensor:
#      x y z
#    x 1.567800 0.000000 0.000000 
#    y 0.000000 1.567800 0.000000 
#    z 0.000000 0.000000 1.575270 
# 
# From -- ./inp_files/8190.got.cif
#   From: 2010.03.12/outbox.cif.g09.slc.cpg/sg141_5_cif.got.tgz:8190.got - 2010.04.03 13:18:35.
