data_PCOD8320195
_publ_section_title
;
Structure prediction by ZEFSAII (Michael W. Deem and Ramdas Pophale) SiO2 
 PCOD8320195
Probable space group: I 4/M C M
;
_chemical_formula_sum "Si O2"
_cell_formula_units_Z 176
_cell_length_a 17.593382
_cell_length_b 17.593382
_cell_length_c 25.941712
_cell_angle_alpha 90.000000
_cell_angle_beta 90.000000
_cell_angle_gamma 90.000000
_cell_volume 8029.662630
_symmetry_space_group_name_H-M "I 4/M C M"
_symmetry_group_IT_number 140
_symmetry_cell_setting 'tetragonal'
loop_
_space_group_symop_operation_xyz
x,y,z
-y,x,z
-x,-y,z
y,-x,z
x,-y,1/2-z
-x,y,1/2-z
y,x,1/2-z
-y,-x,1/2-z
-x,-y,-z
y,-x,-z
x,y,-z
-y,x,-z
-x,y,1/2+z
x,-y,1/2+z
-y,-x,1/2+z
y,x,1/2+z
1/2+x,1/2+y,1/2+z
1/2-y,1/2+x,1/2+z
1/2-x,1/2-y,1/2+z
1/2+y,1/2-x,1/2+z
1/2+x,1/2-y,-z
1/2-x,1/2+y,-z
1/2+y,1/2+x,-z
1/2-y,1/2-x,-z
1/2-x,1/2-y,1/2-z
1/2+y,1/2-x,1/2-z
1/2+x,1/2+y,1/2-z
1/2-y,1/2+x,1/2-z
1/2-x,1/2+y,z
1/2+x,1/2-y,z
1/2-y,1/2-x,z
1/2+y,1/2+x,z
loop_
_atom_site_type_symbol
_atom_site_label
_atom_site_fract_x
_atom_site_fract_y
_atom_site_fract_z
Si Si1 0.202985 0.176820 0.059795
Si Si2 0.102935 0.932414 0.106901
Si Si3 0.957479 0.334987 0.302452
Si Si4 0.996984 0.625203 0.000000
Si Si5 0.818843 0.441461 0.099617
Si Si6 0.328153 0.575646 0.283014
O O1 0.238727 0.261274 0.070152
O O2 0.114492 0.169152 0.076523
O O3 0.248698 0.115859 0.093915
O O4 0.212919 0.156222 0.000000
O O5 0.118340 0.927929 0.167292
O O6 0.021296 0.895830 0.091544
O O7 0.904534 0.404534 0.320390
O O8 0.907557 0.259866 0.294453
O O9 0.000000 0.358861 0.250000
O O10 0.015617 0.310469 0.346766
O O11 0.001295 0.677990 0.949139
O O12 0.916054 0.583947 0.000000
O O13 0.066575 0.566575 0.000000
O O14 0.898167 0.398167 0.101976
O O15 0.339646 0.500000 0.250000
O O16 0.352211 0.647789 0.250000
#
# Coordination Sequence:
#
# PCOD8320195 Si02
#       6
#    32  32  32  16  32  32
#     4  10  22  42  67  97 136 180 223 273 339 414
#     4  11  23  40  68 103 134 170 220 284 349 405
#     4  11  25  41  60  93 135 177 222 274 341 408
#     4   9  16  28  54  88 114 155 220 272 311 362
#     4  10  19  36  60  88 128 175 221 269 322 391
#     4  11  23  42  67  93 124 164 215 275 336 406
#
# _framework density 21.91873
#
# number of rings (size 3 to 8) (size 9 to 14) (size 15 to 20)
#    0.000    1.545    2.727    2.182    2.545    4.000 
#    0.000    0.909    0.000    0.000    0.000    0.000 
#    0.000    0.000    0.000    0.000    0.000    0.000 
#
# Total GULP energy -1091081.266011 kJ/mol
# GULP energy per Si atom -12398.650750 kJ/mol
# Density = 2.186884 g / cm^3
# Si number density = 21.918730 Si / 1000 Ang^3
#
#
#
# Elastic Constant Matrix: (Units=GPa)
#
#
# Indices 1 2 3 4 5 6 
#
# 1 78.8014 42.6772 26.3730 0.0000 0.0000 0.0000
# 2 42.6772 78.8010 26.3733 0.0000 0.0000 0.0000
# 3 26.3730 26.3733 112.8340 0.0000 0.0000 0.0000
# 4 0.0000 0.0000 0.0000 27.0050 0.0000 0.0000
# 5 0.0000 0.0000 0.0000 0.0000 27.0052 0.0000
# 6 0.0000 0.0000 0.0000 0.0000 0.0000 30.5556
#
#
#
# Elastic Compliance Matrix: (Units=1/GPa)
#
#
# Indices 1 2 3 4 5 6 
#
# 1 0.018422 -0.009260 -0.002141 0.000000 0.000000 0.000000
# 2 -0.009260 0.018422 -0.002141 0.000000 0.000000 0.000000
# 3 -0.002141 -0.002141 0.009864 0.000000 0.000000 0.000000
# 4 0.000000 0.000000 0.000000 0.037030 0.000000 0.000000
# 5 0.000000 0.000000 0.000000 0.000000 0.037030 0.000000
# 6 0.000000 0.000000 0.000000 0.000000 0.000000 0.032727
#
#
# Mechanical properties :
#
#
# Convention : Reuss Voigt Hill
#
# Bulk Modulus (GPa) = 50.96468 51.25372 51.10920
# Shear Modulus (GPa) = 26.72056 28.58069 27.65062
#
# Velocity S-wave (km/s) = 3.49531 3.61493 3.55562
# Velocity P-wave (km/s) = 6.29220 6.39202 6.34230
#
# Compressibility (1/GPa) = 0.01962143
#
# Stress axis : x y z
#
# Youngs Moduli (GPa) = 54.28299 54.28260 101.38267
#
# Poissons Ratio (x) = 0.50267 0.21710
# Poissons Ratio (y) = 0.50268 0.21711
# Poissons Ratio (z) = 0.11624 0.11624
#
# Static dielectric constant tensor:
#      x y z
#    x 3.887680 0.000000 0.000000 
#    y 0.000000 3.887690 0.000000 
#    z 0.000000 0.000000 3.997880 
# 
# 
# High freq. dielectric constant tensor:
#      x y z
#    x 1.854180 0.000000 0.000000 
#    y 0.000000 1.854180 0.000000 
#    z 0.000000 0.000000 1.867820 
# 
# From -- ./inp_files/10714.got.cif
#   From: 2010.06.25/outbox.cif.g09.slc.cpg/sg140_6_cif.got.tgz:10714.got - 2010.06.28 10:53:23.
