data_PCOD8320184
_publ_section_title
;
Structure prediction by ZEFSAII (Michael W. Deem and Ramdas Pophale) SiO2 
 PCOD8320184
Probable space group: I 4/M C M
;
_chemical_formula_sum "Si O2"
_cell_formula_units_Z 176
_cell_length_a 17.161565
_cell_length_b 17.161565
_cell_length_c 27.433006
_cell_angle_alpha 90.000000
_cell_angle_beta 90.000000
_cell_angle_gamma 90.000000
_cell_volume 8079.550087
_symmetry_space_group_name_H-M "I 4/M C M"
_symmetry_group_IT_number 140
_symmetry_cell_setting 'tetragonal'
loop_
_space_group_symop_operation_xyz
x,y,z
-y,x,z
-x,-y,z
y,-x,z
x,-y,1/2-z
-x,y,1/2-z
y,x,1/2-z
-y,-x,1/2-z
-x,-y,-z
y,-x,-z
x,y,-z
-y,x,-z
-x,y,1/2+z
x,-y,1/2+z
-y,-x,1/2+z
y,x,1/2+z
1/2+x,1/2+y,1/2+z
1/2-y,1/2+x,1/2+z
1/2-x,1/2-y,1/2+z
1/2+y,1/2-x,1/2+z
1/2+x,1/2-y,-z
1/2-x,1/2+y,-z
1/2+y,1/2+x,-z
1/2-y,1/2-x,-z
1/2-x,1/2-y,1/2-z
1/2+y,1/2-x,1/2-z
1/2+x,1/2+y,1/2-z
1/2-y,1/2+x,1/2-z
1/2-x,1/2+y,z
1/2+x,1/2-y,z
1/2-y,1/2-x,z
1/2+y,1/2+x,z
loop_
_atom_site_type_symbol
_atom_site_label
_atom_site_fract_x
_atom_site_fract_y
_atom_site_fract_z
Si Si1 0.212505 0.159375 0.057720
Si Si2 0.101183 0.925396 0.112216
Si Si3 0.964146 0.339496 0.301217
Si Si4 0.934342 0.565659 0.055318
Si Si5 0.827877 0.454054 0.102549
Si Si6 0.329639 0.575904 0.282711
O O1 0.264101 0.235900 0.071148
O O2 0.126198 0.164520 0.081835
O O3 0.248254 0.080110 0.080970
O O4 0.206151 0.149719 0.000000
O O5 0.116665 0.920375 0.169693
O O6 0.015916 0.892544 0.098114
O O7 0.908621 0.408621 0.320480
O O8 0.915441 0.260524 0.296370
O O9 0.000000 0.365571 0.250000
O O10 0.034140 0.323219 0.339212
O O11 0.852875 0.536841 0.078967
O O12 0.000000 0.500000 0.062160
O O13 0.915588 0.584413 0.000000
O O14 0.892618 0.392618 0.087647
O O15 0.347390 0.500000 0.250000
O O16 0.349292 0.650709 0.250000
#
# Coordination Sequence:
#
# PCOD8320184 Si02
#       6
#    32  32  32  16  32  32
#     4  10  23  43  67  97 137 180 221 275 345 414
#     4  11  23  41  70 102 132 170 221 286 343 403
#     4  11  24  39  58  90 134 177 222 270 332 405
#     4   9  16  28  54  86 113 152 214 268 309 364
#     4  10  19  35  58  86 126 171 219 268 323 390
#     4  11  23  41  65  93 124 162 213 272 337 403
#
# _framework density 21.783391999999999
#
# number of rings (size 3 to 8) (size 9 to 14) (size 15 to 20)
#    0.000    1.545    2.727    2.182    2.545    5.091 
#    0.000    0.909    0.000    0.000    0.000    0.000 
#    0.000    0.000    0.000    0.000    0.000    0.000 
#
# Total GULP energy -1090949.935180 kJ/mol
# GULP energy per Si atom -12397.158354 kJ/mol
# Density = 2.173381 g / cm^3
# Si number density = 21.783392 Si / 1000 Ang^3
#
#
#
# Elastic Constant Matrix: (Units=GPa)
#
#
# Indices 1 2 3 4 5 6 
#
# 1 76.8997 39.0778 26.1668 0.0000 0.0000 0.0000
# 2 39.0778 76.8990 26.1675 0.0000 0.0000 0.0000
# 3 26.1668 26.1675 117.2221 0.0000 0.0000 0.0000
# 4 0.0000 0.0000 0.0000 30.3798 0.0000 0.0000
# 5 0.0000 0.0000 0.0000 0.0000 30.3798 0.0000
# 6 0.0000 0.0000 0.0000 0.0000 0.0000 17.9718
#
#
#
# Elastic Compliance Matrix: (Units=1/GPa)
#
#
# Indices 1 2 3 4 5 6 
#
# 1 0.018014 -0.008426 -0.002140 0.000000 0.000000 0.000000
# 2 -0.008426 0.018014 -0.002140 0.000000 0.000000 0.000000
# 3 -0.002140 -0.002140 0.009486 0.000000 0.000000 0.000000
# 4 0.000000 0.000000 0.000000 0.032917 0.000000 0.000000
# 5 0.000000 0.000000 0.000000 0.000000 0.032917 0.000000
# 6 0.000000 0.000000 0.000000 0.000000 0.000000 0.055643
#
#
# Mechanical properties :
#
#
# Convention : Reuss Voigt Hill
#
# Bulk Modulus (GPa) = 49.74776 50.42723 50.08750
# Shear Modulus (GPa) = 25.11247 27.72018 26.41633
#
# Velocity S-wave (km/s) = 3.39901 3.57113 3.48614
# Velocity P-wave (km/s) = 6.18801 6.34063 6.26479
#
# Compressibility (1/GPa) = 0.02010141
#
# Stress axis : x y z
#
# Youngs Moduli (GPa) = 55.51243 55.51168 105.41426
#
# Poissons Ratio (x) = 0.46774 0.22561
# Poissons Ratio (y) = 0.46774 0.22563
# Poissons Ratio (z) = 0.11881 0.11882
#
# Static dielectric constant tensor:
#      x y z
#    x 3.855240 0.000000 0.000000 
#    y 0.000000 3.855250 0.000000 
#    z 0.000000 0.000000 3.869140 
# 
# 
# High freq. dielectric constant tensor:
#      x y z
#    x 1.847190 0.000000 0.000000 
#    y 0.000000 1.847190 0.000000 
#    z 0.000000 0.000000 1.860890 
# 
# From -- ./inp_files/10713.got.cif
#   From: 2010.06.25/outbox.cif.g09.slc.cpg/sg140_6_cif.got.tgz:10713.got - 2010.06.28 10:53:23.
