data_PCOD8320794
_publ_section_title
;
Structure prediction by ZEFSAII (Michael W. Deem and Ramdas Pophale) SiO2 
 PCOD8320794
Probable space group: I 41/A M D
;
_chemical_formula_sum "Si O2"
_cell_formula_units_Z 80
_cell_length_a 10.682336
_cell_length_b 10.682336
_cell_length_c 33.105582
_cell_angle_alpha 90.000000
_cell_angle_beta 90.000000
_cell_angle_gamma 90.000000
_cell_volume 3777.754185
_symmetry_space_group_name_H-M "I 41/A M D"
_symmetry_group_IT_number 141
_space_group.IT_coordinate_system_code '2'
_symmetry_cell_setting 'tetragonal'
loop_
_space_group_symop_operation_xyz
x,y,z
1/4-y,3/4+x,1/4+z
-x,1/2-y,z
1/4+y,1/4-x,3/4+z
x,-y,-z
-x,1/2+y,-z
1/4+y,3/4+x,1/4-z
1/4-y,1/4-x,3/4-z
-x,-y,-z
3/4+y,1/4-x,3/4-z
x,1/2+y,-z
3/4-y,3/4+x,1/4-z
-x,y,z
x,1/2-y,z
3/4-y,1/4-x,3/4+z
3/4+y,3/4+x,1/4+z
1/2+x,1/2+y,1/2+z
3/4-y,1/4+x,3/4+z
1/2-x,-y,1/2+z
3/4+y,3/4-x,1/4+z
1/2+x,1/2-y,1/2-z
1/2-x,y,1/2-z
3/4+y,1/4+x,3/4-z
3/4-y,3/4-x,1/4-z
1/2-x,1/2-y,1/2-z
1/4+y,3/4-x,1/4-z
1/2+x,y,1/2-z
1/4-y,1/4+x,3/4-z
1/2-x,1/2+y,1/2+z
1/2+x,-y,1/2+z
1/4-y,3/4-x,1/4+z
1/4+y,1/4+x,3/4+z
loop_
_atom_site_type_symbol
_atom_site_label
_atom_site_fract_x
_atom_site_fract_y
_atom_site_fract_z
Si Si1 0.500000 0.890006 0.967491
Si Si2 0.358973 0.250000 0.921263
Si Si3 0.262400 0.484405 0.173085
Si Si4 0.139681 0.750000 0.325332
O O1 0.500000 0.750000 0.986728
O O2 0.625426 0.899789 0.940518
O O3 0.500000 0.000000 0.000000
O O4 0.500000 0.250000 0.937604
O O5 0.288442 0.128888 0.938191
O O6 0.358285 0.250000 0.873289
O O7 0.273499 0.476502 0.125000
O O8 0.295722 0.622203 0.190151
O O9 0.000000 0.750000 0.308248
#
# Coordination Sequence:
#
# PCOD8320794 Si02
#       4
#    16  16  32  16
#     4  12  28  42  64  94 134 173 223 273 344 403
#     4   9  16  31  57  90 128 157 195 273 333 359
#     4  10  21  37  66  93 125 168 221 273 326 391
#     4   9  18  33  54  92 124 156 206 271 319 368
#
# _framework density 21.176604999999999
#
# number of rings (size 3 to 8) (size 9 to 14) (size 15 to 20)
#    0.000    2.000    2.000    1.200    8.400    0.800 
#    0.000    5.000    0.000    0.000    0.000    0.000 
#    0.000    0.000    0.000    0.000    0.000    0.000 
#
# Total GULP energy -495851.648059 kJ/mol
# GULP energy per Si atom -12396.291201 kJ/mol
# Density = 2.112841 g / cm^3
# Si number density = 21.176605 Si / 1000 Ang^3
#
#
#
# Elastic Constant Matrix: (Units=GPa)
#
#
# Indices 1 2 3 4 5 6 
#
# 1 217.4854 97.3301 24.2266 0.0000 0.0000 0.0000
# 2 97.3301 217.4858 24.2266 0.0000 0.0000 0.0000
# 3 24.2266 24.2266 32.0072 0.0000 0.0000 0.0000
# 4 0.0000 0.0000 0.0000 10.9293 0.0000 0.0000
# 5 0.0000 0.0000 0.0000 0.0000 10.9293 0.0000
# 6 0.0000 0.0000 0.0000 0.0000 0.0000 43.7862
#
#
#
# Elastic Compliance Matrix: (Units=1/GPa)
#
#
# Indices 1 2 3 4 5 6 
#
# 1 0.005959 -0.002364 -0.002721 0.000000 0.000000 0.000000
# 2 -0.002364 0.005959 -0.002721 0.000000 0.000000 0.000000
# 3 -0.002721 -0.002721 0.035363 0.000000 0.000000 0.000000
# 4 0.000000 0.000000 0.000000 0.091497 0.000000 0.000000
# 5 0.000000 0.000000 0.000000 0.000000 0.091497 0.000000
# 6 0.000000 0.000000 0.000000 0.000000 0.000000 0.022838
#
#
# Mechanical properties :
#
#
# Convention : Reuss Voigt Hill
#
# Bulk Modulus (GPa) = 31.57774 84.28277 57.93026
# Shear Modulus (GPa) = 17.90310 34.54197 26.22254
#
# Velocity S-wave (km/s) = 2.91076 4.04312 3.52274
# Velocity P-wave (km/s) = 5.12257 7.85379 6.63034
#
# Compressibility (1/GPa) = 0.03166787
#
# Stress axis : x y z
#
# Youngs Moduli (GPa) = 167.81541 167.81572 28.27849
#
# Poissons Ratio (x) = 0.39665 0.07696
# Poissons Ratio (y) = 0.39665 0.07695
# Poissons Ratio (z) = 0.45668 0.45668
#
# Static dielectric constant tensor:
#      x y z
#    x 4.136460 0.000000 0.000000 
#    y 0.000000 4.136470 0.000000 
#    z 0.000000 0.000000 3.358730 
# 
# 
# High freq. dielectric constant tensor:
#      x y z
#    x 1.841810 0.000000 0.000000 
#    y 0.000000 1.841810 0.000000 
#    z 0.000000 0.000000 1.791740 
# 
# From -- ./inp_files/13634.got.cif
#   From: 2010.03.12/outbox.cif.g09.slc.cpg/sg141_7_cif.got.tgz:13634.got - 2010.04.03 13:18:35.
