data_PCOD8320350
_publ_section_title
;
Structure prediction by ZEFSAII (Michael W. Deem and Ramdas Pophale) SiO2 
 PCOD8320350
Probable space group: I 4/M C M
;
_chemical_formula_sum "Si O2"
_cell_formula_units_Z 240
_cell_length_a 21.549081
_cell_length_b 21.549081
_cell_length_c 28.733095
_cell_angle_alpha 90.000000
_cell_angle_beta 90.000000
_cell_angle_gamma 90.000000
_cell_volume 13342.583089
_symmetry_space_group_name_H-M "I 4/M C M"
_symmetry_group_IT_number 140
_symmetry_cell_setting 'tetragonal'
loop_
_space_group_symop_operation_xyz
x,y,z
-y,x,z
-x,-y,z
y,-x,z
x,-y,1/2-z
-x,y,1/2-z
y,x,1/2-z
-y,-x,1/2-z
-x,-y,-z
y,-x,-z
x,y,-z
-y,x,-z
-x,y,1/2+z
x,-y,1/2+z
-y,-x,1/2+z
y,x,1/2+z
1/2+x,1/2+y,1/2+z
1/2-y,1/2+x,1/2+z
1/2-x,1/2-y,1/2+z
1/2+y,1/2-x,1/2+z
1/2+x,1/2-y,-z
1/2-x,1/2+y,-z
1/2+y,1/2+x,-z
1/2-y,1/2-x,-z
1/2-x,1/2-y,1/2-z
1/2+y,1/2-x,1/2-z
1/2+x,1/2+y,1/2-z
1/2-y,1/2+x,1/2-z
1/2-x,1/2+y,z
1/2+x,1/2-y,z
1/2-y,1/2-x,z
1/2+y,1/2+x,z
loop_
_atom_site_type_symbol
_atom_site_label
_atom_site_fract_x
_atom_site_fract_y
_atom_site_fract_z
Si Si1 0.169039 0.482370 0.114809
Si Si2 0.138159 0.739379 0.379954
Si Si3 0.118969 0.277282 0.627794
Si Si4 0.997443 0.402659 0.798026
Si Si5 0.568008 0.430627 0.694868
Si Si6 0.948789 0.551212 0.055253
Si Si7 0.662922 0.326134 0.305906
Si Si8 0.185344 0.210914 0.448680
O O1 0.225909 0.434512 0.113750
O O2 0.196891 0.550607 0.119901
O O3 0.134484 0.468528 0.162370
O O4 0.118781 0.471512 0.073593
O O5 0.174616 0.674616 0.382960
O O6 0.158962 0.772402 0.331801
O O7 0.152537 0.782554 0.424153
O O8 0.165519 0.334482 0.628120
O O9 0.131934 0.238300 0.675607
O O10 0.128627 0.233053 0.583276
O O11 0.927847 0.427847 0.811956
O O12 0.000000 0.362178 0.750000
O O13 0.038329 0.461672 0.785883
O O14 0.586895 0.499102 0.676394
O O15 0.567956 0.432045 0.750000
O O16 0.616710 0.380279 0.677423
O O17 0.000000 0.500000 0.070535
O O18 0.943665 0.556336 0.000000
O O19 0.675167 0.324834 0.250000
O O20 0.161167 0.191931 0.500000
O O21 0.233896 0.266105 0.452568
#
# Coordination Sequence:
#
# PCOD8320350 Si02
#       8
#    32  32  32  32  32  16  32  32
#     4  12  22  37  56  82 121 151 191 255 288 346
#     4  10  21  36  53  81 108 144 191 232 292 344
#     4  10  22  36  54  82 110 150 194 232 294 348
#     4   9  17  30  49  70  97 146 197 227 265 315
#     4   8  15  29  50  77 106 137 174 220 281 346
#     4  11  24  40  60  86 119 164 198 240 315 361
#     4  10  21  36  57  80 115 149 188 243 288 344
#     4   8  16  35  59  75  96 132 176 228 284 346
#
# _framework density 17.987521999999998
#
# number of rings (size 3 to 8) (size 9 to 14) (size 15 to 20)
#    0.000    2.333    1.333    3.200    1.867    3.200 
#    0.000    1.333    0.000    0.000    0.000    0.000 
#    0.000    0.000    0.000   10.933    0.000    0.533 
#
# Total GULP energy -1486634.050556 kJ/mol
# GULP energy per Si atom -12388.617088 kJ/mol
# Density = 1.794658 g / cm^3
# Si number density = 17.987522 Si / 1000 Ang^3
#
#
#
# Elastic Constant Matrix: (Units=GPa)
#
#
# Indices 1 2 3 4 5 6 
#
# 1 95.0029 44.3075 33.5173 0.0000 0.0000 0.0000
# 2 44.3075 95.0029 33.5174 0.0000 0.0000 0.0000
# 3 33.5173 33.5174 120.2402 0.0000 0.0000 0.0000
# 4 0.0000 0.0000 0.0000 54.3140 0.0000 0.0000
# 5 0.0000 0.0000 0.0000 0.0000 54.3192 0.0000
# 6 0.0000 0.0000 0.0000 0.0000 0.0000 30.5285
#
#
#
# Elastic Compliance Matrix: (Units=1/GPa)
#
#
# Indices 1 2 3 4 5 6 
#
# 1 0.014008 -0.005718 -0.002311 0.000000 0.000000 0.000000
# 2 -0.005718 0.014008 -0.002311 0.000000 0.000000 0.000000
# 3 -0.002311 -0.002311 0.009605 0.000000 0.000000 0.000000
# 4 0.000000 0.000000 0.000000 0.018411 0.000000 0.000000
# 5 0.000000 0.000000 0.000000 0.000000 0.018410 0.000000
# 6 0.000000 0.000000 0.000000 0.000000 0.000000 0.032756
#
#
# Mechanical properties :
#
#
# Convention : Reuss Voigt Hill
#
# Bulk Modulus (GPa) = 59.02571 59.21447 59.12009
# Shear Modulus (GPa) = 37.44625 41.09259 39.26942
#
# Velocity S-wave (km/s) = 4.56761 4.78483 4.67749
# Velocity P-wave (km/s) = 7.79125 7.96978 7.88102
#
# Compressibility (1/GPa) = 0.01694177
#
# Stress axis : x y z
#
# Youngs Moduli (GPa) = 71.38820 71.38819 104.11199
#
# Poissons Ratio (x) = 0.40818 0.24059
# Poissons Ratio (y) = 0.40818 0.24060
# Poissons Ratio (z) = 0.16497 0.16497
#
# Static dielectric constant tensor:
#      x y z
#    x 3.546670 0.000000 0.000000 
#    y 0.000000 3.546710 0.000000 
#    z 0.000000 0.000000 3.601100 
# 
# 
# High freq. dielectric constant tensor:
#      x y z
#    x 1.689000 0.000000 0.000000 
#    y 0.000000 1.689000 0.000000 
#    z 0.000000 0.000000 1.687860 
# 
# From -- ./inp_files/10956.got.cif
#   From: 2010.06.25/outbox.cif.g09.slc.cpg/sg140_6_cif.got.tgz:10956.got - 2010.06.28 10:53:23.
