data_PCOD8320665
_publ_section_title
;
Structure prediction by ZEFSAII (Michael W. Deem and Ramdas Pophale) SiO2 
 PCOD8320665
Probable space group: I 41/A M D
;
_chemical_formula_sum "Si O2"
_cell_formula_units_Z 80
_cell_length_a 21.430477
_cell_length_b 21.430477
_cell_length_c 9.263152
_cell_angle_alpha 90.000000
_cell_angle_beta 90.000000
_cell_angle_gamma 90.000000
_cell_volume 4254.244694
_symmetry_space_group_name_H-M "I 41/A M D"
_symmetry_group_IT_number 141
_space_group.IT_coordinate_system_code '2'
_symmetry_cell_setting 'tetragonal'
loop_
_space_group_symop_operation_xyz
x,y,z
1/4-y,3/4+x,1/4+z
-x,1/2-y,z
1/4+y,1/4-x,3/4+z
x,-y,-z
-x,1/2+y,-z
1/4+y,3/4+x,1/4-z
1/4-y,1/4-x,3/4-z
-x,-y,-z
3/4+y,1/4-x,3/4-z
x,1/2+y,-z
3/4-y,3/4+x,1/4-z
-x,y,z
x,1/2-y,z
3/4-y,1/4-x,3/4+z
3/4+y,3/4+x,1/4+z
1/2+x,1/2+y,1/2+z
3/4-y,1/4+x,3/4+z
1/2-x,-y,1/2+z
3/4+y,3/4-x,1/4+z
1/2+x,1/2-y,1/2-z
1/2-x,y,1/2-z
3/4+y,1/4+x,3/4-z
3/4-y,3/4-x,1/4-z
1/2-x,1/2-y,1/2-z
1/4+y,3/4-x,1/4-z
1/2+x,y,1/2-z
1/4-y,1/4+x,3/4-z
1/2-x,1/2+y,1/2+z
1/2+x,-y,1/2+z
1/4-y,3/4-x,1/4+z
1/4+y,1/4+x,3/4+z
loop_
_atom_site_type_symbol
_atom_site_label
_atom_site_fract_x
_atom_site_fract_y
_atom_site_fract_z
Si Si1 0.217653 0.624576 0.449533
Si Si2 0.927861 0.911130 0.059567
Si Si3 0.250000 0.097594 0.250000
O O1 0.285545 0.636131 0.382948
O O2 0.166928 0.667546 0.364285
O O3 0.221038 0.640425 0.621554
O O4 0.197075 0.552680 0.431161
O O5 0.904782 0.845219 0.125000
O O6 0.000000 0.919753 0.097919
#
# Coordination Sequence:
#
# PCOD8320665 Si02
#       3
#    32  32  16
#     4  10  20  34  56  92 120 147 188 236 319 361
#     4  11  23  39  58  81 117 161 205 250 288 354
#     4  10  20  30  61  88 125 152 168 242 310 388
#
# _framework density 18.804748
#
# number of rings (size 3 to 8) (size 9 to 14) (size 15 to 20)
#    0.000    1.600    4.000    2.400    5.600    0.400 
#    0.000    4.000    0.000    0.000    0.000    0.000 
#    0.000    0.000    0.000    0.000    0.000    0.000 
#
# Total GULP energy -495591.241692 kJ/mol
# GULP energy per Si atom -12389.781042 kJ/mol
# Density = 1.876195 g / cm^3
# Si number density = 18.804748 Si / 1000 Ang^3
#
#
#
# Elastic Constant Matrix: (Units=GPa)
#
#
# Indices 1 2 3 4 5 6 
#
# 1 87.2693 40.2046 41.6391 0.0000 0.0000 0.0000
# 2 40.2046 87.2738 41.6411 0.0000 0.0000 0.0000
# 3 41.6391 41.6411 156.0697 0.0000 0.0000 0.0000
# 4 0.0000 0.0000 0.0000 23.4075 0.0000 0.0000
# 5 0.0000 0.0000 0.0000 0.0000 23.4066 0.0000
# 6 0.0000 0.0000 0.0000 0.0000 0.0000 11.6661
#
#
#
# Elastic Compliance Matrix: (Units=1/GPa)
#
#
# Indices 1 2 3 4 5 6 
#
# 1 0.015374 -0.005873 -0.002535 0.000000 0.000000 0.000000
# 2 -0.005873 0.015373 -0.002535 0.000000 0.000000 0.000000
# 3 -0.002535 -0.002535 0.007760 0.000000 0.000000 0.000000
# 4 0.000000 0.000000 0.000000 0.042721 0.000000 0.000000
# 5 0.000000 0.000000 0.000000 0.000000 0.042723 0.000000
# 6 0.000000 0.000000 0.000000 0.000000 0.000000 0.085718
#
#
# Mechanical properties :
#
#
# Convention : Reuss Voigt Hill
#
# Bulk Modulus (GPa) = 60.16135 64.17582 62.16858
# Shear Modulus (GPa) = 21.08857 25.50457 23.29657
#
# Velocity S-wave (km/s) = 3.35244 3.68677 3.52357
# Velocity P-wave (km/s) = 6.85910 7.23357 7.04882
#
# Compressibility (1/GPa) = 0.01662197
#
# Stress axis : x y z
#
# Youngs Moduli (GPa) = 65.04569 65.04861 128.86615
#
# Poissons Ratio (x) = 0.38202 0.32664
# Poissons Ratio (y) = 0.38200 0.32666
# Poissons Ratio (z) = 0.16487 0.16489
#
# Static dielectric constant tensor:
#      x y z
#    x 3.144790 0.000000 0.000000 
#    y 0.000000 3.144780 0.000000 
#    z 0.000000 0.000000 4.113330 
# 
# 
# High freq. dielectric constant tensor:
#      x y z
#    x 1.698180 0.000000 0.000000 
#    y 0.000000 1.698170 0.000000 
#    z 0.000000 0.000000 1.747300 
# 
# From -- ./inp_files/2365.got.cif
#   From: 2010.03.12/outbox.cif.g09.slc.cpg/sg141_2_cif.got.tgz:2365.got - 2010.04.03 13:18:35.
