data_PCOD8320968
_publ_section_title
;
Structure prediction by ZEFSAII (Michael W. Deem and Ramdas Pophale) SiO2 
 PCOD8320968
Probable space group: I 41/A C D
;
_chemical_formula_sum "Si O2"
_cell_formula_units_Z 176
_cell_length_a 25.756103
_cell_length_b 25.756103
_cell_length_c 15.618740
_cell_angle_alpha 90.000000
_cell_angle_beta 90.000000
_cell_angle_gamma 90.000000
_cell_volume 10361.110413
_symmetry_space_group_name_H-M "I 41/A C D"
_symmetry_group_IT_number 142
_space_group.IT_coordinate_system_code '2'
_symmetry_cell_setting 'tetragonal'
loop_
_space_group_symop_operation_xyz
x,y,z
1/4-y,3/4+x,1/4+z
-x,1/2-y,z
1/4+y,1/4-x,3/4+z
x,-y,1/2-z
1/2-x,y,-z
3/4+y,1/4+x,1/4-z
1/4-y,1/4-x,1/4-z
-x,-y,-z
3/4+y,1/4-x,3/4-z
x,1/2+y,-z
3/4-y,3/4+x,1/4-z
-x,y,1/2+z
1/2+x,-y,z
1/4-y,3/4-x,3/4+z
3/4+y,3/4+x,3/4+z
1/2+x,1/2+y,1/2+z
3/4-y,1/4+x,3/4+z
1/2-x,-y,1/2+z
3/4+y,3/4-x,1/4+z
1/2+x,1/2-y,-z
-x,1/2+y,1/2-z
1/4+y,3/4+x,3/4-z
3/4-y,3/4-x,3/4-z
1/2-x,1/2-y,1/2-z
1/4+y,3/4-x,1/4-z
1/2+x,y,1/2-z
1/4-y,1/4+x,3/4-z
1/2-x,1/2+y,z
x,1/2-y,1/2+z
3/4-y,1/4-x,1/4+z
1/4+y,1/4+x,1/4+z
loop_
_atom_site_type_symbol
_atom_site_label
_atom_site_fract_x
_atom_site_fract_y
_atom_site_fract_z
Si Si1 0.125996 0.727016 0.660663
Si Si2 0.054324 0.271884 0.484172
Si Si3 0.713450 0.879342 0.613119
Si Si4 0.824216 0.635711 0.068937
Si Si5 0.653566 0.174817 0.750069
Si Si6 0.558626 0.808626 0.625000
O O1 0.098179 0.752472 0.579586
O O2 0.084937 0.701054 0.728173
O O3 0.167170 0.686058 0.626190
O O4 0.162550 0.770888 0.703064
O O5 0.064404 0.248576 0.580290
O O6 0.000000 0.250000 0.450652
O O7 0.683566 0.933566 0.625000
O O8 0.692136 0.850551 0.528315
O O9 0.774538 0.893613 0.610560
O O10 0.701759 0.838632 0.688958
O O11 0.877219 0.602136 0.067816
O O12 0.599657 0.181640 0.800525
#
# Coordination Sequence:
#
# PCOD8320968 Si02
#       6
#    32  32  32  32  32  16
#     4  12  19  28  45  70 107 140 169 200 254 305
#     4  12  18  27  40  68 103 147 175 195 230 301
#     4   9  19  35  52  72  94 125 174 227 270 294
#     4  10  18  33  51  70 101 130 163 217 261 307
#     4  11  19  30  48  73 103 131 172 219 249 305
#     4  12  19  28  44  68 106 140 180 204 234 294
#
# _framework density 16.986597
#
# number of rings (size 3 to 8) (size 9 to 14) (size 15 to 20)
#    0.000    1.091   10.000    0.273    0.000    0.727 
#    0.000    0.000    0.000    0.000    0.000   10.182 
#   81.818    0.000    0.000    0.000    0.000    0.000 
#
# Total GULP energy -1090255.168830 kJ/mol
# GULP energy per Si atom -12389.263282 kJ/mol
# Density = 1.694793 g / cm^3
# Si number density = 16.986597 Si / 1000 Ang^3
#
#
#
# Elastic Constant Matrix: (Units=GPa)
#
#
# Indices 1 2 3 4 5 6 
#
# 1 80.1841 37.4857 36.6865 0.0000 0.0000 0.0000
# 2 37.4857 80.1841 36.6865 0.0000 0.0000 0.0000
# 3 36.6865 36.6865 60.9434 0.0000 0.0000 0.0000
# 4 0.0000 0.0000 0.0000 17.6185 0.0000 0.0000
# 5 0.0000 0.0000 0.0000 0.0000 17.6185 0.0000
# 6 0.0000 0.0000 0.0000 0.0000 0.0000 14.3568
#
#
#
# Elastic Compliance Matrix: (Units=1/GPa)
#
#
# Indices 1 2 3 4 5 6 
#
# 1 0.018513 -0.004907 -0.008190 0.000000 0.000000 0.000000
# 2 -0.004907 0.018513 -0.008190 0.000000 0.000000 0.000000
# 3 -0.008190 -0.008190 0.026269 0.000000 0.000000 0.000000
# 4 0.000000 0.000000 0.000000 0.056759 0.000000 0.000000
# 5 0.000000 0.000000 0.000000 0.000000 0.056759 0.000000
# 6 0.000000 0.000000 0.000000 0.000000 0.000000 0.069653
#
#
# Mechanical properties :
#
#
# Convention : Reuss Voigt Hill
#
# Bulk Modulus (GPa) = 48.26386 49.22543 48.74464
# Shear Modulus (GPa) = 16.89495 17.28229 17.08862
#
# Velocity S-wave (km/s) = 3.15716 3.19314 3.17520
# Velocity P-wave (km/s) = 6.46257 6.52968 6.49621
#
# Compressibility (1/GPa) = 0.02071944
#
# Stress axis : x y z
#
# Youngs Moduli (GPa) = 54.01706 54.01706 38.06758
#
# Poissons Ratio (x) = 0.26508 0.31177
# Poissons Ratio (y) = 0.26508 0.31177
# Poissons Ratio (z) = 0.44240 0.44240
#
# Static dielectric constant tensor:
#      x y z
#    x 3.150420 0.000000 0.000000 
#    y 0.000000 3.150420 0.000000 
#    z 0.000000 0.000000 3.370080 
# 
# 
# High freq. dielectric constant tensor:
#      x y z
#    x 1.631280 0.000000 0.000000 
#    y 0.000000 1.631280 0.000000 
#    z 0.000000 0.000000 1.654410 
# 
# From -- ./inp_files/5688.got.cif
#   From: 2010.03.12/outbox.cif.g09.slc.cpg/sg142_3_cif.got.tgz:5688.got - 2010.04.03 13:27:16.
