data_PCOD8320080
_publ_section_title
;
Structure prediction by ZEFSAII (Michael W. Deem and Ramdas Pophale) SiO2 
 PCOD8320080
Probable space group: I 4/M C M
;
_chemical_formula_sum "Si O2"
_cell_formula_units_Z 112
_cell_length_a 25.376052
_cell_length_b 25.376052
_cell_length_c 8.614862
_cell_angle_alpha 90.000000
_cell_angle_beta 90.000000
_cell_angle_gamma 90.000000
_cell_volume 5547.488826
_symmetry_space_group_name_H-M "I 4/M C M"
_symmetry_group_IT_number 140
_symmetry_cell_setting 'tetragonal'
loop_
_space_group_symop_operation_xyz
x,y,z
-y,x,z
-x,-y,z
y,-x,z
x,-y,1/2-z
-x,y,1/2-z
y,x,1/2-z
-y,-x,1/2-z
-x,-y,-z
y,-x,-z
x,y,-z
-y,x,-z
-x,y,1/2+z
x,-y,1/2+z
-y,-x,1/2+z
y,x,1/2+z
1/2+x,1/2+y,1/2+z
1/2-y,1/2+x,1/2+z
1/2-x,1/2-y,1/2+z
1/2+y,1/2-x,1/2+z
1/2+x,1/2-y,-z
1/2-x,1/2+y,-z
1/2+y,1/2+x,-z
1/2-y,1/2-x,-z
1/2-x,1/2-y,1/2-z
1/2+y,1/2-x,1/2-z
1/2+x,1/2+y,1/2-z
1/2-y,1/2+x,1/2-z
1/2-x,1/2+y,z
1/2+x,1/2-y,z
1/2-y,1/2-x,z
1/2+y,1/2+x,z
loop_
_atom_site_type_symbol
_atom_site_label
_atom_site_fract_x
_atom_site_fract_y
_atom_site_fract_z
Si Si1 0.754618 0.596675 0.183773
Si Si2 0.446272 0.862920 0.816798
Si Si3 0.557903 0.641177 0.685484
Si Si4 0.290315 0.209686 0.684537
O O1 0.801990 0.558360 0.237297
O O2 0.698525 0.576689 0.249703
O O3 0.771274 0.653527 0.250492
O O4 0.750331 0.599400 0.000000
O O5 0.500000 0.886858 0.750000
O O6 0.397272 0.897272 0.752861
O O7 0.447207 0.866607 0.000000
O O8 0.500000 0.628950 0.750000
O O9 0.597439 0.597439 0.750000
O O10 0.557203 0.639130 0.500000
O O11 0.250000 0.250000 0.750000
O O12 0.291929 0.208072 0.500000
#
# Coordination Sequence:
#
# PCOD8320080 Si02
#       4
#    32  32  32  16
#     4   9  18  35  59  84 114 152 191 231 283 345
#     4  10  20  36  57  80 110 150 193 236 285 337
#     4  11  23  40  62  89 119 154 195 241 291 347
#     4  10  18  32  54  82 115 150 185 223 276 337
#
# _framework density 20.189314
#
# number of rings (size 3 to 8) (size 9 to 14) (size 15 to 20)
#    0.000    2.000    1.429    2.571    0.000    1.143 
#    0.000    7.143    0.000    0.000    0.000    0.000 
#    0.000    0.000    0.000    0.000    0.000    0.000 
#
# Total GULP energy -694190.294811 kJ/mol
# GULP energy per Si atom -12396.255264 kJ/mol
# Density = 2.014336 g / cm^3
# Si number density = 20.189314 Si / 1000 Ang^3
#
#
#
# Elastic Constant Matrix: (Units=GPa)
#
#
# Indices 1 2 3 4 5 6 
#
# 1 168.4600 83.9026 31.4547 0.0000 0.0000 0.0000
# 2 83.9026 168.4602 31.4547 0.0000 0.0000 0.0000
# 3 31.4547 31.4547 33.8766 0.0000 0.0000 0.0000
# 4 0.0000 0.0000 0.0000 24.3155 0.0000 0.0000
# 5 0.0000 0.0000 0.0000 0.0000 24.3155 0.0000
# 6 0.0000 0.0000 0.0000 0.0000 0.0000 -133.9165
#
#
#
# Elastic Compliance Matrix: (Units=1/GPa)
#
#
# Indices 1 2 3 4 5 6 
#
# 1 0.008491 -0.003335 -0.004787 0.000000 0.000000 0.000000
# 2 -0.003335 0.008491 -0.004787 0.000000 0.000000 0.000000
# 3 -0.004787 -0.004787 0.038409 0.000000 0.000000 0.000000
# 4 0.000000 0.000000 0.000000 0.041126 0.000000 0.000000
# 5 0.000000 0.000000 0.000000 0.000000 0.041126 0.000000
# 6 0.000000 0.000000 0.000000 0.000000 0.000000 -0.007467
#
#
# Mechanical properties :
#
#
# Convention : Reuss Voigt Hill
#
# Bulk Modulus (GPa) = 33.81624 73.82455 53.82039
# Shear Modulus (GPa) = 30.14719 -2.12479 14.01120
#
# Velocity S-wave (km/s) = 3.86842 -1.02699 2.63723
# Velocity P-wave (km/s) = 6.06126 5.93627 5.99909
#
# Compressibility (1/GPa) = 0.02957159
#
# Stress axis : x y z
#
# Youngs Moduli (GPa) = 117.77015 117.77028 26.03551
#
# Poissons Ratio (x) = 0.39278 0.12464
# Poissons Ratio (y) = 0.39278 0.12464
# Poissons Ratio (z) = 0.56381 0.56381
#
# Static dielectric constant tensor:
#      x y z
#    x 3.637890 0.000000 0.000000 
#    y 0.000000 3.637900 0.000000 
#    z 0.000000 0.000000 3.026050 
# 
# 
# High freq. dielectric constant tensor:
#      x y z
#    x 1.802150 0.000000 0.000000 
#    y 0.000000 1.802150 0.000000 
#    z 0.000000 0.000000 1.752180 
# 
# From -- ./inp_files/2803.got.cif
#   From: 2010.06.25/outbox.cif.g09.slc.cpg/sg140_2_cif.got.tgz:2803.got - 2010.06.28 10:53:23.
