data_PCOD8320730
_publ_section_title
;
Structure prediction by ZEFSAII (Michael W. Deem and Ramdas Pophale) SiO2 
 PCOD8320730
Probable space group: I 41/A M D
;
_chemical_formula_sum "Si O2"
_cell_formula_units_Z 160
_cell_length_a 26.235189
_cell_length_b 26.235189
_cell_length_c 12.265585
_cell_angle_alpha 90.000000
_cell_angle_beta 90.000000
_cell_angle_gamma 90.000000
_cell_volume 8442.219912
_symmetry_space_group_name_H-M "I 41/A M D"
_symmetry_group_IT_number 141
_space_group.IT_coordinate_system_code '2'
_symmetry_cell_setting 'tetragonal'
loop_
_space_group_symop_operation_xyz
x,y,z
1/4-y,3/4+x,1/4+z
-x,1/2-y,z
1/4+y,1/4-x,3/4+z
x,-y,-z
-x,1/2+y,-z
1/4+y,3/4+x,1/4-z
1/4-y,1/4-x,3/4-z
-x,-y,-z
3/4+y,1/4-x,3/4-z
x,1/2+y,-z
3/4-y,3/4+x,1/4-z
-x,y,z
x,1/2-y,z
3/4-y,1/4-x,3/4+z
3/4+y,3/4+x,1/4+z
1/2+x,1/2+y,1/2+z
3/4-y,1/4+x,3/4+z
1/2-x,-y,1/2+z
3/4+y,3/4-x,1/4+z
1/2+x,1/2-y,1/2-z
1/2-x,y,1/2-z
3/4+y,1/4+x,3/4-z
3/4-y,3/4-x,1/4-z
1/2-x,1/2-y,1/2-z
1/4+y,3/4-x,1/4-z
1/2+x,y,1/2-z
1/4-y,1/4+x,3/4-z
1/2-x,1/2+y,1/2+z
1/2+x,-y,1/2+z
1/4-y,3/4-x,1/4+z
1/4+y,1/4+x,3/4+z
loop_
_atom_site_type_symbol
_atom_site_label
_atom_site_fract_x
_atom_site_fract_y
_atom_site_fract_z
Si Si1 0.380905 0.056264 0.268878
Si Si2 0.612077 0.055117 0.648068
Si Si3 0.441211 0.114800 0.829676
Si Si4 0.892580 0.059035 0.482609
Si Si5 0.440837 0.896539 0.549311
O O1 0.399322 0.064069 0.145977
O O2 0.327857 0.087731 0.279873
O O3 0.428050 0.080158 0.333838
O O4 0.369432 0.001402 0.321089
O O5 0.662866 0.087135 0.625000
O O6 0.577624 0.070154 0.750713
O O7 0.577678 0.062329 0.540647
O O8 0.500000 0.128436 0.810965
O O9 0.408761 0.164143 0.793331
O O10 0.433842 0.094114 0.953509
O O11 0.900375 0.000000 0.500000
O O12 0.500000 0.886932 0.534636
#
# Coordination Sequence:
#
# PCOD8320730 Si02
#       5
#    32  32  32  32  32
#     4  10  21  37  57  81 113 149 184 229 278 334
#     4  10  20  37  56  82 117 148 187 229 274 335
#     4  10  21  37  59  84 109 144 190 237 283 334
#     4  10  20  39  57  81 114 144 187 234 275 331
#     4  10  22  38  56  81 115 149 185 235 286 335
#
# _framework density 18.952361
#
# number of rings (size 3 to 8) (size 9 to 14) (size 15 to 20)
#    0.000    2.000    2.000    1.200    0.000    4.000 
#    3.600    0.000    0.000    3.600    0.000    5.600 
#    0.000    0.000    0.000    0.000    0.000    0.000 
#
# Total GULP energy -991278.818342 kJ/mol
# GULP energy per Si atom -12390.985229 kJ/mol
# Density = 1.890922 g / cm^3
# Si number density = 18.952361 Si / 1000 Ang^3
#
#
#
# Elastic Constant Matrix: (Units=GPa)
#
#
# Indices 1 2 3 4 5 6 
#
# 1 107.7210 31.6905 30.8935 0.0000 0.0000 0.0000
# 2 31.6905 107.7194 30.8949 0.0000 0.0000 0.0000
# 3 30.8935 30.8949 81.2012 0.0000 0.0000 0.0000
# 4 0.0000 0.0000 0.0000 18.0690 0.0000 0.0000
# 5 0.0000 0.0000 0.0000 0.0000 18.0708 0.0000
# 6 0.0000 0.0000 0.0000 0.0000 0.0000 11.3391
#
#
#
# Elastic Compliance Matrix: (Units=1/GPa)
#
#
# Indices 1 2 3 4 5 6 
#
# 1 0.010890 -0.002262 -0.003282 0.000000 0.000000 0.000000
# 2 -0.002262 0.010891 -0.003283 0.000000 0.000000 0.000000
# 3 -0.003282 -0.003283 0.014813 0.000000 0.000000 0.000000
# 4 0.000000 0.000000 0.000000 0.055343 0.000000 0.000000
# 5 0.000000 0.000000 0.000000 0.000000 0.055338 0.000000
# 6 0.000000 0.000000 0.000000 0.000000 0.000000 0.088191
#
#
# Mechanical properties :
#
#
# Convention : Reuss Voigt Hill
#
# Bulk Modulus (GPa) = 52.80303 53.73329 53.26816
# Shear Modulus (GPa) = 19.27275 23.03996 21.15635
#
# Velocity S-wave (km/s) = 3.19235 3.49044 3.34472
# Velocity P-wave (km/s) = 6.44279 6.68263 6.56381
#
# Compressibility (1/GPa) = 0.01893831
#
# Stress axis : x y z
#
# Youngs Moduli (GPa) = 91.82569 91.82307 67.50854
#
# Poissons Ratio (x) = 0.20774 0.22159
# Poissons Ratio (y) = 0.20775 0.22162
# Poissons Ratio (z) = 0.30141 0.30144
#
# Static dielectric constant tensor:
#      x y z
#    x 3.367460 0.000000 0.000000 
#    y 0.000000 3.367470 0.000000 
#    z 0.000000 0.000000 4.388000 
# 
# 
# High freq. dielectric constant tensor:
#      x y z
#    x 1.724140 0.000000 0.000000 
#    y 0.000000 1.724140 0.000000 
#    z 0.000000 0.000000 1.759910 
# 
# From -- ./inp_files/4831.got.cif
#   From: 2010.03.12/outbox.cif.g09.slc.cpg/sg141_3_cif.got.tgz:4831.got - 2010.04.03 13:18:35.
