data_PCOD8320810
_publ_section_title
;
Structure prediction by ZEFSAII (Michael W. Deem and Ramdas Pophale) SiO2 
 PCOD8320810
Probable space group: I 41/A M D
;
_chemical_formula_sum "Si O2"
_cell_formula_units_Z 160
_cell_length_a 26.707162
_cell_length_b 26.707162
_cell_length_c 12.117642
_cell_angle_alpha 90.000000
_cell_angle_beta 90.000000
_cell_angle_gamma 90.000000
_cell_volume 8643.180829
_symmetry_space_group_name_H-M "I 41/A M D"
_symmetry_group_IT_number 141
_space_group.IT_coordinate_system_code '2'
_symmetry_cell_setting 'tetragonal'
loop_
_space_group_symop_operation_xyz
x,y,z
1/4-y,3/4+x,1/4+z
-x,1/2-y,z
1/4+y,1/4-x,3/4+z
x,-y,-z
-x,1/2+y,-z
1/4+y,3/4+x,1/4-z
1/4-y,1/4-x,3/4-z
-x,-y,-z
3/4+y,1/4-x,3/4-z
x,1/2+y,-z
3/4-y,3/4+x,1/4-z
-x,y,z
x,1/2-y,z
3/4-y,1/4-x,3/4+z
3/4+y,3/4+x,1/4+z
1/2+x,1/2+y,1/2+z
3/4-y,1/4+x,3/4+z
1/2-x,-y,1/2+z
3/4+y,3/4-x,1/4+z
1/2+x,1/2-y,1/2-z
1/2-x,y,1/2-z
3/4+y,1/4+x,3/4-z
3/4-y,3/4-x,1/4-z
1/2-x,1/2-y,1/2-z
1/4+y,3/4-x,1/4-z
1/2+x,y,1/2-z
1/4-y,1/4+x,3/4-z
1/2-x,1/2+y,1/2+z
1/2+x,-y,1/2+z
1/4-y,3/4-x,1/4+z
1/4+y,1/4+x,3/4+z
loop_
_atom_site_type_symbol
_atom_site_label
_atom_site_fract_x
_atom_site_fract_y
_atom_site_fract_z
Si Si1 0.675703 0.250000 0.934703
Si Si2 0.395289 0.577018 0.174199
Si Si3 0.766221 0.906043 0.627236
Si Si4 0.360930 0.352158 0.022473
Si Si5 0.857412 0.750000 0.192292
Si Si6 0.711595 0.750000 0.519313
Si Si7 0.100292 0.649709 0.125000
O O1 0.676514 0.250000 0.802107
O O2 0.644384 0.202273 0.972592
O O3 0.730198 0.250000 0.988164
O O4 0.352958 0.534130 0.192521
O O5 0.450714 0.552580 0.159392
O O6 0.392588 0.607231 0.285723
O O7 0.382018 0.610357 0.069162
O O8 0.750000 0.888817 0.750000
O O9 0.786210 0.963791 0.625000
O O10 0.808767 0.871480 0.573645
O O11 0.399877 0.350123 0.125000
O O12 0.894650 0.797173 0.185749
O O13 0.818373 0.750000 0.093884
#
# Coordination Sequence:
#
# PCOD8320810 Si02
#       7
#    16  32  32  32  16  16  16
#     4  12  21  39  67  92 123 167 207 257 325 359
#     4  11  21  42  58  93 126 163 211 261 313 368
#     4  11  21  39  61  82 124 168 209 255 303 371
#     4  11  23  39  63  90 128 161 203 265 313 376
#     4  10  21  39  62  95 124 161 207 259 317 373
#     4  10  23  35  67  93 121 162 220 263 300 375
#     4  10  22  39  64  90 130 160 204 264 312 384
#
# _framework density 18.511703000000001
#
# number of rings (size 3 to 8) (size 9 to 14) (size 15 to 20)
#    0.000    1.200    8.000    0.300    0.000    1.000 
#    1.800    3.000    0.000    2.100    0.000    0.000 
#    0.000    0.000    0.000    0.000    0.000    0.000 
#
# Total GULP energy -991521.462179 kJ/mol
# GULP energy per Si atom -12394.018277 kJ/mol
# Density = 1.846957 g / cm^3
# Si number density = 18.511703 Si / 1000 Ang^3
#
#
#
# Elastic Constant Matrix: (Units=GPa)
#
#
# Indices 1 2 3 4 5 6 
#
# 1 125.5759 66.6385 45.4462 0.0000 0.0000 0.0000
# 2 66.6385 125.5752 45.4465 0.0000 0.0000 0.0000
# 3 45.4462 45.4465 94.8956 0.0000 0.0000 0.0000
# 4 0.0000 0.0000 0.0000 27.6634 0.0000 0.0000
# 5 0.0000 0.0000 0.0000 0.0000 27.6637 0.0000
# 6 0.0000 0.0000 0.0000 0.0000 0.0000 24.5213
#
#
#
# Elastic Compliance Matrix: (Units=1/GPa)
#
#
# Indices 1 2 3 4 5 6 
#
# 1 0.011846 -0.005121 -0.003221 0.000000 0.000000 0.000000
# 2 -0.005121 0.011847 -0.003221 0.000000 0.000000 0.000000
# 3 -0.003221 -0.003221 0.013623 0.000000 0.000000 0.000000
# 4 0.000000 0.000000 0.000000 0.036149 0.000000 0.000000
# 5 0.000000 0.000000 0.000000 0.000000 0.036148 0.000000
# 6 0.000000 0.000000 0.000000 0.000000 0.000000 0.040781
#
#
# Mechanical properties :
#
#
# Convention : Reuss Voigt Hill
#
# Bulk Modulus (GPa) = 70.47017 73.45657 71.96337
# Shear Modulus (GPa) = 28.05054 28.53738 28.29396
#
# Velocity S-wave (km/s) = 3.89689 3.93056 3.91376
# Velocity P-wave (km/s) = 7.64187 7.76958 7.70599
#
# Compressibility (1/GPa) = 0.01419040
#
# Stress axis : x y z
#
# Youngs Moduli (GPa) = 84.41380 84.41303 73.40525
#
# Poissons Ratio (x) = 0.43226 0.23643
# Poissons Ratio (y) = 0.43227 0.23644
# Poissons Ratio (z) = 0.27189 0.27190
#
# Static dielectric constant tensor:
#      x y z
#    x 3.643770 0.000000 0.000000 
#    y 0.000000 3.643790 0.000000 
#    z 0.000000 0.000000 3.513750 
# 
# 
# High freq. dielectric constant tensor:
#      x y z
#    x 1.717230 0.000000 0.000000 
#    y 0.000000 1.717230 0.000000 
#    z 0.000000 0.000000 1.727200 
# 
# From -- ./inp_files/4960.got.cif
#   From: 2010.03.12/outbox.cif.g09.slc.cpg/sg141_3_cif.got.tgz:4960.got - 2010.04.03 13:18:35.
