data_PCOD8320853
_publ_section_title
;
Structure prediction by ZEFSAII (Michael W. Deem and Ramdas Pophale) SiO2 
 PCOD8320853
Probable space group: I 41/A M D
;
_chemical_formula_sum "Si O2"
_cell_formula_units_Z 68
_cell_length_a 11.815654
_cell_length_b 11.815654
_cell_length_c 26.223269
_cell_angle_alpha 90.000000
_cell_angle_beta 90.000000
_cell_angle_gamma 90.000000
_cell_volume 3661.022179
_symmetry_space_group_name_H-M "I 41/A M D"
_symmetry_group_IT_number 141
_space_group.IT_coordinate_system_code '2'
_symmetry_cell_setting 'tetragonal'
loop_
_space_group_symop_operation_xyz
x,y,z
1/4-y,3/4+x,1/4+z
-x,1/2-y,z
1/4+y,1/4-x,3/4+z
x,-y,-z
-x,1/2+y,-z
1/4+y,3/4+x,1/4-z
1/4-y,1/4-x,3/4-z
-x,-y,-z
3/4+y,1/4-x,3/4-z
x,1/2+y,-z
3/4-y,3/4+x,1/4-z
-x,y,z
x,1/2-y,z
3/4-y,1/4-x,3/4+z
3/4+y,3/4+x,1/4+z
1/2+x,1/2+y,1/2+z
3/4-y,1/4+x,3/4+z
1/2-x,-y,1/2+z
3/4+y,3/4-x,1/4+z
1/2+x,1/2-y,1/2-z
1/2-x,y,1/2-z
3/4+y,1/4+x,3/4-z
3/4-y,3/4-x,1/4-z
1/2-x,1/2-y,1/2-z
1/4+y,3/4-x,1/4-z
1/2+x,y,1/2-z
1/4-y,1/4+x,3/4-z
1/2-x,1/2+y,1/2+z
1/2+x,-y,1/2+z
1/4-y,3/4-x,1/4+z
1/4+y,1/4+x,3/4+z
loop_
_atom_site_type_symbol
_atom_site_label
_atom_site_fract_x
_atom_site_fract_y
_atom_site_fract_z
Si Si1 0.000000 0.750000 0.625000
Si Si2 0.235184 0.250000 0.431415
Si Si3 0.693910 0.124717 0.870550
Si Si4 0.373528 0.250000 0.963643
O O1 0.000000 0.860630 0.659082
O O2 0.302354 0.361254 0.414833
O O3 0.221026 0.250000 0.492435
O O4 0.710933 0.250000 0.846023
O O5 0.642570 0.138736 0.927758
O O6 0.814677 0.064677 0.875000
O O7 0.500000 0.250000 0.986751
#
# Coordination Sequence:
#
# PCOD8320853 Si02
#       4
#     4  16  32  16
#     4  12  24  32  64 104 124 140 212 276 316 428
#     4  12  21  41  66 100 128 169 214 276 349 384
#     4  10  22  43  64  90 138 172 215 284 322 392
#     4  10  22  41  68  95 128 179 213 274 352 386
#
# _framework density 18.574048999999999
#
# number of rings (size 3 to 8) (size 9 to 14) (size 15 to 20)
#    1.412    0.000    5.882    0.706    0.000    2.353 
#    0.000   11.765    0.000    0.000    0.000    0.000 
#    0.000    0.000    0.000    0.000    0.000    0.000 
#
# Total GULP energy -421391.018778 kJ/mol
# GULP energy per Si atom -12393.853493 kJ/mol
# Density = 1.853177 g / cm^3
# Si number density = 18.574049 Si / 1000 Ang^3
#
#
#
# Elastic Constant Matrix: (Units=GPa)
#
#
# Indices 1 2 3 4 5 6 
#
# 1 140.9129 60.0644 40.5941 0.0000 0.0000 0.0000
# 2 60.0644 140.9129 40.5941 0.0000 0.0000 0.0000
# 3 40.5941 40.5941 119.0120 0.0000 0.0000 0.0000
# 4 0.0000 0.0000 0.0000 12.6990 0.0000 0.0000
# 5 0.0000 0.0000 0.0000 0.0000 12.6990 0.0000
# 6 0.0000 0.0000 0.0000 0.0000 0.0000 38.3962
#
#
#
# Elastic Compliance Matrix: (Units=1/GPa)
#
#
# Indices 1 2 3 4 5 6 
#
# 1 0.009070 -0.003299 -0.001968 0.000000 0.000000 0.000000
# 2 -0.003299 0.009070 -0.001968 0.000000 0.000000 0.000000
# 3 -0.001968 -0.001968 0.009745 0.000000 0.000000 0.000000
# 4 0.000000 0.000000 0.000000 0.078746 0.000000 0.000000
# 5 0.000000 0.000000 0.000000 0.000000 0.078746 0.000000
# 6 0.000000 0.000000 0.000000 0.000000 0.000000 0.026044
#
#
# Mechanical properties :
#
#
# Convention : Reuss Voigt Hill
#
# Bulk Modulus (GPa) = 74.55201 75.92699 75.23950
# Shear Modulus (GPa) = 21.70474 30.06453 25.88463
#
# Velocity S-wave (km/s) = 3.42212 4.02759 3.73713
# Velocity P-wave (km/s) = 7.47258 7.91172 7.69528
#
# Compressibility (1/GPa) = 0.01341345
#
# Stress axis : x y z
#
# Youngs Moduli (GPa) = 110.25563 110.25563 102.61332
#
# Poissons Ratio (x) = 0.36373 0.20198
# Poissons Ratio (y) = 0.36373 0.20198
# Poissons Ratio (z) = 0.21703 0.21703
#
# Static dielectric constant tensor:
#      x y z
#    x 3.377260 0.000000 0.000000 
#    y 0.000000 3.377260 0.000000 
#    z 0.000000 0.000000 3.229860 
# 
# 
# High freq. dielectric constant tensor:
#      x y z
#    x 1.723160 0.000000 0.000000 
#    y 0.000000 1.723160 0.000000 
#    z 0.000000 0.000000 1.704880 
# 
# From -- ./inp_files/12254.got.cif
#   From: 2010.03.12/outbox.cif.g09.slc.cpg/sg141_7_cif.got.tgz:12254.got - 2010.04.03 13:18:35.
