data_PCOD8320480
_publ_section_title
;
Structure prediction by ZEFSAII (Michael W. Deem and Ramdas Pophale) SiO2 
 PCOD8320480
Probable space group: I 4/M C M
;
_chemical_formula_sum "Si O2"
_cell_formula_units_Z 224
_cell_length_a 24.702196
_cell_length_b 24.702196
_cell_length_c 23.702421
_cell_angle_alpha 90.000000
_cell_angle_beta 90.000000
_cell_angle_gamma 90.000000
_cell_volume 14463.181438
_symmetry_space_group_name_H-M "I 4/M C M"
_symmetry_group_IT_number 140
_symmetry_cell_setting 'tetragonal'
loop_
_space_group_symop_operation_xyz
x,y,z
-y,x,z
-x,-y,z
y,-x,z
x,-y,1/2-z
-x,y,1/2-z
y,x,1/2-z
-y,-x,1/2-z
-x,-y,-z
y,-x,-z
x,y,-z
-y,x,-z
-x,y,1/2+z
x,-y,1/2+z
-y,-x,1/2+z
y,x,1/2+z
1/2+x,1/2+y,1/2+z
1/2-y,1/2+x,1/2+z
1/2-x,1/2-y,1/2+z
1/2+y,1/2-x,1/2+z
1/2+x,1/2-y,-z
1/2-x,1/2+y,-z
1/2+y,1/2+x,-z
1/2-y,1/2-x,-z
1/2-x,1/2-y,1/2-z
1/2+y,1/2-x,1/2-z
1/2+x,1/2+y,1/2-z
1/2-y,1/2+x,1/2-z
1/2-x,1/2+y,z
1/2+x,1/2-y,z
1/2-y,1/2-x,z
1/2+y,1/2+x,z
loop_
_atom_site_type_symbol
_atom_site_label
_atom_site_fract_x
_atom_site_fract_y
_atom_site_fract_z
Si Si1 0.297687 0.115320 0.060468
Si Si2 0.642935 0.941926 0.500000
Si Si3 0.033677 0.621250 0.300819
Si Si4 0.260382 0.330428 0.879191
Si Si5 0.842315 0.250743 0.165199
Si Si6 0.731298 0.139676 0.000000
Si Si7 0.884736 0.527885 0.589095
Si Si8 0.382174 0.208565 0.278488
O O1 0.326378 0.173623 0.059306
O O2 0.258786 0.114327 0.114486
O O3 0.341820 0.069119 0.064902
O O4 0.266943 0.107523 0.000000
O O5 0.615902 0.884099 0.500000
O O6 0.705927 0.921977 0.500000
O O7 0.621578 0.973286 0.445713
O O8 0.079323 0.579323 0.322120
O O9 0.060289 0.677817 0.280075
O O10 0.000000 0.595301 0.250000
O O11 0.988346 0.630591 0.347878
O O12 0.216198 0.283803 0.881829
O O13 0.314491 0.306397 0.850024
O O14 0.241327 0.378038 0.837154
O O15 0.268095 0.353742 0.943007
O O16 0.798332 0.298332 0.167846
O O17 0.875568 0.251080 0.224393
O O18 0.686175 0.186175 0.000000
O O19 0.944733 0.555268 0.585328
O O20 0.334828 0.165173 0.274114
#
# Coordination Sequence:
#
# PCOD8320480 Si02
#       8
#    32  16  32  32  32  16  32  32
#     4   9  17  29  42  58  80 100 125 167 216 261
#     4  11  21  32  44  56  74 104 139 178 223 265
#     4  11  22  33  45  58  77 104 139 185 233 269
#     4   9  16  26  42  61  82 101 122 151 193 256
#     4   9  16  25  43  63  79  99 122 151 198 259
#     4   9  18  29  39  57  80 102 127 160 206 254
#     4  11  21  33  45  58  75 103 141 184 229 268
#     4   9  17  30  42  58  80 103 128 161 208 259
#
# _framework density 15.487603
#
# number of rings (size 3 to 8) (size 9 to 14) (size 15 to 20)
#    0.000    2.286    0.714    3.214    1.000    8.429 
#    0.000    0.000    0.000    0.000    0.000    0.000 
#    0.000    0.000    0.000    0.000    0.000    0.000 
#
# Total GULP energy -1387485.471580 kJ/mol
# GULP energy per Si atom -12388.263139 kJ/mol
# Density = 1.545235 g / cm^3
# Si number density = 15.487603 Si / 1000 Ang^3
#
#
#
# Elastic Constant Matrix: (Units=GPa)
#
#
# Indices 1 2 3 4 5 6 
#
# 1 25.1419 24.6332 18.4389 0.0000 0.0000 0.0000
# 2 24.6332 25.1418 18.4391 0.0000 0.0000 0.0000
# 3 18.4389 18.4391 125.6184 0.0000 0.0000 0.0000
# 4 0.0000 0.0000 0.0000 9.6155 0.0000 0.0000
# 5 0.0000 0.0000 0.0000 0.0000 9.6266 0.0000
# 6 0.0000 0.0000 0.0000 0.0000 0.0000 18.3843
#
#
#
# Elastic Compliance Matrix: (Units=1/GPa)
#
#
# Indices 1 2 3 4 5 6 
#
# 1 0.994298 -0.971759 -0.003307 0.000000 0.000000 0.000000
# 2 -0.971759 0.994304 -0.003310 0.000000 0.000000 0.000000
# 3 -0.003307 -0.003310 0.008932 0.000000 0.000000 0.000000
# 4 0.000000 0.000000 0.000000 0.103999 0.000000 0.000000
# 5 0.000000 0.000000 0.000000 0.000000 0.103879 0.000000
# 6 0.000000 0.000000 0.000000 0.000000 0.000000 0.054394
#
#
# Mechanical properties :
#
#
# Convention : Reuss Voigt Hill
#
# Bulk Modulus (GPa) = 24.52156 33.21383 28.86769
# Shear Modulus (GPa) = 1.18199 15.15133 8.16666
#
# Velocity S-wave (km/s) = 0.87455 3.13115 2.29880
# Velocity P-wave (km/s) = 4.10940 5.87913 5.07205
#
# Compressibility (1/GPa) = 0.04078044
#
# Stress axis : x y z
#
# Youngs Moduli (GPa) = 1.00573 1.00573 111.95706
#
# Poissons Ratio (x) = 0.97733 0.37027
# Poissons Ratio (y) = 0.97733 0.37062
# Poissons Ratio (z) = 0.00333 0.00333
#
# Static dielectric constant tensor:
#      x y z
#    x 2.694070 0.000000 0.000000 
#    y 0.000000 2.694070 0.000000 
#    z 0.000000 0.000000 3.383400 
# 
# 
# High freq. dielectric constant tensor:
#      x y z
#    x 1.544890 0.000000 0.000000 
#    y 0.000000 1.544890 0.000000 
#    z 0.000000 0.000000 1.626030 
# 
# From -- ./inp_files/10040.got.cif
#   From: 2010.06.25/outbox.cif.g09.slc.cpg/sg140_6_cif.got.tgz:10040.got - 2010.06.28 10:53:23.
