data_PCOD8320767
_publ_section_title
;
Structure prediction by ZEFSAII (Michael W. Deem and Ramdas Pophale) SiO2 
 PCOD8320767
Probable space group: I 41/A M D
;
_chemical_formula_sum "Si O2"
_cell_formula_units_Z 64
_cell_length_a 9.241764
_cell_length_b 9.241764
_cell_length_c 40.916593
_cell_angle_alpha 90.000000
_cell_angle_beta 90.000000
_cell_angle_gamma 90.000000
_cell_volume 3494.694466
_symmetry_space_group_name_H-M "I 41/A M D"
_symmetry_group_IT_number 141
_space_group.IT_coordinate_system_code '2'
_symmetry_cell_setting 'tetragonal'
loop_
_space_group_symop_operation_xyz
x,y,z
1/4-y,3/4+x,1/4+z
-x,1/2-y,z
1/4+y,1/4-x,3/4+z
x,-y,-z
-x,1/2+y,-z
1/4+y,3/4+x,1/4-z
1/4-y,1/4-x,3/4-z
-x,-y,-z
3/4+y,1/4-x,3/4-z
x,1/2+y,-z
3/4-y,3/4+x,1/4-z
-x,y,z
x,1/2-y,z
3/4-y,1/4-x,3/4+z
3/4+y,3/4+x,1/4+z
1/2+x,1/2+y,1/2+z
3/4-y,1/4+x,3/4+z
1/2-x,-y,1/2+z
3/4+y,3/4-x,1/4+z
1/2+x,1/2-y,1/2-z
1/2-x,y,1/2-z
3/4+y,1/4+x,3/4-z
3/4-y,3/4-x,1/4-z
1/2-x,1/2-y,1/2-z
1/4+y,3/4-x,1/4-z
1/2+x,y,1/2-z
1/4-y,1/4+x,3/4-z
1/2-x,1/2+y,1/2+z
1/2+x,-y,1/2+z
1/4-y,3/4-x,1/4+z
1/4+y,1/4+x,3/4+z
loop_
_atom_site_type_symbol
_atom_site_label
_atom_site_fract_x
_atom_site_fract_y
_atom_site_fract_z
Si Si1 0.834003 0.918587 0.032081
Si Si2 0.832744 0.579948 0.846722
O O1 0.815572 0.750000 0.025277
O O2 0.738096 0.969263 0.062581
O O3 0.000000 0.960055 0.039630
O O4 0.776837 0.000000 0.000000
O O5 0.735500 0.514501 0.875000
O O6 0.807259 0.750000 0.845055
O O7 0.000000 0.540726 0.853529
#
# Coordination Sequence:
#
# PCOD8320767 Si02
#       2
#    32  32
#     4   9  18  33  53  76 102 134 172 212 254 303
#     4  10  21  36  54  77 105 138 176 216 259 308
#
# _framework density 18.313473999999999
#
# number of rings (size 3 to 8) (size 9 to 14) (size 15 to 20)
#    0.000    2.500    0.000    1.500    0.000    6.000 
#    0.000    5.000    0.000    0.000    0.000    0.000 
#    0.000    0.000    0.000    0.000    0.000    0.000 
#
# Total GULP energy -396923.785034 kJ/mol
# GULP energy per Si atom -12403.868282 kJ/mol
# Density = 1.827179 g / cm^3
# Si number density = 18.313474 Si / 1000 Ang^3
#
#
#
# Elastic Constant Matrix: (Units=GPa)
#
#
# Indices 1 2 3 4 5 6 
#
# 1 74.5450 46.7688 79.1119 0.0000 0.0000 0.0000
# 2 46.7688 74.5421 79.1078 0.0000 0.0000 0.0000
# 3 79.1119 79.1078 183.9791 0.0000 0.0000 0.0000
# 4 0.0000 0.0000 0.0000 35.4073 0.0000 0.0000
# 5 0.0000 0.0000 0.0000 0.0000 35.4072 0.0000
# 6 0.0000 0.0000 0.0000 0.0000 0.0000 23.4671
#
#
#
# Elastic Compliance Matrix: (Units=1/GPa)
#
#
# Indices 1 2 3 4 5 6 
#
# 1 0.027387 -0.008617 -0.008071 0.000000 0.000000 0.000000
# 2 -0.008617 0.027386 -0.008070 0.000000 0.000000 0.000000
# 3 -0.008071 -0.008070 0.012376 0.000000 0.000000 0.000000
# 4 0.000000 0.000000 0.000000 0.028243 0.000000 0.000000
# 5 0.000000 0.000000 0.000000 0.000000 0.028243 0.000000
# 6 0.000000 0.000000 0.000000 0.000000 0.000000 0.042613
#
#
# Mechanical properties :
#
#
# Convention : Reuss Voigt Hill
#
# Bulk Modulus (GPa) = 56.71544 82.56037 69.63791
# Shear Modulus (GPa) = 22.55890 27.39483 24.97687
#
# Velocity S-wave (km/s) = 3.51354 3.87186 3.69704
# Velocity P-wave (km/s) = 6.89176 8.07267 7.50548
#
# Compressibility (1/GPa) = 0.01763188
#
# Stress axis : x y z
#
# Youngs Moduli (GPa) = 36.51400 36.51461 80.80124
#
# Poissons Ratio (x) = 0.31466 0.65216
# Poissons Ratio (y) = 0.31465 0.65208
# Poissons Ratio (z) = 0.29471 0.29468
#
# Static dielectric constant tensor:
#      x y z
#    x 3.330870 0.000000 0.000000 
#    y 0.000000 3.330870 0.000000 
#    z 0.000000 0.000000 3.517270 
# 
# 
# High freq. dielectric constant tensor:
#      x y z
#    x 1.704500 0.000000 0.000000 
#    y 0.000000 1.704500 0.000000 
#    z 0.000000 0.000000 1.721160 
# 
# From -- ./inp_files/10803.got.cif
#   From: 2010.03.12/outbox.cif.g09.slc.cpg/sg141_6_cif.got.tgz:10803.got - 2010.04.03 13:18:35.
