data_PCOD8320502
_publ_section_title
;
Structure prediction by ZEFSAII (Michael W. Deem and Ramdas Pophale) SiO2 
 PCOD8320502
Probable space group: I 4/M C M
;
_chemical_formula_sum "Si O2"
_cell_formula_units_Z 192
_cell_length_a 19.697976
_cell_length_b 19.697976
_cell_length_c 24.171005
_cell_angle_alpha 90.000000
_cell_angle_beta 90.000000
_cell_angle_gamma 90.000000
_cell_volume 9378.597898
_symmetry_space_group_name_H-M "I 4/M C M"
_symmetry_group_IT_number 140
_symmetry_cell_setting 'tetragonal'
loop_
_space_group_symop_operation_xyz
x,y,z
-y,x,z
-x,-y,z
y,-x,z
x,-y,1/2-z
-x,y,1/2-z
y,x,1/2-z
-y,-x,1/2-z
-x,-y,-z
y,-x,-z
x,y,-z
-y,x,-z
-x,y,1/2+z
x,-y,1/2+z
-y,-x,1/2+z
y,x,1/2+z
1/2+x,1/2+y,1/2+z
1/2-y,1/2+x,1/2+z
1/2-x,1/2-y,1/2+z
1/2+y,1/2-x,1/2+z
1/2+x,1/2-y,-z
1/2-x,1/2+y,-z
1/2+y,1/2+x,-z
1/2-y,1/2-x,-z
1/2-x,1/2-y,1/2-z
1/2+y,1/2-x,1/2-z
1/2+x,1/2+y,1/2-z
1/2-y,1/2+x,1/2-z
1/2-x,1/2+y,z
1/2+x,1/2-y,z
1/2-y,1/2-x,z
1/2+y,1/2+x,z
loop_
_atom_site_type_symbol
_atom_site_label
_atom_site_fract_x
_atom_site_fract_y
_atom_site_fract_z
Si Si1 0.792201 0.292201 0.065649
Si Si2 0.078287 0.216139 0.564462
Si Si3 0.317422 0.817422 0.066182
Si Si4 0.264471 0.049521 0.372844
Si Si5 0.497771 0.890734 0.313401
Si Si6 0.647756 0.567269 0.211981
Si Si7 0.427669 0.577336 0.603966
O O1 0.867420 0.271681 0.086991
O O2 0.737391 0.237391 0.086107
O O3 0.791168 0.291168 0.000000
O O4 0.068291 0.225332 0.500000
O O5 0.112314 0.141999 0.578707
O O6 0.004295 0.221424 0.591905
O O7 0.294039 0.889710 0.090572
O O8 0.323918 0.823918 0.000000
O O9 0.217169 0.076661 0.322844
O O10 0.325262 0.004353 0.350367
O O11 0.500000 0.868332 0.250000
O O12 0.426418 0.926418 0.327488
O O13 0.558637 0.941364 0.326910
O O14 0.650327 0.500000 0.250000
O O15 0.633941 0.633941 0.250000
O O16 0.583378 0.569639 0.170056
O O17 0.406370 0.503868 0.582202
#
# Coordination Sequence:
#
# PCOD8320502 Si02
#       7
#    16  32  16  32  32  32  32
#     4   9  22  42  64  87 124 179 215 258 337 392
#     4  11  24  42  64  94 133 173 226 282 331 396
#     4  11  24  44  70  93 132 181 225 278 332 392
#     4  12  23  41  66 100 130 171 231 268 338 402
#     4   9  19  38  65  94 126 166 212 266 328 389
#     4  12  23  39  64  95 133 168 210 266 337 406
#     4  11  22  39  61  92 122 167 219 264 330 392
#
# _framework density 20.472142999999999
#
# number of rings (size 3 to 8) (size 9 to 14) (size 15 to 20)
#    0.000    1.167    4.167    2.500    1.167    0.833 
#    0.000    1.250    0.000    0.500    0.000    0.000 
#    0.000    0.000    0.000    0.000    0.000    0.000 
#
# Total GULP energy -1189253.897690 kJ/mol
# GULP energy per Si atom -12388.061434 kJ/mol
# Density = 2.042555 g / cm^3
# Si number density = 20.472143 Si / 1000 Ang^3
#
#
#
# Elastic Constant Matrix: (Units=GPa)
#
#
# Indices 1 2 3 4 5 6 
#
# 1 95.3390 29.9134 45.5568 0.0000 0.0000 0.0000
# 2 29.9134 95.3390 45.5568 0.0000 0.0000 0.0000
# 3 45.5568 45.5568 73.3211 0.0000 0.0000 0.0000
# 4 0.0000 0.0000 0.0000 34.5648 0.0000 0.0000
# 5 0.0000 0.0000 0.0000 0.0000 34.5647 0.0000
# 6 0.0000 0.0000 0.0000 0.0000 0.0000 24.2520
#
#
#
# Elastic Compliance Matrix: (Units=1/GPa)
#
#
# Indices 1 2 3 4 5 6 
#
# 1 0.014927 -0.000358 -0.009052 0.000000 0.000000 0.000000
# 2 -0.000358 0.014927 -0.009052 0.000000 0.000000 0.000000
# 3 -0.009052 -0.009052 0.024887 0.000000 0.000000 0.000000
# 4 0.000000 0.000000 0.000000 0.028931 0.000000 0.000000
# 5 0.000000 0.000000 0.000000 0.000000 0.028931 0.000000
# 6 0.000000 0.000000 0.000000 0.000000 0.000000 0.041234
#
#
# Mechanical properties :
#
#
# Convention : Reuss Voigt Hill
#
# Bulk Modulus (GPa) = 56.12740 56.22811 56.17775
# Shear Modulus (GPa) = 25.41952 28.20777 26.81364
#
# Velocity S-wave (km/s) = 3.52755 3.71598 3.62299
# Velocity P-wave (km/s) = 6.63833 6.77766 6.70836
#
# Compressibility (1/GPa) = 0.01781661
#
# Stress axis : x y z
#
# Youngs Moduli (GPa) = 66.99454 66.99455 40.18124
#
# Poissons Ratio (x) = 0.02398 0.36372
# Poissons Ratio (y) = 0.02398 0.36372
# Poissons Ratio (z) = 0.60643 0.60643
#
# Static dielectric constant tensor:
#      x y z
#    x 3.809340 0.000000 0.000000 
#    y 0.000000 3.809340 0.000000 
#    z 0.000000 0.000000 3.561580 
# 
# 
# High freq. dielectric constant tensor:
#      x y z
#    x 1.805250 0.000000 0.000000 
#    y 0.000000 1.805250 0.000000 
#    z 0.000000 0.000000 1.787290 
# 
# From -- ./inp_files/9827.got.cif
#   From: 2010.06.25/outbox.cif.g09.slc.cpg/sg140_5_cif.got.tgz:9827.got - 2010.06.28 10:53:23.
