data_PCOD8320127
_publ_section_title
;
Structure prediction by ZEFSAII (Michael W. Deem and Ramdas Pophale) SiO2 
 PCOD8320127
Probable space group: I 4/M C M
;
_chemical_formula_sum "Si O2"
_cell_formula_units_Z 112
_cell_length_a 17.236292
_cell_length_b 17.236292
_cell_length_c 19.955842
_cell_angle_alpha 90.000000
_cell_angle_beta 90.000000
_cell_angle_gamma 90.000000
_cell_volume 5928.676348
_symmetry_space_group_name_H-M "I 4/M C M"
_symmetry_group_IT_number 140
_symmetry_cell_setting 'tetragonal'
loop_
_space_group_symop_operation_xyz
x,y,z
-y,x,z
-x,-y,z
y,-x,z
x,-y,1/2-z
-x,y,1/2-z
y,x,1/2-z
-y,-x,1/2-z
-x,-y,-z
y,-x,-z
x,y,-z
-y,x,-z
-x,y,1/2+z
x,-y,1/2+z
-y,-x,1/2+z
y,x,1/2+z
1/2+x,1/2+y,1/2+z
1/2-y,1/2+x,1/2+z
1/2-x,1/2-y,1/2+z
1/2+y,1/2-x,1/2+z
1/2+x,1/2-y,-z
1/2-x,1/2+y,-z
1/2+y,1/2+x,-z
1/2-y,1/2-x,-z
1/2-x,1/2-y,1/2-z
1/2+y,1/2-x,1/2-z
1/2+x,1/2+y,1/2-z
1/2-y,1/2+x,1/2-z
1/2-x,1/2+y,z
1/2+x,1/2-y,z
1/2-y,1/2-x,z
1/2+y,1/2+x,z
loop_
_atom_site_type_symbol
_atom_site_label
_atom_site_fract_x
_atom_site_fract_y
_atom_site_fract_z
Si Si1 0.570821 0.804100 0.376354
Si Si2 0.684336 0.685530 0.674244
Si Si3 0.593428 0.780365 0.925598
Si Si4 0.500000 0.879924 0.250000
O O1 0.630666 0.869335 0.403840
O O2 0.612217 0.721047 0.366954
O O3 0.498434 0.797452 0.426125
O O4 0.539760 0.825958 0.303642
O O5 0.660121 0.660121 0.750000
O O6 0.749704 0.750297 0.679493
O O7 0.716184 0.613103 0.630975
O O8 0.640619 0.859381 0.910655
O O9 0.614954 0.749247 0.000000
O O10 0.434305 0.934305 0.284399
#
# Coordination Sequence:
#
# PCOD8320127 Si02
#       4
#    32  32  32  16
#     4  10  19  31  51  76 101 134 174 211 251 307
#     4   9  18  33  53  76 102 135 176 218 258 304
#     4  10  21  35  50  73 108 142 170 210 263 310
#     4   9  16  26  44  74 108 133 158 202 256 303
#
# _framework density 18.891231000000001
#
# number of rings (size 3 to 8) (size 9 to 14) (size 15 to 20)
#    0.000    2.429    0.000    2.571    0.000    8.000 
#    0.000    4.286    0.000    0.857    0.000    4.000 
#    0.000    0.000    0.000    0.000    0.000    0.000 
#
# Total GULP energy -694115.360816 kJ/mol
# GULP energy per Si atom -12394.917157 kJ/mol
# Density = 1.884823 g / cm^3
# Si number density = 18.891231 Si / 1000 Ang^3
#
#
#
# Elastic Constant Matrix: (Units=GPa)
#
#
# Indices 1 2 3 4 5 6 
#
# 1 73.7170 51.2370 34.7093 0.0000 0.0000 0.0000
# 2 51.2370 73.7170 34.7093 0.0000 0.0000 0.0000
# 3 34.7093 34.7093 100.3708 0.0000 0.0000 0.0000
# 4 0.0000 0.0000 0.0000 23.4511 0.0000 0.0000
# 5 0.0000 0.0000 0.0000 0.0000 23.4511 0.0000
# 6 0.0000 0.0000 0.0000 0.0000 0.0000 26.3288
#
#
#
# Elastic Compliance Matrix: (Units=1/GPa)
#
#
# Indices 1 2 3 4 5 6 
#
# 1 0.027195 -0.017289 -0.003426 0.000000 0.000000 0.000000
# 2 -0.017289 0.027195 -0.003426 0.000000 0.000000 0.000000
# 3 -0.003426 -0.003426 0.012332 0.000000 0.000000 0.000000
# 4 0.000000 0.000000 0.000000 0.042642 0.000000 0.000000
# 5 0.000000 0.000000 0.000000 0.000000 0.042642 0.000000
# 6 0.000000 0.000000 0.000000 0.000000 0.000000 0.037981
#
#
# Mechanical properties :
#
#
# Convention : Reuss Voigt Hill
#
# Bulk Modulus (GPa) = 54.22430 54.34624 54.28527
# Shear Modulus (GPa) = 20.45700 23.12280 21.78990
#
# Velocity S-wave (km/s) = 3.29429 3.50236 3.39992
# Velocity P-wave (km/s) = 6.57537 6.72204 6.64911
#
# Compressibility (1/GPa) = 0.01844192
#
# Stress axis : x y z
#
# Youngs Moduli (GPa) = 36.77149 36.77149 81.08789
#
# Poissons Ratio (x) = 0.63574 0.27778
# Poissons Ratio (y) = 0.63574 0.27778
# Poissons Ratio (z) = 0.12597 0.12597
#
# Static dielectric constant tensor:
#      x y z
#    x 3.467460 0.000000 0.000000 
#    y 0.000000 3.467460 0.000000 
#    z 0.000000 0.000000 3.373120 
# 
# 
# High freq. dielectric constant tensor:
#      x y z
#    x 1.711980 0.000000 0.000000 
#    y 0.000000 1.711980 0.000000 
#    z 0.000000 0.000000 1.730460 
# 
# From -- ./inp_files/6098.got.cif
#   From: 2010.06.25/outbox.cif.g09.slc.cpg/sg140_4_cif.got.tgz:6098.got - 2010.06.28 10:53:23.
