data_PCOD8320990
_publ_section_title
;
Structure prediction by ZEFSAII (Michael W. Deem and Ramdas Pophale) SiO2 
 PCOD8320990
Probable space group: I 41/A C D
;
_chemical_formula_sum "Si O2"
_cell_formula_units_Z 240
_cell_length_a 23.507338
_cell_length_b 23.507338
_cell_length_c 23.979106
_cell_angle_alpha 90.000000
_cell_angle_beta 90.000000
_cell_angle_gamma 90.000000
_cell_volume 13250.732638
_symmetry_space_group_name_H-M "I 41/A C D"
_symmetry_group_IT_number 142
_space_group.IT_coordinate_system_code '2'
_symmetry_cell_setting 'tetragonal'
loop_
_space_group_symop_operation_xyz
x,y,z
1/4-y,3/4+x,1/4+z
-x,1/2-y,z
1/4+y,1/4-x,3/4+z
x,-y,1/2-z
1/2-x,y,-z
3/4+y,1/4+x,1/4-z
1/4-y,1/4-x,1/4-z
-x,-y,-z
3/4+y,1/4-x,3/4-z
x,1/2+y,-z
3/4-y,3/4+x,1/4-z
-x,y,1/2+z
1/2+x,-y,z
1/4-y,3/4-x,3/4+z
3/4+y,3/4+x,3/4+z
1/2+x,1/2+y,1/2+z
3/4-y,1/4+x,3/4+z
1/2-x,-y,1/2+z
3/4+y,3/4-x,1/4+z
1/2+x,1/2-y,-z
-x,1/2+y,1/2-z
1/4+y,3/4+x,3/4-z
3/4-y,3/4-x,3/4-z
1/2-x,1/2-y,1/2-z
1/4+y,3/4-x,1/4-z
1/2+x,y,1/2-z
1/4-y,1/4+x,3/4-z
1/2-x,1/2+y,z
x,1/2-y,1/2+z
3/4-y,1/4-x,1/4+z
1/4+y,1/4+x,1/4+z
loop_
_atom_site_type_symbol
_atom_site_label
_atom_site_fract_x
_atom_site_fract_y
_atom_site_fract_z
Si Si1 0.607721 0.419727 0.474356
Si Si2 0.752727 0.590688 0.862803
Si Si3 0.491208 0.086268 0.392438
Si Si4 0.797975 0.170450 0.043727
Si Si5 0.291317 0.894269 0.423159
Si Si6 0.079427 0.995676 0.072574
Si Si7 0.403922 0.153922 0.875000
Si Si8 0.158122 0.081582 0.208299
O O1 0.638115 0.474377 0.447018
O O2 0.562324 0.395793 0.429895
O O3 0.652873 0.368485 0.485294
O O4 0.576079 0.441915 0.530326
O O5 0.780573 0.530573 0.875000
O O6 0.764402 0.634937 0.910741
O O7 0.685836 0.581172 0.862282
O O8 0.473596 0.074468 0.327909
O O9 0.531894 0.141911 0.394517
O O10 0.521175 0.031423 0.421854
O O11 0.750000 0.191600 0.000000
O O12 0.280019 0.839653 0.384488
O O13 0.231194 0.924219 0.437040
O O14 0.326675 0.882166 0.479458
O O15 0.130033 0.036024 0.050224
O O16 0.357495 0.143794 0.923370
#
# Coordination Sequence:
#
# PCOD8320990 Si02
#       8
#    32  32  32  32  32  32  16  32
#     4  10  20  36  53  78 109 145 183 228 277 341
#     4   9  17  28  45  71 106 146 175 211 267 334
#     4  10  21  36  57  78 111 145 190 232 276 333
#     4  10  21  36  54  80 113 141 178 230 285 344
#     4  11  18  27  47  75 111 147 188 224 267 339
#     4  11  19  33  51  77 108 152 184 223 282 327
#     4  10  20  40  53  78 112 150 188 244 284 317
#     4  10  19  29  45  76 112 145 187 228 268 337
#
# _framework density 18.112206
#
# number of rings (size 3 to 8) (size 9 to 14) (size 15 to 20)
#    0.000    1.867    4.000    3.200    0.000    2.133 
#    0.000    1.333    0.000    0.000    0.000    0.000 
#    0.000    0.000    0.000    0.000    0.000    0.000 
#
# Total GULP energy -1487051.819531 kJ/mol
# GULP energy per Si atom -12392.098496 kJ/mol
# Density = 1.807098 g / cm^3
# Si number density = 18.112206 Si / 1000 Ang^3
#
#
#
# Elastic Constant Matrix: (Units=GPa)
#
#
# Indices 1 2 3 4 5 6 
#
# 1 59.6741 14.5134 15.3896 0.0000 0.0000 0.0000
# 2 14.5134 59.6741 15.3896 0.0000 0.0000 0.0000
# 3 15.3896 15.3896 91.9609 0.0000 0.0000 0.0000
# 4 0.0000 0.0000 0.0000 22.0833 0.0000 0.0000
# 5 0.0000 0.0000 0.0000 0.0000 22.0833 0.0000
# 6 0.0000 0.0000 0.0000 0.0000 0.0000 18.9824
#
#
#
# Elastic Compliance Matrix: (Units=1/GPa)
#
#
# Indices 1 2 3 4 5 6 
#
# 1 0.018314 -0.003829 -0.002424 0.000000 0.000000 0.000000
# 2 -0.003829 0.018314 -0.002424 0.000000 0.000000 0.000000
# 3 -0.002424 -0.002424 0.011686 0.000000 0.000000 0.000000
# 4 0.000000 0.000000 0.000000 0.045283 0.000000 0.000000
# 5 0.000000 0.000000 0.000000 0.000000 0.045283 0.000000
# 6 0.000000 0.000000 0.000000 0.000000 0.000000 0.052680
#
#
# Mechanical properties :
#
#
# Convention : Reuss Voigt Hill
#
# Bulk Modulus (GPa) = 32.30040 33.54382 32.92211
# Shear Modulus (GPa) = 22.80665 23.69758 23.25212
#
# Velocity S-wave (km/s) = 3.55235 3.62107 3.58688
# Velocity P-wave (km/s) = 5.89049 6.00359 5.94731
#
# Compressibility (1/GPa) = 0.03095937
#
# Stress axis : x y z
#
# Youngs Moduli (GPa) = 54.60276 54.60276 85.57599
#
# Poissons Ratio (x) = 0.20908 0.20744
# Poissons Ratio (y) = 0.20908 0.20744
# Poissons Ratio (z) = 0.13236 0.13236
#
# Static dielectric constant tensor:
#      x y z
#    x 3.103190 0.000000 0.000000 
#    y 0.000000 3.103190 0.000000 
#    z 0.000000 0.000000 3.533560 
# 
# 
# High freq. dielectric constant tensor:
#      x y z
#    x 1.677930 0.000000 0.000000 
#    y 0.000000 1.677930 0.000000 
#    z 0.000000 0.000000 1.708310 
# 
# From -- ./inp_files/10627.got.cif
#   From: 2010.03.12/outbox.cif.g09.slc.cpg/sg142_6_cif.got.tgz:10627.got - 2010.04.03 13:27:16.
