data_PCOD8320825
_publ_section_title
;
Structure prediction by ZEFSAII (Michael W. Deem and Ramdas Pophale) SiO2 
 PCOD8320825
Probable space group: I 41/A M D
;
_chemical_formula_sum "Si O2"
_cell_formula_units_Z 160
_cell_length_a 18.038463
_cell_length_b 18.038463
_cell_length_c 24.666849
_cell_angle_alpha 90.000000
_cell_angle_beta 90.000000
_cell_angle_gamma 90.000000
_cell_volume 8026.250965
_symmetry_space_group_name_H-M "I 41/A M D"
_symmetry_group_IT_number 141
_space_group.IT_coordinate_system_code '2'
_symmetry_cell_setting 'tetragonal'
loop_
_space_group_symop_operation_xyz
x,y,z
1/4-y,3/4+x,1/4+z
-x,1/2-y,z
1/4+y,1/4-x,3/4+z
x,-y,-z
-x,1/2+y,-z
1/4+y,3/4+x,1/4-z
1/4-y,1/4-x,3/4-z
-x,-y,-z
3/4+y,1/4-x,3/4-z
x,1/2+y,-z
3/4-y,3/4+x,1/4-z
-x,y,z
x,1/2-y,z
3/4-y,1/4-x,3/4+z
3/4+y,3/4+x,1/4+z
1/2+x,1/2+y,1/2+z
3/4-y,1/4+x,3/4+z
1/2-x,-y,1/2+z
3/4+y,3/4-x,1/4+z
1/2+x,1/2-y,1/2-z
1/2-x,y,1/2-z
3/4+y,1/4+x,3/4-z
3/4-y,3/4-x,1/4-z
1/2-x,1/2-y,1/2-z
1/4+y,3/4-x,1/4-z
1/2+x,y,1/2-z
1/4-y,1/4+x,3/4-z
1/2-x,1/2+y,1/2+z
1/2+x,-y,1/2+z
1/4-y,3/4-x,1/4+z
1/4+y,1/4+x,3/4+z
loop_
_atom_site_type_symbol
_atom_site_label
_atom_site_fract_x
_atom_site_fract_y
_atom_site_fract_z
Si Si1 0.087090 0.332996 0.814294
Si Si2 0.327988 0.919142 0.227672
Si Si3 0.164232 0.563373 0.562787
Si Si4 0.083046 0.165320 0.642801
Si Si5 0.584724 0.587342 0.037347
O O1 0.119554 0.250000 0.801226
O O2 0.108364 0.358364 0.875000
O O3 0.114004 0.397772 0.774410
O O4 0.000000 0.327721 0.808531
O O5 0.250000 0.889174 0.250000
O O6 0.352482 0.878694 0.172871
O O7 0.323281 0.005037 0.213088
O O8 0.159345 0.590656 0.625000
O O9 0.109989 0.611342 0.523443
O O10 0.137631 0.478489 0.559132
O O11 0.091582 0.250000 0.658823
O O12 0.094201 0.155893 0.578223
O O13 0.000000 0.137216 0.659121
O O14 0.500000 0.559415 0.035986
#
# Coordination Sequence:
#
# PCOD8320825 Si02
#       5
#    32  32  32  32  32
#     4   9  20  40  61  83 119 166 209 249 294 347
#     4  12  23  35  59  87 127 160 199 247 304 350
#     4  11  21  38  60  90 123 154 193 252 313 368
#     4  10  22  41  63  88 122 164 208 250 297 361
#     4  10  21  42  67  88 116 163 205 250 314 379
#
# _framework density 19.934587000000001
#
# number of rings (size 3 to 8) (size 9 to 14) (size 15 to 20)
#    0.000    1.600    4.000    3.000    0.000    5.600 
#    0.000    6.000    0.000    0.000    0.000    0.000 
#    0.000    0.000    0.000    0.000    0.000    0.000 
#
# Total GULP energy -991295.602609 kJ/mol
# GULP energy per Si atom -12391.195033 kJ/mol
# Density = 1.988922 g / cm^3
# Si number density = 19.934587 Si / 1000 Ang^3
#
#
#
# Elastic Constant Matrix: (Units=GPa)
#
#
# Indices 1 2 3 4 5 6 
#
# 1 78.7869 43.7217 49.1147 0.0000 0.0000 0.0000
# 2 43.7217 78.7866 49.1146 0.0000 0.0000 0.0000
# 3 49.1147 49.1146 159.9657 0.0000 0.0000 0.0000
# 4 0.0000 0.0000 0.0000 33.8950 0.0000 0.0000
# 5 0.0000 0.0000 0.0000 0.0000 33.8948 0.0000
# 6 0.0000 0.0000 0.0000 0.0000 0.0000 24.9411
#
#
#
# Elastic Compliance Matrix: (Units=1/GPa)
#
#
# Indices 1 2 3 4 5 6 
#
# 1 0.019673 -0.008845 -0.003325 0.000000 0.000000 0.000000
# 2 -0.008845 0.019673 -0.003325 0.000000 0.000000 0.000000
# 3 -0.003325 -0.003325 0.008293 0.000000 0.000000 0.000000
# 4 0.000000 0.000000 0.000000 0.029503 0.000000 0.000000
# 5 0.000000 0.000000 0.000000 0.000000 0.029503 0.000000
# 6 0.000000 0.000000 0.000000 0.000000 0.000000 0.040095
#
#
# Mechanical properties :
#
#
# Convention : Reuss Voigt Hill
#
# Bulk Modulus (GPa) = 60.05600 66.82679 63.44140
# Shear Modulus (GPa) = 27.28075 30.25205 28.76640
#
# Velocity S-wave (km/s) = 3.70336 3.89982 3.80286
# Velocity P-wave (km/s) = 6.96264 7.33989 7.15375
#
# Compressibility (1/GPa) = 0.01665112
#
# Stress axis : x y z
#
# Youngs Moduli (GPa) = 50.82998 50.82985 120.58478
#
# Poissons Ratio (x) = 0.44959 0.40091
# Poissons Ratio (y) = 0.44959 0.40091
# Poissons Ratio (z) = 0.16899 0.16899
#
# Static dielectric constant tensor:
#      x y z
#    x 3.569480 0.000000 0.000000 
#    y 0.000000 3.569480 0.000000 
#    z 0.000000 0.000000 4.156780 
# 
# 
# High freq. dielectric constant tensor:
#      x y z
#    x 1.763440 0.000000 0.000000 
#    y 0.000000 1.763440 0.000000 
#    z 0.000000 0.000000 1.797480 
# 
# From -- ./inp_files/12751.got.cif
#   From: 2010.03.12/outbox.cif.g09.slc.cpg/sg141_7_cif.got.tgz:12751.got - 2010.04.03 13:18:35.
