data_PCOD8320712
_publ_section_title
;
Structure prediction by ZEFSAII (Michael W. Deem and Ramdas Pophale) SiO2 
 PCOD8320712
Probable space group: I 41/A M D
;
_chemical_formula_sum "Si O2"
_cell_formula_units_Z 80
_cell_length_a 15.653921
_cell_length_b 15.653921
_cell_length_c 15.938843
_cell_angle_alpha 90.000000
_cell_angle_beta 90.000000
_cell_angle_gamma 90.000000
_cell_volume 3905.737651
_symmetry_space_group_name_H-M "I 41/A M D"
_symmetry_group_IT_number 141
_space_group.IT_coordinate_system_code '2'
_symmetry_cell_setting 'tetragonal'
loop_
_space_group_symop_operation_xyz
x,y,z
1/4-y,3/4+x,1/4+z
-x,1/2-y,z
1/4+y,1/4-x,3/4+z
x,-y,-z
-x,1/2+y,-z
1/4+y,3/4+x,1/4-z
1/4-y,1/4-x,3/4-z
-x,-y,-z
3/4+y,1/4-x,3/4-z
x,1/2+y,-z
3/4-y,3/4+x,1/4-z
-x,y,z
x,1/2-y,z
3/4-y,1/4-x,3/4+z
3/4+y,3/4+x,1/4+z
1/2+x,1/2+y,1/2+z
3/4-y,1/4+x,3/4+z
1/2-x,-y,1/2+z
3/4+y,3/4-x,1/4+z
1/2+x,1/2-y,1/2-z
1/2-x,y,1/2-z
3/4+y,1/4+x,3/4-z
3/4-y,3/4-x,1/4-z
1/2-x,1/2-y,1/2-z
1/4+y,3/4-x,1/4-z
1/2+x,y,1/2-z
1/4-y,1/4+x,3/4-z
1/2-x,1/2+y,1/2+z
1/2+x,-y,1/2+z
1/4-y,3/4-x,1/4+z
1/4+y,1/4+x,3/4+z
loop_
_atom_site_type_symbol
_atom_site_label
_atom_site_fract_x
_atom_site_fract_y
_atom_site_fract_z
Si Si1 0.904413 0.654413 0.125000
Si Si2 0.239027 0.398320 0.999576
Si Si3 0.907366 0.067597 0.572928
O O1 0.891809 0.750000 0.160578
O O2 0.841063 0.639967 0.048499
O O3 0.327842 0.370375 0.952344
O O4 0.231893 0.500000 0.000000
O O5 0.236042 0.362595 0.093199
O O6 0.000000 0.115465 0.582227
O O7 0.916447 0.000000 0.500000
#
# Coordination Sequence:
#
# PCOD8320712 Si02
#       3
#    16  32  32
#     4  11  24  40  60  88 122 160 201 250 310 370
#     4  11  19  39  62  87 124 161 201 253 309 361
#     4  10  20  35  61  93 122 162 209 250 302 368
#
# _framework density 20.482686999999999
#
# number of rings (size 3 to 8) (size 9 to 14) (size 15 to 20)
#    0.000    1.400    4.000    4.800    0.000    0.800 
#    0.000    0.000    0.000    9.600    0.000   28.000 
#    0.000    0.000    0.000    0.000    0.000    0.000 
#
# Total GULP energy -495626.721432 kJ/mol
# GULP energy per Si atom -12390.668036 kJ/mol
# Density = 2.043607 g / cm^3
# Si number density = 20.482687 Si / 1000 Ang^3
#
#
#
# Elastic Constant Matrix: (Units=GPa)
#
#
# Indices 1 2 3 4 5 6 
#
# 1 144.9063 48.1666 55.1918 0.0000 0.0000 0.0000
# 2 48.1666 144.9063 55.1918 0.0000 0.0000 0.0000
# 3 55.1918 55.1918 152.0655 0.0000 0.0000 0.0000
# 4 0.0000 0.0000 0.0000 9.6584 0.0000 0.0000
# 5 0.0000 0.0000 0.0000 0.0000 9.6584 0.0000
# 6 0.0000 0.0000 0.0000 0.0000 0.0000 18.0601
#
#
#
# Elastic Compliance Matrix: (Units=1/GPa)
#
#
# Indices 1 2 3 4 5 6 
#
# 1 0.008436 -0.001901 -0.002372 0.000000 0.000000 0.000000
# 2 -0.001901 0.008436 -0.002372 0.000000 0.000000 0.000000
# 3 -0.002372 -0.002372 0.008298 0.000000 0.000000 0.000000
# 4 0.000000 0.000000 0.000000 0.103537 0.000000 0.000000
# 5 0.000000 0.000000 0.000000 0.000000 0.103537 0.000000
# 6 0.000000 0.000000 0.000000 0.000000 0.000000 0.055371
#
#
# Mechanical properties :
#
#
# Convention : Reuss Voigt Hill
#
# Bulk Modulus (GPa) = 84.16921 84.33095 84.25008
# Shear Modulus (GPa) = 16.40069 26.36389 21.38229
#
# Velocity S-wave (km/s) = 2.83275 3.59155 3.23448
# Velocity P-wave (km/s) = 7.20287 7.64593 7.42770
#
# Compressibility (1/GPa) = 0.01188083
#
# Stress axis : x y z
#
# Youngs Moduli (GPa) = 118.53566 118.53567 120.51123
#
# Poissons Ratio (x) = 0.22530 0.28586
# Poissons Ratio (y) = 0.22530 0.28586
# Poissons Ratio (z) = 0.28117 0.28117
#
# Static dielectric constant tensor:
#      x y z
#    x 4.261660 0.000000 0.000000 
#    y 0.000000 4.261660 0.000000 
#    z 0.000000 0.000000 3.995350 
# 
# 
# High freq. dielectric constant tensor:
#      x y z
#    x 1.788860 0.000000 0.000000 
#    y 0.000000 1.788860 0.000000 
#    z 0.000000 0.000000 1.817390 
# 
# From -- ./inp_files/5749.got.cif
#   From: 2010.03.12/outbox.cif.g09.slc.cpg/sg141_3_cif.got.tgz:5749.got - 2010.04.03 13:18:35.
