data_PCOD8320001
_publ_section_title
;
Structure prediction by ZEFSAII (Michael W. Deem and Ramdas Pophale) SiO2 
 PCOD8320001
Probable space group: I 4/M M M
;
_chemical_formula_sum "Si O2"
_cell_formula_units_Z 136
_cell_length_a 22.359387
_cell_length_b 22.359387
_cell_length_c 13.422192
_cell_angle_alpha 90.000000
_cell_angle_beta 90.000000
_cell_angle_gamma 90.000000
_cell_volume 6710.320023
_symmetry_space_group_name_H-M "I 4/M M M"
_symmetry_group_IT_number 139
_symmetry_cell_setting 'tetragonal'
loop_
_space_group_symop_operation_xyz
x,y,z
-y,x,z
-x,-y,z
y,-x,z
x,-y,-z
-x,y,-z
y,x,-z
-y,-x,-z
-x,-y,-z
y,-x,-z
x,y,-z
-y,x,-z
-x,y,z
x,-y,z
-y,-x,z
y,x,z
1/2+x,1/2+y,1/2+z
1/2-y,1/2+x,1/2+z
1/2-x,1/2-y,1/2+z
1/2+y,1/2-x,1/2+z
1/2+x,1/2-y,1/2-z
1/2-x,1/2+y,1/2-z
1/2+y,1/2+x,1/2-z
1/2-y,1/2-x,1/2-z
1/2-x,1/2-y,1/2-z
1/2+y,1/2-x,1/2-z
1/2+x,1/2+y,1/2-z
1/2-y,1/2+x,1/2-z
1/2-x,1/2+y,1/2+z
1/2+x,1/2-y,1/2+z
1/2-y,1/2-x,1/2+z
1/2+y,1/2+x,1/2+z
loop_
_atom_site_type_symbol
_atom_site_label
_atom_site_fract_x
_atom_site_fract_y
_atom_site_fract_z
Si Si1 0.358524 0.804842 0.500000
Si Si2 0.864982 0.135019 0.788621
Si Si3 0.352802 0.067074 0.187662
Si Si4 0.930651 0.069350 0.390575
Si Si5 0.933259 0.765626 0.701910
Si Si6 0.338956 0.661045 0.500000
Si Si7 0.731505 0.631508 0.000000
O O1 0.393035 0.829854 0.596330
O O2 0.352394 0.732592 0.500000
O O3 0.293179 0.832800 0.500000
O O4 0.903119 0.096881 0.709680
O O5 0.796307 0.117367 0.770664
O O6 0.872132 0.127868 0.907691
O O7 0.409442 0.090559 0.250000
O O8 0.303361 0.066089 0.273127
O O9 0.366534 0.000000 0.148350
O O10 0.906598 0.093403 0.500000
O O11 0.000000 0.083236 0.385548
O O12 0.913892 0.775667 0.589899
O O13 0.000000 0.793144 0.718225
O O14 0.679594 0.679594 0.000000
#
# Coordination Sequence:
#
# PCOD8320001 Si02
#       7
#    16  16  32  16  32   8  16
#     4  12  23  43  66  98 132 166 214 262 334 399
#     4  12  23  41  60  93 132 172 223 265 325 388
#     4  11  24  44  68  93 128 172 216 269 326 392
#     4   9  20  40  63  87 120 166 220 275 327 385
#     4  11  24  40  62  92 132 174 215 269 324 381
#     4  12  26  40  64  95 138 176 218 271 318 406
#     4  12  23  38  67 100 131 168 207 267 337 394
#
# _framework density 20.267291
#
# number of rings (size 3 to 8) (size 9 to 14) (size 15 to 20)
#    0.000    0.824    6.471    1.765    1.647    0.235 
#    0.000    6.471    0.000    2.118    0.000    0.000 
#    0.000    0.000    0.000    0.000    0.000    0.000 
#
# Total GULP energy -842447.131523 kJ/mol
# GULP energy per Si atom -12388.928405 kJ/mol
# Density = 2.022116 g / cm^3
# Si number density = 20.267291 Si / 1000 Ang^3
#
#
#
# Elastic Constant Matrix: (Units=GPa)
#
#
# Indices 1 2 3 4 5 6 
#
# 1 88.3203 44.0055 33.9705 0.0000 0.0000 0.0000
# 2 44.0055 88.3248 33.9719 0.0000 0.0000 0.0000
# 3 33.9705 33.9719 150.0280 0.0000 0.0000 0.0000
# 4 0.0000 0.0000 0.0000 20.3133 0.0000 0.0000
# 5 0.0000 0.0000 0.0000 0.0000 20.3105 0.0000
# 6 0.0000 0.0000 0.0000 0.0000 0.0000 31.4701
#
#
#
# Elastic Compliance Matrix: (Units=1/GPa)
#
#
# Indices 1 2 3 4 5 6 
#
# 1 0.015558 -0.007007 -0.001936 0.000000 0.000000 0.000000
# 2 -0.007007 0.015558 -0.001936 0.000000 0.000000 0.000000
# 3 -0.001936 -0.001936 0.007542 0.000000 0.000000 0.000000
# 4 0.000000 0.000000 0.000000 0.049229 0.000000 0.000000
# 5 0.000000 0.000000 0.000000 0.000000 0.049236 0.000000
# 6 0.000000 0.000000 0.000000 0.000000 0.000000 0.031776
#
#
# Mechanical properties :
#
#
# Convention : Reuss Voigt Hill
#
# Bulk Modulus (GPa) = 59.17326 61.17432 60.17379
# Shear Modulus (GPa) = 25.47246 28.73380 27.10313
#
# Velocity S-wave (km/s) = 3.54902 3.76938 3.66086
# Velocity P-wave (km/s) = 6.78630 7.01381 6.90099
#
# Compressibility (1/GPa) = 0.01689953
#
# Stress axis : x y z
#
# Youngs Moduli (GPa) = 64.27450 64.27760 132.58586
#
# Poissons Ratio (x) = 0.45038 0.25672
# Poissons Ratio (y) = 0.45036 0.25672
# Poissons Ratio (z) = 0.12445 0.12446
#
# Static dielectric constant tensor:
#      x y z
#    x 3.902100 0.000000 0.000000 
#    y 0.000000 3.902080 0.000000 
#    z 0.000000 0.000000 3.787340 
# 
# 
# High freq. dielectric constant tensor:
#      x y z
#    x 1.796630 0.000000 0.000000 
#    y 0.000000 1.796620 0.000000 
#    z 0.000000 0.000000 1.802110 
# 
# From -- ./inp_files/3606.got.cif
#   From: 2010.03.12/outbox.cif.g09.slc.cpg/sg139_2_cif.got.tgz:3606.got - 2010.04.08 09:46:31.
