data_PCOD8320858
_publ_section_title
;
Structure prediction by ZEFSAII (Michael W. Deem and Ramdas Pophale) SiO2 
 PCOD8320858
Probable space group: I 41/A M D
;
_chemical_formula_sum "Si O2"
_cell_formula_units_Z 128
_cell_length_a 20.969454
_cell_length_b 20.969454
_cell_length_c 14.162926
_cell_angle_alpha 90.000000
_cell_angle_beta 90.000000
_cell_angle_gamma 90.000000
_cell_volume 6227.693510
_symmetry_space_group_name_H-M "I 41/A M D"
_symmetry_group_IT_number 141
_space_group.IT_coordinate_system_code '2'
_symmetry_cell_setting 'tetragonal'
loop_
_space_group_symop_operation_xyz
x,y,z
1/4-y,3/4+x,1/4+z
-x,1/2-y,z
1/4+y,1/4-x,3/4+z
x,-y,-z
-x,1/2+y,-z
1/4+y,3/4+x,1/4-z
1/4-y,1/4-x,3/4-z
-x,-y,-z
3/4+y,1/4-x,3/4-z
x,1/2+y,-z
3/4-y,3/4+x,1/4-z
-x,y,z
x,1/2-y,z
3/4-y,1/4-x,3/4+z
3/4+y,3/4+x,1/4+z
1/2+x,1/2+y,1/2+z
3/4-y,1/4+x,3/4+z
1/2-x,-y,1/2+z
3/4+y,3/4-x,1/4+z
1/2+x,1/2-y,1/2-z
1/2-x,y,1/2-z
3/4+y,1/4+x,3/4-z
3/4-y,3/4-x,1/4-z
1/2-x,1/2-y,1/2-z
1/4+y,3/4-x,1/4-z
1/2+x,y,1/2-z
1/4-y,1/4+x,3/4-z
1/2-x,1/2+y,1/2+z
1/2+x,-y,1/2+z
1/4-y,3/4-x,1/4+z
1/4+y,1/4+x,3/4+z
loop_
_atom_site_type_symbol
_atom_site_label
_atom_site_fract_x
_atom_site_fract_y
_atom_site_fract_z
Si Si1 0.000000 0.678557 0.490205
Si Si2 0.795520 0.750000 0.660953
Si Si3 0.323041 0.407359 0.733977
Si Si4 0.131407 0.176789 0.611351
Si Si5 0.127937 0.960433 0.696474
O O1 0.940468 0.670681 0.422385
O O2 0.000000 0.750000 0.537431
O O3 0.000000 0.622286 0.568848
O O4 0.750000 0.750000 0.750000
O O5 0.776092 0.810341 0.600114
O O6 0.250000 0.389313 0.750000
O O7 0.342286 0.407715 0.625000
O O8 0.364264 0.351616 0.783398
O O9 0.335739 0.474549 0.783618
O O10 0.154942 0.250000 0.609457
O O11 0.174155 0.132265 0.544499
O O12 0.169907 0.919907 0.625000
#
# Coordination Sequence:
#
# PCOD8320858 Si02
#       5
#    16  16  32  32  32
#     4  10  22  44  70  99 144 184 222 271 346 419
#     4  12  24  40  64 102 137 176 221 276 338 404
#     4  12  26  47  69  93 131 181 228 290 354 405
#     4  11  24  46  68 100 134 179 228 275 339 416
#     4  12  25  40  67 100 136 172 220 275 339 412
#
# _framework density 20.553355
#
# number of rings (size 3 to 8) (size 9 to 14) (size 15 to 20)
#    0.000    0.500    6.250    2.250    0.000    0.500 
#    6.750    0.000    0.000    0.000    0.000    0.000 
#    0.000    0.000    0.000    0.000    0.000    0.000 
#
# Total GULP energy -793887.695449 kJ/mol
# GULP energy per Si atom -12404.495241 kJ/mol
# Density = 2.050657 g / cm^3
# Si number density = 20.553355 Si / 1000 Ang^3
#
#
#
# Elastic Constant Matrix: (Units=GPa)
#
#
# Indices 1 2 3 4 5 6 
#
# 1 65.7523 4.3183 14.5420 0.0000 0.0000 0.0000
# 2 4.3183 65.7523 14.5421 0.0000 0.0000 0.0000
# 3 14.5420 14.5421 114.9761 0.0000 0.0000 0.0000
# 4 0.0000 0.0000 0.0000 290.3542 0.0000 0.0000
# 5 0.0000 0.0000 0.0000 0.0000 290.1141 0.0000
# 6 0.0000 0.0000 0.0000 0.0000 0.0000 36.2798
#
#
#
# Elastic Compliance Matrix: (Units=1/GPa)
#
#
# Indices 1 2 3 4 5 6 
#
# 1 0.015670 -0.000608 -0.001905 0.000000 0.000000 0.000000
# 2 -0.000608 0.015670 -0.001905 0.000000 0.000000 0.000000
# 3 -0.001905 -0.001905 0.009179 0.000000 0.000000 0.000000
# 4 0.000000 0.000000 0.000000 0.003444 0.000000 0.000000
# 5 0.000000 0.000000 0.000000 0.000000 0.003447 0.000000
# 6 0.000000 0.000000 0.000000 0.000000 0.000000 0.027564
#
#
# Mechanical properties :
#
#
# Convention : Reuss Voigt Hill
#
# Bulk Modulus (GPa) = 31.56235 34.80951 33.18593
# Shear Modulus (GPa) = 52.98275 137.55486 95.26880
#
# Velocity S-wave (km/s) = 5.08273 8.18969 6.81561
# Velocity P-wave (km/s) = 7.05940 10.31509 8.83844
#
# Compressibility (1/GPa) = 0.03168331
#
# Stress axis : x y z
#
# Youngs Moduli (GPa) = 63.81694 63.81683 108.94014
#
# Poissons Ratio (x) = 0.03879 0.20753
# Poissons Ratio (y) = 0.03879 0.20754
# Poissons Ratio (z) = 0.12157 0.12157
#
# Static dielectric constant tensor:
#      x y z
#    x 3.895180 0.000000 0.000000 
#    y 0.000000 3.895180 0.000000 
#    z 0.000000 0.000000 3.855870 
# 
# 
# High freq. dielectric constant tensor:
#      x y z
#    x 1.813020 0.000000 0.000000 
#    y 0.000000 1.813020 0.000000 
#    z 0.000000 0.000000 1.807380 
# 
# From -- ./inp_files/6235.got.cif
#   From: 2010.03.12/outbox.cif.g09.slc.cpg/sg141_4_cif.got.tgz:6235.got - 2010.04.03 13:18:35.
