data_PCOD8320390
_publ_section_title
;
Structure prediction by ZEFSAII (Michael W. Deem and Ramdas Pophale) SiO2 
 PCOD8320390
Probable space group: I 4/M C M
;
_chemical_formula_sum "Si O2"
_cell_formula_units_Z 160
_cell_length_a 22.722820
_cell_length_b 22.722820
_cell_length_c 15.464096
_cell_angle_alpha 90.000000
_cell_angle_beta 90.000000
_cell_angle_gamma 90.000000
_cell_volume 7984.523317
_symmetry_space_group_name_H-M "I 4/M C M"
_symmetry_group_IT_number 140
_symmetry_cell_setting 'tetragonal'
loop_
_space_group_symop_operation_xyz
x,y,z
-y,x,z
-x,-y,z
y,-x,z
x,-y,1/2-z
-x,y,1/2-z
y,x,1/2-z
-y,-x,1/2-z
-x,-y,-z
y,-x,-z
x,y,-z
-y,x,-z
-x,y,1/2+z
x,-y,1/2+z
-y,-x,1/2+z
y,x,1/2+z
1/2+x,1/2+y,1/2+z
1/2-y,1/2+x,1/2+z
1/2-x,1/2-y,1/2+z
1/2+y,1/2-x,1/2+z
1/2+x,1/2-y,-z
1/2-x,1/2+y,-z
1/2+y,1/2+x,-z
1/2-y,1/2-x,-z
1/2-x,1/2-y,1/2-z
1/2+y,1/2-x,1/2-z
1/2+x,1/2+y,1/2-z
1/2-y,1/2+x,1/2-z
1/2-x,1/2+y,z
1/2+x,1/2-y,z
1/2-y,1/2-x,z
1/2+y,1/2+x,z
loop_
_atom_site_type_symbol
_atom_site_label
_atom_site_fract_x
_atom_site_fract_y
_atom_site_fract_z
Si Si1 0.925353 0.254958 0.596305
Si Si2 0.447963 0.579394 0.901318
Si Si3 0.933076 0.336828 0.244932
Si Si4 0.742790 0.440828 0.902394
Si Si5 0.352426 0.652696 0.155024
O O1 0.924748 0.282251 0.500000
O O2 0.915280 0.306132 0.665385
O O3 0.868592 0.211597 0.602160
O O4 0.990203 0.224177 0.612794
O O5 0.420007 0.516252 0.883542
O O6 0.416561 0.622816 0.834757
O O7 0.434781 0.599203 0.000000
O O8 0.893494 0.393494 0.229264
O O9 0.922890 0.292887 0.165033
O O10 0.000000 0.358653 0.250000
O O11 0.689789 0.393943 0.892345
O O12 0.766929 0.433680 0.000000
O O13 0.329313 0.670688 0.250000
#
# Coordination Sequence:
#
# PCOD8320390 Si02
#       5
#    32  32  32  32  32
#     4  10  21  38  59  84 119 162 203 244 290 338
#     4   9  18  30  42  62  97 142 194 251 302 339
#     4  10  22  42  67  95 122 146 180 228 287 358
#     4  10  21  38  59  84 119 162 203 244 290 338
#     4  12  21  31  51  78 112 154 203 249 287 335
#
# _framework density 20.038765999999999
#
# number of rings (size 3 to 8) (size 9 to 14) (size 15 to 20)
#    0.000    1.800    2.000    3.600    0.000    6.600 
#    0.000    3.000    0.000    2.400    0.000    5.600 
#    0.000    0.000    0.000    0.000    0.000    0.000 
#
# Total GULP energy -991255.750098 kJ/mol
# GULP energy per Si atom -12390.696876 kJ/mol
# Density = 1.999316 g / cm^3
# Si number density = 20.038766 Si / 1000 Ang^3
#
#
#
# Elastic Constant Matrix: (Units=GPa)
#
#
# Indices 1 2 3 4 5 6 
#
# 1 66.2170 47.9509 29.6218 0.0000 0.0000 0.0000
# 2 47.9509 66.2169 29.6217 0.0000 0.0000 0.0000
# 3 29.6218 29.6217 125.4614 0.0000 0.0000 0.0000
# 4 0.0000 0.0000 0.0000 17.5555 0.0000 0.0000
# 5 0.0000 0.0000 0.0000 0.0000 17.5554 0.0000
# 6 0.0000 0.0000 0.0000 0.0000 0.0000 38.8251
#
#
#
# Elastic Compliance Matrix: (Units=1/GPa)
#
#
# Indices 1 2 3 4 5 6 
#
# 1 0.032364 -0.022382 -0.002357 0.000000 0.000000 0.000000
# 2 -0.022382 0.032364 -0.002357 0.000000 0.000000 0.000000
# 3 -0.002357 -0.002357 0.009083 0.000000 0.000000 0.000000
# 4 0.000000 0.000000 0.000000 0.056962 0.000000 0.000000
# 5 0.000000 0.000000 0.000000 0.000000 0.056962 0.000000
# 6 0.000000 0.000000 0.000000 0.000000 0.000000 0.025757
#
#
# Mechanical properties :
#
#
# Convention : Reuss Voigt Hill
#
# Bulk Modulus (GPa) = 50.96745 52.47599 51.72172
# Shear Modulus (GPa) = 18.23322 24.83393 21.53358
#
# Velocity S-wave (km/s) = 3.01972 3.52418 3.28166
# Velocity P-wave (km/s) = 6.13579 6.54247 6.34239
#
# Compressibility (1/GPa) = 0.01962037
#
# Stress axis : x y z
#
# Youngs Moduli (GPa) = 30.89838 30.89836 110.09021
#
# Poissons Ratio (x) = 0.69157 0.25946
# Poissons Ratio (y) = 0.69157 0.25946
# Poissons Ratio (z) = 0.07282 0.07282
#
# Static dielectric constant tensor:
#      x y z
#    x 3.384890 0.000000 0.000000 
#    y 0.000000 3.384900 0.000000 
#    z 0.000000 0.000000 3.766990 
# 
# 
# High freq. dielectric constant tensor:
#      x y z
#    x 1.755680 0.000000 0.000000 
#    y 0.000000 1.755680 0.000000 
#    z 0.000000 0.000000 1.792810 
# 
# From -- ./inp_files/4748.got.cif
#   From: 2010.06.25/outbox.cif.g09.slc.cpg/sg140_3_cif.got.tgz:4748.got - 2010.06.28 10:53:23.
