data_PCOD8320285
_publ_section_title
;
Structure prediction by ZEFSAII (Michael W. Deem and Ramdas Pophale) SiO2 
 PCOD8320285
Probable space group: I 4/M C M
;
_chemical_formula_sum "Si O2"
_cell_formula_units_Z 144
_cell_length_a 20.926860
_cell_length_b 20.926860
_cell_length_c 17.397922
_cell_angle_alpha 90.000000
_cell_angle_beta 90.000000
_cell_angle_gamma 90.000000
_cell_volume 7619.132343
_symmetry_space_group_name_H-M "I 4/M C M"
_symmetry_group_IT_number 140
_symmetry_cell_setting 'tetragonal'
loop_
_space_group_symop_operation_xyz
x,y,z
-y,x,z
-x,-y,z
y,-x,z
x,-y,1/2-z
-x,y,1/2-z
y,x,1/2-z
-y,-x,1/2-z
-x,-y,-z
y,-x,-z
x,y,-z
-y,x,-z
-x,y,1/2+z
x,-y,1/2+z
-y,-x,1/2+z
y,x,1/2+z
1/2+x,1/2+y,1/2+z
1/2-y,1/2+x,1/2+z
1/2-x,1/2-y,1/2+z
1/2+y,1/2-x,1/2+z
1/2+x,1/2-y,-z
1/2-x,1/2+y,-z
1/2+y,1/2+x,-z
1/2-y,1/2-x,-z
1/2-x,1/2-y,1/2-z
1/2+y,1/2-x,1/2-z
1/2+x,1/2+y,1/2-z
1/2-y,1/2+x,1/2-z
1/2-x,1/2+y,z
1/2+x,1/2-y,z
1/2-y,1/2-x,z
1/2+y,1/2+x,z
loop_
_atom_site_type_symbol
_atom_site_label
_atom_site_fract_x
_atom_site_fract_y
_atom_site_fract_z
Si Si1 0.776610 0.623428 0.586629
Si Si2 0.135419 0.896023 0.410550
Si Si3 0.174933 0.978604 0.837621
Si Si4 0.179671 0.500999 0.838654
Si Si5 0.948095 0.551905 0.090793
O O1 0.778440 0.596380 0.500000
O O2 0.806915 0.693085 0.593500
O O3 0.704124 0.632162 0.613418
O O4 0.817624 0.574961 0.637615
O O5 0.117917 0.884822 0.500000
O O6 0.087816 0.859660 0.353881
O O7 0.138861 0.971408 0.393144
O O8 0.250396 0.970709 0.856681
O O9 0.165414 0.000000 0.750000
O O10 0.161951 0.500000 0.750000
O O11 0.123757 0.464249 0.883017
O O12 0.000000 0.500000 0.122845
O O13 0.949602 0.550399 0.000000
#
# Coordination Sequence:
#
# PCOD8320285 Si02
#       5
#    32  32  32  32  16
#     4   9  18  35  58  82 111 150 193 234 285 348
#     4  10  20  35  59  86 112 147 191 239 285 341
#     4  10  21  39  58  81 118 151 188 232 291 345
#     4  10  22  36  57  82 115 152 189 236 289 336
#     4  11  24  38  56  84 113 150 196 238 289 345
#
# _framework density 18.899788999999998
#
# number of rings (size 3 to 8) (size 9 to 14) (size 15 to 20)
#    0.000    2.111    0.000    2.667    3.111    4.889 
#    2.000    2.222    0.000    4.000    0.000    0.000 
#    0.000    0.000    0.000    0.000    0.000    0.000 
#
# Total GULP energy -892734.831767 kJ/mol
# GULP energy per Si atom -12399.094886 kJ/mol
# Density = 1.885677 g / cm^3
# Si number density = 18.899789 Si / 1000 Ang^3
#
#
#
# Elastic Constant Matrix: (Units=GPa)
#
#
# Indices 1 2 3 4 5 6 
#
# 1 112.5535 88.1426 48.2180 0.0000 0.0000 0.0000
# 2 88.1426 112.5532 48.2178 0.0000 0.0000 0.0000
# 3 48.2180 48.2178 83.5403 0.0000 0.0000 0.0000
# 4 0.0000 0.0000 0.0000 31.2459 0.0000 0.0000
# 5 0.0000 0.0000 0.0000 0.0000 31.2459 0.0000
# 6 0.0000 0.0000 0.0000 0.0000 0.0000 26.7457
#
#
#
# Elastic Compliance Matrix: (Units=1/GPa)
#
#
# Indices 1 2 3 4 5 6 
#
# 1 0.023930 -0.017035 -0.003980 0.000000 0.000000 0.000000
# 2 -0.017035 0.023930 -0.003980 0.000000 0.000000 0.000000
# 3 -0.003980 -0.003980 0.016564 0.000000 0.000000 0.000000
# 4 0.000000 0.000000 0.000000 0.032004 0.000000 0.000000
# 5 0.000000 0.000000 0.000000 0.000000 0.032004 0.000000
# 6 0.000000 0.000000 0.000000 0.000000 0.000000 0.037389
#
#
# Mechanical properties :
#
#
# Convention : Reuss Voigt Hill
#
# Bulk Modulus (GPa) = 69.27343 75.31153 72.29248
# Shear Modulus (GPa) = 22.66309 26.11875 24.39092
#
# Velocity S-wave (km/s) = 3.46659 3.72151 3.59630
# Velocity P-wave (km/s) = 7.26330 7.64202 7.45507
#
# Compressibility (1/GPa) = 0.01443555
#
# Stress axis : x y z
#
# Youngs Moduli (GPa) = 41.78818 41.78814 60.37130
#
# Poissons Ratio (x) = 0.71188 0.24026
# Poissons Ratio (y) = 0.71188 0.24025
# Poissons Ratio (z) = 0.16630 0.16630
#
# Static dielectric constant tensor:
#      x y z
#    x 3.443650 0.000000 0.000000 
#    y 0.000000 3.443660 0.000000 
#    z 0.000000 0.000000 3.498750 
# 
# 
# High freq. dielectric constant tensor:
#      x y z
#    x 1.732660 0.000000 0.000000 
#    y 0.000000 1.732660 0.000000 
#    z 0.000000 0.000000 1.741630 
# 
# From -- ./inp_files/6617.got.cif
#   From: 2010.06.25/outbox.cif.g09.slc.cpg/sg140_4_cif.got.tgz:6617.got - 2010.06.28 10:53:23.
