data_PCOD8320788
_publ_section_title
;
Structure prediction by ZEFSAII (Michael W. Deem and Ramdas Pophale) SiO2 
 PCOD8320788
Probable space group: I 41/A M D
;
_chemical_formula_sum "Si O2"
_cell_formula_units_Z 160
_cell_length_a 20.047788
_cell_length_b 20.047788
_cell_length_c 19.682826
_cell_angle_alpha 90.000000
_cell_angle_beta 90.000000
_cell_angle_gamma 90.000000
_cell_volume 7910.799465
_symmetry_space_group_name_H-M "I 41/A M D"
_symmetry_group_IT_number 141
_space_group.IT_coordinate_system_code '2'
_symmetry_cell_setting 'tetragonal'
loop_
_space_group_symop_operation_xyz
x,y,z
1/4-y,3/4+x,1/4+z
-x,1/2-y,z
1/4+y,1/4-x,3/4+z
x,-y,-z
-x,1/2+y,-z
1/4+y,3/4+x,1/4-z
1/4-y,1/4-x,3/4-z
-x,-y,-z
3/4+y,1/4-x,3/4-z
x,1/2+y,-z
3/4-y,3/4+x,1/4-z
-x,y,z
x,1/2-y,z
3/4-y,1/4-x,3/4+z
3/4+y,3/4+x,1/4+z
1/2+x,1/2+y,1/2+z
3/4-y,1/4+x,3/4+z
1/2-x,-y,1/2+z
3/4+y,3/4-x,1/4+z
1/2+x,1/2-y,1/2-z
1/2-x,y,1/2-z
3/4+y,1/4+x,3/4-z
3/4-y,3/4-x,1/4-z
1/2-x,1/2-y,1/2-z
1/4+y,3/4-x,1/4-z
1/2+x,y,1/2-z
1/4-y,1/4+x,3/4-z
1/2-x,1/2+y,1/2+z
1/2+x,-y,1/2+z
1/4-y,3/4-x,1/4+z
1/4+y,1/4+x,3/4+z
loop_
_atom_site_type_symbol
_atom_site_label
_atom_site_fract_x
_atom_site_fract_y
_atom_site_fract_z
Si Si1 0.074568 0.826472 0.413179
Si Si2 0.424129 0.881360 0.806738
Si Si3 0.424204 0.923012 0.416713
Si Si4 0.695638 0.520824 0.800835
Si Si5 0.319324 0.871173 0.187868
O O1 0.088201 0.750000 0.393699
O O2 0.082214 0.837368 0.493609
O O3 0.125733 0.871231 0.371080
O O4 0.000000 0.848241 0.393256
O O5 0.409219 0.840782 0.875000
O O6 0.500000 0.908132 0.808828
O O7 0.375661 0.943862 0.797627
O O8 0.376653 0.873348 0.375000
O O9 0.500000 0.912848 0.390799
O O10 0.423477 0.908767 0.497798
O O11 0.402238 0.999666 0.404604
O O12 0.726657 0.523344 0.875000
O O13 0.750000 0.553882 0.750000
O O14 0.685249 0.444559 0.780300
#
# Coordination Sequence:
#
# PCOD8320788 Si02
#       5
#    32  32  32  32  32
#     4  10  21  37  60  88 122 163 203 253 311 372
#     4  10  22  39  62  93 128 167 213 261 314 380
#     4  11  24  41  64  93 125 167 214 269 325 381
#     4  11  22  38  62  89 122 162 209 263 321 372
#     4  11  22  40  65  89 124 165 216 262 319 382
#
# _framework density 20.225515999999999
#
# number of rings (size 3 to 8) (size 9 to 14) (size 15 to 20)
#    0.000    1.400    2.000    4.800    2.800    2.800 
#    0.000    0.000    0.000    6.600    0.000    0.000 
#    0.000    0.000    0.000    0.000    0.000    0.000 
#
# Total GULP energy -992163.273299 kJ/mol
# GULP energy per Si atom -12402.040916 kJ/mol
# Density = 2.017948 g / cm^3
# Si number density = 20.225516 Si / 1000 Ang^3
#
#
#
# Elastic Constant Matrix: (Units=GPa)
#
#
# Indices 1 2 3 4 5 6 
#
# 1 123.2253 57.7086 52.3125 0.0000 0.0000 0.0000
# 2 57.7086 123.2246 52.3153 0.0000 0.0000 0.0000
# 3 52.3125 52.3153 109.3899 0.0000 0.0000 0.0000
# 4 0.0000 0.0000 0.0000 32.3884 0.0000 0.0000
# 5 0.0000 0.0000 0.0000 0.0000 32.3886 0.0000
# 6 0.0000 0.0000 0.0000 0.0000 0.0000 24.4707
#
#
#
# Elastic Compliance Matrix: (Units=1/GPa)
#
#
# Indices 1 2 3 4 5 6 
#
# 1 0.011451 -0.003812 -0.003653 0.000000 0.000000 0.000000
# 2 -0.003812 0.011452 -0.003654 0.000000 0.000000 0.000000
# 3 -0.003653 -0.003654 0.012636 0.000000 0.000000 0.000000
# 4 0.000000 0.000000 0.000000 0.030875 0.000000 0.000000
# 5 0.000000 0.000000 0.000000 0.000000 0.030875 0.000000
# 6 0.000000 0.000000 0.000000 0.000000 0.000000 0.040865
#
#
# Mechanical properties :
#
#
# Convention : Reuss Voigt Hill
#
# Bulk Modulus (GPa) = 75.18104 75.61250 75.39677
# Shear Modulus (GPa) = 30.33500 30.74976 30.54238
#
# Velocity S-wave (km/s) = 3.87698 3.90339 3.89021
# Velocity P-wave (km/s) = 7.56924 7.60139 7.58533
#
# Compressibility (1/GPa) = 0.01330123
#
# Stress axis : x y z
#
# Youngs Moduli (GPa) = 87.32648 87.32345 79.13853
#
# Poissons Ratio (x) = 0.33287 0.28911
# Poissons Ratio (y) = 0.33288 0.28916
# Poissons Ratio (z) = 0.31902 0.31906
#
# Static dielectric constant tensor:
#      x y z
#    x 3.616630 0.000000 0.000000 
#    y 0.000000 3.616630 0.000000 
#    z 0.000000 0.000000 3.703980 
# 
# 
# High freq. dielectric constant tensor:
#      x y z
#    x 1.787220 0.000000 0.000000 
#    y 0.000000 1.787220 0.000000 
#    z 0.000000 0.000000 1.798760 
# 
# From -- ./inp_files/8621.got.cif
#   From: 2010.03.12/outbox.cif.g09.slc.cpg/sg141_5_cif.got.tgz:8621.got - 2010.04.03 13:18:35.
