data_PCOD8320200
_publ_section_title
;
Structure prediction by ZEFSAII (Michael W. Deem and Ramdas Pophale) SiO2 
 PCOD8320200
Probable space group: I 4/M C M
;
_chemical_formula_sum "Si O2"
_cell_formula_units_Z 176
_cell_length_a 24.980658
_cell_length_b 24.980658
_cell_length_c 14.796693
_cell_angle_alpha 90.000000
_cell_angle_beta 90.000000
_cell_angle_gamma 90.000000
_cell_volume 9233.628779
_symmetry_space_group_name_H-M "I 4/M C M"
_symmetry_group_IT_number 140
_symmetry_cell_setting 'tetragonal'
loop_
_space_group_symop_operation_xyz
x,y,z
-y,x,z
-x,-y,z
y,-x,z
x,-y,1/2-z
-x,y,1/2-z
y,x,1/2-z
-y,-x,1/2-z
-x,-y,-z
y,-x,-z
x,y,-z
-y,x,-z
-x,y,1/2+z
x,-y,1/2+z
-y,-x,1/2+z
y,x,1/2+z
1/2+x,1/2+y,1/2+z
1/2-y,1/2+x,1/2+z
1/2-x,1/2-y,1/2+z
1/2+y,1/2-x,1/2+z
1/2+x,1/2-y,-z
1/2-x,1/2+y,-z
1/2+y,1/2+x,-z
1/2-y,1/2-x,-z
1/2-x,1/2-y,1/2-z
1/2+y,1/2-x,1/2-z
1/2+x,1/2+y,1/2-z
1/2-y,1/2+x,1/2-z
1/2-x,1/2+y,z
1/2+x,1/2-y,z
1/2-y,1/2-x,z
1/2+y,1/2+x,z
loop_
_atom_site_type_symbol
_atom_site_label
_atom_site_fract_x
_atom_site_fract_y
_atom_site_fract_z
Si Si1 0.668139 0.970939 0.659327
Si Si2 0.125896 0.191902 0.897259
Si Si3 0.211395 0.991267 0.855049
Si Si4 0.587688 0.000691 0.500000
Si Si5 0.631199 0.784781 0.736888
Si Si6 0.104226 0.210379 0.400124
O O1 0.725813 0.987571 0.620187
O O2 0.623205 0.986922 0.587370
O O3 0.673428 0.908491 0.687307
O O4 0.650801 0.000000 0.750000
O O5 0.062533 0.180487 0.884457
O O6 0.146832 0.238893 0.833517
O O7 0.159804 0.139686 0.870035
O O8 0.137227 0.208816 0.000000
O O9 0.203328 0.000000 0.750000
O O10 0.188664 0.043218 0.906018
O O11 0.538161 0.961840 0.500000
O O12 0.561769 0.061769 0.500000
O O13 0.684871 0.815130 0.765667
O O14 0.606366 0.758709 0.827663
O O15 0.121562 0.231072 0.500000
#
# Coordination Sequence:
#
# PCOD8320200 Si02
#       6
#    32  32  32  16  32  32
#     4  10  21  41  62  86 112 151 201 247 301 361
#     4  10  22  37  59  89 120 158 199 242 299 359
#     4  10  19  37  62  85 115 154 197 243 289 346
#     4  11  26  42  60  88 118 152 198 259 316 364
#     4  11  23  38  59  87 118 156 200 246 297 361
#     4  11  22  38  60  88 121 157 198 246 301 357
#
# _framework density 19.060760999999999
#
# number of rings (size 3 to 8) (size 9 to 14) (size 15 to 20)
#    0.000    1.545    5.455    1.636    6.364    3.636 
#    0.000    2.727    0.000    0.545    0.000    3.818 
#    0.000    0.000    0.000    0.000    0.000    0.000 
#
# Total GULP energy -1090569.345907 kJ/mol
# GULP energy per Si atom -12392.833476 kJ/mol
# Density = 1.901738 g / cm^3
# Si number density = 19.060761 Si / 1000 Ang^3
#
#
#
# Elastic Constant Matrix: (Units=GPa)
#
#
# Indices 1 2 3 4 5 6 
#
# 1 93.1166 67.4412 43.6135 0.0000 0.0000 0.0000
# 2 67.4412 93.1154 43.6130 0.0000 0.0000 0.0000
# 3 43.6135 43.6130 97.2197 0.0000 0.0000 0.0000
# 4 0.0000 0.0000 0.0000 31.7033 0.0000 0.0000
# 5 0.0000 0.0000 0.0000 0.0000 31.7157 0.0000
# 6 0.0000 0.0000 0.0000 0.0000 0.0000 37.6515
#
#
#
# Elastic Compliance Matrix: (Units=1/GPa)
#
#
# Indices 1 2 3 4 5 6 
#
# 1 0.023592 -0.015357 -0.003694 0.000000 0.000000 0.000000
# 2 -0.015357 0.023592 -0.003694 0.000000 0.000000 0.000000
# 3 -0.003694 -0.003694 0.013601 0.000000 0.000000 0.000000
# 4 0.000000 0.000000 0.000000 0.031542 0.000000 0.000000
# 5 0.000000 0.000000 0.000000 0.000000 0.031530 0.000000
# 6 0.000000 0.000000 0.000000 0.000000 0.000000 0.026559
#
#
# Mechanical properties :
#
#
# Convention : Reuss Voigt Hill
#
# Bulk Modulus (GPa) = 65.38636 65.86522 65.62579
# Shear Modulus (GPa) = 24.87491 28.79970 26.83730
#
# Velocity S-wave (km/s) = 3.61644 3.89130 3.75639
# Velocity P-wave (km/s) = 7.19839 7.40406 7.30195
#
# Compressibility (1/GPa) = 0.01529371
#
# Stress axis : x y z
#
# Youngs Moduli (GPa) = 42.38733 42.38688 73.52575
#
# Poissons Ratio (x) = 0.65092 0.27164
# Poissons Ratio (y) = 0.65093 0.27163
# Poissons Ratio (z) = 0.15660 0.15659
#
# Static dielectric constant tensor:
#      x y z
#    x 3.574030 0.000000 0.000000 
#    y 0.000000 3.574030 0.000000 
#    z 0.000000 0.000000 3.650090 
# 
# 
# High freq. dielectric constant tensor:
#      x y z
#    x 1.728790 0.000000 0.000000 
#    y 0.000000 1.728790 0.000000 
#    z 0.000000 0.000000 1.758350 
# 
# From -- ./inp_files/4906.got.cif
#   From: 2010.06.25/outbox.cif.g09.slc.cpg/sg140_3_cif.got.tgz:4906.got - 2010.06.28 10:53:23.
