data_PCOD8320124
_publ_section_title
;
Structure prediction by ZEFSAII (Michael W. Deem and Ramdas Pophale) SiO2 
 PCOD8320124
Probable space group: I 4/M C M
;
_chemical_formula_sum "Si O2"
_cell_formula_units_Z 144
_cell_length_a 17.114335
_cell_length_b 17.114335
_cell_length_c 27.344301
_cell_angle_alpha 90.000000
_cell_angle_beta 90.000000
_cell_angle_gamma 90.000000
_cell_volume 8009.158409
_symmetry_space_group_name_H-M "I 4/M C M"
_symmetry_group_IT_number 140
_symmetry_cell_setting 'tetragonal'
loop_
_space_group_symop_operation_xyz
x,y,z
-y,x,z
-x,-y,z
y,-x,z
x,-y,1/2-z
-x,y,1/2-z
y,x,1/2-z
-y,-x,1/2-z
-x,-y,-z
y,-x,-z
x,y,-z
-y,x,-z
-x,y,1/2+z
x,-y,1/2+z
-y,-x,1/2+z
y,x,1/2+z
1/2+x,1/2+y,1/2+z
1/2-y,1/2+x,1/2+z
1/2-x,1/2-y,1/2+z
1/2+y,1/2-x,1/2+z
1/2+x,1/2-y,-z
1/2-x,1/2+y,-z
1/2+y,1/2+x,-z
1/2-y,1/2-x,-z
1/2-x,1/2-y,1/2-z
1/2+y,1/2-x,1/2-z
1/2+x,1/2+y,1/2-z
1/2-y,1/2+x,1/2-z
1/2-x,1/2+y,z
1/2+x,1/2-y,z
1/2-y,1/2-x,z
1/2+y,1/2+x,z
loop_
_atom_site_type_symbol
_atom_site_label
_atom_site_fract_x
_atom_site_fract_y
_atom_site_fract_z
Si Si1 0.085757 0.289191 0.346045
Si Si2 0.255339 0.375515 0.756642
Si Si3 0.916237 0.103291 0.000000
Si Si4 0.307783 0.682768 0.919354
Si Si5 0.208808 0.583884 0.360090
O O1 0.127911 0.372090 0.347840
O O2 0.069809 0.264689 0.289715
O O3 0.137603 0.223165 0.371939
O O4 0.005729 0.301622 0.375729
O O5 0.342791 0.342791 0.750000
O O6 0.196190 0.303811 0.758282
O O7 0.252147 0.420041 0.807903
O O8 0.879893 0.151143 0.045335
O O9 0.011326 0.108933 0.000000
O O10 0.235972 0.735972 0.942113
O O11 0.374699 0.741123 0.901703
O O12 0.124559 0.624559 0.355219
#
# Coordination Sequence:
#
# PCOD8320124 Si02
#       5
#    32  32  16  32  32
#     4  10  19  31  50  75 103 134 168 206 246 291
#     4   9  15  28  47  70  98 132 173 205 236 280
#     4  11  23  38  56  78 103 127 156 206 266 307
#     4  10  20  36  56  76  98 130 171 205 241 297
#     4  10  19  31  50  75 103 134 168 206 246 291
#
# _framework density 17.979417000000002
#
# number of rings (size 3 to 8) (size 9 to 14) (size 15 to 20)
#    0.000    2.111    2.222    2.333    0.000    0.444 
#    0.000    0.000    0.000    4.000    0.000    1.556 
#    0.000   16.000    0.000    0.000    0.000    0.000 
#
# Total GULP energy -892140.559277 kJ/mol
# GULP energy per Si atom -12390.841101 kJ/mol
# Density = 1.793850 g / cm^3
# Si number density = 17.979417 Si / 1000 Ang^3
#
#
#
# Elastic Constant Matrix: (Units=GPa)
#
#
# Indices 1 2 3 4 5 6 
#
# 1 82.4482 18.4156 9.0020 0.0000 0.0000 0.0000
# 2 18.4156 82.4482 9.0020 0.0000 0.0000 0.0000
# 3 9.0020 9.0020 60.8804 0.0000 0.0000 0.0000
# 4 0.0000 0.0000 0.0000 19.5213 0.0000 0.0000
# 5 0.0000 0.0000 0.0000 0.0000 19.5213 0.0000
# 6 0.0000 0.0000 0.0000 0.0000 0.0000 19.4211
#
#
#
# Elastic Compliance Matrix: (Units=1/GPa)
#
#
# Indices 1 2 3 4 5 6 
#
# 1 0.012900 -0.002717 -0.001506 0.000000 0.000000 0.000000
# 2 -0.002717 0.012900 -0.001506 0.000000 0.000000 0.000000
# 3 -0.001506 -0.001506 0.016871 0.000000 0.000000 0.000000
# 4 0.000000 0.000000 0.000000 0.051226 0.000000 0.000000
# 5 0.000000 0.000000 0.000000 0.000000 0.051226 0.000000
# 6 0.000000 0.000000 0.000000 0.000000 0.000000 0.051490
#
#
# Mechanical properties :
#
#
# Convention : Reuss Voigt Hill
#
# Bulk Modulus (GPa) = 32.03658 33.17955 32.60807
# Shear Modulus (GPa) = 22.88587 24.31653 23.60120
#
# Velocity S-wave (km/s) = 3.57163 3.68158 3.62702
# Velocity P-wave (km/s) = 5.90474 6.04700 5.97629
#
# Compressibility (1/GPa) = 0.03121432
#
# Stress axis : x y z
#
# Youngs Moduli (GPa) = 77.51883 77.51883 59.27352
#
# Poissons Ratio (x) = 0.21062 0.08925
# Poissons Ratio (y) = 0.21062 0.08925
# Poissons Ratio (z) = 0.11672 0.11672
#
# Static dielectric constant tensor:
#      x y z
#    x 3.270400 0.000000 0.000000 
#    y 0.000000 3.270400 0.000000 
#    z 0.000000 0.000000 3.219540 
# 
# 
# High freq. dielectric constant tensor:
#      x y z
#    x 1.690040 0.000000 0.000000 
#    y 0.000000 1.690040 0.000000 
#    z 0.000000 0.000000 1.685700 
# 
# From -- ./inp_files/9454.got.cif
#   From: 2010.06.25/outbox.cif.g09.slc.cpg/sg140_5_cif.got.tgz:9454.got - 2010.06.28 10:53:23.
