data_PCOD8320784
_publ_section_title
;
Structure prediction by ZEFSAII (Michael W. Deem and Ramdas Pophale) SiO2 
 PCOD8320784
Probable space group: I 41/A M D
;
_chemical_formula_sum "Si O2"
_cell_formula_units_Z 176
_cell_length_a 18.083982
_cell_length_b 18.083982
_cell_length_c 26.981192
_cell_angle_alpha 90.000000
_cell_angle_beta 90.000000
_cell_angle_gamma 90.000000
_cell_volume 8823.670147
_symmetry_space_group_name_H-M "I 41/A M D"
_symmetry_group_IT_number 141
_space_group.IT_coordinate_system_code '2'
_symmetry_cell_setting 'tetragonal'
loop_
_space_group_symop_operation_xyz
x,y,z
1/4-y,3/4+x,1/4+z
-x,1/2-y,z
1/4+y,1/4-x,3/4+z
x,-y,-z
-x,1/2+y,-z
1/4+y,3/4+x,1/4-z
1/4-y,1/4-x,3/4-z
-x,-y,-z
3/4+y,1/4-x,3/4-z
x,1/2+y,-z
3/4-y,3/4+x,1/4-z
-x,y,z
x,1/2-y,z
3/4-y,1/4-x,3/4+z
3/4+y,3/4+x,1/4+z
1/2+x,1/2+y,1/2+z
3/4-y,1/4+x,3/4+z
1/2-x,-y,1/2+z
3/4+y,3/4-x,1/4+z
1/2+x,1/2-y,1/2-z
1/2-x,y,1/2-z
3/4+y,1/4+x,3/4-z
3/4-y,3/4-x,1/4-z
1/2-x,1/2-y,1/2-z
1/4+y,3/4-x,1/4-z
1/2+x,y,1/2-z
1/4-y,1/4+x,3/4-z
1/2-x,1/2+y,1/2+z
1/2+x,-y,1/2+z
1/4-y,3/4-x,1/4+z
1/4+y,1/4+x,3/4+z
loop_
_atom_site_type_symbol
_atom_site_label
_atom_site_fract_x
_atom_site_fract_y
_atom_site_fract_z
Si Si1 0.319149 0.663534 0.092024
Si Si2 0.417362 0.052837 0.137970
Si Si3 0.082395 0.549274 0.456888
Si Si4 0.345591 0.427257 0.701367
Si Si5 0.084066 0.165935 0.875000
Si Si6 0.685568 0.072217 0.437378
O O1 0.337846 0.750000 0.095590
O O2 0.372833 0.624458 0.052318
O O3 0.236845 0.653004 0.070667
O O4 0.333195 0.628209 0.146383
O O5 0.382121 0.132121 0.125000
O O6 0.500000 0.066123 0.159176
O O7 0.420891 0.000634 0.091084
O O8 0.366188 0.011217 0.177666
O O9 0.120499 0.500000 0.500000
O O10 0.000000 0.572868 0.473759
O O11 0.363168 0.351921 0.671915
O O12 0.263887 0.457392 0.689129
O O13 0.352529 0.407763 0.759464
O O14 0.098193 0.250000 0.890748
#
# Coordination Sequence:
#
# PCOD8320784 Si02
#       6
#    32  32  32  32  16  32
#     4  11  22  37  62  93 122 156 208 265 307 361
#     4  10  21  37  57  84 120 155 195 249 307 369
#     4   9  20  39  60  82 115 158 197 242 307 373
#     4  11  22  38  63  90 120 164 212 254 300 369
#     4  11  24  42  62  90 132 168 199 252 316 372
#     4  10  22  39  62  88 121 165 210 259 305 362
#
# _framework density 19.946349000000001
#
# number of rings (size 3 to 8) (size 9 to 14) (size 15 to 20)
#    0.000    1.727    1.818    2.727    5.091    2.727 
#    0.000    1.818    0.000    3.273    0.000    0.000 
#    0.000    0.000    0.000    0.000    0.000    0.000 
#
# Total GULP energy -1091165.387891 kJ/mol
# GULP energy per Si atom -12399.606681 kJ/mol
# Density = 1.990095 g / cm^3
# Si number density = 19.946349 Si / 1000 Ang^3
#
#
#
# Elastic Constant Matrix: (Units=GPa)
#
#
# Indices 1 2 3 4 5 6 
#
# 1 115.9088 50.3527 39.8524 0.0000 0.0000 0.0000
# 2 50.3527 115.9090 39.8522 0.0000 0.0000 0.0000
# 3 39.8524 39.8522 121.7709 0.0000 0.0000 0.0000
# 4 0.0000 0.0000 0.0000 22.0120 0.0000 0.0000
# 5 0.0000 0.0000 0.0000 0.0000 22.0129 0.0000
# 6 0.0000 0.0000 0.0000 0.0000 0.0000 24.5816
#
#
#
# Elastic Compliance Matrix: (Units=1/GPa)
#
#
# Indices 1 2 3 4 5 6 
#
# 1 0.011194 -0.004060 -0.002335 0.000000 0.000000 0.000000
# 2 -0.004060 0.011194 -0.002335 0.000000 0.000000 0.000000
# 3 -0.002335 -0.002335 0.009740 0.000000 0.000000 0.000000
# 4 0.000000 0.000000 0.000000 0.045430 0.000000 0.000000
# 5 0.000000 0.000000 0.000000 0.000000 0.045428 0.000000
# 6 0.000000 0.000000 0.000000 0.000000 0.000000 0.040681
#
#
# Mechanical properties :
#
#
# Convention : Reuss Voigt Hill
#
# Bulk Modulus (GPa) = 68.17016 68.18925 68.17970
# Shear Modulus (GPa) = 26.87948 28.62341 27.75145
#
# Velocity S-wave (km/s) = 3.67493 3.79228 3.73407
# Velocity P-wave (km/s) = 7.22896 7.30997 7.26958
#
# Compressibility (1/GPa) = 0.01466918
#
# Stress axis : x y z
#
# Youngs Moduli (GPa) = 89.33363 89.33396 102.66602
#
# Poissons Ratio (x) = 0.36271 0.23970
# Poissons Ratio (y) = 0.36270 0.23969
# Poissons Ratio (z) = 0.20857 0.20857
#
# Static dielectric constant tensor:
#      x y z
#    x 3.678750 0.000000 0.000000 
#    y 0.000000 3.678720 0.000000 
#    z 0.000000 0.000000 3.783360 
# 
# 
# High freq. dielectric constant tensor:
#      x y z
#    x 1.769770 0.000000 0.000000 
#    y 0.000000 1.769770 0.000000 
#    z 0.000000 0.000000 1.782940 
# 
# From -- ./inp_files/12901.got.cif
#   From: 2010.03.12/outbox.cif.g09.slc.cpg/sg141_7_cif.got.tgz:12901.got - 2010.04.03 13:18:35.
