data_PCOD8320970
_publ_section_title
;
Structure prediction by ZEFSAII (Michael W. Deem and Ramdas Pophale) SiO2 
 PCOD8320970
Probable space group: I 41/A C D
;
_chemical_formula_sum "Si O2"
_cell_formula_units_Z 192
_cell_length_a 29.154564
_cell_length_b 29.154564
_cell_length_c 13.426011
_cell_angle_alpha 90.000000
_cell_angle_beta 90.000000
_cell_angle_gamma 90.000000
_cell_volume 11411.956321
_symmetry_space_group_name_H-M "I 41/A C D"
_symmetry_group_IT_number 142
_space_group.IT_coordinate_system_code '2'
_symmetry_cell_setting 'tetragonal'
loop_
_space_group_symop_operation_xyz
x,y,z
1/4-y,3/4+x,1/4+z
-x,1/2-y,z
1/4+y,1/4-x,3/4+z
x,-y,1/2-z
1/2-x,y,-z
3/4+y,1/4+x,1/4-z
1/4-y,1/4-x,1/4-z
-x,-y,-z
3/4+y,1/4-x,3/4-z
x,1/2+y,-z
3/4-y,3/4+x,1/4-z
-x,y,1/2+z
1/2+x,-y,z
1/4-y,3/4-x,3/4+z
3/4+y,3/4+x,3/4+z
1/2+x,1/2+y,1/2+z
3/4-y,1/4+x,3/4+z
1/2-x,-y,1/2+z
3/4+y,3/4-x,1/4+z
1/2+x,1/2-y,-z
-x,1/2+y,1/2-z
1/4+y,3/4+x,3/4-z
3/4-y,3/4-x,3/4-z
1/2-x,1/2-y,1/2-z
1/4+y,3/4-x,1/4-z
1/2+x,y,1/2-z
1/4-y,1/4+x,3/4-z
1/2-x,1/2+y,z
x,1/2-y,1/2+z
3/4-y,1/4-x,1/4+z
1/4+y,1/4+x,1/4+z
loop_
_atom_site_type_symbol
_atom_site_label
_atom_site_fract_x
_atom_site_fract_y
_atom_site_fract_z
Si Si1 0.326214 0.103533 0.765444
Si Si2 0.048229 0.050645 0.967247
Si Si3 0.137980 0.084560 0.431288
Si Si4 0.194677 0.701916 0.287638
Si Si5 0.082705 0.551997 0.246043
Si Si6 0.698514 0.986907 0.529178
O O1 0.332524 0.082524 0.875000
O O2 0.322881 0.158333 0.773347
O O3 0.367412 0.092026 0.688315
O O4 0.282501 0.081883 0.706808
O O5 0.049217 0.057587 0.848288
O O6 0.049891 0.997357 0.994880
O O7 0.002018 0.074735 0.007896
O O8 0.087522 0.081034 0.476648
O O9 0.162436 0.126317 0.487184
O O10 0.170100 0.040153 0.446122
O O11 0.186918 0.695858 0.405103
O O12 0.102661 0.500000 0.250000
O O13 0.750000 0.001477 0.500000
O O14 0.703536 0.953536 0.625000
#
# Coordination Sequence:
#
# PCOD8320970 Si02
#       6
#    32  32  32  32  32  32
#     4  11  24  37  48  71 110 140 177 217 264 316
#     4   9  20  35  49  72 101 137 176 218 262 312
#     4  11  21  32  51  76  99 136 182 217 258 305
#     4  10  18  33  54  73  98 135 183 218 260 306
#     4   9  18  32  50  74 104 133 170 222 263 307
#     4  12  21  32  48  70 101 142 175 211 248 294
#
# _framework density 16.824459999999998
#
# number of rings (size 3 to 8) (size 9 to 14) (size 15 to 20)
#    0.000    1.667    3.333    2.500    2.333    1.333 
#    0.000    1.667    0.000    0.000    0.000    0.000 
#    0.000   34.667    0.000    0.000    0.000    0.000 
#
# Total GULP energy -1189946.925669 kJ/mol
# GULP energy per Si atom -12395.280476 kJ/mol
# Density = 1.678617 g / cm^3
# Si number density = 16.824460 Si / 1000 Ang^3
#
#
#
# Elastic Constant Matrix: (Units=GPa)
#
#
# Indices 1 2 3 4 5 6 
#
# 1 94.5437 36.9761 38.6671 0.0000 0.0000 0.0000
# 2 36.9761 94.5437 38.6671 0.0000 0.0000 0.0000
# 3 38.6671 38.6671 105.0635 0.0000 0.0000 0.0000
# 4 0.0000 0.0000 0.0000 21.5154 0.0000 0.0000
# 5 0.0000 0.0000 0.0000 0.0000 21.5154 0.0000
# 6 0.0000 0.0000 0.0000 0.0000 0.0000 12.5762
#
#
#
# Elastic Compliance Matrix: (Units=1/GPa)
#
#
# Indices 1 2 3 4 5 6 
#
# 1 0.013537 -0.003834 -0.003571 0.000000 0.000000 0.000000
# 2 -0.003834 0.013537 -0.003571 0.000000 0.000000 0.000000
# 3 -0.003571 -0.003571 0.012147 0.000000 0.000000 0.000000
# 4 0.000000 0.000000 0.000000 0.046478 0.000000 0.000000
# 5 0.000000 0.000000 0.000000 0.000000 0.046478 0.000000
# 6 0.000000 0.000000 0.000000 0.000000 0.000000 0.079515
#
#
# Mechanical properties :
#
#
# Convention : Reuss Voigt Hill
#
# Bulk Modulus (GPa) = 57.90851 58.08571 57.99711
# Shear Modulus (GPa) = 20.88544 23.11078 21.99811
#
# Velocity S-wave (km/s) = 3.52714 3.71029 3.61987
# Velocity P-wave (km/s) = 7.14714 7.27698 7.21235
#
# Compressibility (1/GPa) = 0.01726862
#
# Stress axis : x y z
#
# Youngs Moduli (GPa) = 73.87125 73.87125 82.32710
#
# Poissons Ratio (x) = 0.28321 0.29400
# Poissons Ratio (y) = 0.28321 0.29400
# Poissons Ratio (z) = 0.26380 0.26380
#
# Static dielectric constant tensor:
#      x y z
#    x 3.059820 0.000000 0.000000 
#    y 0.000000 3.059820 0.000000 
#    z 0.000000 0.000000 3.354930 
# 
# 
# High freq. dielectric constant tensor:
#      x y z
#    x 1.621910 0.000000 0.000000 
#    y 0.000000 1.621910 0.000000 
#    z 0.000000 0.000000 1.661620 
# 
# From -- ./inp_files/5830.got.cif
#   From: 2010.03.12/outbox.cif.g09.slc.cpg/sg142_3_cif.got.tgz:5830.got - 2010.04.03 13:27:16.
