data_PCOD8320821
_publ_section_title
;
Structure prediction by ZEFSAII (Michael W. Deem and Ramdas Pophale) SiO2 
 PCOD8320821
Probable space group: I 41/A M D
;
_chemical_formula_sum "Si O2"
_cell_formula_units_Z 148
_cell_length_a 28.938101
_cell_length_b 28.938101
_cell_length_c 9.157266
_cell_angle_alpha 90.000000
_cell_angle_beta 90.000000
_cell_angle_gamma 90.000000
_cell_volume 7668.419907
_symmetry_space_group_name_H-M "I 41/A M D"
_symmetry_group_IT_number 141
_space_group.IT_coordinate_system_code '2'
_symmetry_cell_setting 'tetragonal'
loop_
_space_group_symop_operation_xyz
x,y,z
1/4-y,3/4+x,1/4+z
-x,1/2-y,z
1/4+y,1/4-x,3/4+z
x,-y,-z
-x,1/2+y,-z
1/4+y,3/4+x,1/4-z
1/4-y,1/4-x,3/4-z
-x,-y,-z
3/4+y,1/4-x,3/4-z
x,1/2+y,-z
3/4-y,3/4+x,1/4-z
-x,y,z
x,1/2-y,z
3/4-y,1/4-x,3/4+z
3/4+y,3/4+x,1/4+z
1/2+x,1/2+y,1/2+z
3/4-y,1/4+x,3/4+z
1/2-x,-y,1/2+z
3/4+y,3/4-x,1/4+z
1/2+x,1/2-y,1/2-z
1/2-x,y,1/2-z
3/4+y,1/4+x,3/4-z
3/4-y,3/4-x,1/4-z
1/2-x,1/2-y,1/2-z
1/4+y,3/4-x,1/4-z
1/2+x,y,1/2-z
1/4-y,1/4+x,3/4-z
1/2-x,1/2+y,1/2+z
1/2+x,-y,1/2+z
1/4-y,3/4-x,1/4+z
1/4+y,1/4+x,3/4+z
loop_
_atom_site_type_symbol
_atom_site_label
_atom_site_fract_x
_atom_site_fract_y
_atom_site_fract_z
Si Si1 0.050470 0.464904 0.381336
Si Si2 0.233137 0.625353 0.407105
Si Si3 0.876247 0.173619 0.243893
Si Si4 0.352160 0.078829 0.784149
Si Si5 0.000000 0.697721 0.401790
Si Si6 0.000000 0.250000 0.875000
O O1 0.072845 0.500000 0.500000
O O2 0.081350 0.460236 0.237554
O O3 0.043458 0.414380 0.449905
O O4 0.000000 0.483827 0.335822
O O5 0.250000 0.643462 0.250000
O O6 0.194607 0.585992 0.378626
O O7 0.273725 0.606681 0.512054
O O8 0.889865 0.139865 0.375000
O O9 0.854241 0.144655 0.111500
O O10 0.920376 0.203778 0.195887
O O11 0.351353 0.101353 0.625000
O O12 0.000000 0.703949 0.225841
O O13 0.000000 0.750000 0.472734
#
# Coordination Sequence:
#
# PCOD8320821 Si02
#       6
#    32  32  32  32  16   4
#     4  11  22  38  61  92 125 160 206 263 318 379
#     4  10  21  41  64  90 125 166 213 265 320 386
#     4  12  23  38  66  94 122 167 208 261 325 376
#     4  10  22  39  67  89 127 167 215 265 322 387
#     4  10  26  43  65  94 131 165 212 263 315 379
#     4   8  24  52  66  88 132 168 210 264 316 372
#
# _framework density 19.299935999999999
#
# number of rings (size 3 to 8) (size 9 to 14) (size 15 to 20)
#    0.324    1.081    5.405    0.000    3.027    0.432 
#    0.000    0.000   40.432    0.000    0.000    0.000 
#    0.000    0.000    0.000    0.000    0.000    0.000 
#
# Total GULP energy -917157.591163 kJ/mol
# GULP energy per Si atom -12394.021502 kJ/mol
# Density = 1.925601 g / cm^3
# Si number density = 19.299936 Si / 1000 Ang^3
#
#
#
# Elastic Constant Matrix: (Units=GPa)
#
#
# Indices 1 2 3 4 5 6 
#
# 1 126.0440 53.1349 55.3219 0.0000 0.0000 0.0000
# 2 53.1349 126.0440 55.3219 0.0000 0.0000 0.0000
# 3 55.3219 55.3219 96.5297 0.0000 0.0000 0.0000
# 4 0.0000 0.0000 0.0000 32.3108 0.0000 0.0000
# 5 0.0000 0.0000 0.0000 0.0000 32.3108 0.0000
# 6 0.0000 0.0000 0.0000 0.0000 0.0000 27.7606
#
#
#
# Elastic Compliance Matrix: (Units=1/GPa)
#
#
# Indices 1 2 3 4 5 6 
#
# 1 0.011177 -0.002539 -0.004950 0.000000 0.000000 0.000000
# 2 -0.002539 0.011177 -0.004950 0.000000 0.000000 0.000000
# 3 -0.004950 -0.004950 0.016034 0.000000 0.000000 0.000000
# 4 0.000000 0.000000 0.000000 0.030949 0.000000 0.000000
# 5 0.000000 0.000000 0.000000 0.000000 0.030949 0.000000
# 6 0.000000 0.000000 0.000000 0.000000 0.000000 0.036022
#
#
# Mechanical properties :
#
#
# Convention : Reuss Voigt Hill
#
# Bulk Modulus (GPa) = 74.03122 75.13059 74.58090
# Shear Modulus (GPa) = 30.17666 30.79902 30.48784
#
# Velocity S-wave (km/s) = 3.95848 3.99909 3.97884
# Velocity P-wave (km/s) = 7.70288 7.76763 7.73532
#
# Compressibility (1/GPa) = 0.01350781
#
# Stress axis : x y z
#
# Youngs Moduli (GPa) = 89.47070 89.47070 62.36812
#
# Poissons Ratio (x) = 0.22716 0.30875
# Poissons Ratio (y) = 0.22716 0.30875
# Poissons Ratio (z) = 0.44292 0.44292
#
# Static dielectric constant tensor:
#      x y z
#    x 3.461670 0.000000 0.000000 
#    y 0.000000 3.461670 0.000000 
#    z 0.000000 0.000000 3.548170 
# 
# 
# High freq. dielectric constant tensor:
#      x y z
#    x 1.751130 0.000000 0.000000 
#    y 0.000000 1.751130 0.000000 
#    z 0.000000 0.000000 1.754750 
# 
# From -- ./inp_files/3255.got.cif
#   From: 2010.03.12/outbox.cif.g09.slc.cpg/sg141_2_cif.got.tgz:3255.got - 2010.04.03 13:18:35.
