data_PCOD8320722
_publ_section_title
;
Structure prediction by ZEFSAII (Michael W. Deem and Ramdas Pophale) SiO2 
 PCOD8320722
Probable space group: I 41/A M D
;
_chemical_formula_sum "Si O2"
_cell_formula_units_Z 176
_cell_length_a 18.579319
_cell_length_b 18.579319
_cell_length_c 26.792703
_cell_angle_alpha 90.000000
_cell_angle_beta 90.000000
_cell_angle_gamma 90.000000
_cell_volume 9248.602473
_symmetry_space_group_name_H-M "I 41/A M D"
_symmetry_group_IT_number 141
_space_group.IT_coordinate_system_code '2'
_symmetry_cell_setting 'tetragonal'
loop_
_space_group_symop_operation_xyz
x,y,z
1/4-y,3/4+x,1/4+z
-x,1/2-y,z
1/4+y,1/4-x,3/4+z
x,-y,-z
-x,1/2+y,-z
1/4+y,3/4+x,1/4-z
1/4-y,1/4-x,3/4-z
-x,-y,-z
3/4+y,1/4-x,3/4-z
x,1/2+y,-z
3/4-y,3/4+x,1/4-z
-x,y,z
x,1/2-y,z
3/4-y,1/4-x,3/4+z
3/4+y,3/4+x,1/4+z
1/2+x,1/2+y,1/2+z
3/4-y,1/4+x,3/4+z
1/2-x,-y,1/2+z
3/4+y,3/4-x,1/4+z
1/2+x,1/2-y,1/2-z
1/2-x,y,1/2-z
3/4+y,1/4+x,3/4-z
3/4-y,3/4-x,1/4-z
1/2-x,1/2-y,1/2-z
1/4+y,3/4-x,1/4-z
1/2+x,y,1/2-z
1/4-y,1/4+x,3/4-z
1/2-x,1/2+y,1/2+z
1/2+x,-y,1/2+z
1/4-y,3/4-x,1/4+z
1/4+y,1/4+x,3/4+z
loop_
_atom_site_type_symbol
_atom_site_label
_atom_site_fract_x
_atom_site_fract_y
_atom_site_fract_z
Si Si1 0.415952 0.434765 0.898699
Si Si2 0.170028 0.938979 0.760546
Si Si3 0.328805 0.834347 0.910521
Si Si4 0.672683 0.834923 0.470289
Si Si5 0.417751 0.832250 0.375000
Si Si6 0.580127 0.165003 0.437312
O O1 0.500000 0.437646 0.910764
O O2 0.376964 0.427329 0.951325
O O3 0.393102 0.505548 0.867747
O O4 0.395131 0.365591 0.865480
O O5 0.250000 0.968169 0.750000
O O6 0.129988 0.912346 0.710860
O O7 0.124043 0.001722 0.785512
O O8 0.395972 0.854029 0.875000
O O9 0.329704 0.750000 0.923696
O O10 0.686116 0.750000 0.475252
O O11 0.628238 0.856354 0.421897
O O12 0.629687 0.865390 0.518155
O O13 0.500000 0.845784 0.389712
O O14 0.500000 0.130999 0.439518
O O15 0.574876 0.250000 0.444254
#
# Coordination Sequence:
#
# PCOD8320722 Si02
#       6
#    32  32  32  32  16  32
#     4  10  22  40  62  88 122 159 204 255 308 365
#     4  12  24  38  64  91 118 161 206 246 302 366
#     4  11  23  43  66  92 124 162 205 254 314 372
#     4  10  20  36  58  86 120 157 198 251 302 357
#     4   9  18  34  58  86 116 154 200 246 295 354
#     4   9  17  33  59  86 114 154 199 242 298 366
#
# _framework density 19.029902
#
# number of rings (size 3 to 8) (size 9 to 14) (size 15 to 20)
#    0.000    1.727    3.636    1.091    0.000    6.364 
#    0.000    0.000    0.000    1.091    0.000    0.000 
#    0.000    0.000    0.000    0.000    0.000    0.000 
#
# Total GULP energy -1091345.676187 kJ/mol
# GULP energy per Si atom -12401.655411 kJ/mol
# Density = 1.898659 g / cm^3
# Si number density = 19.029902 Si / 1000 Ang^3
#
#
#
# Elastic Constant Matrix: (Units=GPa)
#
#
# Indices 1 2 3 4 5 6 
#
# 1 74.8085 31.0019 53.9471 0.0000 0.0000 0.0000
# 2 31.0019 74.8128 53.9475 0.0000 0.0000 0.0000
# 3 53.9471 53.9475 140.2507 0.0000 0.0000 0.0000
# 4 0.0000 0.0000 0.0000 31.8999 0.0000 0.0000
# 5 0.0000 0.0000 0.0000 0.0000 31.9002 0.0000
# 6 0.0000 0.0000 0.0000 0.0000 0.0000 29.1251
#
#
#
# Elastic Compliance Matrix: (Units=1/GPa)
#
#
# Indices 1 2 3 4 5 6 
#
# 1 0.019189 -0.003639 -0.005981 0.000000 0.000000 0.000000
# 2 -0.003639 0.019187 -0.005981 0.000000 0.000000 0.000000
# 3 -0.005981 -0.005981 0.011731 0.000000 0.000000 0.000000
# 4 0.000000 0.000000 0.000000 0.031348 0.000000 0.000000
# 5 0.000000 0.000000 0.000000 0.000000 0.031348 0.000000
# 6 0.000000 0.000000 0.000000 0.000000 0.000000 0.034335
#
#
# Mechanical properties :
#
#
# Convention : Reuss Voigt Hill
#
# Bulk Modulus (GPa) = 52.89356 63.07390 57.98373
# Shear Modulus (GPa) = 27.07957 28.65008 27.86482
#
# Velocity S-wave (km/s) = 3.77636 3.88432 3.83072
# Velocity P-wave (km/s) = 6.84616 7.30301 7.07827
#
# Compressibility (1/GPa) = 0.01890589
#
# Stress axis : x y z
#
# Youngs Moduli (GPa) = 52.11411 52.11790 85.24191
#
# Poissons Ratio (x) = 0.18963 0.50986
# Poissons Ratio (y) = 0.18962 0.50982
# Poissons Ratio (z) = 0.31171 0.31171
#
# Static dielectric constant tensor:
#      x y z
#    x 3.460180 0.000000 0.000000 
#    y 0.000000 3.460200 0.000000 
#    z 0.000000 0.000000 3.568910 
# 
# 
# High freq. dielectric constant tensor:
#      x y z
#    x 1.731630 0.000000 0.000000 
#    y 0.000000 1.731630 0.000000 
#    z 0.000000 0.000000 1.751590 
# 
# From -- ./inp_files/12892.got.cif
#   From: 2010.03.12/outbox.cif.g09.slc.cpg/sg141_7_cif.got.tgz:12892.got - 2010.04.03 13:18:35.
