data_PCOD8320126
_publ_section_title
;
Structure prediction by ZEFSAII (Michael W. Deem and Ramdas Pophale) SiO2 
 PCOD8320126
Probable space group: I 4/M C M
;
_chemical_formula_sum "Si O2"
_cell_formula_units_Z 112
_cell_length_a 17.845363
_cell_length_b 17.845363
_cell_length_c 15.830377
_cell_angle_alpha 90.000000
_cell_angle_beta 90.000000
_cell_angle_gamma 90.000000
_cell_volume 5041.294061
_symmetry_space_group_name_H-M "I 4/M C M"
_symmetry_group_IT_number 140
_symmetry_cell_setting 'tetragonal'
loop_
_space_group_symop_operation_xyz
x,y,z
-y,x,z
-x,-y,z
y,-x,z
x,-y,1/2-z
-x,y,1/2-z
y,x,1/2-z
-y,-x,1/2-z
-x,-y,-z
y,-x,-z
x,y,-z
-y,x,-z
-x,y,1/2+z
x,-y,1/2+z
-y,-x,1/2+z
y,x,1/2+z
1/2+x,1/2+y,1/2+z
1/2-y,1/2+x,1/2+z
1/2-x,1/2-y,1/2+z
1/2+y,1/2-x,1/2+z
1/2+x,1/2-y,-z
1/2-x,1/2+y,-z
1/2+y,1/2+x,-z
1/2-y,1/2-x,-z
1/2-x,1/2-y,1/2-z
1/2+y,1/2-x,1/2-z
1/2+x,1/2+y,1/2-z
1/2-y,1/2+x,1/2-z
1/2-x,1/2+y,z
1/2+x,1/2-y,z
1/2-y,1/2-x,z
1/2+y,1/2+x,z
loop_
_atom_site_type_symbol
_atom_site_label
_atom_site_fract_x
_atom_site_fract_y
_atom_site_fract_z
Si Si1 0.672201 0.051151 0.170371
Si Si2 0.165006 0.780845 0.595727
Si Si3 0.088947 0.078957 0.849581
Si Si4 0.122878 0.502686 0.000000
O O1 0.592530 0.092530 0.185002
O O2 0.738278 0.111298 0.161205
O O3 0.691640 0.000000 0.250000
O O4 0.671425 0.000842 0.085582
O O5 0.141147 0.760900 0.500000
O O6 0.250633 0.750633 0.610715
O O7 0.155008 0.869487 0.611400
O O8 0.087635 0.087635 0.750000
O O9 0.005877 0.104580 0.880511
O O10 0.067342 0.432659 0.000000
O O11 0.081584 0.581584 0.000000
#
# Coordination Sequence:
#
# PCOD8320126 Si02
#       4
#    32  32  32  16
#     4  10  19  31  50  79 113 158 214 265 317 378
#     4  10  21  38  60  89 127 167 204 250 317 392
#     4   9  20  39  65  97 125 155 205 265 315 366
#     4   9  16  28  46  70 106 151 206 270 319 364
#
# _framework density 22.216518000000001
#
# number of rings (size 3 to 8) (size 9 to 14) (size 15 to 20)
#    0.000    2.429    1.429    1.714    4.000    3.143 
#    0.000    1.429    0.000    0.000    0.000    0.000 
#    0.000    0.000    0.000    0.000    0.000    0.000 
#
# Total GULP energy -694138.941138 kJ/mol
# GULP energy per Si atom -12395.338235 kJ/mol
# Density = 2.216595 g / cm^3
# Si number density = 22.216518 Si / 1000 Ang^3
#
#
#
# Elastic Constant Matrix: (Units=GPa)
#
#
# Indices 1 2 3 4 5 6 
#
# 1 95.1176 50.7576 23.0617 0.0000 0.0000 0.0000
# 2 50.7576 95.1178 23.0615 0.0000 0.0000 0.0000
# 3 23.0617 23.0615 95.4250 0.0000 0.0000 0.0000
# 4 0.0000 0.0000 0.0000 21.3040 0.0000 0.0000
# 5 0.0000 0.0000 0.0000 0.0000 21.3039 0.0000
# 6 0.0000 0.0000 0.0000 0.0000 0.0000 30.7429
#
#
#
# Elastic Compliance Matrix: (Units=1/GPa)
#
#
# Indices 1 2 3 4 5 6 
#
# 1 0.014983 -0.007560 -0.001794 0.000000 0.000000 0.000000
# 2 -0.007560 0.014983 -0.001794 0.000000 0.000000 0.000000
# 3 -0.001794 -0.001794 0.011346 0.000000 0.000000 0.000000
# 4 0.000000 0.000000 0.000000 0.046940 0.000000 0.000000
# 5 0.000000 0.000000 0.000000 0.000000 0.046940 0.000000
# 6 0.000000 0.000000 0.000000 0.000000 0.000000 0.032528
#
#
# Mechanical properties :
#
#
# Convention : Reuss Voigt Hill
#
# Bulk Modulus (GPa) = 52.58727 53.26911 52.92819
# Shear Modulus (GPa) = 25.46435 27.25546 26.35990
#
# Velocity S-wave (km/s) = 3.38922 3.50639 3.44830
# Velocity P-wave (km/s) = 6.24799 6.35785 6.30316
#
# Compressibility (1/GPa) = 0.01901601
#
# Stress axis : x y z
#
# Youngs Moduli (GPa) = 66.74417 66.74440 88.13337
#
# Poissons Ratio (x) = 0.50460 0.15809
# Poissons Ratio (y) = 0.50460 0.15809
# Poissons Ratio (z) = 0.11973 0.11972
#
# Static dielectric constant tensor:
#      x y z
#    x 3.924660 0.000000 0.000000 
#    y 0.000000 3.924650 0.000000 
#    z 0.000000 0.000000 3.885790 
# 
# 
# High freq. dielectric constant tensor:
#      x y z
#    x 1.855120 0.000000 0.000000 
#    y 0.000000 1.855120 0.000000 
#    z 0.000000 0.000000 1.872800 
# 
# From -- ./inp_files/6090.got.cif
#   From: 2010.06.25/outbox.cif.g09.slc.cpg/sg140_4_cif.got.tgz:6090.got - 2010.06.28 10:53:23.
