data_PCOD8320015
_publ_section_title
;
Structure prediction by ZEFSAII (Michael W. Deem and Ramdas Pophale) SiO2 
 PCOD8320015
Probable space group: I 4/M M M
;
_chemical_formula_sum "Si O2"
_cell_formula_units_Z 128
_cell_length_a 34.045596
_cell_length_b 34.045596
_cell_length_c 7.723443
_cell_angle_alpha 90.000000
_cell_angle_beta 90.000000
_cell_angle_gamma 90.000000
_cell_volume 8952.262916
_symmetry_space_group_name_H-M "I 4/M M M"
_symmetry_group_IT_number 139
_symmetry_cell_setting 'tetragonal'
loop_
_space_group_symop_operation_xyz
x,y,z
-y,x,z
-x,-y,z
y,-x,z
x,-y,-z
-x,y,-z
y,x,-z
-y,-x,-z
-x,-y,-z
y,-x,-z
x,y,-z
-y,x,-z
-x,y,z
x,-y,z
-y,-x,z
y,x,z
1/2+x,1/2+y,1/2+z
1/2-y,1/2+x,1/2+z
1/2-x,1/2-y,1/2+z
1/2+y,1/2-x,1/2+z
1/2+x,1/2-y,1/2-z
1/2-x,1/2+y,1/2-z
1/2+y,1/2+x,1/2-z
1/2-y,1/2-x,1/2-z
1/2-x,1/2-y,1/2-z
1/2+y,1/2-x,1/2-z
1/2+x,1/2+y,1/2-z
1/2-y,1/2+x,1/2-z
1/2-x,1/2+y,1/2+z
1/2+x,1/2-y,1/2+z
1/2-y,1/2-x,1/2+z
1/2+y,1/2+x,1/2+z
loop_
_atom_site_type_symbol
_atom_site_label
_atom_site_fract_x
_atom_site_fract_y
_atom_site_fract_z
Si Si1 0.543081 0.106822 0.702739
Si Si2 0.545254 0.390911 0.303815
Si Si3 0.453009 0.752984 0.000000
Si Si4 0.546456 0.334894 0.000000
Si Si5 0.693130 0.046699 0.193016
O O1 0.537928 0.109204 0.500000
O O2 0.500000 0.097571 0.785295
O O3 0.573134 0.073134 0.750000
O O4 0.558689 0.149664 0.763131
O O5 0.550880 0.375223 0.500000
O O6 0.500000 0.401428 0.266141
O O7 0.569384 0.430617 0.271996
O O8 0.560635 0.357451 0.172834
O O9 0.436865 0.774811 0.171875
O O10 0.500000 0.753200 0.000000
O O11 0.435626 0.708890 0.000000
O O12 0.500000 0.331458 0.000000
O O13 0.695067 0.000000 0.184251
O O14 0.701633 0.063901 0.000000
#
# Coordination Sequence:
#
# PCOD8320015 Si02
#       5
#    32  32  16  16  32
#     4   9  18  29  39  53  72  96 127 164 202 236
#     4   9  17  28  41  57  80 111 144 176 205 229
#     4   9  16  25  41  58  70  95 125 156 205 246
#     4   9  17  27  38  57  79  97 130 173 209 244
#     4   8  15  27  39  53  72  91 119 158 194 234
#
# _framework density 14.29806
#
# number of rings (size 3 to 8) (size 9 to 14) (size 15 to 20)
#    0.000    3.250    0.000    1.875    1.750    2.000 
#    0.000    7.500    0.000    2.250    0.000    0.000 
#    0.000    0.000    0.000    0.000    0.000    5.000 
#
# Total GULP energy -793075.595465 kJ/mol
# GULP energy per Si atom -12391.806179 kJ/mol
# Density = 1.426552 g / cm^3
# Si number density = 14.298060 Si / 1000 Ang^3
#
#
#
# Elastic Constant Matrix: (Units=GPa)
#
#
# Indices 1 2 3 4 5 6 
#
# 1 75.4701 38.7151 44.2298 0.0000 0.0000 0.0000
# 2 38.7151 75.4701 44.2298 0.0000 0.0000 0.0000
# 3 44.2298 44.2298 90.5709 0.0000 0.0000 0.0000
# 4 0.0000 0.0000 0.0000 18.6380 0.0000 0.0000
# 5 0.0000 0.0000 0.0000 0.0000 18.6380 0.0000
# 6 0.0000 0.0000 0.0000 0.0000 0.0000 0.2728
#
#
#
# Elastic Compliance Matrix: (Units=1/GPa)
#
#
# Indices 1 2 3 4 5 6 
#
# 1 0.020647 -0.006560 -0.006879 0.000000 0.000000 0.000000
# 2 -0.006560 0.020647 -0.006879 0.000000 0.000000 0.000000
# 3 -0.006879 -0.006879 0.017760 0.000000 0.000000 0.000000
# 4 0.000000 0.000000 0.000000 0.053654 0.000000 0.000000
# 5 0.000000 0.000000 0.000000 0.000000 0.053654 0.000000
# 6 0.000000 0.000000 0.000000 0.000000 0.000000 3.666217
#
#
# Mechanical properties :
#
#
# Convention : Reuss Voigt Hill
#
# Bulk Modulus (GPa) = 54.29799 55.09562 54.69681
# Shear Modulus (GPa) = 1.28887 15.13216 8.21052
#
# Velocity S-wave (km/s) = 0.95047 3.25674 2.39893
# Velocity P-wave (km/s) = 6.26600 7.26354 6.78313
#
# Compressibility (1/GPa) = 0.01841689
#
# Stress axis : x y z
#
# Youngs Moduli (GPa) = 48.43267 48.43267 56.30587
#
# Poissons Ratio (x) = 0.31772 0.38735
# Poissons Ratio (y) = 0.31772 0.38735
# Poissons Ratio (z) = 0.33319 0.33319
#
# Static dielectric constant tensor:
#      x y z
#    x 2.514530 0.000000 0.000000 
#    y 0.000000 2.514530 0.000000 
#    z 0.000000 0.000000 3.073520 
# 
# 
# High freq. dielectric constant tensor:
#      x y z
#    x 1.507960 0.000000 0.000000 
#    y 0.000000 1.507960 0.000000 
#    z 0.000000 0.000000 1.563120 
# 
# From -- ./inp_files/1794.got.cif
#   From: 2010.03.12/outbox.cif.g09.slc.cpg/sg139_1_cif.got.tgz:1794.got - 2010.04.08 09:46:31.
