data_PCOD8320105
_publ_section_title
;
Structure prediction by ZEFSAII (Michael W. Deem and Ramdas Pophale) SiO2 
 PCOD8320105
Probable space group: I 4/M C M
;
_chemical_formula_sum "Si O2"
_cell_formula_units_Z 144
_cell_length_a 20.029013
_cell_length_b 20.029013
_cell_length_c 20.923006
_cell_angle_alpha 90.000000
_cell_angle_beta 90.000000
_cell_angle_gamma 90.000000
_cell_volume 8393.501579
_symmetry_space_group_name_H-M "I 4/M C M"
_symmetry_group_IT_number 140
_symmetry_cell_setting 'tetragonal'
loop_
_space_group_symop_operation_xyz
x,y,z
-y,x,z
-x,-y,z
y,-x,z
x,-y,1/2-z
-x,y,1/2-z
y,x,1/2-z
-y,-x,1/2-z
-x,-y,-z
y,-x,-z
x,y,-z
-y,x,-z
-x,y,1/2+z
x,-y,1/2+z
-y,-x,1/2+z
y,x,1/2+z
1/2+x,1/2+y,1/2+z
1/2-y,1/2+x,1/2+z
1/2-x,1/2-y,1/2+z
1/2+y,1/2-x,1/2+z
1/2+x,1/2-y,-z
1/2-x,1/2+y,-z
1/2+y,1/2+x,-z
1/2-y,1/2-x,-z
1/2-x,1/2-y,1/2-z
1/2+y,1/2-x,1/2-z
1/2+x,1/2+y,1/2-z
1/2-y,1/2+x,1/2-z
1/2-x,1/2+y,z
1/2+x,1/2-y,z
1/2-y,1/2-x,z
1/2+y,1/2+x,z
loop_
_atom_site_type_symbol
_atom_site_label
_atom_site_fract_x
_atom_site_fract_y
_atom_site_fract_z
Si Si1 0.572112 0.686021 0.575799
Si Si2 0.329728 0.060686 0.626782
Si Si3 0.922604 0.824851 0.574946
Si Si4 0.576590 0.821447 0.926436
Si Si5 0.107145 0.500000 0.250000
O O1 0.580762 0.701624 0.500000
O O2 0.584461 0.753339 0.616791
O O3 0.499024 0.654680 0.589073
O O4 0.623221 0.630755 0.603407
O O5 0.377861 0.122140 0.610226
O O6 0.343852 0.031062 0.697028
O O7 0.344525 0.000071 0.578494
O O8 0.910231 0.822392 0.500000
O O9 0.911307 0.751243 0.605336
O O10 0.625412 0.874589 0.892108
O O11 0.594852 0.816722 0.000000
O O12 0.059189 0.559189 0.222751
#
# Coordination Sequence:
#
# PCOD8320105 Si02
#       5
#    32  32  32  32  16
#     4   9  17  29  46  68  93 119 147 182 222 263
#     4  10  19  30  45  65  88 114 148 187 221 257
#     4   8  15  27  42  64  92 119 147 177 215 263
#     4   9  17  28  42  62  90 121 147 175 218 268
#     4   9  18  32  48  64  84 115 152 186 224 267
#
# _framework density 17.156129
#
# number of rings (size 3 to 8) (size 9 to 14) (size 15 to 20)
#    0.000    3.000    0.000    2.667    0.000    4.444 
#    0.000    5.556    0.000    5.333    0.000   14.000 
#    0.000    7.111    0.000    0.000    0.000    0.000 
#
# Total GULP energy -891991.112604 kJ/mol
# GULP energy per Si atom -12388.765453 kJ/mol
# Density = 1.711708 g / cm^3
# Si number density = 17.156129 Si / 1000 Ang^3
#
#
#
# Elastic Constant Matrix: (Units=GPa)
#
#
# Indices 1 2 3 4 5 6 
#
# 1 132.3481 101.8045 26.1599 0.0000 0.0000 0.0000
# 2 101.8045 132.3481 26.1599 0.0000 0.0000 0.0000
# 3 26.1599 26.1599 30.5175 0.0000 0.0000 0.0000
# 4 0.0000 0.0000 0.0000 16.4855 0.0000 0.0000
# 5 0.0000 0.0000 0.0000 0.0000 16.4856 0.0000
# 6 0.0000 0.0000 0.0000 0.0000 0.0000 41.3090
#
#
#
# Elastic Compliance Matrix: (Units=1/GPa)
#
#
# Indices 1 2 3 4 5 6 
#
# 1 0.019011 -0.013729 -0.004528 0.000000 0.000000 0.000000
# 2 -0.013729 0.019011 -0.004528 0.000000 0.000000 0.000000
# 3 -0.004528 -0.004528 0.040531 0.000000 0.000000 0.000000
# 4 0.000000 0.000000 0.000000 0.060659 0.000000 0.000000
# 5 0.000000 0.000000 0.000000 0.000000 0.060659 0.000000
# 6 0.000000 0.000000 0.000000 0.000000 0.000000 0.024208
#
#
# Mechanical properties :
#
#
# Convention : Reuss Voigt Hill
#
# Bulk Modulus (GPa) = 30.31817 67.05137 48.68477
# Shear Modulus (GPa) = 17.81609 24.26197 21.03903
#
# Velocity S-wave (km/s) = 3.22602 3.76465 3.50569
# Velocity P-wave (km/s) = 5.62019 7.62002 6.69519
#
# Compressibility (1/GPa) = 0.03298353
#
# Stress axis : x y z
#
# Youngs Moduli (GPa) = 52.60032 52.60032 24.67222
#
# Poissons Ratio (x) = 0.72214 0.11172
# Poissons Ratio (y) = 0.72214 0.11172
# Poissons Ratio (z) = 0.23819 0.23819
#
# Static dielectric constant tensor:
#      x y z
#    x 3.476470 0.000000 0.000000 
#    y 0.000000 3.476470 0.000000 
#    z 0.000000 0.000000 2.744250 
# 
# 
# High freq. dielectric constant tensor:
#      x y z
#    x 1.667510 0.000000 0.000000 
#    y 0.000000 1.667510 0.000000 
#    z 0.000000 0.000000 1.606350 
# 
# From -- ./inp_files/10393.got.cif
#   From: 2010.06.25/outbox.cif.g09.slc.cpg/sg140_6_cif.got.tgz:10393.got - 2010.06.28 10:53:23.
