data_PCOD8320384
_publ_section_title
;
Structure prediction by ZEFSAII (Michael W. Deem and Ramdas Pophale) SiO2 
 PCOD8320384
Probable space group: I 4/M C M
;
_chemical_formula_sum "Si O2"
_cell_formula_units_Z 160
_cell_length_a 20.633270
_cell_length_b 20.633270
_cell_length_c 17.277473
_cell_angle_alpha 90.000000
_cell_angle_beta 90.000000
_cell_angle_gamma 90.000000
_cell_volume 7355.570213
_symmetry_space_group_name_H-M "I 4/M C M"
_symmetry_group_IT_number 140
_symmetry_cell_setting 'tetragonal'
loop_
_space_group_symop_operation_xyz
x,y,z
-y,x,z
-x,-y,z
y,-x,z
x,-y,1/2-z
-x,y,1/2-z
y,x,1/2-z
-y,-x,1/2-z
-x,-y,-z
y,-x,-z
x,y,-z
-y,x,-z
-x,y,1/2+z
x,-y,1/2+z
-y,-x,1/2+z
y,x,1/2+z
1/2+x,1/2+y,1/2+z
1/2-y,1/2+x,1/2+z
1/2-x,1/2-y,1/2+z
1/2+y,1/2-x,1/2+z
1/2+x,1/2-y,-z
1/2-x,1/2+y,-z
1/2+y,1/2+x,-z
1/2-y,1/2-x,-z
1/2-x,1/2-y,1/2-z
1/2+y,1/2-x,1/2-z
1/2+x,1/2+y,1/2-z
1/2-y,1/2+x,1/2-z
1/2-x,1/2+y,z
1/2+x,1/2-y,z
1/2-y,1/2-x,z
1/2+y,1/2+x,z
loop_
_atom_site_type_symbol
_atom_site_label
_atom_site_fract_x
_atom_site_fract_y
_atom_site_fract_z
Si Si1 0.089630 0.133811 0.169833
Si Si2 0.691873 0.910651 0.148689
Si Si3 0.139904 0.463447 0.909346
Si Si4 0.674101 0.538766 0.412094
Si Si5 0.272741 0.875197 0.182319
O O1 0.092538 0.092538 0.250000
O O2 0.116535 0.090389 0.100033
O O3 0.136008 0.196124 0.178896
O O4 0.018439 0.160561 0.149364
O O5 0.657378 0.842623 0.123616
O O6 0.757578 0.925220 0.101735
O O7 0.707328 0.910913 0.239020
O O8 0.640289 0.967822 0.133459
O O9 0.075316 0.424685 0.884094
O O10 0.203493 0.421628 0.887169
O O11 0.142114 0.475708 0.000000
O O12 0.671620 0.513170 0.500000
O O13 0.304373 0.804373 0.175346
#
# Coordination Sequence:
#
# PCOD8320384 Si02
#       5
#    32  32  32  32  32
#     4  12  25  45  74 100 134 179 232 279 345 411
#     4  11  23  41  68 100 139 182 227 281 337 408
#     4  10  21  37  62  97 137 182 228 276 336 404
#     4  12  27  46  70 102 139 176 224 286 350 410
#     4  10  22  41  68  99 135 177 228 281 336 404
#
# _framework density 21.752222
#
# number of rings (size 3 to 8) (size 9 to 14) (size 15 to 20)
#    0.000    1.000    4.000    2.400    0.000    4.400 
#    0.000    3.000    0.000    3.600    0.000    0.000 
#    0.000    0.000    0.000    0.000    0.000    0.000 
#
# Total GULP energy -992036.934331 kJ/mol
# GULP energy per Si atom -12400.461679 kJ/mol
# Density = 2.170271 g / cm^3
# Si number density = 21.752222 Si / 1000 Ang^3
#
#
#
# Elastic Constant Matrix: (Units=GPa)
#
#
# Indices 1 2 3 4 5 6 
#
# 1 104.6019 52.7048 35.1522 0.0000 0.0000 0.0000
# 2 52.7048 104.6019 35.1522 0.0000 0.0000 0.0000
# 3 35.1522 35.1522 80.3701 0.0000 0.0000 0.0000
# 4 0.0000 0.0000 0.0000 31.2050 0.0000 0.0000
# 5 0.0000 0.0000 0.0000 0.0000 31.2050 0.0000
# 6 0.0000 0.0000 0.0000 0.0000 0.0000 30.3136
#
#
#
# Elastic Compliance Matrix: (Units=1/GPa)
#
#
# Indices 1 2 3 4 5 6 
#
# 1 0.013585 -0.005684 -0.003456 0.000000 0.000000 0.000000
# 2 -0.005684 0.013585 -0.003456 0.000000 0.000000 0.000000
# 3 -0.003456 -0.003456 0.015466 0.000000 0.000000 0.000000
# 4 0.000000 0.000000 0.000000 0.032046 0.000000 0.000000
# 5 0.000000 0.000000 0.000000 0.000000 0.032046 0.000000
# 6 0.000000 0.000000 0.000000 0.000000 0.000000 0.032988
#
#
# Mechanical properties :
#
#
# Convention : Reuss Voigt Hill
#
# Bulk Modulus (GPa) = 57.32364 59.51025 58.41695
# Shear Modulus (GPa) = 29.28720 29.64904 29.46812
#
# Velocity S-wave (km/s) = 3.67331 3.69594 3.68464
# Velocity P-wave (km/s) = 6.66342 6.75506 6.70940
#
# Compressibility (1/GPa) = 0.01744481
#
# Stress axis : x y z
#
# Youngs Moduli (GPa) = 73.60931 73.60931 64.65974
#
# Poissons Ratio (x) = 0.41837 0.22346
# Poissons Ratio (y) = 0.41837 0.22346
# Poissons Ratio (z) = 0.25439 0.25439
#
# Static dielectric constant tensor:
#      x y z
#    x 3.974150 0.000000 0.000000 
#    y 0.000000 3.974150 0.000000 
#    z 0.000000 0.000000 3.845410 
# 
# 
# High freq. dielectric constant tensor:
#      x y z
#    x 1.854480 0.000000 0.000000 
#    y 0.000000 1.854480 0.000000 
#    z 0.000000 0.000000 1.853160 
# 
# From -- ./inp_files/6789.got.cif
#   From: 2010.06.25/outbox.cif.g09.slc.cpg/sg140_4_cif.got.tgz:6789.got - 2010.06.28 10:53:23.
