data_PCOD8320683
_publ_section_title
;
Structure prediction by ZEFSAII (Michael W. Deem and Ramdas Pophale) SiO2 
 PCOD8320683
Probable space group: I 41/A M D
;
_chemical_formula_sum "Si O2"
_cell_formula_units_Z 112
_cell_length_a 33.626065
_cell_length_b 33.626065
_cell_length_c 5.122563
_cell_angle_alpha 90.000000
_cell_angle_beta 90.000000
_cell_angle_gamma 90.000000
_cell_volume 5792.144722
_symmetry_space_group_name_H-M "I 41/A M D"
_symmetry_group_IT_number 141
_space_group.IT_coordinate_system_code '2'
_symmetry_cell_setting 'tetragonal'
loop_
_space_group_symop_operation_xyz
x,y,z
1/4-y,3/4+x,1/4+z
-x,1/2-y,z
1/4+y,1/4-x,3/4+z
x,-y,-z
-x,1/2+y,-z
1/4+y,3/4+x,1/4-z
1/4-y,1/4-x,3/4-z
-x,-y,-z
3/4+y,1/4-x,3/4-z
x,1/2+y,-z
3/4-y,3/4+x,1/4-z
-x,y,z
x,1/2-y,z
3/4-y,1/4-x,3/4+z
3/4+y,3/4+x,1/4+z
1/2+x,1/2+y,1/2+z
3/4-y,1/4+x,3/4+z
1/2-x,-y,1/2+z
3/4+y,3/4-x,1/4+z
1/2+x,1/2-y,1/2-z
1/2-x,y,1/2-z
3/4+y,1/4+x,3/4-z
3/4-y,3/4-x,1/4-z
1/2-x,1/2-y,1/2-z
1/4+y,3/4-x,1/4-z
1/2+x,y,1/2-z
1/4-y,1/4+x,3/4-z
1/2-x,1/2+y,1/2+z
1/2+x,-y,1/2+z
1/4-y,3/4-x,1/4+z
1/4+y,1/4+x,3/4+z
loop_
_atom_site_type_symbol
_atom_site_label
_atom_site_fract_x
_atom_site_fract_y
_atom_site_fract_z
Si Si1 0.707229 0.957229 0.875000
Si Si2 0.954485 0.139081 0.878262
Si Si3 0.354021 0.169322 0.125762
Si Si4 0.375583 0.973818 0.744233
O O1 0.750000 0.954659 0.750000
O O2 0.704805 0.918422 0.065997
O O3 0.929970 0.179970 0.875000
O O4 0.939247 0.107862 0.660234
O O5 0.000000 0.150163 0.825378
O O6 0.950395 0.119267 0.160997
O O7 0.378858 0.128858 0.125000
O O8 0.308996 0.158789 0.053710
O O9 0.389860 0.000000 0.500000
O O10 0.371829 0.000000 0.000000
#
# Coordination Sequence:
#
# PCOD8320683 Si02
#       4
#    16  32  32  32
#     4  10  20  34  50  80 116 152 189 238 294 340
#     4  10  21  37  63  89 116 146 176 225 285 349
#     4  10  20  38  57  83 115 150 195 230 277 342
#     4  11  22  35  56  80 112 154 197 244 284 326
#
# _framework density 19.336531999999998
#
# number of rings (size 3 to 8) (size 9 to 14) (size 15 to 20)
#    0.000    1.714    1.429    3.429    0.000    3.714 
#    0.000    0.000    0.000   22.286    0.000    0.000 
#    0.000    0.000    0.000    0.000    0.000    0.000 
#
# Total GULP energy -694154.507968 kJ/mol
# GULP energy per Si atom -12395.616214 kJ/mol
# Density = 1.929252 g / cm^3
# Si number density = 19.336532 Si / 1000 Ang^3
#
#
#
# Elastic Constant Matrix: (Units=GPa)
#
#
# Indices 1 2 3 4 5 6 
#
# 1 99.1113 59.4841 29.1643 0.0000 0.0000 0.0000
# 2 59.4841 99.1113 29.1643 0.0000 0.0000 0.0000
# 3 29.1643 29.1643 108.8115 0.0000 0.0000 0.0000
# 4 0.0000 0.0000 0.0000 21.3461 0.0000 0.0000
# 5 0.0000 0.0000 0.0000 0.0000 21.3461 0.0000
# 6 0.0000 0.0000 0.0000 0.0000 0.0000 16.4128
#
#
#
# Elastic Compliance Matrix: (Units=1/GPa)
#
#
# Indices 1 2 3 4 5 6 
#
# 1 0.016115 -0.009120 -0.001875 0.000000 0.000000 0.000000
# 2 -0.009120 0.016115 -0.001875 0.000000 0.000000 0.000000
# 3 -0.001875 -0.001875 0.010195 0.000000 0.000000 0.000000
# 4 0.000000 0.000000 0.000000 0.046847 0.000000 0.000000
# 5 0.000000 0.000000 0.000000 0.000000 0.046847 0.000000
# 6 0.000000 0.000000 0.000000 0.000000 0.000000 0.060928
#
#
# Mechanical properties :
#
#
# Convention : Reuss Voigt Hill
#
# Bulk Modulus (GPa) = 59.93148 60.29548 60.11348
# Shear Modulus (GPa) = 21.89637 24.43579 23.16608
#
# Velocity S-wave (km/s) = 3.36874 3.55873 3.46504
# Velocity P-wave (km/s) = 6.79650 6.93800 6.86762
#
# Compressibility (1/GPa) = 0.01668572
#
# Stress axis : x y z
#
# Youngs Moduli (GPa) = 62.05385 62.05385 98.08539
#
# Poissons Ratio (x) = 0.56594 0.18389
# Poissons Ratio (y) = 0.56594 0.18389
# Poissons Ratio (z) = 0.11634 0.11634
#
# Static dielectric constant tensor:
#      x y z
#    x 3.602230 0.000000 0.000000 
#    y 0.000000 3.602230 0.000000 
#    z 0.000000 0.000000 3.720880 
# 
# 
# High freq. dielectric constant tensor:
#      x y z
#    x 1.743030 0.000000 0.000000 
#    y 0.000000 1.743030 0.000000 
#    z 0.000000 0.000000 1.756830 
# 
# From -- ./inp_files/1298.got.cif
#   From: 2010.03.12/outbox.cif.g09.slc.cpg/sg141_1_cif.got.tgz:1298.got - 2010.04.03 13:18:35.
