data_PCOD8320892
_publ_section_title
;
Structure prediction by ZEFSAII (Michael W. Deem and Ramdas Pophale) SiO2 
 PCOD8320892
Probable space group: I 41/A M D
;
_chemical_formula_sum "Si O2"
_cell_formula_units_Z 128
_cell_length_a 27.789241
_cell_length_b 27.789241
_cell_length_c 9.932273
_cell_angle_alpha 90.000000
_cell_angle_beta 90.000000
_cell_angle_gamma 90.000000
_cell_volume 7670.117525
_symmetry_space_group_name_H-M "I 41/A M D"
_symmetry_group_IT_number 141
_space_group.IT_coordinate_system_code '2'
_symmetry_cell_setting 'tetragonal'
loop_
_space_group_symop_operation_xyz
x,y,z
1/4-y,3/4+x,1/4+z
-x,1/2-y,z
1/4+y,1/4-x,3/4+z
x,-y,-z
-x,1/2+y,-z
1/4+y,3/4+x,1/4-z
1/4-y,1/4-x,3/4-z
-x,-y,-z
3/4+y,1/4-x,3/4-z
x,1/2+y,-z
3/4-y,3/4+x,1/4-z
-x,y,z
x,1/2-y,z
3/4-y,1/4-x,3/4+z
3/4+y,3/4+x,1/4+z
1/2+x,1/2+y,1/2+z
3/4-y,1/4+x,3/4+z
1/2-x,-y,1/2+z
3/4+y,3/4-x,1/4+z
1/2+x,1/2-y,1/2-z
1/2-x,y,1/2-z
3/4+y,1/4+x,3/4-z
3/4-y,3/4-x,1/4-z
1/2-x,1/2-y,1/2-z
1/4+y,3/4-x,1/4-z
1/2+x,y,1/2-z
1/4-y,1/4+x,3/4-z
1/2-x,1/2+y,1/2+z
1/2+x,-y,1/2+z
1/4-y,3/4-x,1/4+z
1/4+y,1/4+x,3/4+z
loop_
_atom_site_type_symbol
_atom_site_label
_atom_site_fract_x
_atom_site_fract_y
_atom_site_fract_z
Si Si1 0.289936 0.306148 0.848612
Si Si2 0.943335 0.646589 0.996880
Si Si3 0.792628 0.307479 0.347032
Si Si4 0.056029 0.145740 0.493841
O O1 0.279547 0.250000 0.863587
O O2 0.250000 0.329757 0.750000
O O3 0.340462 0.315599 0.776629
O O4 0.287045 0.328050 0.000182
O O5 0.919339 0.674294 0.876305
O O6 0.000000 0.658584 0.009093
O O7 0.914348 0.664348 0.125000
O O8 0.793289 0.250000 0.351413
O O9 0.750000 0.326365 0.250000
O O10 0.842751 0.327664 0.286765
O O11 0.067767 0.182234 0.375000
O O12 0.000000 0.140119 0.511031
#
# Coordination Sequence:
#
# PCOD8320892 Si02
#       4
#    32  32  32  32
#     4   9  18  33  51  70  95 128 168 217 266 302
#     4  11  23  36  49  72 106 143 181 213 247 301
#     4   9  18  32  51  73  94 124 169 218 267 306
#     4  11  21  34  51  72 103 140 177 214 249 297
#
# _framework density 16.688141000000002
#
# number of rings (size 3 to 8) (size 9 to 14) (size 15 to 20)
#    0.000    2.000    2.500    1.500    3.500    3.000 
#    0.000    0.000    0.000    0.000    0.000    0.000 
#    0.000    6.000    0.000    0.000    0.000    0.000 
#
# Total GULP energy -793316.792599 kJ/mol
# GULP energy per Si atom -12395.574884 kJ/mol
# Density = 1.665016 g / cm^3
# Si number density = 16.688141 Si / 1000 Ang^3
#
#
#
# Elastic Constant Matrix: (Units=GPa)
#
#
# Indices 1 2 3 4 5 6 
#
# 1 27.0405 73.1620 49.9741 0.0000 0.0000 0.0000
# 2 73.1620 27.0319 49.9721 0.0000 0.0000 0.0000
# 3 49.9741 49.9721 160.7801 0.0000 0.0000 0.0000
# 4 0.0000 0.0000 0.0000 141.0044 0.0000 0.0000
# 5 0.0000 0.0000 0.0000 0.0000 140.8126 0.0000
# 6 0.0000 0.0000 0.0000 0.0000 0.0000 0.0419
#
#
#
# Elastic Compliance Matrix: (Units=1/GPa)
#
#
# Indices 1 2 3 4 5 6 
#
# 1 -0.003606 0.018072 -0.004496 0.000000 0.000000 0.000000
# 2 0.018072 -0.003609 -0.004496 0.000000 0.000000 0.000000
# 3 -0.004496 -0.004496 0.009014 0.000000 0.000000 0.000000
# 4 0.000000 0.000000 0.000000 0.007092 0.000000 0.000000
# 5 0.000000 0.000000 0.000000 0.000000 0.007102 0.000000
# 6 0.000000 0.000000 0.000000 0.000000 0.000000 23.841957
#
#
# Mechanical properties :
#
#
# Convention : Reuss Voigt Hill
#
# Bulk Modulus (GPa) = 50.09895 62.34099 56.21997
# Shear Modulus (GPa) = 0.20967 59.15474 29.68221
#
# Velocity S-wave (km/s) = 0.35485 5.96021 4.22197
# Velocity P-wave (km/s) = 5.50034 9.20886 7.58475
#
# Compressibility (1/GPa) = 0.01996050
#
# Stress axis : x y z
#
# Youngs Moduli (GPa) = -277.28778 -277.10967 110.93259
#
# Poissons Ratio (x) = 5.00802 0.49877
# Poissons Ratio (y) = 5.01124 0.49872
# Poissons Ratio (z) = -1.24672 -1.24580
#
# Static dielectric constant tensor:
#      x y z
#    x 3.129550 0.000000 0.000000 
#    y 0.000000 3.129550 0.000000 
#    z 0.000000 0.000000 3.343350 
# 
# 
# High freq. dielectric constant tensor:
#      x y z
#    x 1.616840 0.000000 0.000000 
#    y 0.000000 1.616840 0.000000 
#    z 0.000000 0.000000 1.667090 
# 
# From -- ./inp_files/4580.got.cif
#   From: 2010.03.12/outbox.cif.g09.slc.cpg/sg141_3_cif.got.tgz:4580.got - 2010.04.03 13:18:35.
