data_PCOD8320861
_publ_section_title
;
Structure prediction by ZEFSAII (Michael W. Deem and Ramdas Pophale) SiO2 
 PCOD8320861
Probable space group: I 41/A M D
;
_chemical_formula_sum "Si O2"
_cell_formula_units_Z 176
_cell_length_a 17.437901
_cell_length_b 17.437901
_cell_length_c 26.075285
_cell_angle_alpha 90.000000
_cell_angle_beta 90.000000
_cell_angle_gamma 90.000000
_cell_volume 7928.982866
_symmetry_space_group_name_H-M "I 41/A M D"
_symmetry_group_IT_number 141
_space_group.IT_coordinate_system_code '2'
_symmetry_cell_setting 'tetragonal'
loop_
_space_group_symop_operation_xyz
x,y,z
1/4-y,3/4+x,1/4+z
-x,1/2-y,z
1/4+y,1/4-x,3/4+z
x,-y,-z
-x,1/2+y,-z
1/4+y,3/4+x,1/4-z
1/4-y,1/4-x,3/4-z
-x,-y,-z
3/4+y,1/4-x,3/4-z
x,1/2+y,-z
3/4-y,3/4+x,1/4-z
-x,y,z
x,1/2-y,z
3/4-y,1/4-x,3/4+z
3/4+y,3/4+x,1/4+z
1/2+x,1/2+y,1/2+z
3/4-y,1/4+x,3/4+z
1/2-x,-y,1/2+z
3/4+y,3/4-x,1/4+z
1/2+x,1/2-y,1/2-z
1/2-x,y,1/2-z
3/4+y,1/4+x,3/4-z
3/4-y,3/4-x,1/4-z
1/2-x,1/2-y,1/2-z
1/4+y,3/4-x,1/4-z
1/2+x,y,1/2-z
1/4-y,1/4+x,3/4-z
1/2-x,1/2+y,1/2+z
1/2+x,-y,1/2+z
1/4-y,3/4-x,1/4+z
1/4+y,1/4+x,3/4+z
loop_
_atom_site_type_symbol
_atom_site_label
_atom_site_fract_x
_atom_site_fract_y
_atom_site_fract_z
Si Si1 0.692138 0.552492 0.600638
Si Si2 0.086368 0.094233 0.188034
Si Si3 0.327308 0.162935 0.226838
Si Si4 0.916119 0.941391 0.045746
Si Si5 0.090233 0.659768 0.625000
Si Si6 0.695324 0.337312 0.494376
O O1 0.770935 0.520935 0.625000
O O2 0.644451 0.603779 0.640768
O O3 0.640138 0.478861 0.587063
O O4 0.713610 0.606362 0.552887
O O5 0.106359 0.158147 0.230391
O O6 0.000000 0.106999 0.168091
O O7 0.097140 0.012345 0.214659
O O8 0.306184 0.250000 0.215127
O O9 0.250000 0.121376 0.250000
O O10 0.360367 0.128784 0.173512
O O11 0.882212 0.862147 0.023440
O O12 0.000000 0.924521 0.070405
O O13 0.926457 0.000000 0.000000
O O14 0.104503 0.750000 0.614240
O O15 0.687351 0.250000 0.474852
#
# Coordination Sequence:
#
# PCOD8320861 Si02
#       6
#    32  32  32  32  16  32
#     4  11  22  38  67  94 125 170 216 259 317 388
#     4  11  24  41  63  91 127 165 205 258 319 381
#     4  10  23  40  62  93 127 165 217 271 316 370
#     4   9  18  36  62  91 124 161 205 258 313 375
#     4   9  18  38  66  90 122 174 220 258 319 386
#     4  10  23  41  62  94 129 165 212 265 317 375
#
# _framework density 22.197047000000001
#
# number of rings (size 3 to 8) (size 9 to 14) (size 15 to 20)
#    0.000    1.909    1.818    1.091    2.545    4.364 
#    0.000    3.636    0.000    0.000    0.000    0.000 
#    0.000    0.000    0.000    0.000    0.000    0.000 
#
# Total GULP energy -1090993.191517 kJ/mol
# GULP energy per Si atom -12397.649904 kJ/mol
# Density = 2.214653 g / cm^3
# Si number density = 22.197047 Si / 1000 Ang^3
#
#
#
# Elastic Constant Matrix: (Units=GPa)
#
#
# Indices 1 2 3 4 5 6 
#
# 1 66.3864 25.9156 10.9036 0.0000 0.0000 0.0000
# 2 25.9156 66.3874 10.9036 0.0000 0.0000 0.0000
# 3 10.9036 10.9036 83.5998 0.0000 0.0000 0.0000
# 4 0.0000 0.0000 0.0000 35.6190 0.0000 0.0000
# 5 0.0000 0.0000 0.0000 0.0000 35.6191 0.0000
# 6 0.0000 0.0000 0.0000 0.0000 0.0000 16.7542
#
#
#
# Elastic Compliance Matrix: (Units=1/GPa)
#
#
# Indices 1 2 3 4 5 6 
#
# 1 0.017944 -0.006765 -0.001458 0.000000 0.000000 0.000000
# 2 -0.006765 0.017944 -0.001458 0.000000 0.000000 0.000000
# 3 -0.001458 -0.001458 0.012342 0.000000 0.000000 0.000000
# 4 0.000000 0.000000 0.000000 0.028075 0.000000 0.000000
# 5 0.000000 0.000000 0.000000 0.000000 0.028075 0.000000
# 6 0.000000 0.000000 0.000000 0.000000 0.000000 0.059686
#
#
# Mechanical properties :
#
#
# Convention : Reuss Voigt Hill
#
# Bulk Modulus (GPa) = 34.64160 34.64658 34.64409
# Shear Modulus (GPa) = 25.90000 28.84185 27.37092
#
# Velocity S-wave (km/s) = 3.41958 3.60857 3.51535
# Velocity P-wave (km/s) = 5.58853 5.74499 5.66730
#
# Compressibility (1/GPa) = 0.02886703
#
# Stress axis : x y z
#
# Youngs Moduli (GPa) = 55.72959 55.73046 81.02370
#
# Poissons Ratio (x) = 0.37703 0.11813
# Poissons Ratio (y) = 0.37702 0.11813
# Poissons Ratio (z) = 0.08125 0.08125
#
# Static dielectric constant tensor:
#      x y z
#    x 4.025090 0.000000 0.000000 
#    y 0.000000 4.025060 0.000000 
#    z 0.000000 0.000000 3.997160 
# 
# 
# High freq. dielectric constant tensor:
#      x y z
#    x 1.867670 0.000000 0.000000 
#    y 0.000000 1.867670 0.000000 
#    z 0.000000 0.000000 1.874710 
# 
# From -- ./inp_files/12923.got.cif
#   From: 2010.03.12/outbox.cif.g09.slc.cpg/sg141_7_cif.got.tgz:12923.got - 2010.04.03 13:18:35.
