data_PCOD8320900
_publ_section_title
;
Structure prediction by ZEFSAII (Michael W. Deem and Ramdas Pophale) SiO2 
 PCOD8320900
Probable space group: I 41/A M D
;
_chemical_formula_sum "Si O2"
_cell_formula_units_Z 96
_cell_length_a 13.687326
_cell_length_b 13.687326
_cell_length_c 24.583807
_cell_angle_alpha 90.000000
_cell_angle_beta 90.000000
_cell_angle_gamma 90.000000
_cell_volume 4605.601525
_symmetry_space_group_name_H-M "I 41/A M D"
_symmetry_group_IT_number 141
_space_group.IT_coordinate_system_code '2'
_symmetry_cell_setting 'tetragonal'
loop_
_space_group_symop_operation_xyz
x,y,z
1/4-y,3/4+x,1/4+z
-x,1/2-y,z
1/4+y,1/4-x,3/4+z
x,-y,-z
-x,1/2+y,-z
1/4+y,3/4+x,1/4-z
1/4-y,1/4-x,3/4-z
-x,-y,-z
3/4+y,1/4-x,3/4-z
x,1/2+y,-z
3/4-y,3/4+x,1/4-z
-x,y,z
x,1/2-y,z
3/4-y,1/4-x,3/4+z
3/4+y,3/4+x,1/4+z
1/2+x,1/2+y,1/2+z
3/4-y,1/4+x,3/4+z
1/2-x,-y,1/2+z
3/4+y,3/4-x,1/4+z
1/2+x,1/2-y,1/2-z
1/2-x,y,1/2-z
3/4+y,1/4+x,3/4-z
3/4-y,3/4-x,1/4-z
1/2-x,1/2-y,1/2-z
1/4+y,3/4-x,1/4-z
1/2+x,y,1/2-z
1/4-y,1/4+x,3/4-z
1/2-x,1/2+y,1/2+z
1/2+x,-y,1/2+z
1/4-y,3/4-x,1/4+z
1/4+y,1/4+x,3/4+z
loop_
_atom_site_type_symbol
_atom_site_label
_atom_site_fract_x
_atom_site_fract_y
_atom_site_fract_z
Si Si1 0.894076 0.478316 0.332449
Si Si2 0.768853 0.136972 0.629362
Si Si3 0.610652 0.889955 0.018998
O O1 0.842331 0.407670 0.375000
O O2 0.829097 0.576725 0.324503
O O3 0.915840 0.423032 0.276319
O O4 0.000000 0.507636 0.356758
O O5 0.757575 0.250000 0.645926
O O6 0.832003 0.124085 0.574909
O O7 0.660719 0.089282 0.625000
O O8 0.500000 0.848142 0.023931
O O9 0.607604 0.000000 0.000000
#
# Coordination Sequence:
#
# PCOD8320900 Si02
#       3
#    32  32  32
#     4  11  22  36  58  91 126 158 196 243 299 366
#     4  11  24  42  63  87 120 162 207 255 304 355
#     4  11  21  39  64  91 123 159 198 245 304 365
#
# _framework density 20.844182
#
# number of rings (size 3 to 8) (size 9 to 14) (size 15 to 20)
#    0.000    1.000    6.667    3.000    0.000    6.667 
#    0.000    3.333    0.000    4.000    0.000    0.000 
#    0.000    0.000    0.000    0.000    0.000    0.000 
#
# Total GULP energy -594836.265423 kJ/mol
# GULP energy per Si atom -12392.422196 kJ/mol
# Density = 2.079674 g / cm^3
# Si number density = 20.844182 Si / 1000 Ang^3
#
#
#
# Elastic Constant Matrix: (Units=GPa)
#
#
# Indices 1 2 3 4 5 6 
#
# 1 175.8206 53.6038 17.2285 0.0000 0.0000 0.0000
# 2 53.6038 175.8176 17.2283 0.0000 0.0000 0.0000
# 3 17.2285 17.2283 67.9332 0.0000 0.0000 0.0000
# 4 0.0000 0.0000 0.0000 21.2795 0.0000 0.0000
# 5 0.0000 0.0000 0.0000 0.0000 21.2802 0.0000
# 6 0.0000 0.0000 0.0000 0.0000 0.0000 -3.0809
#
#
#
# Elastic Compliance Matrix: (Units=1/GPa)
#
#
# Indices 1 2 3 4 5 6 
#
# 1 0.006357 -0.001825 -0.001149 0.000000 0.000000 0.000000
# 2 -0.001825 0.006357 -0.001149 0.000000 0.000000 0.000000
# 3 -0.001149 -0.001149 0.015303 0.000000 0.000000 0.000000
# 4 0.000000 0.000000 0.000000 0.046994 0.000000 0.000000
# 5 0.000000 0.000000 0.000000 0.000000 0.046992 0.000000
# 6 0.000000 0.000000 0.000000 0.000000 0.000000 -0.324583
#
#
# Mechanical properties :
#
#
# Convention : Reuss Voigt Hill
#
# Bulk Modulus (GPa) = 50.58376 66.18806 58.38591
# Shear Modulus (GPa) = -26.63211 29.99647 1.68218
#
# Velocity S-wave (km/s) = -3.57834 3.79764 0.89932
# Velocity P-wave (km/s) = 2.69213 7.14507 5.39906
#
# Compressibility (1/GPa) = 0.01976919
#
# Stress axis : x y z
#
# Youngs Moduli (GPa) = 157.31266 157.31003 65.34569
#
# Poissons Ratio (x) = 0.28716 0.07509
# Poissons Ratio (y) = 0.28717 0.07509
# Poissons Ratio (z) = 0.18078 0.18078
#
# Static dielectric constant tensor:
#      x y z
#    x 4.468510 0.000000 0.000000 
#    y 0.000000 4.468500 0.000000 
#    z 0.000000 0.000000 3.826530 
# 
# 
# High freq. dielectric constant tensor:
#      x y z
#    x 1.823110 0.000000 0.000000 
#    y 0.000000 1.823110 0.000000 
#    z 0.000000 0.000000 1.794660 
# 
# From -- ./inp_files/9746.got.cif
#   From: 2010.03.12/outbox.cif.g09.slc.cpg/sg141_5_cif.got.tgz:9746.got - 2010.04.03 13:18:35.
