data_PCOD8320950
_publ_section_title
;
Structure prediction by ZEFSAII (Michael W. Deem and Ramdas Pophale) SiO2 
 PCOD8320950
Probable space group: I 41/A C D
;
_chemical_formula_sum "Si O2"
_cell_formula_units_Z 128
_cell_length_a 24.700267
_cell_length_b 24.700267
_cell_length_c 10.087533
_cell_angle_alpha 90.000000
_cell_angle_beta 90.000000
_cell_angle_gamma 90.000000
_cell_volume 6154.436061
_symmetry_space_group_name_H-M "I 41/A C D"
_symmetry_group_IT_number 142
_space_group.IT_coordinate_system_code '2'
_symmetry_cell_setting 'tetragonal'
loop_
_space_group_symop_operation_xyz
x,y,z
1/4-y,3/4+x,1/4+z
-x,1/2-y,z
1/4+y,1/4-x,3/4+z
x,-y,1/2-z
1/2-x,y,-z
3/4+y,1/4+x,1/4-z
1/4-y,1/4-x,1/4-z
-x,-y,-z
3/4+y,1/4-x,3/4-z
x,1/2+y,-z
3/4-y,3/4+x,1/4-z
-x,y,1/2+z
1/2+x,-y,z
1/4-y,3/4-x,3/4+z
3/4+y,3/4+x,3/4+z
1/2+x,1/2+y,1/2+z
3/4-y,1/4+x,3/4+z
1/2-x,-y,1/2+z
3/4+y,3/4-x,1/4+z
1/2+x,1/2-y,-z
-x,1/2+y,1/2-z
1/4+y,3/4+x,3/4-z
3/4-y,3/4-x,3/4-z
1/2-x,1/2-y,1/2-z
1/4+y,3/4-x,1/4-z
1/2+x,y,1/2-z
1/4-y,1/4+x,3/4-z
1/2-x,1/2+y,z
x,1/2-y,1/2+z
3/4-y,1/4-x,1/4+z
1/4+y,1/4+x,1/4+z
loop_
_atom_site_type_symbol
_atom_site_label
_atom_site_fract_x
_atom_site_fract_y
_atom_site_fract_z
Si Si1 0.008048 0.838725 0.114442
Si Si2 0.705987 0.117758 0.287445
Si Si3 0.864893 0.293944 0.122580
Si Si4 0.312034 0.564946 0.480918
O O1 0.952961 0.807323 0.150306
O O2 0.018455 0.884591 0.226099
O O3 0.003021 0.870320 0.976385
O O4 0.673987 0.076014 0.375000
O O5 0.692540 0.178879 0.335981
O O6 0.688523 0.111414 0.131706
O O7 0.768240 0.103462 0.314078
O O8 0.910266 0.339735 0.125000
O O9 0.250000 0.543408 0.500000
O O10 0.334614 0.584614 0.625000
#
# Coordination Sequence:
#
# PCOD8320950 Si02
#       4
#    32  32  32  32
#     4   9  16  30  50  72  98 127 163 212 260 298
#     4  10  17  28  47  77 106 129 164 207 252 300
#     4   9  18  29  46  76 101 124 161 205 250 302
#     4   9  17  30  50  76 104 134 169 210 251 292
#
# _framework density 20.798006000000001
#
# number of rings (size 3 to 8) (size 9 to 14) (size 15 to 20)
#    0.000    2.750    0.000    3.750    0.000    3.000 
#    0.000    7.500    0.000    0.000    0.000  113.750 
#    0.000    0.000    0.000    0.000    0.000    0.000 
#
# Total GULP energy -793004.512265 kJ/mol
# GULP energy per Si atom -12390.695504 kJ/mol
# Density = 2.075067 g / cm^3
# Si number density = 20.798006 Si / 1000 Ang^3
#
#
#
# Elastic Constant Matrix: (Units=GPa)
#
#
# Indices 1 2 3 4 5 6 
#
# 1 29.0121 55.5909 29.8117 0.0000 0.0000 0.0000
# 2 55.5909 29.0124 29.7872 0.0000 0.0000 0.0000
# 3 29.8117 29.7872 124.4432 0.0000 0.0000 0.0000
# 4 0.0000 0.0000 0.0000 20.0807 0.0000 0.0000
# 5 0.0000 0.0000 0.0000 0.0000 20.0808 0.0000
# 6 0.0000 0.0000 0.0000 0.0000 0.0000 27.4888
#
#
#
# Elastic Compliance Matrix: (Units=1/GPa)
#
#
# Indices 1 2 3 4 5 6 
#
# 1 -0.011706 0.025921 -0.003400 0.000000 0.000000 0.000000
# 2 0.025921 -0.011700 -0.003409 0.000000 0.000000 0.000000
# 3 -0.003400 -0.003409 0.009666 0.000000 0.000000 0.000000
# 4 0.000000 0.000000 0.000000 0.049799 0.000000 0.000000
# 5 0.000000 0.000000 0.000000 0.000000 0.049799 0.000000
# 6 0.000000 0.000000 0.000000 0.000000 0.000000 0.036378
#
#
# Mechanical properties :
#
#
# Convention : Reuss Voigt Hill
#
# Bulk Modulus (GPa) = 40.84279 45.87192 43.35735
# Shear Modulus (GPa) = 54.24489 18.01527 36.13008
#
# Velocity S-wave (km/s) = 5.11257 2.94632 4.17248
# Velocity P-wave (km/s) = 7.38456 5.80329 6.64116
#
# Compressibility (1/GPa) = 0.02448412
#
# Stress axis : x y z
#
# Youngs Moduli (GPa) = -85.42523 -85.47226 103.45098
#
# Poissons Ratio (x) = 2.21555 0.35176
# Poissons Ratio (y) = 2.21433 0.35269
# Poissons Ratio (z) = -0.29047 -0.29140
#
# Static dielectric constant tensor:
#      x y z
#    x 3.623400 0.000000 0.000000 
#    y 0.000000 3.623390 0.000000 
#    z 0.000000 0.000000 4.323540 
# 
# 
# High freq. dielectric constant tensor:
#      x y z
#    x 1.771020 0.000000 0.000000 
#    y 0.000000 1.771020 0.000000 
#    z 0.000000 0.000000 1.838930 
# 
# From -- ./inp_files/3479.got.cif
#   From: 2010.03.12/outbox.cif.g09.slc.cpg/sg142_2_cif.got.tgz:3479.got - 2010.04.03 13:27:16.
