data_PCOD8320189
_publ_section_title
;
Structure prediction by ZEFSAII (Michael W. Deem and Ramdas Pophale) SiO2 
 PCOD8320189
Probable space group: I 4/M C M
;
_chemical_formula_sum "Si O2"
_cell_formula_units_Z 160
_cell_length_a 29.236429
_cell_length_b 29.236429
_cell_length_c 10.346988
_cell_angle_alpha 90.000000
_cell_angle_beta 90.000000
_cell_angle_gamma 90.000000
_cell_volume 8844.282316
_symmetry_space_group_name_H-M "I 4/M C M"
_symmetry_group_IT_number 140
_symmetry_cell_setting 'tetragonal'
loop_
_space_group_symop_operation_xyz
x,y,z
-y,x,z
-x,-y,z
y,-x,z
x,-y,1/2-z
-x,y,1/2-z
y,x,1/2-z
-y,-x,1/2-z
-x,-y,-z
y,-x,-z
x,y,-z
-y,x,-z
-x,y,1/2+z
x,-y,1/2+z
-y,-x,1/2+z
y,x,1/2+z
1/2+x,1/2+y,1/2+z
1/2-y,1/2+x,1/2+z
1/2-x,1/2-y,1/2+z
1/2+y,1/2-x,1/2+z
1/2+x,1/2-y,-z
1/2-x,1/2+y,-z
1/2+y,1/2+x,-z
1/2-y,1/2-x,-z
1/2-x,1/2-y,1/2-z
1/2+y,1/2-x,1/2-z
1/2+x,1/2+y,1/2-z
1/2-y,1/2+x,1/2-z
1/2-x,1/2+y,z
1/2+x,1/2-y,z
1/2-y,1/2-x,z
1/2+y,1/2+x,z
loop_
_atom_site_type_symbol
_atom_site_label
_atom_site_fract_x
_atom_site_fract_y
_atom_site_fract_z
Si Si1 0.109959 0.186291 0.247816
Si Si2 0.446666 0.696112 0.000000
Si Si3 0.500758 0.132249 0.000000
Si Si4 0.861295 0.288922 0.746235
Si Si5 0.447314 0.703293 0.500000
Si Si6 0.803954 0.417281 0.000000
Si Si7 0.418149 0.799485 0.000000
Si Si8 0.500000 0.926259 0.250000
O O1 0.146746 0.146746 0.250000
O O2 0.076673 0.175726 0.127953
O O3 0.138271 0.233869 0.236803
O O4 0.079005 0.184734 0.375075
O O5 0.500718 0.685084 0.000000
O O6 0.437588 0.749170 0.000000
O O7 0.449540 0.151900 0.000000
O O8 0.536241 0.172444 0.000000
O O9 0.511093 0.103497 0.126315
O O10 0.809421 0.309421 0.744532
O O11 0.885543 0.306160 0.875226
O O12 0.888265 0.310258 0.625809
O O13 0.448010 0.758276 0.500000
O O14 0.456457 0.956457 0.285808
#
# Coordination Sequence:
#
# PCOD8320189 Si02
#       8
#    32  16  16  32  16  16  16  16
#     4  10  21  35  55  83 115 147 184 224 257 308
#     4  10  19  36  57  80 112 146 175 217 275 308
#     4  12  22  37  60  76  96 130 172 228 287 334
#     4  10  21  35  52  76 111 148 181 219 264 318
#     4  10  19  36  57  80 112 146 175 217 275 308
#     4  10  21  34  53  80 104 130 177 228 271 325
#     4  10  21  34  53  80 104 130 177 228 271 325
#     4  11  26  42  52  68  94 128 170 220 286 350
#
# _framework density 18.090785
#
# number of rings (size 3 to 8) (size 9 to 14) (size 15 to 20)
#    0.000    1.700    1.000    3.600    0.000    6.000 
#    0.000    0.000    0.000    7.200    0.000    0.000 
#    0.000   28.000    0.000    0.000    0.000    0.000 
#
# Total GULP energy -992072.719042 kJ/mol
# GULP energy per Si atom -12400.908988 kJ/mol
# Density = 1.804961 g / cm^3
# Si number density = 18.090785 Si / 1000 Ang^3
#
#
#
# Elastic Constant Matrix: (Units=GPa)
#
#
# Indices 1 2 3 4 5 6 
#
# 1 74.0068 42.8901 27.3128 0.0000 0.0000 0.0000
# 2 42.8901 74.0068 27.3128 0.0000 0.0000 0.0000
# 3 27.3128 27.3128 146.4186 0.0000 0.0000 0.0000
# 4 0.0000 0.0000 0.0000 1.7452 0.0000 0.0000
# 5 0.0000 0.0000 0.0000 0.0000 1.7452 0.0000
# 6 0.0000 0.0000 0.0000 0.0000 0.0000 89.9381
#
#
#
# Elastic Compliance Matrix: (Units=1/GPa)
#
#
# Indices 1 2 3 4 5 6 
#
# 1 0.020754 -0.011383 -0.001748 0.000000 0.000000 0.000000
# 2 -0.011383 0.020754 -0.001748 0.000000 0.000000 0.000000
# 3 -0.001748 -0.001748 0.007482 0.000000 0.000000 0.000000
# 4 0.000000 0.000000 0.000000 0.572996 0.000000 0.000000
# 5 0.000000 0.000000 0.000000 0.000000 0.572996 0.000000
# 6 0.000000 0.000000 0.000000 0.000000 0.000000 0.011119
#
#
# Mechanical properties :
#
#
# Convention : Reuss Voigt Hill
#
# Bulk Modulus (GPa) = 51.99598 54.38484 53.19041
# Shear Modulus (GPa) = 4.02489 31.81348 17.91918
#
# Velocity S-wave (km/s) = 1.49320 4.19805 3.15066
# Velocity P-wave (km/s) = 5.63711 7.32295 6.53462
#
# Compressibility (1/GPa) = 0.01923226
#
# Stress axis : x y z
#
# Youngs Moduli (GPa) = 48.18288 48.18288 133.65541
#
# Poissons Ratio (x) = 0.54846 0.23365
# Poissons Ratio (y) = 0.54846 0.23365
# Poissons Ratio (z) = 0.08423 0.08423
#
# Static dielectric constant tensor:
#      x y z
#    x 3.203430 0.000000 0.000000 
#    y 0.000000 3.203430 0.000000 
#    z 0.000000 0.000000 3.483500 
# 
# 
# High freq. dielectric constant tensor:
#      x y z
#    x 1.687520 0.000000 0.000000 
#    y 0.000000 1.687520 0.000000 
#    z 0.000000 0.000000 1.726310 
# 
# From -- ./inp_files/3246.got.cif
#   From: 2010.06.25/outbox.cif.g09.slc.cpg/sg140_2_cif.got.tgz:3246.got - 2010.06.28 10:53:23.
