data_PCOD8320682
_publ_section_title
;
Structure prediction by ZEFSAII (Michael W. Deem and Ramdas Pophale) SiO2 
 PCOD8320682
Probable space group: I 41/A M D
;
_chemical_formula_sum "Si O2"
_cell_formula_units_Z 160
_cell_length_a 29.547973
_cell_length_b 29.547973
_cell_length_c 10.220718
_cell_angle_alpha 90.000000
_cell_angle_beta 90.000000
_cell_angle_gamma 90.000000
_cell_volume 8923.532153
_symmetry_space_group_name_H-M "I 41/A M D"
_symmetry_group_IT_number 141
_space_group.IT_coordinate_system_code '2'
_symmetry_cell_setting 'tetragonal'
loop_
_space_group_symop_operation_xyz
x,y,z
1/4-y,3/4+x,1/4+z
-x,1/2-y,z
1/4+y,1/4-x,3/4+z
x,-y,-z
-x,1/2+y,-z
1/4+y,3/4+x,1/4-z
1/4-y,1/4-x,3/4-z
-x,-y,-z
3/4+y,1/4-x,3/4-z
x,1/2+y,-z
3/4-y,3/4+x,1/4-z
-x,y,z
x,1/2-y,z
3/4-y,1/4-x,3/4+z
3/4+y,3/4+x,1/4+z
1/2+x,1/2+y,1/2+z
3/4-y,1/4+x,3/4+z
1/2-x,-y,1/2+z
3/4+y,3/4-x,1/4+z
1/2+x,1/2-y,1/2-z
1/2-x,y,1/2-z
3/4+y,1/4+x,3/4-z
3/4-y,3/4-x,1/4-z
1/2-x,1/2-y,1/2-z
1/4+y,3/4-x,1/4-z
1/2+x,y,1/2-z
1/4-y,1/4+x,3/4-z
1/2-x,1/2+y,1/2+z
1/2+x,-y,1/2+z
1/4-y,3/4-x,1/4+z
1/4+y,1/4+x,3/4+z
loop_
_atom_site_type_symbol
_atom_site_label
_atom_site_fract_x
_atom_site_fract_y
_atom_site_fract_z
Si Si1 0.000000 0.173865 0.870031
Si Si2 0.786326 0.333535 0.634673
Si Si3 0.336626 0.585070 0.231243
Si Si4 0.082198 0.973466 0.363298
Si Si5 0.276661 0.500000 0.500000
Si Si6 0.500000 0.086434 0.484727
Si Si7 0.500000 0.916592 0.225106
O O1 0.044914 0.205087 0.875000
O O2 0.000000 0.139107 0.743017
O O3 0.000000 0.141274 0.998322
O O4 0.750000 0.338801 0.750000
O O5 0.820758 0.375591 0.633858
O O6 0.761361 0.328219 0.497651
O O7 0.820037 0.292272 0.652846
O O8 0.353964 0.603964 0.375000
O O9 0.371965 0.554452 0.153722
O O10 0.293492 0.556429 0.266458
O O11 0.043175 0.935416 0.353085
O O12 0.080218 0.000000 0.500000
O O13 0.244347 0.494347 0.375000
O O14 0.500000 0.062258 0.628038
#
# Coordination Sequence:
#
# PCOD8320682 Si02
#       7
#    16  32  32  32  16  16  16
#     4   9  20  37  63 104 131 146 191 256 311 374
#     4  12  19  38  59  85 117 155 214 256 303 366
#     4  11  21  37  58  82 112 162 203 259 306 364
#     4  12  26  39  58  89 124 165 213 261 315 369
#     4  10  20  34  50  73 104 149 194 242 300 340
#     4  10  21  31  68  91 113 158 202 249 302 374
#     4  10  21  39  63  85 125 164 192 249 323 365
#
# _framework density 17.930119999999999
#
# number of rings (size 3 to 8) (size 9 to 14) (size 15 to 20)
#    0.600    0.500    5.000    2.400    4.200    0.800 
#    0.000    0.000    0.000    0.000    0.000    0.000 
#    0.000    6.400    0.000    0.000    0.000    0.000 
#
# Total GULP energy -991163.442216 kJ/mol
# GULP energy per Si atom -12389.543028 kJ/mol
# Density = 1.788931 g / cm^3
# Si number density = 17.930120 Si / 1000 Ang^3
#
#
#
# Elastic Constant Matrix: (Units=GPa)
#
#
# Indices 1 2 3 4 5 6 
#
# 1 141.6529 55.9840 49.9031 0.0000 0.0000 0.0000
# 2 55.9840 141.6546 49.9034 0.0000 0.0000 0.0000
# 3 49.9031 49.9034 117.1095 0.0000 0.0000 0.0000
# 4 0.0000 0.0000 0.0000 26.4698 0.0000 0.0000
# 5 0.0000 0.0000 0.0000 0.0000 26.4811 0.0000
# 6 0.0000 0.0000 0.0000 0.0000 0.0000 43.7053
#
#
#
# Elastic Compliance Matrix: (Units=1/GPa)
#
#
# Indices 1 2 3 4 5 6 
#
# 1 0.009060 -0.002613 -0.002747 0.000000 0.000000 0.000000
# 2 -0.002613 0.009060 -0.002747 0.000000 0.000000 0.000000
# 3 -0.002747 -0.002747 0.010880 0.000000 0.000000 0.000000
# 4 0.000000 0.000000 0.000000 0.037779 0.000000 0.000000
# 5 0.000000 0.000000 0.000000 0.000000 0.037763 0.000000
# 6 0.000000 0.000000 0.000000 0.000000 0.000000 0.022881
#
#
# Mechanical properties :
#
#
# Convention : Reuss Voigt Hill
#
# Bulk Modulus (GPa) = 78.21346 79.11088 78.66217
# Shear Modulus (GPa) = 33.80684 35.63967 34.72325
#
# Velocity S-wave (km/s) = 4.34692 4.46320 4.40544
# Velocity P-wave (km/s) = 8.30122 8.41295 8.35727
#
# Compressibility (1/GPa) = 0.01278552
#
# Stress axis : x y z
#
# Youngs Moduli (GPa) = 110.37549 110.37677 91.90846
#
# Poissons Ratio (x) = 0.28839 0.25250
# Poissons Ratio (y) = 0.28839 0.25250
# Poissons Ratio (z) = 0.30323 0.30324
#
# Static dielectric constant tensor:
#      x y z
#    x 3.239690 0.000000 0.000000 
#    y 0.000000 3.239700 0.000000 
#    z 0.000000 0.000000 3.681340 
# 
# 
# High freq. dielectric constant tensor:
#      x y z
#    x 1.698140 0.000000 0.000000 
#    y 0.000000 1.698140 0.000000 
#    z 0.000000 0.000000 1.671350 
# 
# From -- ./inp_files/3355.got.cif
#   From: 2010.03.12/outbox.cif.g09.slc.cpg/sg141_2_cif.got.tgz:3355.got - 2010.04.03 13:18:35.
