data_PCOD8320639
_publ_section_title
;
Structure prediction by ZEFSAII (Michael W. Deem and Ramdas Pophale) SiO2 
 PCOD8320639
Probable space group: I 41/A M D
;
_chemical_formula_sum "Si O2"
_cell_formula_units_Z 160
_cell_length_a 24.042999
_cell_length_b 24.042999
_cell_length_c 15.141760
_cell_angle_alpha 90.000000
_cell_angle_beta 90.000000
_cell_angle_gamma 90.000000
_cell_volume 8752.933622
_symmetry_space_group_name_H-M "I 41/A M D"
_symmetry_group_IT_number 141
_space_group.IT_coordinate_system_code '2'
_symmetry_cell_setting 'tetragonal'
loop_
_space_group_symop_operation_xyz
x,y,z
1/4-y,3/4+x,1/4+z
-x,1/2-y,z
1/4+y,1/4-x,3/4+z
x,-y,-z
-x,1/2+y,-z
1/4+y,3/4+x,1/4-z
1/4-y,1/4-x,3/4-z
-x,-y,-z
3/4+y,1/4-x,3/4-z
x,1/2+y,-z
3/4-y,3/4+x,1/4-z
-x,y,z
x,1/2-y,z
3/4-y,1/4-x,3/4+z
3/4+y,3/4+x,1/4+z
1/2+x,1/2+y,1/2+z
3/4-y,1/4+x,3/4+z
1/2-x,-y,1/2+z
3/4+y,3/4-x,1/4+z
1/2+x,1/2-y,1/2-z
1/2-x,y,1/2-z
3/4+y,1/4+x,3/4-z
3/4-y,3/4-x,1/4-z
1/2-x,1/2-y,1/2-z
1/4+y,3/4-x,1/4-z
1/2+x,y,1/2-z
1/4-y,1/4+x,3/4-z
1/2-x,1/2+y,1/2+z
1/2+x,-y,1/2+z
1/4-y,3/4-x,1/4+z
1/4+y,1/4+x,3/4+z
loop_
_atom_site_type_symbol
_atom_site_label
_atom_site_fract_x
_atom_site_fract_y
_atom_site_fract_z
Si Si1 0.500000 0.403948 0.957728
Si Si2 0.237054 0.659851 0.993114
Si Si3 0.359591 0.862492 0.632377
Si Si4 0.937261 0.534482 0.918483
Si Si5 0.500000 0.972421 0.878159
Si Si6 0.189210 0.560427 0.727541
O O1 0.553914 0.368721 0.923996
O O2 0.500000 0.467267 0.923464
O O3 0.500000 0.416068 0.063062
O O4 0.239712 0.688340 0.088847
O O5 0.175010 0.654819 0.954864
O O6 0.279253 0.694205 0.930537
O O7 0.259402 0.598194 0.007167
O O8 0.405897 0.907643 0.605466
O O9 0.320598 0.885885 0.710779
O O10 0.000000 0.552343 0.942311
O O11 0.910267 0.500000 0.000000
O O12 0.250000 0.538729 0.750000
O O13 0.177243 0.572758 0.625000
#
# Coordination Sequence:
#
# PCOD8320639 Si02
#       6
#    16  32  32  32  16  32
#     4   9  18  30  53  82 112 138 182 231 278 341
#     4  10  19  34  54  78 109 147 191 234 278 348
#     4  10  21  35  56  83 110 148 193 233 290 343
#     4  10  22  40  59  80 111 149 192 242 296 351
#     4   9  16  30  55  78 108 146 184 229 275 328
#     4  11  20  32  47  77 117 152 182 228 285 346
#
# _framework density 18.279585000000001
#
# number of rings (size 3 to 8) (size 9 to 14) (size 15 to 20)
#    0.000    2.000    3.000    1.200    2.800    1.600 
#    0.000    0.500    0.000    0.000    0.000    0.000 
#    3.000    0.000    0.000    0.000    0.000    0.000 
#
# Total GULP energy -991106.064421 kJ/mol
# GULP energy per Si atom -12388.825805 kJ/mol
# Density = 1.823798 g / cm^3
# Si number density = 18.279585 Si / 1000 Ang^3
#
#
#
# Elastic Constant Matrix: (Units=GPa)
#
#
# Indices 1 2 3 4 5 6 
#
# 1 85.3364 35.2972 34.5817 0.0000 0.0000 0.0000
# 2 35.2972 85.3365 34.5817 0.0000 0.0000 0.0000
# 3 34.5817 34.5817 116.0656 0.0000 0.0000 0.0000
# 4 0.0000 0.0000 0.0000 24.6474 0.0000 0.0000
# 5 0.0000 0.0000 0.0000 0.0000 24.6472 0.0000
# 6 0.0000 0.0000 0.0000 0.0000 0.0000 20.4799
#
#
#
# Elastic Compliance Matrix: (Units=1/GPa)
#
#
# Indices 1 2 3 4 5 6 
#
# 1 0.014991 -0.004993 -0.002979 0.000000 0.000000 0.000000
# 2 -0.004993 0.014991 -0.002979 0.000000 0.000000 0.000000
# 3 -0.002979 -0.002979 0.010391 0.000000 0.000000 0.000000
# 4 0.000000 0.000000 0.000000 0.040572 0.000000 0.000000
# 5 0.000000 0.000000 0.000000 0.000000 0.040573 0.000000
# 6 0.000000 0.000000 0.000000 0.000000 0.000000 0.048828
#
#
# Mechanical properties :
#
#
# Convention : Reuss Voigt Hill
#
# Bulk Modulus (GPa) = 54.13979 55.07331 54.60655
# Shear Modulus (GPa) = 25.20106 26.10675 25.65390
#
# Velocity S-wave (km/s) = 3.71704 3.78324 3.75029
# Velocity P-wave (km/s) = 6.93569 7.01980 6.97787
#
# Compressibility (1/GPa) = 0.01847070
#
# Stress axis : x y z
#
# Youngs Moduli (GPa) = 66.70734 66.70747 96.23863
#
# Poissons Ratio (x) = 0.33310 0.28667
# Poissons Ratio (y) = 0.33310 0.28667
# Poissons Ratio (z) = 0.19870 0.19870
#
# Static dielectric constant tensor:
#      x y z
#    x 3.216890 0.000000 0.000000 
#    y 0.000000 3.216890 0.000000 
#    z 0.000000 0.000000 3.715540 
# 
# 
# High freq. dielectric constant tensor:
#      x y z
#    x 1.686570 0.000000 0.000000 
#    y 0.000000 1.686570 0.000000 
#    z 0.000000 0.000000 1.719990 
# 
# From -- ./inp_files/6662.got.cif
#   From: 2010.03.12/outbox.cif.g09.slc.cpg/sg141_4_cif.got.tgz:6662.got - 2010.04.03 13:18:35.
