data_PCOD8320303
_publ_section_title
;
Structure prediction by ZEFSAII (Michael W. Deem and Ramdas Pophale) SiO2 
 PCOD8320303
Probable space group: I 4/M C M
;
_chemical_formula_sum "Si O2"
_cell_formula_units_Z 160
_cell_length_a 23.044710
_cell_length_b 23.044710
_cell_length_c 14.481479
_cell_angle_alpha 90.000000
_cell_angle_beta 90.000000
_cell_angle_gamma 90.000000
_cell_volume 7690.514818
_symmetry_space_group_name_H-M "I 4/M C M"
_symmetry_group_IT_number 140
_symmetry_cell_setting 'tetragonal'
loop_
_space_group_symop_operation_xyz
x,y,z
-y,x,z
-x,-y,z
y,-x,z
x,-y,1/2-z
-x,y,1/2-z
y,x,1/2-z
-y,-x,1/2-z
-x,-y,-z
y,-x,-z
x,y,-z
-y,x,-z
-x,y,1/2+z
x,-y,1/2+z
-y,-x,1/2+z
y,x,1/2+z
1/2+x,1/2+y,1/2+z
1/2-y,1/2+x,1/2+z
1/2-x,1/2-y,1/2+z
1/2+y,1/2-x,1/2+z
1/2+x,1/2-y,-z
1/2-x,1/2+y,-z
1/2+y,1/2+x,-z
1/2-y,1/2-x,-z
1/2-x,1/2-y,1/2-z
1/2+y,1/2-x,1/2-z
1/2+x,1/2+y,1/2-z
1/2-y,1/2+x,1/2-z
1/2-x,1/2+y,z
1/2+x,1/2-y,z
1/2-y,1/2-x,z
1/2+y,1/2+x,z
loop_
_atom_site_type_symbol
_atom_site_label
_atom_site_fract_x
_atom_site_fract_y
_atom_site_fract_z
Si Si1 0.616032 0.379329 0.104713
Si Si2 0.178294 0.586266 0.715483
Si Si3 0.673313 0.493061 0.149382
Si Si4 0.525413 0.202870 0.396873
Si Si5 0.739297 0.330554 0.393570
O O1 0.630461 0.437837 0.159990
O O2 0.549454 0.361967 0.118812
O O3 0.662377 0.328670 0.131653
O O4 0.625791 0.397183 0.000000
O O5 0.115949 0.615949 0.707618
O O6 0.173632 0.529930 0.651392
O O7 0.191982 0.577458 0.824561
O O8 0.228223 0.626579 0.674600
O O9 0.701892 0.500000 0.250000
O O10 0.728296 0.482984 0.084093
O O11 0.536882 0.176251 0.500000
O O12 0.748947 0.350449 0.500000
O O13 0.764683 0.264683 0.380097
#
# Coordination Sequence:
#
# PCOD8320303 Si02
#       5
#    32  32  32  32  32
#     4  11  22  37  59  87 121 161 212 265 315 370
#     4  10  20  36  61  93 124 158 205 257 306 369
#     4  12  23  40  60  85 120 167 212 258 314 370
#     4  11  21  38  62  89 124 164 205 252 312 373
#     4   9  17  33  60  92 125 162 208 261 315 376
#
# _framework density 20.804849999999998
#
# number of rings (size 3 to 8) (size 9 to 14) (size 15 to 20)
#    0.000    1.400    4.000    3.000    0.000    2.000 
#    0.000    3.000    0.000   10.800    0.000    5.600 
#    0.000    0.000    0.000    0.000    0.000    0.000 
#
# Total GULP energy -991503.461355 kJ/mol
# GULP energy per Si atom -12393.793267 kJ/mol
# Density = 2.075750 g / cm^3
# Si number density = 20.804850 Si / 1000 Ang^3
#
#
#
# Elastic Constant Matrix: (Units=GPa)
#
#
# Indices 1 2 3 4 5 6 
#
# 1 80.5797 81.6931 24.8431 0.0000 0.0000 0.0000
# 2 81.6931 80.5797 24.8431 0.0000 0.0000 0.0000
# 3 24.8431 24.8431 127.2448 0.0000 0.0000 0.0000
# 4 0.0000 0.0000 0.0000 20.1474 0.0000 0.0000
# 5 0.0000 0.0000 0.0000 0.0000 20.1474 0.0000
# 6 0.0000 0.0000 0.0000 0.0000 0.0000 30.4450
#
#
#
# Elastic Compliance Matrix: (Units=1/GPa)
#
#
# Indices 1 2 3 4 5 6 
#
# 1 -0.445829 0.452383 -0.001280 0.000000 0.000000 0.000000
# 2 0.452383 -0.445829 -0.001280 0.000000 0.000000 0.000000
# 3 -0.001280 -0.001280 0.008359 0.000000 0.000000 0.000000
# 4 0.000000 0.000000 0.000000 0.049634 0.000000 0.000000
# 5 0.000000 0.000000 0.000000 0.000000 0.049634 0.000000
# 6 0.000000 0.000000 0.000000 0.000000 0.000000 0.032846
#
#
# Mechanical properties :
#
#
# Convention : Reuss Voigt Hill
#
# Bulk Modulus (GPa) = 61.16765 61.24028 61.20397
# Shear Modulus (GPa) = -3.03881 24.61631 10.78875
#
# Velocity S-wave (km/s) = -1.20987 3.44350 2.27968
# Velocity P-wave (km/s) = 5.24526 6.73125 6.03417
#
# Compressibility (1/GPa) = 0.01634851
#
# Stress axis : x y z
#
# Youngs Moduli (GPa) = -2.24301 -2.24301 119.63812
#
# Poissons Ratio (x) = 1.01470 0.15309
# Poissons Ratio (y) = 1.01470 0.15309
# Poissons Ratio (z) = -0.00287 -0.00287
#
# Static dielectric constant tensor:
#      x y z
#    x 3.731940 0.000000 0.000000 
#    y 0.000000 3.731940 0.000000 
#    z 0.000000 0.000000 4.053290 
# 
# 
# High freq. dielectric constant tensor:
#      x y z
#    x 1.798010 0.000000 0.000000 
#    y 0.000000 1.798010 0.000000 
#    z 0.000000 0.000000 1.835150 
# 
# From -- ./inp_files/4706.got.cif
#   From: 2010.06.25/outbox.cif.g09.slc.cpg/sg140_3_cif.got.tgz:4706.got - 2010.06.28 10:53:23.
