data_PCOD8320934
_publ_section_title
;
Structure prediction by ZEFSAII (Michael W. Deem and Ramdas Pophale) SiO2 
 PCOD8320934
Probable space group: I 41/A M D
;
_chemical_formula_sum "Si O2"
_cell_formula_units_Z 96
_cell_length_a 14.691523
_cell_length_b 14.691523
_cell_length_c 19.057291
_cell_angle_alpha 90.000000
_cell_angle_beta 90.000000
_cell_angle_gamma 90.000000
_cell_volume 4113.341851
_symmetry_space_group_name_H-M "I 41/A M D"
_symmetry_group_IT_number 141
_space_group.IT_coordinate_system_code '2'
_symmetry_cell_setting 'tetragonal'
loop_
_space_group_symop_operation_xyz
x,y,z
1/4-y,3/4+x,1/4+z
-x,1/2-y,z
1/4+y,1/4-x,3/4+z
x,-y,-z
-x,1/2+y,-z
1/4+y,3/4+x,1/4-z
1/4-y,1/4-x,3/4-z
-x,-y,-z
3/4+y,1/4-x,3/4-z
x,1/2+y,-z
3/4-y,3/4+x,1/4-z
-x,y,z
x,1/2-y,z
3/4-y,1/4-x,3/4+z
3/4+y,3/4+x,1/4+z
1/2+x,1/2+y,1/2+z
3/4-y,1/4+x,3/4+z
1/2-x,-y,1/2+z
3/4+y,3/4-x,1/4+z
1/2+x,1/2-y,1/2-z
1/2-x,y,1/2-z
3/4+y,1/4+x,3/4-z
3/4-y,3/4-x,1/4-z
1/2-x,1/2-y,1/2-z
1/4+y,3/4-x,1/4-z
1/2+x,y,1/2-z
1/4-y,1/4+x,3/4-z
1/2-x,1/2+y,1/2+z
1/2+x,-y,1/2+z
1/4-y,3/4-x,1/4+z
1/4+y,1/4+x,3/4+z
loop_
_atom_site_type_symbol
_atom_site_label
_atom_site_fract_x
_atom_site_fract_y
_atom_site_fract_z
Si Si1 0.354047 0.395954 0.125000
Si Si2 0.326790 0.423835 0.803576
Si Si3 0.605180 0.750000 0.472095
Si Si4 0.500000 0.651001 0.763129
Si Si5 0.765247 0.750000 0.384247
O O1 0.363801 0.504755 0.137545
O O2 0.405828 0.353027 0.191952
O O3 0.250000 0.465809 0.750000
O O4 0.412107 0.384743 0.764169
O O5 0.280777 0.340399 0.841832
O O6 0.500000 0.750000 0.456491
O O7 0.657713 0.750000 0.398552
O O8 0.500000 0.750000 0.725891
O O9 0.500000 0.571872 0.706470
#
# Coordination Sequence:
#
# PCOD8320934 Si02
#       5
#    16  32  16  16  16
#     4  12  23  48  74 104 151 184 244 306 368 438
#     4  12  27  50  72 109 148 194 250 311 366 450
#     4  12  26  49  73 105 148 194 243 304 373 434
#     4  12  26  47  74 112 146 191 240 309 376 454
#     4  12  27  50  74 108 150 192 252 306 374 437
#
# _framework density 23.338688000000001
#
# number of rings (size 3 to 8) (size 9 to 14) (size 15 to 20)
#    0.000    0.000    6.667    2.500    2.333    0.000 
#    3.000    2.500    0.000    0.000    0.000    0.000 
#    0.000    0.000    0.000    0.000    0.000    0.000 
#
# Total GULP energy -594637.596486 kJ/mol
# GULP energy per Si atom -12388.283260 kJ/mol
# Density = 2.328557 g / cm^3
# Si number density = 23.338688 Si / 1000 Ang^3
#
#
#
# Elastic Constant Matrix: (Units=GPa)
#
#
# Indices 1 2 3 4 5 6 
#
# 1 142.3405 61.5979 34.3967 0.0000 0.0000 0.0000
# 2 61.5979 142.3408 34.3974 0.0000 0.0000 0.0000
# 3 34.3967 34.3974 76.3473 0.0000 0.0000 0.0000
# 4 0.0000 0.0000 0.0000 41.9204 0.0000 0.0000
# 5 0.0000 0.0000 0.0000 0.0000 41.9186 0.0000
# 6 0.0000 0.0000 0.0000 0.0000 0.0000 60.9547
#
#
#
# Elastic Compliance Matrix: (Units=1/GPa)
#
#
# Indices 1 2 3 4 5 6 
#
# 1 0.009084 -0.003301 -0.002605 0.000000 0.000000 0.000000
# 2 -0.003301 0.009084 -0.002605 0.000000 0.000000 0.000000
# 3 -0.002605 -0.002605 0.015445 0.000000 0.000000 0.000000
# 4 0.000000 0.000000 0.000000 0.023855 0.000000 0.000000
# 5 0.000000 0.000000 0.000000 0.000000 0.023856 0.000000
# 6 0.000000 0.000000 0.000000 0.000000 0.000000 0.016406
#
#
# Mechanical properties :
#
#
# Convention : Reuss Voigt Hill
#
# Bulk Modulus (GPa) = 60.27915 69.09029 64.68472
# Shear Modulus (GPa) = 41.56910 44.33453 42.95181
#
# Velocity S-wave (km/s) = 4.22492 4.36319 4.29461
# Velocity P-wave (km/s) = 7.04868 7.41962 7.23653
#
# Compressibility (1/GPa) = 0.01658949
#
# Stress axis : x y z
#
# Youngs Moduli (GPa) = 110.08855 110.08826 64.74423
#
# Poissons Ratio (x) = 0.36345 0.16866
# Poissons Ratio (y) = 0.36345 0.16867
# Poissons Ratio (z) = 0.28678 0.28680
#
# Static dielectric constant tensor:
#      x y z
#    x 4.626960 0.000000 0.000000 
#    y 0.000000 4.626940 0.000000 
#    z 0.000000 0.000000 4.459800 
# 
# 
# High freq. dielectric constant tensor:
#      x y z
#    x 1.944280 0.000000 0.000000 
#    y 0.000000 1.944280 0.000000 
#    z 0.000000 0.000000 1.915860 
# 
# From -- ./inp_files/9826.got.cif
#   From: 2010.03.12/outbox.cif.g09.slc.cpg/sg141_5_cif.got.tgz:9826.got - 2010.04.03 13:18:35.
