data_PCOD8320454
_publ_section_title
;
Structure prediction by ZEFSAII (Michael W. Deem and Ramdas Pophale) SiO2 
 PCOD8320454
Probable space group: I 4/M C M
;
_chemical_formula_sum "Si O2"
_cell_formula_units_Z 176
_cell_length_a 17.223548
_cell_length_b 17.223548
_cell_length_c 27.313061
_cell_angle_alpha 90.000000
_cell_angle_beta 90.000000
_cell_angle_gamma 90.000000
_cell_volume 8102.436089
_symmetry_space_group_name_H-M "I 4/M C M"
_symmetry_group_IT_number 140
_symmetry_cell_setting 'tetragonal'
loop_
_space_group_symop_operation_xyz
x,y,z
-y,x,z
-x,-y,z
y,-x,z
x,-y,1/2-z
-x,y,1/2-z
y,x,1/2-z
-y,-x,1/2-z
-x,-y,-z
y,-x,-z
x,y,-z
-y,x,-z
-x,y,1/2+z
x,-y,1/2+z
-y,-x,1/2+z
y,x,1/2+z
1/2+x,1/2+y,1/2+z
1/2-y,1/2+x,1/2+z
1/2-x,1/2-y,1/2+z
1/2+y,1/2-x,1/2+z
1/2+x,1/2-y,-z
1/2-x,1/2+y,-z
1/2+y,1/2+x,-z
1/2-y,1/2-x,-z
1/2-x,1/2-y,1/2-z
1/2+y,1/2-x,1/2-z
1/2+x,1/2+y,1/2-z
1/2-y,1/2+x,1/2-z
1/2-x,1/2+y,z
1/2+x,1/2-y,z
1/2-y,1/2-x,z
1/2+y,1/2+x,z
loop_
_atom_site_type_symbol
_atom_site_label
_atom_site_fract_x
_atom_site_fract_y
_atom_site_fract_z
Si Si1 0.319662 0.049342 0.500000
Si Si2 0.709570 0.086603 0.677027
Si Si3 0.327542 0.300006 0.500000
Si Si4 0.311512 0.687876 0.393704
Si Si5 0.886784 0.945437 0.345023
Si Si6 0.996883 0.373396 0.399962
Si Si7 0.000000 0.182090 0.250000
O O1 0.390000 0.110001 0.500000
O O2 0.233847 0.085482 0.500000
O O3 0.325538 0.998494 0.450633
O O4 0.638109 0.138109 0.697996
O O5 0.757334 0.136693 0.638761
O O6 0.680146 0.011096 0.647565
O O7 0.763822 0.060348 0.721105
O O8 0.273724 0.226277 0.500000
O O9 0.313204 0.346486 0.449324
O O10 0.222459 0.722459 0.393593
O O11 0.315845 0.599061 0.372550
O O12 0.870677 0.947776 0.286568
O O13 0.964219 0.896869 0.359521
O O14 0.913192 0.413192 0.392721
O O15 0.064254 0.435747 0.403146
#
# Coordination Sequence:
#
# PCOD8320454 Si02
#       7
#    16  32  16  32  32  32  16
#     4   9  17  29  51  86 119 155 206 255 301 375
#     4  10  23  40  59  90 127 165 214 268 329 390
#     4   9  20  36  60  94 130 168 203 247 317 389
#     4  10  22  43  66  94 131 166 209 262 321 389
#     4  11  24  43  67  95 125 167 220 274 325 381
#     4   9  18  34  56  85 124 166 206 254 315 387
#     4  12  24  41  64  93 118 164 222 272 328 379
#
# _framework density 21.721862999999999
#
# number of rings (size 3 to 8) (size 9 to 14) (size 15 to 20)
#    0.000    2.000    1.818    0.818    2.545    4.000 
#    0.000    5.455    0.000    1.091    0.000    0.000 
#    0.000    0.000    0.000    0.000    0.000    0.000 
#
# Total GULP energy -1090307.922825 kJ/mol
# GULP energy per Si atom -12389.862759 kJ/mol
# Density = 2.167242 g / cm^3
# Si number density = 21.721863 Si / 1000 Ang^3
#
#
#
# Elastic Constant Matrix: (Units=GPa)
#
#
# Indices 1 2 3 4 5 6 
#
# 1 67.5797 30.8804 32.4169 0.0000 0.0000 0.0000
# 2 30.8804 67.5795 32.4172 0.0000 0.0000 0.0000
# 3 32.4169 32.4172 108.1813 0.0000 0.0000 0.0000
# 4 0.0000 0.0000 0.0000 4.4888 0.0000 0.0000
# 5 0.0000 0.0000 0.0000 0.0000 4.4891 0.0000
# 6 0.0000 0.0000 0.0000 0.0000 0.0000 30.6494
#
#
#
# Elastic Compliance Matrix: (Units=1/GPa)
#
#
# Indices 1 2 3 4 5 6 
#
# 1 0.019951 -0.007298 -0.003791 0.000000 0.000000 0.000000
# 2 -0.007298 0.019951 -0.003792 0.000000 0.000000 0.000000
# 3 -0.003791 -0.003792 0.011516 0.000000 0.000000 0.000000
# 4 0.000000 0.000000 0.000000 0.222777 0.000000 0.000000
# 5 0.000000 0.000000 0.000000 0.000000 0.222760 0.000000
# 6 0.000000 0.000000 0.000000 0.000000 0.000000 0.032627
#
#
# Mechanical properties :
#
#
# Convention : Reuss Voigt Hill
#
# Bulk Modulus (GPa) = 46.17658 48.30770 47.24214
# Shear Modulus (GPa) = 8.82516 17.76721 13.29618
#
# Velocity S-wave (km/s) = 2.01783 2.86307 2.47677
# Velocity P-wave (km/s) = 5.17041 5.76342 5.47495
#
# Compressibility (1/GPa) = 0.02165600
#
# Stress axis : x y z
#
# Youngs Moduli (GPa) = 50.12342 50.12305 86.83528
#
# Poissons Ratio (x) = 0.36579 0.32923
# Poissons Ratio (y) = 0.36579 0.32925
# Poissons Ratio (z) = 0.19004 0.19005
#
# Static dielectric constant tensor:
#      x y z
#    x 4.151930 0.000000 0.000000 
#    y 0.000000 4.151930 0.000000 
#    z 0.000000 0.000000 4.136260 
# 
# 
# High freq. dielectric constant tensor:
#      x y z
#    x 1.845820 0.000000 0.000000 
#    y 0.000000 1.845820 0.000000 
#    z 0.000000 0.000000 1.851080 
# 
# From -- ./inp_files/10736.got.cif
#   From: 2010.06.25/outbox.cif.g09.slc.cpg/sg140_6_cif.got.tgz:10736.got - 2010.06.28 10:53:23.
