data_PCOD8320807
_publ_section_title
;
Structure prediction by ZEFSAII (Michael W. Deem and Ramdas Pophale) SiO2 
 PCOD8320807
Probable space group: I 41/A M D
;
_chemical_formula_sum "Si O2"
_cell_formula_units_Z 96
_cell_length_a 17.334117
_cell_length_b 17.334117
_cell_length_c 16.736302
_cell_angle_alpha 90.000000
_cell_angle_beta 90.000000
_cell_angle_gamma 90.000000
_cell_volume 5028.783644
_symmetry_space_group_name_H-M "I 41/A M D"
_symmetry_group_IT_number 141
_space_group.IT_coordinate_system_code '2'
_symmetry_cell_setting 'tetragonal'
loop_
_space_group_symop_operation_xyz
x,y,z
1/4-y,3/4+x,1/4+z
-x,1/2-y,z
1/4+y,1/4-x,3/4+z
x,-y,-z
-x,1/2+y,-z
1/4+y,3/4+x,1/4-z
1/4-y,1/4-x,3/4-z
-x,-y,-z
3/4+y,1/4-x,3/4-z
x,1/2+y,-z
3/4-y,3/4+x,1/4-z
-x,y,z
x,1/2-y,z
3/4-y,1/4-x,3/4+z
3/4+y,3/4+x,1/4+z
1/2+x,1/2+y,1/2+z
3/4-y,1/4+x,3/4+z
1/2-x,-y,1/2+z
3/4+y,3/4-x,1/4+z
1/2+x,1/2-y,1/2-z
1/2-x,y,1/2-z
3/4+y,1/4+x,3/4-z
3/4-y,3/4-x,1/4-z
1/2-x,1/2-y,1/2-z
1/4+y,3/4-x,1/4-z
1/2+x,y,1/2-z
1/4-y,1/4+x,3/4-z
1/2-x,1/2+y,1/2+z
1/2+x,-y,1/2+z
1/4-y,3/4-x,1/4+z
1/4+y,1/4+x,3/4+z
loop_
_atom_site_type_symbol
_atom_site_label
_atom_site_fract_x
_atom_site_fract_y
_atom_site_fract_z
Si Si1 0.861241 0.111241 0.375000
Si Si2 0.913595 0.750000 0.720837
Si Si3 0.639404 0.946143 0.203409
Si Si4 0.500000 0.162359 0.842684
Si Si5 0.197321 0.552680 0.125000
O O1 0.866910 0.175620 0.307416
O O2 0.782441 0.126839 0.422788
O O3 0.918379 0.750000 0.813948
O O4 0.000000 0.750000 0.684813
O O5 0.575878 0.883992 0.180965
O O6 0.640167 0.938835 0.299925
O O7 0.719171 0.927419 0.160204
O O8 0.500000 0.250000 0.806366
#
# Coordination Sequence:
#
# PCOD8320807 Si02
#       5
#    16  16  32  16  16
#     4  11  19  34  65  94 123 162 193 243 310 380
#     4  11  21  35  55  93 135 156 184 241 307 365
#     4  10  21  39  62  88 118 160 204 252 301 367
#     4  11  25  41  57  87 126 164 208 249 302 360
#     4   9  20  42  62  86 118 152 206 259 308 348
#
# _framework density 19.090104
#
# number of rings (size 3 to 8) (size 9 to 14) (size 15 to 20)
#    0.000    1.667    1.667    3.000    0.000    5.333 
#    6.000    1.667    0.000    0.000    0.000    0.000 
#    0.000    0.000    0.000    0.000    0.000    0.000 
#
# Total GULP energy -594644.988770 kJ/mol
# GULP energy per Si atom -12388.437266 kJ/mol
# Density = 1.904665 g / cm^3
# Si number density = 19.090104 Si / 1000 Ang^3
#
#
#
# Elastic Constant Matrix: (Units=GPa)
#
#
# Indices 1 2 3 4 5 6 
#
# 1 111.1190 81.4202 52.5252 0.0000 0.0000 0.0000
# 2 81.4202 111.1185 52.5259 0.0000 0.0000 0.0000
# 3 52.5252 52.5259 140.3600 0.0000 0.0000 0.0000
# 4 0.0000 0.0000 0.0000 21.5405 0.0000 0.0000
# 5 0.0000 0.0000 0.0000 0.0000 21.5401 0.0000
# 6 0.0000 0.0000 0.0000 0.0000 0.0000 -39.2690
#
#
#
# Elastic Compliance Matrix: (Units=1/GPa)
#
#
# Indices 1 2 3 4 5 6 
#
# 1 0.020099 -0.013573 -0.002442 0.000000 0.000000 0.000000
# 2 -0.013573 0.020099 -0.002442 0.000000 0.000000 0.000000
# 3 -0.002442 -0.002442 0.008952 0.000000 0.000000 0.000000
# 4 0.000000 0.000000 0.000000 0.046424 0.000000 0.000000
# 5 0.000000 0.000000 0.000000 0.000000 0.046425 0.000000
# 6 0.000000 0.000000 0.000000 0.000000 0.000000 -0.025465
#
#
# Mechanical properties :
#
#
# Convention : Reuss Voigt Hill
#
# Bulk Modulus (GPa) = 81.72657 81.72667 81.72662
# Shear Modulus (GPa) = 31.74056 12.50408 22.12232
#
# Velocity S-wave (km/s) = 4.08201 2.56208 3.40786
# Velocity P-wave (km/s) = 8.06976 7.18723 7.64125
#
# Compressibility (1/GPa) = 0.01223592
#
# Stress axis : x y z
#
# Youngs Moduli (GPa) = 49.75410 49.75352 111.70162
#
# Poissons Ratio (x) = 0.67529 0.27279
# Poissons Ratio (y) = 0.67530 0.27282
# Poissons Ratio (z) = 0.12151 0.12152
#
# Static dielectric constant tensor:
#      x y z
#    x 3.581970 0.000000 0.000000 
#    y 0.000000 3.581970 0.000000 
#    z 0.000000 0.000000 4.035910 
# 
# 
# High freq. dielectric constant tensor:
#      x y z
#    x 1.739690 0.000000 0.000000 
#    y 0.000000 1.739690 0.000000 
#    z 0.000000 0.000000 1.760780 
# 
# From -- ./inp_files/7749.got.cif
#   From: 2010.03.12/outbox.cif.g09.slc.cpg/sg141_4_cif.got.tgz:7749.got - 2010.04.03 13:18:35.
