data_PCOD8320748
_publ_section_title
;
Structure prediction by ZEFSAII (Michael W. Deem and Ramdas Pophale) SiO2 
 PCOD8320748
Probable space group: I 41/A M D
;
_chemical_formula_sum "Si O2"
_cell_formula_units_Z 176
_cell_length_a 18.399692
_cell_length_b 18.399692
_cell_length_c 25.226502
_cell_angle_alpha 90.000000
_cell_angle_beta 90.000000
_cell_angle_gamma 90.000000
_cell_volume 8540.398592
_symmetry_space_group_name_H-M "I 41/A M D"
_symmetry_group_IT_number 141
_space_group.IT_coordinate_system_code '2'
_symmetry_cell_setting 'tetragonal'
loop_
_space_group_symop_operation_xyz
x,y,z
1/4-y,3/4+x,1/4+z
-x,1/2-y,z
1/4+y,1/4-x,3/4+z
x,-y,-z
-x,1/2+y,-z
1/4+y,3/4+x,1/4-z
1/4-y,1/4-x,3/4-z
-x,-y,-z
3/4+y,1/4-x,3/4-z
x,1/2+y,-z
3/4-y,3/4+x,1/4-z
-x,y,z
x,1/2-y,z
3/4-y,1/4-x,3/4+z
3/4+y,3/4+x,1/4+z
1/2+x,1/2+y,1/2+z
3/4-y,1/4+x,3/4+z
1/2-x,-y,1/2+z
3/4+y,3/4-x,1/4+z
1/2+x,1/2-y,1/2-z
1/2-x,y,1/2-z
3/4+y,1/4+x,3/4-z
3/4-y,3/4-x,1/4-z
1/2-x,1/2-y,1/2-z
1/4+y,3/4-x,1/4-z
1/2+x,y,1/2-z
1/4-y,1/4+x,3/4-z
1/2-x,1/2+y,1/2+z
1/2+x,-y,1/2+z
1/4-y,3/4-x,1/4+z
1/4+y,1/4+x,3/4+z
loop_
_atom_site_type_symbol
_atom_site_label
_atom_site_fract_x
_atom_site_fract_y
_atom_site_fract_z
Si Si1 0.350388 0.021626 0.170761
Si Si2 0.370863 0.402722 0.682109
Si Si3 0.139827 0.835733 0.858005
Si Si4 0.086072 0.250000 0.671749
Si Si5 0.418680 0.942960 0.722131
Si Si6 0.081055 0.750000 0.213597
Si Si7 0.250000 0.056128 0.750000
O O1 0.328388 0.078388 0.125000
O O2 0.400714 0.058485 0.215442
O O3 0.398359 0.959822 0.143178
O O4 0.278481 0.993154 0.201196
O O5 0.334415 0.415586 0.625000
O O6 0.416261 0.474513 0.698306
O O7 0.409236 0.323864 0.679651
O O8 0.311177 0.391602 0.727390
O O9 0.137471 0.750000 0.842774
O O10 0.071494 0.863186 0.891949
O O11 0.137488 0.886954 0.805742
O O12 0.123308 0.250000 0.730149
O O13 0.000000 0.250000 0.672054
O O14 0.500000 0.913539 0.714441
O O15 0.000000 0.750000 0.233569
#
# Coordination Sequence:
#
# PCOD8320748 Si02
#       7
#    32  32  32  16  32  16  16
#     4  11  22  40  63  92 129 168 207 262 326 396
#     4  11  24  38  58  88 122 170 214 265 323 386
#     4  11  22  40  69  96 127 166 220 276 329 389
#     4   9  18  36  59  91 119 156 211 270 320 369
#     4  11  23  41  65  93 128 166 216 268 327 391
#     4  11  24  37  55  81 125 170 216 268 321 384
#     4  10  20  39  60  86 121 160 214 262 321 384
#
# _framework density 20.607937
#
# number of rings (size 3 to 8) (size 9 to 14) (size 15 to 20)
#    0.000    1.273    0.909    7.091    2.545    1.818 
#    0.000    2.727    0.000    0.000    0.000    0.000 
#    0.000    0.000    0.000    0.000    0.000    0.000 
#
# Total GULP energy -1090483.489306 kJ/mol
# GULP energy per Si atom -12391.857833 kJ/mol
# Density = 2.056103 g / cm^3
# Si number density = 20.607937 Si / 1000 Ang^3
#
#
#
# Elastic Constant Matrix: (Units=GPa)
#
#
# Indices 1 2 3 4 5 6 
#
# 1 85.4219 31.1834 41.5107 0.0000 0.0000 0.0000
# 2 31.1834 85.4217 41.5108 0.0000 0.0000 0.0000
# 3 41.5107 41.5108 142.5233 0.0000 0.0000 0.0000
# 4 0.0000 0.0000 0.0000 -10.8976 0.0000 0.0000
# 5 0.0000 0.0000 0.0000 0.0000 -10.8947 0.0000
# 6 0.0000 0.0000 0.0000 0.0000 0.0000 19.2369
#
#
#
# Elastic Compliance Matrix: (Units=1/GPa)
#
#
# Indices 1 2 3 4 5 6 
#
# 1 0.014628 -0.003809 -0.003151 0.000000 0.000000 0.000000
# 2 -0.003809 0.014628 -0.003151 0.000000 0.000000 0.000000
# 3 -0.003151 -0.003151 0.008852 0.000000 0.000000 0.000000
# 4 0.000000 0.000000 0.000000 -0.091763 0.000000 0.000000
# 5 0.000000 0.000000 0.000000 0.000000 -0.091787 0.000000
# 6 0.000000 0.000000 0.000000 0.000000 0.000000 0.051983
#
#
# Mechanical properties :
#
#
# Convention : Reuss Voigt Hill
#
# Bulk Modulus (GPa) = 55.90911 60.19742 58.05326
# Shear Modulus (GPa) = -74.32301 12.76638 -30.77832
#
# Velocity S-wave (km/s) = -6.01195 2.49165 -3.86880
# Velocity P-wave (km/s) = 4.58286 6.12797 2.87658
#
# Compressibility (1/GPa) = 0.01788617
#
# Stress axis : x y z
#
# Youngs Moduli (GPa) = 68.36042 68.36022 112.96813
#
# Poissons Ratio (x) = 0.26037 0.35599
# Poissons Ratio (y) = 0.26037 0.35599
# Poissons Ratio (z) = 0.21542 0.21542
#
# Static dielectric constant tensor:
#      x y z
#    x 3.584010 0.000000 0.000000 
#    y 0.000000 3.584010 0.000000 
#    z 0.000000 0.000000 3.898080 
# 
# 
# High freq. dielectric constant tensor:
#      x y z
#    x 1.793210 0.000000 0.000000 
#    y 0.000000 1.793210 0.000000 
#    z 0.000000 0.000000 1.820660 
# 
# From -- ./inp_files/12952.got.cif
#   From: 2010.03.12/outbox.cif.g09.slc.cpg/sg141_7_cif.got.tgz:12952.got - 2010.04.03 13:18:35.
