data_PCOD8320642
_publ_section_title
;
Structure prediction by ZEFSAII (Michael W. Deem and Ramdas Pophale) SiO2 
 PCOD8320642
Probable space group: I 41/A M D
;
_chemical_formula_sum "Si O2"
_cell_formula_units_Z 144
_cell_length_a 28.390708
_cell_length_b 28.390708
_cell_length_c 10.041204
_cell_angle_alpha 90.000000
_cell_angle_beta 90.000000
_cell_angle_gamma 90.000000
_cell_volume 8093.534762
_symmetry_space_group_name_H-M "I 41/A M D"
_symmetry_group_IT_number 141
_space_group.IT_coordinate_system_code '2'
_symmetry_cell_setting 'tetragonal'
loop_
_space_group_symop_operation_xyz
x,y,z
1/4-y,3/4+x,1/4+z
-x,1/2-y,z
1/4+y,1/4-x,3/4+z
x,-y,-z
-x,1/2+y,-z
1/4+y,3/4+x,1/4-z
1/4-y,1/4-x,3/4-z
-x,-y,-z
3/4+y,1/4-x,3/4-z
x,1/2+y,-z
3/4-y,3/4+x,1/4-z
-x,y,z
x,1/2-y,z
3/4-y,1/4-x,3/4+z
3/4+y,3/4+x,1/4+z
1/2+x,1/2+y,1/2+z
3/4-y,1/4+x,3/4+z
1/2-x,-y,1/2+z
3/4+y,3/4-x,1/4+z
1/2+x,1/2-y,1/2-z
1/2-x,y,1/2-z
3/4+y,1/4+x,3/4-z
3/4-y,3/4-x,1/4-z
1/2-x,1/2-y,1/2-z
1/4+y,3/4-x,1/4-z
1/2+x,y,1/2-z
1/4-y,1/4+x,3/4-z
1/2-x,1/2+y,1/2+z
1/2+x,-y,1/2+z
1/4-y,3/4-x,1/4+z
1/4+y,1/4+x,3/4+z
loop_
_atom_site_type_symbol
_atom_site_label
_atom_site_fract_x
_atom_site_fract_y
_atom_site_fract_z
Si Si1 0.349631 0.750000 0.610844
Si Si2 0.152215 0.750000 0.587052
Si Si3 0.900844 0.504491 0.151404
Si Si4 0.846976 0.353967 0.497709
Si Si5 0.000000 0.503264 0.247274
Si Si6 0.399226 0.107072 0.750566
O O1 0.367932 0.750000 0.762845
O O2 0.293311 0.750000 0.609524
O O3 0.366784 0.796372 0.534410
O O4 0.137039 0.798762 0.514034
O O5 0.208209 0.750000 0.591511
O O6 0.887674 0.459474 0.243241
O O7 0.883838 0.552936 0.220616
O O8 0.957091 0.506643 0.144806
O O9 0.881264 0.500000 0.000000
O O10 0.866124 0.383876 0.375000
O O11 0.867560 0.375078 0.630610
O O12 0.389617 0.139617 0.625000
#
# Coordination Sequence:
#
# PCOD8320642 Si02
#       6
#    16  16  32  32  16  32
#     4  10  19  34  56  83 117 147 184 239 293 338
#     4  10  19  34  56  83 117 147 185 237 292 341
#     4  10  19  34  56  83 118 149 185 238 294 341
#     4  11  22  37  60  87 117 151 195 237 287 345
#     4   8  18  28  52  86 112 134 187 234 303 343
#     4  11  22  37  60  87 115 151 194 237 288 344
#
# _framework density 17.791979000000001
#
# number of rings (size 3 to 8) (size 9 to 14) (size 15 to 20)
#    0.000    1.778    4.444    0.667    0.000    1.778 
#    0.000    0.000    0.000    8.000    0.000    0.000 
#    0.000    0.000    0.000    0.000    0.000    0.000 
#
# Total GULP energy -892240.824754 kJ/mol
# GULP energy per Si atom -12392.233677 kJ/mol
# Density = 1.775148 g / cm^3
# Si number density = 17.791979 Si / 1000 Ang^3
#
#
#
# Elastic Constant Matrix: (Units=GPa)
#
#
# Indices 1 2 3 4 5 6 
#
# 1 109.2983 38.1703 50.6098 0.0000 0.0000 0.0000
# 2 38.1703 109.2983 50.6098 0.0000 0.0000 0.0000
# 3 50.6098 50.6098 132.4148 0.0000 0.0000 0.0000
# 4 0.0000 0.0000 0.0000 30.7897 0.0000 0.0000
# 5 0.0000 0.0000 0.0000 0.0000 30.7897 0.0000
# 6 0.0000 0.0000 0.0000 0.0000 0.0000 26.5947
#
#
#
# Elastic Compliance Matrix: (Units=1/GPa)
#
#
# Indices 1 2 3 4 5 6 
#
# 1 0.011626 -0.002433 -0.003514 0.000000 0.000000 0.000000
# 2 -0.002433 0.011626 -0.003514 0.000000 0.000000 0.000000
# 3 -0.003514 -0.003514 0.010238 0.000000 0.000000 0.000000
# 4 0.000000 0.000000 0.000000 0.032478 0.000000 0.000000
# 5 0.000000 0.000000 0.000000 0.000000 0.032478 0.000000
# 6 0.000000 0.000000 0.000000 0.000000 0.000000 0.037602
#
#
# Mechanical properties :
#
#
# Convention : Reuss Voigt Hill
#
# Bulk Modulus (GPa) = 68.63811 69.97682 69.30746
# Shear Modulus (GPa) = 31.28423 31.74290 31.51356
#
# Velocity S-wave (km/s) = 4.19780 4.22846 4.21316
# Velocity P-wave (km/s) = 7.88398 7.95335 7.91874
#
# Compressibility (1/GPa) = 0.01456917
#
# Stress axis : x y z
#
# Youngs Moduli (GPa) = 86.01450 86.01450 97.67718
#
# Poissons Ratio (x) = 0.20929 0.34319
# Poissons Ratio (y) = 0.20929 0.34319
# Poissons Ratio (z) = 0.30221 0.30221
#
# Static dielectric constant tensor:
#      x y z
#    x 3.382410 0.000000 0.000000 
#    y 0.000000 3.382410 0.000000 
#    z 0.000000 0.000000 3.117090 
# 
# 
# High freq. dielectric constant tensor:
#      x y z
#    x 1.678310 0.000000 0.000000 
#    y 0.000000 1.678310 0.000000 
#    z 0.000000 0.000000 1.695810 
# 
# From -- ./inp_files/3223.got.cif
#   From: 2010.03.12/outbox.cif.g09.slc.cpg/sg141_2_cif.got.tgz:3223.got - 2010.04.03 13:18:35.
