data_PCOD8320459
_publ_section_title
;
Structure prediction by ZEFSAII (Michael W. Deem and Ramdas Pophale) SiO2 
 PCOD8320459
Probable space group: I 4/M C M
;
_chemical_formula_sum "Si O2"
_cell_formula_units_Z 176
_cell_length_a 17.580037
_cell_length_b 17.580037
_cell_length_c 28.262631
_cell_angle_alpha 90.000000
_cell_angle_beta 90.000000
_cell_angle_gamma 90.000000
_cell_volume 8734.783759
_symmetry_space_group_name_H-M "I 4/M C M"
_symmetry_group_IT_number 140
_symmetry_cell_setting 'tetragonal'
loop_
_space_group_symop_operation_xyz
x,y,z
-y,x,z
-x,-y,z
y,-x,z
x,-y,1/2-z
-x,y,1/2-z
y,x,1/2-z
-y,-x,1/2-z
-x,-y,-z
y,-x,-z
x,y,-z
-y,x,-z
-x,y,1/2+z
x,-y,1/2+z
-y,-x,1/2+z
y,x,1/2+z
1/2+x,1/2+y,1/2+z
1/2-y,1/2+x,1/2+z
1/2-x,1/2-y,1/2+z
1/2+y,1/2-x,1/2+z
1/2+x,1/2-y,-z
1/2-x,1/2+y,-z
1/2+y,1/2+x,-z
1/2-y,1/2-x,-z
1/2-x,1/2-y,1/2-z
1/2+y,1/2-x,1/2-z
1/2+x,1/2+y,1/2-z
1/2-y,1/2+x,1/2-z
1/2-x,1/2+y,z
1/2+x,1/2-y,z
1/2-y,1/2-x,z
1/2+y,1/2+x,z
loop_
_atom_site_type_symbol
_atom_site_label
_atom_site_fract_x
_atom_site_fract_y
_atom_site_fract_z
Si Si1 0.793195 0.485909 0.391578
Si Si2 0.333473 0.709826 0.867109
Si Si3 0.503211 0.877419 0.699462
Si Si4 0.940252 0.559749 0.055732
Si Si5 0.749638 0.128241 0.554175
Si Si6 0.585948 0.589266 0.194382
O O1 0.746637 0.414345 0.374930
O O2 0.824617 0.523757 0.343364
O O3 0.857257 0.461248 0.427836
O O4 0.744320 0.547649 0.419637
O O5 0.270420 0.770420 0.846955
O O6 0.307855 0.682814 0.918912
O O7 0.348147 0.639597 0.831279
O O8 0.500000 0.832219 0.750000
O O9 0.587272 0.912729 0.688086
O O10 0.445573 0.945573 0.706222
O O11 0.000000 0.500000 0.078128
O O12 0.943282 0.556719 0.000000
O O13 0.776359 0.120038 0.500000
O O14 0.664266 0.164266 0.556696
O O15 0.498073 0.606287 0.180222
O O16 0.598828 0.598828 0.250000
#
# Coordination Sequence:
#
# PCOD8320459 Si02
#       6
#    32  32  32  16  32  32
#     4  12  21  38  60  86 120 160 208 255 305 381
#     4  11  23  40  58  89 128 163 202 252 322 389
#     4   9  17  31  53  82 118 158 195 237 294 358
#     4  11  22  34  58  92 119 152 206 269 316 363
#     4  10  23  41  60  84 119 162 205 254 319 379
#     4   9  19  40  69  94 118 158 214 270 315 362
#
# _framework density 20.149324
#
# number of rings (size 3 to 8) (size 9 to 14) (size 15 to 20)
#    0.000    1.727    1.818    4.364    0.000    3.273 
#    6.545    0.000    0.000    0.000    0.000    3.818 
#    0.000    0.000    0.000    0.000    0.000    0.000 
#
# Total GULP energy -1090842.090045 kJ/mol
# GULP energy per Si atom -12395.932841 kJ/mol
# Density = 2.010346 g / cm^3
# Si number density = 20.149324 Si / 1000 Ang^3
#
#
#
# Elastic Constant Matrix: (Units=GPa)
#
#
# Indices 1 2 3 4 5 6 
#
# 1 74.6342 14.4340 32.7215 0.0000 0.0000 0.0000
# 2 14.4340 74.6341 32.7211 0.0000 0.0000 0.0000
# 3 32.7215 32.7211 124.2391 0.0000 0.0000 0.0000
# 4 0.0000 0.0000 0.0000 25.6610 0.0000 0.0000
# 5 0.0000 0.0000 0.0000 0.0000 25.6609 0.0000
# 6 0.0000 0.0000 0.0000 0.0000 0.0000 11.5898
#
#
#
# Elastic Compliance Matrix: (Units=1/GPa)
#
#
# Indices 1 2 3 4 5 6 
#
# 1 0.015266 -0.001345 -0.003667 0.000000 0.000000 0.000000
# 2 -0.001345 0.015266 -0.003666 0.000000 0.000000 0.000000
# 3 -0.003667 -0.003666 0.009980 0.000000 0.000000 0.000000
# 4 0.000000 0.000000 0.000000 0.038970 0.000000 0.000000
# 5 0.000000 0.000000 0.000000 0.000000 0.038970 0.000000
# 6 0.000000 0.000000 0.000000 0.000000 0.000000 0.086283
#
#
# Mechanical properties :
#
#
# Convention : Reuss Voigt Hill
#
# Bulk Modulus (GPa) = 43.18365 48.14007 45.66186
# Shear Modulus (GPa) = 21.75708 25.49106 23.62407
#
# Velocity S-wave (km/s) = 3.28958 3.56069 3.42782
# Velocity P-wave (km/s) = 5.99223 6.39126 6.19496
#
# Compressibility (1/GPa) = 0.02315691
#
# Stress axis : x y z
#
# Youngs Moduli (GPa) = 65.50380 65.50388 100.19731
#
# Poissons Ratio (x) = 0.08810 0.36738
# Poissons Ratio (y) = 0.08810 0.36737
# Poissons Ratio (z) = 0.24017 0.24017
#
# Static dielectric constant tensor:
#      x y z
#    x 3.602220 0.000000 0.000000 
#    y 0.000000 3.602220 0.000000 
#    z 0.000000 0.000000 3.849090 
# 
# 
# High freq. dielectric constant tensor:
#      x y z
#    x 1.776760 0.000000 0.000000 
#    y 0.000000 1.776760 0.000000 
#    z 0.000000 0.000000 1.795430 
# 
# From -- ./inp_files/10720.got.cif
#   From: 2010.06.25/outbox.cif.g09.slc.cpg/sg140_6_cif.got.tgz:10720.got - 2010.06.28 10:53:23.
