data_PCOD8320543
_publ_section_title
;
Structure prediction by ZEFSAII (Michael W. Deem and Ramdas Pophale) SiO2 
 PCOD8320543
Probable space group: I 41/A M D
;
_chemical_formula_sum "Si O2"
_cell_formula_units_Z 176
_cell_length_a 29.974394
_cell_length_b 29.974394
_cell_length_c 15.586596
_cell_angle_alpha 90.000000
_cell_angle_beta 90.000000
_cell_angle_gamma 90.000000
_cell_volume 14003.999997
_symmetry_space_group_name_H-M "I 41/A M D"
_symmetry_group_IT_number 141
_space_group.IT_coordinate_system_code '2'
_symmetry_cell_setting 'tetragonal'
loop_
_space_group_symop_operation_xyz
x,y,z
1/4-y,3/4+x,1/4+z
-x,1/2-y,z
1/4+y,1/4-x,3/4+z
x,-y,-z
-x,1/2+y,-z
1/4+y,3/4+x,1/4-z
1/4-y,1/4-x,3/4-z
-x,-y,-z
3/4+y,1/4-x,3/4-z
x,1/2+y,-z
3/4-y,3/4+x,1/4-z
-x,y,z
x,1/2-y,z
3/4-y,1/4-x,3/4+z
3/4+y,3/4+x,1/4+z
1/2+x,1/2+y,1/2+z
3/4-y,1/4+x,3/4+z
1/2-x,-y,1/2+z
3/4+y,3/4-x,1/4+z
1/2+x,1/2-y,1/2-z
1/2-x,y,1/2-z
3/4+y,1/4+x,3/4-z
3/4-y,3/4-x,1/4-z
1/2-x,1/2-y,1/2-z
1/4+y,3/4-x,1/4-z
1/2+x,y,1/2-z
1/4-y,1/4+x,3/4-z
1/2-x,1/2+y,1/2+z
1/2+x,-y,1/2+z
1/4-y,3/4-x,1/4+z
1/4+y,1/4+x,3/4+z
loop_
_atom_site_type_symbol
_atom_site_label
_atom_site_fract_x
_atom_site_fract_y
_atom_site_fract_z
Si Si1 0.678632 0.750000 0.283421
Si Si2 0.406279 0.999513 0.696346
Si Si3 0.408078 0.411692 0.595965
Si Si4 0.351763 0.543326 0.546994
Si Si5 0.331061 0.009158 0.817977
Si Si6 0.729336 0.250000 0.885683
Si Si7 0.250000 0.042622 0.250000
O O1 0.649781 0.791892 0.316548
O O2 0.687118 0.750000 0.180059
O O3 0.726669 0.750000 0.328220
O O4 0.376914 0.970299 0.632557
O O5 0.381102 0.995450 0.788294
O O6 0.456328 0.979180 0.697337
O O7 0.406964 0.051731 0.671506
O O8 0.383143 0.366858 0.625000
O O9 0.387297 0.432913 0.512047
O O10 0.331497 0.500000 0.500000
O O11 0.312345 0.577551 0.564878
O O12 0.323714 0.995769 0.916444
O O13 0.294322 0.988114 0.752414
#
# Coordination Sequence:
#
# PCOD8320543 Si02
#       7
#    16  32  32  32  32  16  16
#     4   9  16  26  36  53  82  94 124 160 194 226
#     4  10  18  26  41  53  76 102 135 163 198 230
#     4  10  17  24  38  57  75 102 126 158 190 224
#     4  10  17  23  36  56  76 103 135 160 185 224
#     4  11  18  28  36  55  79 108 132 163 190 244
#     4   9  16  28  38  55  72 104 126 168 204 216
#     4  10  22  26  36  53  84 109 132 156 202 234
#
# _framework density 12.567837000000001
#
# number of rings (size 3 to 8) (size 9 to 14) (size 15 to 20)
#    0.000    2.000    6.364    0.000    0.000    0.000 
#    0.000    0.000    0.000    0.818    0.000    0.000 
#    0.000    0.000    0.000    0.000    0.000    0.000 
#
# Total GULP energy -1090549.781643 kJ/mol
# GULP energy per Si atom -12392.611155 kJ/mol
# Density = 1.253923 g / cm^3
# Si number density = 12.567837 Si / 1000 Ang^3
#
#
#
# Elastic Constant Matrix: (Units=GPa)
#
#
# Indices 1 2 3 4 5 6 
#
# 1 71.1235 19.6027 30.4926 0.0000 0.0000 0.0000
# 2 19.6027 71.1237 30.4933 0.0000 0.0000 0.0000
# 3 30.4926 30.4933 56.1511 0.0000 0.0000 0.0000
# 4 0.0000 0.0000 0.0000 28.4611 0.0000 0.0000
# 5 0.0000 0.0000 0.0000 0.0000 28.4563 0.0000
# 6 0.0000 0.0000 0.0000 0.0000 0.0000 12.2379
#
#
#
# Elastic Compliance Matrix: (Units=1/GPa)
#
#
# Indices 1 2 3 4 5 6 
#
# 1 0.018384 -0.001025 -0.009427 0.000000 0.000000 0.000000
# 2 -0.001025 0.018384 -0.009427 0.000000 0.000000 0.000000
# 3 -0.009427 -0.009427 0.028047 0.000000 0.000000 0.000000
# 4 0.000000 0.000000 0.000000 0.035136 0.000000 0.000000
# 5 0.000000 0.000000 0.000000 0.000000 0.035142 0.000000
# 6 0.000000 0.000000 0.000000 0.000000 0.000000 0.081714
#
#
# Mechanical properties :
#
#
# Convention : Reuss Voigt Hill
#
# Bulk Modulus (GPa) = 39.90713 39.95282 39.92998
# Shear Modulus (GPa) = 18.87383 21.68503 20.27943
#
# Velocity S-wave (km/s) = 3.87945 4.15835 4.02132
# Velocity P-wave (km/s) = 7.20342 7.41043 7.30766
#
# Compressibility (1/GPa) = 0.02505818
#
# Stress axis : x y z
#
# Youngs Moduli (GPa) = 54.39491 54.39425 35.65383
#
# Poissons Ratio (x) = 0.05578 0.33609
# Poissons Ratio (y) = 0.05578 0.33610
# Poissons Ratio (z) = 0.51275 0.51277
#
# Static dielectric constant tensor:
#      x y z
#    x 2.486420 0.000000 0.000000 
#    y 0.000000 2.486410 0.000000 
#    z 0.000000 0.000000 2.405240 
# 
# 
# High freq. dielectric constant tensor:
#      x y z
#    x 1.456630 0.000000 0.000000 
#    y 0.000000 1.456630 0.000000 
#    z 0.000000 0.000000 1.458480 
# 
# From -- ./inp_files/6846.got.cif
#   From: 2010.03.12/outbox.cif.g09.slc.cpg/sg141_4_cif.got.tgz:6846.got - 2010.04.03 13:18:35.
