data_PCOD8320273
_publ_section_title
;
Structure prediction by ZEFSAII (Michael W. Deem and Ramdas Pophale) SiO2 
 PCOD8320273
Probable space group: I 4/M C M
;
_chemical_formula_sum "Si O2"
_cell_formula_units_Z 192
_cell_length_a 26.157103
_cell_length_b 26.157103
_cell_length_c 14.625526
_cell_angle_alpha 90.000000
_cell_angle_beta 90.000000
_cell_angle_gamma 90.000000
_cell_volume 10006.697682
_symmetry_space_group_name_H-M "I 4/M C M"
_symmetry_group_IT_number 140
_symmetry_cell_setting 'tetragonal'
loop_
_space_group_symop_operation_xyz
x,y,z
-y,x,z
-x,-y,z
y,-x,z
x,-y,1/2-z
-x,y,1/2-z
y,x,1/2-z
-y,-x,1/2-z
-x,-y,-z
y,-x,-z
x,y,-z
-y,x,-z
-x,y,1/2+z
x,-y,1/2+z
-y,-x,1/2+z
y,x,1/2+z
1/2+x,1/2+y,1/2+z
1/2-y,1/2+x,1/2+z
1/2-x,1/2-y,1/2+z
1/2+y,1/2-x,1/2+z
1/2+x,1/2-y,-z
1/2-x,1/2+y,-z
1/2+y,1/2+x,-z
1/2-y,1/2-x,-z
1/2-x,1/2-y,1/2-z
1/2+y,1/2-x,1/2-z
1/2+x,1/2+y,1/2-z
1/2-y,1/2+x,1/2-z
1/2-x,1/2+y,z
1/2+x,1/2-y,z
1/2-y,1/2-x,z
1/2+y,1/2+x,z
loop_
_atom_site_type_symbol
_atom_site_label
_atom_site_fract_x
_atom_site_fract_y
_atom_site_fract_z
Si Si1 0.361040 0.138961 0.105524
Si Si2 0.200525 0.851418 0.674579
Si Si3 0.274847 0.225154 0.100073
Si Si4 0.649105 0.480629 0.347504
Si Si5 0.523795 0.239297 0.895556
Si Si6 0.426645 0.787250 0.288841
Si Si7 0.588395 0.612216 0.900251
O O1 0.318018 0.181983 0.098811
O O2 0.408680 0.159333 0.165770
O O3 0.376356 0.123645 0.000000
O O4 0.158037 0.841964 0.750000
O O5 0.222228 0.796457 0.642070
O O6 0.247851 0.880675 0.717727
O O7 0.168535 0.885255 0.602822
O O8 0.258676 0.241325 0.000000
O O9 0.669090 0.500000 0.250000
O O10 0.700405 0.462465 0.399765
O O11 0.611999 0.431482 0.333845
O O12 0.618222 0.527357 0.392092
O O13 0.554542 0.206995 0.817012
O O14 0.465608 0.235380 0.863074
O O15 0.531843 0.217662 0.000000
O O16 0.599835 0.589557 0.000000
#
# Coordination Sequence:
#
# PCOD8320273 Si02
#       7
#    16  32  16  32  32  32  32
#     4   9  18  33  56  84 112 146 185 232 283 336
#     4  11  20  34  54  75 105 140 176 230 292 346
#     4   9  19  33  51  76 103 133 178 225 279 345
#     4  12  23  40  55  77 104 141 186 240 300 356
#     4  11  20  35  57  81 111 149 190 234 286 344
#     4  10  20  35  55  82 113 145 190 235 281 342
#     4  12  24  37  56  77 101 136 185 239 294 357
#
# _framework density 19.187149000000002
#
# number of rings (size 3 to 8) (size 9 to 14) (size 15 to 20)
#    0.000    1.167    3.333    5.250    0.000    1.667 
#    0.000    2.917    0.000    0.000    0.000    0.000 
#    0.000    5.333    0.000   19.333    0.000    0.333 
#
# Total GULP energy -1189356.635004 kJ/mol
# GULP energy per Si atom -12389.131615 kJ/mol
# Density = 1.914348 g / cm^3
# Si number density = 19.187149 Si / 1000 Ang^3
#
#
#
# Elastic Constant Matrix: (Units=GPa)
#
#
# Indices 1 2 3 4 5 6 
#
# 1 68.9098 42.8532 28.3749 0.0000 0.0000 0.0000
# 2 42.8532 68.9089 28.3741 0.0000 0.0000 0.0000
# 3 28.3749 28.3741 137.3561 0.0000 0.0000 0.0000
# 4 0.0000 0.0000 0.0000 22.1984 0.0000 0.0000
# 5 0.0000 0.0000 0.0000 0.0000 22.1988 0.0000
# 6 0.0000 0.0000 0.0000 0.0000 0.0000 36.7809
#
#
#
# Elastic Compliance Matrix: (Units=1/GPa)
#
#
# Indices 1 2 3 4 5 6 
#
# 1 0.024187 -0.014191 -0.002065 0.000000 0.000000 0.000000
# 2 -0.014191 0.024187 -0.002065 0.000000 0.000000 0.000000
# 3 -0.002065 -0.002065 0.008133 0.000000 0.000000 0.000000
# 4 0.000000 0.000000 0.000000 0.045048 0.000000 0.000000
# 5 0.000000 0.000000 0.000000 0.000000 0.045047 0.000000
# 6 0.000000 0.000000 0.000000 0.000000 0.000000 0.027188
#
#
# Mechanical properties :
#
#
# Convention : Reuss Voigt Hill
#
# Bulk Modulus (GPa) = 50.33779 52.70882 51.52330
# Shear Modulus (GPa) = 23.03550 27.94047 25.48798
#
# Velocity S-wave (km/s) = 3.46868 3.82017 3.64866
# Velocity P-wave (km/s) = 6.50649 6.85484 6.68293
#
# Compressibility (1/GPa) = 0.01986579
#
# Stress axis : x y z
#
# Youngs Moduli (GPa) = 41.34409 41.34369 122.94857
#
# Poissons Ratio (x) = 0.58672 0.25389
# Poissons Ratio (y) = 0.58673 0.25387
# Poissons Ratio (z) = 0.08538 0.08537
#
# Static dielectric constant tensor:
#      x y z
#    x 3.432390 0.000000 0.000000 
#    y 0.000000 3.432380 0.000000 
#    z 0.000000 0.000000 3.670140 
# 
# 
# High freq. dielectric constant tensor:
#      x y z
#    x 1.721860 0.000000 0.000000 
#    y 0.000000 1.721860 0.000000 
#    z 0.000000 0.000000 1.757140 
# 
# From -- ./inp_files/5208.got.cif
#   From: 2010.06.25/outbox.cif.g09.slc.cpg/sg140_3_cif.got.tgz:5208.got - 2010.06.28 10:53:23.
