data_PCOD8320411
_publ_section_title
;
Structure prediction by ZEFSAII (Michael W. Deem and Ramdas Pophale) SiO2 
 PCOD8320411
Probable space group: I 4/M C M
;
_chemical_formula_sum "Si O2"
_cell_formula_units_Z 96
_cell_length_a 13.925220
_cell_length_b 13.925220
_cell_length_c 24.403837
_cell_angle_alpha 90.000000
_cell_angle_beta 90.000000
_cell_angle_gamma 90.000000
_cell_volume 4732.190789
_symmetry_space_group_name_H-M "I 4/M C M"
_symmetry_group_IT_number 140
_symmetry_cell_setting 'tetragonal'
loop_
_space_group_symop_operation_xyz
x,y,z
-y,x,z
-x,-y,z
y,-x,z
x,-y,1/2-z
-x,y,1/2-z
y,x,1/2-z
-y,-x,1/2-z
-x,-y,-z
y,-x,-z
x,y,-z
-y,x,-z
-x,y,1/2+z
x,-y,1/2+z
-y,-x,1/2+z
y,x,1/2+z
1/2+x,1/2+y,1/2+z
1/2-y,1/2+x,1/2+z
1/2-x,1/2-y,1/2+z
1/2+y,1/2-x,1/2+z
1/2+x,1/2-y,-z
1/2-x,1/2+y,-z
1/2+y,1/2+x,-z
1/2-y,1/2-x,-z
1/2-x,1/2-y,1/2-z
1/2+y,1/2-x,1/2-z
1/2+x,1/2+y,1/2-z
1/2-y,1/2+x,1/2-z
1/2-x,1/2+y,z
1/2+x,1/2-y,z
1/2-y,1/2-x,z
1/2+y,1/2+x,z
loop_
_atom_site_type_symbol
_atom_site_label
_atom_site_fract_x
_atom_site_fract_y
_atom_site_fract_z
Si Si1 0.144898 0.061475 0.000000
Si Si2 0.419176 0.080825 0.437365
Si Si3 0.435852 0.776169 0.398518
Si Si4 0.400425 0.259638 0.222280
O O1 0.202210 0.089185 0.945900
O O2 0.050650 0.124713 0.000000
O O3 0.392359 0.107642 0.500000
O O4 0.458056 0.176290 0.406338
O O5 0.500000 0.000000 0.437410
O O6 0.360900 0.860900 0.402473
O O7 0.424450 0.720019 0.341297
O O8 0.500000 0.232072 0.250000
O O9 0.354220 0.354220 0.250000
O O10 0.330814 0.169187 0.229893
#
# Coordination Sequence:
#
# PCOD8320411 Si02
#       4
#    16  16  32  32
#     4  11  25  41  58  87 126 163 202 249 307 378
#     4   9  16  32  60  92 123 150 192 253 312 369
#     4  10  21  41  65  92 124 159 206 256 310 372
#     4  10  24  43  64  94 128 166 217 265 312 380
#
# _framework density 20.286587000000001
#
# number of rings (size 3 to 8) (size 9 to 14) (size 15 to 20)
#    0.000    2.000    1.667    0.500    7.000    0.667 
#    6.000    0.000    0.000    0.000    0.000    0.000 
#    0.000    0.000    0.000    0.000    0.000    0.000 
#
# Total GULP energy -595218.459227 kJ/mol
# GULP energy per Si atom -12400.384567 kJ/mol
# Density = 2.024041 g / cm^3
# Si number density = 20.286587 Si / 1000 Ang^3
#
#
#
# Elastic Constant Matrix: (Units=GPa)
#
#
# Indices 1 2 3 4 5 6 
#
# 1 52.0759 7.2128 53.9843 0.0000 0.0000 0.0000
# 2 7.2128 52.0762 53.9844 0.0000 0.0000 0.0000
# 3 53.9843 53.9844 190.1317 0.0000 0.0000 0.0000
# 4 0.0000 0.0000 0.0000 34.0490 0.0000 0.0000
# 5 0.0000 0.0000 0.0000 0.0000 34.0489 0.0000
# 6 0.0000 0.0000 0.0000 0.0000 0.0000 -3.6721
#
#
#
# Elastic Compliance Matrix: (Units=1/GPa)
#
#
# Indices 1 2 3 4 5 6 
#
# 1 0.028607 0.006317 -0.009916 0.000000 0.000000 0.000000
# 2 0.006317 0.028607 -0.009916 0.000000 0.000000 0.000000
# 3 -0.009916 -0.009916 0.010891 0.000000 0.000000 0.000000
# 4 0.000000 0.000000 0.000000 0.029369 0.000000 0.000000
# 5 0.000000 0.000000 0.000000 0.000000 0.029369 0.000000
# 6 0.000000 0.000000 0.000000 0.000000 0.000000 -0.272327
#
#
# Mechanical properties :
#
#
# Convention : Reuss Voigt Hill
#
# Bulk Modulus (GPa) = 24.34569 58.29407 41.31988
# Shear Modulus (GPa) = -47.72745 24.82533 -11.45106
#
# Velocity S-wave (km/s) = -4.85569 3.50198 -2.37842
# Velocity P-wave (km/s) = 4.40568 6.71934 3.58745
#
# Compressibility (1/GPa) = 0.04107503
#
# Stress axis : x y z
#
# Youngs Moduli (GPa) = 34.95600 34.95624 91.82266
#
# Poissons Ratio (x) = -0.22083 0.91053
# Poissons Ratio (y) = -0.22083 0.91053
# Poissons Ratio (z) = 0.34663 0.34663
#
# Static dielectric constant tensor:
#      x y z
#    x 3.628260 0.000000 0.000000 
#    y 0.000000 3.628260 0.000000 
#    z 0.000000 0.000000 3.861980 
# 
# 
# High freq. dielectric constant tensor:
#      x y z
#    x 1.784770 0.000000 0.000000 
#    y 0.000000 1.784770 0.000000 
#    z 0.000000 0.000000 1.803720 
# 
# From -- ./inp_files/7710.got.cif
#   From: 2010.06.25/outbox.cif.g09.slc.cpg/sg140_4_cif.got.tgz:7710.got - 2010.06.28 10:53:23.
