data_PCOD8320329
_publ_section_title
;
Structure prediction by ZEFSAII (Michael W. Deem and Ramdas Pophale) SiO2 
 PCOD8320329
Probable space group: I 4/M C M
;
_chemical_formula_sum "Si O2"
_cell_formula_units_Z 176
_cell_length_a 18.508097
_cell_length_b 18.508097
_cell_length_c 25.560182
_cell_angle_alpha 90.000000
_cell_angle_beta 90.000000
_cell_angle_gamma 90.000000
_cell_volume 8755.631515
_symmetry_space_group_name_H-M "I 4/M C M"
_symmetry_group_IT_number 140
_symmetry_cell_setting 'tetragonal'
loop_
_space_group_symop_operation_xyz
x,y,z
-y,x,z
-x,-y,z
y,-x,z
x,-y,1/2-z
-x,y,1/2-z
y,x,1/2-z
-y,-x,1/2-z
-x,-y,-z
y,-x,-z
x,y,-z
-y,x,-z
-x,y,1/2+z
x,-y,1/2+z
-y,-x,1/2+z
y,x,1/2+z
1/2+x,1/2+y,1/2+z
1/2-y,1/2+x,1/2+z
1/2-x,1/2-y,1/2+z
1/2+y,1/2-x,1/2+z
1/2+x,1/2-y,-z
1/2-x,1/2+y,-z
1/2+y,1/2+x,-z
1/2-y,1/2-x,-z
1/2-x,1/2-y,1/2-z
1/2+y,1/2-x,1/2-z
1/2+x,1/2+y,1/2-z
1/2-y,1/2+x,1/2-z
1/2-x,1/2+y,z
1/2+x,1/2-y,z
1/2-y,1/2-x,z
1/2+y,1/2+x,z
loop_
_atom_site_type_symbol
_atom_site_label
_atom_site_fract_x
_atom_site_fract_y
_atom_site_fract_z
Si Si1 0.681293 0.011727 0.363473
Si Si2 0.105126 0.056300 0.000000
Si Si3 0.082365 0.085321 0.692091
Si Si4 0.688157 0.400676 0.103224
Si Si5 0.850121 0.350121 0.329904
Si Si6 0.939940 0.560061 0.560600
Si Si7 0.766290 0.733711 0.632865
Si Si8 0.139152 0.639152 0.206197
O O1 0.763479 0.031397 0.378390
O O2 0.633574 0.032831 0.413460
O O3 0.657510 0.057757 0.312546
O O4 0.674223 0.927210 0.352367
O O5 0.148137 0.079497 0.949284
O O6 0.029183 0.096466 0.000000
O O7 0.108762 0.108762 0.750000
O O8 0.122483 0.131878 0.648698
O O9 0.997914 0.100024 0.684249
O O10 0.733402 0.327702 0.095167
O O11 0.791623 0.291623 0.347561
O O12 0.855947 0.355947 0.267955
O O13 0.924725 0.575276 0.500000
O O14 0.000000 0.500000 0.569623
O O15 0.803763 0.696238 0.682912
#
# Coordination Sequence:
#
# PCOD8320329 Si02
#       8
#    32  16  32  32  16  16  16  16
#     4  10  23  39  62  97 124 168 221 258 322 386
#     4  11  26  45  74 100 121 165 222 279 333 382
#     4   9  19  37  63  93 122 160 213 269 319 376
#     4  11  24  44  64  92 135 170 214 262 334 402
#     4  12  22  38  66  96 132 166 213 275 315 378
#     4  10  20  41  65  84 120 162 217 273 308 357
#     4  10  26  42  59  90 138 174 210 258 325 402
#     4   9  21  44  59  89 131 180 214 254 322 392
#
# _framework density 20.101348999999999
#
# number of rings (size 3 to 8) (size 9 to 14) (size 15 to 20)
#    0.000    1.818    0.909    3.000    6.364    4.727 
#    6.545    0.909    2.000    0.000    0.000    0.000 
#    0.000    0.000    0.000    0.000    0.000    0.000 
#
# Total GULP energy -1091276.053548 kJ/mol
# GULP energy per Si atom -12400.864245 kJ/mol
# Density = 2.005560 g / cm^3
# Si number density = 20.101349 Si / 1000 Ang^3
#
#
#
# Elastic Constant Matrix: (Units=GPa)
#
#
# Indices 1 2 3 4 5 6 
#
# 1 122.4124 57.0479 61.2691 0.0000 0.0000 0.0000
# 2 57.0479 122.4123 61.2691 0.0000 0.0000 0.0000
# 3 61.2691 61.2691 140.4174 0.0000 0.0000 0.0000
# 4 0.0000 0.0000 0.0000 33.2250 0.0000 0.0000
# 5 0.0000 0.0000 0.0000 0.0000 33.2251 0.0000
# 6 0.0000 0.0000 0.0000 0.0000 0.0000 -20.6964
#
#
#
# Elastic Compliance Matrix: (Units=1/GPa)
#
#
# Indices 1 2 3 4 5 6 
#
# 1 0.011618 -0.003681 -0.003463 0.000000 0.000000 0.000000
# 2 -0.003681 0.011618 -0.003463 0.000000 0.000000 0.000000
# 3 -0.003463 -0.003463 0.010144 0.000000 0.000000 0.000000
# 4 0.000000 0.000000 0.000000 0.030098 0.000000 0.000000
# 5 0.000000 0.000000 0.000000 0.000000 0.030098 0.000000
# 6 0.000000 0.000000 0.000000 0.000000 0.000000 -0.048318
#
#
# Mechanical properties :
#
#
# Convention : Reuss Voigt Hill
#
# Bulk Modulus (GPa) = 82.20263 82.71271 82.45767
# Shear Modulus (GPa) = 70.89449 22.86113 46.87781
#
# Velocity S-wave (km/s) = 5.94517 3.37604 4.83439
# Velocity P-wave (km/s) = 9.38667 7.51226 8.50128
#
# Compressibility (1/GPa) = 0.01216506
#
# Stress axis : x y z
#
# Youngs Moduli (GPa) = 86.07403 86.07392 98.58196
#
# Poissons Ratio (x) = 0.31683 0.34141
# Poissons Ratio (y) = 0.31683 0.34141
# Poissons Ratio (z) = 0.29809 0.29809
#
# Static dielectric constant tensor:
#      x y z
#    x 3.800530 0.000000 0.000000 
#    y 0.000000 3.800530 0.000000 
#    z 0.000000 0.000000 3.419770 
# 
# 
# High freq. dielectric constant tensor:
#      x y z
#    x 1.793790 0.000000 0.000000 
#    y 0.000000 1.793790 0.000000 
#    z 0.000000 0.000000 1.778920 
# 
# From -- ./inp_files/10800.got.cif
#   From: 2010.06.25/outbox.cif.g09.slc.cpg/sg140_6_cif.got.tgz:10800.got - 2010.06.28 10:53:23.
