data_PCOD8320361
_publ_section_title
;
Structure prediction by ZEFSAII (Michael W. Deem and Ramdas Pophale) SiO2 
 PCOD8320361
Probable space group: I 4/M C M
;
_chemical_formula_sum "Si O2"
_cell_formula_units_Z 160
_cell_length_a 21.036840
_cell_length_b 21.036840
_cell_length_c 18.624432
_cell_angle_alpha 90.000000
_cell_angle_beta 90.000000
_cell_angle_gamma 90.000000
_cell_volume 8242.217000
_symmetry_space_group_name_H-M "I 4/M C M"
_symmetry_group_IT_number 140
_symmetry_cell_setting 'tetragonal'
loop_
_space_group_symop_operation_xyz
x,y,z
-y,x,z
-x,-y,z
y,-x,z
x,-y,1/2-z
-x,y,1/2-z
y,x,1/2-z
-y,-x,1/2-z
-x,-y,-z
y,-x,-z
x,y,-z
-y,x,-z
-x,y,1/2+z
x,-y,1/2+z
-y,-x,1/2+z
y,x,1/2+z
1/2+x,1/2+y,1/2+z
1/2-y,1/2+x,1/2+z
1/2-x,1/2-y,1/2+z
1/2+y,1/2-x,1/2+z
1/2+x,1/2-y,-z
1/2-x,1/2+y,-z
1/2+y,1/2+x,-z
1/2-y,1/2-x,-z
1/2-x,1/2-y,1/2-z
1/2+y,1/2-x,1/2-z
1/2+x,1/2+y,1/2-z
1/2-y,1/2+x,1/2-z
1/2-x,1/2+y,z
1/2+x,1/2-y,z
1/2-y,1/2-x,z
1/2+y,1/2+x,z
loop_
_atom_site_type_symbol
_atom_site_label
_atom_site_fract_x
_atom_site_fract_y
_atom_site_fract_z
Si Si1 0.176487 0.876126 0.174952
Si Si2 0.679136 0.079704 0.180423
Si Si3 0.650644 0.255113 0.582301
Si Si4 0.095423 0.042064 0.580212
Si Si5 0.339980 0.940456 0.346207
O O1 0.146740 0.853261 0.250000
O O2 0.249631 0.894494 0.180610
O O3 0.166312 0.822089 0.116561
O O4 0.142760 0.938816 0.143986
O O5 0.634233 0.134233 0.147124
O O6 0.660618 0.066865 0.261610
O O7 0.665032 0.015425 0.134568
O O8 0.632711 0.266064 0.500000
O O9 0.712541 0.212541 0.592503
O O10 0.590744 0.222440 0.619881
O O11 0.123300 0.054327 0.500000
O O12 0.031920 0.082709 0.590165
O O13 0.404528 0.904528 0.375236
#
# Coordination Sequence:
#
# PCOD8320361 Si02
#       5
#    32  32  32  32  32
#     4  12  23  34  58  86 122 155 192 243 297 350
#     4  10  21  36  57  88 122 153 194 247 299 349
#     4  10  21  38  59  83 113 152 195 236 291 362
#     4   9  21  41  59  79 112 153 197 244 293 348
#     4   9  19  37  60  86 117 154 197 244 294 350
#
# _framework density 19.412253
#
# number of rings (size 3 to 8) (size 9 to 14) (size 15 to 20)
#    0.000    2.000    2.000    1.800    2.800    2.000 
#    0.000    4.000    0.000    3.000    0.000    2.800 
#    0.000    0.000    0.000    0.000    0.000    0.000 
#
# Total GULP energy -991693.594656 kJ/mol
# GULP energy per Si atom -12396.169933 kJ/mol
# Density = 1.936807 g / cm^3
# Si number density = 19.412253 Si / 1000 Ang^3
#
#
#
# Elastic Constant Matrix: (Units=GPa)
#
#
# Indices 1 2 3 4 5 6 
#
# 1 89.1914 42.9028 8.7224 0.0000 0.0000 0.0000
# 2 42.9028 89.1903 8.7227 0.0000 0.0000 0.0000
# 3 8.7224 8.7227 18.3529 0.0000 0.0000 0.0000
# 4 0.0000 0.0000 0.0000 19.8347 0.0000 0.0000
# 5 0.0000 0.0000 0.0000 0.0000 19.8342 0.0000
# 6 0.0000 0.0000 0.0000 0.0000 0.0000 17.3511
#
#
#
# Elastic Compliance Matrix: (Units=1/GPa)
#
#
# Indices 1 2 3 4 5 6 
#
# 1 0.014841 -0.006763 -0.003839 0.000000 0.000000 0.000000
# 2 -0.006763 0.014841 -0.003839 0.000000 0.000000 0.000000
# 3 -0.003839 -0.003839 0.058136 0.000000 0.000000 0.000000
# 4 0.000000 0.000000 0.000000 0.050417 0.000000 0.000000
# 5 0.000000 0.000000 0.000000 0.000000 0.050418 0.000000
# 6 0.000000 0.000000 0.000000 0.000000 0.000000 0.057633
#
#
# Mechanical properties :
#
#
# Convention : Reuss Voigt Hill
#
# Bulk Modulus (GPa) = 16.96772 35.27004 26.11888
# Shear Modulus (GPa) = 16.95990 20.49643 18.72816
#
# Velocity S-wave (km/s) = 2.95900 3.25291 3.10943
# Velocity P-wave (km/s) = 4.52039 5.68480 5.13570
#
# Compressibility (1/GPa) = 0.05893543
#
# Stress axis : x y z
#
# Youngs Moduli (GPa) = 67.38317 67.38209 17.20094
#
# Poissons Ratio (x) = 0.45572 0.06603
# Poissons Ratio (y) = 0.45573 0.06604
# Poissons Ratio (z) = 0.25866 0.25869
#
# Static dielectric constant tensor:
#      x y z
#    x 3.792140 0.000000 0.000000 
#    y 0.000000 3.792140 0.000000 
#    z 0.000000 0.000000 3.468130 
# 
# 
# High freq. dielectric constant tensor:
#      x y z
#    x 1.761830 0.000000 0.000000 
#    y 0.000000 1.761830 0.000000 
#    z 0.000000 0.000000 1.738640 
# 
# From -- ./inp_files/6778.got.cif
#   From: 2010.06.25/outbox.cif.g09.slc.cpg/sg140_4_cif.got.tgz:6778.got - 2010.06.28 10:53:23.
