data_PCOD8320944
_publ_section_title
;
Structure prediction by ZEFSAII (Michael W. Deem and Ramdas Pophale) SiO2 
 PCOD8320944
Probable space group: I 41/A M D
;
_chemical_formula_sum "Si O2"
_cell_formula_units_Z 128
_cell_length_a 26.955201
_cell_length_b 26.955201
_cell_length_c 9.928298
_cell_angle_alpha 90.000000
_cell_angle_beta 90.000000
_cell_angle_gamma 90.000000
_cell_volume 7213.731165
_symmetry_space_group_name_H-M "I 41/A M D"
_symmetry_group_IT_number 141
_space_group.IT_coordinate_system_code '2'
_symmetry_cell_setting 'tetragonal'
loop_
_space_group_symop_operation_xyz
x,y,z
1/4-y,3/4+x,1/4+z
-x,1/2-y,z
1/4+y,1/4-x,3/4+z
x,-y,-z
-x,1/2+y,-z
1/4+y,3/4+x,1/4-z
1/4-y,1/4-x,3/4-z
-x,-y,-z
3/4+y,1/4-x,3/4-z
x,1/2+y,-z
3/4-y,3/4+x,1/4-z
-x,y,z
x,1/2-y,z
3/4-y,1/4-x,3/4+z
3/4+y,3/4+x,1/4+z
1/2+x,1/2+y,1/2+z
3/4-y,1/4+x,3/4+z
1/2-x,-y,1/2+z
3/4+y,3/4-x,1/4+z
1/2+x,1/2-y,1/2-z
1/2-x,y,1/2-z
3/4+y,1/4+x,3/4-z
3/4-y,3/4-x,1/4-z
1/2-x,1/2-y,1/2-z
1/4+y,3/4-x,1/4-z
1/2+x,y,1/2-z
1/4-y,1/4+x,3/4-z
1/2-x,1/2+y,1/2+z
1/2+x,-y,1/2+z
1/4-y,3/4-x,1/4+z
1/4+y,1/4+x,3/4+z
loop_
_atom_site_type_symbol
_atom_site_label
_atom_site_fract_x
_atom_site_fract_y
_atom_site_fract_z
Si Si1 0.222098 0.872011 0.884431
Si Si2 0.142054 0.194536 0.995586
Si Si3 0.637144 0.072482 0.262018
Si Si4 0.557837 0.621716 0.561006
O O1 0.250000 0.855142 0.750000
O O2 0.191344 0.825417 0.935099
O O3 0.183044 0.916753 0.862240
O O4 0.263485 0.888992 0.990843
O O5 0.135943 0.250000 0.042681
O O6 0.090786 0.171208 0.050155
O O7 0.152472 0.189365 0.836563
O O8 0.645720 0.104281 0.125000
O O9 0.583916 0.086477 0.327768
O O10 0.500000 0.632261 0.600968
#
# Coordination Sequence:
#
# PCOD8320944 Si02
#       4
#    32  32  32  32
#     4   9  18  33  54  71 101 133 169 210 251 302
#     4   9  18  32  52  78 103 129 166 209 252 303
#     4   9  18  34  54  71 101 134 169 213 253 302
#     4   9  18  33  53  75 102 133 165 208 257 300
#
# _framework density 17.743938
#
# number of rings (size 3 to 8) (size 9 to 14) (size 15 to 20)
#    0.000    3.000    0.000    0.000    0.000    3.000 
#    0.000   15.000   82.500    0.000    0.000    0.000 
#    0.000    0.000    0.000    0.000    0.000    0.000 
#
# Total GULP energy -793107.291502 kJ/mol
# GULP energy per Si atom -12392.301430 kJ/mol
# Density = 1.770355 g / cm^3
# Si number density = 17.743938 Si / 1000 Ang^3
#
#
#
# Elastic Constant Matrix: (Units=GPa)
#
#
# Indices 1 2 3 4 5 6 
#
# 1 142.9066 67.4382 54.2959 0.0000 0.0000 0.0000
# 2 67.4382 142.9075 54.2957 0.0000 0.0000 0.0000
# 3 54.2959 54.2957 52.6779 0.0000 0.0000 0.0000
# 4 0.0000 0.0000 0.0000 30.7885 0.0000 0.0000
# 5 0.0000 0.0000 0.0000 0.0000 30.7883 0.0000
# 6 0.0000 0.0000 0.0000 0.0000 0.0000 13.0355
#
#
#
# Elastic Compliance Matrix: (Units=1/GPa)
#
#
# Indices 1 2 3 4 5 6 
#
# 1 0.011706 -0.001545 -0.010473 0.000000 0.000000 0.000000
# 2 -0.001545 0.011706 -0.010473 0.000000 0.000000 0.000000
# 3 -0.010473 -0.010473 0.040572 0.000000 0.000000 0.000000
# 4 0.000000 0.000000 0.000000 0.032480 0.000000 0.000000
# 5 0.000000 0.000000 0.000000 0.000000 0.032480 0.000000
# 6 0.000000 0.000000 0.000000 0.000000 0.000000 0.076714
#
#
# Mechanical properties :
#
#
# Convention : Reuss Voigt Hill
#
# Bulk Modulus (GPa) = 52.62472 76.72793 64.67633
# Shear Modulus (GPa) = 19.45741 25.75326 22.60533
#
# Velocity S-wave (km/s) = 3.31504 3.81384 3.57315
# Velocity P-wave (km/s) = 6.66145 7.92019 7.31793
#
# Compressibility (1/GPa) = 0.01900248
#
# Stress axis : x y z
#
# Youngs Moduli (GPa) = 85.42856 85.42981 24.64745
#
# Poissons Ratio (x) = 0.13198 0.25813
# Poissons Ratio (y) = 0.13198 0.25812
# Poissons Ratio (z) = 0.89468 0.89468
#
# Static dielectric constant tensor:
#      x y z
#    x 3.339710 0.000000 0.000000 
#    y 0.000000 3.339710 0.000000 
#    z 0.000000 0.000000 3.374220 
# 
# 
# High freq. dielectric constant tensor:
#      x y z
#    x 1.682560 0.000000 0.000000 
#    y 0.000000 1.682560 0.000000 
#    z 0.000000 0.000000 1.683360 
# 
# From -- ./inp_files/4592.got.cif
#   From: 2010.03.12/outbox.cif.g09.slc.cpg/sg141_3_cif.got.tgz:4592.got - 2010.04.03 13:18:35.
