data_PCOD8320479
_publ_section_title
;
Structure prediction by ZEFSAII (Michael W. Deem and Ramdas Pophale) SiO2 
 PCOD8320479
Probable space group: I 4/M C M
;
_chemical_formula_sum "Si O2"
_cell_formula_units_Z 192
_cell_length_a 21.073301
_cell_length_b 21.073301
_cell_length_c 25.108486
_cell_angle_alpha 90.000000
_cell_angle_beta 90.000000
_cell_angle_gamma 90.000000
_cell_volume 11150.277274
_symmetry_space_group_name_H-M "I 4/M C M"
_symmetry_group_IT_number 140
_symmetry_cell_setting 'tetragonal'
loop_
_space_group_symop_operation_xyz
x,y,z
-y,x,z
-x,-y,z
y,-x,z
x,-y,1/2-z
-x,y,1/2-z
y,x,1/2-z
-y,-x,1/2-z
-x,-y,-z
y,-x,-z
x,y,-z
-y,x,-z
-x,y,1/2+z
x,-y,1/2+z
-y,-x,1/2+z
y,x,1/2+z
1/2+x,1/2+y,1/2+z
1/2-y,1/2+x,1/2+z
1/2-x,1/2-y,1/2+z
1/2+y,1/2-x,1/2+z
1/2+x,1/2-y,-z
1/2-x,1/2+y,-z
1/2+y,1/2+x,-z
1/2-y,1/2-x,-z
1/2-x,1/2-y,1/2-z
1/2+y,1/2-x,1/2-z
1/2+x,1/2+y,1/2-z
1/2-y,1/2+x,1/2-z
1/2-x,1/2+y,z
1/2+x,1/2-y,z
1/2-y,1/2-x,z
1/2+y,1/2+x,z
loop_
_atom_site_type_symbol
_atom_site_label
_atom_site_fract_x
_atom_site_fract_y
_atom_site_fract_z
Si Si1 0.121093 0.271848 0.000000
Si Si2 0.779495 0.614814 0.558625
Si Si3 0.969944 0.368439 0.113275
Si Si4 0.766196 0.840465 0.291927
Si Si5 0.290852 0.683677 0.407259
Si Si6 0.442448 0.838257 0.790390
Si Si7 0.025160 0.372171 0.000000
O O1 0.127917 0.229118 0.052751
O O2 0.175990 0.324011 0.000000
O O3 0.049958 0.299498 0.000000
O O4 0.777894 0.580937 0.500000
O O5 0.826659 0.673342 0.554778
O O6 0.802626 0.568461 0.605871
O O7 0.710561 0.641281 0.573745
O O8 0.924901 0.424901 0.137011
O O9 0.030406 0.353215 0.150313
O O10 0.987428 0.389724 0.053415
O O11 0.822195 0.822195 0.250000
O O12 0.714032 0.785969 0.290782
O O13 0.799799 0.845502 0.348941
O O14 0.729931 0.907752 0.283415
O O15 0.238412 0.738412 0.406097
O O16 0.500000 0.840300 0.750000
O O17 0.393436 0.893436 0.775485
O O18 0.088592 0.411409 0.000000
#
# Coordination Sequence:
#
# PCOD8320479 Si02
#       7
#    16  32  32  32  32  32  16
#     4   9  16  26  42  65  88 117 154 204 262 312
#     4   9  16  28  46  71  95 123 164 206 250 305
#     4  11  22  34  48  67  99 139 181 220 250 287
#     4   9  19  34  52  73  94 122 165 217 270 315
#     4   9  15  26  47  69  91 115 150 201 261 319
#     4  11  24  39  53  72 101 140 184 222 257 302
#     4  11  21  31  45  64  92 131 179 221 253 287
#
# _framework density 17.219303
#
# number of rings (size 3 to 8) (size 9 to 14) (size 15 to 20)
#    0.000    2.167    1.667    2.250    2.333    5.167 
#    0.000    0.000    0.000    0.000    0.000    0.000 
#    0.000    0.333    0.000    0.000    0.000    7.000 
#
# Total GULP energy -1189559.069508 kJ/mol
# GULP energy per Si atom -12391.240307 kJ/mol
# Density = 1.718011 g / cm^3
# Si number density = 17.219303 Si / 1000 Ang^3
#
#
#
# Elastic Constant Matrix: (Units=GPa)
#
#
# Indices 1 2 3 4 5 6 
#
# 1 50.2600 47.6040 28.1341 0.0000 0.0000 0.0000
# 2 47.6040 50.2595 28.1343 0.0000 0.0000 0.0000
# 3 28.1341 28.1343 109.7941 0.0000 0.0000 0.0000
# 4 0.0000 0.0000 0.0000 27.0954 0.0000 0.0000
# 5 0.0000 0.0000 0.0000 0.0000 27.0950 0.0000
# 6 0.0000 0.0000 0.0000 0.0000 0.0000 26.7064
#
#
#
# Elastic Compliance Matrix: (Units=1/GPa)
#
#
# Indices 1 2 3 4 5 6 
#
# 1 0.194257 -0.182274 -0.003070 0.000000 0.000000 0.000000
# 2 -0.182274 0.194260 -0.003072 0.000000 0.000000 0.000000
# 3 -0.003070 -0.003072 0.010682 0.000000 0.000000 0.000000
# 4 0.000000 0.000000 0.000000 0.036907 0.000000 0.000000
# 5 0.000000 0.000000 0.000000 0.000000 0.036907 0.000000
# 6 0.000000 0.000000 0.000000 0.000000 0.000000 0.037444
#
#
# Mechanical properties :
#
#
# Convention : Reuss Voigt Hill
#
# Bulk Modulus (GPa) = 44.71019 46.45093 45.58056
# Shear Modulus (GPa) = 5.58819 23.27544 14.43182
#
# Velocity S-wave (km/s) = 1.80343 3.68054 2.89817
# Velocity P-wave (km/s) = 5.50981 6.71539 6.14225
#
# Compressibility (1/GPa) = 0.02236627
#
# Stress axis : x y z
#
# Youngs Moduli (GPa) = 5.14782 5.14775 93.61788
#
# Poissons Ratio (x) = 0.93830 0.28741
# Poissons Ratio (y) = 0.93832 0.28755
# Poissons Ratio (z) = 0.01580 0.01581
#
# Static dielectric constant tensor:
#      x y z
#    x 3.139380 0.000000 0.000000 
#    y 0.000000 3.139390 0.000000 
#    z 0.000000 0.000000 3.394710 
# 
# 
# High freq. dielectric constant tensor:
#      x y z
#    x 1.631030 0.000000 0.000000 
#    y 0.000000 1.631030 0.000000 
#    z 0.000000 0.000000 1.677610 
# 
# From -- ./inp_files/9842.got.cif
#   From: 2010.06.25/outbox.cif.g09.slc.cpg/sg140_5_cif.got.tgz:9842.got - 2010.06.28 10:53:23.
