data_PCOD8320237
_publ_section_title
;
Structure prediction by ZEFSAII (Michael W. Deem and Ramdas Pophale) SiO2 
 PCOD8320237
Probable space group: I 4/M C M
;
_chemical_formula_sum "Si O2"
_cell_formula_units_Z 160
_cell_length_a 23.173615
_cell_length_b 23.173615
_cell_length_c 17.345886
_cell_angle_alpha 90.000000
_cell_angle_beta 90.000000
_cell_angle_gamma 90.000000
_cell_volume 9315.025813
_symmetry_space_group_name_H-M "I 4/M C M"
_symmetry_group_IT_number 140
_symmetry_cell_setting 'tetragonal'
loop_
_space_group_symop_operation_xyz
x,y,z
-y,x,z
-x,-y,z
y,-x,z
x,-y,1/2-z
-x,y,1/2-z
y,x,1/2-z
-y,-x,1/2-z
-x,-y,-z
y,-x,-z
x,y,-z
-y,x,-z
-x,y,1/2+z
x,-y,1/2+z
-y,-x,1/2+z
y,x,1/2+z
1/2+x,1/2+y,1/2+z
1/2-y,1/2+x,1/2+z
1/2-x,1/2-y,1/2+z
1/2+y,1/2-x,1/2+z
1/2+x,1/2-y,-z
1/2-x,1/2+y,-z
1/2+y,1/2+x,-z
1/2-y,1/2-x,-z
1/2-x,1/2-y,1/2-z
1/2+y,1/2-x,1/2-z
1/2+x,1/2+y,1/2-z
1/2-y,1/2+x,1/2-z
1/2-x,1/2+y,z
1/2+x,1/2-y,z
1/2-y,1/2-x,z
1/2+y,1/2+x,z
loop_
_atom_site_type_symbol
_atom_site_label
_atom_site_fract_x
_atom_site_fract_y
_atom_site_fract_z
Si Si1 0.504066 0.298623 0.337490
Si Si2 0.710693 0.789308 0.848995
Si Si3 0.015900 0.092637 0.915158
Si Si4 0.805373 0.694628 0.180373
Si Si5 0.870531 0.196765 0.088315
Si Si6 0.389997 0.268600 0.589933
O O1 0.500000 0.277098 0.250000
O O2 0.478919 0.363287 0.345149
O O3 0.570244 0.298474 0.364079
O O4 0.458248 0.263961 0.390328
O O5 0.757241 0.742760 0.825439
O O6 0.682990 0.817011 0.771327
O O7 0.742460 0.837969 0.899369
O O8 0.065536 0.046746 0.907760
O O9 0.021190 0.122953 0.000000
O O10 0.783474 0.637051 0.138762
O O11 0.829928 0.141791 0.112278
O O12 0.888291 0.190276 0.000000
O O13 0.379586 0.256687 0.500000
#
# Coordination Sequence:
#
# PCOD8320237 Si02
#       6
#    32  16  32  16  32  32
#     4  12  23  31  43  66  94 121 153 196 241 278
#     4   9  17  31  51  73  95 118 149 192 239 283
#     4   9  18  32  46  58  78 114 157 195 231 274
#     4   9  17  31  51  73  95 118 149 192 239 283
#     4  10  20  34  51  69  92 125 162 196 234 284
#     4  10  20  34  51  69  92 125 162 196 234 284
#
# _framework density 17.176549000000001
#
# number of rings (size 3 to 8) (size 9 to 14) (size 15 to 20)
#    0.000    2.000    0.000    5.400    0.000   10.400 
#    0.000    1.000    0.000    0.000    0.000    0.000 
#    0.000    0.800    0.000    8.000    0.000    4.800 
#
# Total GULP energy -991189.716700 kJ/mol
# GULP energy per Si atom -12389.871459 kJ/mol
# Density = 1.713745 g / cm^3
# Si number density = 17.176549 Si / 1000 Ang^3
#
#
#
# Elastic Constant Matrix: (Units=GPa)
#
#
# Indices 1 2 3 4 5 6 
#
# 1 45.6730 13.1862 11.3458 0.0000 0.0000 0.0000
# 2 13.1862 45.6730 11.3458 0.0000 0.0000 0.0000
# 3 11.3458 11.3458 60.1107 0.0000 0.0000 0.0000
# 4 0.0000 0.0000 0.0000 24.4313 0.0000 0.0000
# 5 0.0000 0.0000 0.0000 0.0000 24.4313 0.0000
# 6 0.0000 0.0000 0.0000 0.0000 0.0000 10.2405
#
#
#
# Elastic Compliance Matrix: (Units=1/GPa)
#
#
# Indices 1 2 3 4 5 6 
#
# 1 0.024552 -0.006229 -0.003458 0.000000 0.000000 0.000000
# 2 -0.006229 0.024552 -0.003458 0.000000 0.000000 0.000000
# 3 -0.003458 -0.003458 0.017942 0.000000 0.000000 0.000000
# 4 0.000000 0.000000 0.000000 0.040931 0.000000 0.000000
# 5 0.000000 0.000000 0.000000 0.000000 0.040931 0.000000
# 6 0.000000 0.000000 0.000000 0.000000 0.000000 0.097651
#
#
# Mechanical properties :
#
#
# Convention : Reuss Voigt Hill
#
# Bulk Modulus (GPa) = 24.53761 24.80138 24.66949
# Shear Modulus (GPa) = 17.45587 19.52588 18.49088
#
# Velocity S-wave (km/s) = 3.19134 3.37527 3.28459
# Velocity P-wave (km/s) = 5.28168 5.44613 5.36453
#
# Compressibility (1/GPa) = 0.04075377
#
# Stress axis : x y z
#
# Youngs Moduli (GPa) = 40.72925 40.72925 55.73665
#
# Poissons Ratio (x) = 0.25372 0.19276
# Poissons Ratio (y) = 0.25372 0.19276
# Poissons Ratio (z) = 0.14086 0.14086
#
# Static dielectric constant tensor:
#      x y z
#    x 3.177640 0.000000 0.000000 
#    y 0.000000 3.177640 0.000000 
#    z 0.000000 0.000000 3.344770 
# 
# 
# High freq. dielectric constant tensor:
#      x y z
#    x 1.637510 0.000000 0.000000 
#    y 0.000000 1.637510 0.000000 
#    z 0.000000 0.000000 1.669710 
# 
# From -- ./inp_files/4790.got.cif
#   From: 2010.06.25/outbox.cif.g09.slc.cpg/sg140_3_cif.got.tgz:4790.got - 2010.06.28 10:53:23.
