data_PCOD8320239
_publ_section_title
;
Structure prediction by ZEFSAII (Michael W. Deem and Ramdas Pophale) SiO2 
 PCOD8320239
Probable space group: I 4/M C M
;
_chemical_formula_sum "Si O2"
_cell_formula_units_Z 144
_cell_length_a 29.184151
_cell_length_b 29.184151
_cell_length_c 9.141778
_cell_angle_alpha 90.000000
_cell_angle_beta 90.000000
_cell_angle_gamma 90.000000
_cell_volume 7786.186429
_symmetry_space_group_name_H-M "I 4/M C M"
_symmetry_group_IT_number 140
_symmetry_cell_setting 'tetragonal'
loop_
_space_group_symop_operation_xyz
x,y,z
-y,x,z
-x,-y,z
y,-x,z
x,-y,1/2-z
-x,y,1/2-z
y,x,1/2-z
-y,-x,1/2-z
-x,-y,-z
y,-x,-z
x,y,-z
-y,x,-z
-x,y,1/2+z
x,-y,1/2+z
-y,-x,1/2+z
y,x,1/2+z
1/2+x,1/2+y,1/2+z
1/2-y,1/2+x,1/2+z
1/2-x,1/2-y,1/2+z
1/2+y,1/2-x,1/2+z
1/2+x,1/2-y,-z
1/2-x,1/2+y,-z
1/2+y,1/2+x,-z
1/2-y,1/2-x,-z
1/2-x,1/2-y,1/2-z
1/2+y,1/2-x,1/2-z
1/2+x,1/2+y,1/2-z
1/2-y,1/2+x,1/2-z
1/2-x,1/2+y,z
1/2+x,1/2-y,z
1/2-y,1/2-x,z
1/2+y,1/2+x,z
loop_
_atom_site_type_symbol
_atom_site_label
_atom_site_fract_x
_atom_site_fract_y
_atom_site_fract_z
Si Si1 0.785516 0.714485 0.174466
Si Si2 0.454684 0.610212 0.171666
Si Si3 0.715595 0.456736 0.332155
Si Si4 0.888452 0.709401 0.171633
Si Si5 0.375796 0.950127 0.172458
O O1 0.750000 0.750000 0.250000
O O2 0.837750 0.720818 0.230223
O O3 0.779597 0.720404 0.000000
O O4 0.500000 0.590834 0.250000
O O5 0.411672 0.588329 0.250000
O O6 0.448106 0.663218 0.206919
O O7 0.456550 0.598991 0.000000
O O8 0.736172 0.500000 0.250000
O O9 0.722835 0.467587 0.500000
O O10 0.744322 0.413506 0.281302
O O11 0.916428 0.665053 0.232682
O O12 0.884614 0.701086 0.000000
O O13 0.424003 0.924003 0.203911
O O14 0.375187 0.000000 0.250000
O O15 0.369284 0.958911 0.000000
#
# Coordination Sequence:
#
# PCOD8320239 Si02
#       5
#    16  32  32  32  32
#     4  10  20  36  56  78 107 142 179 219 262 319
#     4  10  20  34  51  73 101 132 167 210 258 312
#     4   9  18  32  52  77 102 131 170 214 260 307
#     4   9  17  34  57  77 104 144 183 217 264 327
#     4  10  20  35  56  81 109 147 190 231 279 332
#
# _framework density 18.494289999999999
#
# number of rings (size 3 to 8) (size 9 to 14) (size 15 to 20)
#    0.000    2.444    1.111    1.333    0.000    2.667 
#    0.000    4.444    0.000    0.000    0.000    0.000 
#    0.000    0.000    0.000    0.000    0.000    0.000 
#
# Total GULP energy -892071.254764 kJ/mol
# GULP energy per Si atom -12389.878538 kJ/mol
# Density = 1.845220 g / cm^3
# Si number density = 18.494290 Si / 1000 Ang^3
#
#
#
# Elastic Constant Matrix: (Units=GPa)
#
#
# Indices 1 2 3 4 5 6 
#
# 1 125.9436 93.5978 47.7233 0.0000 0.0000 0.0000
# 2 93.5978 125.9284 47.7277 0.0000 0.0000 0.0000
# 3 47.7233 47.7277 47.5047 0.0000 0.0000 0.0000
# 4 0.0000 0.0000 0.0000 24.5804 0.0000 0.0000
# 5 0.0000 0.0000 0.0000 0.0000 24.5806 0.0000
# 6 0.0000 0.0000 0.0000 0.0000 0.0000 48.2435
#
#
#
# Elastic Compliance Matrix: (Units=1/GPa)
#
#
# Indices 1 2 3 4 5 6 
#
# 1 0.019503 -0.011418 -0.008121 0.000000 0.000000 0.000000
# 2 -0.011418 0.019509 -0.008130 0.000000 0.000000 0.000000
# 3 -0.008121 -0.008130 0.037377 0.000000 0.000000 0.000000
# 4 0.000000 0.000000 0.000000 0.040683 0.000000 0.000000
# 5 0.000000 0.000000 0.000000 0.000000 0.040683 0.000000
# 6 0.000000 0.000000 0.000000 0.000000 0.000000 0.020728
#
#
# Mechanical properties :
#
#
# Convention : Reuss Voigt Hill
#
# Bulk Modulus (GPa) = 47.50396 75.27493 61.38944
# Shear Modulus (GPa) = 20.76096 26.83610 23.79853
#
# Velocity S-wave (km/s) = 3.35410 3.81339 3.59110
# Velocity P-wave (km/s) = 6.38290 7.75754 7.10355
#
# Compressibility (1/GPa) = 0.02105088
#
# Stress axis : x y z
#
# Youngs Moduli (GPa) = 51.27522 51.25941 26.75419
#
# Poissons Ratio (x) = 0.58526 0.21728
# Poissons Ratio (y) = 0.58544 0.21751
# Poissons Ratio (z) = 0.41642 0.41674
#
# Static dielectric constant tensor:
#      x y z
#    x 3.721250 0.000000 0.000000 
#    y 0.000000 3.721320 0.000000 
#    z 0.000000 0.000000 3.187880 
# 
# 
# High freq. dielectric constant tensor:
#      x y z
#    x 1.727100 0.000000 0.000000 
#    y 0.000000 1.727100 0.000000 
#    z 0.000000 0.000000 1.689740 
# 
# From -- ./inp_files/3082.got.cif
#   From: 2010.06.25/outbox.cif.g09.slc.cpg/sg140_2_cif.got.tgz:3082.got - 2010.06.28 10:53:23.
