data_PCOD8320295
_publ_section_title
;
Structure prediction by ZEFSAII (Michael W. Deem and Ramdas Pophale) SiO2 
 PCOD8320295
Probable space group: I 4/M C M
;
_chemical_formula_sum "Si O2"
_cell_formula_units_Z 160
_cell_length_a 30.423456
_cell_length_b 30.423456
_cell_length_c 9.121691
_cell_angle_alpha 90.000000
_cell_angle_beta 90.000000
_cell_angle_gamma 90.000000
_cell_volume 8442.915643
_symmetry_space_group_name_H-M "I 4/M C M"
_symmetry_group_IT_number 140
_symmetry_cell_setting 'tetragonal'
loop_
_space_group_symop_operation_xyz
x,y,z
-y,x,z
-x,-y,z
y,-x,z
x,-y,1/2-z
-x,y,1/2-z
y,x,1/2-z
-y,-x,1/2-z
-x,-y,-z
y,-x,-z
x,y,-z
-y,x,-z
-x,y,1/2+z
x,-y,1/2+z
-y,-x,1/2+z
y,x,1/2+z
1/2+x,1/2+y,1/2+z
1/2-y,1/2+x,1/2+z
1/2-x,1/2-y,1/2+z
1/2+y,1/2-x,1/2+z
1/2+x,1/2-y,-z
1/2-x,1/2+y,-z
1/2+y,1/2+x,-z
1/2-y,1/2-x,-z
1/2-x,1/2-y,1/2-z
1/2+y,1/2-x,1/2-z
1/2+x,1/2+y,1/2-z
1/2-y,1/2+x,1/2-z
1/2-x,1/2+y,z
1/2+x,1/2-y,z
1/2-y,1/2-x,z
1/2+y,1/2+x,z
loop_
_atom_site_type_symbol
_atom_site_label
_atom_site_fract_x
_atom_site_fract_y
_atom_site_fract_z
Si Si1 0.547065 0.614080 0.674518
Si Si2 0.382386 0.882386 0.670744
Si Si3 0.258653 0.311305 0.156470
Si Si4 0.955251 0.455251 0.827533
Si Si5 0.292542 0.892326 0.826601
Si Si6 0.044534 0.213974 0.830213
O O1 0.500000 0.604940 0.750000
O O2 0.582878 0.582878 0.750000
O O3 0.543885 0.604575 0.500000
O O4 0.561913 0.664657 0.705012
O O5 0.374073 0.874073 0.500000
O O6 0.418807 0.918807 0.699681
O O7 0.337776 0.901300 0.742538
O O8 0.302870 0.302870 0.250000
O O9 0.235377 0.264624 0.131395
O O10 0.223870 0.344533 0.227000
O O11 0.274156 0.331249 0.000000
O O12 0.939093 0.500000 0.750000
O O13 0.963399 0.463399 0.000000
O O14 0.252496 0.923259 0.776895
O O15 0.302356 0.894429 0.000000
O O16 0.000000 0.223997 0.750000
O O17 0.034913 0.218507 0.000000
#
# Coordination Sequence:
#
# PCOD8320295 Si02
#       6
#    32  16  32  16  32  32
#     4  10  20  36  57  84 115 149 188 235 286 339
#     4  11  24  38  56  87 118 143 181 232 277 324
#     4   9  17  30  48  71  99 133 173 213 258 308
#     4  10  22  41  64  89 115 143 178 220 272 334
#     4  10  20  37  57  78 108 149 188 224 271 330
#     4   9  20  37  57  79 108 145 186 227 272 325
#
# _framework density 18.950797999999999
#
# number of rings (size 3 to 8) (size 9 to 14) (size 15 to 20)
#    0.000    2.300    1.000    1.500    0.000    5.800 
#    0.000    5.000    0.000    0.000    0.000    0.000 
#    0.000    0.000    0.000    0.000    0.000    0.000 
#
# Total GULP energy -991323.425408 kJ/mol
# GULP energy per Si atom -12391.542818 kJ/mol
# Density = 1.890766 g / cm^3
# Si number density = 18.950798 Si / 1000 Ang^3
#
#
#
# Elastic Constant Matrix: (Units=GPa)
#
#
# Indices 1 2 3 4 5 6 
#
# 1 105.0651 101.0706 67.8687 0.0000 0.0000 0.0000
# 2 101.0706 105.0651 67.8687 0.0000 0.0000 0.0000
# 3 67.8687 67.8687 100.2925 0.0000 0.0000 0.0000
# 4 0.0000 0.0000 0.0000 28.9698 0.0000 0.0000
# 5 0.0000 0.0000 0.0000 0.0000 28.9698 0.0000
# 6 0.0000 0.0000 0.0000 0.0000 0.0000 64.5016
#
#
#
# Elastic Compliance Matrix: (Units=1/GPa)
#
#
# Indices 1 2 3 4 5 6 
#
# 1 0.129546 -0.120796 -0.005921 0.000000 0.000000 0.000000
# 2 -0.120796 0.129546 -0.005921 0.000000 0.000000 0.000000
# 3 -0.005921 -0.005921 0.017985 0.000000 0.000000 0.000000
# 4 0.000000 0.000000 0.000000 0.034519 0.000000 0.000000
# 5 0.000000 0.000000 0.000000 0.000000 0.034519 0.000000
# 6 0.000000 0.000000 0.000000 0.000000 0.000000 0.015504
#
#
# Mechanical properties :
#
#
# Convention : Reuss Voigt Hill
#
# Bulk Modulus (GPa) = 84.74596 87.11541 85.93069
# Shear Modulus (GPa) = 7.92606 29.39586 18.66096
#
# Velocity S-wave (km/s) = 2.04732 3.94276 3.14141
# Velocity P-wave (km/s) = 7.09963 8.17289 7.65509
#
# Compressibility (1/GPa) = 0.01179997
#
# Stress axis : x y z
#
# Youngs Moduli (GPa) = 7.71924 7.71924 55.60198
#
# Poissons Ratio (x) = 0.93245 0.32924
# Poissons Ratio (y) = 0.93245 0.32924
# Poissons Ratio (z) = 0.04571 0.04571
#
# Static dielectric constant tensor:
#      x y z
#    x 3.436930 0.000000 0.000000 
#    y 0.000000 3.436930 0.000000 
#    z 0.000000 0.000000 3.693910 
# 
# 
# High freq. dielectric constant tensor:
#      x y z
#    x 1.734890 0.000000 0.000000 
#    y 0.000000 1.734890 0.000000 
#    z 0.000000 0.000000 1.738830 
# 
# From -- ./inp_files/1825.got.cif
#   From: 2010.06.25/outbox.cif.g09.slc.cpg/sg140_1_cif.got.tgz:1825.got - 2010.06.28 10:53:23.
