data_PCOD8320167
_publ_section_title
;
Structure prediction by ZEFSAII (Michael W. Deem and Ramdas Pophale) SiO2 
 PCOD8320167
Probable space group: I 4/M C M
;
_chemical_formula_sum "Si O2"
_cell_formula_units_Z 192
_cell_length_a 24.395544
_cell_length_b 24.395544
_cell_length_c 17.880362
_cell_angle_alpha 90.000000
_cell_angle_beta 90.000000
_cell_angle_gamma 90.000000
_cell_volume 10641.364541
_symmetry_space_group_name_H-M "I 4/M C M"
_symmetry_group_IT_number 140
_symmetry_cell_setting 'tetragonal'
loop_
_space_group_symop_operation_xyz
x,y,z
-y,x,z
-x,-y,z
y,-x,z
x,-y,1/2-z
-x,y,1/2-z
y,x,1/2-z
-y,-x,1/2-z
-x,-y,-z
y,-x,-z
x,y,-z
-y,x,-z
-x,y,1/2+z
x,-y,1/2+z
-y,-x,1/2+z
y,x,1/2+z
1/2+x,1/2+y,1/2+z
1/2-y,1/2+x,1/2+z
1/2-x,1/2-y,1/2+z
1/2+y,1/2-x,1/2+z
1/2+x,1/2-y,-z
1/2-x,1/2+y,-z
1/2+y,1/2+x,-z
1/2-y,1/2-x,-z
1/2-x,1/2-y,1/2-z
1/2+y,1/2-x,1/2-z
1/2+x,1/2+y,1/2-z
1/2-y,1/2+x,1/2-z
1/2-x,1/2+y,z
1/2+x,1/2-y,z
1/2-y,1/2-x,z
1/2+y,1/2+x,z
loop_
_atom_site_type_symbol
_atom_site_label
_atom_site_fract_x
_atom_site_fract_y
_atom_site_fract_z
Si Si1 0.191144 0.308857 0.911892
Si Si2 0.198439 0.870041 0.910532
Si Si3 0.603049 0.896952 0.589051
Si Si4 0.715577 0.485370 0.664190
Si Si5 0.908737 0.805605 0.411998
Si Si6 0.599275 0.184654 0.415703
Si Si7 0.998423 0.656960 0.836620
O O1 0.171386 0.248002 0.885649
O O2 0.147233 0.352768 0.881454
O O3 0.190881 0.309120 0.000000
O O4 0.197443 0.925411 0.862217
O O5 0.140603 0.844146 0.885574
O O6 0.202033 0.881948 0.000000
O O7 0.600744 0.899257 0.500000
O O8 0.618554 0.955919 0.620933
O O9 0.704384 0.500000 0.750000
O O10 0.679784 0.531041 0.619676
O O11 0.779793 0.486065 0.645403
O O12 0.911905 0.807524 0.500000
O O13 0.895124 0.744967 0.380963
O O14 0.576476 0.187936 0.500000
O O15 0.659749 0.159749 0.412897
O O16 0.558760 0.145611 0.368984
O O17 0.000000 0.642321 0.750000
#
# Coordination Sequence:
#
# PCOD8320167 Si02
#       7
#    16  32  16  32  32  32  32
#     4   9  18  30  52  83 112 138 170 221 276 316
#     4  10  19  33  56  84 114 142 178 226 271 318
#     4  11  20  34  57  81 102 136 183 234 275 319
#     4  10  20  35  53  76 110 148 183 216 261 324
#     4   9  19  33  54  82 108 139 178 220 268 322
#     4   9  18  33  52  73 102 139 176 215 265 329
#     4  10  21  34  52  75 102 139 182 226 271 320
#
# _framework density 18.042798999999999
#
# number of rings (size 3 to 8) (size 9 to 14) (size 15 to 20)
#    0.000    2.333    1.667    1.000    2.333    2.000 
#    0.000    0.417    0.000    3.000    0.000    3.500 
#    0.000    0.000    0.000    0.000    0.000    0.000 
#
# Total GULP energy -1189740.154690 kJ/mol
# GULP energy per Si atom -12393.126611 kJ/mol
# Density = 1.800173 g / cm^3
# Si number density = 18.042799 Si / 1000 Ang^3
#
#
#
# Elastic Constant Matrix: (Units=GPa)
#
#
# Indices 1 2 3 4 5 6 
#
# 1 105.4412 65.3285 36.8811 0.0000 0.0000 0.0000
# 2 65.3285 105.4409 36.8809 0.0000 0.0000 0.0000
# 3 36.8811 36.8809 54.3845 0.0000 0.0000 0.0000
# 4 0.0000 0.0000 0.0000 22.3456 0.0000 0.0000
# 5 0.0000 0.0000 0.0000 0.0000 22.3456 0.0000
# 6 0.0000 0.0000 0.0000 0.0000 0.0000 27.6099
#
#
#
# Elastic Compliance Matrix: (Units=1/GPa)
#
#
# Indices 1 2 3 4 5 6 
#
# 1 0.016606 -0.008324 -0.005616 0.000000 0.000000 0.000000
# 2 -0.008324 0.016606 -0.005616 0.000000 0.000000 0.000000
# 3 -0.005616 -0.005616 0.026005 0.000000 0.000000 0.000000
# 4 0.000000 0.000000 0.000000 0.044752 0.000000 0.000000
# 5 0.000000 0.000000 0.000000 0.000000 0.044752 0.000000
# 6 0.000000 0.000000 0.000000 0.000000 0.000000 0.036219
#
#
# Mechanical properties :
#
#
# Convention : Reuss Voigt Hill
#
# Bulk Modulus (GPa) = 49.74298 60.38305 55.06301
# Shear Modulus (GPa) = 21.66821 22.87196 22.27008
#
# Velocity S-wave (km/s) = 3.46921 3.56427 3.51706
# Velocity P-wave (km/s) = 6.60882 7.10478 6.86128
#
# Compressibility (1/GPa) = 0.02010334
#
# Stress axis : x y z
#
# Youngs Moduli (GPa) = 60.22001 60.22000 38.45418
#
# Poissons Ratio (x) = 0.50127 0.21597
# Poissons Ratio (y) = 0.50127 0.21597
# Poissons Ratio (z) = 0.33821 0.33821
#
# Static dielectric constant tensor:
#      x y z
#    x 3.396230 0.000000 0.000000 
#    y 0.000000 3.396230 0.000000 
#    z 0.000000 0.000000 3.206160 
# 
# 
# High freq. dielectric constant tensor:
#      x y z
#    x 1.689940 0.000000 0.000000 
#    y 0.000000 1.689940 0.000000 
#    z 0.000000 0.000000 1.689170 
# 
# From -- ./inp_files/8658.got.cif
#   From: 2010.06.25/outbox.cif.g09.slc.cpg/sg140_5_cif.got.tgz:8658.got - 2010.06.28 10:53:23.
