data_PCOD8320409
_publ_section_title
;
Structure prediction by ZEFSAII (Michael W. Deem and Ramdas Pophale) SiO2 
 PCOD8320409
Probable space group: I 4/M C M
;
_chemical_formula_sum "Si O2"
_cell_formula_units_Z 192
_cell_length_a 17.610326
_cell_length_b 17.610326
_cell_length_c 31.447753
_cell_angle_alpha 90.000000
_cell_angle_beta 90.000000
_cell_angle_gamma 90.000000
_cell_volume 9752.689801
_symmetry_space_group_name_H-M "I 4/M C M"
_symmetry_group_IT_number 140
_symmetry_cell_setting 'tetragonal'
loop_
_space_group_symop_operation_xyz
x,y,z
-y,x,z
-x,-y,z
y,-x,z
x,-y,1/2-z
-x,y,1/2-z
y,x,1/2-z
-y,-x,1/2-z
-x,-y,-z
y,-x,-z
x,y,-z
-y,x,-z
-x,y,1/2+z
x,-y,1/2+z
-y,-x,1/2+z
y,x,1/2+z
1/2+x,1/2+y,1/2+z
1/2-y,1/2+x,1/2+z
1/2-x,1/2-y,1/2+z
1/2+y,1/2-x,1/2+z
1/2+x,1/2-y,-z
1/2-x,1/2+y,-z
1/2+y,1/2+x,-z
1/2-y,1/2-x,-z
1/2-x,1/2-y,1/2-z
1/2+y,1/2-x,1/2-z
1/2+x,1/2+y,1/2-z
1/2-y,1/2+x,1/2-z
1/2-x,1/2+y,z
1/2+x,1/2-y,z
1/2-y,1/2-x,z
1/2+y,1/2+x,z
loop_
_atom_site_type_symbol
_atom_site_label
_atom_site_fract_x
_atom_site_fract_y
_atom_site_fract_z
Si Si1 0.476190 0.379299 0.640189
Si Si2 0.641485 0.858516 0.948417
Si Si3 0.190499 0.075512 0.274450
Si Si4 0.472233 0.143706 0.452166
Si Si5 0.600225 0.706241 0.573169
Si Si6 0.281851 0.781851 0.793338
Si Si7 0.256794 0.243207 0.886695
Si Si8 0.096680 0.919026 0.000000
O O1 0.558795 0.411592 0.631549
O O2 0.466074 0.351720 0.687553
O O3 0.467065 0.312805 0.605883
O O4 0.555390 0.842071 0.933542
O O5 0.689823 0.810178 0.915041
O O6 0.657360 0.842641 0.000000
O O7 0.129098 0.129098 0.250000
O O8 0.261441 0.127539 0.291465
O O9 0.221154 0.000000 0.250000
O O10 0.484958 0.116956 0.500000
O O11 0.423862 0.076139 0.428850
O O12 0.423085 0.219922 0.452784
O O13 0.672310 0.722124 0.601640
O O14 0.616310 0.636778 0.541187
O O15 0.250000 0.750000 0.750000
O O16 0.241183 0.741183 0.834516
O O17 0.009804 0.893557 0.000000
#
# Coordination Sequence:
#
# PCOD8320409 Si02
#       8
#    32  16  32  32  32  16  16  16
#     4  11  23  37  59  92 129 163 206 257 314 376
#     4  10  25  40  66  94 129 162 222 271 315 378
#     4  11  21  38  67  94 123 161 202 256 318 386
#     4  10  21  41  63  88 119 172 216 269 322 365
#     4  12  24  38  62  87 129 171 214 260 315 382
#     4  10  24  46  63  90 133 167 206 259 327 390
#     4  12  26  39  62  99 126 167 212 267 321 391
#     4  11  26  43  60  84 129 186 223 256 314 394
#
# _framework density 19.686875000000001
#
# number of rings (size 3 to 8) (size 9 to 14) (size 15 to 20)
#    0.000    1.083    5.000    1.250    5.833    2.500 
#    0.000    0.000    0.000    0.250    0.000    0.000 
#    0.000    0.000    0.000    0.000    0.000    0.000 
#
# Total GULP energy -1189362.292032 kJ/mol
# GULP energy per Si atom -12389.190542 kJ/mol
# Density = 1.964207 g / cm^3
# Si number density = 19.686875 Si / 1000 Ang^3
#
#
#
# Elastic Constant Matrix: (Units=GPa)
#
#
# Indices 1 2 3 4 5 6 
#
# 1 86.6040 34.7096 27.8188 0.0000 0.0000 0.0000
# 2 34.7096 86.6041 27.8188 0.0000 0.0000 0.0000
# 3 27.8188 27.8188 104.0387 0.0000 0.0000 0.0000
# 4 0.0000 0.0000 0.0000 27.1337 0.0000 0.0000
# 5 0.0000 0.0000 0.0000 0.0000 27.1337 0.0000
# 6 0.0000 0.0000 0.0000 0.0000 0.0000 64.1652
#
#
#
# Elastic Compliance Matrix: (Units=1/GPa)
#
#
# Indices 1 2 3 4 5 6 
#
# 1 0.014333 -0.004937 -0.002512 0.000000 0.000000 0.000000
# 2 -0.004937 0.014333 -0.002512 0.000000 0.000000 0.000000
# 3 -0.002512 -0.002512 0.010955 0.000000 0.000000 0.000000
# 4 0.000000 0.000000 0.000000 0.036855 0.000000 0.000000
# 5 0.000000 0.000000 0.000000 0.000000 0.036855 0.000000
# 6 0.000000 0.000000 0.000000 0.000000 0.000000 0.015585
#
#
# Mechanical properties :
#
#
# Convention : Reuss Voigt Hill
#
# Bulk Modulus (GPa) = 50.76908 50.88234 50.82571
# Shear Modulus (GPa) = 32.17435 36.14649 34.16042
#
# Velocity S-wave (km/s) = 4.04704 4.28959 4.17008
# Velocity P-wave (km/s) = 6.90524 7.10183 7.00422
#
# Compressibility (1/GPa) = 0.01969703
#
# Stress axis : x y z
#
# Youngs Moduli (GPa) = 69.77113 69.77123 91.28025
#
# Poissons Ratio (x) = 0.34448 0.22931
# Poissons Ratio (y) = 0.34448 0.22931
# Poissons Ratio (z) = 0.17528 0.17528
#
# Static dielectric constant tensor:
#      x y z
#    x 3.814130 0.000000 0.000000 
#    y 0.000000 3.814130 0.000000 
#    z 0.000000 0.000000 3.622330 
# 
# 
# High freq. dielectric constant tensor:
#      x y z
#    x 1.766780 0.000000 0.000000 
#    y 0.000000 1.766780 0.000000 
#    z 0.000000 0.000000 1.763260 
# 
# From -- ./inp_files/11669.got.cif
#   From: 2010.06.25/outbox.cif.g09.slc.cpg/sg140_6_cif.got.tgz:11669.got - 2010.06.28 10:53:23.
