data_PCOD8320089
_publ_section_title
;
Structure prediction by ZEFSAII (Michael W. Deem and Ramdas Pophale) SiO2 
 PCOD8320089
Probable space group: I 4/M C M
;
_chemical_formula_sum "Si O2"
_cell_formula_units_Z 128
_cell_length_a 20.730466
_cell_length_b 20.730466
_cell_length_c 14.364999
_cell_angle_alpha 90.000000
_cell_angle_beta 90.000000
_cell_angle_gamma 90.000000
_cell_volume 6173.390219
_symmetry_space_group_name_H-M "I 4/M C M"
_symmetry_group_IT_number 140
_symmetry_cell_setting 'tetragonal'
loop_
_space_group_symop_operation_xyz
x,y,z
-y,x,z
-x,-y,z
y,-x,z
x,-y,1/2-z
-x,y,1/2-z
y,x,1/2-z
-y,-x,1/2-z
-x,-y,-z
y,-x,-z
x,y,-z
-y,x,-z
-x,y,1/2+z
x,-y,1/2+z
-y,-x,1/2+z
y,x,1/2+z
1/2+x,1/2+y,1/2+z
1/2-y,1/2+x,1/2+z
1/2-x,1/2-y,1/2+z
1/2+y,1/2-x,1/2+z
1/2+x,1/2-y,-z
1/2-x,1/2+y,-z
1/2+y,1/2+x,-z
1/2-y,1/2-x,-z
1/2-x,1/2-y,1/2-z
1/2+y,1/2-x,1/2-z
1/2+x,1/2+y,1/2-z
1/2-y,1/2+x,1/2-z
1/2-x,1/2+y,z
1/2+x,1/2-y,z
1/2-y,1/2-x,z
1/2+y,1/2+x,z
loop_
_atom_site_type_symbol
_atom_site_label
_atom_site_fract_x
_atom_site_fract_y
_atom_site_fract_z
Si Si1 0.811132 0.952316 0.000000
Si Si2 0.126563 0.474235 0.104467
Si Si3 0.229422 0.445136 0.316113
Si Si4 0.230992 0.630720 0.644109
Si Si5 0.334223 0.600937 0.500000
O O1 0.767394 0.937308 0.088934
O O2 0.873150 0.906672 0.000000
O O3 0.838042 0.024119 0.000000
O O4 0.062351 0.437650 0.145218
O O5 0.153342 0.535076 0.164503
O O6 0.186012 0.424418 0.099629
O O7 0.111182 0.497669 0.000000
O O8 0.261521 0.500000 0.250000
O O9 0.234238 0.379391 0.256362
O O10 0.200984 0.700984 0.625217
O O11 0.299525 0.627076 0.593226
#
# Coordination Sequence:
#
# PCOD8320089 Si02
#       5
#    16  32  32  32  16
#     4  12  24  41  60  88 120 168 202 268 321 371
#     4   9  14  26  57  89 116 154 200 245 293 366
#     4  10  18  36  60  88 128 161 206 246 314 383
#     4  10  19  36  63  93 121 160 203 254 310 379
#     4  12  23  41  64  88 124 158 212 263 320 387
#
# _framework density 20.73415
#
# number of rings (size 3 to 8) (size 9 to 14) (size 15 to 20)
#    0.000    1.750    7.500    0.375    0.000    1.250 
#    0.000    4.375    0.000    0.750    0.000    7.875 
#    0.000    2.000    0.000    0.000    0.000    0.000 
#
# Total GULP energy -792989.283481 kJ/mol
# GULP energy per Si atom -12390.457554 kJ/mol
# Density = 2.068696 g / cm^3
# Si number density = 20.734150 Si / 1000 Ang^3
#
#
#
# Elastic Constant Matrix: (Units=GPa)
#
#
# Indices 1 2 3 4 5 6 
#
# 1 78.2103 69.8430 45.0719 0.0000 0.0000 0.0000
# 2 69.8430 78.2103 45.0719 0.0000 0.0000 0.0000
# 3 45.0719 45.0719 146.3717 0.0000 0.0000 0.0000
# 4 0.0000 0.0000 0.0000 4.3253 0.0000 0.0000
# 5 0.0000 0.0000 0.0000 0.0000 4.3253 0.0000
# 6 0.0000 0.0000 0.0000 0.0000 0.0000 25.4327
#
#
#
# Elastic Compliance Matrix: (Units=1/GPa)
#
#
# Indices 1 2 3 4 5 6 
#
# 1 0.063913 -0.055601 -0.002560 0.000000 0.000000 0.000000
# 2 -0.055601 0.063913 -0.002560 0.000000 0.000000 0.000000
# 3 -0.002560 -0.002560 0.008408 0.000000 0.000000 0.000000
# 4 0.000000 0.000000 0.000000 0.231197 0.000000 0.000000
# 5 0.000000 0.000000 0.000000 0.000000 0.231197 0.000000
# 6 0.000000 0.000000 0.000000 0.000000 0.000000 0.039319
#
#
# Mechanical properties :
#
#
# Convention : Reuss Voigt Hill
#
# Bulk Modulus (GPa) = 67.59018 69.19620 68.39319
# Shear Modulus (GPa) = 6.54177 16.33704 11.43940
#
# Velocity S-wave (km/s) = 1.77818 2.81005 2.35142
# Velocity P-wave (km/s) = 6.07331 6.63129 6.35843
#
# Compressibility (1/GPa) = 0.01479505
#
# Stress axis : x y z
#
# Youngs Moduli (GPa) = 15.64617 15.64617 118.92923
#
# Poissons Ratio (x) = 0.86994 0.30443
# Poissons Ratio (y) = 0.86994 0.30443
# Poissons Ratio (z) = 0.04005 0.04005
#
# Static dielectric constant tensor:
#      x y z
#    x 3.529420 0.000000 0.000000 
#    y 0.000000 3.529420 0.000000 
#    z 0.000000 0.000000 3.993480 
# 
# 
# High freq. dielectric constant tensor:
#      x y z
#    x 1.776580 0.000000 0.000000 
#    y 0.000000 1.776580 0.000000 
#    z 0.000000 0.000000 1.828930 
# 
# From -- ./inp_files/4414.got.cif
#   From: 2010.06.25/outbox.cif.g09.slc.cpg/sg140_3_cif.got.tgz:4414.got - 2010.06.28 10:53:23.
