data_PCOD8320349
_publ_section_title
;
Structure prediction by ZEFSAII (Michael W. Deem and Ramdas Pophale) SiO2 
 PCOD8320349
Probable space group: I 4/M C M
;
_chemical_formula_sum "Si O2"
_cell_formula_units_Z 192
_cell_length_a 20.784677
_cell_length_b 20.784677
_cell_length_c 22.843846
_cell_angle_alpha 90.000000
_cell_angle_beta 90.000000
_cell_angle_gamma 90.000000
_cell_volume 9868.605389
_symmetry_space_group_name_H-M "I 4/M C M"
_symmetry_group_IT_number 140
_symmetry_cell_setting 'tetragonal'
loop_
_space_group_symop_operation_xyz
x,y,z
-y,x,z
-x,-y,z
y,-x,z
x,-y,1/2-z
-x,y,1/2-z
y,x,1/2-z
-y,-x,1/2-z
-x,-y,-z
y,-x,-z
x,y,-z
-y,x,-z
-x,y,1/2+z
x,-y,1/2+z
-y,-x,1/2+z
y,x,1/2+z
1/2+x,1/2+y,1/2+z
1/2-y,1/2+x,1/2+z
1/2-x,1/2-y,1/2+z
1/2+y,1/2-x,1/2+z
1/2+x,1/2-y,-z
1/2-x,1/2+y,-z
1/2+y,1/2+x,-z
1/2-y,1/2-x,-z
1/2-x,1/2-y,1/2-z
1/2+y,1/2-x,1/2-z
1/2+x,1/2+y,1/2-z
1/2-y,1/2+x,1/2-z
1/2-x,1/2+y,z
1/2+x,1/2-y,z
1/2-y,1/2-x,z
1/2+y,1/2+x,z
loop_
_atom_site_type_symbol
_atom_site_label
_atom_site_fract_x
_atom_site_fract_y
_atom_site_fract_z
Si Si1 0.703663 0.584091 0.376003
Si Si2 0.078249 0.068513 0.183338
Si Si3 0.146352 0.542163 0.666596
Si Si4 0.314259 0.286659 0.568573
Si Si5 0.185569 0.414670 0.713049
Si Si6 0.955502 0.252757 0.431026
O O1 0.630487 0.600761 0.358171
O O2 0.721334 0.646993 0.413287
O O3 0.744883 0.579788 0.316481
O O4 0.711064 0.518232 0.412817
O O5 0.089335 0.089335 0.250000
O O6 0.006500 0.089161 0.169020
O O7 0.077404 0.577404 0.663682
O O8 0.137368 0.467866 0.684916
O O9 0.191693 0.574692 0.716925
O O10 0.179776 0.545604 0.603355
O O11 0.309426 0.282639 0.500000
O O12 0.273761 0.226240 0.595509
O O13 0.389626 0.283861 0.586546
O O14 0.154894 0.345107 0.699994
O O15 0.958944 0.267649 0.500000
#
# Coordination Sequence:
#
# PCOD8320349 Si02
#       6
#    32  32  32  32  32  32
#     4  11  20  33  55  78 104 136 173 215 262 312
#     4   9  19  34  51  74 104 136 169 204 248 306
#     4   9  18  33  53  75 101 135 174 215 262 317
#     4  10  21  36  53  74 102 137 176 216 260 312
#     4   9  19  33  50  77 107 133 166 211 263 318
#     4  10  21  36  54  77 105 139 180 223 264 308
#
# _framework density 19.455635999999998
#
# number of rings (size 3 to 8) (size 9 to 14) (size 15 to 20)
#    0.000    2.333    0.000    3.000    0.000    8.000 
#    0.000    1.667    0.000    8.500    0.000   11.667 
#    0.000    0.000    0.000    0.000    0.000    0.000 
#
# Total GULP energy -1189585.912008 kJ/mol
# GULP energy per Si atom -12391.519917 kJ/mol
# Density = 1.941135 g / cm^3
# Si number density = 19.455636 Si / 1000 Ang^3
#
#
#
# Elastic Constant Matrix: (Units=GPa)
#
#
# Indices 1 2 3 4 5 6 
#
# 1 81.1454 33.2407 36.3225 0.0000 0.0000 0.0000
# 2 33.2407 81.1454 36.3225 0.0000 0.0000 0.0000
# 3 36.3225 36.3225 80.4719 0.0000 0.0000 0.0000
# 4 0.0000 0.0000 0.0000 21.3450 0.0000 0.0000
# 5 0.0000 0.0000 0.0000 0.0000 21.3450 0.0000
# 6 0.0000 0.0000 0.0000 0.0000 0.0000 24.3488
#
#
#
# Elastic Compliance Matrix: (Units=1/GPa)
#
#
# Indices 1 2 3 4 5 6 
#
# 1 0.016565 -0.004310 -0.005532 0.000000 0.000000 0.000000
# 2 -0.004310 0.016565 -0.005532 0.000000 0.000000 0.000000
# 3 -0.005532 -0.005532 0.017420 0.000000 0.000000 0.000000
# 4 0.000000 0.000000 0.000000 0.046849 0.000000 0.000000
# 5 0.000000 0.000000 0.000000 0.000000 0.046849 0.000000
# 6 0.000000 0.000000 0.000000 0.000000 0.000000 0.041070
#
#
# Mechanical properties :
#
#
# Convention : Reuss Voigt Hill
#
# Bulk Modulus (GPa) = 50.49388 50.50379 50.49884
# Shear Modulus (GPa) = 22.45508 22.53290 22.49399
#
# Velocity S-wave (km/s) = 3.40099 3.40688 3.40394
# Velocity P-wave (km/s) = 6.43677 6.44132 6.43904
#
# Compressibility (1/GPa) = 0.01980438
#
# Stress axis : x y z
#
# Youngs Moduli (GPa) = 60.36780 60.36779 57.40393
#
# Poissons Ratio (x) = 0.26017 0.31754
# Poissons Ratio (y) = 0.26017 0.31754
# Poissons Ratio (z) = 0.33394 0.33394
#
# Static dielectric constant tensor:
#      x y z
#    x 3.570910 0.000000 0.000000 
#    y 0.000000 3.570910 0.000000 
#    z 0.000000 0.000000 3.407790 
# 
# 
# High freq. dielectric constant tensor:
#      x y z
#    x 1.753150 0.000000 0.000000 
#    y 0.000000 1.753150 0.000000 
#    z 0.000000 0.000000 1.749930 
# 
# From -- ./inp_files/9770.got.cif
#   From: 2010.06.25/outbox.cif.g09.slc.cpg/sg140_5_cif.got.tgz:9770.got - 2010.06.28 10:53:23.
