data_PCOD8320758
_publ_section_title
;
Structure prediction by ZEFSAII (Michael W. Deem and Ramdas Pophale) SiO2 
 PCOD8320758
Probable space group: I 41/A M D
;
_chemical_formula_sum "Si O2"
_cell_formula_units_Z 160
_cell_length_a 18.319919
_cell_length_b 18.319919
_cell_length_c 24.910447
_cell_angle_alpha 90.000000
_cell_angle_beta 90.000000
_cell_angle_gamma 90.000000
_cell_volume 8360.430077
_symmetry_space_group_name_H-M "I 41/A M D"
_symmetry_group_IT_number 141
_space_group.IT_coordinate_system_code '2'
_symmetry_cell_setting 'tetragonal'
loop_
_space_group_symop_operation_xyz
x,y,z
1/4-y,3/4+x,1/4+z
-x,1/2-y,z
1/4+y,1/4-x,3/4+z
x,-y,-z
-x,1/2+y,-z
1/4+y,3/4+x,1/4-z
1/4-y,1/4-x,3/4-z
-x,-y,-z
3/4+y,1/4-x,3/4-z
x,1/2+y,-z
3/4-y,3/4+x,1/4-z
-x,y,z
x,1/2-y,z
3/4-y,1/4-x,3/4+z
3/4+y,3/4+x,1/4+z
1/2+x,1/2+y,1/2+z
3/4-y,1/4+x,3/4+z
1/2-x,-y,1/2+z
3/4+y,3/4-x,1/4+z
1/2+x,1/2-y,1/2-z
1/2-x,y,1/2-z
3/4+y,1/4+x,3/4-z
3/4-y,3/4-x,1/4-z
1/2-x,1/2-y,1/2-z
1/4+y,3/4-x,1/4-z
1/2+x,y,1/2-z
1/4-y,1/4+x,3/4-z
1/2-x,1/2+y,1/2+z
1/2+x,-y,1/2+z
1/4-y,3/4-x,1/4+z
1/4+y,1/4+x,3/4+z
loop_
_atom_site_type_symbol
_atom_site_label
_atom_site_fract_x
_atom_site_fract_y
_atom_site_fract_z
Si Si1 0.916811 0.421459 0.021218
Si Si2 0.194628 0.334527 0.085766
Si Si3 0.290667 0.333279 0.988419
Si Si4 0.687630 0.167032 0.291875
Si Si5 0.585067 0.106221 0.678311
O O1 0.912118 0.362737 0.973455
O O2 0.000000 0.429884 0.040831
O O3 0.887121 0.500000 0.000000
O O4 0.870861 0.390446 0.071535
O O5 0.170964 0.250000 0.073964
O O6 0.216752 0.345303 0.147614
O O7 0.264086 0.354576 0.048526
O O8 0.312400 0.250000 0.986121
O O9 0.364031 0.372061 0.971210
O O10 0.226050 0.351419 0.946853
O O11 0.660143 0.250000 0.284588
O O12 0.750000 0.147692 0.250000
O O13 0.500000 0.120650 0.667772
O O14 0.631060 0.118941 0.625000
#
# Coordination Sequence:
#
# PCOD8320758 Si02
#       5
#    32  32  32  32  32
#     4  10  21  34  52  82 117 153 194 239 282 333
#     4   9  20  39  58  78 112 153 187 231 292 349
#     4   9  20  38  58  84 116 148 186 235 285 339
#     4  10  22  40  61  86 113 145 189 239 292 352
#     4  10  21  36  55  80 116 158 196 237 281 334
#
# _framework density 19.137771999999998
#
# number of rings (size 3 to 8) (size 9 to 14) (size 15 to 20)
#    0.000    2.400    0.000    2.400    2.800    7.800 
#    0.000    2.000    0.000    0.000    0.000    5.600 
#    0.000    0.000    0.000    0.000    0.000    0.000 
#
# Total GULP energy -991920.243586 kJ/mol
# GULP energy per Si atom -12399.003045 kJ/mol
# Density = 1.909421 g / cm^3
# Si number density = 19.137772 Si / 1000 Ang^3
#
#
#
# Elastic Constant Matrix: (Units=GPa)
#
#
# Indices 1 2 3 4 5 6 
#
# 1 74.6785 51.0416 42.9826 0.0000 0.0000 0.0000
# 2 51.0416 74.6801 42.9827 0.0000 0.0000 0.0000
# 3 42.9826 42.9827 136.7693 0.0000 0.0000 0.0000
# 4 0.0000 0.0000 0.0000 22.4799 0.0000 0.0000
# 5 0.0000 0.0000 0.0000 0.0000 22.4792 0.0000
# 6 0.0000 0.0000 0.0000 0.0000 0.0000 32.7924
#
#
#
# Elastic Compliance Matrix: (Units=1/GPa)
#
#
# Indices 1 2 3 4 5 6 
#
# 1 0.026219 -0.016087 -0.003184 0.000000 0.000000 0.000000
# 2 -0.016087 0.026218 -0.003184 0.000000 0.000000 0.000000
# 3 -0.003184 -0.003184 0.009313 0.000000 0.000000 0.000000
# 4 0.000000 0.000000 0.000000 0.044484 0.000000 0.000000
# 5 0.000000 0.000000 0.000000 0.000000 0.044486 0.000000
# 6 0.000000 0.000000 0.000000 0.000000 0.000000 0.030495
#
#
# Mechanical properties :
#
#
# Convention : Reuss Voigt Hill
#
# Bulk Modulus (GPa) = 59.38420 62.23797 60.81109
# Shear Modulus (GPa) = 21.57617 25.49170 23.53394
#
# Velocity S-wave (km/s) = 3.36134 3.65363 3.51053
# Velocity P-wave (km/s) = 6.79426 7.09861 6.94810
#
# Compressibility (1/GPa) = 0.01683950
#
# Stress axis : x y z
#
# Youngs Moduli (GPa) = 38.14081 38.14182 107.37873
#
# Poissons Ratio (x) = 0.61359 0.34190
# Poissons Ratio (y) = 0.61357 0.34188
# Poissons Ratio (z) = 0.12144 0.12144
#
# Static dielectric constant tensor:
#      x y z
#    x 3.446420 0.000000 0.000000 
#    y 0.000000 3.446410 0.000000 
#    z 0.000000 0.000000 3.716660 
# 
# 
# High freq. dielectric constant tensor:
#      x y z
#    x 1.737670 0.000000 0.000000 
#    y 0.000000 1.737670 0.000000 
#    z 0.000000 0.000000 1.751530 
# 
# From -- ./inp_files/12726.got.cif
#   From: 2010.03.12/outbox.cif.g09.slc.cpg/sg141_7_cif.got.tgz:12726.got - 2010.04.03 13:18:35.
