data_PCOD8320049
_publ_section_title
;
Structure prediction by ZEFSAII (Michael W. Deem and Ramdas Pophale) SiO2 
 PCOD8320049
Probable space group: I 4/M C M
;
_chemical_formula_sum "Si O2"
_cell_formula_units_Z 160
_cell_length_a 22.888243
_cell_length_b 22.888243
_cell_length_c 15.739644
_cell_angle_alpha 90.000000
_cell_angle_beta 90.000000
_cell_angle_gamma 90.000000
_cell_volume 8245.553550
_symmetry_space_group_name_H-M "I 4/M C M"
_symmetry_group_IT_number 140
_symmetry_cell_setting 'tetragonal'
loop_
_space_group_symop_operation_xyz
x,y,z
-y,x,z
-x,-y,z
y,-x,z
x,-y,1/2-z
-x,y,1/2-z
y,x,1/2-z
-y,-x,1/2-z
-x,-y,-z
y,-x,-z
x,y,-z
-y,x,-z
-x,y,1/2+z
x,-y,1/2+z
-y,-x,1/2+z
y,x,1/2+z
1/2+x,1/2+y,1/2+z
1/2-y,1/2+x,1/2+z
1/2-x,1/2-y,1/2+z
1/2+y,1/2-x,1/2+z
1/2+x,1/2-y,-z
1/2-x,1/2+y,-z
1/2+y,1/2+x,-z
1/2-y,1/2-x,-z
1/2-x,1/2-y,1/2-z
1/2+y,1/2-x,1/2-z
1/2+x,1/2+y,1/2-z
1/2-y,1/2+x,1/2-z
1/2-x,1/2+y,z
1/2+x,1/2-y,z
1/2-y,1/2-x,z
1/2+y,1/2+x,z
loop_
_atom_site_type_symbol
_atom_site_label
_atom_site_fract_x
_atom_site_fract_y
_atom_site_fract_z
Si Si1 0.837160 0.011971 0.596307
Si Si2 0.113491 0.131254 0.898870
Si Si3 0.147994 0.742687 0.399805
Si Si4 0.977822 0.282885 0.654757
Si Si5 0.499241 0.908761 0.351276
O O1 0.858524 0.015294 0.500000
O O2 0.858704 0.072136 0.641319
O O3 0.863180 0.952729 0.638592
O O4 0.767347 0.007259 0.598660
O O5 0.152818 0.188282 0.874687
O O6 0.110334 0.127900 0.000000
O O7 0.135721 0.736304 0.500000
O O8 0.206848 0.706848 0.374083
O O9 0.092697 0.716993 0.348891
O O10 0.999601 0.343352 0.613113
O O11 0.000000 0.274331 0.750000
O O12 0.500000 0.907028 0.250000
O O13 0.555420 0.944581 0.384575
O O14 0.440388 0.940388 0.383702
#
# Coordination Sequence:
#
# PCOD8320049 Si02
#       5
#    32  32  32  32  32
#     4   9  17  31  48  66  90 118 152 192 235 283
#     4   8  15  28  48  71  91 116 152 195 238 277
#     4   9  17  31  51  71  91 120 160 197 226 266
#     4  10  18  28  45  69  95 123 152 188 232 275
#     4   8  14  25  41  61  85 113 146 182 217 258
#
# _framework density 19.404396999999999
#
# number of rings (size 3 to 8) (size 9 to 14) (size 15 to 20)
#    0.000    3.200    0.000    3.000    0.000    1.200 
#    0.000    7.000    0.000    4.800    0.000   12.600 
#    0.000    0.000    0.000    0.000    0.000    0.000 
#
# Total GULP energy -991124.675004 kJ/mol
# GULP energy per Si atom -12389.058438 kJ/mol
# Density = 1.936023 g / cm^3
# Si number density = 19.404397 Si / 1000 Ang^3
#
#
#
# Elastic Constant Matrix: (Units=GPa)
#
#
# Indices 1 2 3 4 5 6 
#
# 1 160.6402 109.3175 2.2051 0.0000 0.0000 0.0000
# 2 109.3175 160.6402 2.2051 0.0000 0.0000 0.0000
# 3 2.2051 2.2051 14.7119 0.0000 0.0000 0.0000
# 4 0.0000 0.0000 0.0000 16.2552 0.0000 0.0000
# 5 0.0000 0.0000 0.0000 0.0000 16.2552 0.0000
# 6 0.0000 0.0000 0.0000 0.0000 0.0000 30.8040
#
#
#
# Elastic Compliance Matrix: (Units=1/GPa)
#
#
# Indices 1 2 3 4 5 6 
#
# 1 0.011599 -0.007886 -0.000557 0.000000 0.000000 0.000000
# 2 -0.007886 0.011599 -0.000557 0.000000 0.000000 0.000000
# 3 -0.000557 -0.000557 0.068139 0.000000 0.000000 0.000000
# 4 0.000000 0.000000 0.000000 0.061519 0.000000 0.000000
# 5 0.000000 0.000000 0.000000 0.000000 0.061519 0.000000
# 6 0.000000 0.000000 0.000000 0.000000 0.000000 0.032463
#
#
# Mechanical properties :
#
#
# Convention : Reuss Voigt Hill
#
# Bulk Modulus (GPa) = 13.63523 62.60527 38.12025
# Shear Modulus (GPa) = 17.28421 27.48055 22.38238
#
# Velocity S-wave (km/s) = 2.98776 3.76733 3.39996
# Velocity P-wave (km/s) = 4.35252 7.15941 5.92459
#
# Compressibility (1/GPa) = 0.07333944
#
# Stress axis : x y z
#
# Youngs Moduli (GPa) = 86.21455 86.21455 14.67589
#
# Poissons Ratio (x) = 0.67985 0.00817
# Poissons Ratio (y) = 0.67985 0.00817
# Poissons Ratio (z) = 0.04798 0.04798
#
# Static dielectric constant tensor:
#      x y z
#    x 3.860810 0.000000 0.000000 
#    y 0.000000 3.860810 0.000000 
#    z 0.000000 0.000000 3.023680 
# 
# 
# High freq. dielectric constant tensor:
#      x y z
#    x 1.756700 0.000000 0.000000 
#    y 0.000000 1.756700 0.000000 
#    z 0.000000 0.000000 1.707870 
# 
# From -- ./inp_files/4745.got.cif
#   From: 2010.06.25/outbox.cif.g09.slc.cpg/sg140_3_cif.got.tgz:4745.got - 2010.06.28 10:53:23.
