data_PCOD8320862
_publ_section_title
;
Structure prediction by ZEFSAII (Michael W. Deem and Ramdas Pophale) SiO2 
 PCOD8320862
Probable space group: I 41/A M D
;
_chemical_formula_sum "Si O2"
_cell_formula_units_Z 84
_cell_length_a 14.752792
_cell_length_b 14.752792
_cell_length_c 18.125694
_cell_angle_alpha 90.000000
_cell_angle_beta 90.000000
_cell_angle_gamma 90.000000
_cell_volume 3944.964347
_symmetry_space_group_name_H-M "I 41/A M D"
_symmetry_group_IT_number 141
_space_group.IT_coordinate_system_code '2'
_symmetry_cell_setting 'tetragonal'
loop_
_space_group_symop_operation_xyz
x,y,z
1/4-y,3/4+x,1/4+z
-x,1/2-y,z
1/4+y,1/4-x,3/4+z
x,-y,-z
-x,1/2+y,-z
1/4+y,3/4+x,1/4-z
1/4-y,1/4-x,3/4-z
-x,-y,-z
3/4+y,1/4-x,3/4-z
x,1/2+y,-z
3/4-y,3/4+x,1/4-z
-x,y,z
x,1/2-y,z
3/4-y,1/4-x,3/4+z
3/4+y,3/4+x,1/4+z
1/2+x,1/2+y,1/2+z
3/4-y,1/4+x,3/4+z
1/2-x,-y,1/2+z
3/4+y,3/4-x,1/4+z
1/2+x,1/2-y,1/2-z
1/2-x,y,1/2-z
3/4+y,1/4+x,3/4-z
3/4-y,3/4-x,1/4-z
1/2-x,1/2-y,1/2-z
1/4+y,3/4-x,1/4-z
1/2+x,y,1/2-z
1/4-y,1/4+x,3/4-z
1/2-x,1/2+y,1/2+z
1/2+x,-y,1/2+z
1/4-y,3/4-x,1/4+z
1/4+y,1/4+x,3/4+z
loop_
_atom_site_type_symbol
_atom_site_label
_atom_site_fract_x
_atom_site_fract_y
_atom_site_fract_z
Si Si1 0.159885 0.750000 0.302274
Si Si2 0.331057 0.145237 0.200944
Si Si3 0.500000 0.873567 0.243403
Si Si4 0.325873 0.250000 0.971794
Si Si5 0.500000 0.750000 0.375000
O O1 0.250000 0.750000 0.250000
O O2 0.094059 0.837020 0.291896
O O3 0.195540 0.750000 0.385330
O O4 0.339330 0.089330 0.125000
O O5 0.315828 0.250000 0.179669
O O6 0.250000 0.105210 0.250000
O O7 0.416353 0.136511 0.253947
O O8 0.500000 0.841556 0.327916
O O9 0.500000 0.980783 0.234965
#
# Coordination Sequence:
#
# PCOD8320862 Si02
#       5
#    16  32  16  16   4
#     4  10  24  43  66  96 134 183 227 277 345 410
#     4  11  26  46  70  99 138 181 231 282 348 418
#     4  10  23  40  65  96 133 167 232 268 343 393
#     4  12  25  40  69  97 133 177 224 291 343 404
#     4   8  16  44  60  80 132 180 194 272 320 420
#
# _framework density 21.292967000000001
#
# number of rings (size 3 to 8) (size 9 to 14) (size 15 to 20)
#    0.000    1.524    1.905    2.857   10.667    1.524 
#    3.429    0.000    0.000    0.000    0.000    0.000 
#    0.000    0.000    0.000    0.000    0.000    0.000 
#
# Total GULP energy -520667.729242 kJ/mol
# GULP energy per Si atom -12396.850696 kJ/mol
# Density = 2.124450 g / cm^3
# Si number density = 21.292967 Si / 1000 Ang^3
#
#
#
# Elastic Constant Matrix: (Units=GPa)
#
#
# Indices 1 2 3 4 5 6 
#
# 1 118.3459 23.7770 43.7509 0.0000 0.0000 0.0000
# 2 23.7770 118.3459 43.7509 0.0000 0.0000 0.0000
# 3 43.7509 43.7509 158.0432 0.0000 0.0000 0.0000
# 4 0.0000 0.0000 0.0000 35.6466 0.0000 0.0000
# 5 0.0000 0.0000 0.0000 0.0000 35.6465 0.0000
# 6 0.0000 0.0000 0.0000 0.0000 0.0000 21.0611
#
#
#
# Elastic Compliance Matrix: (Units=1/GPa)
#
#
# Indices 1 2 3 4 5 6 
#
# 1 0.009528 -0.001046 -0.002348 0.000000 0.000000 0.000000
# 2 -0.001046 0.009528 -0.002348 0.000000 0.000000 0.000000
# 3 -0.002348 -0.002348 0.007627 0.000000 0.000000 0.000000
# 4 0.000000 0.000000 0.000000 0.028053 0.000000 0.000000
# 5 0.000000 0.000000 0.000000 0.000000 0.028053 0.000000
# 6 0.000000 0.000000 0.000000 0.000000 0.000000 0.047481
#
#
# Mechanical properties :
#
#
# Convention : Reuss Voigt Hill
#
# Bulk Modulus (GPa) = 65.79416 68.58808 67.19112
# Shear Modulus (GPa) = 34.05493 37.36792 35.71143
#
# Velocity S-wave (km/s) = 4.00353 4.19375 4.09974
# Velocity P-wave (km/s) = 7.23447 7.46536 7.35082
#
# Compressibility (1/GPa) = 0.01519892
#
# Stress axis : x y z
#
# Youngs Moduli (GPa) = 104.95346 104.95346 131.10686
#
# Poissons Ratio (x) = 0.10981 0.30784
# Poissons Ratio (y) = 0.10981 0.30784
# Poissons Ratio (z) = 0.24643 0.24643
#
# Static dielectric constant tensor:
#      x y z
#    x 3.766340 0.000000 0.000000 
#    y 0.000000 3.766340 0.000000 
#    z 0.000000 0.000000 3.899010 
# 
# 
# High freq. dielectric constant tensor:
#      x y z
#    x 1.832100 0.000000 0.000000 
#    y 0.000000 1.832100 0.000000 
#    z 0.000000 0.000000 1.851350 
# 
# From -- ./inp_files/9679.got.cif
#   From: 2010.03.12/outbox.cif.g09.slc.cpg/sg141_5_cif.got.tgz:9679.got - 2010.04.03 13:18:35.
