data_PCOD8320243
_publ_section_title
;
Structure prediction by ZEFSAII (Michael W. Deem and Ramdas Pophale) SiO2 
 PCOD8320243
Probable space group: I 4/M C M
;
_chemical_formula_sum "Si O2"
_cell_formula_units_Z 176
_cell_length_a 17.401303
_cell_length_b 17.401303
_cell_length_c 29.490794
_cell_angle_alpha 90.000000
_cell_angle_beta 90.000000
_cell_angle_gamma 90.000000
_cell_volume 8929.970084
_symmetry_space_group_name_H-M "I 4/M C M"
_symmetry_group_IT_number 140
_symmetry_cell_setting 'tetragonal'
loop_
_space_group_symop_operation_xyz
x,y,z
-y,x,z
-x,-y,z
y,-x,z
x,-y,1/2-z
-x,y,1/2-z
y,x,1/2-z
-y,-x,1/2-z
-x,-y,-z
y,-x,-z
x,y,-z
-y,x,-z
-x,y,1/2+z
x,-y,1/2+z
-y,-x,1/2+z
y,x,1/2+z
1/2+x,1/2+y,1/2+z
1/2-y,1/2+x,1/2+z
1/2-x,1/2-y,1/2+z
1/2+y,1/2-x,1/2+z
1/2+x,1/2-y,-z
1/2-x,1/2+y,-z
1/2+y,1/2+x,-z
1/2-y,1/2-x,-z
1/2-x,1/2-y,1/2-z
1/2+y,1/2-x,1/2-z
1/2+x,1/2+y,1/2-z
1/2-y,1/2+x,1/2-z
1/2-x,1/2+y,z
1/2+x,1/2-y,z
1/2-y,1/2-x,z
1/2+y,1/2+x,z
loop_
_atom_site_type_symbol
_atom_site_label
_atom_site_fract_x
_atom_site_fract_y
_atom_site_fract_z
Si Si1 0.827677 0.455804 0.203420
Si Si2 0.655566 0.284091 0.108932
Si Si3 0.206736 0.165808 0.202987
Si Si4 0.565182 0.065182 0.448615
Si Si5 0.091087 0.084750 0.946911
Si Si6 0.839762 0.465121 0.389622
O O1 0.818907 0.500000 0.250000
O O2 0.897162 0.397162 0.208453
O O3 0.747110 0.414857 0.191854
O O4 0.844660 0.513869 0.162999
O O5 0.731641 0.231641 0.099012
O O6 0.652533 0.309551 0.161488
O O7 0.653161 0.360490 0.078169
O O8 0.576337 0.239867 0.098255
O O9 0.158766 0.158766 0.250000
O O10 0.271995 0.228006 0.210483
O O11 0.586950 0.086950 0.500000
O O12 0.537368 0.142935 0.422711
O O13 0.500000 0.000000 0.447584
O O14 0.003650 0.106862 0.933262
O O15 0.103153 0.096535 0.000000
O O16 0.905778 0.405778 0.399974
#
# Coordination Sequence:
#
# PCOD8320243 Si02
#       6
#    32  32  32  16  32  32
#     4  11  21  32  53  81 114 155 196 242 295 349
#     4  10  21  36  61  89 118 158 197 243 296 355
#     4   9  19  36  52  74 111 152 194 237 288 348
#     4   9  18  34  54  76 113 158 192 234 291 351
#     4   9  20  40  64  88 116 152 196 250 306 353
#     4  10  20  34  52  81 118 150 193 238 286 355
#
# _framework density 19.708912000000002
#
# number of rings (size 3 to 8) (size 9 to 14) (size 15 to 20)
#    0.000    2.273    0.909    2.182    2.545    4.909 
#    0.000    1.818    0.000    0.000    0.000    1.273 
#    0.000    0.000    0.000    0.000    0.000    0.000 
#
# Total GULP energy -1090839.223378 kJ/mol
# GULP energy per Si atom -12395.900266 kJ/mol
# Density = 1.966405 g / cm^3
# Si number density = 19.708912 Si / 1000 Ang^3
#
#
#
# Elastic Constant Matrix: (Units=GPa)
#
#
# Indices 1 2 3 4 5 6 
#
# 1 44.5978 8.8643 -1.0351 0.0000 0.0000 0.0000
# 2 8.8643 44.5978 -1.0351 0.0000 0.0000 0.0000
# 3 -1.0351 -1.0351 58.2414 0.0000 0.0000 0.0000
# 4 0.0000 0.0000 0.0000 51.8815 0.0000 0.0000
# 5 0.0000 0.0000 0.0000 0.0000 51.8815 0.0000
# 6 0.0000 0.0000 0.0000 0.0000 0.0000 -40.8978
#
#
#
# Elastic Compliance Matrix: (Units=1/GPa)
#
#
# Indices 1 2 3 4 5 6 
#
# 1 0.023351 -0.004634 0.000333 0.000000 0.000000 0.000000
# 2 -0.004634 0.023351 0.000333 0.000000 0.000000 0.000000
# 3 0.000333 0.000333 0.017182 0.000000 0.000000 0.000000
# 4 0.000000 0.000000 0.000000 0.019275 0.000000 0.000000
# 5 0.000000 0.000000 0.000000 0.000000 0.019275 0.000000
# 6 0.000000 0.000000 0.000000 0.000000 0.000000 -0.024451
#
#
# Mechanical properties :
#
#
# Convention : Reuss Voigt Hill
#
# Bulk Modulus (GPa) = 17.87377 17.89167 17.88272
# Shear Modulus (GPa) = 47.81556 21.94921 34.88239
#
# Velocity S-wave (km/s) = 4.93088 3.34079 4.21156
# Velocity P-wave (km/s) = 6.44256 4.89682 5.72213
#
# Compressibility (1/GPa) = 0.05594789
#
# Stress axis : x y z
#
# Youngs Moduli (GPa) = 42.82410 42.82410 58.20133
#
# Poissons Ratio (x) = 0.19843 -0.01936
# Poissons Ratio (y) = 0.19843 -0.01936
# Poissons Ratio (z) = -0.01425 -0.01425
#
# Static dielectric constant tensor:
#      x y z
#    x 3.574270 0.000000 0.000000 
#    y 0.000000 3.574270 0.000000 
#    z 0.000000 0.000000 3.545640 
# 
# 
# High freq. dielectric constant tensor:
#      x y z
#    x 1.755150 0.000000 0.000000 
#    y 0.000000 1.755150 0.000000 
#    z 0.000000 0.000000 1.769260 
# 
# From -- ./inp_files/10675.got.cif
#   From: 2010.06.25/outbox.cif.g09.slc.cpg/sg140_6_cif.got.tgz:10675.got - 2010.06.28 10:53:23.
