data_PCOD8320159
_publ_section_title
;
Structure prediction by ZEFSAII (Michael W. Deem and Ramdas Pophale) SiO2 
 PCOD8320159
Probable space group: I 4/M C M
;
_chemical_formula_sum "Si O2"
_cell_formula_units_Z 160
_cell_length_a 31.858331
_cell_length_b 31.858331
_cell_length_c 8.993846
_cell_angle_alpha 90.000000
_cell_angle_beta 90.000000
_cell_angle_gamma 90.000000
_cell_volume 9128.333265
_symmetry_space_group_name_H-M "I 4/M C M"
_symmetry_group_IT_number 140
_symmetry_cell_setting 'tetragonal'
loop_
_space_group_symop_operation_xyz
x,y,z
-y,x,z
-x,-y,z
y,-x,z
x,-y,1/2-z
-x,y,1/2-z
y,x,1/2-z
-y,-x,1/2-z
-x,-y,-z
y,-x,-z
x,y,-z
-y,x,-z
-x,y,1/2+z
x,-y,1/2+z
-y,-x,1/2+z
y,x,1/2+z
1/2+x,1/2+y,1/2+z
1/2-y,1/2+x,1/2+z
1/2-x,1/2-y,1/2+z
1/2+y,1/2-x,1/2+z
1/2+x,1/2-y,-z
1/2-x,1/2+y,-z
1/2+y,1/2+x,-z
1/2-y,1/2-x,-z
1/2-x,1/2-y,1/2-z
1/2+y,1/2-x,1/2-z
1/2+x,1/2+y,1/2-z
1/2-y,1/2+x,1/2-z
1/2-x,1/2+y,z
1/2+x,1/2-y,z
1/2-y,1/2-x,z
1/2+y,1/2+x,z
loop_
_atom_site_type_symbol
_atom_site_label
_atom_site_fract_x
_atom_site_fract_y
_atom_site_fract_z
Si Si1 0.813719 0.871252 0.174664
Si Si2 0.042280 0.542280 0.826869
Si Si3 0.731188 0.543886 0.324538
Si Si4 0.101058 0.398943 0.828880
Si Si5 0.803126 0.588289 0.833109
Si Si6 0.758645 0.325640 0.330332
O O1 0.858215 0.858215 0.250000
O O2 0.800063 0.918163 0.226371
O O3 0.780031 0.835671 0.222230
O O4 0.819121 0.869874 0.000000
O O5 0.058138 0.500000 0.750000
O O6 0.076726 0.576726 0.797593
O O7 0.034855 0.534855 0.000000
O O8 0.717086 0.500000 0.250000
O O9 0.730093 0.537832 0.500000
O O10 0.778095 0.557042 0.276090
O O11 0.148327 0.412138 0.794704
O O12 0.089723 0.410278 0.000000
O O13 0.791001 0.636517 0.815174
O O14 0.793931 0.572312 0.000000
O O15 0.742365 0.321838 0.500000
O O16 0.782921 0.282921 0.281749
#
# Coordination Sequence:
#
# PCOD8320159 Si02
#       6
#    32  16  32  16  32  32
#     4  10  21  35  51  74 102 134 172 213 255 300
#     4  11  23  40  57  70  86 111 143 187 246 309
#     4  10  21  36  54  77 104 136 174 213 256 305
#     4  10  19  33  54  78 100 125 160 203 251 305
#     4   9  17  31  51  74 101 132 166 206 251 297
#     4   9  16  29  49  71  97 133 172 208 250 294
#
# _framework density 17.527843000000001
#
# number of rings (size 3 to 8) (size 9 to 14) (size 15 to 20)
#    0.000    2.300    1.000    2.400    0.000    4.800 
#    0.000    0.000    0.000    0.000    0.000    0.000 
#    0.000    0.400    0.000    4.400    0.000    3.200 
#
# Total GULP energy -991644.675907 kJ/mol
# GULP energy per Si atom -12395.558449 kJ/mol
# Density = 1.748795 g / cm^3
# Si number density = 17.527843 Si / 1000 Ang^3
#
#
#
# Elastic Constant Matrix: (Units=GPa)
#
#
# Indices 1 2 3 4 5 6 
#
# 1 78.6507 67.6636 45.4116 0.0000 0.0000 0.0000
# 2 67.6636 78.6494 45.4118 0.0000 0.0000 0.0000
# 3 45.4116 45.4118 87.7202 0.0000 0.0000 0.0000
# 4 0.0000 0.0000 0.0000 26.8464 0.0000 0.0000
# 5 0.0000 0.0000 0.0000 0.0000 26.8464 0.0000
# 6 0.0000 0.0000 0.0000 0.0000 0.0000 26.4800
#
#
#
# Elastic Compliance Matrix: (Units=1/GPa)
#
#
# Indices 1 2 3 4 5 6 
#
# 1 0.050545 -0.040475 -0.005213 0.000000 0.000000 0.000000
# 2 -0.040475 0.050547 -0.005214 0.000000 0.000000 0.000000
# 3 -0.005213 -0.005214 0.016798 0.000000 0.000000 0.000000
# 4 0.000000 0.000000 0.000000 0.037249 0.000000 0.000000
# 5 0.000000 0.000000 0.000000 0.000000 0.037249 0.000000
# 6 0.000000 0.000000 0.000000 0.000000 0.000000 0.037764
#
#
# Mechanical properties :
#
#
# Convention : Reuss Voigt Hill
#
# Bulk Modulus (GPa) = 62.16821 62.44380 62.30601
# Shear Modulus (GPa) = 14.82278 21.80345 18.31312
#
# Velocity S-wave (km/s) = 2.91120 3.53077 3.23585
# Velocity P-wave (km/s) = 6.84437 7.23357 7.04166
#
# Compressibility (1/GPa) = 0.01608539
#
# Stress axis : x y z
#
# Youngs Moduli (GPa) = 19.78422 19.78365 59.53114
#
# Poissons Ratio (x) = 0.80075 0.31034
# Poissons Ratio (y) = 0.80077 0.31040
# Poissons Ratio (z) = 0.10314 0.10315
#
# Static dielectric constant tensor:
#      x y z
#    x 3.281580 0.000000 0.000000 
#    y 0.000000 3.281580 0.000000 
#    z 0.000000 0.000000 3.236580 
# 
# 
# High freq. dielectric constant tensor:
#      x y z
#    x 1.662810 0.000000 0.000000 
#    y 0.000000 1.662810 0.000000 
#    z 0.000000 0.000000 1.680650 
# 
# From -- ./inp_files/1862.got.cif
#   From: 2010.06.25/outbox.cif.g09.slc.cpg/sg140_1_cif.got.tgz:1862.got - 2010.06.28 10:53:23.
