data_PCOD8320866
_publ_section_title
;
Structure prediction by ZEFSAII (Michael W. Deem and Ramdas Pophale) SiO2 
 PCOD8320866
Probable space group: I 41/A M D
;
_chemical_formula_sum "Si O2"
_cell_formula_units_Z 144
_cell_length_a 30.659936
_cell_length_b 30.659936
_cell_length_c 7.354129
_cell_angle_alpha 90.000000
_cell_angle_beta 90.000000
_cell_angle_gamma 90.000000
_cell_volume 6913.114206
_symmetry_space_group_name_H-M "I 41/A M D"
_symmetry_group_IT_number 141
_space_group.IT_coordinate_system_code '2'
_symmetry_cell_setting 'tetragonal'
loop_
_space_group_symop_operation_xyz
x,y,z
1/4-y,3/4+x,1/4+z
-x,1/2-y,z
1/4+y,1/4-x,3/4+z
x,-y,-z
-x,1/2+y,-z
1/4+y,3/4+x,1/4-z
1/4-y,1/4-x,3/4-z
-x,-y,-z
3/4+y,1/4-x,3/4-z
x,1/2+y,-z
3/4-y,3/4+x,1/4-z
-x,y,z
x,1/2-y,z
3/4-y,1/4-x,3/4+z
3/4+y,3/4+x,1/4+z
1/2+x,1/2+y,1/2+z
3/4-y,1/4+x,3/4+z
1/2-x,-y,1/2+z
3/4+y,3/4-x,1/4+z
1/2+x,1/2-y,1/2-z
1/2-x,y,1/2-z
3/4+y,1/4+x,3/4-z
3/4-y,3/4-x,1/4-z
1/2-x,1/2-y,1/2-z
1/4+y,3/4-x,1/4-z
1/2+x,y,1/2-z
1/4-y,1/4+x,3/4-z
1/2-x,1/2+y,1/2+z
1/2+x,-y,1/2+z
1/4-y,3/4-x,1/4+z
1/4+y,1/4+x,3/4+z
loop_
_atom_site_type_symbol
_atom_site_label
_atom_site_fract_x
_atom_site_fract_y
_atom_site_fract_z
Si Si1 0.790949 0.040949 0.375000
Si Si2 0.097638 0.412119 0.772710
Si Si3 0.883416 0.799964 0.685421
Si Si4 0.754485 0.623433 0.453344
Si Si5 0.686701 0.798833 0.123439
O O1 0.750000 0.035089 0.250000
O O2 0.787473 0.089252 0.457356
O O3 0.132302 0.382302 0.875000
O O4 0.076269 0.388201 0.601723
O O5 0.122360 0.456476 0.703830
O O6 0.061063 0.424534 0.920151
O O7 0.890970 0.750000 0.746415
O O8 0.929420 0.820581 0.625000
O O9 0.854681 0.803002 0.505654
O O10 0.750000 0.605892 0.250000
O O11 0.775338 0.671270 0.457686
O O12 0.705217 0.750000 0.123562
#
# Coordination Sequence:
#
# PCOD8320866 Si02
#       5
#    16  32  32  32  32
#     4  12  28  40  62  88 130 174 225 268 316 385
#     4  11  23  41  69  93 132 170 220 266 325 389
#     4  11  24  42  68  97 127 169 214 265 331 396
#     4  10  26  42  65  94 128 173 217 269 325 386
#     4  10  23  43  67  97 130 165 213 271 328 389
#
# _framework density 20.829977
#
# number of rings (size 3 to 8) (size 9 to 14) (size 15 to 20)
#    0.000    1.333    2.222    1.333   12.444    5.111 
#    0.000    2.222    0.000    0.000    0.000    0.000 
#    0.000    0.000    0.000    0.000    0.000    0.000 
#
# Total GULP energy -892614.061697 kJ/mol
# GULP energy per Si atom -12397.417524 kJ/mol
# Density = 2.078257 g / cm^3
# Si number density = 20.829977 Si / 1000 Ang^3
#
#
#
# Elastic Constant Matrix: (Units=GPa)
#
#
# Indices 1 2 3 4 5 6 
#
# 1 166.8696 59.7355 43.8161 0.0000 0.0000 0.0000
# 2 59.7355 166.8847 43.8214 0.0000 0.0000 0.0000
# 3 43.8161 43.8214 59.0080 0.0000 0.0000 0.0000
# 4 0.0000 0.0000 0.0000 27.7645 0.0000 0.0000
# 5 0.0000 0.0000 0.0000 0.0000 27.7631 0.0000
# 6 0.0000 0.0000 0.0000 0.0000 0.0000 45.0737
#
#
#
# Elastic Compliance Matrix: (Units=1/GPa)
#
#
# Indices 1 2 3 4 5 6 
#
# 1 0.007762 -0.001571 -0.004597 0.000000 0.000000 0.000000
# 2 -0.001571 0.007762 -0.004597 0.000000 0.000000 0.000000
# 3 -0.004597 -0.004597 0.023774 0.000000 0.000000 0.000000
# 4 0.000000 0.000000 0.000000 0.036017 0.000000 0.000000
# 5 0.000000 0.000000 0.000000 0.000000 0.036019 0.000000
# 6 0.000000 0.000000 0.000000 0.000000 0.000000 0.022186
#
#
# Mechanical properties :
#
#
# Convention : Reuss Voigt Hill
#
# Bulk Modulus (GPa) = 56.28334 76.38982 66.33658
# Shear Modulus (GPa) = 31.06085 36.47954 33.77020
#
# Velocity S-wave (km/s) = 3.86574 4.18939 4.03082
# Velocity P-wave (km/s) = 6.85597 7.75590 7.31978
#
# Compressibility (1/GPa) = 0.01776725
#
# Stress axis : x y z
#
# Youngs Moduli (GPa) = 128.82854 128.83544 42.06201
#
# Poissons Ratio (x) = 0.20245 0.19335
# Poissons Ratio (y) = 0.20244 0.19338
# Poissons Ratio (z) = 0.59221 0.59231
#
# Static dielectric constant tensor:
#      x y z
#    x 3.903470 0.000000 0.000000 
#    y 0.000000 3.903460 0.000000 
#    z 0.000000 0.000000 3.831340 
# 
# 
# High freq. dielectric constant tensor:
#      x y z
#    x 1.822180 0.000000 0.000000 
#    y 0.000000 1.822180 0.000000 
#    z 0.000000 0.000000 1.822230 
# 
# From -- ./inp_files/3216.got.cif
#   From: 2010.03.12/outbox.cif.g09.slc.cpg/sg141_2_cif.got.tgz:3216.got - 2010.04.03 13:18:35.
