data_PCOD8320747
_publ_section_title
;
Structure prediction by ZEFSAII (Michael W. Deem and Ramdas Pophale) SiO2 
 PCOD8320747
Probable space group: I 41/A M D
;
_chemical_formula_sum "Si O2"
_cell_formula_units_Z 128
_cell_length_a 21.717934
_cell_length_b 21.717934
_cell_length_c 13.480856
_cell_angle_alpha 90.000000
_cell_angle_beta 90.000000
_cell_angle_gamma 90.000000
_cell_volume 6358.497248
_symmetry_space_group_name_H-M "I 41/A M D"
_symmetry_group_IT_number 141
_space_group.IT_coordinate_system_code '2'
_symmetry_cell_setting 'tetragonal'
loop_
_space_group_symop_operation_xyz
x,y,z
1/4-y,3/4+x,1/4+z
-x,1/2-y,z
1/4+y,1/4-x,3/4+z
x,-y,-z
-x,1/2+y,-z
1/4+y,3/4+x,1/4-z
1/4-y,1/4-x,3/4-z
-x,-y,-z
3/4+y,1/4-x,3/4-z
x,1/2+y,-z
3/4-y,3/4+x,1/4-z
-x,y,z
x,1/2-y,z
3/4-y,1/4-x,3/4+z
3/4+y,3/4+x,1/4+z
1/2+x,1/2+y,1/2+z
3/4-y,1/4+x,3/4+z
1/2-x,-y,1/2+z
3/4+y,3/4-x,1/4+z
1/2+x,1/2-y,1/2-z
1/2-x,y,1/2-z
3/4+y,1/4+x,3/4-z
3/4-y,3/4-x,1/4-z
1/2-x,1/2-y,1/2-z
1/4+y,3/4-x,1/4-z
1/2+x,y,1/2-z
1/4-y,1/4+x,3/4-z
1/2-x,1/2+y,1/2+z
1/2+x,-y,1/2+z
1/4-y,3/4-x,1/4+z
1/4+y,1/4+x,3/4+z
loop_
_atom_site_type_symbol
_atom_site_label
_atom_site_fract_x
_atom_site_fract_y
_atom_site_fract_z
Si Si1 0.500000 0.453143 0.146039
Si Si2 0.838712 0.250000 0.186048
Si Si3 0.866713 0.900767 0.355482
Si Si4 0.571463 0.588595 0.427537
Si Si5 0.763584 0.358535 0.525745
O O1 0.500000 0.518308 0.093017
O O2 0.557808 0.446733 0.217820
O O3 0.500000 0.403123 0.056122
O O4 0.866589 0.313380 0.140016
O O5 0.838575 0.845276 0.290167
O O6 0.817044 0.906926 0.444282
O O7 0.860933 0.965078 0.298488
O O8 0.604832 0.645169 0.375000
O O9 0.500000 0.602882 0.426747
O O10 0.583352 0.524206 0.371044
#
# Coordination Sequence:
#
# PCOD8320747 Si02
#       5
#    16  16  32  32  32
#     4   9  18  36  69  79 113 164 224 244 299 382
#     4   9  20  40  59  90 116 161 215 264 295 368
#     4  10  22  37  65  88 129 164 208 264 311 386
#     4  10  21  36  61  93 127 166 209 258 316 390
#     4  10  20  38  64  91 121 168 207 263 317 380
#
# _framework density 20.130541999999998
#
# number of rings (size 3 to 8) (size 9 to 14) (size 15 to 20)
#    0.000    2.250    1.250    0.750    7.000    2.250 
#    0.000    0.000   99.000    0.000    3.250    0.000 
#    0.000    0.000    0.000    0.000    0.000    0.000 
#
# Total GULP energy -792953.703591 kJ/mol
# GULP energy per Si atom -12389.901619 kJ/mol
# Density = 2.008472 g / cm^3
# Si number density = 20.130542 Si / 1000 Ang^3
#
#
#
# Elastic Constant Matrix: (Units=GPa)
#
#
# Indices 1 2 3 4 5 6 
#
# 1 102.9604 50.1845 57.1443 0.0000 0.0000 0.0000
# 2 50.1845 102.9632 57.1447 0.0000 0.0000 0.0000
# 3 57.1443 57.1447 119.6427 0.0000 0.0000 0.0000
# 4 0.0000 0.0000 0.0000 16.8368 0.0000 0.0000
# 5 0.0000 0.0000 0.0000 0.0000 16.8361 0.0000
# 6 0.0000 0.0000 0.0000 0.0000 0.0000 12.7600
#
#
#
# Elastic Compliance Matrix: (Units=1/GPa)
#
#
# Indices 1 2 3 4 5 6 
#
# 1 0.014547 -0.004401 -0.004846 0.000000 0.000000 0.000000
# 2 -0.004401 0.014547 -0.004846 0.000000 0.000000 0.000000
# 3 -0.004846 -0.004846 0.012987 0.000000 0.000000 0.000000
# 4 0.000000 0.000000 0.000000 0.059394 0.000000 0.000000
# 5 0.000000 0.000000 0.000000 0.000000 0.059396 0.000000
# 6 0.000000 0.000000 0.000000 0.000000 0.000000 0.078370
#
#
# Mechanical properties :
#
#
# Convention : Reuss Voigt Hill
#
# Bulk Modulus (GPa) = 71.96570 72.72369 72.34470
# Shear Modulus (GPa) = 18.37840 20.02610 19.20225
#
# Velocity S-wave (km/s) = 3.02480 3.15749 3.09186
# Velocity P-wave (km/s) = 6.93011 7.03544 6.98297
#
# Compressibility (1/GPa) = 0.01389551
#
# Stress axis : x y z
#
# Youngs Moduli (GPa) = 68.74214 68.74434 76.99730
#
# Poissons Ratio (x) = 0.30252 0.37314
# Poissons Ratio (y) = 0.30251 0.37313
# Poissons Ratio (z) = 0.33314 0.33314
#
# Static dielectric constant tensor:
#      x y z
#    x 3.489340 0.000000 0.000000 
#    y 0.000000 3.489330 0.000000 
#    z 0.000000 0.000000 4.211530 
# 
# 
# High freq. dielectric constant tensor:
#      x y z
#    x 1.766150 0.000000 0.000000 
#    y 0.000000 1.766150 0.000000 
#    z 0.000000 0.000000 1.803150 
# 
# From -- ./inp_files/6243.got.cif
#   From: 2010.03.12/outbox.cif.g09.slc.cpg/sg141_4_cif.got.tgz:6243.got - 2010.04.03 13:18:35.
