data_PCOD8320299
_publ_section_title
;
Structure prediction by ZEFSAII (Michael W. Deem and Ramdas Pophale) SiO2 
 PCOD8320299
Probable space group: I 4/M C M
;
_chemical_formula_sum "Si O2"
_cell_formula_units_Z 128
_cell_length_a 18.827901
_cell_length_b 18.827901
_cell_length_c 18.148858
_cell_angle_alpha 90.000000
_cell_angle_beta 90.000000
_cell_angle_gamma 90.000000
_cell_volume 6433.586060
_symmetry_space_group_name_H-M "I 4/M C M"
_symmetry_group_IT_number 140
_symmetry_cell_setting 'tetragonal'
loop_
_space_group_symop_operation_xyz
x,y,z
-y,x,z
-x,-y,z
y,-x,z
x,-y,1/2-z
-x,y,1/2-z
y,x,1/2-z
-y,-x,1/2-z
-x,-y,-z
y,-x,-z
x,y,-z
-y,x,-z
-x,y,1/2+z
x,-y,1/2+z
-y,-x,1/2+z
y,x,1/2+z
1/2+x,1/2+y,1/2+z
1/2-y,1/2+x,1/2+z
1/2-x,1/2-y,1/2+z
1/2+y,1/2-x,1/2+z
1/2+x,1/2-y,-z
1/2-x,1/2+y,-z
1/2+y,1/2+x,-z
1/2-y,1/2-x,-z
1/2-x,1/2-y,1/2-z
1/2+y,1/2-x,1/2-z
1/2+x,1/2+y,1/2-z
1/2-y,1/2+x,1/2-z
1/2-x,1/2+y,z
1/2+x,1/2-y,z
1/2-y,1/2-x,z
1/2+y,1/2+x,z
loop_
_atom_site_type_symbol
_atom_site_label
_atom_site_fract_x
_atom_site_fract_y
_atom_site_fract_z
Si Si1 0.295808 0.489828 0.334301
Si Si2 0.355598 0.654427 0.164775
Si Si3 0.725582 0.225582 0.912295
Si Si4 0.155945 0.458014 0.587549
Si Si5 0.388858 0.111143 0.587249
O O1 0.273275 0.500000 0.250000
O O2 0.357388 0.431130 0.346367
O O3 0.319051 0.567070 0.363182
O O4 0.233283 0.451481 0.378718
O O5 0.334404 0.665597 0.250000
O O6 0.296774 0.696919 0.117513
O O7 0.668073 0.168073 0.882486
O O8 0.729406 0.229406 0.000000
O O9 0.160702 0.456072 0.500000
O O10 0.104971 0.395030 0.616404
O O11 0.127204 0.533062 0.616952
O O12 0.386579 0.113422 0.500000
#
# Coordination Sequence:
#
# PCOD8320299 Si02
#       5
#    32  32  16  32  16
#     4  10  22  40  59  86 117 154 197 245 300 354
#     4  10  22  40  61  85 117 154 196 246 299 354
#     4  11  21  36  61  89 117 156 199 242 297 357
#     4  10  20  36  58  85 118 155 198 244 291 351
#     4   9  17  33  58  82 111 153 191 233 289 346
#
# _framework density 19.895592000000001
#
# number of rings (size 3 to 8) (size 9 to 14) (size 15 to 20)
#    0.000    2.000    2.500    0.750    1.750    3.000 
#    4.500    2.500    0.000    0.000    0.000    3.500 
#    0.000    0.000    0.000    0.000    0.000    0.000 
#
# Total GULP energy -793231.661578 kJ/mol
# GULP energy per Si atom -12394.244712 kJ/mol
# Density = 1.985031 g / cm^3
# Si number density = 19.895592 Si / 1000 Ang^3
#
#
#
# Elastic Constant Matrix: (Units=GPa)
#
#
# Indices 1 2 3 4 5 6 
#
# 1 109.5666 45.9047 35.0789 0.0000 0.0000 0.0000
# 2 45.9047 109.5666 35.0792 0.0000 0.0000 0.0000
# 3 35.0789 35.0792 43.9650 0.0000 0.0000 0.0000
# 4 0.0000 0.0000 0.0000 26.1973 0.0000 0.0000
# 5 0.0000 0.0000 0.0000 0.0000 26.1973 0.0000
# 6 0.0000 0.0000 0.0000 0.0000 0.0000 36.3896
#
#
#
# Elastic Compliance Matrix: (Units=1/GPa)
#
#
# Indices 1 2 3 4 5 6 
#
# 1 0.012879 -0.002829 -0.008019 0.000000 0.000000 0.000000
# 2 -0.002829 0.012880 -0.008020 0.000000 0.000000 0.000000
# 3 -0.008019 -0.008020 0.035543 0.000000 0.000000 0.000000
# 4 0.000000 0.000000 0.000000 0.038172 0.000000 0.000000
# 5 0.000000 0.000000 0.000000 0.000000 0.038172 0.000000
# 6 0.000000 0.000000 0.000000 0.000000 0.000000 0.027480
#
#
# Mechanical properties :
#
#
# Convention : Reuss Voigt Hill
#
# Bulk Modulus (GPa) = 42.43308 55.02487 48.72898
# Shear Modulus (GPa) = 23.72858 27.55918 25.64388
#
# Velocity S-wave (km/s) = 3.45723 3.72585 3.59405
# Velocity P-wave (km/s) = 6.10825 6.79898 6.46285
#
# Compressibility (1/GPa) = 0.02356652
#
# Stress axis : x y z
#
# Youngs Moduli (GPa) = 77.64319 77.64276 28.13522
#
# Poissons Ratio (x) = 0.21961 0.22563
# Poissons Ratio (y) = 0.21962 0.22563
# Poissons Ratio (z) = 0.62265 0.62266
#
# Static dielectric constant tensor:
#      x y z
#    x 3.758100 0.000000 0.000000 
#    y 0.000000 3.758080 0.000000 
#    z 0.000000 0.000000 3.340030 
# 
# 
# High freq. dielectric constant tensor:
#      x y z
#    x 1.783180 0.000000 0.000000 
#    y 0.000000 1.783180 0.000000 
#    z 0.000000 0.000000 1.749870 
# 
# From -- ./inp_files/9314.got.cif
#   From: 2010.06.25/outbox.cif.g09.slc.cpg/sg140_5_cif.got.tgz:9314.got - 2010.06.28 10:53:23.
