data_PCOD8320951
_publ_section_title
;
Structure prediction by ZEFSAII (Michael W. Deem and Ramdas Pophale) SiO2 
 PCOD8320951
Probable space group: I 41/A C D
;
_chemical_formula_sum "Si O2"
_cell_formula_units_Z 184
_cell_length_a 23.018217
_cell_length_b 23.018217
_cell_length_c 16.606692
_cell_angle_alpha 90.000000
_cell_angle_beta 90.000000
_cell_angle_gamma 90.000000
_cell_volume 8798.861688
_symmetry_space_group_name_H-M "I 41/A C D"
_symmetry_group_IT_number 142
_space_group.IT_coordinate_system_code '2'
_symmetry_cell_setting 'tetragonal'
loop_
_space_group_symop_operation_xyz
x,y,z
1/4-y,3/4+x,1/4+z
-x,1/2-y,z
1/4+y,1/4-x,3/4+z
x,-y,1/2-z
1/2-x,y,-z
3/4+y,1/4+x,1/4-z
1/4-y,1/4-x,1/4-z
-x,-y,-z
3/4+y,1/4-x,3/4-z
x,1/2+y,-z
3/4-y,3/4+x,1/4-z
-x,y,1/2+z
1/2+x,-y,z
1/4-y,3/4-x,3/4+z
3/4+y,3/4+x,3/4+z
1/2+x,1/2+y,1/2+z
3/4-y,1/4+x,3/4+z
1/2-x,-y,1/2+z
3/4+y,3/4-x,1/4+z
1/2+x,1/2-y,-z
-x,1/2+y,1/2-z
1/4+y,3/4+x,3/4-z
3/4-y,3/4-x,3/4-z
1/2-x,1/2-y,1/2-z
1/4+y,3/4-x,1/4-z
1/2+x,y,1/2-z
1/4-y,1/4+x,3/4-z
1/2-x,1/2+y,z
x,1/2-y,1/2+z
3/4-y,1/4-x,1/4+z
1/4+y,1/4+x,1/4+z
loop_
_atom_site_type_symbol
_atom_site_label
_atom_site_fract_x
_atom_site_fract_y
_atom_site_fract_z
Si Si1 0.664500 0.156352 0.994607
Si Si2 0.761482 0.511482 0.375000
Si Si3 0.500000 0.750000 0.875000
Si Si4 0.544535 0.944846 0.576361
Si Si5 0.986511 0.533225 0.174571
Si Si6 0.615326 0.209583 0.687340
Si Si7 0.665001 0.975881 0.509871
O O1 0.659595 0.181118 0.903612
O O2 0.706219 0.197004 0.047022
O O3 0.603483 0.158147 0.040554
O O4 0.688112 0.090797 0.991855
O O5 0.756960 0.572122 0.325983
O O6 0.703679 0.511707 0.428506
O O7 0.559846 0.748513 0.824436
O O8 0.515159 0.900215 0.513820
O O9 0.597230 0.978281 0.531085
O O10 0.493364 0.989322 0.599580
O O11 0.953840 0.500000 0.250000
O O12 0.956357 0.592449 0.142568
#
# Coordination Sequence:
#
# PCOD8320951 Si02
#       7
#    32  16   8  32  32  32  32
#     4  10  19  35  61  88 112 151 206 251 304 361
#     4  10  18  24  48  78 112 139 178 235 302 336
#     4  12  24  40  62  88 132 168 206 248 324 388
#     4  10  20  36  62  89 109 155 210 256 299 356
#     4  10  21  36  64  89 117 155 207 257 304 372
#     4  11  21  39  60  90 123 158 202 257 315 371
#     4  10  17  29  46  79 111 140 186 244 290 347
#
# _framework density 20.911795999999999
#
# number of rings (size 3 to 8) (size 9 to 14) (size 15 to 20)
#    0.000    1.739    3.478    3.130    4.870    0.000 
#    0.000    1.739   22.957    0.000    0.000    0.000 
#    0.000    0.000    0.000    0.000    0.000    0.000 
#
# Total GULP energy -1140012.663503 kJ/mol
# GULP energy per Si atom -12391.441995 kJ/mol
# Density = 2.086420 g / cm^3
# Si number density = 20.911796 Si / 1000 Ang^3
#
#
#
# Elastic Constant Matrix: (Units=GPa)
#
#
# Indices 1 2 3 4 5 6 
#
# 1 70.1865 22.8125 42.4773 0.0000 0.0000 0.0000
# 2 22.8125 70.1865 42.4773 0.0000 0.0000 0.0000
# 3 42.4773 42.4773 122.1376 0.0000 0.0000 0.0000
# 4 0.0000 0.0000 0.0000 30.4037 0.0000 0.0000
# 5 0.0000 0.0000 0.0000 0.0000 30.4037 0.0000
# 6 0.0000 0.0000 0.0000 0.0000 0.0000 15.4090
#
#
#
# Elastic Compliance Matrix: (Units=1/GPa)
#
#
# Indices 1 2 3 4 5 6 
#
# 1 0.018434 -0.002675 -0.005481 0.000000 0.000000 0.000000
# 2 -0.002675 0.018434 -0.005481 0.000000 0.000000 0.000000
# 3 -0.005481 -0.005481 0.012000 0.000000 0.000000 0.000000
# 4 0.000000 0.000000 0.000000 0.032891 0.000000 0.000000
# 5 0.000000 0.000000 0.000000 0.000000 0.032891 0.000000
# 6 0.000000 0.000000 0.000000 0.000000 0.000000 0.064897
#
#
# Mechanical properties :
#
#
# Convention : Reuss Voigt Hill
#
# Bulk Modulus (GPa) = 46.30619 53.11608 49.71113
# Shear Modulus (GPa) = 23.36254 25.55953 24.46104
#
# Velocity S-wave (km/s) = 3.34607 3.49987 3.42383
# Velocity P-wave (km/s) = 6.09261 6.46431 6.28121
#
# Compressibility (1/GPa) = 0.02159539
#
# Stress axis : x y z
#
# Youngs Moduli (GPa) = 54.24725 54.24725 83.33467
#
# Poissons Ratio (x) = 0.14509 0.45675
# Poissons Ratio (y) = 0.14509 0.45675
# Poissons Ratio (z) = 0.29732 0.29732
#
# Static dielectric constant tensor:
#      x y z
#    x 3.586690 0.000000 0.000000 
#    y 0.000000 3.586690 0.000000 
#    z 0.000000 0.000000 4.237350 
# 
# 
# High freq. dielectric constant tensor:
#      x y z
#    x 1.795850 0.000000 0.000000 
#    y 0.000000 1.795850 0.000000 
#    z 0.000000 0.000000 1.831840 
# 
# From -- ./inp_files/7657.got.cif
#   From: 2010.03.12/outbox.cif.g09.slc.cpg/sg142_4_cif.got.tgz:7657.got - 2010.04.03 13:27:16.
