data_PCOD8320437
_publ_section_title
;
Structure prediction by ZEFSAII (Michael W. Deem and Ramdas Pophale) SiO2 
 PCOD8320437
Probable space group: I 4/M C M
;
_chemical_formula_sum "Si O2"
_cell_formula_units_Z 128
_cell_length_a 20.626547
_cell_length_b 20.626547
_cell_length_c 15.620876
_cell_angle_alpha 90.000000
_cell_angle_beta 90.000000
_cell_angle_gamma 90.000000
_cell_volume 6645.971069
_symmetry_space_group_name_H-M "I 4/M C M"
_symmetry_group_IT_number 140
_symmetry_cell_setting 'tetragonal'
loop_
_space_group_symop_operation_xyz
x,y,z
-y,x,z
-x,-y,z
y,-x,z
x,-y,1/2-z
-x,y,1/2-z
y,x,1/2-z
-y,-x,1/2-z
-x,-y,-z
y,-x,-z
x,y,-z
-y,x,-z
-x,y,1/2+z
x,-y,1/2+z
-y,-x,1/2+z
y,x,1/2+z
1/2+x,1/2+y,1/2+z
1/2-y,1/2+x,1/2+z
1/2-x,1/2-y,1/2+z
1/2+y,1/2-x,1/2+z
1/2+x,1/2-y,-z
1/2-x,1/2+y,-z
1/2+y,1/2+x,-z
1/2-y,1/2-x,-z
1/2-x,1/2-y,1/2-z
1/2+y,1/2-x,1/2-z
1/2+x,1/2+y,1/2-z
1/2-y,1/2+x,1/2-z
1/2-x,1/2+y,z
1/2+x,1/2-y,z
1/2-y,1/2-x,z
1/2+y,1/2+x,z
loop_
_atom_site_type_symbol
_atom_site_label
_atom_site_fract_x
_atom_site_fract_y
_atom_site_fract_z
Si Si1 0.461548 0.401789 0.401545
Si Si2 0.940608 0.333720 0.685713
Si Si3 0.274684 0.333097 0.000000
Si Si4 0.625537 0.696502 0.675065
Si Si5 0.565101 0.172428 0.000000
O O1 0.535892 0.417189 0.382460
O O2 0.452299 0.380100 0.500000
O O3 0.439913 0.345501 0.336456
O O4 0.896894 0.396894 0.705185
O O5 0.894112 0.270967 0.692809
O O6 0.972953 0.338376 0.589664
O O7 0.000000 0.330293 0.750000
O O8 0.314440 0.330913 0.088841
O O9 0.225306 0.274695 0.000000
O O10 0.244062 0.405339 0.000000
O O11 0.670896 0.670896 0.750000
O O12 0.626498 0.126498 0.000000
#
# Coordination Sequence:
#
# PCOD8320437 Si02
#       5
#    32  32  16  32  16
#     4   9  19  36  57  84 121 161 202 244 289 343
#     4  10  22  40  62  89 119 153 196 246 296 353
#     4   9  18  36  55  77 112 155 194 237 290 349
#     4  11  22  35  60  89 117 155 200 241 295 354
#     4   7  14  34  60  81 107 150 191 227 285 357
#
# _framework density 19.259789999999999
#
# number of rings (size 3 to 8) (size 9 to 14) (size 15 to 20)
#    0.000    2.500    1.250    3.000    3.500    2.250 
#    0.000    3.125    0.000    2.250    0.000    0.000 
#    0.000    0.000    0.000    0.000    0.000    0.000 
#
# Total GULP energy -792997.274289 kJ/mol
# GULP energy per Si atom -12390.582411 kJ/mol
# Density = 1.921595 g / cm^3
# Si number density = 19.259790 Si / 1000 Ang^3
#
#
#
# Elastic Constant Matrix: (Units=GPa)
#
#
# Indices 1 2 3 4 5 6 
#
# 1 58.8122 24.1645 44.4311 0.0000 0.0000 0.0000
# 2 24.1645 58.8124 44.4315 0.0000 0.0000 0.0000
# 3 44.4311 44.4315 152.1197 0.0000 0.0000 0.0000
# 4 0.0000 0.0000 0.0000 26.7590 0.0000 0.0000
# 5 0.0000 0.0000 0.0000 0.0000 26.7617 0.0000
# 6 0.0000 0.0000 0.0000 0.0000 0.0000 24.1439
#
#
#
# Elastic Compliance Matrix: (Units=1/GPa)
#
#
# Indices 1 2 3 4 5 6 
#
# 1 0.023199 -0.005662 -0.005122 0.000000 0.000000 0.000000
# 2 -0.005662 0.023200 -0.005122 0.000000 0.000000 0.000000
# 3 -0.005122 -0.005122 0.009566 0.000000 0.000000 0.000000
# 4 0.000000 0.000000 0.000000 0.037371 0.000000 0.000000
# 5 0.000000 0.000000 0.000000 0.000000 0.037367 0.000000
# 6 0.000000 0.000000 0.000000 0.000000 0.000000 0.041418
#
#
# Mechanical properties :
#
#
# Convention : Reuss Voigt Hill
#
# Bulk Modulus (GPa) = 41.40575 55.08873 48.24724
# Shear Modulus (GPa) = 23.58659 25.98075 24.78367
#
# Velocity S-wave (km/s) = 3.50330 3.67681 3.59110
# Velocity P-wave (km/s) = 6.15706 6.83303 6.50383
#
# Compressibility (1/GPa) = 0.02415124
#
# Stress axis : x y z
#
# Youngs Moduli (GPa) = 43.10441 43.10436 104.53685
#
# Poissons Ratio (x) = 0.24407 0.53546
# Poissons Ratio (y) = 0.24407 0.53547
# Poissons Ratio (z) = 0.22079 0.22079
#
# Static dielectric constant tensor:
#      x y z
#    x 3.268330 0.000000 0.000000 
#    y 0.000000 3.268320 0.000000 
#    z 0.000000 0.000000 3.921520 
# 
# 
# High freq. dielectric constant tensor:
#      x y z
#    x 1.725920 0.000000 0.000000 
#    y 0.000000 1.725920 0.000000 
#    z 0.000000 0.000000 1.766110 
# 
# From -- ./inp_files/4383.got.cif
#   From: 2010.06.25/outbox.cif.g09.slc.cpg/sg140_3_cif.got.tgz:4383.got - 2010.06.28 10:53:23.
