data_PCOD8320172
_publ_section_title
;
Structure prediction by ZEFSAII (Michael W. Deem and Ramdas Pophale) SiO2 
 PCOD8320172
Probable space group: I 4/M C M
;
_chemical_formula_sum "Si O2"
_cell_formula_units_Z 176
_cell_length_a 17.460604
_cell_length_b 17.460604
_cell_length_c 30.789679
_cell_angle_alpha 90.000000
_cell_angle_beta 90.000000
_cell_angle_gamma 90.000000
_cell_volume 9386.932324
_symmetry_space_group_name_H-M "I 4/M C M"
_symmetry_group_IT_number 140
_symmetry_cell_setting 'tetragonal'
loop_
_space_group_symop_operation_xyz
x,y,z
-y,x,z
-x,-y,z
y,-x,z
x,-y,1/2-z
-x,y,1/2-z
y,x,1/2-z
-y,-x,1/2-z
-x,-y,-z
y,-x,-z
x,y,-z
-y,x,-z
-x,y,1/2+z
x,-y,1/2+z
-y,-x,1/2+z
y,x,1/2+z
1/2+x,1/2+y,1/2+z
1/2-y,1/2+x,1/2+z
1/2-x,1/2-y,1/2+z
1/2+y,1/2-x,1/2+z
1/2+x,1/2-y,-z
1/2-x,1/2+y,-z
1/2+y,1/2+x,-z
1/2-y,1/2-x,-z
1/2-x,1/2-y,1/2-z
1/2+y,1/2-x,1/2-z
1/2+x,1/2+y,1/2-z
1/2-y,1/2+x,1/2-z
1/2-x,1/2+y,z
1/2+x,1/2-y,z
1/2-y,1/2-x,z
1/2+y,1/2+x,z
loop_
_atom_site_type_symbol
_atom_site_label
_atom_site_fract_x
_atom_site_fract_y
_atom_site_fract_z
Si Si1 0.471401 0.381076 0.551303
Si Si2 0.363498 0.738612 0.169997
Si Si3 0.710308 0.083726 0.743818
Si Si4 0.936599 0.563402 0.948472
Si Si5 0.974309 0.276380 0.403184
Si Si6 0.122817 0.749849 0.851006
O O1 0.555968 0.408763 0.566711
O O2 0.470074 0.374598 0.500000
O O3 0.449262 0.297803 0.569450
O O4 0.287381 0.787381 0.176686
O O5 0.399301 0.726829 0.218181
O O6 0.422883 0.782981 0.139635
O O7 0.335214 0.660002 0.146971
O O8 0.639942 0.139942 0.749217
O O9 0.748452 0.087545 0.696976
O O10 0.675478 0.000000 0.750000
O O11 0.963531 0.645675 0.930236
O O12 0.000000 0.500000 0.935373
O O13 0.929214 0.570787 0.000000
O O14 0.061481 0.263141 0.388759
O O15 0.183699 0.683699 0.858681
#
# Coordination Sequence:
#
# PCOD8320172 Si02
#       6
#    32  32  32  16  32  32
#     4   9  19  36  58  84 112 143 182 233 294 349
#     4  10  20  35  54  81 112 146 189 234 279 333
#     4  10  19  34  52  78 114 154 191 227 278 331
#     4  11  26  44  60  82 117 160 194 233 300 365
#     4  12  20  36  59  86 110 146 190 240 281 344
#     4  10  21  35  55  81 112 149 189 234 281 331
#
# _framework density 18.749469000000001
#
# number of rings (size 3 to 8) (size 9 to 14) (size 15 to 20)
#    0.000    1.727    2.727    3.273    0.000    2.364 
#    0.000    0.000    0.000    0.000    0.000    1.273 
#    0.000    0.000    0.000    0.000    0.000    0.000 
#
# Total GULP energy -1090641.655195 kJ/mol
# GULP energy per Si atom -12393.655173 kJ/mol
# Density = 1.870679 g / cm^3
# Si number density = 18.749469 Si / 1000 Ang^3
#
#
#
# Elastic Constant Matrix: (Units=GPa)
#
#
# Indices 1 2 3 4 5 6 
#
# 1 86.5058 19.9836 23.7236 0.0000 0.0000 0.0000
# 2 19.9836 86.5057 23.7236 0.0000 0.0000 0.0000
# 3 23.7236 23.7236 68.6391 0.0000 0.0000 0.0000
# 4 0.0000 0.0000 0.0000 29.2598 0.0000 0.0000
# 5 0.0000 0.0000 0.0000 0.0000 29.2597 0.0000
# 6 0.0000 0.0000 0.0000 0.0000 0.0000 -6.2420
#
#
#
# Elastic Compliance Matrix: (Units=1/GPa)
#
#
# Indices 1 2 3 4 5 6 
#
# 1 0.013066 -0.001966 -0.003836 0.000000 0.000000 0.000000
# 2 -0.001966 0.013066 -0.003836 0.000000 0.000000 0.000000
# 3 -0.003836 -0.003836 0.017221 0.000000 0.000000 0.000000
# 4 0.000000 0.000000 0.000000 0.034177 0.000000 0.000000
# 5 0.000000 0.000000 0.000000 0.000000 0.034177 0.000000
# 6 0.000000 0.000000 0.000000 0.000000 0.000000 -0.160204
#
#
# Mechanical properties :
#
#
# Convention : Reuss Voigt Hill
#
# Bulk Modulus (GPa) = 41.53682 41.83470 41.68576
# Shear Modulus (GPa) = -235.91481 22.07015 -106.92233
#
# Velocity S-wave (km/s) = -11.22933 3.43462 -7.55981
# Velocity P-wave (km/s) = 12.08010 6.17169 7.34299
#
# Compressibility (1/GPa) = 0.02407503
#
# Stress axis : x y z
#
# Youngs Moduli (GPa) = 76.53296 76.53282 58.06885
#
# Poissons Ratio (x) = 0.15049 0.22278
# Poissons Ratio (y) = 0.15049 0.22278
# Poissons Ratio (z) = 0.29362 0.29362
#
# Static dielectric constant tensor:
#      x y z
#    x 3.464750 0.000000 0.000000 
#    y 0.000000 3.464750 0.000000 
#    z 0.000000 0.000000 3.456150 
# 
# 
# High freq. dielectric constant tensor:
#      x y z
#    x 1.724940 0.000000 0.000000 
#    y 0.000000 1.724940 0.000000 
#    z 0.000000 0.000000 1.732020 
# 
# From -- ./inp_files/10668.got.cif
#   From: 2010.06.25/outbox.cif.g09.slc.cpg/sg140_6_cif.got.tgz:10668.got - 2010.06.28 10:53:23.
