data_PCOD8320590
_publ_section_title
;
Structure prediction by ZEFSAII (Michael W. Deem and Ramdas Pophale) SiO2 
 PCOD8320590
Probable space group: I 41/A M D
;
_chemical_formula_sum "Si O2"
_cell_formula_units_Z 160
_cell_length_a 20.216923
_cell_length_b 20.216923
_cell_length_c 19.041477
_cell_angle_alpha 90.000000
_cell_angle_beta 90.000000
_cell_angle_gamma 90.000000
_cell_volume 7782.708181
_symmetry_space_group_name_H-M "I 41/A M D"
_symmetry_group_IT_number 141
_space_group.IT_coordinate_system_code '2'
_symmetry_cell_setting 'tetragonal'
loop_
_space_group_symop_operation_xyz
x,y,z
1/4-y,3/4+x,1/4+z
-x,1/2-y,z
1/4+y,1/4-x,3/4+z
x,-y,-z
-x,1/2+y,-z
1/4+y,3/4+x,1/4-z
1/4-y,1/4-x,3/4-z
-x,-y,-z
3/4+y,1/4-x,3/4-z
x,1/2+y,-z
3/4-y,3/4+x,1/4-z
-x,y,z
x,1/2-y,z
3/4-y,1/4-x,3/4+z
3/4+y,3/4+x,1/4+z
1/2+x,1/2+y,1/2+z
3/4-y,1/4+x,3/4+z
1/2-x,-y,1/2+z
3/4+y,3/4-x,1/4+z
1/2+x,1/2-y,1/2-z
1/2-x,y,1/2-z
3/4+y,1/4+x,3/4-z
3/4-y,3/4-x,1/4-z
1/2-x,1/2-y,1/2-z
1/4+y,3/4-x,1/4-z
1/2+x,y,1/2-z
1/4-y,1/4+x,3/4-z
1/2-x,1/2+y,1/2+z
1/2+x,-y,1/2+z
1/4-y,3/4-x,1/4+z
1/4+y,1/4+x,3/4+z
loop_
_atom_site_type_symbol
_atom_site_label
_atom_site_fract_x
_atom_site_fract_y
_atom_site_fract_z
Si Si1 0.575491 0.457756 0.294988
Si Si2 0.077575 0.888770 0.194414
Si Si3 0.500000 0.828132 0.075803
Si Si4 0.880843 0.674763 0.330969
Si Si5 0.817792 0.250000 0.290781
Si Si6 0.812670 0.602064 0.697940
O O1 0.500000 0.442765 0.270745
O O2 0.590742 0.534259 0.300101
O O3 0.585369 0.436335 0.376058
O O4 0.622719 0.419115 0.241639
O O5 0.106393 0.856393 0.125000
O O6 0.121662 0.861995 0.257722
O O7 0.000000 0.870674 0.201423
O O8 0.500000 0.750000 0.060900
O O9 0.437618 0.853941 0.119092
O O10 0.500000 0.865280 0.003037
O O11 0.896899 0.750000 0.312998
O O12 0.750000 0.250000 0.250000
O O13 0.818041 0.321294 0.330305
O O14 0.809226 0.559226 0.625000
O O15 0.750000 0.590283 0.750000
#
# Coordination Sequence:
#
# PCOD8320590 Si02
#       6
#    32  32  16  32  16  32
#     4  10  24  43  64  91 129 175 214 261 331 401
#     4  11  24  40  63  94 128 167 213 275 335 390
#     4  10  18  34  64  90 118 160 214 267 319 380
#     4  10  20  38  65  91 119 164 215 262 320 387
#     4  10  22  40  64  96 130 167 213 271 332 387
#     4  11  26  44  68  98 131 173 222 272 327 393
#
# _framework density 20.558396999999999
#
# number of rings (size 3 to 8) (size 9 to 14) (size 15 to 20)
#    0.000    1.600    3.000    0.600    4.200    2.600 
#    0.000    3.000    0.000    0.000    0.000    0.000 
#    0.000    0.000    0.000    0.000    0.000    0.000 
#
# Total GULP energy -991314.197433 kJ/mol
# GULP energy per Si atom -12391.427468 kJ/mol
# Density = 2.051160 g / cm^3
# Si number density = 20.558397 Si / 1000 Ang^3
#
#
#
# Elastic Constant Matrix: (Units=GPa)
#
#
# Indices 1 2 3 4 5 6 
#
# 1 82.2171 46.2083 47.8455 0.0000 0.0000 0.0000
# 2 46.2083 82.2171 47.8455 0.0000 0.0000 0.0000
# 3 47.8455 47.8455 103.9412 0.0000 0.0000 0.0000
# 4 0.0000 0.0000 0.0000 25.0842 0.0000 0.0000
# 5 0.0000 0.0000 0.0000 0.0000 25.0842 0.0000
# 6 0.0000 0.0000 0.0000 0.0000 0.0000 -11.4720
#
#
#
# Elastic Compliance Matrix: (Units=1/GPa)
#
#
# Indices 1 2 3 4 5 6 
#
# 1 0.019811 -0.007960 -0.005455 0.000000 0.000000 0.000000
# 2 -0.007960 0.019811 -0.005455 0.000000 0.000000 0.000000
# 3 -0.005455 -0.005455 0.014643 0.000000 0.000000 0.000000
# 4 0.000000 0.000000 0.000000 0.039866 0.000000 0.000000
# 5 0.000000 0.000000 0.000000 0.000000 0.039866 0.000000
# 6 0.000000 0.000000 0.000000 0.000000 0.000000 -0.087169
#
#
# Mechanical properties :
#
#
# Convention : Reuss Voigt Hill
#
# Bulk Modulus (GPa) = 60.51584 61.35267 60.93426
# Shear Modulus (GPa) = 55.50768 16.17103 35.83935
#
# Velocity S-wave (km/s) = 5.20179 2.80766 4.17981
# Velocity P-wave (km/s) = 8.09803 6.35756 7.28000
#
# Compressibility (1/GPa) = 0.01652460
#
# Stress axis : x y z
#
# Youngs Moduli (GPa) = 50.47646 50.47646 68.29097
#
# Poissons Ratio (x) = 0.40178 0.37256
# Poissons Ratio (y) = 0.40178 0.37256
# Poissons Ratio (z) = 0.27537 0.27537
#
# Static dielectric constant tensor:
#      x y z
#    x 3.943770 0.000000 0.000000 
#    y 0.000000 3.943770 0.000000 
#    z 0.000000 0.000000 3.659240 
# 
# 
# High freq. dielectric constant tensor:
#      x y z
#    x 1.809240 0.000000 0.000000 
#    y 0.000000 1.809240 0.000000 
#    z 0.000000 0.000000 1.796320 
# 
# From -- ./inp_files/8653.got.cif
#   From: 2010.03.12/outbox.cif.g09.slc.cpg/sg141_5_cif.got.tgz:8653.got - 2010.04.03 13:18:35.
