data_PCOD8320916
_publ_section_title
;
Structure prediction by ZEFSAII (Michael W. Deem and Ramdas Pophale) SiO2 
 PCOD8320916
Probable space group: I 41/A M D
;
_chemical_formula_sum "Si O2"
_cell_formula_units_Z 144
_cell_length_a 19.587211
_cell_length_b 19.587211
_cell_length_c 19.096327
_cell_angle_alpha 90.000000
_cell_angle_beta 90.000000
_cell_angle_gamma 90.000000
_cell_volume 7326.474565
_symmetry_space_group_name_H-M "I 41/A M D"
_symmetry_group_IT_number 141
_space_group.IT_coordinate_system_code '2'
_symmetry_cell_setting 'tetragonal'
loop_
_space_group_symop_operation_xyz
x,y,z
1/4-y,3/4+x,1/4+z
-x,1/2-y,z
1/4+y,1/4-x,3/4+z
x,-y,-z
-x,1/2+y,-z
1/4+y,3/4+x,1/4-z
1/4-y,1/4-x,3/4-z
-x,-y,-z
3/4+y,1/4-x,3/4-z
x,1/2+y,-z
3/4-y,3/4+x,1/4-z
-x,y,z
x,1/2-y,z
3/4-y,1/4-x,3/4+z
3/4+y,3/4+x,1/4+z
1/2+x,1/2+y,1/2+z
3/4-y,1/4+x,3/4+z
1/2-x,-y,1/2+z
3/4+y,3/4-x,1/4+z
1/2+x,1/2-y,1/2-z
1/2-x,y,1/2-z
3/4+y,1/4+x,3/4-z
3/4-y,3/4-x,1/4-z
1/2-x,1/2-y,1/2-z
1/4+y,3/4-x,1/4-z
1/2+x,y,1/2-z
1/4-y,1/4+x,3/4-z
1/2-x,1/2+y,1/2+z
1/2+x,-y,1/2+z
1/4-y,3/4-x,1/4+z
1/4+y,1/4+x,3/4+z
loop_
_atom_site_type_symbol
_atom_site_label
_atom_site_fract_x
_atom_site_fract_y
_atom_site_fract_z
Si Si1 0.078656 0.601698 0.831981
Si Si2 0.000000 0.154875 0.414616
Si Si3 0.500000 0.996931 0.877467
Si Si4 0.766508 0.430538 0.674595
Si Si5 0.892399 0.250000 0.180375
Si Si6 0.130873 0.549846 0.687112
O O1 0.121527 0.558040 0.886435
O O2 0.081640 0.680840 0.856890
O O3 0.115176 0.594359 0.756233
O O4 0.000000 0.576700 0.829642
O O5 0.933338 0.183338 0.375000
O O6 0.000000 0.073767 0.418795
O O7 0.000000 0.178740 0.494214
O O8 0.566918 0.999219 0.829136
O O9 0.500000 0.059753 0.931245
O O10 0.702200 0.452200 0.625000
O O11 0.750000 0.397401 0.750000
O O12 0.805675 0.499795 0.696079
O O13 0.146806 0.603195 0.625000
#
# Coordination Sequence:
#
# PCOD8320916 Si02
#       6
#    32  16  16  32  16  32
#     4  12  25  42  64  92 129 170 211 259 315 379
#     4  11  25  38  53  84 130 178 214 254 295 362
#     4  12  20  38  56  83 121 168 216 248 303 358
#     4  11  23  43  67  94 125 157 205 266 323 372
#     4  12  25  39  58  88 126 167 212 255 303 360
#     4  11  23  37  61  92 128 167 210 257 309 365
#
# _framework density 19.654747
#
# number of rings (size 3 to 8) (size 9 to 14) (size 15 to 20)
#    0.000    0.556    5.556    4.000    3.111    0.444 
#    0.000    0.000    0.000    0.000    0.000    0.000 
#    0.000    0.000    0.000    0.000    0.000    0.000 
#
# Total GULP energy -892506.416881 kJ/mol
# GULP energy per Si atom -12395.922457 kJ/mol
# Density = 1.961001 g / cm^3
# Si number density = 19.654747 Si / 1000 Ang^3
#
#
#
# Elastic Constant Matrix: (Units=GPa)
#
#
# Indices 1 2 3 4 5 6 
#
# 1 99.4715 36.6284 49.1201 0.0000 0.0000 0.0000
# 2 36.6284 99.4712 49.1201 0.0000 0.0000 0.0000
# 3 49.1201 49.1201 135.3120 0.0000 0.0000 0.0000
# 4 0.0000 0.0000 0.0000 30.2079 0.0000 0.0000
# 5 0.0000 0.0000 0.0000 0.0000 30.2080 0.0000
# 6 0.0000 0.0000 0.0000 0.0000 0.0000 26.6252
#
#
#
# Elastic Compliance Matrix: (Units=1/GPa)
#
#
# Indices 1 2 3 4 5 6 
#
# 1 0.012935 -0.002978 -0.003614 0.000000 0.000000 0.000000
# 2 -0.002978 0.012935 -0.003614 0.000000 0.000000 0.000000
# 3 -0.003614 -0.003614 0.010014 0.000000 0.000000 0.000000
# 4 0.000000 0.000000 0.000000 0.033104 0.000000 0.000000
# 5 0.000000 0.000000 0.000000 0.000000 0.033104 0.000000
# 6 0.000000 0.000000 0.000000 0.000000 0.000000 0.037558
#
#
# Mechanical properties :
#
#
# Convention : Reuss Voigt Hill
#
# Bulk Modulus (GPa) = 64.64109 67.11021 65.87565
# Shear Modulus (GPa) = 30.26271 30.70064 30.48168
#
# Velocity S-wave (km/s) = 3.92818 3.95650 3.94236
# Velocity P-wave (km/s) = 7.31668 7.42230 7.36968
#
# Compressibility (1/GPa) = 0.01547004
#
# Stress axis : x y z
#
# Youngs Moduli (GPa) = 77.31231 77.31202 99.85590
#
# Poissons Ratio (x) = 0.23024 0.36091
# Poissons Ratio (y) = 0.23024 0.36091
# Poissons Ratio (z) = 0.27943 0.27943
#
# Static dielectric constant tensor:
#      x y z
#    x 3.581620 0.000000 0.000000 
#    y 0.000000 3.581620 0.000000 
#    z 0.000000 0.000000 3.458790 
# 
# 
# High freq. dielectric constant tensor:
#      x y z
#    x 1.768080 0.000000 0.000000 
#    y 0.000000 1.768080 0.000000 
#    z 0.000000 0.000000 1.743440 
# 
# From -- ./inp_files/8496.got.cif
#   From: 2010.03.12/outbox.cif.g09.slc.cpg/sg141_5_cif.got.tgz:8496.got - 2010.04.03 13:18:35.
