data_PCOD8320112
_publ_section_title
;
Structure prediction by ZEFSAII (Michael W. Deem and Ramdas Pophale) SiO2 
 PCOD8320112
Probable space group: I 4/M C M
;
_chemical_formula_sum "Si O2"
_cell_formula_units_Z 192
_cell_length_a 20.847353
_cell_length_b 20.847353
_cell_length_c 25.834134
_cell_angle_alpha 90.000000
_cell_angle_beta 90.000000
_cell_angle_gamma 90.000000
_cell_volume 11227.827930
_symmetry_space_group_name_H-M "I 4/M C M"
_symmetry_group_IT_number 140
_symmetry_cell_setting 'tetragonal'
loop_
_space_group_symop_operation_xyz
x,y,z
-y,x,z
-x,-y,z
y,-x,z
x,-y,1/2-z
-x,y,1/2-z
y,x,1/2-z
-y,-x,1/2-z
-x,-y,-z
y,-x,-z
x,y,-z
-y,x,-z
-x,y,1/2+z
x,-y,1/2+z
-y,-x,1/2+z
y,x,1/2+z
1/2+x,1/2+y,1/2+z
1/2-y,1/2+x,1/2+z
1/2-x,1/2-y,1/2+z
1/2+y,1/2-x,1/2+z
1/2+x,1/2-y,-z
1/2-x,1/2+y,-z
1/2+y,1/2+x,-z
1/2-y,1/2-x,-z
1/2-x,1/2-y,1/2-z
1/2+y,1/2-x,1/2-z
1/2+x,1/2+y,1/2-z
1/2-y,1/2+x,1/2-z
1/2-x,1/2+y,z
1/2+x,1/2-y,z
1/2-y,1/2-x,z
1/2+y,1/2+x,z
loop_
_atom_site_type_symbol
_atom_site_label
_atom_site_fract_x
_atom_site_fract_y
_atom_site_fract_z
Si Si1 0.747126 0.647845 0.252266
Si Si2 0.579163 0.714313 0.850841
Si Si3 0.470066 0.785766 0.805424
Si Si4 0.419978 0.434232 0.689499
Si Si5 0.411694 0.193451 0.058744
Si Si6 0.999525 0.602729 0.880100
O O1 0.674781 0.674781 0.250000
O O2 0.796287 0.703714 0.243979
O O3 0.757458 0.616585 0.308573
O O4 0.757837 0.600651 0.203859
O O5 0.504835 0.729552 0.838070
O O6 0.596505 0.638735 0.843624
O O7 0.595802 0.741301 0.907648
O O8 0.500000 0.798858 0.750000
O O9 0.471036 0.854023 0.834246
O O10 0.490688 0.411603 0.674635
O O11 0.415487 0.415487 0.750000
O O12 0.346024 0.153977 0.064061
O O13 0.472017 0.149413 0.075732
O O14 0.423830 0.215091 0.000000
O O15 0.056747 0.556747 0.858968
O O16 0.941688 0.558313 0.902490
#
# Coordination Sequence:
#
# PCOD8320112 Si02
#       6
#    32  32  32  32  32  32
#     4  10  20  30  43  67  99 133 166 196 233 287
#     4  10  19  30  50  70  95 128 164 200 244 290
#     4   9  19  29  42  65  96 133 165 198 238 291
#     4   9  19  31  49  77 105 129 154 192 241 296
#     4   9  18  33  51  72  97 126 168 216 252 286
#     4   9  17  29  46  69  96 128 166 208 255 301
#
# _framework density 17.100369000000001
#
# number of rings (size 3 to 8) (size 9 to 14) (size 15 to 20)
#    0.000    2.667    0.000    2.000    9.333    5.000 
#    0.000    2.500    0.000    1.000    0.000    1.167 
#    0.000    0.000    0.000    0.000    0.000    0.000 
#
# Total GULP energy -1189290.886447 kJ/mol
# GULP energy per Si atom -12388.446734 kJ/mol
# Density = 1.706145 g / cm^3
# Si number density = 17.100369 Si / 1000 Ang^3
#
#
#
# Elastic Constant Matrix: (Units=GPa)
#
#
# Indices 1 2 3 4 5 6 
#
# 1 93.2398 21.8763 40.7279 0.0000 0.0000 0.0000
# 2 21.8763 93.2398 40.7279 0.0000 0.0000 0.0000
# 3 40.7279 40.7279 103.4272 0.0000 0.0000 0.0000
# 4 0.0000 0.0000 0.0000 19.9121 0.0000 0.0000
# 5 0.0000 0.0000 0.0000 0.0000 19.9121 0.0000
# 6 0.0000 0.0000 0.0000 0.0000 0.0000 21.8749
#
#
#
# Elastic Compliance Matrix: (Units=1/GPa)
#
#
# Indices 1 2 3 4 5 6 
#
# 1 0.013028 -0.000985 -0.004742 0.000000 0.000000 0.000000
# 2 -0.000985 0.013028 -0.004742 0.000000 0.000000 0.000000
# 3 -0.004742 -0.004742 0.013403 0.000000 0.000000 0.000000
# 4 0.000000 0.000000 0.000000 0.050221 0.000000 0.000000
# 5 0.000000 0.000000 0.000000 0.000000 0.050221 0.000000
# 6 0.000000 0.000000 0.000000 0.000000 0.000000 0.045714
#
#
# Mechanical properties :
#
#
# Convention : Reuss Voigt Hill
#
# Bulk Modulus (GPa) = 53.99646 55.17459 54.58553
# Shear Modulus (GPa) = 23.50435 24.77812 24.14123
#
# Velocity S-wave (km/s) = 3.71144 3.81068 3.76139
# Velocity P-wave (km/s) = 7.07185 7.19005 7.13120
#
# Compressibility (1/GPa) = 0.01851973
#
# Stress axis : x y z
#
# Youngs Moduli (GPa) = 76.76032 76.76032 74.60819
#
# Poissons Ratio (x) = 0.07562 0.35380
# Poissons Ratio (y) = 0.07562 0.35380
# Poissons Ratio (z) = 0.36400 0.36400
#
# Static dielectric constant tensor:
#      x y z
#    x 3.310800 0.000000 0.000000 
#    y 0.000000 3.310800 0.000000 
#    z 0.000000 0.000000 2.891840 
# 
# 
# High freq. dielectric constant tensor:
#      x y z
#    x 1.662870 0.000000 0.000000 
#    y 0.000000 1.662870 0.000000 
#    z 0.000000 0.000000 1.613130 
# 
# From -- ./inp_files/9790.got.cif
#   From: 2010.06.25/outbox.cif.g09.slc.cpg/sg140_5_cif.got.tgz:9790.got - 2010.06.28 10:53:23.
