data_PCOD8320570
_publ_section_title
;
Structure prediction by ZEFSAII (Michael W. Deem and Ramdas Pophale) SiO2 
 PCOD8320570
Probable space group: I 41/A M D
;
_chemical_formula_sum "Si O2"
_cell_formula_units_Z 160
_cell_length_a 27.993307
_cell_length_b 27.993307
_cell_length_c 12.337518
_cell_angle_alpha 90.000000
_cell_angle_beta 90.000000
_cell_angle_gamma 90.000000
_cell_volume 9667.990464
_symmetry_space_group_name_H-M "I 41/A M D"
_symmetry_group_IT_number 141
_space_group.IT_coordinate_system_code '2'
_symmetry_cell_setting 'tetragonal'
loop_
_space_group_symop_operation_xyz
x,y,z
1/4-y,3/4+x,1/4+z
-x,1/2-y,z
1/4+y,1/4-x,3/4+z
x,-y,-z
-x,1/2+y,-z
1/4+y,3/4+x,1/4-z
1/4-y,1/4-x,3/4-z
-x,-y,-z
3/4+y,1/4-x,3/4-z
x,1/2+y,-z
3/4-y,3/4+x,1/4-z
-x,y,z
x,1/2-y,z
3/4-y,1/4-x,3/4+z
3/4+y,3/4+x,1/4+z
1/2+x,1/2+y,1/2+z
3/4-y,1/4+x,3/4+z
1/2-x,-y,1/2+z
3/4+y,3/4-x,1/4+z
1/2+x,1/2-y,1/2-z
1/2-x,y,1/2-z
3/4+y,1/4+x,3/4-z
3/4-y,3/4-x,1/4-z
1/2-x,1/2-y,1/2-z
1/4+y,3/4-x,1/4-z
1/2+x,y,1/2-z
1/4-y,1/4+x,3/4-z
1/2-x,1/2+y,1/2+z
1/2+x,-y,1/2+z
1/4-y,3/4-x,1/4+z
1/4+y,1/4+x,3/4+z
loop_
_atom_site_type_symbol
_atom_site_label
_atom_site_fract_x
_atom_site_fract_y
_atom_site_fract_z
Si Si1 0.698667 0.195329 0.485207
Si Si2 0.121744 0.696123 0.411996
Si Si3 0.628981 0.306213 0.665167
Si Si4 0.701376 0.695740 0.916681
Si Si5 0.054932 0.386818 0.525383
O O1 0.712123 0.250000 0.508541
O O2 0.674838 0.174366 0.595682
O O3 0.748002 0.169758 0.445537
O O4 0.659625 0.189933 0.392526
O O5 0.100952 0.750000 0.414111
O O6 0.135658 0.680622 0.290618
O O7 0.171112 0.692766 0.474822
O O8 0.083185 0.662876 0.471315
O O9 0.580467 0.330467 0.625000
O O10 0.622782 0.250000 0.644538
O O11 0.712140 0.750000 0.880146
O O12 0.672592 0.672433 0.815336
O O13 0.000000 0.375119 0.495633
#
# Coordination Sequence:
#
# PCOD8320570 Si02
#       5
#    32  32  32  32  32
#     4   9  17  30  48  67  88 120 161 201 238 270
#     4  10  20  31  45  68  99 129 155 188 232 284
#     4  10  19  31  46  66  94 127 159 194 233 278
#     4   9  18  31  46  66  91 121 158 198 238 275
#     4  10  18  30  48  68  95 128 161 195 227 271
#
# _framework density 16.549457
#
# number of rings (size 3 to 8) (size 9 to 14) (size 15 to 20)
#    0.000    2.400    2.000    1.200    0.000    3.800 
#    0.000    6.000    0.000    3.600    0.000    0.000 
#    0.000    9.600    0.000    0.000    0.000    0.000 
#
# Total GULP energy -991457.509047 kJ/mol
# GULP energy per Si atom -12393.218863 kJ/mol
# Density = 1.651179 g / cm^3
# Si number density = 16.549457 Si / 1000 Ang^3
#
#
#
# Elastic Constant Matrix: (Units=GPa)
#
#
# Indices 1 2 3 4 5 6 
#
# 1 59.9274 32.5912 21.3025 0.0000 0.0000 0.0000
# 2 32.5912 59.9274 21.3025 0.0000 0.0000 0.0000
# 3 21.3025 21.3025 91.2751 0.0000 0.0000 0.0000
# 4 0.0000 0.0000 0.0000 20.0317 0.0000 0.0000
# 5 0.0000 0.0000 0.0000 0.0000 20.0317 0.0000
# 6 0.0000 0.0000 0.0000 0.0000 0.0000 3.0905
#
#
#
# Elastic Compliance Matrix: (Units=1/GPa)
#
#
# Indices 1 2 3 4 5 6 
#
# 1 0.024346 -0.012236 -0.002826 0.000000 0.000000 0.000000
# 2 -0.012236 0.024346 -0.002826 0.000000 0.000000 0.000000
# 3 -0.002826 -0.002826 0.012275 0.000000 0.000000 0.000000
# 4 0.000000 0.000000 0.000000 0.049921 0.000000 0.000000
# 5 0.000000 0.000000 0.000000 0.000000 0.049921 0.000000
# 6 0.000000 0.000000 0.000000 0.000000 0.000000 0.323570
#
#
# Mechanical properties :
#
#
# Convention : Reuss Voigt Hill
#
# Bulk Modulus (GPa) = 39.69819 40.16914 39.93366
# Shear Modulus (GPa) = 9.45982 17.69305 13.57643
#
# Velocity S-wave (km/s) = 2.39343 3.27326 2.86729
# Velocity P-wave (km/s) = 5.62829 6.21373 5.92825
#
# Compressibility (1/GPa) = 0.02519007
#
# Stress axis : x y z
#
# Youngs Moduli (GPa) = 41.07485 41.07485 81.46534
#
# Poissons Ratio (x) = 0.50258 0.23025
# Poissons Ratio (y) = 0.50258 0.23025
# Poissons Ratio (z) = 0.11609 0.11609
#
# Static dielectric constant tensor:
#      x y z
#    x 2.990020 0.000000 0.000000 
#    y 0.000000 2.990020 0.000000 
#    z 0.000000 0.000000 3.360280 
# 
# 
# High freq. dielectric constant tensor:
#      x y z
#    x 1.604950 0.000000 0.000000 
#    y 0.000000 1.604950 0.000000 
#    z 0.000000 0.000000 1.661340 
# 
# From -- ./inp_files/4840.got.cif
#   From: 2010.03.12/outbox.cif.g09.slc.cpg/sg141_3_cif.got.tgz:4840.got - 2010.04.03 13:18:35.
