data_PCOD8320210
_publ_section_title
;
Structure prediction by ZEFSAII (Michael W. Deem and Ramdas Pophale) SiO2 
 PCOD8320210
Probable space group: I 4/M C M
;
_chemical_formula_sum "Si O2"
_cell_formula_units_Z 224
_cell_length_a 23.545958
_cell_length_b 23.545958
_cell_length_c 23.656117
_cell_angle_alpha 90.000000
_cell_angle_beta 90.000000
_cell_angle_gamma 90.000000
_cell_volume 13115.238406
_symmetry_space_group_name_H-M "I 4/M C M"
_symmetry_group_IT_number 140
_symmetry_cell_setting 'tetragonal'
loop_
_space_group_symop_operation_xyz
x,y,z
-y,x,z
-x,-y,z
y,-x,z
x,-y,1/2-z
-x,y,1/2-z
y,x,1/2-z
-y,-x,1/2-z
-x,-y,-z
y,-x,-z
x,y,-z
-y,x,-z
-x,y,1/2+z
x,-y,1/2+z
-y,-x,1/2+z
y,x,1/2+z
1/2+x,1/2+y,1/2+z
1/2-y,1/2+x,1/2+z
1/2-x,1/2-y,1/2+z
1/2+y,1/2-x,1/2+z
1/2+x,1/2-y,-z
1/2-x,1/2+y,-z
1/2+y,1/2+x,-z
1/2-y,1/2-x,-z
1/2-x,1/2-y,1/2-z
1/2+y,1/2-x,1/2-z
1/2+x,1/2+y,1/2-z
1/2-y,1/2+x,1/2-z
1/2-x,1/2+y,z
1/2+x,1/2-y,z
1/2-y,1/2-x,z
1/2+y,1/2+x,z
loop_
_atom_site_type_symbol
_atom_site_label
_atom_site_fract_x
_atom_site_fract_y
_atom_site_fract_z
Si Si1 0.658397 0.434708 0.247801
Si Si2 0.569055 0.248196 0.659849
Si Si3 0.247861 0.159120 0.935344
Si Si4 0.062172 0.249932 0.157399
Si Si5 0.841827 0.565976 0.245461
Si Si6 0.315459 0.617822 0.434646
Si Si7 0.925496 0.949788 0.432897
O O1 0.639540 0.500000 0.250000
O O2 0.601889 0.398112 0.250000
O O3 0.692062 0.418533 0.190601
O O4 0.698893 0.422401 0.300564
O O5 0.605365 0.239766 0.603609
O O6 0.503780 0.247190 0.641845
O O7 0.584210 0.197112 0.702043
O O8 0.289635 0.210366 0.919159
O O9 0.184489 0.180476 0.925128
O O10 0.256543 0.139536 0.000000
O O11 0.079827 0.308936 0.187023
O O12 0.096509 0.239645 0.099595
O O13 0.856960 0.500000 0.250000
O O14 0.900178 0.599823 0.246661
O O15 0.306041 0.602345 0.500000
O O16 0.372041 0.586253 0.410435
O O17 0.926062 0.948405 0.500000
O O18 0.984771 0.921684 0.411239
#
# Coordination Sequence:
#
# PCOD8320210 Si02
#       7
#    32  32  32  32  32  32  32
#     4   9  17  31  48  65  91 125 165 210 248 286
#     4   9  18  33  53  70  94 129 161 201 242 289
#     4  10  21  34  48  71 100 130 167 209 251 292
#     4   9  19  32  48  73  98 126 165 200 238 293
#     4   9  18  34  56  81 102 122 151 192 246 303
#     4  10  20  31  47  69  99 138 172 209 255 296
#     4   8  15  28  44  64  92 126 170 220 259 292
#
# _framework density 17.079369
#
# number of rings (size 3 to 8) (size 9 to 14) (size 15 to 20)
#    0.000    2.857    0.000    3.429    2.000    1.429 
#    0.000    0.000    0.000    4.714    0.000    0.000 
#    0.000    0.000    0.000   15.143    0.000    0.000 
#
# Total GULP energy -1388550.576880 kJ/mol
# GULP energy per Si atom -12397.773008 kJ/mol
# Density = 1.704050 g / cm^3
# Si number density = 17.079369 Si / 1000 Ang^3
#
#
#
# Elastic Constant Matrix: (Units=GPa)
#
#
# Indices 1 2 3 4 5 6 
#
# 1 87.7318 64.4273 48.5273 0.0000 0.0000 0.0000
# 2 64.4273 87.7304 48.5276 0.0000 0.0000 0.0000
# 3 48.5273 48.5276 82.5947 0.0000 0.0000 0.0000
# 4 0.0000 0.0000 0.0000 22.0274 0.0000 0.0000
# 5 0.0000 0.0000 0.0000 0.0000 22.0270 0.0000
# 6 0.0000 0.0000 0.0000 0.0000 0.0000 33.7580
#
#
#
# Elastic Compliance Matrix: (Units=1/GPa)
#
#
# Indices 1 2 3 4 5 6 
#
# 1 0.026711 -0.016200 -0.006176 0.000000 0.000000 0.000000
# 2 -0.016200 0.026712 -0.006176 0.000000 0.000000 0.000000
# 3 -0.006176 -0.006176 0.019364 0.000000 0.000000 0.000000
# 4 0.000000 0.000000 0.000000 0.045398 0.000000 0.000000
# 5 0.000000 0.000000 0.000000 0.000000 0.045399 0.000000
# 6 0.000000 0.000000 0.000000 0.000000 0.000000 0.029623
#
#
# Mechanical properties :
#
#
# Convention : Reuss Voigt Hill
#
# Bulk Modulus (GPa) = 63.75997 64.55793 64.15895
# Shear Modulus (GPa) = 19.56657 22.00078 20.78367
#
# Velocity S-wave (km/s) = 3.38838 3.59297 3.49218
# Velocity P-wave (km/s) = 7.26091 7.42250 7.34215
#
# Compressibility (1/GPa) = 0.01568382
#
# Stress axis : x y z
#
# Youngs Moduli (GPa) = 37.43781 37.43667 51.64119
#
# Poissons Ratio (x) = 0.60647 0.31891
# Poissons Ratio (y) = 0.60649 0.31894
# Poissons Ratio (z) = 0.23120 0.23121
#
# Static dielectric constant tensor:
#      x y z
#    x 3.092020 0.000000 0.000000 
#    y 0.000000 3.092020 0.000000 
#    z 0.000000 0.000000 3.148240 
# 
# 
# High freq. dielectric constant tensor:
#      x y z
#    x 1.648660 0.000000 0.000000 
#    y 0.000000 1.648660 0.000000 
#    z 0.000000 0.000000 1.653930 
# 
# From -- ./inp_files/9996.got.cif
#   From: 2010.06.25/outbox.cif.g09.slc.cpg/sg140_5_cif.got.tgz:9996.got - 2010.06.28 10:53:23.
