data_PCOD8320362
_publ_section_title
;
Structure prediction by ZEFSAII (Michael W. Deem and Ramdas Pophale) SiO2 
 PCOD8320362
Probable space group: I 4/M C M
;
_chemical_formula_sum "Si O2"
_cell_formula_units_Z 112
_cell_length_a 17.868674
_cell_length_b 17.868674
_cell_length_c 16.249948
_cell_angle_alpha 90.000000
_cell_angle_beta 90.000000
_cell_angle_gamma 90.000000
_cell_volume 5188.437943
_symmetry_space_group_name_H-M "I 4/M C M"
_symmetry_group_IT_number 140
_symmetry_cell_setting 'tetragonal'
loop_
_space_group_symop_operation_xyz
x,y,z
-y,x,z
-x,-y,z
y,-x,z
x,-y,1/2-z
-x,y,1/2-z
y,x,1/2-z
-y,-x,1/2-z
-x,-y,-z
y,-x,-z
x,y,-z
-y,x,-z
-x,y,1/2+z
x,-y,1/2+z
-y,-x,1/2+z
y,x,1/2+z
1/2+x,1/2+y,1/2+z
1/2-y,1/2+x,1/2+z
1/2-x,1/2-y,1/2+z
1/2+y,1/2-x,1/2+z
1/2+x,1/2-y,-z
1/2-x,1/2+y,-z
1/2+y,1/2+x,-z
1/2-y,1/2-x,-z
1/2-x,1/2-y,1/2-z
1/2+y,1/2-x,1/2-z
1/2+x,1/2+y,1/2-z
1/2-y,1/2+x,1/2-z
1/2-x,1/2+y,z
1/2+x,1/2-y,z
1/2-y,1/2-x,z
1/2+y,1/2+x,z
loop_
_atom_site_type_symbol
_atom_site_label
_atom_site_fract_x
_atom_site_fract_y
_atom_site_fract_z
Si Si1 0.925935 0.909322 0.903419
Si Si2 0.175788 0.209402 0.342262
Si Si3 0.828047 0.451068 0.831634
Si Si4 0.497634 0.877363 0.000000
O O1 0.871818 0.840407 0.880579
O O2 0.010289 0.895613 0.868883
O O3 0.929656 0.914458 0.000000
O O4 0.198793 0.198793 0.250000
O O5 0.244635 0.255366 0.386224
O O6 0.101273 0.257652 0.346700
O O7 0.816055 0.500000 0.750000
O O8 0.904446 0.404446 0.819212
O O9 0.830076 0.500820 0.915158
O O10 0.568991 0.931010 0.000000
O O11 0.420022 0.920022 0.000000
#
# Coordination Sequence:
#
# PCOD8320362 Si02
#       4
#    32  32  32  16
#     4   9  20  39  64  93 120 153 203 264 320 373
#     4  10  23  39  57  86 124 164 207 254 315 389
#     4  10  21  36  58  86 122 165 208 263 320 375
#     4   9  18  34  58  88 118 157 214 262 309 378
#
# _framework density 21.586459000000001
#
# number of rings (size 3 to 8) (size 9 to 14) (size 15 to 20)
#    0.000    2.429    0.000    1.714    6.000    2.000 
#    0.000    1.429    0.000    0.000    0.000    0.000 
#    0.000    0.000    0.000    0.000    0.000    0.000 
#
# Total GULP energy -693887.630094 kJ/mol
# GULP energy per Si atom -12390.850537 kJ/mol
# Density = 2.153733 g / cm^3
# Si number density = 21.586459 Si / 1000 Ang^3
#
#
#
# Elastic Constant Matrix: (Units=GPa)
#
#
# Indices 1 2 3 4 5 6 
#
# 1 80.2394 28.0478 14.7030 0.0000 0.0000 0.0000
# 2 28.0478 80.2402 14.7022 0.0000 0.0000 0.0000
# 3 14.7030 14.7022 94.5884 0.0000 0.0000 0.0000
# 4 0.0000 0.0000 0.0000 30.3362 0.0000 0.0000
# 5 0.0000 0.0000 0.0000 0.0000 30.3359 0.0000
# 6 0.0000 0.0000 0.0000 0.0000 0.0000 32.1945
#
#
#
# Elastic Compliance Matrix: (Units=1/GPa)
#
#
# Indices 1 2 3 4 5 6 
#
# 1 0.014401 -0.004759 -0.001499 0.000000 0.000000 0.000000
# 2 -0.004759 0.014401 -0.001499 0.000000 0.000000 0.000000
# 3 -0.001499 -0.001499 0.011038 0.000000 0.000000 0.000000
# 4 0.000000 0.000000 0.000000 0.032964 0.000000 0.000000
# 5 0.000000 0.000000 0.000000 0.000000 0.032964 0.000000
# 6 0.000000 0.000000 0.000000 0.000000 0.000000 0.031061
#
#
# Mechanical properties :
#
#
# Convention : Reuss Voigt Hill
#
# Bulk Modulus (GPa) = 41.10726 41.10819 41.10773
# Shear Modulus (GPa) = 31.16217 31.74766 31.45491
#
# Velocity S-wave (km/s) = 3.80359 3.83916 3.82142
# Velocity P-wave (km/s) = 6.19469 6.22391 6.20932
#
# Compressibility (1/GPa) = 0.02432661
#
# Stress axis : x y z
#
# Youngs Moduli (GPa) = 69.44003 69.44093 90.59598
#
# Poissons Ratio (x) = 0.33048 0.13578
# Poissons Ratio (y) = 0.33048 0.13576
# Poissons Ratio (z) = 0.10407 0.10406
#
# Static dielectric constant tensor:
#      x y z
#    x 4.505920 0.000000 0.000000 
#    y 0.000000 4.505920 0.000000 
#    z 0.000000 0.000000 3.769170 
# 
# 
# High freq. dielectric constant tensor:
#      x y z
#    x 1.844920 0.000000 0.000000 
#    y 0.000000 1.844920 0.000000 
#    z 0.000000 0.000000 1.837200 
# 
# From -- ./inp_files/6062.got.cif
#   From: 2010.06.25/outbox.cif.g09.slc.cpg/sg140_4_cif.got.tgz:6062.got - 2010.06.28 10:53:23.
