data_PCOD8320302
_publ_section_title
;
Structure prediction by ZEFSAII (Michael W. Deem and Ramdas Pophale) SiO2 
 PCOD8320302
Probable space group: I 4/M C M
;
_chemical_formula_sum "Si O2"
_cell_formula_units_Z 144
_cell_length_a 20.458908
_cell_length_b 20.458908
_cell_length_c 16.389885
_cell_angle_alpha 90.000000
_cell_angle_beta 90.000000
_cell_angle_gamma 90.000000
_cell_volume 6860.263627
_symmetry_space_group_name_H-M "I 4/M C M"
_symmetry_group_IT_number 140
_symmetry_cell_setting 'tetragonal'
loop_
_space_group_symop_operation_xyz
x,y,z
-y,x,z
-x,-y,z
y,-x,z
x,-y,1/2-z
-x,y,1/2-z
y,x,1/2-z
-y,-x,1/2-z
-x,-y,-z
y,-x,-z
x,y,-z
-y,x,-z
-x,y,1/2+z
x,-y,1/2+z
-y,-x,1/2+z
y,x,1/2+z
1/2+x,1/2+y,1/2+z
1/2-y,1/2+x,1/2+z
1/2-x,1/2-y,1/2+z
1/2+y,1/2-x,1/2+z
1/2+x,1/2-y,-z
1/2-x,1/2+y,-z
1/2+y,1/2+x,-z
1/2-y,1/2-x,-z
1/2-x,1/2-y,1/2-z
1/2+y,1/2-x,1/2-z
1/2+x,1/2+y,1/2-z
1/2-y,1/2+x,1/2-z
1/2-x,1/2+y,z
1/2+x,1/2-y,z
1/2-y,1/2-x,z
1/2+y,1/2+x,z
loop_
_atom_site_type_symbol
_atom_site_label
_atom_site_fract_x
_atom_site_fract_y
_atom_site_fract_z
Si Si1 0.553045 0.053045 0.089366
Si Si2 0.764445 0.264445 0.402919
Si Si3 0.453701 0.408935 0.597338
Si Si4 0.843241 0.656760 0.597291
Si Si5 0.224975 0.904859 0.094622
Si Si6 0.821105 0.510208 0.656863
O O1 0.520417 0.108266 0.143540
O O2 0.500000 0.000000 0.068943
O O3 0.578793 0.078793 0.000000
O O4 0.766232 0.266232 0.500000
O O5 0.710606 0.210606 0.375414
O O6 0.836558 0.249372 0.366187
O O7 0.528469 0.413325 0.628373
O O8 0.454104 0.406108 0.500000
O O9 0.421305 0.344622 0.635802
O O10 0.849122 0.650879 0.500000
O O11 0.820429 0.586480 0.632020
O O12 0.271613 0.967329 0.103647
O O13 0.214768 0.891579 0.000000
O O14 0.800735 0.500000 0.750000
#
# Coordination Sequence:
#
# PCOD8320302 Si02
#       6
#    16  16  32  16  32  32
#     4  11  22  39  63  87 114 149 199 250 293 339
#     4   9  21  38  60  92 121 151 202 263 312 361
#     4   8  15  28  51  84 113 142 193 256 307 346
#     4  11  23  42  68  95 122 157 209 263 307 355
#     4  10  20  36  60  85 119 160 202 250 304 361
#     4  12  25  40  60  91 127 165 200 245 303 374
#
# _framework density 20.990447
#
# number of rings (size 3 to 8) (size 9 to 14) (size 15 to 20)
#    0.000    1.889    1.111    4.000    3.111    0.889 
#    0.000    2.222    0.000    0.000    0.000    1.556 
#    0.000    0.000    0.000    0.000    0.000    0.000 
#
# Total GULP energy -892433.559436 kJ/mol
# GULP energy per Si atom -12394.910548 kJ/mol
# Density = 2.094267 g / cm^3
# Si number density = 20.990447 Si / 1000 Ang^3
#
#
#
# Elastic Constant Matrix: (Units=GPa)
#
#
# Indices 1 2 3 4 5 6 
#
# 1 158.3256 116.3759 7.4667 0.0000 0.0000 0.0000
# 2 116.3759 158.3255 7.4667 0.0000 0.0000 0.0000
# 3 7.4667 7.4667 35.1938 0.0000 0.0000 0.0000
# 4 0.0000 0.0000 0.0000 11.5335 0.0000 0.0000
# 5 0.0000 0.0000 0.0000 0.0000 11.5335 0.0000
# 6 0.0000 0.0000 0.0000 0.0000 0.0000 41.8423
#
#
#
# Elastic Compliance Matrix: (Units=1/GPa)
#
#
# Indices 1 2 3 4 5 6 
#
# 1 0.013760 -0.010078 -0.000781 0.000000 0.000000 0.000000
# 2 -0.010078 0.013760 -0.000781 0.000000 0.000000 0.000000
# 3 -0.000781 -0.000781 0.028746 0.000000 0.000000 0.000000
# 4 0.000000 0.000000 0.000000 0.086704 0.000000 0.000000
# 5 0.000000 0.000000 0.000000 0.000000 0.086704 0.000000
# 6 0.000000 0.000000 0.000000 0.000000 0.000000 0.023899
#
#
# Mechanical properties :
#
#
# Convention : Reuss Voigt Hill
#
# Bulk Modulus (GPa) = 30.31604 68.27371 49.29487
# Shear Modulus (GPa) = 17.37018 27.68424 22.52721
#
# Velocity S-wave (km/s) = 2.87980 3.63560 3.27955
# Velocity P-wave (km/s) = 5.05290 7.08662 6.15435
#
# Compressibility (1/GPa) = 0.03298584
#
# Stress axis : x y z
#
# Youngs Moduli (GPa) = 72.67212 72.67211 34.78793
#
# Poissons Ratio (x) = 0.73236 0.02718
# Poissons Ratio (y) = 0.73236 0.02718
# Poissons Ratio (z) = 0.05678 0.05678
#
# Static dielectric constant tensor:
#      x y z
#    x 4.102600 0.000000 0.000000 
#    y 0.000000 4.102600 0.000000 
#    z 0.000000 0.000000 3.345360 
# 
# 
# High freq. dielectric constant tensor:
#      x y z
#    x 1.834420 0.000000 0.000000 
#    y 0.000000 1.834420 0.000000 
#    z 0.000000 0.000000 1.779730 
# 
# From -- ./inp_files/6706.got.cif
#   From: 2010.06.25/outbox.cif.g09.slc.cpg/sg140_4_cif.got.tgz:6706.got - 2010.06.28 10:53:23.
