data_PCOD8320965
_publ_section_title
;
Structure prediction by ZEFSAII (Michael W. Deem and Ramdas Pophale) SiO2 
 PCOD8320965
Probable space group: I 41/A C D
;
_chemical_formula_sum "Si O2"
_cell_formula_units_Z 168
_cell_length_a 19.351797
_cell_length_b 19.351797
_cell_length_c 23.505540
_cell_angle_alpha 90.000000
_cell_angle_beta 90.000000
_cell_angle_gamma 90.000000
_cell_volume 8802.637793
_symmetry_space_group_name_H-M "I 41/A C D"
_symmetry_group_IT_number 142
_space_group.IT_coordinate_system_code '2'
_symmetry_cell_setting 'tetragonal'
loop_
_space_group_symop_operation_xyz
x,y,z
1/4-y,3/4+x,1/4+z
-x,1/2-y,z
1/4+y,1/4-x,3/4+z
x,-y,1/2-z
1/2-x,y,-z
3/4+y,1/4+x,1/4-z
1/4-y,1/4-x,1/4-z
-x,-y,-z
3/4+y,1/4-x,3/4-z
x,1/2+y,-z
3/4-y,3/4+x,1/4-z
-x,y,1/2+z
1/2+x,-y,z
1/4-y,3/4-x,3/4+z
3/4+y,3/4+x,3/4+z
1/2+x,1/2+y,1/2+z
3/4-y,1/4+x,3/4+z
1/2-x,-y,1/2+z
3/4+y,3/4-x,1/4+z
1/2+x,1/2-y,-z
-x,1/2+y,1/2-z
1/4+y,3/4+x,3/4-z
3/4-y,3/4-x,3/4-z
1/2-x,1/2-y,1/2-z
1/4+y,3/4-x,1/4-z
1/2+x,y,1/2-z
1/4-y,1/4+x,3/4-z
1/2-x,1/2+y,z
x,1/2-y,1/2+z
3/4-y,1/4-x,1/4+z
1/4+y,1/4+x,1/4+z
loop_
_atom_site_type_symbol
_atom_site_label
_atom_site_fract_x
_atom_site_fract_y
_atom_site_fract_z
Si Si1 0.368684 0.701996 0.564499
Si Si2 0.828263 0.689798 0.234425
Si Si3 0.516153 0.359862 0.618434
Si Si4 0.000000 0.250000 0.625000
Si Si5 0.676137 0.311207 0.020521
Si Si6 0.687683 0.691097 0.183990
O O1 0.432302 0.749415 0.585701
O O2 0.334053 0.738706 0.511465
O O3 0.395691 0.627082 0.544715
O O4 0.312742 0.693921 0.615301
O O5 0.855230 0.748102 0.190949
O O6 0.882010 0.629694 0.247458
O O7 0.758114 0.656812 0.207982
O O8 0.815575 0.730013 0.293252
O O9 0.447704 0.324152 0.644497
O O10 0.545347 0.417696 0.662293
O O11 0.750000 0.340708 0.000000
#
# Coordination Sequence:
#
# PCOD8320965 Si02
#       6
#    32  32  32   8  32  32
#     4  10  18  32  52  78 100 128 173 210 256 296
#     4  10  19  34  51  75 104 132 168 205 258 305
#     4   9  18  31  50  73  99 132 169 210 252 298
#     4   8  16  28  52  76  94 116 156 224 252 274
#     4  11  21  32  50  74 104 134 166 209 249 302
#     4   9  19  33  55  74  98 131 164 215 256 299
#
# _framework density 19.085187000000001
#
# number of rings (size 3 to 8) (size 9 to 14) (size 15 to 20)
#    0.000    2.476    0.000    4.571    0.000    3.048 
#    0.000    0.952    0.000   20.571    0.000    0.000 
#    0.000    0.000    0.000    0.000    0.000    0.000 
#
# Total GULP energy -1041342.323527 kJ/mol
# GULP energy per Si atom -12396.932423 kJ/mol
# Density = 1.904175 g / cm^3
# Si number density = 19.085187 Si / 1000 Ang^3
#
#
#
# Elastic Constant Matrix: (Units=GPa)
#
#
# Indices 1 2 3 4 5 6 
#
# 1 78.0398 26.4393 21.3689 0.0000 0.0000 0.0000
# 2 26.4393 78.0398 21.3689 0.0000 0.0000 0.0000
# 3 21.3689 21.3689 48.4468 0.0000 0.0000 0.0000
# 4 0.0000 0.0000 0.0000 24.0897 0.0000 0.0000
# 5 0.0000 0.0000 0.0000 0.0000 24.0897 0.0000
# 6 0.0000 0.0000 0.0000 0.0000 0.0000 16.6822
#
#
#
# Elastic Compliance Matrix: (Units=1/GPa)
#
#
# Indices 1 2 3 4 5 6 
#
# 1 0.015529 -0.003851 -0.005151 0.000000 0.000000 0.000000
# 2 -0.003851 0.015529 -0.005151 0.000000 0.000000 0.000000
# 3 -0.005151 -0.005151 0.025185 0.000000 0.000000 0.000000
# 4 0.000000 0.000000 0.000000 0.041511 0.000000 0.000000
# 5 0.000000 0.000000 0.000000 0.000000 0.041512 0.000000
# 6 0.000000 0.000000 0.000000 0.000000 0.000000 0.059944
#
#
# Mechanical properties :
#
#
# Convention : Reuss Voigt Hill
#
# Bulk Modulus (GPa) = 35.79396 38.09784 36.94590
# Shear Modulus (GPa) = 21.11230 21.99561 21.55395
#
# Velocity S-wave (km/s) = 3.32959 3.39853 3.36423
# Velocity P-wave (km/s) = 5.79457 5.95024 5.87292
#
# Compressibility (1/GPa) = 0.02793767
#
# Stress axis : x y z
#
# Youngs Moduli (GPa) = 64.39557 64.39557 39.70570
#
# Poissons Ratio (x) = 0.24796 0.20453
# Poissons Ratio (y) = 0.24796 0.20453
# Poissons Ratio (z) = 0.33171 0.33171
#
# Static dielectric constant tensor:
#      x y z
#    x 3.422820 0.000000 0.000000 
#    y 0.000000 3.422820 0.000000 
#    z 0.000000 0.000000 3.400760 
# 
# 
# High freq. dielectric constant tensor:
#      x y z
#    x 1.727710 0.000000 0.000000 
#    y 0.000000 1.727710 0.000000 
#    z 0.000000 0.000000 1.742890 
# 
# From -- ./inp_files/10334.got.cif
#   From: 2010.03.12/outbox.cif.g09.slc.cpg/sg142_6_cif.got.tgz:10334.got - 2010.04.03 13:27:16.
