data_PCOD8320208
_publ_section_title
;
Structure prediction by ZEFSAII (Michael W. Deem and Ramdas Pophale) SiO2 
 PCOD8320208
Probable space group: I 4/M C M
;
_chemical_formula_sum "Si O2"
_cell_formula_units_Z 192
_cell_length_a 20.638018
_cell_length_b 20.638018
_cell_length_c 28.908286
_cell_angle_alpha 90.000000
_cell_angle_beta 90.000000
_cell_angle_gamma 90.000000
_cell_volume 12312.842281
_symmetry_space_group_name_H-M "I 4/M C M"
_symmetry_group_IT_number 140
_symmetry_cell_setting 'tetragonal'
loop_
_space_group_symop_operation_xyz
x,y,z
-y,x,z
-x,-y,z
y,-x,z
x,-y,1/2-z
-x,y,1/2-z
y,x,1/2-z
-y,-x,1/2-z
-x,-y,-z
y,-x,-z
x,y,-z
-y,x,-z
-x,y,1/2+z
x,-y,1/2+z
-y,-x,1/2+z
y,x,1/2+z
1/2+x,1/2+y,1/2+z
1/2-y,1/2+x,1/2+z
1/2-x,1/2-y,1/2+z
1/2+y,1/2-x,1/2+z
1/2+x,1/2-y,-z
1/2-x,1/2+y,-z
1/2+y,1/2+x,-z
1/2-y,1/2-x,-z
1/2-x,1/2-y,1/2-z
1/2+y,1/2-x,1/2-z
1/2+x,1/2+y,1/2-z
1/2-y,1/2+x,1/2-z
1/2-x,1/2+y,z
1/2+x,1/2-y,z
1/2-y,1/2-x,z
1/2+y,1/2+x,z
loop_
_atom_site_type_symbol
_atom_site_label
_atom_site_fract_x
_atom_site_fract_y
_atom_site_fract_z
Si Si1 0.306524 0.543109 0.946544
Si Si2 0.659282 0.398589 0.447238
Si Si3 0.260350 0.650881 0.274470
Si Si4 0.683387 0.713242 0.370443
Si Si5 0.105970 0.288153 0.374978
Si Si6 0.563736 0.828312 0.777533
O O1 0.334149 0.473125 0.932269
O O2 0.369577 0.587874 0.938261
O O3 0.242819 0.563346 0.916652
O O4 0.284101 0.545730 0.000000
O O5 0.680427 0.389308 0.500000
O O6 0.707742 0.356911 0.416925
O O7 0.325802 0.674199 0.250000
O O8 0.206971 0.706971 0.271634
O O9 0.277943 0.634542 0.327491
O O10 0.235574 0.586724 0.249543
O O11 0.721662 0.778339 0.378898
O O12 0.732090 0.654543 0.357896
O O13 0.149477 0.350524 0.391555
O O14 0.058887 0.309865 0.332335
O O15 0.500000 0.851062 0.750000
O O16 0.613398 0.886603 0.771946
#
# Coordination Sequence:
#
# PCOD8320208 Si02
#       6
#    32  32  32  32  32  32
#     4   9  18  31  46  66  91 120 153 187 224 268
#     4   9  18  30  44  64  90 119 151 186 223 266
#     4   9  15  27  45  65  89 114 143 179 220 269
#     4   9  16  27  45  66  89 114 141 182 231 272
#     4   9  17  30  46  66  91 116 146 186 227 268
#     4  10  20  31  45  67  93 122 153 183 220 266
#
# _framework density 15.593475
#
# number of rings (size 3 to 8) (size 9 to 14) (size 15 to 20)
#    0.000    2.833    1.667    0.000    2.333    1.167 
#    0.000    5.000    0.000    0.000    0.000    0.000 
#    0.000    0.333    0.000    7.333    0.000    0.500 
#
# Total GULP energy -1189380.599774 kJ/mol
# GULP energy per Si atom -12389.381248 kJ/mol
# Density = 1.555798 g / cm^3
# Si number density = 15.593475 Si / 1000 Ang^3
#
#
#
# Elastic Constant Matrix: (Units=GPa)
#
#
# Indices 1 2 3 4 5 6 
#
# 1 68.9417 29.4617 50.5123 0.0000 0.0000 0.0000
# 2 29.4617 68.9418 50.5121 0.0000 0.0000 0.0000
# 3 50.5123 50.5121 96.4308 0.0000 0.0000 0.0000
# 4 0.0000 0.0000 0.0000 24.5346 0.0000 0.0000
# 5 0.0000 0.0000 0.0000 0.0000 24.5346 0.0000
# 6 0.0000 0.0000 0.0000 0.0000 0.0000 12.9170
#
#
#
# Elastic Compliance Matrix: (Units=1/GPa)
#
#
# Indices 1 2 3 4 5 6 
#
# 1 0.023657 -0.001672 -0.011516 0.000000 0.000000 0.000000
# 2 -0.001672 0.023657 -0.011516 0.000000 0.000000 0.000000
# 3 -0.011516 -0.011516 0.022435 0.000000 0.000000 0.000000
# 4 0.000000 0.000000 0.000000 0.040759 0.000000 0.000000
# 5 0.000000 0.000000 0.000000 0.000000 0.040759 0.000000
# 6 0.000000 0.000000 0.000000 0.000000 0.000000 0.077417
#
#
# Mechanical properties :
#
#
# Convention : Reuss Voigt Hill
#
# Bulk Modulus (GPa) = 49.16323 55.03181 52.09752
# Shear Modulus (GPa) = 17.55166 19.31913 18.43540
#
# Velocity S-wave (km/s) = 3.35860 3.52365 3.44212
# Velocity P-wave (km/s) = 6.82911 7.20576 7.01997
#
# Compressibility (1/GPa) = 0.02034040
#
# Stress axis : x y z
#
# Youngs Moduli (GPa) = 42.27016 42.27054 44.57326
#
# Poissons Ratio (x) = 0.07068 0.51332
# Poissons Ratio (y) = 0.07068 0.51331
# Poissons Ratio (z) = 0.48680 0.48679
#
# Static dielectric constant tensor:
#      x y z
#    x 2.852400 0.000000 0.000000 
#    y 0.000000 2.852400 0.000000 
#    z 0.000000 0.000000 3.122200 
# 
# 
# High freq. dielectric constant tensor:
#      x y z
#    x 1.577760 0.000000 0.000000 
#    y 0.000000 1.577760 0.000000 
#    z 0.000000 0.000000 1.608420 
# 
# From -- ./inp_files/10831.got.cif
#   From: 2010.06.25/outbox.cif.g09.slc.cpg/sg140_6_cif.got.tgz:10831.got - 2010.06.28 10:53:23.
