data_PCOD8320841
_publ_section_title
;
Structure prediction by ZEFSAII (Michael W. Deem and Ramdas Pophale) SiO2 
 PCOD8320841
Probable space group: I 41/A M D
;
_chemical_formula_sum "Si O2"
_cell_formula_units_Z 160
_cell_length_a 18.349007
_cell_length_b 18.349007
_cell_length_c 25.013990
_cell_angle_alpha 90.000000
_cell_angle_beta 90.000000
_cell_angle_gamma 90.000000
_cell_volume 8421.861685
_symmetry_space_group_name_H-M "I 41/A M D"
_symmetry_group_IT_number 141
_space_group.IT_coordinate_system_code '2'
_symmetry_cell_setting 'tetragonal'
loop_
_space_group_symop_operation_xyz
x,y,z
1/4-y,3/4+x,1/4+z
-x,1/2-y,z
1/4+y,1/4-x,3/4+z
x,-y,-z
-x,1/2+y,-z
1/4+y,3/4+x,1/4-z
1/4-y,1/4-x,3/4-z
-x,-y,-z
3/4+y,1/4-x,3/4-z
x,1/2+y,-z
3/4-y,3/4+x,1/4-z
-x,y,z
x,1/2-y,z
3/4-y,1/4-x,3/4+z
3/4+y,3/4+x,1/4+z
1/2+x,1/2+y,1/2+z
3/4-y,1/4+x,3/4+z
1/2-x,-y,1/2+z
3/4+y,3/4-x,1/4+z
1/2+x,1/2-y,1/2-z
1/2-x,y,1/2-z
3/4+y,1/4+x,3/4-z
3/4-y,3/4-x,1/4-z
1/2-x,1/2-y,1/2-z
1/4+y,3/4-x,1/4-z
1/2+x,y,1/2-z
1/4-y,1/4+x,3/4-z
1/2-x,1/2+y,1/2+z
1/2+x,-y,1/2+z
1/4-y,3/4-x,1/4+z
1/4+y,1/4+x,3/4+z
loop_
_atom_site_type_symbol
_atom_site_label
_atom_site_fract_x
_atom_site_fract_y
_atom_site_fract_z
Si Si1 0.080691 0.480354 0.836181
Si Si2 0.270722 0.596981 0.309616
Si Si3 0.762429 0.894186 0.590406
Si Si4 0.856464 0.250000 0.256404
Si Si5 0.753164 0.750000 0.845173
Si Si6 0.580265 0.405819 0.253554
O O1 0.147072 0.434527 0.810466
O O2 0.084091 0.481047 0.900669
O O3 0.086910 0.563166 0.813889
O O4 0.000000 0.448467 0.820615
O O5 0.250000 0.621356 0.250000
O O6 0.210302 0.543890 0.335139
O O7 0.830907 0.919094 0.625000
O O8 0.730459 0.821253 0.618430
O O9 0.793705 0.882652 0.531437
O O10 0.799514 0.250000 0.208555
O O11 0.827024 0.250000 0.317838
O O12 0.904523 0.320988 0.247882
O O13 0.500000 0.417100 0.229635
#
# Coordination Sequence:
#
# PCOD8320841 Si02
#       6
#    32  32  32  16  16  32
#     4  10  22  39  60  91 122 151 194 249 305 355
#     4  11  22  38  66  89 116 154 195 248 301 366
#     4  12  21  35  57  85 118 154 208 254 295 347
#     4  11  23  34  52  76 117 163 210 238 303 353
#     4  11  24  34  52  86 118 160 201 262 296 348
#     4  11  22  37  55  79 118 161 201 249 296 349
#
# _framework density 18.998175
#
# number of rings (size 3 to 8) (size 9 to 14) (size 15 to 20)
#    0.000    1.000    7.000    1.500    0.000    0.400 
#    0.000    0.000    0.000    4.800    0.000    0.000 
#    0.000    0.000    0.000    0.000    0.000    0.000 
#
# Total GULP energy -991158.230733 kJ/mol
# GULP energy per Si atom -12389.477884 kJ/mol
# Density = 1.895493 g / cm^3
# Si number density = 18.998175 Si / 1000 Ang^3
#
#
#
# Elastic Constant Matrix: (Units=GPa)
#
#
# Indices 1 2 3 4 5 6 
#
# 1 94.9613 27.8760 23.3012 0.0000 0.0000 0.0000
# 2 27.8760 94.9618 23.3013 0.0000 0.0000 0.0000
# 3 23.3012 23.3013 106.5313 0.0000 0.0000 0.0000
# 4 0.0000 0.0000 0.0000 19.5578 0.0000 0.0000
# 5 0.0000 0.0000 0.0000 0.0000 19.5464 0.0000
# 6 0.0000 0.0000 0.0000 0.0000 0.0000 60.5377
#
#
#
# Elastic Compliance Matrix: (Units=1/GPa)
#
#
# Indices 1 2 3 4 5 6 
#
# 1 0.011892 -0.003014 -0.001942 0.000000 0.000000 0.000000
# 2 -0.003014 0.011892 -0.001942 0.000000 0.000000 0.000000
# 3 -0.001942 -0.001942 0.010236 0.000000 0.000000 0.000000
# 4 0.000000 0.000000 0.000000 0.051131 0.000000 0.000000
# 5 0.000000 0.000000 0.000000 0.000000 0.051160 0.000000
# 6 0.000000 0.000000 0.000000 0.000000 0.000000 0.016519
#
#
# Mechanical properties :
#
#
# Convention : Reuss Voigt Hill
#
# Bulk Modulus (GPa) = 49.44536 49.49017 49.46776
# Shear Modulus (GPa) = 28.84054 34.72677 31.78365
#
# Velocity S-wave (km/s) = 3.90047 4.28003 4.09465
# Velocity P-wave (km/s) = 6.80939 7.10855 6.96057
#
# Compressibility (1/GPa) = 0.02022434
#
# Stress axis : x y z
#
# Youngs Moduli (GPa) = 84.09054 84.09088 97.69123
#
# Poissons Ratio (x) = 0.25349 0.18969
# Poissons Ratio (y) = 0.25348 0.18969
# Poissons Ratio (z) = 0.16328 0.16328
#
# Static dielectric constant tensor:
#      x y z
#    x 3.426080 0.000000 0.000000 
#    y 0.000000 3.426080 0.000000 
#    z 0.000000 0.000000 3.651450 
# 
# 
# High freq. dielectric constant tensor:
#      x y z
#    x 1.726530 0.000000 0.000000 
#    y 0.000000 1.726530 0.000000 
#    z 0.000000 0.000000 1.750540 
# 
# From -- ./inp_files/12802.got.cif
#   From: 2010.03.12/outbox.cif.g09.slc.cpg/sg141_7_cif.got.tgz:12802.got - 2010.04.03 13:18:35.
