data_PCOD8320824
_publ_section_title
;
Structure prediction by ZEFSAII (Michael W. Deem and Ramdas Pophale) SiO2 
 PCOD8320824
Probable space group: I 41/A M D
;
_chemical_formula_sum "Si O2"
_cell_formula_units_Z 96
_cell_length_a 13.436068
_cell_length_b 13.436068
_cell_length_c 29.398100
_cell_angle_alpha 90.000000
_cell_angle_beta 90.000000
_cell_angle_gamma 90.000000
_cell_volume 5307.177942
_symmetry_space_group_name_H-M "I 41/A M D"
_symmetry_group_IT_number 141
_space_group.IT_coordinate_system_code '2'
_symmetry_cell_setting 'tetragonal'
loop_
_space_group_symop_operation_xyz
x,y,z
1/4-y,3/4+x,1/4+z
-x,1/2-y,z
1/4+y,1/4-x,3/4+z
x,-y,-z
-x,1/2+y,-z
1/4+y,3/4+x,1/4-z
1/4-y,1/4-x,3/4-z
-x,-y,-z
3/4+y,1/4-x,3/4-z
x,1/2+y,-z
3/4-y,3/4+x,1/4-z
-x,y,z
x,1/2-y,z
3/4-y,1/4-x,3/4+z
3/4+y,3/4+x,1/4+z
1/2+x,1/2+y,1/2+z
3/4-y,1/4+x,3/4+z
1/2-x,-y,1/2+z
3/4+y,3/4-x,1/4+z
1/2+x,1/2-y,1/2-z
1/2-x,y,1/2-z
3/4+y,1/4+x,3/4-z
3/4-y,3/4-x,1/4-z
1/2-x,1/2-y,1/2-z
1/4+y,3/4-x,1/4-z
1/2+x,y,1/2-z
1/4-y,1/4+x,3/4-z
1/2-x,1/2+y,1/2+z
1/2+x,-y,1/2+z
1/4-y,3/4-x,1/4+z
1/4+y,1/4+x,3/4+z
loop_
_atom_site_type_symbol
_atom_site_label
_atom_site_fract_x
_atom_site_fract_y
_atom_site_fract_z
Si Si1 0.000000 0.016673 0.331266
Si Si2 0.713180 0.536821 0.875000
Si Si3 0.883982 0.250000 0.998619
Si Si4 0.745510 0.585258 0.463500
Si Si5 0.114179 0.250000 0.504479
O O1 0.097817 0.017839 0.362689
O O2 0.000000 0.114954 0.299665
O O3 0.000000 0.921707 0.297458
O O4 0.787082 0.503909 0.835499
O O5 0.853254 0.346901 0.969178
O O6 0.000000 0.250000 0.008384
O O7 0.740051 0.500000 0.500000
O O8 0.842347 0.651691 0.472323
O O9 0.000000 0.250000 0.514755
#
# Coordination Sequence:
#
# PCOD8320824 Si02
#       5
#    16  16  16  32  16
#     4  10  24  38  63  94 126 165 205 252 307 393
#     4  12  22  41  63  94 132 160 216 252 320 374
#     4  10  22  48  64  87 120 166 225 261 327 367
#     4  10  21  42  61  89 126 162 204 265 306 373
#     4  10  22  40  60  91 124 166 210 247 320 366
#
# _framework density 18.088709000000001
#
# number of rings (size 3 to 8) (size 9 to 14) (size 15 to 20)
#    0.000    2.000    6.667    0.000    4.667    1.333 
#   12.000    0.000    0.000    0.000    0.000    0.000 
#    0.000    0.000    0.000    0.000    0.000    0.000 
#
# Total GULP energy -595049.013124 kJ/mol
# GULP energy per Si atom -12396.854440 kJ/mol
# Density = 1.804754 g / cm^3
# Si number density = 18.088709 Si / 1000 Ang^3
#
#
#
# Elastic Constant Matrix: (Units=GPa)
#
#
# Indices 1 2 3 4 5 6 
#
# 1 146.4963 56.1103 57.6900 0.0000 0.0000 0.0000
# 2 56.1103 146.4976 57.6898 0.0000 0.0000 0.0000
# 3 57.6900 57.6898 141.4294 0.0000 0.0000 0.0000
# 4 0.0000 0.0000 0.0000 22.4985 0.0000 0.0000
# 5 0.0000 0.0000 0.0000 0.0000 22.4970 0.0000
# 6 0.0000 0.0000 0.0000 0.0000 0.0000 9.1004
#
#
#
# Elastic Compliance Matrix: (Units=1/GPa)
#
#
# Indices 1 2 3 4 5 6 
#
# 1 0.008746 -0.002317 -0.002622 0.000000 0.000000 0.000000
# 2 -0.002317 0.008746 -0.002622 0.000000 0.000000 0.000000
# 3 -0.002622 -0.002622 0.009210 0.000000 0.000000 0.000000
# 4 0.000000 0.000000 0.000000 0.044447 0.000000 0.000000
# 5 0.000000 0.000000 0.000000 0.000000 0.044450 0.000000
# 6 0.000000 0.000000 0.000000 0.000000 0.000000 0.109886
#
#
# Mechanical properties :
#
#
# Convention : Reuss Voigt Hill
#
# Bulk Modulus (GPa) = 86.36755 86.37817 86.37286
# Shear Modulus (GPa) = 20.45240 28.34805 24.40022
#
# Velocity S-wave (km/s) = 3.36619 3.96304 3.67675
# Velocity P-wave (km/s) = 7.93465 8.29440 8.11652
#
# Compressibility (1/GPa) = 0.01157842
#
# Stress axis : x y z
#
# Youngs Moduli (GPa) = 114.33299 114.33424 108.57642
#
# Poissons Ratio (x) = 0.26494 0.28474
# Poissons Ratio (y) = 0.26494 0.28473
# Poissons Ratio (z) = 0.29984 0.29983
#
# Static dielectric constant tensor:
#      x y z
#    x 3.334430 0.000000 0.000000 
#    y 0.000000 3.334410 0.000000 
#    z 0.000000 0.000000 3.795590 
# 
# 
# High freq. dielectric constant tensor:
#      x y z
#    x 1.705850 0.000000 0.000000 
#    y 0.000000 1.705850 0.000000 
#    z 0.000000 0.000000 1.700780 
# 
# From -- ./inp_files/11081.got.cif
#   From: 2010.03.12/outbox.cif.g09.slc.cpg/sg141_6_cif.got.tgz:11081.got - 2010.04.03 13:18:35.
