data_PCOD8320774
_publ_section_title
;
Structure prediction by ZEFSAII (Michael W. Deem and Ramdas Pophale) SiO2 
 PCOD8320774
Probable space group: I 41/A M D
;
_chemical_formula_sum "Si O2"
_cell_formula_units_Z 96
_cell_length_a 27.295646
_cell_length_b 27.295646
_cell_length_c 7.218488
_cell_angle_alpha 90.000000
_cell_angle_beta 90.000000
_cell_angle_gamma 90.000000
_cell_volume 5378.151019
_symmetry_space_group_name_H-M "I 41/A M D"
_symmetry_group_IT_number 141
_space_group.IT_coordinate_system_code '2'
_symmetry_cell_setting 'tetragonal'
loop_
_space_group_symop_operation_xyz
x,y,z
1/4-y,3/4+x,1/4+z
-x,1/2-y,z
1/4+y,1/4-x,3/4+z
x,-y,-z
-x,1/2+y,-z
1/4+y,3/4+x,1/4-z
1/4-y,1/4-x,3/4-z
-x,-y,-z
3/4+y,1/4-x,3/4-z
x,1/2+y,-z
3/4-y,3/4+x,1/4-z
-x,y,z
x,1/2-y,z
3/4-y,1/4-x,3/4+z
3/4+y,3/4+x,1/4+z
1/2+x,1/2+y,1/2+z
3/4-y,1/4+x,3/4+z
1/2-x,-y,1/2+z
3/4+y,3/4-x,1/4+z
1/2+x,1/2-y,1/2-z
1/2-x,y,1/2-z
3/4+y,1/4+x,3/4-z
3/4-y,3/4-x,1/4-z
1/2-x,1/2-y,1/2-z
1/4+y,3/4-x,1/4-z
1/2+x,y,1/2-z
1/4-y,1/4+x,3/4-z
1/2-x,1/2+y,1/2+z
1/2+x,-y,1/2+z
1/4-y,3/4-x,1/4+z
1/4+y,1/4+x,3/4+z
loop_
_atom_site_type_symbol
_atom_site_label
_atom_site_fract_x
_atom_site_fract_y
_atom_site_fract_z
Si Si1 0.054694 0.195307 0.375000
Si Si2 0.443720 0.865059 0.515572
Si Si3 0.862608 0.555259 0.974294
Si Si4 0.298904 0.548904 0.875000
O O1 0.060792 0.250000 0.291970
O O2 0.094718 0.185878 0.530030
O O3 0.427036 0.822965 0.375000
O O4 0.500000 0.878797 0.475849
O O5 0.411176 0.913243 0.493410
O O6 0.843489 0.557177 0.764963
O O7 0.879180 0.500000 0.000000
O O8 0.821129 0.571129 0.125000
O O9 0.250000 0.550454 0.750000
#
# Coordination Sequence:
#
# PCOD8320774 Si02
#       4
#    16  32  32  16
#     4   9  17  32  55  80 106 138 180 230 276 318
#     4  10  21  36  57  82 111 146 186 229 277 334
#     4  11  22  37  55  81 113 147 183 227 282 332
#     4  12  21  34  59  84 110 145 186 238 281 330
#
# _framework density 17.850002
#
# number of rings (size 3 to 8) (size 9 to 14) (size 15 to 20)
#    0.000    1.500    3.333    3.000    0.000    2.333 
#    0.000    0.000    0.000    1.000    0.000    0.000 
#    0.000    0.000    0.000    0.000    0.000    0.000 
#
# Total GULP energy -595082.191956 kJ/mol
# GULP energy per Si atom -12397.545666 kJ/mol
# Density = 1.780938 g / cm^3
# Si number density = 17.850002 Si / 1000 Ang^3
#
#
#
# Elastic Constant Matrix: (Units=GPa)
#
#
# Indices 1 2 3 4 5 6 
#
# 1 103.2889 53.4092 41.9014 0.0000 0.0000 0.0000
# 2 53.4092 103.2879 41.9030 0.0000 0.0000 0.0000
# 3 41.9014 41.9030 98.0849 0.0000 0.0000 0.0000
# 4 0.0000 0.0000 0.0000 29.0926 0.0000 0.0000
# 5 0.0000 0.0000 0.0000 0.0000 29.0946 0.0000
# 6 0.0000 0.0000 0.0000 0.0000 0.0000 19.4269
#
#
#
# Elastic Compliance Matrix: (Units=1/GPa)
#
#
# Indices 1 2 3 4 5 6 
#
# 1 0.014160 -0.005888 -0.003533 0.000000 0.000000 0.000000
# 2 -0.005888 0.014160 -0.003534 0.000000 0.000000 0.000000
# 3 -0.003533 -0.003534 0.013214 0.000000 0.000000 0.000000
# 4 0.000000 0.000000 0.000000 0.034373 0.000000 0.000000
# 5 0.000000 0.000000 0.000000 0.000000 0.034371 0.000000
# 6 0.000000 0.000000 0.000000 0.000000 0.000000 0.051475
#
#
# Mechanical properties :
#
#
# Convention : Reuss Voigt Hill
#
# Bulk Modulus (GPa) = 64.00826 64.34322 64.17574
# Shear Modulus (GPa) = 25.92392 26.68604 26.30498
#
# Velocity S-wave (km/s) = 3.81507 3.87074 3.84300
# Velocity P-wave (km/s) = 7.43930 7.49011 7.46474
#
# Compressibility (1/GPa) = 0.01562298
#
# Stress axis : x y z
#
# Youngs Moduli (GPa) = 70.62250 70.62047 75.67492
#
# Poissons Ratio (x) = 0.41584 0.26739
# Poissons Ratio (y) = 0.41586 0.26743
# Poissons Ratio (z) = 0.24954 0.24957
#
# Static dielectric constant tensor:
#      x y z
#    x 3.219790 0.000000 0.000000 
#    y 0.000000 3.219760 0.000000 
#    z 0.000000 0.000000 3.246020 
# 
# 
# High freq. dielectric constant tensor:
#      x y z
#    x 1.687900 0.000000 0.000000 
#    y 0.000000 1.687900 0.000000 
#    z 0.000000 0.000000 1.705080 
# 
# From -- ./inp_files/1185.got.cif
#   From: 2010.03.12/outbox.cif.g09.slc.cpg/sg141_1_cif.got.tgz:1185.got - 2010.04.03 13:18:35.
