data_PCOD8320313
_publ_section_title
;
Structure prediction by ZEFSAII (Michael W. Deem and Ramdas Pophale) SiO2 
 PCOD8320313
Probable space group: I 4/M C M
;
_chemical_formula_sum "Si O2"
_cell_formula_units_Z 160
_cell_length_a 20.095066
_cell_length_b 20.095066
_cell_length_c 19.702372
_cell_angle_alpha 90.000000
_cell_angle_beta 90.000000
_cell_angle_gamma 90.000000
_cell_volume 7956.047889
_symmetry_space_group_name_H-M "I 4/M C M"
_symmetry_group_IT_number 140
_symmetry_cell_setting 'tetragonal'
loop_
_space_group_symop_operation_xyz
x,y,z
-y,x,z
-x,-y,z
y,-x,z
x,-y,1/2-z
-x,y,1/2-z
y,x,1/2-z
-y,-x,1/2-z
-x,-y,-z
y,-x,-z
x,y,-z
-y,x,-z
-x,y,1/2+z
x,-y,1/2+z
-y,-x,1/2+z
y,x,1/2+z
1/2+x,1/2+y,1/2+z
1/2-y,1/2+x,1/2+z
1/2-x,1/2-y,1/2+z
1/2+y,1/2-x,1/2+z
1/2+x,1/2-y,-z
1/2-x,1/2+y,-z
1/2+y,1/2+x,-z
1/2-y,1/2-x,-z
1/2-x,1/2-y,1/2-z
1/2+y,1/2-x,1/2-z
1/2+x,1/2+y,1/2-z
1/2-y,1/2+x,1/2-z
1/2-x,1/2+y,z
1/2+x,1/2-y,z
1/2-y,1/2-x,z
1/2+y,1/2+x,z
loop_
_atom_site_type_symbol
_atom_site_label
_atom_site_fract_x
_atom_site_fract_y
_atom_site_fract_z
Si Si1 0.832053 0.559109 0.420307
Si Si2 0.840682 0.450813 0.309124
Si Si3 0.234984 0.155011 0.699708
Si Si4 0.457201 0.314268 0.078191
Si Si5 0.165404 0.896797 0.920679
O O1 0.842976 0.544817 0.500000
O O2 0.881667 0.618334 0.395802
O O3 0.842261 0.490384 0.380275
O O4 0.755554 0.579674 0.403389
O O5 0.862901 0.500000 0.250000
O O6 0.894115 0.394115 0.319217
O O7 0.770260 0.416849 0.286870
O O8 0.172293 0.172293 0.750000
O O9 0.287869 0.212132 0.709044
O O10 0.211095 0.153921 0.621616
O O11 0.410717 0.376631 0.094999
O O12 0.529794 0.323985 0.111617
O O13 0.475357 0.313395 0.000000
O O14 0.183004 0.888229 0.000000
#
# Coordination Sequence:
#
# PCOD8320313 Si02
#       5
#    32  32  32  32  32
#     4  10  21  38  61  90 122 154 198 254 304 355
#     4  11  24  41  61  85 118 161 202 244 297 359
#     4  10  23  39  57  86 119 153 198 250 301 349
#     4   9  19  35  57  88 120 153 191 235 293 353
#     4  10  20  37  61  87 118 152 192 240 292 360
#
# _framework density 20.110488
#
# number of rings (size 3 to 8) (size 9 to 14) (size 15 to 20)
#    0.000    2.000    2.000    0.600    2.800    3.400 
#    0.000    7.000    0.000    0.000    0.000    1.400 
#    0.000    0.000    0.000    0.000    0.000    0.000 
#
# Total GULP energy -991137.359912 kJ/mol
# GULP energy per Si atom -12389.216999 kJ/mol
# Density = 2.006472 g / cm^3
# Si number density = 20.110488 Si / 1000 Ang^3
#
#
#
# Elastic Constant Matrix: (Units=GPa)
#
#
# Indices 1 2 3 4 5 6 
#
# 1 100.1654 60.2251 32.7178 0.0000 0.0000 0.0000
# 2 60.2251 100.1654 32.7178 0.0000 0.0000 0.0000
# 3 32.7178 32.7178 62.6977 0.0000 0.0000 0.0000
# 4 0.0000 0.0000 0.0000 26.7192 0.0000 0.0000
# 5 0.0000 0.0000 0.0000 0.0000 26.7192 0.0000
# 6 0.0000 0.0000 0.0000 0.0000 0.0000 10.4524
#
#
#
# Elastic Compliance Matrix: (Units=1/GPa)
#
#
# Indices 1 2 3 4 5 6 
#
# 1 0.016479 -0.008558 -0.004134 0.000000 0.000000 0.000000
# 2 -0.008558 0.016479 -0.004134 0.000000 0.000000 0.000000
# 3 -0.004134 -0.004134 0.020264 0.000000 0.000000 0.000000
# 4 0.000000 0.000000 0.000000 0.037426 0.000000 0.000000
# 5 0.000000 0.000000 0.000000 0.000000 0.037426 0.000000
# 6 0.000000 0.000000 0.000000 0.000000 0.000000 0.095671
#
#
# Mechanical properties :
#
#
# Convention : Reuss Voigt Hill
#
# Bulk Modulus (GPa) = 51.09396 57.14997 54.12197
# Shear Modulus (GPa) = 18.94512 21.93603 20.44058
#
# Velocity S-wave (km/s) = 3.07262 3.30627 3.19158
# Velocity P-wave (km/s) = 6.16845 6.56163 6.36807
#
# Compressibility (1/GPa) = 0.01957178
#
# Stress axis : x y z
#
# Youngs Moduli (GPa) = 60.68223 60.68224 49.34966
#
# Poissons Ratio (x) = 0.51933 0.20399
# Poissons Ratio (y) = 0.51933 0.20399
# Poissons Ratio (z) = 0.25083 0.25083
#
# Static dielectric constant tensor:
#      x y z
#    x 3.819010 0.000000 0.000000 
#    y 0.000000 3.819010 0.000000 
#    z 0.000000 0.000000 3.569270 
# 
# 
# High freq. dielectric constant tensor:
#      x y z
#    x 1.784940 0.000000 0.000000 
#    y 0.000000 1.784940 0.000000 
#    z 0.000000 0.000000 1.772860 
# 
# From -- ./inp_files/6840.got.cif
#   From: 2010.06.25/outbox.cif.g09.slc.cpg/sg140_4_cif.got.tgz:6840.got - 2010.06.28 10:53:23.
