data_PCOD8320461
_publ_section_title
;
Structure prediction by ZEFSAII (Michael W. Deem and Ramdas Pophale) SiO2 
 PCOD8320461
Probable space group: I 4/M C M
;
_chemical_formula_sum "Si O2"
_cell_formula_units_Z 176
_cell_length_a 18.165582
_cell_length_b 18.165582
_cell_length_c 26.430865
_cell_angle_alpha 90.000000
_cell_angle_beta 90.000000
_cell_angle_gamma 90.000000
_cell_volume 8721.878043
_symmetry_space_group_name_H-M "I 4/M C M"
_symmetry_group_IT_number 140
_symmetry_cell_setting 'tetragonal'
loop_
_space_group_symop_operation_xyz
x,y,z
-y,x,z
-x,-y,z
y,-x,z
x,-y,1/2-z
-x,y,1/2-z
y,x,1/2-z
-y,-x,1/2-z
-x,-y,-z
y,-x,-z
x,y,-z
-y,x,-z
-x,y,1/2+z
x,-y,1/2+z
-y,-x,1/2+z
y,x,1/2+z
1/2+x,1/2+y,1/2+z
1/2-y,1/2+x,1/2+z
1/2-x,1/2-y,1/2+z
1/2+y,1/2-x,1/2+z
1/2+x,1/2-y,-z
1/2-x,1/2+y,-z
1/2+y,1/2+x,-z
1/2-y,1/2-x,-z
1/2-x,1/2-y,1/2-z
1/2+y,1/2-x,1/2-z
1/2+x,1/2+y,1/2-z
1/2-y,1/2+x,1/2-z
1/2-x,1/2+y,z
1/2+x,1/2-y,z
1/2-y,1/2-x,z
1/2+y,1/2+x,z
loop_
_atom_site_type_symbol
_atom_site_label
_atom_site_fract_x
_atom_site_fract_y
_atom_site_fract_z
Si Si1 0.764706 0.735295 0.940643
Si Si2 0.392472 0.555720 0.856879
Si Si3 0.307791 0.807791 0.228656
Si Si4 0.840710 0.464028 0.120237
Si Si5 0.437164 0.261538 0.787020
Si Si6 0.289054 0.399497 0.559730
Si Si7 0.363514 0.863514 0.878670
O O1 0.684248 0.713901 0.920075
O O2 0.824925 0.675076 0.926155
O O3 0.759729 0.740272 0.000000
O O4 0.401679 0.468402 0.848802
O O5 0.334555 0.590131 0.816715
O O6 0.360115 0.564791 0.913317
O O7 0.250000 0.750000 0.250000
O O8 0.382551 0.778630 0.250252
O O9 0.323453 0.823453 0.169208
O O10 0.916031 0.416031 0.118892
O O11 0.801189 0.457588 0.173634
O O12 0.787217 0.438804 0.074869
O O13 0.854509 0.549946 0.115404
O O14 0.500000 0.289383 0.750000
O O15 0.300391 0.407048 0.500000
#
# Coordination Sequence:
#
# PCOD8320461 Si02
#       7
#    16  32  16  32  32  32  16
#     4  10  24  45  67  95 129 168 216 274 326 385
#     4  10  25  43  64  96 133 172 215 269 326 385
#     4  12  28  39  65  97 128 167 216 272 317 377
#     4  11  23  43  67  93 133 173 214 270 330 386
#     4  11  24  42  64  92 130 172 216 260 319 382
#     4  10  23  42  69  96 128 172 217 266 327 392
#     4  12  27  42  66 101 129 171 225 270 326 397
#
# _framework density 20.179138999999999
#
# number of rings (size 3 to 8) (size 9 to 14) (size 15 to 20)
#    0.000    1.273    3.636    0.273   12.727    1.455 
#    0.000    1.818    0.000    1.636    0.000    0.000 
#    0.000    0.000    0.000    0.000    0.000    0.000 
#
# Total GULP energy -1090677.512909 kJ/mol
# GULP energy per Si atom -12394.062647 kJ/mol
# Density = 2.013321 g / cm^3
# Si number density = 20.179139 Si / 1000 Ang^3
#
#
#
# Elastic Constant Matrix: (Units=GPa)
#
#
# Indices 1 2 3 4 5 6 
#
# 1 92.5347 31.4993 3.7438 0.0000 0.0000 0.0000
# 2 31.4993 92.5346 3.7437 0.0000 0.0000 0.0000
# 3 3.7438 3.7437 48.3982 0.0000 0.0000 0.0000
# 4 0.0000 0.0000 0.0000 27.3477 0.0000 0.0000
# 5 0.0000 0.0000 0.0000 0.0000 27.3477 0.0000
# 6 0.0000 0.0000 0.0000 0.0000 0.0000 37.6226
#
#
#
# Elastic Compliance Matrix: (Units=1/GPa)
#
#
# Indices 1 2 3 4 5 6 
#
# 1 0.012242 -0.004142 -0.000627 0.000000 0.000000 0.000000
# 2 -0.004142 0.012242 -0.000627 0.000000 0.000000 0.000000
# 3 -0.000627 -0.000627 0.020759 0.000000 0.000000 0.000000
# 4 0.000000 0.000000 0.000000 0.036566 0.000000 0.000000
# 5 0.000000 0.000000 0.000000 0.000000 0.036566 0.000000
# 6 0.000000 0.000000 0.000000 0.000000 0.000000 0.026580
#
#
# Mechanical properties :
#
#
# Convention : Reuss Voigt Hill
#
# Bulk Modulus (GPa) = 29.02518 34.60458 31.81488
# Shear Modulus (GPa) = 29.89906 31.42899 30.66402
#
# Velocity S-wave (km/s) = 3.85344 3.95080 3.90242
# Velocity P-wave (km/s) = 5.84924 6.16422 6.00880
#
# Compressibility (1/GPa) = 0.03445285
#
# Stress axis : x y z
#
# Youngs Moduli (GPa) = 81.68578 81.68570 48.17218
#
# Poissons Ratio (x) = 0.33833 0.03018
# Poissons Ratio (y) = 0.33834 0.03018
# Poissons Ratio (z) = 0.05118 0.05118
#
# Static dielectric constant tensor:
#      x y z
#    x 3.546690 0.000000 0.000000 
#    y 0.000000 3.546690 0.000000 
#    z 0.000000 0.000000 3.621690 
# 
# 
# High freq. dielectric constant tensor:
#      x y z
#    x 1.797570 0.000000 0.000000 
#    y 0.000000 1.797570 0.000000 
#    z 0.000000 0.000000 1.792720 
# 
# From -- ./inp_files/10780.got.cif
#   From: 2010.06.25/outbox.cif.g09.slc.cpg/sg140_6_cif.got.tgz:10780.got - 2010.06.28 10:53:23.
