data_PCOD8320376
_publ_section_title
;
Structure prediction by ZEFSAII (Michael W. Deem and Ramdas Pophale) SiO2 
 PCOD8320376
Probable space group: I 4/M C M
;
_chemical_formula_sum "Si O2"
_cell_formula_units_Z 160
_cell_length_a 24.594716
_cell_length_b 24.594716
_cell_length_c 13.841844
_cell_angle_alpha 90.000000
_cell_angle_beta 90.000000
_cell_angle_gamma 90.000000
_cell_volume 8372.932199
_symmetry_space_group_name_H-M "I 4/M C M"
_symmetry_group_IT_number 140
_symmetry_cell_setting 'tetragonal'
loop_
_space_group_symop_operation_xyz
x,y,z
-y,x,z
-x,-y,z
y,-x,z
x,-y,1/2-z
-x,y,1/2-z
y,x,1/2-z
-y,-x,1/2-z
-x,-y,-z
y,-x,-z
x,y,-z
-y,x,-z
-x,y,1/2+z
x,-y,1/2+z
-y,-x,1/2+z
y,x,1/2+z
1/2+x,1/2+y,1/2+z
1/2-y,1/2+x,1/2+z
1/2-x,1/2-y,1/2+z
1/2+y,1/2-x,1/2+z
1/2+x,1/2-y,-z
1/2-x,1/2+y,-z
1/2+y,1/2+x,-z
1/2-y,1/2-x,-z
1/2-x,1/2-y,1/2-z
1/2+y,1/2-x,1/2-z
1/2+x,1/2+y,1/2-z
1/2-y,1/2+x,1/2-z
1/2-x,1/2+y,z
1/2+x,1/2-y,z
1/2-y,1/2-x,z
1/2+y,1/2+x,z
loop_
_atom_site_type_symbol
_atom_site_label
_atom_site_fract_x
_atom_site_fract_y
_atom_site_fract_z
Si Si1 0.915499 0.328012 0.791973
Si Si2 0.658175 0.341826 0.250000
Si Si3 0.024591 0.707934 0.388302
Si Si4 0.029361 0.085737 0.000000
Si Si5 0.541007 0.669020 0.330008
Si Si6 0.748276 0.665144 0.607156
O O1 0.887607 0.387607 0.804581
O O2 0.928582 0.317816 0.678994
O O3 0.874263 0.282008 0.824628
O O4 0.968717 0.322084 0.858546
O O5 0.673128 0.402895 0.274196
O O6 0.675977 0.309831 0.345856
O O7 0.037540 0.695309 0.500000
O O8 0.021395 0.772927 0.372339
O O9 0.043792 0.122136 0.908710
O O10 0.966451 0.068502 0.000000
O O11 0.500000 0.648037 0.250000
O O12 0.741338 0.639418 0.500000
O O13 0.776822 0.723179 0.598864
#
# Coordination Sequence:
#
# PCOD8320376 Si02
#       6
#    32  16  32  16  32  32
#     4  10  21  40  63  92 129 165 204 255 314 377
#     4  12  23  38  62  89 124 162 212 264 316 379
#     4  11  21  38  64  94 126 161 210 260 308 375
#     4  11  26  44  62  86 122 164 214 275 330 374
#     4  12  23  41  61  92 118 161 213 263 317 370
#     4  10  21  37  58  87 125 166 206 252 315 387
#
# _framework density 19.109195
#
# number of rings (size 3 to 8) (size 9 to 14) (size 15 to 20)
#    0.000    1.100    5.000    2.100    1.400    1.600 
#    1.800    1.000    0.000    4.800    0.000    5.600 
#    0.000    0.000    0.000    0.000    0.000    0.000 
#
# Total GULP energy -991963.120354 kJ/mol
# GULP energy per Si atom -12399.539004 kJ/mol
# Density = 1.906570 g / cm^3
# Si number density = 19.109195 Si / 1000 Ang^3
#
#
#
# Elastic Constant Matrix: (Units=GPa)
#
#
# Indices 1 2 3 4 5 6 
#
# 1 83.0218 40.3955 40.1297 0.0000 0.0000 0.0000
# 2 40.3955 83.0203 40.1271 0.0000 0.0000 0.0000
# 3 40.1297 40.1271 150.6648 0.0000 0.0000 0.0000
# 4 0.0000 0.0000 0.0000 30.5529 0.0000 0.0000
# 5 0.0000 0.0000 0.0000 0.0000 30.5507 0.0000
# 6 0.0000 0.0000 0.0000 0.0000 0.0000 19.0868
#
#
#
# Elastic Compliance Matrix: (Units=1/GPa)
#
#
# Indices 1 2 3 4 5 6 
#
# 1 0.016630 -0.006830 -0.002610 0.000000 0.000000 0.000000
# 2 -0.006830 0.016630 -0.002610 0.000000 0.000000 0.000000
# 3 -0.002610 -0.002610 0.008028 0.000000 0.000000 0.000000
# 4 0.000000 0.000000 0.000000 0.032730 0.000000 0.000000
# 5 0.000000 0.000000 0.000000 0.000000 0.032732 0.000000
# 6 0.000000 0.000000 0.000000 0.000000 0.000000 0.052392
#
#
# Mechanical properties :
#
#
# Convention : Reuss Voigt Hill
#
# Bulk Modulus (GPa) = 58.18343 62.00128 60.09235
# Shear Modulus (GPa) = 26.45891 29.10839 27.78365
#
# Velocity S-wave (km/s) = 3.72508 3.90714 3.81720
# Velocity P-wave (km/s) = 7.00111 7.27121 7.13744
#
# Compressibility (1/GPa) = 0.01718703
#
# Stress axis : x y z
#
# Youngs Moduli (GPa) = 60.13218 60.13207 124.56961
#
# Poissons Ratio (x) = 0.41070 0.32517
# Poissons Ratio (y) = 0.41071 0.32512
# Poissons Ratio (z) = 0.15697 0.15694
#
# Static dielectric constant tensor:
#      x y z
#    x 3.516390 0.000000 0.000000 
#    y 0.000000 3.516370 0.000000 
#    z 0.000000 0.000000 3.707560 
# 
# 
# High freq. dielectric constant tensor:
#      x y z
#    x 1.739140 0.000000 0.000000 
#    y 0.000000 1.739140 0.000000 
#    z 0.000000 0.000000 1.758340 
# 
# From -- ./inp_files/4838.got.cif
#   From: 2010.06.25/outbox.cif.g09.slc.cpg/sg140_3_cif.got.tgz:4838.got - 2010.06.28 10:53:23.
