data_PCOD8320568
_publ_section_title
;
Structure prediction by ZEFSAII (Michael W. Deem and Ramdas Pophale) SiO2 
 PCOD8320568
Probable space group: I 41/A M D
;
_chemical_formula_sum "Si O2"
_cell_formula_units_Z 160
_cell_length_a 17.500157
_cell_length_b 17.500157
_cell_length_c 25.890420
_cell_angle_alpha 90.000000
_cell_angle_beta 90.000000
_cell_angle_gamma 90.000000
_cell_volume 7929.083393
_symmetry_space_group_name_H-M "I 41/A M D"
_symmetry_group_IT_number 141
_space_group.IT_coordinate_system_code '2'
_symmetry_cell_setting 'tetragonal'
loop_
_space_group_symop_operation_xyz
x,y,z
1/4-y,3/4+x,1/4+z
-x,1/2-y,z
1/4+y,1/4-x,3/4+z
x,-y,-z
-x,1/2+y,-z
1/4+y,3/4+x,1/4-z
1/4-y,1/4-x,3/4-z
-x,-y,-z
3/4+y,1/4-x,3/4-z
x,1/2+y,-z
3/4-y,3/4+x,1/4-z
-x,y,z
x,1/2-y,z
3/4-y,1/4-x,3/4+z
3/4+y,3/4+x,1/4+z
1/2+x,1/2+y,1/2+z
3/4-y,1/4+x,3/4+z
1/2-x,-y,1/2+z
3/4+y,3/4-x,1/4+z
1/2+x,1/2-y,1/2-z
1/2-x,y,1/2-z
3/4+y,1/4+x,3/4-z
3/4-y,3/4-x,1/4-z
1/2-x,1/2-y,1/2-z
1/4+y,3/4-x,1/4-z
1/2+x,y,1/2-z
1/4-y,1/4+x,3/4-z
1/2-x,1/2+y,1/2+z
1/2+x,-y,1/2+z
1/4-y,3/4-x,1/4+z
1/4+y,1/4+x,3/4+z
loop_
_atom_site_type_symbol
_atom_site_label
_atom_site_fract_x
_atom_site_fract_y
_atom_site_fract_z
Si Si1 0.711127 0.338554 0.630155
Si Si2 0.082050 0.994900 0.766013
Si Si3 0.084343 0.378518 0.491862
Si Si4 0.255894 0.381330 0.327052
Si Si5 0.809798 0.958867 0.317498
O O1 0.627823 0.377823 0.625000
O O2 0.700285 0.250000 0.645749
O O3 0.756895 0.349277 0.576810
O O4 0.763490 0.380655 0.673077
O O5 0.145141 0.045756 0.736484
O O6 0.000000 0.034530 0.756791
O O7 0.073460 0.907428 0.745277
O O8 0.090020 0.431308 0.542571
O O9 0.091530 0.425843 0.438246
O O10 0.000000 0.338408 0.492476
O O11 0.251512 0.472166 0.313854
O O12 0.273876 0.376279 0.387991
#
# Coordination Sequence:
#
# PCOD8320568 Si02
#       5
#    32  32  32  32  32
#     4  11  22  41  63  88 116 148 188 237 303 364
#     4  10  22  37  57  85 119 156 198 246 292 344
#     4  10  18  29  50  80 115 152 195 240 284 337
#     4   9  16  29  50  79 108 144 200 239 273 325
#     4  10  18  35  58  81 111 154 193 242 277 339
#
# _framework density 20.178878000000001
#
# number of rings (size 3 to 8) (size 9 to 14) (size 15 to 20)
#    0.000    2.000    4.000    1.200    0.000    3.000 
#    0.000    2.000    0.000    1.800    0.000    5.600 
#    0.000    0.000    0.000    0.000    0.000    0.000 
#
# Total GULP energy -991171.015182 kJ/mol
# GULP energy per Si atom -12389.637690 kJ/mol
# Density = 2.013295 g / cm^3
# Si number density = 20.178878 Si / 1000 Ang^3
#
#
#
# Elastic Constant Matrix: (Units=GPa)
#
#
# Indices 1 2 3 4 5 6 
#
# 1 114.1691 32.6614 22.5772 0.0000 0.0000 0.0000
# 2 32.6614 114.1691 22.5772 0.0000 0.0000 0.0000
# 3 22.5772 22.5772 53.7491 0.0000 0.0000 0.0000
# 4 0.0000 0.0000 0.0000 24.2403 0.0000 0.0000
# 5 0.0000 0.0000 0.0000 0.0000 24.2403 0.0000
# 6 0.0000 0.0000 0.0000 0.0000 0.0000 12.1272
#
#
#
# Elastic Compliance Matrix: (Units=1/GPa)
#
#
# Indices 1 2 3 4 5 6 
#
# 1 0.010045 -0.002224 -0.003285 0.000000 0.000000 0.000000
# 2 -0.002224 0.010045 -0.003285 0.000000 0.000000 0.000000
# 3 -0.003285 -0.003285 0.021365 0.000000 0.000000 0.000000
# 4 0.000000 0.000000 0.000000 0.041254 0.000000 0.000000
# 5 0.000000 0.000000 0.000000 0.000000 0.041254 0.000000
# 6 0.000000 0.000000 0.000000 0.000000 0.000000 0.082459
#
#
# Mechanical properties :
#
#
# Convention : Reuss Voigt Hill
#
# Bulk Modulus (GPa) = 41.90070 48.63545 45.26807
# Shear Modulus (GPa) = 21.55499 25.73965 23.64732
#
# Velocity S-wave (km/s) = 3.27187 3.57539 3.42699
# Velocity P-wave (km/s) = 5.92311 6.41865 6.17585
#
# Compressibility (1/GPa) = 0.02386595
#
# Stress axis : x y z
#
# Youngs Moduli (GPa) = 99.55393 99.55393 46.80598
#
# Poissons Ratio (x) = 0.22140 0.15376
# Poissons Ratio (y) = 0.22140 0.15376
# Poissons Ratio (z) = 0.32705 0.32705
#
# Static dielectric constant tensor:
#      x y z
#    x 3.502140 0.000000 0.000000 
#    y 0.000000 3.502140 0.000000 
#    z 0.000000 0.000000 3.756340 
# 
# 
# High freq. dielectric constant tensor:
#      x y z
#    x 1.765710 0.000000 0.000000 
#    y 0.000000 1.765710 0.000000 
#    z 0.000000 0.000000 1.784300 
# 
# From -- ./inp_files/14288.got.cif
#   From: 2010.03.12/outbox.cif.g09.slc.cpg/sg141_8_cif.got.tgz:14288.got - 2010.04.03 13:18:35.
