data_PCOD8320064
_publ_section_title
;
Structure prediction by ZEFSAII (Michael W. Deem and Ramdas Pophale) SiO2 
 PCOD8320064
Probable space group: I 4/M C M
;
_chemical_formula_sum "Si O2"
_cell_formula_units_Z 160
_cell_length_a 19.008636
_cell_length_b 19.008636
_cell_length_c 24.965041
_cell_angle_alpha 90.000000
_cell_angle_beta 90.000000
_cell_angle_gamma 90.000000
_cell_volume 9020.574390
_symmetry_space_group_name_H-M "I 4/M C M"
_symmetry_group_IT_number 140
_symmetry_cell_setting 'tetragonal'
loop_
_space_group_symop_operation_xyz
x,y,z
-y,x,z
-x,-y,z
y,-x,z
x,-y,1/2-z
-x,y,1/2-z
y,x,1/2-z
-y,-x,1/2-z
-x,-y,-z
y,-x,-z
x,y,-z
-y,x,-z
-x,y,1/2+z
x,-y,1/2+z
-y,-x,1/2+z
y,x,1/2+z
1/2+x,1/2+y,1/2+z
1/2-y,1/2+x,1/2+z
1/2-x,1/2-y,1/2+z
1/2+y,1/2-x,1/2+z
1/2+x,1/2-y,-z
1/2-x,1/2+y,-z
1/2+y,1/2+x,-z
1/2-y,1/2-x,-z
1/2-x,1/2-y,1/2-z
1/2+y,1/2-x,1/2-z
1/2+x,1/2+y,1/2-z
1/2-y,1/2+x,1/2-z
1/2-x,1/2+y,z
1/2+x,1/2-y,z
1/2-y,1/2-x,z
1/2+y,1/2+x,z
loop_
_atom_site_type_symbol
_atom_site_label
_atom_site_fract_x
_atom_site_fract_y
_atom_site_fract_z
Si Si1 0.342313 0.157688 0.560487
Si Si2 0.087227 0.925604 0.311282
Si Si3 0.570646 0.407319 0.500000
Si Si4 0.701966 0.007284 0.063785
Si Si5 0.902521 0.188316 0.097593
Si Si6 0.055453 0.555453 0.937002
Si Si7 0.225238 0.725238 0.061196
O O1 0.363023 0.136978 0.500000
O O2 0.312211 0.085998 0.586322
O O3 0.283998 0.216003 0.563577
O O4 0.097691 0.902310 0.250000
O O5 0.147240 0.888962 0.346822
O O6 0.007971 0.903414 0.324962
O O7 0.597479 0.486787 0.500000
O O8 0.603428 0.370105 0.551552
O O9 0.770554 0.976917 0.094091
O O10 0.634600 0.961280 0.080765
O O11 0.716687 0.004959 0.000000
O O12 0.843208 0.247309 0.091377
O O13 0.000000 0.500000 0.910965
O O14 0.048328 0.548328 0.000000
O O15 0.205694 0.705694 0.000000
#
# Coordination Sequence:
#
# PCOD8320064 Si02
#       7
#    16  32  16  32  32  16  16
#     4   9  20  30  46  65 105 149 192 219 270 339
#     4   9  20  40  63  84 105 138 190 244 291 340
#     4  11  24  35  50  80 111 141 190 239 279 338
#     4  10  18  30  46  73 102 149 190 230 271 335
#     4  12  22  34  57  78 114 153 188 232 294 347
#     4   9  15  27  45  64  99 143 203 241 261 297
#     4  11  23  36  45  77 121 159 181 219 280 351
#
# _framework density 17.737228999999999
#
# number of rings (size 3 to 8) (size 9 to 14) (size 15 to 20)
#    0.000    1.800    3.000    2.400    5.600    2.400 
#    0.000    0.500    0.000    0.000    0.000    0.000 
#    0.000    0.000    0.000    0.000    0.000    0.000 
#
# Total GULP energy -991810.972105 kJ/mol
# GULP energy per Si atom -12397.637151 kJ/mol
# Density = 1.769686 g / cm^3
# Si number density = 17.737229 Si / 1000 Ang^3
#
#
#
# Elastic Constant Matrix: (Units=GPa)
#
#
# Indices 1 2 3 4 5 6 
#
# 1 82.2632 26.4655 41.1870 0.0000 0.0000 0.0000
# 2 26.4655 82.2637 41.1872 0.0000 0.0000 0.0000
# 3 41.1870 41.1872 75.6747 0.0000 0.0000 0.0000
# 4 0.0000 0.0000 0.0000 17.1723 0.0000 0.0000
# 5 0.0000 0.0000 0.0000 0.0000 17.1723 0.0000
# 6 0.0000 0.0000 0.0000 0.0000 0.0000 30.1416
#
#
#
# Elastic Compliance Matrix: (Units=1/GPa)
#
#
# Indices 1 2 3 4 5 6 
#
# 1 0.016786 -0.001136 -0.008518 0.000000 0.000000 0.000000
# 2 -0.001136 0.016786 -0.008518 0.000000 0.000000 0.000000
# 3 -0.008518 -0.008518 0.022487 0.000000 0.000000 0.000000
# 4 0.000000 0.000000 0.000000 0.058233 0.000000 0.000000
# 5 0.000000 0.000000 0.000000 0.000000 0.058233 0.000000
# 6 0.000000 0.000000 0.000000 0.000000 0.000000 0.033177
#
#
# Mechanical properties :
#
#
# Convention : Reuss Voigt Hill
#
# Bulk Modulus (GPa) = 50.72148 50.87567 50.79857
# Shear Modulus (GPa) = 20.11119 21.65469 20.88294
#
# Velocity S-wave (km/s) = 3.37091 3.49787 3.43498
# Velocity P-wave (km/s) = 6.61882 6.71258 6.66587
#
# Compressibility (1/GPa) = 0.01971551
#
# Stress axis : x y z
#
# Youngs Moduli (GPa) = 59.57263 59.57300 44.47087
#
# Poissons Ratio (x) = 0.06765 0.37881
# Poissons Ratio (y) = 0.06765 0.37881
# Poissons Ratio (z) = 0.50744 0.50745
#
# Static dielectric constant tensor:
#      x y z
#    x 3.424480 0.000000 0.000000 
#    y 0.000000 3.424490 0.000000 
#    z 0.000000 0.000000 2.843910 
# 
# 
# High freq. dielectric constant tensor:
#      x y z
#    x 1.698790 0.000000 0.000000 
#    y 0.000000 1.698790 0.000000 
#    z 0.000000 0.000000 1.616350 
# 
# From -- ./inp_files/10613.got.cif
#   From: 2010.06.25/outbox.cif.g09.slc.cpg/sg140_6_cif.got.tgz:10613.got - 2010.06.28 10:53:23.
