data_PCOD8320370
_publ_section_title
;
Structure prediction by ZEFSAII (Michael W. Deem and Ramdas Pophale) SiO2 
 PCOD8320370
Probable space group: I 4/M C M
;
_chemical_formula_sum "Si O2"
_cell_formula_units_Z 176
_cell_length_a 25.095954
_cell_length_b 25.095954
_cell_length_c 14.858424
_cell_angle_alpha 90.000000
_cell_angle_beta 90.000000
_cell_angle_gamma 90.000000
_cell_volume 9357.938065
_symmetry_space_group_name_H-M "I 4/M C M"
_symmetry_group_IT_number 140
_symmetry_cell_setting 'tetragonal'
loop_
_space_group_symop_operation_xyz
x,y,z
-y,x,z
-x,-y,z
y,-x,z
x,-y,1/2-z
-x,y,1/2-z
y,x,1/2-z
-y,-x,1/2-z
-x,-y,-z
y,-x,-z
x,y,-z
-y,x,-z
-x,y,1/2+z
x,-y,1/2+z
-y,-x,1/2+z
y,x,1/2+z
1/2+x,1/2+y,1/2+z
1/2-y,1/2+x,1/2+z
1/2-x,1/2-y,1/2+z
1/2+y,1/2-x,1/2+z
1/2+x,1/2-y,-z
1/2-x,1/2+y,-z
1/2+y,1/2+x,-z
1/2-y,1/2-x,-z
1/2-x,1/2-y,1/2-z
1/2+y,1/2-x,1/2-z
1/2+x,1/2+y,1/2-z
1/2-y,1/2+x,1/2-z
1/2-x,1/2+y,z
1/2+x,1/2-y,z
1/2-y,1/2-x,z
1/2+y,1/2+x,z
loop_
_atom_site_type_symbol
_atom_site_label
_atom_site_fract_x
_atom_site_fract_y
_atom_site_fract_z
Si Si1 0.202986 0.616530 0.895898
Si Si2 0.272417 0.998496 0.603017
Si Si3 0.135528 0.219594 0.238859
Si Si4 0.475167 0.585850 0.000000
Si Si5 0.838310 0.967081 0.670920
Si Si6 0.306370 0.110723 0.603048
O O1 0.151843 0.651843 0.866087
O O2 0.191362 0.553681 0.879362
O O3 0.255005 0.626602 0.836827
O O4 0.217300 0.627827 0.000000
O O5 0.256572 0.003679 0.500000
O O6 0.215657 0.998929 0.652843
O O7 0.307888 0.049044 0.633905
O O8 0.191480 0.191480 0.250000
O O9 0.091429 0.177166 0.206196
O O10 0.142752 0.264821 0.163753
O O11 0.434501 0.536082 0.000000
O O12 0.463103 0.622056 0.913152
O O13 0.868244 0.000000 0.750000
O O14 0.287460 0.116727 0.500000
O O15 0.365151 0.134850 0.617148
#
# Coordination Sequence:
#
# PCOD8320370 Si02
#       6
#    32  32  32  16  32  32
#     4  10  21  37  57  84 119 158 198 246 304 360
#     4   9  17  35  58  83 113 150 198 244 283 347
#     4  11  24  37  55  87 114 151 194 250 297 363
#     4  11  28  46  64  90 124 156 194 257 322 372
#     4  11  22  40  65  89 112 155 204 251 294 362
#     4   9  19  35  56  82 115 153 194 243 300 360
#
# _framework density 18.807562000000001
#
# number of rings (size 3 to 8) (size 9 to 14) (size 15 to 20)
#    0.000    1.909    2.727    0.545    3.818    2.182 
#    0.000    2.727    0.000    0.545    0.000    3.818 
#    0.000    3.273    0.000    0.364    0.000    0.000 
#
# Total GULP energy -1090610.248485 kJ/mol
# GULP energy per Si atom -12393.298278 kJ/mol
# Density = 1.876476 g / cm^3
# Si number density = 18.807562 Si / 1000 Ang^3
#
#
#
# Elastic Constant Matrix: (Units=GPa)
#
#
# Indices 1 2 3 4 5 6 
#
# 1 102.1617 78.6854 51.6886 0.0000 0.0000 0.0000
# 2 78.6854 102.1617 51.6886 0.0000 0.0000 0.0000
# 3 51.6886 51.6886 105.5960 0.0000 0.0000 0.0000
# 4 0.0000 0.0000 0.0000 26.7488 0.0000 0.0000
# 5 0.0000 0.0000 0.0000 0.0000 26.7488 0.0000
# 6 0.0000 0.0000 0.0000 0.0000 0.0000 32.6270
#
#
#
# Elastic Compliance Matrix: (Units=1/GPa)
#
#
# Indices 1 2 3 4 5 6 
#
# 1 0.025137 -0.017459 -0.003758 0.000000 0.000000 0.000000
# 2 -0.017459 0.025137 -0.003758 0.000000 0.000000 0.000000
# 3 -0.003758 -0.003758 0.013149 0.000000 0.000000 0.000000
# 4 0.000000 0.000000 0.000000 0.037385 0.000000 0.000000
# 5 0.000000 0.000000 0.000000 0.000000 0.037385 0.000000
# 6 0.000000 0.000000 0.000000 0.000000 0.000000 0.030649
#
#
# Mechanical properties :
#
#
# Convention : Reuss Voigt Hill
#
# Bulk Modulus (GPa) = 74.22797 74.89385 74.56091
# Shear Modulus (GPa) = 22.39295 25.74871 24.07083
#
# Velocity S-wave (km/s) = 3.45430 3.70410 3.58138
# Velocity P-wave (km/s) = 7.44731 7.62898 7.53869
#
# Compressibility (1/GPa) = 0.01347201
#
# Stress axis : x y z
#
# Youngs Moduli (GPa) = 39.78200 39.78200 76.04936
#
# Poissons Ratio (x) = 0.69456 0.28581
# Poissons Ratio (y) = 0.69456 0.28581
# Poissons Ratio (z) = 0.14951 0.14951
#
# Static dielectric constant tensor:
#      x y z
#    x 3.461970 0.000000 0.000000 
#    y 0.000000 3.461970 0.000000 
#    z 0.000000 0.000000 3.724920 
# 
# 
# High freq. dielectric constant tensor:
#      x y z
#    x 1.716820 0.000000 0.000000 
#    y 0.000000 1.716820 0.000000 
#    z 0.000000 0.000000 1.753380 
# 
# From -- ./inp_files/4891.got.cif
#   From: 2010.06.25/outbox.cif.g09.slc.cpg/sg140_3_cif.got.tgz:4891.got - 2010.06.28 10:53:23.
