data_PCOD8320100
_publ_section_title
;
Structure prediction by ZEFSAII (Michael W. Deem and Ramdas Pophale) SiO2 
 PCOD8320100
Probable space group: I 4/M C M
;
_chemical_formula_sum "Si O2"
_cell_formula_units_Z 144
_cell_length_a 20.301489
_cell_length_b 20.301489
_cell_length_c 17.873515
_cell_angle_alpha 90.000000
_cell_angle_beta 90.000000
_cell_angle_gamma 90.000000
_cell_volume 7366.577351
_symmetry_space_group_name_H-M "I 4/M C M"
_symmetry_group_IT_number 140
_symmetry_cell_setting 'tetragonal'
loop_
_space_group_symop_operation_xyz
x,y,z
-y,x,z
-x,-y,z
y,-x,z
x,-y,1/2-z
-x,y,1/2-z
y,x,1/2-z
-y,-x,1/2-z
-x,-y,-z
y,-x,-z
x,y,-z
-y,x,-z
-x,y,1/2+z
x,-y,1/2+z
-y,-x,1/2+z
y,x,1/2+z
1/2+x,1/2+y,1/2+z
1/2-y,1/2+x,1/2+z
1/2-x,1/2-y,1/2+z
1/2+y,1/2-x,1/2+z
1/2+x,1/2-y,-z
1/2-x,1/2+y,-z
1/2+y,1/2+x,-z
1/2-y,1/2-x,-z
1/2-x,1/2-y,1/2-z
1/2+y,1/2-x,1/2-z
1/2+x,1/2+y,1/2-z
1/2-y,1/2+x,1/2-z
1/2-x,1/2+y,z
1/2+x,1/2-y,z
1/2-y,1/2-x,z
1/2+y,1/2+x,z
loop_
_atom_site_type_symbol
_atom_site_label
_atom_site_fract_x
_atom_site_fract_y
_atom_site_fract_z
Si Si1 0.669183 0.278850 0.583048
Si Si2 0.682194 0.397077 0.308716
Si Si3 0.500000 0.103345 0.250000
Si Si4 0.394157 0.522591 0.583912
Si Si5 0.596267 0.202570 0.302133
O O1 0.646927 0.301125 0.500000
O O2 0.729214 0.229214 0.577822
O O3 0.694329 0.340897 0.629798
O O4 0.605521 0.244532 0.621936
O O5 0.627213 0.372788 0.250000
O O6 0.659908 0.463364 0.352251
O O7 0.750093 0.415841 0.268609
O O8 0.443861 0.056140 0.287821
O O9 0.535616 0.150824 0.310817
O O10 0.422391 0.450234 0.595925
O O11 0.365133 0.529061 0.500000
O O12 0.664074 0.164074 0.285693
#
# Coordination Sequence:
#
# PCOD8320100 Si02
#       5
#    32  32  16  32  32
#     4   9  17  30  49  73 102 134 165 201 250 304
#     4  10  19  29  47  73 101 131 165 206 251 298
#     4   9  18  34  56  78 102 135 172 212 260 311
#     4   9  19  35  50  65  92 129 165 202 243 287
#     4   9  18  32  50  75 104 130 163 209 256 301
#
# _framework density 19.547747000000001
#
# number of rings (size 3 to 8) (size 9 to 14) (size 15 to 20)
#    0.000    2.778    0.000    2.000    0.000    7.111 
#    0.000    1.111    0.000    2.000    0.000   10.889 
#    0.000    0.000    0.000    0.000    0.000    0.000 
#
# Total GULP energy -892346.868040 kJ/mol
# GULP energy per Si atom -12393.706501 kJ/mol
# Density = 1.950326 g / cm^3
# Si number density = 19.547747 Si / 1000 Ang^3
#
#
#
# Elastic Constant Matrix: (Units=GPa)
#
#
# Indices 1 2 3 4 5 6 
#
# 1 55.6573 17.6609 31.5146 0.0000 0.0000 0.0000
# 2 17.6609 55.6571 31.5149 0.0000 0.0000 0.0000
# 3 31.5146 31.5149 123.6115 0.0000 0.0000 0.0000
# 4 0.0000 0.0000 0.0000 20.3616 0.0000 0.0000
# 5 0.0000 0.0000 0.0000 0.0000 20.3614 0.0000
# 6 0.0000 0.0000 0.0000 0.0000 0.0000 27.7608
#
#
#
# Elastic Compliance Matrix: (Units=1/GPa)
#
#
# Indices 1 2 3 4 5 6 
#
# 1 0.021893 -0.004425 -0.004453 0.000000 0.000000 0.000000
# 2 -0.004425 0.021893 -0.004453 0.000000 0.000000 0.000000
# 3 -0.004453 -0.004453 0.010361 0.000000 0.000000 0.000000
# 4 0.000000 0.000000 0.000000 0.049112 0.000000 0.000000
# 5 0.000000 0.000000 0.000000 0.000000 0.049113 0.000000
# 6 0.000000 0.000000 0.000000 0.000000 0.000000 0.036022
#
#
# Mechanical properties :
#
#
# Convention : Reuss Voigt Hill
#
# Bulk Modulus (GPa) = 36.38690 44.03409 40.21050
# Shear Modulus (GPa) = 22.29970 23.97912 23.13941
#
# Velocity S-wave (km/s) = 3.38121 3.50622 3.44428
# Velocity P-wave (km/s) = 5.82222 6.24234 6.03593
#
# Compressibility (1/GPa) = 0.02748242
#
# Stress axis : x y z
#
# Youngs Moduli (GPa) = 45.67687 45.67658 96.51911
#
# Poissons Ratio (x) = 0.20213 0.42983
# Poissons Ratio (y) = 0.20214 0.42984
# Poissons Ratio (z) = 0.20341 0.20342
#
# Static dielectric constant tensor:
#      x y z
#    x 3.598540 0.000000 0.000000 
#    y 0.000000 3.598540 0.000000 
#    z 0.000000 0.000000 3.635410 
# 
# 
# High freq. dielectric constant tensor:
#      x y z
#    x 1.760740 0.000000 0.000000 
#    y 0.000000 1.760740 0.000000 
#    z 0.000000 0.000000 1.742000 
# 
# From -- ./inp_files/6676.got.cif
#   From: 2010.06.25/outbox.cif.g09.slc.cpg/sg140_4_cif.got.tgz:6676.got - 2010.06.28 10:53:23.
