data_PCOD8320405
_publ_section_title
;
Structure prediction by ZEFSAII (Michael W. Deem and Ramdas Pophale) SiO2 
 PCOD8320405
Probable space group: I 4/M C M
;
_chemical_formula_sum "Si O2"
_cell_formula_units_Z 144
_cell_length_a 20.133689
_cell_length_b 20.133689
_cell_length_c 15.868417
_cell_angle_alpha 90.000000
_cell_angle_beta 90.000000
_cell_angle_gamma 90.000000
_cell_volume 6432.507724
_symmetry_space_group_name_H-M "I 4/M C M"
_symmetry_group_IT_number 140
_symmetry_cell_setting 'tetragonal'
loop_
_space_group_symop_operation_xyz
x,y,z
-y,x,z
-x,-y,z
y,-x,z
x,-y,1/2-z
-x,y,1/2-z
y,x,1/2-z
-y,-x,1/2-z
-x,-y,-z
y,-x,-z
x,y,-z
-y,x,-z
-x,y,1/2+z
x,-y,1/2+z
-y,-x,1/2+z
y,x,1/2+z
1/2+x,1/2+y,1/2+z
1/2-y,1/2+x,1/2+z
1/2-x,1/2-y,1/2+z
1/2+y,1/2-x,1/2+z
1/2+x,1/2-y,-z
1/2-x,1/2+y,-z
1/2+y,1/2+x,-z
1/2-y,1/2-x,-z
1/2-x,1/2-y,1/2-z
1/2+y,1/2-x,1/2-z
1/2+x,1/2+y,1/2-z
1/2-y,1/2+x,1/2-z
1/2-x,1/2+y,z
1/2+x,1/2-y,z
1/2-y,1/2-x,z
1/2+y,1/2+x,z
loop_
_atom_site_type_symbol
_atom_site_label
_atom_site_fract_x
_atom_site_fract_y
_atom_site_fract_z
Si Si1 0.076384 0.923617 0.750000
Si Si2 0.125980 0.158145 0.593953
Si Si3 0.268615 0.874308 0.851316
Si Si4 0.903208 0.705394 0.331003
Si Si5 0.131269 0.475122 0.905831
O O1 0.107581 0.898519 0.663826
O O2 0.000000 0.906548 0.750000
O O3 0.104547 0.135093 0.500000
O O4 0.204823 0.153690 0.601951
O O5 0.098607 0.233216 0.604169
O O6 0.309864 0.809864 0.829021
O O7 0.259461 0.911167 0.760736
O O8 0.307274 0.924332 0.912552
O O9 0.835239 0.664762 0.339559
O O10 0.963326 0.653067 0.347261
O O11 0.065720 0.434281 0.871072
O O12 0.116105 0.501377 0.000000
#
# Coordination Sequence:
#
# PCOD8320405 Si02
#       5
#    16  32  32  32  32
#     4  11  28  52  73  98 136 176 219 272 338 421
#     4  12  25  42  72 104 136 177 227 286 350 418
#     4  10  21  40  64  92 131 175 225 286 345 407
#     4  11  23  40  64  97 138 183 236 292 348 416
#     4  10  22  39  61  93 133 182 237 289 347 417
#
# _framework density 22.386292000000001
#
# number of rings (size 3 to 8) (size 9 to 14) (size 15 to 20)
#    0.000    1.222    2.222    2.667    3.111    7.111 
#    0.000    2.222    0.000    4.000    0.000    0.000 
#    0.000    0.000    0.000    0.000    0.000    0.000 
#
# Total GULP energy -892280.186162 kJ/mol
# GULP energy per Si atom -12392.780363 kJ/mol
# Density = 2.233534 g / cm^3
# Si number density = 22.386292 Si / 1000 Ang^3
#
#
#
# Elastic Constant Matrix: (Units=GPa)
#
#
# Indices 1 2 3 4 5 6 
#
# 1 101.6866 25.9165 40.4389 0.0000 0.0000 0.0000
# 2 25.9165 101.6877 40.4389 0.0000 0.0000 0.0000
# 3 40.4389 40.4389 160.8434 0.0000 0.0000 0.0000
# 4 0.0000 0.0000 0.0000 32.6376 0.0000 0.0000
# 5 0.0000 0.0000 0.0000 0.0000 32.6284 0.0000
# 6 0.0000 0.0000 0.0000 0.0000 0.0000 40.1059
#
#
#
# Elastic Compliance Matrix: (Units=1/GPa)
#
#
# Indices 1 2 3 4 5 6 
#
# 1 0.011260 -0.001938 -0.002344 0.000000 0.000000 0.000000
# 2 -0.001938 0.011260 -0.002344 0.000000 0.000000 0.000000
# 3 -0.002344 -0.002344 0.007396 0.000000 0.000000 0.000000
# 4 0.000000 0.000000 0.000000 0.030639 0.000000 0.000000
# 5 0.000000 0.000000 0.000000 0.000000 0.030648 0.000000
# 6 0.000000 0.000000 0.000000 0.000000 0.000000 0.024934
#
#
# Mechanical properties :
#
#
# Convention : Reuss Voigt Hill
#
# Bulk Modulus (GPa) = 60.00525 64.20071 62.10298
# Shear Modulus (GPa) = 37.05266 38.23595 37.64431
#
# Velocity S-wave (km/s) = 4.07277 4.13729 4.10515
# Velocity P-wave (km/s) = 6.99852 7.18079 7.09024
#
# Compressibility (1/GPa) = 0.01666521
#
# Stress axis : x y z
#
# Youngs Moduli (GPa) = 88.80928 88.81040 135.21243
#
# Poissons Ratio (x) = 0.17209 0.31691
# Poissons Ratio (y) = 0.17209 0.31691
# Poissons Ratio (z) = 0.20815 0.20815
#
# Static dielectric constant tensor:
#      x y z
#    x 3.622290 0.000000 0.000000 
#    y 0.000000 3.622990 0.000000 
#    z 0.000000 0.000000 3.999540 
# 
# 
# High freq. dielectric constant tensor:
#      x y z
#    x 1.879700 0.000000 0.000000 
#    y 0.000000 1.879700 0.000000 
#    z 0.000000 0.000000 1.884930 
# 
# From -- ./inp_files/6681.got.cif
#   From: 2010.06.25/outbox.cif.g09.slc.cpg/sg140_4_cif.got.tgz:6681.got - 2010.06.28 10:53:23.
