data_PCOD8320833
_publ_section_title
;
Structure prediction by ZEFSAII (Michael W. Deem and Ramdas Pophale) SiO2 
 PCOD8320833
Probable space group: I 41/A M D
;
_chemical_formula_sum "Si O2"
_cell_formula_units_Z 144
_cell_length_a 20.617342
_cell_length_b 20.617342
_cell_length_c 16.060402
_cell_angle_alpha 90.000000
_cell_angle_beta 90.000000
_cell_angle_gamma 90.000000
_cell_volume 6826.872026
_symmetry_space_group_name_H-M "I 41/A M D"
_symmetry_group_IT_number 141
_space_group.IT_coordinate_system_code '2'
_symmetry_cell_setting 'tetragonal'
loop_
_space_group_symop_operation_xyz
x,y,z
1/4-y,3/4+x,1/4+z
-x,1/2-y,z
1/4+y,1/4-x,3/4+z
x,-y,-z
-x,1/2+y,-z
1/4+y,3/4+x,1/4-z
1/4-y,1/4-x,3/4-z
-x,-y,-z
3/4+y,1/4-x,3/4-z
x,1/2+y,-z
3/4-y,3/4+x,1/4-z
-x,y,z
x,1/2-y,z
3/4-y,1/4-x,3/4+z
3/4+y,3/4+x,1/4+z
1/2+x,1/2+y,1/2+z
3/4-y,1/4+x,3/4+z
1/2-x,-y,1/2+z
3/4+y,3/4-x,1/4+z
1/2+x,1/2-y,1/2-z
1/2-x,y,1/2-z
3/4+y,1/4+x,3/4-z
3/4-y,3/4-x,1/4-z
1/2-x,1/2-y,1/2-z
1/4+y,3/4-x,1/4-z
1/2+x,y,1/2-z
1/4-y,1/4+x,3/4-z
1/2-x,1/2+y,1/2+z
1/2+x,-y,1/2+z
1/4-y,3/4-x,1/4+z
1/4+y,1/4+x,3/4+z
loop_
_atom_site_type_symbol
_atom_site_label
_atom_site_fract_x
_atom_site_fract_y
_atom_site_fract_z
Si Si1 0.172683 0.500000 0.000000
Si Si2 0.762910 0.132586 0.044800
Si Si3 0.162045 0.675547 0.667277
Si Si4 0.376383 0.677339 0.646475
Si Si5 0.208293 0.179350 0.620087
O O1 0.218930 0.437508 0.005932
O O2 0.125734 0.497802 0.080257
O O3 0.715871 0.128338 0.125407
O O4 0.825325 0.173389 0.071691
O O5 0.726339 0.173838 0.975918
O O6 0.178928 0.750000 0.648130
O O7 0.092903 0.657098 0.625000
O O8 0.159778 0.663169 0.766066
O O9 0.407892 0.750000 0.647265
O O10 0.426900 0.620289 0.626106
O O11 0.228958 0.250000 0.654130
#
# Coordination Sequence:
#
# PCOD8320833 Si02
#       5
#    16  32  32  32  32
#     4  10  25  42  60  88 117 152 200 256 310 358
#     4  11  22  39  60  85 119 160 201 244 303 360
#     4  11  22  37  57  87 123 163 202 241 291 354
#     4  10  22  38  58  88 123 160 201 242 291 357
#     4  11  22  40  63  87 117 156 200 249 306 357
#
# _framework density 21.093115000000001
#
# number of rings (size 3 to 8) (size 9 to 14) (size 15 to 20)
#    0.000    1.333    2.222    3.667    0.000    6.000 
#    0.000    2.222    0.000    0.000    0.000    0.000 
#    0.000   19.556    0.000    0.000    0.000    0.000 
#
# Total GULP energy -892300.967326 kJ/mol
# GULP energy per Si atom -12393.068991 kJ/mol
# Density = 2.104511 g / cm^3
# Si number density = 21.093115 Si / 1000 Ang^3
#
#
#
# Elastic Constant Matrix: (Units=GPa)
#
#
# Indices 1 2 3 4 5 6 
#
# 1 95.9659 47.3661 25.3185 0.0000 0.0000 0.0000
# 2 47.3661 95.9616 25.3177 0.0000 0.0000 0.0000
# 3 25.3185 25.3177 61.9385 0.0000 0.0000 0.0000
# 4 0.0000 0.0000 0.0000 24.0721 0.0000 0.0000
# 5 0.0000 0.0000 0.0000 0.0000 24.0729 0.0000
# 6 0.0000 0.0000 0.0000 0.0000 0.0000 18.6063
#
#
#
# Elastic Compliance Matrix: (Units=1/GPa)
#
#
# Indices 1 2 3 4 5 6 
#
# 1 0.014366 -0.006211 -0.003333 0.000000 0.000000 0.000000
# 2 -0.006211 0.014366 -0.003333 0.000000 0.000000 0.000000
# 3 -0.003333 -0.003333 0.018870 0.000000 0.000000 0.000000
# 4 0.000000 0.000000 0.000000 0.041542 0.000000 0.000000
# 5 0.000000 0.000000 0.000000 0.000000 0.041541 0.000000
# 6 0.000000 0.000000 0.000000 0.000000 0.000000 0.053745
#
#
# Mechanical properties :
#
#
# Convention : Reuss Voigt Hill
#
# Bulk Modulus (GPa) = 45.77485 49.98563 47.88024
# Shear Modulus (GPa) = 22.99198 23.74115 23.36656
#
# Velocity S-wave (km/s) = 3.30513 3.35855 3.33195
# Velocity P-wave (km/s) = 6.02608 6.22807 6.12791
#
# Compressibility (1/GPa) = 0.02184606
#
# Stress axis : x y z
#
# Youngs Moduli (GPa) = 69.61112 69.60820 52.99399
#
# Poissons Ratio (x) = 0.43236 0.17664
# Poissons Ratio (y) = 0.43238 0.17664
# Poissons Ratio (z) = 0.23203 0.23202
#
# Static dielectric constant tensor:
#      x y z
#    x 3.770670 0.000000 0.000000 
#    y 0.000000 3.770670 0.000000 
#    z 0.000000 0.000000 3.822710 
# 
# 
# High freq. dielectric constant tensor:
#      x y z
#    x 1.820370 0.000000 0.000000 
#    y 0.000000 1.820370 0.000000 
#    z 0.000000 0.000000 1.828070 
# 
# From -- ./inp_files/8427.got.cif
#   From: 2010.03.12/outbox.cif.g09.slc.cpg/sg141_5_cif.got.tgz:8427.got - 2010.04.03 13:18:35.
