data_PCOD8320564
_publ_section_title
;
Structure prediction by ZEFSAII (Michael W. Deem and Ramdas Pophale) SiO2 
 PCOD8320564
Probable space group: I 41/A M D
;
_chemical_formula_sum "Si O2"
_cell_formula_units_Z 192
_cell_length_a 28.519157
_cell_length_b 28.519157
_cell_length_c 15.239021
_cell_angle_alpha 90.000000
_cell_angle_beta 90.000000
_cell_angle_gamma 90.000000
_cell_volume 12394.540634
_symmetry_space_group_name_H-M "I 41/A M D"
_symmetry_group_IT_number 141
_space_group.IT_coordinate_system_code '2'
_symmetry_cell_setting 'tetragonal'
loop_
_space_group_symop_operation_xyz
x,y,z
1/4-y,3/4+x,1/4+z
-x,1/2-y,z
1/4+y,1/4-x,3/4+z
x,-y,-z
-x,1/2+y,-z
1/4+y,3/4+x,1/4-z
1/4-y,1/4-x,3/4-z
-x,-y,-z
3/4+y,1/4-x,3/4-z
x,1/2+y,-z
3/4-y,3/4+x,1/4-z
-x,y,z
x,1/2-y,z
3/4-y,1/4-x,3/4+z
3/4+y,3/4+x,1/4+z
1/2+x,1/2+y,1/2+z
3/4-y,1/4+x,3/4+z
1/2-x,-y,1/2+z
3/4+y,3/4-x,1/4+z
1/2+x,1/2-y,1/2-z
1/2-x,y,1/2-z
3/4+y,1/4+x,3/4-z
3/4-y,3/4-x,1/4-z
1/2-x,1/2-y,1/2-z
1/4+y,3/4-x,1/4-z
1/2+x,y,1/2-z
1/4-y,1/4+x,3/4-z
1/2-x,1/2+y,1/2+z
1/2+x,-y,1/2+z
1/4-y,3/4-x,1/4+z
1/4+y,1/4+x,3/4+z
loop_
_atom_site_type_symbol
_atom_site_label
_atom_site_fract_x
_atom_site_fract_y
_atom_site_fract_z
Si Si1 0.111666 0.196702 0.759093
Si Si2 0.640650 0.803786 0.444260
Si Si3 0.621194 0.803825 0.062563
Si Si4 0.136514 0.694680 0.762149
Si Si5 0.055048 0.062132 0.340704
Si Si6 0.555628 0.958219 0.162341
O O1 0.091859 0.250000 0.767042
O O2 0.070030 0.159958 0.770734
O O3 0.148025 0.187333 0.839813
O O4 0.136141 0.189563 0.664578
O O5 0.640985 0.750000 0.468963
O O6 0.683384 0.826534 0.499501
O O7 0.605655 0.750000 0.044436
O O8 0.578073 0.836941 0.037114
O O9 0.666167 0.817203 0.004126
O O10 0.127867 0.750000 0.763405
O O11 0.153918 0.675826 0.667508
O O12 0.176914 0.679305 0.829782
O O13 0.000000 0.057326 0.355661
O O14 0.077966 0.010213 0.345859
O O15 0.500000 0.963397 0.167365
#
# Coordination Sequence:
#
# PCOD8320564 Si02
#       6
#    32  32  32  32  32  32
#     4   9  17  27  40  59  87 118 144 175 217 262
#     4   9  16  27  42  61  83 113 150 185 217 252
#     4  10  19  30  42  62  92 124 147 174 219 266
#     4  10  18  29  45  64  85 118 156 188 218 251
#     4   9  18  30  43  59  84 116 148 182 222 261
#     4   9  16  28  45  63  81 109 150 190 224 255
#
# _framework density 15.490691999999999
#
# number of rings (size 3 to 8) (size 9 to 14) (size 15 to 20)
#    0.000    2.667    1.667    1.000    0.000    2.667 
#    0.000    4.167    0.000    8.000    0.000    0.000 
#    0.000    0.000   34.000    0.000    0.000    0.000 
#
# Total GULP energy -1189507.901256 kJ/mol
# GULP energy per Si atom -12390.707305 kJ/mol
# Density = 1.545543 g / cm^3
# Si number density = 15.490692 Si / 1000 Ang^3
#
#
#
# Elastic Constant Matrix: (Units=GPa)
#
#
# Indices 1 2 3 4 5 6 
#
# 1 60.6452 24.8479 41.3820 0.0000 0.0000 0.0000
# 2 24.8479 60.6452 41.3820 0.0000 0.0000 0.0000
# 3 41.3820 41.3820 142.3307 0.0000 0.0000 0.0000
# 4 0.0000 0.0000 0.0000 16.6248 0.0000 0.0000
# 5 0.0000 0.0000 0.0000 0.0000 16.6248 0.0000
# 6 0.0000 0.0000 0.0000 0.0000 0.0000 2.8185
#
#
#
# Elastic Compliance Matrix: (Units=1/GPa)
#
#
# Indices 1 2 3 4 5 6 
#
# 1 0.022107 -0.005828 -0.004733 0.000000 0.000000 0.000000
# 2 -0.005828 0.022107 -0.004733 0.000000 0.000000 0.000000
# 3 -0.004733 -0.004733 0.009778 0.000000 0.000000 0.000000
# 4 0.000000 0.000000 0.000000 0.060151 0.000000 0.000000
# 5 0.000000 0.000000 0.000000 0.000000 0.060151 0.000000
# 6 0.000000 0.000000 0.000000 0.000000 0.000000 0.354803
#
#
# Mechanical properties :
#
#
# Convention : Reuss Voigt Hill
#
# Bulk Modulus (GPa) = 42.72835 53.20499 47.96667
# Shear Modulus (GPa) = 8.81079 17.61423 13.21251
#
# Velocity S-wave (km/s) = 2.38750 3.37573 2.92367
# Velocity P-wave (km/s) = 5.93661 7.04379 6.51377
#
# Compressibility (1/GPa) = 0.02340367
#
# Stress axis : x y z
#
# Youngs Moduli (GPa) = 45.23474 45.23474 102.26961
#
# Poissons Ratio (x) = 0.26364 0.48404
# Poissons Ratio (y) = 0.26364 0.48404
# Poissons Ratio (z) = 0.21409 0.21409
#
# Static dielectric constant tensor:
#      x y z
#    x 2.791700 0.000000 0.000000 
#    y 0.000000 2.791700 0.000000 
#    z 0.000000 0.000000 3.365090 
# 
# 
# High freq. dielectric constant tensor:
#      x y z
#    x 1.556760 0.000000 0.000000 
#    y 0.000000 1.556760 0.000000 
#    z 0.000000 0.000000 1.620570 
# 
# From -- ./inp_files/6965.got.cif
#   From: 2010.03.12/outbox.cif.g09.slc.cpg/sg141_4_cif.got.tgz:6965.got - 2010.04.03 13:18:35.
