data_PCOD8320538
_publ_section_title
;
Structure prediction by ZEFSAII (Michael W. Deem and Ramdas Pophale) SiO2 
 PCOD8320538
Probable space group: I 41/A M D
;
_chemical_formula_sum "Si O2"
_cell_formula_units_Z 84
_cell_length_a 10.675293
_cell_length_b 10.675293
_cell_length_c 33.341143
_cell_angle_alpha 90.000000
_cell_angle_beta 90.000000
_cell_angle_gamma 90.000000
_cell_volume 3799.619359
_symmetry_space_group_name_H-M "I 41/A M D"
_symmetry_group_IT_number 141
_space_group.IT_coordinate_system_code '2'
_symmetry_cell_setting 'tetragonal'
loop_
_space_group_symop_operation_xyz
x,y,z
1/4-y,3/4+x,1/4+z
-x,1/2-y,z
1/4+y,1/4-x,3/4+z
x,-y,-z
-x,1/2+y,-z
1/4+y,3/4+x,1/4-z
1/4-y,1/4-x,3/4-z
-x,-y,-z
3/4+y,1/4-x,3/4-z
x,1/2+y,-z
3/4-y,3/4+x,1/4-z
-x,y,z
x,1/2-y,z
3/4-y,1/4-x,3/4+z
3/4+y,3/4+x,1/4+z
1/2+x,1/2+y,1/2+z
3/4-y,1/4+x,3/4+z
1/2-x,-y,1/2+z
3/4+y,3/4-x,1/4+z
1/2+x,1/2-y,1/2-z
1/2-x,y,1/2-z
3/4+y,1/4+x,3/4-z
3/4-y,3/4-x,1/4-z
1/2-x,1/2-y,1/2-z
1/4+y,3/4-x,1/4-z
1/2+x,y,1/2-z
1/4-y,1/4+x,3/4-z
1/2-x,1/2+y,1/2+z
1/2+x,-y,1/2+z
1/4-y,3/4-x,1/4+z
1/4+y,1/4+x,3/4+z
loop_
_atom_site_type_symbol
_atom_site_label
_atom_site_fract_x
_atom_site_fract_y
_atom_site_fract_z
Si Si1 0.359047 0.750000 0.077534
Si Si2 0.769117 0.984873 0.576855
Si Si3 0.861310 0.250000 0.281711
Si Si4 0.500000 0.750000 0.375000
Si Si5 0.270274 0.250000 0.835941
O O1 0.500000 0.750000 0.061888
O O2 0.292000 0.625940 0.060929
O O3 0.358925 0.750000 0.125476
O O4 0.628420 0.948444 0.561688
O O5 0.772883 0.977118 0.625000
O O6 0.875356 0.895469 0.559013
O O7 0.750000 0.250000 0.250000
O O8 0.000000 0.250000 0.261697
O O9 0.500000 0.873560 0.402180
#
# Coordination Sequence:
#
# PCOD8320538 Si02
#       5
#    16  32  16   4  16
#     4  10  16  28  56  95 132 164 206 272 345 384
#     4  10  21  37  68  99 134 174 231 289 337 401
#     4  12  30  48  68  94 140 185 236 283 367 429
#     4  12  12  28  52 104 148 164 196 260 356 412
#     4  10  18  32  57 102 138 167 215 279 337 394
#
# _framework density 22.107475999999998
#
# number of rings (size 3 to 8) (size 9 to 14) (size 15 to 20)
#    0.000    1.524    7.619    0.000    5.333    1.524 
#    0.000    0.952    0.000    0.000    0.000    0.000 
#    0.000    0.000    0.000    0.000    0.000    0.000 
#
# Total GULP energy -520416.937061 kJ/mol
# GULP energy per Si atom -12390.879454 kJ/mol
# Density = 2.205716 g / cm^3
# Si number density = 22.107476 Si / 1000 Ang^3
#
#
#
# Elastic Constant Matrix: (Units=GPa)
#
#
# Indices 1 2 3 4 5 6 
#
# 1 176.9043 35.6593 28.5049 0.0000 0.0000 0.0000
# 2 35.6593 176.9043 28.5048 0.0000 0.0000 0.0000
# 3 28.5049 28.5048 34.0283 0.0000 0.0000 0.0000
# 4 0.0000 0.0000 0.0000 12.2579 0.0000 0.0000
# 5 0.0000 0.0000 0.0000 0.0000 12.2579 0.0000
# 6 0.0000 0.0000 0.0000 0.0000 0.0000 21.8254
#
#
#
# Elastic Compliance Matrix: (Units=1/GPa)
#
#
# Indices 1 2 3 4 5 6 
#
# 1 0.006574 -0.000506 -0.005083 0.000000 0.000000 0.000000
# 2 -0.000506 0.006574 -0.005083 0.000000 0.000000 0.000000
# 3 -0.005083 -0.005083 0.037903 0.000000 0.000000 0.000000
# 4 0.000000 0.000000 0.000000 0.081580 0.000000 0.000000
# 5 0.000000 0.000000 0.000000 0.000000 0.081580 0.000000
# 6 0.000000 0.000000 0.000000 0.000000 0.000000 0.045818
#
#
# Mechanical properties :
#
#
# Convention : Reuss Voigt Hill
#
# Bulk Modulus (GPa) = 33.66206 63.68608 48.67407
# Shear Modulus (GPa) = 17.16595 28.94609 23.05602
#
# Velocity S-wave (km/s) = 2.78956 3.62240 3.23291
# Velocity P-wave (km/s) = 5.06311 6.80924 6.00003
#
# Compressibility (1/GPa) = 0.02970704
#
# Stress axis : x y z
#
# Youngs Moduli (GPa) = 152.11925 152.11945 26.38331
#
# Poissons Ratio (x) = 0.07699 0.13410
# Poissons Ratio (y) = 0.07699 0.13410
# Poissons Ratio (z) = 0.77319 0.77319
#
# Static dielectric constant tensor:
#      x y z
#    x 4.454520 0.000000 0.000000 
#    y 0.000000 4.454530 0.000000 
#    z 0.000000 0.000000 3.416220 
# 
# 
# High freq. dielectric constant tensor:
#      x y z
#    x 1.884460 0.000000 0.000000 
#    y 0.000000 1.884460 0.000000 
#    z 0.000000 0.000000 1.802770 
# 
# From -- ./inp_files/13761.got.cif
#   From: 2010.03.12/outbox.cif.g09.slc.cpg/sg141_7_cif.got.tgz:13761.got - 2010.04.03 13:18:35.
