data_PCOD8320622
_publ_section_title
;
Structure prediction by ZEFSAII (Michael W. Deem and Ramdas Pophale) SiO2 
 PCOD8320622
Probable space group: I 41/A M D
;
_chemical_formula_sum "Si O2"
_cell_formula_units_Z 160
_cell_length_a 21.649492
_cell_length_b 21.649492
_cell_length_c 17.911788
_cell_angle_alpha 90.000000
_cell_angle_beta 90.000000
_cell_angle_gamma 90.000000
_cell_volume 8395.264061
_symmetry_space_group_name_H-M "I 41/A M D"
_symmetry_group_IT_number 141
_space_group.IT_coordinate_system_code '2'
_symmetry_cell_setting 'tetragonal'
loop_
_space_group_symop_operation_xyz
x,y,z
1/4-y,3/4+x,1/4+z
-x,1/2-y,z
1/4+y,1/4-x,3/4+z
x,-y,-z
-x,1/2+y,-z
1/4+y,3/4+x,1/4-z
1/4-y,1/4-x,3/4-z
-x,-y,-z
3/4+y,1/4-x,3/4-z
x,1/2+y,-z
3/4-y,3/4+x,1/4-z
-x,y,z
x,1/2-y,z
3/4-y,1/4-x,3/4+z
3/4+y,3/4+x,1/4+z
1/2+x,1/2+y,1/2+z
3/4-y,1/4+x,3/4+z
1/2-x,-y,1/2+z
3/4+y,3/4-x,1/4+z
1/2+x,1/2-y,1/2-z
1/2-x,y,1/2-z
3/4+y,1/4+x,3/4-z
3/4-y,3/4-x,1/4-z
1/2-x,1/2-y,1/2-z
1/4+y,3/4-x,1/4-z
1/2+x,y,1/2-z
1/4-y,1/4+x,3/4-z
1/2-x,1/2+y,1/2+z
1/2+x,-y,1/2+z
1/4-y,3/4-x,1/4+z
1/4+y,1/4+x,3/4+z
loop_
_atom_site_type_symbol
_atom_site_label
_atom_site_fract_x
_atom_site_fract_y
_atom_site_fract_z
Si Si1 0.776519 0.820119 0.981392
Si Si2 0.567156 0.319773 0.910036
Si Si3 0.346173 0.635642 0.208857
Si Si4 0.927184 0.885340 0.695188
Si Si5 0.780612 0.179290 0.845251
O O1 0.792086 0.750000 0.955459
O O2 0.819166 0.872031 0.943682
O O3 0.707063 0.836389 0.959758
O O4 0.793621 0.826236 0.068143
O O5 0.500000 0.351685 0.896609
O O6 0.556235 0.250000 0.933306
O O7 0.608540 0.318605 0.835504
O O8 0.600964 0.349918 0.981600
O O9 0.278282 0.636617 0.173148
O O10 0.339294 0.655485 0.296126
O O11 0.888605 0.861396 0.625000
O O12 0.000000 0.873918 0.681539
O O13 0.765313 0.250000 0.823267
#
# Coordination Sequence:
#
# PCOD8320622 Si02
#       5
#    32  32  32  32  32
#     4  10  21  37  55  80 115 152 188 232 284 345
#     4  10  19  32  55  85 112 139 183 244 297 347
#     4  11  19  33  56  83 110 145 190 230 279 339
#     4  10  20  37  58  81 110 147 192 242 299 355
#     4  10  20  36  59  82 113 153 191 233 282 341
#
# _framework density 19.058364000000001
#
# number of rings (size 3 to 8) (size 9 to 14) (size 15 to 20)
#    0.000    1.800    2.000    4.200    0.000    1.000 
#    0.000    5.000    0.000    3.600    0.000   14.000 
#    0.000    0.000    0.000    0.000    0.000    0.000 
#
# Total GULP energy -991261.201493 kJ/mol
# GULP energy per Si atom -12390.765019 kJ/mol
# Density = 1.901499 g / cm^3
# Si number density = 19.058364 Si / 1000 Ang^3
#
#
#
# Elastic Constant Matrix: (Units=GPa)
#
#
# Indices 1 2 3 4 5 6 
#
# 1 106.6185 50.0256 42.3435 0.0000 0.0000 0.0000
# 2 50.0256 106.6179 42.3437 0.0000 0.0000 0.0000
# 3 42.3435 42.3437 87.4755 0.0000 0.0000 0.0000
# 4 0.0000 0.0000 0.0000 30.0095 0.0000 0.0000
# 5 0.0000 0.0000 0.0000 0.0000 30.0097 0.0000
# 6 0.0000 0.0000 0.0000 0.0000 0.0000 32.2177
#
#
#
# Elastic Compliance Matrix: (Units=1/GPa)
#
#
# Indices 1 2 3 4 5 6 
#
# 1 0.013158 -0.004512 -0.004186 0.000000 0.000000 0.000000
# 2 -0.004512 0.013159 -0.004186 0.000000 0.000000 0.000000
# 3 -0.004186 -0.004186 0.015484 0.000000 0.000000 0.000000
# 4 0.000000 0.000000 0.000000 0.033323 0.000000 0.000000
# 5 0.000000 0.000000 0.000000 0.000000 0.033323 0.000000
# 6 0.000000 0.000000 0.000000 0.000000 0.000000 0.031039
#
#
# Mechanical properties :
#
#
# Convention : Reuss Voigt Hill
#
# Bulk Modulus (GPa) = 62.36291 63.34863 62.85577
# Shear Modulus (GPa) = 29.30901 29.51396 29.41149
#
# Velocity S-wave (km/s) = 3.92580 3.93951 3.93266
# Velocity P-wave (km/s) = 7.30359 7.34877 7.32621
#
# Compressibility (1/GPa) = 0.01603517
#
# Stress axis : x y z
#
# Youngs Moduli (GPa) = 75.99700 75.99629 64.58296
#
# Poissons Ratio (x) = 0.34287 0.27031
# Poissons Ratio (y) = 0.34287 0.27032
# Poissons Ratio (z) = 0.31809 0.31809
#
# Static dielectric constant tensor:
#      x y z
#    x 3.474680 0.000000 0.000000 
#    y 0.000000 3.474680 0.000000 
#    z 0.000000 0.000000 3.499230 
# 
# 
# High freq. dielectric constant tensor:
#      x y z
#    x 1.729650 0.000000 0.000000 
#    y 0.000000 1.729650 0.000000 
#    z 0.000000 0.000000 1.743840 
# 
# From -- ./inp_files/8552.got.cif
#   From: 2010.03.12/outbox.cif.g09.slc.cpg/sg141_5_cif.got.tgz:8552.got - 2010.04.03 13:18:35.
