data_PCOD8320719
_publ_section_title
;
Structure prediction by ZEFSAII (Michael W. Deem and Ramdas Pophale) SiO2 
 PCOD8320719
Probable space group: I 41/A M D
;
_chemical_formula_sum "Si O2"
_cell_formula_units_Z 144
_cell_length_a 18.950073
_cell_length_b 18.950073
_cell_length_c 20.706122
_cell_angle_alpha 90.000000
_cell_angle_beta 90.000000
_cell_angle_gamma 90.000000
_cell_volume 7435.677463
_symmetry_space_group_name_H-M "I 41/A M D"
_symmetry_group_IT_number 141
_space_group.IT_coordinate_system_code '2'
_symmetry_cell_setting 'tetragonal'
loop_
_space_group_symop_operation_xyz
x,y,z
1/4-y,3/4+x,1/4+z
-x,1/2-y,z
1/4+y,1/4-x,3/4+z
x,-y,-z
-x,1/2+y,-z
1/4+y,3/4+x,1/4-z
1/4-y,1/4-x,3/4-z
-x,-y,-z
3/4+y,1/4-x,3/4-z
x,1/2+y,-z
3/4-y,3/4+x,1/4-z
-x,y,z
x,1/2-y,z
3/4-y,1/4-x,3/4+z
3/4+y,3/4+x,1/4+z
1/2+x,1/2+y,1/2+z
3/4-y,1/4+x,3/4+z
1/2-x,-y,1/2+z
3/4+y,3/4-x,1/4+z
1/2+x,1/2-y,1/2-z
1/2-x,y,1/2-z
3/4+y,1/4+x,3/4-z
3/4-y,3/4-x,1/4-z
1/2-x,1/2-y,1/2-z
1/4+y,3/4-x,1/4-z
1/2+x,y,1/2-z
1/4-y,1/4+x,3/4-z
1/2-x,1/2+y,1/2+z
1/2+x,-y,1/2+z
1/4-y,3/4-x,1/4+z
1/4+y,1/4+x,3/4+z
loop_
_atom_site_type_symbol
_atom_site_label
_atom_site_fract_x
_atom_site_fract_y
_atom_site_fract_z
Si Si1 0.582538 0.832538 0.875000
Si Si2 0.675005 0.331904 0.007824
Si Si3 0.080727 0.087464 0.739692
Si Si4 0.784649 0.412117 0.813283
Si Si5 0.582382 0.091335 0.385419
O O1 0.597618 0.750000 0.863864
O O2 0.623979 0.863448 0.937176
O O3 0.658611 0.250000 0.002753
O O4 0.755914 0.345754 0.026212
O O5 0.658475 0.364269 0.937155
O O6 0.134841 0.112017 0.796521
O O7 0.095710 0.130181 0.674307
O O8 0.000000 0.099983 0.762527
O O9 0.785545 0.464456 0.875000
O O10 0.750000 0.450051 0.750000
O O11 0.734980 0.345795 0.831201
O O12 0.500000 0.106017 0.386302
#
# Coordination Sequence:
#
# PCOD8320719 Si02
#       5
#    16  32  32  32  32
#     4   9  18  34  58  86 112 146 192 234 283 348
#     4   9  18  36  57  79 112 151 183 231 291 344
#     4  10  21  37  56  82 115 148 188 237 284 334
#     4  10  20  36  58  85 113 152 196 233 279 343
#     4  10  21  38  59  81 111 153 193 234 287 346
#
# _framework density 19.366088999999999
#
# number of rings (size 3 to 8) (size 9 to 14) (size 15 to 20)
#    0.000    2.333    2.222    0.000    0.000    5.333 
#    8.000    3.333    0.000    4.000    0.000    0.000 
#    0.000    0.000    0.000    0.000    0.000    0.000 
#
# Total GULP energy -892257.130876 kJ/mol
# GULP energy per Si atom -12392.460151 kJ/mol
# Density = 1.932201 g / cm^3
# Si number density = 19.366089 Si / 1000 Ang^3
#
#
#
# Elastic Constant Matrix: (Units=GPa)
#
#
# Indices 1 2 3 4 5 6 
#
# 1 77.3926 18.9773 46.3723 0.0000 0.0000 0.0000
# 2 18.9773 77.3922 46.3720 0.0000 0.0000 0.0000
# 3 46.3723 46.3720 166.3102 0.0000 0.0000 0.0000
# 4 0.0000 0.0000 0.0000 30.2082 0.0000 0.0000
# 5 0.0000 0.0000 0.0000 0.0000 30.2085 0.0000
# 6 0.0000 0.0000 0.0000 0.0000 0.0000 25.9415
#
#
#
# Elastic Compliance Matrix: (Units=1/GPa)
#
#
# Indices 1 2 3 4 5 6 
#
# 1 0.015651 -0.001468 -0.003954 0.000000 0.000000 0.000000
# 2 -0.001468 0.015651 -0.003954 0.000000 0.000000 0.000000
# 3 -0.003954 -0.003954 0.008218 0.000000 0.000000 0.000000
# 4 0.000000 0.000000 0.000000 0.033104 0.000000 0.000000
# 5 0.000000 0.000000 0.000000 0.000000 0.033103 0.000000
# 6 0.000000 0.000000 0.000000 0.000000 0.000000 0.038548
#
#
# Mechanical properties :
#
#
# Convention : Reuss Voigt Hill
#
# Bulk Modulus (GPa) = 48.15789 60.50424 54.33107
# Shear Modulus (GPa) = 29.42033 31.22986 30.32510
#
# Velocity S-wave (km/s) = 3.90188 4.02008 3.96142
# Velocity P-wave (km/s) = 6.72463 7.27037 7.00282
#
# Compressibility (1/GPa) = 0.02076503
#
# Stress axis : x y z
#
# Youngs Moduli (GPa) = 63.89532 63.89507 121.68262
#
# Poissons Ratio (x) = 0.09381 0.48119
# Poissons Ratio (y) = 0.09381 0.48119
# Poissons Ratio (z) = 0.25267 0.25267
#
# Static dielectric constant tensor:
#      x y z
#    x 3.413720 0.000000 0.000000 
#    y 0.000000 3.413720 0.000000 
#    z 0.000000 0.000000 4.078330 
# 
# 
# High freq. dielectric constant tensor:
#      x y z
#    x 1.733420 0.000000 0.000000 
#    y 0.000000 1.733420 0.000000 
#    z 0.000000 0.000000 1.768950 
# 
# From -- ./inp_files/10322.got.cif
#   From: 2010.03.12/outbox.cif.g09.slc.cpg/sg141_6_cif.got.tgz:10322.got - 2010.04.03 13:18:35.
