data_PCOD8320724
_publ_section_title
;
Structure prediction by ZEFSAII (Michael W. Deem and Ramdas Pophale) SiO2 
 PCOD8320724
Probable space group: I 41/A M D
;
_chemical_formula_sum "Si O2"
_cell_formula_units_Z 160
_cell_length_a 22.150422
_cell_length_b 22.150422
_cell_length_c 15.982522
_cell_angle_alpha 90.000000
_cell_angle_beta 90.000000
_cell_angle_gamma 90.000000
_cell_volume 7841.683690
_symmetry_space_group_name_H-M "I 41/A M D"
_symmetry_group_IT_number 141
_space_group.IT_coordinate_system_code '2'
_symmetry_cell_setting 'tetragonal'
loop_
_space_group_symop_operation_xyz
x,y,z
1/4-y,3/4+x,1/4+z
-x,1/2-y,z
1/4+y,1/4-x,3/4+z
x,-y,-z
-x,1/2+y,-z
1/4+y,3/4+x,1/4-z
1/4-y,1/4-x,3/4-z
-x,-y,-z
3/4+y,1/4-x,3/4-z
x,1/2+y,-z
3/4-y,3/4+x,1/4-z
-x,y,z
x,1/2-y,z
3/4-y,1/4-x,3/4+z
3/4+y,3/4+x,1/4+z
1/2+x,1/2+y,1/2+z
3/4-y,1/4+x,3/4+z
1/2-x,-y,1/2+z
3/4+y,3/4-x,1/4+z
1/2+x,1/2-y,1/2-z
1/2-x,y,1/2-z
3/4+y,1/4+x,3/4-z
3/4-y,3/4-x,1/4-z
1/2-x,1/2-y,1/2-z
1/4+y,3/4-x,1/4-z
1/2+x,y,1/2-z
1/4-y,1/4+x,3/4-z
1/2-x,1/2+y,1/2+z
1/2+x,-y,1/2+z
1/4-y,3/4-x,1/4+z
1/4+y,1/4+x,3/4+z
loop_
_atom_site_type_symbol
_atom_site_label
_atom_site_fract_x
_atom_site_fract_y
_atom_site_fract_z
Si Si1 0.068395 0.912249 0.594528
Si Si2 0.431933 0.881469 0.302706
Si Si3 0.351905 0.918936 0.056142
Si Si4 0.430489 0.181837 0.382320
Si Si5 0.116976 0.495120 0.711691
O O1 0.100985 0.850985 0.625000
O O2 0.104471 0.943562 0.517493
O O3 0.000000 0.896998 0.568730
O O4 0.068141 0.960444 0.669893
O O5 0.384950 0.865051 0.375000
O O6 0.500000 0.880432 0.338083
O O7 0.424129 0.832155 0.230382
O O8 0.418016 0.948091 0.269271
O O9 0.381637 0.854910 0.080376
O O10 0.346587 0.961857 0.136944
O O11 0.284271 0.912101 0.019555
O O12 0.500000 0.170155 0.364054
O O13 0.411323 0.250000 0.354998
#
# Coordination Sequence:
#
# PCOD8320724 Si02
#       5
#    32  32  32  32  32
#     4  10  21  37  58  85 115 148 186 230 281 336
#     4  10  20  36  59  86 114 147 187 228 274 331
#     4  10  21  38  59  83 109 148 194 234 279 332
#     4   9  18  33  55  85 119 149 178 222 281 339
#     4  10  22  40  58  80 112 149 188 233 283 332
#
# _framework density 20.403783000000001
#
# number of rings (size 3 to 8) (size 9 to 14) (size 15 to 20)
#    0.000    2.200    0.000    2.400    0.000    8.400 
#    0.000   13.000    0.000    6.000    0.000    0.000 
#    0.000    0.000    0.000    0.000    0.000    0.000 
#
# Total GULP energy -991806.074055 kJ/mol
# GULP energy per Si atom -12397.575926 kJ/mol
# Density = 2.035734 g / cm^3
# Si number density = 20.403783 Si / 1000 Ang^3
#
#
#
# Elastic Constant Matrix: (Units=GPa)
#
#
# Indices 1 2 3 4 5 6 
#
# 1 105.0236 44.1145 52.3457 0.0000 0.0000 0.0000
# 2 44.1145 105.0192 52.3438 0.0000 0.0000 0.0000
# 3 52.3457 52.3438 100.2055 0.0000 0.0000 0.0000
# 4 0.0000 0.0000 0.0000 23.7909 0.0000 0.0000
# 5 0.0000 0.0000 0.0000 0.0000 23.7929 0.0000
# 6 0.0000 0.0000 0.0000 0.0000 0.0000 11.7422
#
#
#
# Elastic Compliance Matrix: (Units=1/GPa)
#
#
# Indices 1 2 3 4 5 6 
#
# 1 0.013503 -0.002915 -0.005531 0.000000 0.000000 0.000000
# 2 -0.002915 0.013503 -0.005531 0.000000 0.000000 0.000000
# 3 -0.005531 -0.005531 0.015758 0.000000 0.000000 0.000000
# 4 0.000000 0.000000 0.000000 0.042033 0.000000 0.000000
# 5 0.000000 0.000000 0.000000 0.000000 0.042029 0.000000
# 6 0.000000 0.000000 0.000000 0.000000 0.000000 0.085163
#
#
# Mechanical properties :
#
#
# Convention : Reuss Voigt Hill
#
# Bulk Modulus (GPa) = 67.52108 67.53957 67.53033
# Shear Modulus (GPa) = 20.41821 22.62816 21.52319
#
# Velocity S-wave (km/s) = 3.16683 3.33381 3.25139
# Velocity P-wave (km/s) = 6.82173 6.92765 6.87490
#
# Compressibility (1/GPa) = 0.01481019
#
# Stress axis : x y z
#
# Youngs Moduli (GPa) = 74.05816 74.05580 63.46088
#
# Poissons Ratio (x) = 0.21590 0.35099
# Poissons Ratio (y) = 0.21591 0.35098
# Poissons Ratio (z) = 0.40960 0.40958
#
# Static dielectric constant tensor:
#      x y z
#    x 3.543790 0.000000 0.000000 
#    y 0.000000 3.543790 0.000000 
#    z 0.000000 0.000000 3.785670 
# 
# 
# High freq. dielectric constant tensor:
#      x y z
#    x 1.789500 0.000000 0.000000 
#    y 0.000000 1.789500 0.000000 
#    z 0.000000 0.000000 1.803350 
# 
# From -- ./inp_files/8545.got.cif
#   From: 2010.03.12/outbox.cif.g09.slc.cpg/sg141_5_cif.got.tgz:8545.got - 2010.04.03 13:18:35.
