data_PCOD8320264
_publ_section_title
;
Structure prediction by ZEFSAII (Michael W. Deem and Ramdas Pophale) SiO2 
 PCOD8320264
Probable space group: I 4/M C M
;
_chemical_formula_sum "Si O2"
_cell_formula_units_Z 160
_cell_length_a 23.432808
_cell_length_b 23.432808
_cell_length_c 14.055518
_cell_angle_alpha 90.000000
_cell_angle_beta 90.000000
_cell_angle_gamma 90.000000
_cell_volume 7717.835610
_symmetry_space_group_name_H-M "I 4/M C M"
_symmetry_group_IT_number 140
_symmetry_cell_setting 'tetragonal'
loop_
_space_group_symop_operation_xyz
x,y,z
-y,x,z
-x,-y,z
y,-x,z
x,-y,1/2-z
-x,y,1/2-z
y,x,1/2-z
-y,-x,1/2-z
-x,-y,-z
y,-x,-z
x,y,-z
-y,x,-z
-x,y,1/2+z
x,-y,1/2+z
-y,-x,1/2+z
y,x,1/2+z
1/2+x,1/2+y,1/2+z
1/2-y,1/2+x,1/2+z
1/2-x,1/2-y,1/2+z
1/2+y,1/2-x,1/2+z
1/2+x,1/2-y,-z
1/2-x,1/2+y,-z
1/2+y,1/2+x,-z
1/2-y,1/2-x,-z
1/2-x,1/2-y,1/2-z
1/2+y,1/2-x,1/2-z
1/2+x,1/2+y,1/2-z
1/2-y,1/2+x,1/2-z
1/2-x,1/2+y,z
1/2+x,1/2-y,z
1/2-y,1/2-x,z
1/2+y,1/2+x,z
loop_
_atom_site_type_symbol
_atom_site_label
_atom_site_fract_x
_atom_site_fract_y
_atom_site_fract_z
Si Si1 0.412089 0.821730 0.286152
Si Si2 0.979213 0.293384 0.609241
Si Si3 0.377027 0.383241 0.387238
Si Si4 0.004589 0.161079 0.108862
Si Si5 0.261938 0.327622 0.610387
O O1 0.383133 0.883133 0.287085
O O2 0.425366 0.805780 0.176408
O O3 0.467454 0.829571 0.352505
O O4 0.371051 0.773779 0.327203
O O5 0.964097 0.308595 0.500000
O O6 0.997565 0.228268 0.621423
O O7 0.380284 0.386062 0.500000
O O8 0.437612 0.363639 0.342598
O O9 0.363179 0.446240 0.344879
O O10 0.328374 0.336010 0.359698
O O11 0.006234 0.142573 0.000000
O O12 0.254050 0.344762 0.500000
O O13 0.237275 0.262726 0.627208
#
# Coordination Sequence:
#
# PCOD8320264 Si02
#       5
#    32  32  32  32  32
#     4  10  20  34  58  87 113 145 189 234 280 340
#     4  10  20  36  57  82 116 150 185 230 286 340
#     4   9  16  28  48  77 113 153 198 240 286 339
#     4   9  17  30  50  76 109 154 198 239 285 334
#     4   9  16  29  52  80 110 146 192 244 289 337
#
# _framework density 20.731200999999999
#
# number of rings (size 3 to 8) (size 9 to 14) (size 15 to 20)
#    0.000    2.600    2.000    0.600    0.000    2.000 
#    0.000    4.000    0.000   10.800    0.000    5.600 
#    0.000    0.000    0.000    0.000    0.000    0.000 
#
# Total GULP energy -991326.952741 kJ/mol
# GULP energy per Si atom -12391.586909 kJ/mol
# Density = 2.068402 g / cm^3
# Si number density = 20.731201 Si / 1000 Ang^3
#
#
#
# Elastic Constant Matrix: (Units=GPa)
#
#
# Indices 1 2 3 4 5 6 
#
# 1 -21.0683 160.7357 25.7807 0.0000 0.0000 0.0000
# 2 160.7357 -21.0683 25.7807 0.0000 0.0000 0.0000
# 3 25.7807 25.7807 109.1000 0.0000 0.0000 0.0000
# 4 0.0000 0.0000 0.0000 6.4084 0.0000 0.0000
# 5 0.0000 0.0000 0.0000 0.0000 6.4084 0.0000
# 6 0.0000 0.0000 0.0000 0.0000 0.0000 32.0957
#
#
#
# Elastic Compliance Matrix: (Units=1/GPa)
#
#
# Indices 1 2 3 4 5 6 
#
# 1 0.001172 0.006672 -0.001854 0.000000 0.000000 0.000000
# 2 0.006672 0.001172 -0.001854 0.000000 0.000000 0.000000
# 3 -0.001854 -0.001854 0.010042 0.000000 0.000000 0.000000
# 4 0.000000 0.000000 0.000000 0.156046 0.000000 0.000000
# 5 0.000000 0.000000 0.000000 0.000000 0.156046 0.000000
# 6 0.000000 0.000000 0.000000 0.000000 0.000000 0.031157
#
#
# Mechanical properties :
#
#
# Convention : Reuss Voigt Hill
#
# Bulk Modulus (GPa) = 54.59752 54.61751 54.60752
# Shear Modulus (GPa) = 14.05247 -0.70642 6.67302
#
# Velocity S-wave (km/s) = 2.60636 -0.58437 1.79606
# Velocity P-wave (km/s) = 5.95404 5.09386 5.54067
#
# Compressibility (1/GPa) = 0.01831585
#
# Stress axis : x y z
#
# Youngs Moduli (GPa) = 853.33814 853.33814 99.58245
#
# Poissons Ratio (x) = -5.69373 0.18459
# Poissons Ratio (y) = -5.69373 0.18459
# Poissons Ratio (z) = 1.58175 1.58175
#
# Static dielectric constant tensor:
#      x y z
#    x 3.940780 0.000000 0.000000 
#    y 0.000000 3.940780 0.000000 
#    z 0.000000 0.000000 3.738510 
# 
# 
# High freq. dielectric constant tensor:
#      x y z
#    x 1.798600 0.000000 0.000000 
#    y 0.000000 1.798600 0.000000 
#    z 0.000000 0.000000 1.814990 
# 
# From -- ./inp_files/4705.got.cif
#   From: 2010.06.25/outbox.cif.g09.slc.cpg/sg140_3_cif.got.tgz:4705.got - 2010.06.28 10:53:23.
