data_PCOD8320745
_publ_section_title
;
Structure prediction by ZEFSAII (Michael W. Deem and Ramdas Pophale) SiO2 
 PCOD8320745
Probable space group: I 41/A M D
;
_chemical_formula_sum "Si O2"
_cell_formula_units_Z 160
_cell_length_a 20.636451
_cell_length_b 20.636451
_cell_length_c 17.966579
_cell_angle_alpha 90.000000
_cell_angle_beta 90.000000
_cell_angle_gamma 90.000000
_cell_volume 7651.303207
_symmetry_space_group_name_H-M "I 41/A M D"
_symmetry_group_IT_number 141
_space_group.IT_coordinate_system_code '2'
_symmetry_cell_setting 'tetragonal'
loop_
_space_group_symop_operation_xyz
x,y,z
1/4-y,3/4+x,1/4+z
-x,1/2-y,z
1/4+y,1/4-x,3/4+z
x,-y,-z
-x,1/2+y,-z
1/4+y,3/4+x,1/4-z
1/4-y,1/4-x,3/4-z
-x,-y,-z
3/4+y,1/4-x,3/4-z
x,1/2+y,-z
3/4-y,3/4+x,1/4-z
-x,y,z
x,1/2-y,z
3/4-y,1/4-x,3/4+z
3/4+y,3/4+x,1/4+z
1/2+x,1/2+y,1/2+z
3/4-y,1/4+x,3/4+z
1/2-x,-y,1/2+z
3/4+y,3/4-x,1/4+z
1/2+x,1/2-y,1/2-z
1/2-x,y,1/2-z
3/4+y,1/4+x,3/4-z
3/4-y,3/4-x,1/4-z
1/2-x,1/2-y,1/2-z
1/4+y,3/4-x,1/4-z
1/2+x,y,1/2-z
1/4-y,1/4+x,3/4-z
1/2-x,1/2+y,1/2+z
1/2+x,-y,1/2+z
1/4-y,3/4-x,1/4+z
1/4+y,1/4+x,3/4+z
loop_
_atom_site_type_symbol
_atom_site_label
_atom_site_fract_x
_atom_site_fract_y
_atom_site_fract_z
Si Si1 0.675288 0.572101 0.463395
Si Si2 0.187244 0.175170 0.209600
Si Si3 0.570012 0.367872 0.198672
Si Si4 0.572483 0.512586 0.198353
Si Si5 0.428206 0.178292 0.713023
O O1 0.672867 0.500000 0.500000
O O2 0.684449 0.565552 0.375000
O O3 0.733224 0.618064 0.492784
O O4 0.613934 0.616480 0.488655
O O5 0.183449 0.250000 0.231673
O O6 0.250000 0.143759 0.250000
O O7 0.122087 0.141780 0.237131
O O8 0.189902 0.164541 0.121044
O O9 0.574846 0.324846 0.125000
O O10 0.500000 0.354086 0.235671
O O11 0.574359 0.440409 0.166711
O O12 0.500000 0.526068 0.233055
O O13 0.429543 0.179543 0.625000
O O14 0.500000 0.152797 0.740281
O O15 0.416975 0.250000 0.745378
#
# Coordination Sequence:
#
# PCOD8320745 Si02
#       5
#    32  32  32  32  32
#     4  11  25  41  61  92 124 159 209 270 320 365
#     4  10  20  38  62  90 125 167 209 250 308 384
#     4  11  22  37  63  96 128 166 213 267 317 367
#     4  10  23  42  63  86 125 177 211 245 316 399
#     4   8  15  33  62  89 115 154 199 242 301 376
#
# _framework density 20.911470999999999
#
# number of rings (size 3 to 8) (size 9 to 14) (size 15 to 20)
#    0.000    2.000    2.000    1.800    2.800    4.200 
#    0.000    1.000    0.000    1.200    0.000    0.000 
#    0.000    0.000    0.000    0.000    0.000    0.000 
#
# Total GULP energy -991053.661755 kJ/mol
# GULP energy per Si atom -12388.170772 kJ/mol
# Density = 2.086388 g / cm^3
# Si number density = 20.911471 Si / 1000 Ang^3
#
#
#
# Elastic Constant Matrix: (Units=GPa)
#
#
# Indices 1 2 3 4 5 6 
#
# 1 145.8236 52.8463 45.9901 0.0000 0.0000 0.0000
# 2 52.8463 145.8237 45.9901 0.0000 0.0000 0.0000
# 3 45.9901 45.9901 87.4553 0.0000 0.0000 0.0000
# 4 0.0000 0.0000 0.0000 26.5535 0.0000 0.0000
# 5 0.0000 0.0000 0.0000 0.0000 26.5536 0.0000
# 6 0.0000 0.0000 0.0000 0.0000 0.0000 32.5511
#
#
#
# Elastic Compliance Matrix: (Units=1/GPa)
#
#
# Indices 1 2 3 4 5 6 
#
# 1 0.008704 -0.002051 -0.003499 0.000000 0.000000 0.000000
# 2 -0.002051 0.008704 -0.003499 0.000000 0.000000 0.000000
# 3 -0.003499 -0.003499 0.015114 0.000000 0.000000 0.000000
# 4 0.000000 0.000000 0.000000 0.037660 0.000000 0.000000
# 5 0.000000 0.000000 0.000000 0.000000 0.037660 0.000000
# 6 0.000000 0.000000 0.000000 0.000000 0.000000 0.030721
#
#
# Mechanical properties :
#
#
# Convention : Reuss Voigt Hill
#
# Bulk Modulus (GPa) = 69.32048 74.30618 71.81333
# Shear Modulus (GPa) = 30.96570 32.75005 31.85788
#
# Velocity S-wave (km/s) = 3.85229 3.96173 3.90739
# Velocity P-wave (km/s) = 7.28068 7.51917 7.40089
#
# Compressibility (1/GPa) = 0.01442575
#
# Stress axis : x y z
#
# Youngs Moduli (GPa) = 114.88534 114.88551 66.16278
#
# Poissons Ratio (x) = 0.23563 0.23149
# Poissons Ratio (y) = 0.23563 0.23149
# Poissons Ratio (z) = 0.40196 0.40196
#
# Static dielectric constant tensor:
#      x y z
#    x 3.983230 0.000000 0.000000 
#    y 0.000000 3.983230 0.000000 
#    z 0.000000 0.000000 3.415240 
# 
# 
# High freq. dielectric constant tensor:
#      x y z
#    x 1.824070 0.000000 0.000000 
#    y 0.000000 1.824070 0.000000 
#    z 0.000000 0.000000 1.793360 
# 
# From -- ./inp_files/8569.got.cif
#   From: 2010.03.12/outbox.cif.g09.slc.cpg/sg141_5_cif.got.tgz:8569.got - 2010.04.03 13:18:35.
