data_PCOD8320695
_publ_section_title
;
Structure prediction by ZEFSAII (Michael W. Deem and Ramdas Pophale) SiO2 
 PCOD8320695
Probable space group: I 41/A M D
;
_chemical_formula_sum "Si O2"
_cell_formula_units_Z 176
_cell_length_a 26.497363
_cell_length_b 26.497363
_cell_length_c 11.476549
_cell_angle_alpha 90.000000
_cell_angle_beta 90.000000
_cell_angle_gamma 90.000000
_cell_volume 8057.802641
_symmetry_space_group_name_H-M "I 41/A M D"
_symmetry_group_IT_number 141
_space_group.IT_coordinate_system_code '2'
_symmetry_cell_setting 'tetragonal'
loop_
_space_group_symop_operation_xyz
x,y,z
1/4-y,3/4+x,1/4+z
-x,1/2-y,z
1/4+y,1/4-x,3/4+z
x,-y,-z
-x,1/2+y,-z
1/4+y,3/4+x,1/4-z
1/4-y,1/4-x,3/4-z
-x,-y,-z
3/4+y,1/4-x,3/4-z
x,1/2+y,-z
3/4-y,3/4+x,1/4-z
-x,y,z
x,1/2-y,z
3/4-y,1/4-x,3/4+z
3/4+y,3/4+x,1/4+z
1/2+x,1/2+y,1/2+z
3/4-y,1/4+x,3/4+z
1/2-x,-y,1/2+z
3/4+y,3/4-x,1/4+z
1/2+x,1/2-y,1/2-z
1/2-x,y,1/2-z
3/4+y,1/4+x,3/4-z
3/4-y,3/4-x,1/4-z
1/2-x,1/2-y,1/2-z
1/4+y,3/4-x,1/4-z
1/2+x,y,1/2-z
1/4-y,1/4+x,3/4-z
1/2-x,1/2+y,1/2+z
1/2+x,-y,1/2+z
1/4-y,3/4-x,1/4+z
1/4+y,1/4+x,3/4+z
loop_
_atom_site_type_symbol
_atom_site_label
_atom_site_fract_x
_atom_site_fract_y
_atom_site_fract_z
Si Si1 0.612550 0.808115 0.637169
Si Si2 0.712840 0.880570 0.356529
Si Si3 0.441667 0.191667 0.125000
Si Si4 0.145051 0.191122 0.722901
Si Si5 0.693497 0.859259 0.010257
Si Si6 0.887160 0.941563 0.501576
O O1 0.603977 0.750000 0.606874
O O2 0.587774 0.826083 0.759788
O O3 0.586489 0.840364 0.534601
O O4 0.671922 0.821593 0.656017
O O5 0.750000 0.891337 0.250000
O O6 0.680496 0.930496 0.375000
O O7 0.676445 0.832912 0.329514
O O8 0.746449 0.868731 0.470947
O O9 0.500000 0.181154 0.150384
O O10 0.137682 0.250000 0.747891
O O11 0.174969 0.182588 0.602190
O O12 0.681441 0.839855 0.880552
O O13 0.664648 0.912465 0.028112
O O14 0.874862 0.000000 0.500000
#
# Coordination Sequence:
#
# PCOD8320695 Si02
#       6
#    32  32  16  32  32  32
#     4  10  20  34  55  86 122 161 202 248 304 367
#     4  10  23  40  63  90 121 154 206 259 307 369
#     4   9  16  28  52  84 112 144 190 242 298 360
#     4  10  21  40  63  87 118 160 207 257 305 355
#     4   9  21  37  58  88 118 161 193 253 299 364
#     4  10  21  36  57  85 127 157 196 240 304 370
#
# _framework density 21.842182999999999
#
# number of rings (size 3 to 8) (size 9 to 14) (size 15 to 20)
#    0.000    2.273    0.000    2.727    7.636    7.636 
#    0.000    0.909    0.000    0.000    0.000    0.000 
#    0.000    0.000    0.000    0.000    0.000    0.000 
#
# Total GULP energy -1090950.269097 kJ/mol
# GULP energy per Si atom -12397.162149 kJ/mol
# Density = 2.179247 g / cm^3
# Si number density = 21.842183 Si / 1000 Ang^3
#
#
#
# Elastic Constant Matrix: (Units=GPa)
#
#
# Indices 1 2 3 4 5 6 
#
# 1 124.2992 43.0527 22.6061 0.0000 0.0000 0.0000
# 2 43.0527 124.2992 22.6061 0.0000 0.0000 0.0000
# 3 22.6061 22.6061 37.1185 0.0000 0.0000 0.0000
# 4 0.0000 0.0000 0.0000 25.7244 0.0000 0.0000
# 5 0.0000 0.0000 0.0000 0.0000 25.7244 0.0000
# 6 0.0000 0.0000 0.0000 0.0000 0.0000 21.1748
#
#
#
# Elastic Compliance Matrix: (Units=1/GPa)
#
#
# Indices 1 2 3 4 5 6 
#
# 1 0.009730 -0.002578 -0.004356 0.000000 0.000000 0.000000
# 2 -0.002578 0.009730 -0.004356 0.000000 0.000000 0.000000
# 3 -0.004356 -0.004356 0.032246 0.000000 0.000000 0.000000
# 4 0.000000 0.000000 0.000000 0.038874 0.000000 0.000000
# 5 0.000000 0.000000 0.000000 0.000000 0.038874 0.000000
# 6 0.000000 0.000000 0.000000 0.000000 0.000000 0.047226
#
#
# Mechanical properties :
#
#
# Convention : Reuss Voigt Hill
#
# Bulk Modulus (GPa) = 34.33200 51.36073 42.84636
# Shear Modulus (GPa) = 23.92702 27.68818 25.80760
#
# Velocity S-wave (km/s) = 3.31335 3.56427 3.44110
# Velocity P-wave (km/s) = 5.51272 6.36429 5.95375
#
# Compressibility (1/GPa) = 0.02912735
#
# Stress axis : x y z
#
# Youngs Moduli (GPa) = 102.77258 102.77258 31.01122
#
# Poissons Ratio (x) = 0.26495 0.13508
# Poissons Ratio (y) = 0.26495 0.13508
# Poissons Ratio (z) = 0.44766 0.44766
#
# Static dielectric constant tensor:
#      x y z
#    x 3.918750 0.000000 0.000000 
#    y 0.000000 3.918750 0.000000 
#    z 0.000000 0.000000 4.004070 
# 
# 
# High freq. dielectric constant tensor:
#      x y z
#    x 1.853920 0.000000 0.000000 
#    y 0.000000 1.853920 0.000000 
#    z 0.000000 0.000000 1.849530 
# 
# From -- ./inp_files/5065.got.cif
#   From: 2010.03.12/outbox.cif.g09.slc.cpg/sg141_3_cif.got.tgz:5065.got - 2010.04.03 13:18:35.
