data_PCOD8320035
_publ_section_title
;
Structure prediction by ZEFSAII (Michael W. Deem and Ramdas Pophale) SiO2 
 PCOD8320035
Probable space group: I 4/M C M
;
_chemical_formula_sum "Si O2"
_cell_formula_units_Z 176
_cell_length_a 26.713465
_cell_length_b 26.713465
_cell_length_c 14.804191
_cell_angle_alpha 90.000000
_cell_angle_beta 90.000000
_cell_angle_gamma 90.000000
_cell_volume 10564.407078
_symmetry_space_group_name_H-M "I 4/M C M"
_symmetry_group_IT_number 140
_symmetry_cell_setting 'tetragonal'
loop_
_space_group_symop_operation_xyz
x,y,z
-y,x,z
-x,-y,z
y,-x,z
x,-y,1/2-z
-x,y,1/2-z
y,x,1/2-z
-y,-x,1/2-z
-x,-y,-z
y,-x,-z
x,y,-z
-y,x,-z
-x,y,1/2+z
x,-y,1/2+z
-y,-x,1/2+z
y,x,1/2+z
1/2+x,1/2+y,1/2+z
1/2-y,1/2+x,1/2+z
1/2-x,1/2-y,1/2+z
1/2+y,1/2-x,1/2+z
1/2+x,1/2-y,-z
1/2-x,1/2+y,-z
1/2+y,1/2+x,-z
1/2-y,1/2-x,-z
1/2-x,1/2-y,1/2-z
1/2+y,1/2-x,1/2-z
1/2+x,1/2+y,1/2-z
1/2-y,1/2+x,1/2-z
1/2-x,1/2+y,z
1/2+x,1/2-y,z
1/2-y,1/2-x,z
1/2+y,1/2+x,z
loop_
_atom_site_type_symbol
_atom_site_label
_atom_site_fract_x
_atom_site_fract_y
_atom_site_fract_z
Si Si1 0.712663 0.707784 0.349832
Si Si2 0.424691 0.532271 0.000000
Si Si3 0.584703 0.377438 0.661905
Si Si4 0.696890 0.390297 0.596946
Si Si5 0.373396 0.207496 0.103410
Si Si6 0.767815 0.941919 0.231125
O O1 0.691858 0.691858 0.250000
O O2 0.739463 0.760538 0.340103
O O3 0.665666 0.718026 0.413398
O O4 0.747642 0.666005 0.392761
O O5 0.434451 0.473902 0.000000
O O6 0.394496 0.542868 0.091350
O O7 0.586239 0.413762 0.750000
O O8 0.638870 0.382444 0.618894
O O9 0.569938 0.320294 0.682645
O O10 0.702211 0.417828 0.500000
O O11 0.730345 0.419030 0.669082
O O12 0.344583 0.155418 0.130450
O O13 0.418738 0.221543 0.172247
O O14 0.393393 0.203523 0.000000
O O15 0.758147 0.000000 0.250000
#
# Coordination Sequence:
#
# PCOD8320035 Si02
#       6
#    32  16  32  32  32  32
#     4  10  17  29  50  74 103 133 167 207 251 307
#     4  11  26  40  54  70  85 122 182 244 297 333
#     4  10  22  37  53  68  94 128 170 222 284 329
#     4  11  20  34  50  72  98 133 174 216 267 316
#     4  10  20  35  56  81 108 140 175 215 259 308
#     4  11  24  36  52  77 105 139 174 214 266 323
#
# _framework density 16.659714000000001
#
# number of rings (size 3 to 8) (size 9 to 14) (size 15 to 20)
#    0.000    1.545    4.545    1.091    6.364    1.818 
#    0.000    0.909    0.000    0.000    0.000    0.000 
#    0.000    0.364    0.000    2.000    0.000    0.000 
#
# Total GULP energy -1090561.611004 kJ/mol
# GULP energy per Si atom -12392.745580 kJ/mol
# Density = 1.662180 g / cm^3
# Si number density = 16.659714 Si / 1000 Ang^3
#
#
#
# Elastic Constant Matrix: (Units=GPa)
#
#
# Indices 1 2 3 4 5 6 
#
# 1 59.0673 28.6587 36.6193 0.0000 0.0000 0.0000
# 2 28.6587 59.0669 36.6191 0.0000 0.0000 0.0000
# 3 36.6193 36.6191 130.2175 0.0000 0.0000 0.0000
# 4 0.0000 0.0000 0.0000 13.8696 0.0000 0.0000
# 5 0.0000 0.0000 0.0000 0.0000 13.8692 0.0000
# 6 0.0000 0.0000 0.0000 0.0000 0.0000 9.4417
#
#
#
# Elastic Compliance Matrix: (Units=1/GPa)
#
#
# Indices 1 2 3 4 5 6 
#
# 1 0.023891 -0.008995 -0.004189 0.000000 0.000000 0.000000
# 2 -0.008995 0.023891 -0.004189 0.000000 0.000000 0.000000
# 3 -0.004189 -0.004189 0.010036 0.000000 0.000000 0.000000
# 4 0.000000 0.000000 0.000000 0.072100 0.000000 0.000000
# 5 0.000000 0.000000 0.000000 0.000000 0.072102 0.000000
# 6 0.000000 0.000000 0.000000 0.000000 0.000000 0.105913
#
#
# Mechanical properties :
#
#
# Convention : Reuss Voigt Hill
#
# Bulk Modulus (GPa) = 43.34257 50.23844 46.79051
# Shear Modulus (GPa) = 14.27065 17.19974 15.73519
#
# Velocity S-wave (km/s) = 2.92994 3.21661 3.07662
# Velocity P-wave (km/s) = 6.12527 6.63450 6.38496
#
# Compressibility (1/GPa) = 0.02307200
#
# Stress axis : x y z
#
# Youngs Moduli (GPa) = 41.85683 41.85649 99.64579
#
# Poissons Ratio (x) = 0.37648 0.41743
# Poissons Ratio (y) = 0.37649 0.41743
# Poissons Ratio (z) = 0.17534 0.17534
#
# Static dielectric constant tensor:
#      x y z
#    x 3.011570 0.000000 0.000000 
#    y 0.000000 3.011570 0.000000 
#    z 0.000000 0.000000 0.563150 
# 
# 
# High freq. dielectric constant tensor:
#      x y z
#    x 1.610510 0.000000 0.000000 
#    y 0.000000 1.610510 0.000000 
#    z 0.000000 0.000000 1.663810 
# 
# From -- ./inp_files/5131.got.cif
#   From: 2010.06.25/outbox.cif.g09.slc.cpg/sg140_3_cif.got.tgz:5131.got - 2010.06.28 10:53:23.
