data_PCOD8320033
_publ_section_title
;
Structure prediction by ZEFSAII (Michael W. Deem and Ramdas Pophale) SiO2 
 PCOD8320033
Probable space group: I 4/M C M
;
_chemical_formula_sum "Si O2"
_cell_formula_units_Z 112
_cell_length_a 17.802529
_cell_length_b 17.802529
_cell_length_c 18.216946
_cell_angle_alpha 90.000000
_cell_angle_beta 90.000000
_cell_angle_gamma 90.000000
_cell_volume 5773.497403
_symmetry_space_group_name_H-M "I 4/M C M"
_symmetry_group_IT_number 140
_symmetry_cell_setting 'tetragonal'
loop_
_space_group_symop_operation_xyz
x,y,z
-y,x,z
-x,-y,z
y,-x,z
x,-y,1/2-z
-x,y,1/2-z
y,x,1/2-z
-y,-x,1/2-z
-x,-y,-z
y,-x,-z
x,y,-z
-y,x,-z
-x,y,1/2+z
x,-y,1/2+z
-y,-x,1/2+z
y,x,1/2+z
1/2+x,1/2+y,1/2+z
1/2-y,1/2+x,1/2+z
1/2-x,1/2-y,1/2+z
1/2+y,1/2-x,1/2+z
1/2+x,1/2-y,-z
1/2-x,1/2+y,-z
1/2+y,1/2+x,-z
1/2-y,1/2-x,-z
1/2-x,1/2-y,1/2-z
1/2+y,1/2-x,1/2-z
1/2+x,1/2+y,1/2-z
1/2-y,1/2+x,1/2-z
1/2-x,1/2+y,z
1/2+x,1/2-y,z
1/2-y,1/2-x,z
1/2+y,1/2+x,z
loop_
_atom_site_type_symbol
_atom_site_label
_atom_site_fract_x
_atom_site_fract_y
_atom_site_fract_z
Si Si1 0.436903 0.063097 0.081051
Si Si2 0.963684 0.659017 0.824149
Si Si3 0.415631 0.581575 0.586738
Si Si4 0.354963 0.263136 0.414490
O O1 0.468710 0.135783 0.122293
O O2 0.500000 0.000000 0.075253
O O3 0.411429 0.088572 0.000000
O O4 0.913342 0.586659 0.803331
O O5 0.915361 0.721063 0.865208
O O6 0.000000 0.692437 0.750000
O O7 0.394360 0.497637 0.617063
O O8 0.419841 0.577246 0.500000
O O9 0.350892 0.641439 0.609515
O O10 0.377229 0.252933 0.500000
O O11 0.271789 0.228212 0.400379
#
# Coordination Sequence:
#
# PCOD8320033 Si02
#       4
#    16  32  32  32
#     4   9  16  24  38  58  84 119 164 216 250 279
#     4  10  17  26  41  61  89 128 169 201 238 299
#     4   8  14  27  50  76  98 125 166 213 253 293
#     4   9  17  28  45  71 101 127 155 200 255 304
#
# _framework density 19.398986000000001
#
# number of rings (size 3 to 8) (size 9 to 14) (size 15 to 20)
#    0.000    3.000    1.429    1.714    0.000    3.429 
#    0.000    0.000    3.143    1.714    0.000    6.000 
#    0.000    0.000    0.000    0.000    0.000    0.000 
#
# Total GULP energy -693862.833359 kJ/mol
# GULP energy per Si atom -12390.407739 kJ/mol
# Density = 1.935483 g / cm^3
# Si number density = 19.398986 Si / 1000 Ang^3
#
#
#
# Elastic Constant Matrix: (Units=GPa)
#
#
# Indices 1 2 3 4 5 6 
#
# 1 84.5443 42.0055 10.1938 0.0000 0.0000 0.0000
# 2 42.0055 84.5442 10.1937 0.0000 0.0000 0.0000
# 3 10.1938 10.1937 67.3381 0.0000 0.0000 0.0000
# 4 0.0000 0.0000 0.0000 6.3741 0.0000 0.0000
# 5 0.0000 0.0000 0.0000 0.0000 6.3742 0.0000
# 6 0.0000 0.0000 0.0000 0.0000 0.0000 21.5652
#
#
#
# Elastic Compliance Matrix: (Units=1/GPa)
#
#
# Indices 1 2 3 4 5 6 
#
# 1 0.015804 -0.007704 -0.001226 0.000000 0.000000 0.000000
# 2 -0.007704 0.015804 -0.001226 0.000000 0.000000 0.000000
# 3 -0.001226 -0.001226 0.015222 0.000000 0.000000 0.000000
# 4 0.000000 0.000000 0.000000 0.156885 0.000000 0.000000
# 5 0.000000 0.000000 0.000000 0.000000 0.156883 0.000000
# 6 0.000000 0.000000 0.000000 0.000000 0.000000 0.046371
#
#
# Mechanical properties :
#
#
# Convention : Reuss Voigt Hill
#
# Bulk Modulus (GPa) = 37.71268 40.13474 38.92371
# Shear Modulus (GPa) = 11.46476 18.46494 14.96485
#
# Velocity S-wave (km/s) = 2.43368 3.08856 2.78047
# Velocity P-wave (km/s) = 5.23257 5.78385 5.51510
#
# Compressibility (1/GPa) = 0.02651628
#
# Stress axis : x y z
#
# Youngs Moduli (GPa) = 63.27607 63.27603 65.69585
#
# Poissons Ratio (x) = 0.48749 0.08055
# Poissons Ratio (y) = 0.48749 0.08055
# Poissons Ratio (z) = 0.07758 0.07758
#
# Static dielectric constant tensor:
#      x y z
#    x 3.550010 0.000000 0.000000 
#    y 0.000000 3.550010 0.000000 
#    z 0.000000 0.000000 3.276280 
# 
# 
# High freq. dielectric constant tensor:
#      x y z
#    x 1.736360 0.000000 0.000000 
#    y 0.000000 1.736360 0.000000 
#    z 0.000000 0.000000 1.725900 
# 
# From -- ./inp_files/6065.got.cif
#   From: 2010.06.25/outbox.cif.g09.slc.cpg/sg140_4_cif.got.tgz:6065.got - 2010.06.28 10:53:23.
