data_PCOD8320478
_publ_section_title
;
Structure prediction by ZEFSAII (Michael W. Deem and Ramdas Pophale) SiO2 
 PCOD8320478
Probable space group: I 4/M C M
;
_chemical_formula_sum "Si O2"
_cell_formula_units_Z 144
_cell_length_a 19.907374
_cell_length_b 19.907374
_cell_length_c 18.037376
_cell_angle_alpha 90.000000
_cell_angle_beta 90.000000
_cell_angle_gamma 90.000000
_cell_volume 7148.275953
_symmetry_space_group_name_H-M "I 4/M C M"
_symmetry_group_IT_number 140
_symmetry_cell_setting 'tetragonal'
loop_
_space_group_symop_operation_xyz
x,y,z
-y,x,z
-x,-y,z
y,-x,z
x,-y,1/2-z
-x,y,1/2-z
y,x,1/2-z
-y,-x,1/2-z
-x,-y,-z
y,-x,-z
x,y,-z
-y,x,-z
-x,y,1/2+z
x,-y,1/2+z
-y,-x,1/2+z
y,x,1/2+z
1/2+x,1/2+y,1/2+z
1/2-y,1/2+x,1/2+z
1/2-x,1/2-y,1/2+z
1/2+y,1/2-x,1/2+z
1/2+x,1/2-y,-z
1/2-x,1/2+y,-z
1/2+y,1/2+x,-z
1/2-y,1/2-x,-z
1/2-x,1/2-y,1/2-z
1/2+y,1/2-x,1/2-z
1/2+x,1/2+y,1/2-z
1/2-y,1/2+x,1/2-z
1/2-x,1/2+y,z
1/2+x,1/2-y,z
1/2-y,1/2-x,z
1/2+y,1/2+x,z
loop_
_atom_site_type_symbol
_atom_site_label
_atom_site_fract_x
_atom_site_fract_y
_atom_site_fract_z
Si Si1 0.131650 0.738618 0.000000
Si Si2 0.555765 0.944236 0.087342
Si Si3 0.000000 0.793572 0.750000
Si Si4 0.472541 0.801868 0.617358
Si Si5 0.045020 0.897675 0.353264
Si Si6 0.200030 0.413040 0.000000
Si Si7 0.154942 0.109351 0.500000
O O1 0.094678 0.713712 0.927117
O O2 0.207533 0.707533 0.000000
O O3 0.120799 0.818668 0.000000
O O4 0.529254 0.880954 0.134102
O O5 0.500000 0.000000 0.087958
O O6 0.573282 0.926719 0.000000
O O7 0.967332 0.744884 0.689245
O O8 0.943223 0.841648 0.789058
O O9 0.541389 0.792869 0.572644
O O10 0.062373 0.864934 0.431419
O O11 0.965289 0.912616 0.345016
O O12 0.266975 0.368778 0.000000
O O13 0.132768 0.367233 0.000000
#
# Coordination Sequence:
#
# PCOD8320478 Si02
#       7
#    16  16  16  32  32  16  16
#     4  11  22  42  68  91 128 172 225 269 327 405
#     4  11  20  40  74 102 121 162 224 284 333 384
#     4  12  24  41  61  94 136 178 204 258 334 396
#     4  11  22  42  65  95 130 173 215 268 326 399
#     4  11  24  42  66  96 129 168 223 276 322 384
#     4  11  22  41  64  94 126 164 216 271 324 375
#     4  12  23  39  67 100 129 167 220 278 329 389
#
# _framework density 20.144718000000001
#
# number of rings (size 3 to 8) (size 9 to 14) (size 15 to 20)
#    0.000    0.778    5.556    3.667    3.111    1.778 
#    4.000    0.000    0.000    1.333    0.000    0.000 
#    0.000    0.000    0.000    0.000    0.000    0.000 
#
# Total GULP energy -892107.757563 kJ/mol
# GULP energy per Si atom -12390.385522 kJ/mol
# Density = 2.009887 g / cm^3
# Si number density = 20.144718 Si / 1000 Ang^3
#
#
#
# Elastic Constant Matrix: (Units=GPa)
#
#
# Indices 1 2 3 4 5 6 
#
# 1 119.0070 41.2559 53.3920 0.0000 0.0000 0.0000
# 2 41.2559 119.0053 53.3918 0.0000 0.0000 0.0000
# 3 53.3920 53.3918 132.6259 0.0000 0.0000 0.0000
# 4 0.0000 0.0000 0.0000 10.7221 0.0000 0.0000
# 5 0.0000 0.0000 0.0000 0.0000 10.7255 0.0000
# 6 0.0000 0.0000 0.0000 0.0000 0.0000 30.6860
#
#
#
# Elastic Compliance Matrix: (Units=1/GPa)
#
#
# Indices 1 2 3 4 5 6 
#
# 1 0.010694 -0.002167 -0.003433 0.000000 0.000000 0.000000
# 2 -0.002167 0.010694 -0.003433 0.000000 0.000000 0.000000
# 3 -0.003433 -0.003433 0.010304 0.000000 0.000000 0.000000
# 4 0.000000 0.000000 0.000000 0.093265 0.000000 0.000000
# 5 0.000000 0.000000 0.000000 0.000000 0.093236 0.000000
# 6 0.000000 0.000000 0.000000 0.000000 0.000000 0.032588
#
#
# Mechanical properties :
#
#
# Convention : Reuss Voigt Hill
#
# Bulk Modulus (GPa) = 73.38420 74.07972 73.73196
# Shear Modulus (GPa) = 18.28892 25.26663 21.77778
#
# Velocity S-wave (km/s) = 3.01637 3.54539 3.29152
# Velocity P-wave (km/s) = 6.97416 7.32211 7.15025
#
# Compressibility (1/GPa) = 0.01362691
#
# Stress axis : x y z
#
# Youngs Moduli (GPa) = 93.50780 93.50627 97.05052
#
# Poissons Ratio (x) = 0.20266 0.33315
# Poissons Ratio (y) = 0.20266 0.33316
# Poissons Ratio (z) = 0.32099 0.32099
#
# Static dielectric constant tensor:
#      x y z
#    x 3.768890 0.000000 0.000000 
#    y 0.000000 3.768890 0.000000 
#    z 0.000000 0.000000 3.821530 
# 
# 
# High freq. dielectric constant tensor:
#      x y z
#    x 1.791170 0.000000 0.000000 
#    y 0.000000 1.791170 0.000000 
#    z 0.000000 0.000000 1.774420 
# 
# From -- ./inp_files/6751.got.cif
#   From: 2010.06.25/outbox.cif.g09.slc.cpg/sg140_4_cif.got.tgz:6751.got - 2010.06.28 10:53:23.
