data_PCOD8320328
_publ_section_title
;
Structure prediction by ZEFSAII (Michael W. Deem and Ramdas Pophale) SiO2 
 PCOD8320328
Probable space group: I 4/M C M
;
_chemical_formula_sum "Si O2"
_cell_formula_units_Z 88
_cell_length_a 17.680000
_cell_length_b 17.680000
_cell_length_c 14.435127
_cell_angle_alpha 90.000000
_cell_angle_beta 90.000000
_cell_angle_gamma 90.000000
_cell_volume 4512.166642
_symmetry_space_group_name_H-M "I 4/M C M"
_symmetry_group_IT_number 140
_symmetry_cell_setting 'tetragonal'
loop_
_space_group_symop_operation_xyz
x,y,z
-y,x,z
-x,-y,z
y,-x,z
x,-y,1/2-z
-x,y,1/2-z
y,x,1/2-z
-y,-x,1/2-z
-x,-y,-z
y,-x,-z
x,y,-z
-y,x,-z
-x,y,1/2+z
x,-y,1/2+z
-y,-x,1/2+z
y,x,1/2+z
1/2+x,1/2+y,1/2+z
1/2-y,1/2+x,1/2+z
1/2-x,1/2-y,1/2+z
1/2+y,1/2-x,1/2+z
1/2+x,1/2-y,-z
1/2-x,1/2+y,-z
1/2+y,1/2+x,-z
1/2-y,1/2-x,-z
1/2-x,1/2-y,1/2-z
1/2+y,1/2-x,1/2-z
1/2+x,1/2+y,1/2-z
1/2-y,1/2+x,1/2-z
1/2-x,1/2+y,z
1/2+x,1/2-y,z
1/2-y,1/2-x,z
1/2+y,1/2+x,z
loop_
_atom_site_type_symbol
_atom_site_label
_atom_site_fract_x
_atom_site_fract_y
_atom_site_fract_z
Si Si1 0.282758 0.782758 0.000000
Si Si2 0.462604 0.746970 0.348201
Si Si3 0.944679 0.325731 0.500000
Si Si4 0.969887 0.878562 0.500000
Si Si5 0.292830 0.792830 0.670871
O O1 0.373266 0.767552 0.000000
O O2 0.242501 0.742501 0.082000
O O3 0.500000 0.728177 0.250000
O O4 0.507534 0.810757 0.406938
O O5 0.456883 0.670542 0.407820
O O6 0.381507 0.779990 0.324704
O O7 0.912203 0.412203 0.500000
O O8 0.054882 0.909267 0.500000
O O9 0.250000 0.750000 0.750000
#
# Coordination Sequence:
#
# PCOD8320328 Si02
#       5
#     8  32  16  16  16
#     4  10  20  40  70  91 129 170 212 278 330 384
#     4  11  25  41  68  97 135 174 230 272 338 392
#     4   9  22  42  68  95 134 169 212 277 337 395
#     4  10  25  43  62  95 137 176 217 269 337 405
#     4  12  26  40  68 100 129 172 235 274 321 396
#
# _framework density 19.502825000000001
#
# number of rings (size 3 to 8) (size 9 to 14) (size 15 to 20)
#    0.545    0.909    0.000    4.364   17.818    0.000 
#    0.000    3.636    0.000    0.000    0.000    0.000 
#    0.000    0.000    0.000    0.000    0.000    0.000 
#
# Total GULP energy -545483.942423 kJ/mol
# GULP energy per Si atom -12397.362328 kJ/mol
# Density = 1.945844 g / cm^3
# Si number density = 19.502825 Si / 1000 Ang^3
#
#
#
# Elastic Constant Matrix: (Units=GPa)
#
#
# Indices 1 2 3 4 5 6 
#
# 1 103.0947 45.4664 23.0243 0.0000 0.0000 0.0000
# 2 45.4664 103.0947 23.0243 0.0000 0.0000 0.0000
# 3 23.0243 23.0243 127.9163 0.0000 0.0000 0.0000
# 4 0.0000 0.0000 0.0000 34.9454 0.0000 0.0000
# 5 0.0000 0.0000 0.0000 0.0000 34.9454 0.0000
# 6 0.0000 0.0000 0.0000 0.0000 0.0000 36.8791
#
#
#
# Elastic Compliance Matrix: (Units=1/GPa)
#
#
# Indices 1 2 3 4 5 6 
#
# 1 0.012241 -0.005112 -0.001283 0.000000 0.000000 0.000000
# 2 -0.005112 0.012241 -0.001283 0.000000 0.000000 0.000000
# 3 -0.001283 -0.001283 0.008280 0.000000 0.000000 0.000000
# 4 0.000000 0.000000 0.000000 0.028616 0.000000 0.000000
# 5 0.000000 0.000000 0.000000 0.000000 0.028616 0.000000
# 6 0.000000 0.000000 0.000000 0.000000 0.000000 0.027116
#
#
# Mechanical properties :
#
#
# Convention : Reuss Voigt Hill
#
# Bulk Modulus (GPa) = 57.45548 57.45951 57.45750
# Shear Modulus (GPa) = 36.16198 37.52669 36.84434
#
# Velocity S-wave (km/s) = 4.31070 4.39129 4.35118
# Velocity P-wave (km/s) = 7.36887 7.43218 7.40060
#
# Compressibility (1/GPa) = 0.01740478
#
# Stress axis : x y z
#
# Youngs Moduli (GPa) = 81.69419 81.69419 120.77956
#
# Poissons Ratio (x) = 0.41760 0.15498
# Poissons Ratio (y) = 0.41760 0.15498
# Poissons Ratio (z) = 0.10483 0.10483
#
# Static dielectric constant tensor:
#      x y z
#    x 3.806120 0.000000 0.000000 
#    y 0.000000 3.806120 0.000000 
#    z 0.000000 0.000000 3.607860 
# 
# 
# High freq. dielectric constant tensor:
#      x y z
#    x 1.766090 0.000000 0.000000 
#    y 0.000000 1.766090 0.000000 
#    z 0.000000 0.000000 1.774110 
# 
# From -- ./inp_files/4028.got.cif
#   From: 2010.06.25/outbox.cif.g09.slc.cpg/sg140_3_cif.got.tgz:4028.got - 2010.06.28 10:53:23.
