data_PCOD8320041
_publ_section_title
;
Structure prediction by ZEFSAII (Michael W. Deem and Ramdas Pophale) SiO2 
 PCOD8320041
Probable space group: I 4/M C M
;
_chemical_formula_sum "Si O2"
_cell_formula_units_Z 144
_cell_length_a 17.531281
_cell_length_b 17.531281
_cell_length_c 26.611243
_cell_angle_alpha 90.000000
_cell_angle_beta 90.000000
_cell_angle_gamma 90.000000
_cell_volume 8178.854128
_symmetry_space_group_name_H-M "I 4/M C M"
_symmetry_group_IT_number 140
_symmetry_cell_setting 'tetragonal'
loop_
_space_group_symop_operation_xyz
x,y,z
-y,x,z
-x,-y,z
y,-x,z
x,-y,1/2-z
-x,y,1/2-z
y,x,1/2-z
-y,-x,1/2-z
-x,-y,-z
y,-x,-z
x,y,-z
-y,x,-z
-x,y,1/2+z
x,-y,1/2+z
-y,-x,1/2+z
y,x,1/2+z
1/2+x,1/2+y,1/2+z
1/2-y,1/2+x,1/2+z
1/2-x,1/2-y,1/2+z
1/2+y,1/2-x,1/2+z
1/2+x,1/2-y,-z
1/2-x,1/2+y,-z
1/2+y,1/2+x,-z
1/2-y,1/2-x,-z
1/2-x,1/2-y,1/2-z
1/2+y,1/2-x,1/2-z
1/2+x,1/2+y,1/2-z
1/2-y,1/2+x,1/2-z
1/2-x,1/2+y,z
1/2+x,1/2-y,z
1/2-y,1/2-x,z
1/2+y,1/2+x,z
loop_
_atom_site_type_symbol
_atom_site_label
_atom_site_fract_x
_atom_site_fract_y
_atom_site_fract_z
Si Si1 0.577443 0.400038 0.000000
Si Si2 0.442028 0.707996 0.649280
Si Si3 0.344169 0.155832 0.736999
Si Si4 0.676555 0.176555 0.649673
Si Si5 0.176038 0.098680 0.603082
Si Si6 0.229976 0.500000 0.250000
Si Si7 0.795001 0.705000 0.132173
O O1 0.605481 0.486539 0.000000
O O2 0.612572 0.358255 0.048233
O O3 0.408895 0.793800 0.634967
O O4 0.374927 0.644537 0.644422
O O5 0.508818 0.679193 0.613238
O O6 0.472375 0.712776 0.706178
O O7 0.313590 0.186411 0.790166
O O8 0.433932 0.173077 0.731180
O O9 0.301848 0.198153 0.691986
O O10 0.732004 0.232004 0.619777
O O11 0.264001 0.127509 0.606491
#
# Coordination Sequence:
#
# PCOD8320041 Si02
#       7
#    16  32  16  16  32  16  16
#     4  11  22  37  58  80 110 148 181 228 290 345
#     4  10  20  34  53  82 111 146 182 227 272 333
#     4  10  17  31  51  75 108 150 181 225 262 320
#     4   8  19  32  50  76 108 147 183 210 268 328
#     4  11  21  36  58  80 110 144 188 229 284 331
#     4  10  20  33  52  79 114 148 190 218 272 320
#     4  10  19  33  55  79 108 141 183 232 272 315
#
# _framework density 17.606379
#
# number of rings (size 3 to 8) (size 9 to 14) (size 15 to 20)
#    0.000    1.889    4.444    0.333    0.000    2.000 
#    0.000    0.000    0.000    2.667    0.000    0.000 
#    0.000    1.778    0.000    0.000    0.000    0.000 
#
# Total GULP energy -892083.650941 kJ/mol
# GULP energy per Si atom -12390.050708 kJ/mol
# Density = 1.756631 g / cm^3
# Si number density = 17.606379 Si / 1000 Ang^3
#
#
#
# Elastic Constant Matrix: (Units=GPa)
#
#
# Indices 1 2 3 4 5 6 
#
# 1 70.6538 44.1978 26.3914 0.0000 0.0000 0.0000
# 2 44.1978 70.6538 26.3914 0.0000 0.0000 0.0000
# 3 26.3914 26.3914 78.7741 0.0000 0.0000 0.0000
# 4 0.0000 0.0000 0.0000 21.1325 0.0000 0.0000
# 5 0.0000 0.0000 0.0000 0.0000 21.1325 0.0000
# 6 0.0000 0.0000 0.0000 0.0000 0.0000 32.3068
#
#
#
# Elastic Compliance Matrix: (Units=1/GPa)
#
#
# Indices 1 2 3 4 5 6 
#
# 1 0.024045 -0.013754 -0.003448 0.000000 0.000000 0.000000
# 2 -0.013754 0.024045 -0.003448 0.000000 0.000000 0.000000
# 3 -0.003448 -0.003448 0.015005 0.000000 0.000000 0.000000
# 4 0.000000 0.000000 0.000000 0.047320 0.000000 0.000000
# 5 0.000000 0.000000 0.000000 0.000000 0.047320 0.000000
# 6 0.000000 0.000000 0.000000 0.000000 0.000000 0.030953
#
#
# Mechanical properties :
#
#
# Convention : Reuss Voigt Hill
#
# Bulk Modulus (GPa) = 45.87982 46.00479 45.94231
# Shear Modulus (GPa) = 21.07455 23.12111 22.09783
#
# Velocity S-wave (km/s) = 3.46350 3.62777 3.54659
# Velocity P-wave (km/s) = 6.48919 6.61317 6.55147
#
# Compressibility (1/GPa) = 0.02179607
#
# Stress axis : x y z
#
# Youngs Moduli (GPa) = 41.58869 41.58869 66.64527
#
# Poissons Ratio (x) = 0.57199 0.22979
# Poissons Ratio (y) = 0.57199 0.22979
# Poissons Ratio (z) = 0.14339 0.14339
#
# Static dielectric constant tensor:
#      x y z
#    x 3.377910 0.000000 0.000000 
#    y 0.000000 3.377910 0.000000 
#    z 0.000000 0.000000 3.060810 
# 
# 
# High freq. dielectric constant tensor:
#      x y z
#    x 1.677040 0.000000 0.000000 
#    y 0.000000 1.677040 0.000000 
#    z 0.000000 0.000000 1.660420 
# 
# From -- ./inp_files/9515.got.cif
#   From: 2010.06.25/outbox.cif.g09.slc.cpg/sg140_5_cif.got.tgz:9515.got - 2010.06.28 10:53:23.
