data_PCOD8320074
_publ_section_title
;
Structure prediction by ZEFSAII (Michael W. Deem and Ramdas Pophale) SiO2 
 PCOD8320074
Probable space group: I 4/M C M
;
_chemical_formula_sum "Si O2"
_cell_formula_units_Z 192
_cell_length_a 17.242148
_cell_length_b 17.242148
_cell_length_c 31.068330
_cell_angle_alpha 90.000000
_cell_angle_beta 90.000000
_cell_angle_gamma 90.000000
_cell_volume 9236.355637
_symmetry_space_group_name_H-M "I 4/M C M"
_symmetry_group_IT_number 140
_symmetry_cell_setting 'tetragonal'
loop_
_space_group_symop_operation_xyz
x,y,z
-y,x,z
-x,-y,z
y,-x,z
x,-y,1/2-z
-x,y,1/2-z
y,x,1/2-z
-y,-x,1/2-z
-x,-y,-z
y,-x,-z
x,y,-z
-y,x,-z
-x,y,1/2+z
x,-y,1/2+z
-y,-x,1/2+z
y,x,1/2+z
1/2+x,1/2+y,1/2+z
1/2-y,1/2+x,1/2+z
1/2-x,1/2-y,1/2+z
1/2+y,1/2-x,1/2+z
1/2+x,1/2-y,-z
1/2-x,1/2+y,-z
1/2+y,1/2+x,-z
1/2-y,1/2-x,-z
1/2-x,1/2-y,1/2-z
1/2+y,1/2-x,1/2-z
1/2+x,1/2+y,1/2-z
1/2-y,1/2+x,1/2-z
1/2-x,1/2+y,z
1/2+x,1/2-y,z
1/2-y,1/2-x,z
1/2+y,1/2+x,z
loop_
_atom_site_type_symbol
_atom_site_label
_atom_site_fract_x
_atom_site_fract_y
_atom_site_fract_z
Si Si1 0.707550 0.667287 0.362506
Si Si2 0.907353 0.087652 0.200008
Si Si3 0.500000 0.124603 0.750000
Si Si4 0.341315 0.711301 0.952212
Si Si5 0.674119 0.048047 0.083348
Si Si6 0.666580 0.042969 0.339020
Si Si7 0.064929 0.564929 0.048408
O O1 0.746206 0.753795 0.356275
O O2 0.636146 0.652383 0.329929
O O3 0.681049 0.655082 0.412530
O O4 0.770917 0.603816 0.353671
O O5 0.891850 0.108151 0.250000
O O6 0.997071 0.108065 0.189835
O O7 0.428458 0.071543 0.734699
O O8 0.476505 0.180318 0.789126
O O9 0.279193 0.779193 0.955176
O O10 0.425837 0.746435 0.939257
O O11 0.347346 0.671187 0.000000
O O12 0.610645 0.110645 0.070044
O O13 0.679391 0.037486 0.134922
O O14 0.646840 0.962494 0.067977
O O15 0.579555 0.079555 0.345210
O O16 0.000000 0.500000 0.055710
O O17 0.082979 0.582979 0.000000
#
# Coordination Sequence:
#
# PCOD8320074 Si02
#       7
#    32  32  16  32  32  32  16
#     4  10  22  38  59  87 120 154 191 244 300 351
#     4   9  20  40  66  91 115 151 198 246 296 348
#     4   9  18  32  52  76 114 167 204 232 284 359
#     4   9  19  37  56  75 107 154 197 230 279 352
#     4  10  18  30  53  80 111 149 188 234 281 349
#     4  10  20  34  51  80 121 155 195 238 286 344
#     4   9  16  26  44  76 110 138 175 232 286 327
#
# _framework density 20.787420000000001
#
# number of rings (size 3 to 8) (size 9 to 14) (size 15 to 20)
#    0.000    2.500    0.833    1.500    2.333    4.333 
#    0.000    1.667    0.000    0.000    0.000    1.167 
#    0.000    0.000    0.000    0.000    0.000    0.000 
#
# Total GULP energy -1189402.169967 kJ/mol
# GULP energy per Si atom -12389.605937 kJ/mol
# Density = 2.074011 g / cm^3
# Si number density = 20.787420 Si / 1000 Ang^3
#
#
#
# Elastic Constant Matrix: (Units=GPa)
#
#
# Indices 1 2 3 4 5 6 
#
# 1 55.4885 29.7602 57.1646 0.0000 0.0000 0.0000
# 2 29.7602 55.4883 57.1645 0.0000 0.0000 0.0000
# 3 57.1646 57.1645 183.2842 0.0000 0.0000 0.0000
# 4 0.0000 0.0000 0.0000 28.7957 0.0000 0.0000
# 5 0.0000 0.0000 0.0000 0.0000 28.7957 0.0000
# 6 0.0000 0.0000 0.0000 0.0000 0.0000 23.2909
#
#
#
# Elastic Compliance Matrix: (Units=1/GPa)
#
#
# Indices 1 2 3 4 5 6 
#
# 1 0.029516 -0.009351 -0.006289 0.000000 0.000000 0.000000
# 2 -0.009351 0.029517 -0.006289 0.000000 0.000000 0.000000
# 3 -0.006289 -0.006289 0.009379 0.000000 0.000000 0.000000
# 4 0.000000 0.000000 0.000000 0.034727 0.000000 0.000000
# 5 0.000000 0.000000 0.000000 0.000000 0.034727 0.000000
# 6 0.000000 0.000000 0.000000 0.000000 0.000000 0.042935
#
#
# Mechanical properties :
#
#
# Convention : Reuss Voigt Hill
#
# Bulk Modulus (GPa) = 40.72953 64.71552 52.72253
# Shear Modulus (GPa) = 21.47340 26.18792 23.83066
#
# Velocity S-wave (km/s) = 3.21752 3.55321 3.38952
# Velocity P-wave (km/s) = 5.78266 6.93061 6.38250
#
# Compressibility (1/GPa) = 0.02455221
#
# Stress axis : x y z
#
# Youngs Moduli (GPa) = 33.87938 33.87930 106.61937
#
# Poissons Ratio (x) = 0.31682 0.67056
# Poissons Ratio (y) = 0.31682 0.67056
# Poissons Ratio (z) = 0.21308 0.21308
#
# Static dielectric constant tensor:
#      x y z
#    x 3.622520 0.000000 0.000000 
#    y 0.000000 3.622520 0.000000 
#    z 0.000000 0.000000 4.063410 
# 
# 
# High freq. dielectric constant tensor:
#      x y z
#    x 1.786140 0.000000 0.000000 
#    y 0.000000 1.786140 0.000000 
#    z 0.000000 0.000000 1.826220 
# 
# From -- ./inp_files/11661.got.cif
#   From: 2010.06.25/outbox.cif.g09.slc.cpg/sg140_6_cif.got.tgz:11661.got - 2010.06.28 10:53:23.
