data_PCOD8320592
_publ_section_title
;
Structure prediction by ZEFSAII (Michael W. Deem and Ramdas Pophale) SiO2 
 PCOD8320592
Probable space group: I 41/A M D
;
_chemical_formula_sum "Si O2"
_cell_formula_units_Z 112
_cell_length_a 32.361997
_cell_length_b 32.361997
_cell_length_c 5.341094
_cell_angle_alpha 90.000000
_cell_angle_beta 90.000000
_cell_angle_gamma 90.000000
_cell_volume 5593.721603
_symmetry_space_group_name_H-M "I 41/A M D"
_symmetry_group_IT_number 141
_space_group.IT_coordinate_system_code '2'
_symmetry_cell_setting 'tetragonal'
loop_
_space_group_symop_operation_xyz
x,y,z
1/4-y,3/4+x,1/4+z
-x,1/2-y,z
1/4+y,1/4-x,3/4+z
x,-y,-z
-x,1/2+y,-z
1/4+y,3/4+x,1/4-z
1/4-y,1/4-x,3/4-z
-x,-y,-z
3/4+y,1/4-x,3/4-z
x,1/2+y,-z
3/4-y,3/4+x,1/4-z
-x,y,z
x,1/2-y,z
3/4-y,1/4-x,3/4+z
3/4+y,3/4+x,1/4+z
1/2+x,1/2+y,1/2+z
3/4-y,1/4+x,3/4+z
1/2-x,-y,1/2+z
3/4+y,3/4-x,1/4+z
1/2+x,1/2-y,1/2-z
1/2-x,y,1/2-z
3/4+y,1/4+x,3/4-z
3/4-y,3/4-x,1/4-z
1/2-x,1/2-y,1/2-z
1/4+y,3/4-x,1/4-z
1/2+x,y,1/2-z
1/4-y,1/4+x,3/4-z
1/2-x,1/2+y,1/2+z
1/2+x,-y,1/2+z
1/4-y,3/4-x,1/4+z
1/4+y,1/4+x,3/4+z
loop_
_atom_site_type_symbol
_atom_site_label
_atom_site_fract_x
_atom_site_fract_y
_atom_site_fract_z
Si Si1 0.189549 0.873965 0.403047
Si Si2 0.548413 0.335325 0.870134
Si Si3 0.750000 0.937793 0.250000
Si Si4 0.165197 0.349906 0.099905
O O1 0.225011 0.908594 0.442736
O O2 0.191048 0.843290 0.642542
O O3 0.144599 0.894298 0.376517
O O4 0.195914 0.848926 0.141204
O O5 0.557859 0.307859 0.625000
O O6 0.500000 0.336423 0.914333
O O7 0.564456 0.381323 0.816392
O O8 0.568557 0.318557 0.125000
O O9 0.716002 0.966002 0.375000
#
# Coordination Sequence:
#
# PCOD8320592 Si02
#       4
#    32  32  16  32
#     4  10  20  37  58  73 116 158 191 234 271 352
#     4  12  23  38  61  90 125 156 191 244 294 357
#     4  12  26  34  52  98 129 148 183 240 314 366
#     4  10  18  40  57  76 109 162 207 223 266 351
#
# _framework density 20.022447
#
# number of rings (size 3 to 8) (size 9 to 14) (size 15 to 20)
#    0.000    1.143    8.571    0.857    4.000    2.857 
#    0.000    0.000    0.000    0.000    0.000    6.000 
#    0.000    0.000    0.000    0.000    0.000    0.000 
#
# Total GULP energy -693902.985498 kJ/mol
# GULP energy per Si atom -12391.124741 kJ/mol
# Density = 1.997688 g / cm^3
# Si number density = 20.022447 Si / 1000 Ang^3
#
#
#
# Elastic Constant Matrix: (Units=GPa)
#
#
# Indices 1 2 3 4 5 6 
#
# 1 43.6063 60.4233 26.7677 0.0000 0.0000 0.0000
# 2 60.4233 43.6063 26.7677 0.0000 0.0000 0.0000
# 3 26.7677 26.7677 186.1517 0.0000 0.0000 0.0000
# 4 0.0000 0.0000 0.0000 15.5723 0.0000 0.0000
# 5 0.0000 0.0000 0.0000 0.0000 15.5723 0.0000
# 6 0.0000 0.0000 0.0000 0.0000 0.0000 21.8723
#
#
#
# Elastic Compliance Matrix: (Units=1/GPa)
#
#
# Indices 1 2 3 4 5 6 
#
# 1 -0.024541 0.034922 -0.001493 0.000000 0.000000 0.000000
# 2 0.034922 -0.024541 -0.001493 0.000000 0.000000 0.000000
# 3 -0.001493 -0.001493 0.005801 0.000000 0.000000 0.000000
# 4 0.000000 0.000000 0.000000 0.064217 0.000000 0.000000
# 5 0.000000 0.000000 0.000000 0.000000 0.064217 0.000000
# 6 0.000000 0.000000 0.000000 0.000000 0.000000 0.045720
#
#
# Mechanical properties :
#
#
# Convention : Reuss Voigt Hill
#
# Bulk Modulus (GPa) = 48.56243 55.69797 52.13020
# Shear Modulus (GPa) = 67.69365 21.23042 44.46203
#
# Velocity S-wave (km/s) = 5.82085 3.25980 4.71745
# Velocity P-wave (km/s) = 8.33565 6.48433 7.46758
#
# Compressibility (1/GPa) = 0.02059205
#
# Stress axis : x y z
#
# Youngs Moduli (GPa) = -40.74757 -40.74757 172.37659
#
# Poissons Ratio (x) = 1.42299 0.25731
# Poissons Ratio (y) = 1.42299 0.25731
# Poissons Ratio (z) = -0.06082 -0.06082
#
# Static dielectric constant tensor:
#      x y z
#    x 3.440820 0.000000 0.000000 
#    y 0.000000 3.440820 0.000000 
#    z 0.000000 0.000000 6.052930 
# 
# 
# High freq. dielectric constant tensor:
#      x y z
#    x 1.745270 0.000000 0.000000 
#    y 0.000000 1.745270 0.000000 
#    z 0.000000 0.000000 1.814520 
# 
# From -- ./inp_files/1283.got.cif
#   From: 2010.03.12/outbox.cif.g09.slc.cpg/sg141_1_cif.got.tgz:1283.got - 2010.04.03 13:18:35.
