data_PCOD8320342
_publ_section_title
;
Structure prediction by ZEFSAII (Michael W. Deem and Ramdas Pophale) SiO2 
 PCOD8320342
Probable space group: I 4/M C M
;
_chemical_formula_sum "Si O2"
_cell_formula_units_Z 192
_cell_length_a 19.514334
_cell_length_b 19.514334
_cell_length_c 25.280173
_cell_angle_alpha 90.000000
_cell_angle_beta 90.000000
_cell_angle_gamma 90.000000
_cell_volume 9626.923251
_symmetry_space_group_name_H-M "I 4/M C M"
_symmetry_group_IT_number 140
_symmetry_cell_setting 'tetragonal'
loop_
_space_group_symop_operation_xyz
x,y,z
-y,x,z
-x,-y,z
y,-x,z
x,-y,1/2-z
-x,y,1/2-z
y,x,1/2-z
-y,-x,1/2-z
-x,-y,-z
y,-x,-z
x,y,-z
-y,x,-z
-x,y,1/2+z
x,-y,1/2+z
-y,-x,1/2+z
y,x,1/2+z
1/2+x,1/2+y,1/2+z
1/2-y,1/2+x,1/2+z
1/2-x,1/2-y,1/2+z
1/2+y,1/2-x,1/2+z
1/2+x,1/2-y,-z
1/2-x,1/2+y,-z
1/2+y,1/2+x,-z
1/2-y,1/2-x,-z
1/2-x,1/2-y,1/2-z
1/2+y,1/2-x,1/2-z
1/2+x,1/2+y,1/2-z
1/2-y,1/2+x,1/2-z
1/2-x,1/2+y,z
1/2+x,1/2-y,z
1/2-y,1/2-x,z
1/2+y,1/2+x,z
loop_
_atom_site_type_symbol
_atom_site_label
_atom_site_fract_x
_atom_site_fract_y
_atom_site_fract_z
Si Si1 0.098402 0.211933 0.866180
Si Si2 0.714929 0.676558 0.560345
Si Si3 0.889465 0.501266 0.095181
Si Si4 0.419388 0.572162 0.311999
Si Si5 0.259243 0.521750 0.940165
Si Si6 0.162355 0.448855 0.797681
O O1 0.162772 0.222454 0.904880
O O2 0.116546 0.140779 0.837228
O O3 0.089933 0.271721 0.822617
O O4 0.030224 0.202813 0.901178
O O5 0.688514 0.679053 0.500000
O O6 0.789604 0.710397 0.565445
O O7 0.722830 0.598245 0.579558
O O8 0.928960 0.571041 0.078397
O O9 0.821901 0.493284 0.060401
O O10 0.871950 0.504416 0.157392
O O11 0.936049 0.436049 0.084188
O O12 0.404739 0.494180 0.330751
O O13 0.417841 0.582160 0.250000
O O14 0.285332 0.510922 0.000000
O O15 0.183784 0.500000 0.750000
O O16 0.108717 0.391284 0.777300
#
# Coordination Sequence:
#
# PCOD8320342 Si02
#       6
#    32  32  32  32  32  32
#     4  11  21  36  59  82 113 144 190 238 280 331
#     4  10  21  38  59  82 114 156 193 231 288 352
#     4   9  18  33  54  80 111 148 190 237 286 336
#     4   9  19  35  57  81 107 139 177 218 273 334
#     4  10  21  36  56  84 115 150 190 236 286 341
#     4  10  21  35  54  79 109 148 192 238 286 342
#
# _framework density 19.944067
#
# number of rings (size 3 to 8) (size 9 to 14) (size 15 to 20)
#    0.000    2.167    0.000    3.500    2.333    2.833 
#    0.000    0.833    0.000    1.000    0.000    7.000 
#    0.000    0.000    0.000    0.000    0.000    0.000 
#
# Total GULP energy -1190047.101274 kJ/mol
# GULP energy per Si atom -12396.323972 kJ/mol
# Density = 1.989867 g / cm^3
# Si number density = 19.944067 Si / 1000 Ang^3
#
#
#
# Elastic Constant Matrix: (Units=GPa)
#
#
# Indices 1 2 3 4 5 6 
#
# 1 89.1098 18.0336 34.8665 0.0000 0.0000 0.0000
# 2 18.0336 89.1093 34.8669 0.0000 0.0000 0.0000
# 3 34.8665 34.8669 63.2688 0.0000 0.0000 0.0000
# 4 0.0000 0.0000 0.0000 27.5188 0.0000 0.0000
# 5 0.0000 0.0000 0.0000 0.0000 27.5193 0.0000
# 6 0.0000 0.0000 0.0000 0.0000 0.0000 28.5044
#
#
#
# Elastic Compliance Matrix: (Units=1/GPa)
#
#
# Indices 1 2 3 4 5 6 
#
# 1 0.014311 0.000242 -0.008020 0.000000 0.000000 0.000000
# 2 0.000242 0.014311 -0.008020 0.000000 0.000000 0.000000
# 3 -0.008020 -0.008020 0.024645 0.000000 0.000000 0.000000
# 4 0.000000 0.000000 0.000000 0.036339 0.000000 0.000000
# 5 0.000000 0.000000 0.000000 0.000000 0.036338 0.000000
# 6 0.000000 0.000000 0.000000 0.000000 0.000000 0.035082
#
#
# Mechanical properties :
#
#
# Convention : Reuss Voigt Hill
#
# Bulk Modulus (GPa) = 46.14437 46.33575 46.24006
# Shear Modulus (GPa) = 25.01914 26.95657 25.98785
#
# Velocity S-wave (km/s) = 3.54569 3.68041 3.61368
# Velocity P-wave (km/s) = 6.32057 6.42992 6.37548
#
# Compressibility (1/GPa) = 0.02167112
#
# Stress axis : x y z
#
# Youngs Moduli (GPa) = 69.87551 69.87454 40.57608
#
# Poissons Ratio (x) = -0.01690 0.32542
# Poissons Ratio (y) = -0.01690 0.32543
# Poissons Ratio (z) = 0.56040 0.56040
#
# Static dielectric constant tensor:
#      x y z
#    x 3.553450 0.000000 0.000000 
#    y 0.000000 3.553450 0.000000 
#    z 0.000000 0.000000 3.454140 
# 
# 
# High freq. dielectric constant tensor:
#      x y z
#    x 1.775620 0.000000 0.000000 
#    y 0.000000 1.775620 0.000000 
#    z 0.000000 0.000000 1.771300 
# 
# From -- ./inp_files/9753.got.cif
#   From: 2010.06.25/outbox.cif.g09.slc.cpg/sg140_5_cif.got.tgz:9753.got - 2010.06.28 10:53:23.
