data_PCOD8320309
_publ_section_title
;
Structure prediction by ZEFSAII (Michael W. Deem and Ramdas Pophale) SiO2 
 PCOD8320309
Probable space group: I 4/M C M
;
_chemical_formula_sum "Si O2"
_cell_formula_units_Z 176
_cell_length_a 18.442041
_cell_length_b 18.442041
_cell_length_c 28.229862
_cell_angle_alpha 90.000000
_cell_angle_beta 90.000000
_cell_angle_gamma 90.000000
_cell_volume 9601.226641
_symmetry_space_group_name_H-M "I 4/M C M"
_symmetry_group_IT_number 140
_symmetry_cell_setting 'tetragonal'
loop_
_space_group_symop_operation_xyz
x,y,z
-y,x,z
-x,-y,z
y,-x,z
x,-y,1/2-z
-x,y,1/2-z
y,x,1/2-z
-y,-x,1/2-z
-x,-y,-z
y,-x,-z
x,y,-z
-y,x,-z
-x,y,1/2+z
x,-y,1/2+z
-y,-x,1/2+z
y,x,1/2+z
1/2+x,1/2+y,1/2+z
1/2-y,1/2+x,1/2+z
1/2-x,1/2-y,1/2+z
1/2+y,1/2-x,1/2+z
1/2+x,1/2-y,-z
1/2-x,1/2+y,-z
1/2+y,1/2+x,-z
1/2-y,1/2-x,-z
1/2-x,1/2-y,1/2-z
1/2+y,1/2-x,1/2-z
1/2+x,1/2+y,1/2-z
1/2-y,1/2+x,1/2-z
1/2-x,1/2+y,z
1/2+x,1/2-y,z
1/2-y,1/2-x,z
1/2+y,1/2+x,z
loop_
_atom_site_type_symbol
_atom_site_label
_atom_site_fract_x
_atom_site_fract_y
_atom_site_fract_z
Si Si1 0.323896 0.055629 0.293180
Si Si2 0.261606 0.643517 0.888329
Si Si3 0.740652 0.640693 0.053719
Si Si4 0.556021 0.943980 0.444485
Si Si5 0.207238 0.829039 0.800302
Si Si6 0.013505 0.699656 0.605527
O O1 0.388175 0.111825 0.281368
O O2 0.247441 0.094232 0.303812
O O3 0.337233 0.014411 0.342414
O O4 0.317845 0.000000 0.250000
O O5 0.187920 0.687920 0.879436
O O6 0.305629 0.675112 0.932884
O O7 0.313303 0.648635 0.841600
O O8 0.240454 0.562099 0.901323
O O9 0.816817 0.683184 0.057978
O O10 0.741750 0.575948 0.092395
O O11 0.728506 0.612897 0.000000
O O12 0.553340 0.946661 0.500000
O O13 0.635675 0.970698 0.430891
O O14 0.500000 0.000000 0.421156
O O15 0.167877 0.832124 0.750000
O O16 0.266392 0.766392 0.803367
#
# Coordination Sequence:
#
# PCOD8320309 Si02
#       6
#    32  32  32  16  32  32
#     4  11  22  36  55  84 121 160 198 236 294 363
#     4  10  21  36  58  86 116 154 202 253 294 345
#     4  10  20  37  60  84 115 157 202 247 297 352
#     4  11  24  38  56  84 123 168 200 231 296 375
#     4   9  17  33  54  78 111 149 193 243 287 335
#     4  12  21  38  60  86 121 159 198 245 303 358
#
# _framework density 18.330991000000001
#
# number of rings (size 3 to 8) (size 9 to 14) (size 15 to 20)
#    0.000    1.545    3.636    2.182    0.000    4.545 
#    0.000    1.818    0.000    0.545    0.000    1.273 
#    0.000    0.000    0.000    0.000    0.000    0.000 
#
# Total GULP energy -1090820.019835 kJ/mol
# GULP energy per Si atom -12395.682044 kJ/mol
# Density = 1.828927 g / cm^3
# Si number density = 18.330991 Si / 1000 Ang^3
#
#
#
# Elastic Constant Matrix: (Units=GPa)
#
#
# Indices 1 2 3 4 5 6 
#
# 1 88.7196 58.4068 34.9889 0.0000 0.0000 0.0000
# 2 58.4068 88.7199 34.9890 0.0000 0.0000 0.0000
# 3 34.9889 34.9890 117.1060 0.0000 0.0000 0.0000
# 4 0.0000 0.0000 0.0000 24.9018 0.0000 0.0000
# 5 0.0000 0.0000 0.0000 0.0000 24.9017 0.0000
# 6 0.0000 0.0000 0.0000 0.0000 0.0000 21.5065
#
#
#
# Elastic Compliance Matrix: (Units=1/GPa)
#
#
# Indices 1 2 3 4 5 6 
#
# 1 0.020456 -0.012533 -0.002367 0.000000 0.000000 0.000000
# 2 -0.012533 0.020456 -0.002367 0.000000 0.000000 0.000000
# 3 -0.002367 -0.002367 0.009954 0.000000 0.000000 0.000000
# 4 0.000000 0.000000 0.000000 0.040158 0.000000 0.000000
# 5 0.000000 0.000000 0.000000 0.000000 0.040158 0.000000
# 6 0.000000 0.000000 0.000000 0.000000 0.000000 0.046498
#
#
# Mechanical properties :
#
#
# Convention : Reuss Voigt Hill
#
# Bulk Modulus (GPa) = 61.23450 61.25722 61.24586
# Shear Modulus (GPa) = 22.97186 25.33939 24.15563
#
# Velocity S-wave (km/s) = 3.54386 3.72200 3.63402
# Velocity P-wave (km/s) = 7.08679 7.20839 7.14785
#
# Compressibility (1/GPa) = 0.01633066
#
# Stress axis : x y z
#
# Youngs Moduli (GPa) = 48.88542 48.88555 100.46421
#
# Poissons Ratio (x) = 0.61269 0.23781
# Poissons Ratio (y) = 0.61269 0.23782
# Poissons Ratio (z) = 0.11572 0.11572
#
# Static dielectric constant tensor:
#      x y z
#    x 3.269190 0.000000 0.000000 
#    y 0.000000 3.269180 0.000000 
#    z 0.000000 0.000000 3.567550 
# 
# 
# High freq. dielectric constant tensor:
#      x y z
#    x 1.689270 0.000000 0.000000 
#    y 0.000000 1.689270 0.000000 
#    z 0.000000 0.000000 1.729810 
# 
# From -- ./inp_files/10708.got.cif
#   From: 2010.06.25/outbox.cif.g09.slc.cpg/sg140_6_cif.got.tgz:10708.got - 2010.06.28 10:53:23.
