data_PCOD8320501
_publ_section_title
;
Structure prediction by ZEFSAII (Michael W. Deem and Ramdas Pophale) SiO2 
 PCOD8320501
Probable space group: I 4/M C M
;
_chemical_formula_sum "Si O2"
_cell_formula_units_Z 80
_cell_length_a 16.468564
_cell_length_b 16.468564
_cell_length_c 13.938201
_cell_angle_alpha 90.000000
_cell_angle_beta 90.000000
_cell_angle_gamma 90.000000
_cell_volume 3780.229674
_symmetry_space_group_name_H-M "I 4/M C M"
_symmetry_group_IT_number 140
_symmetry_cell_setting 'tetragonal'
loop_
_space_group_symop_operation_xyz
x,y,z
-y,x,z
-x,-y,z
y,-x,z
x,-y,1/2-z
-x,y,1/2-z
y,x,1/2-z
-y,-x,1/2-z
-x,-y,-z
y,-x,-z
x,y,-z
-y,x,-z
-x,y,1/2+z
x,-y,1/2+z
-y,-x,1/2+z
y,x,1/2+z
1/2+x,1/2+y,1/2+z
1/2-y,1/2+x,1/2+z
1/2-x,1/2-y,1/2+z
1/2+y,1/2-x,1/2+z
1/2+x,1/2-y,-z
1/2-x,1/2+y,-z
1/2+y,1/2+x,-z
1/2-y,1/2-x,-z
1/2-x,1/2-y,1/2-z
1/2+y,1/2-x,1/2-z
1/2+x,1/2+y,1/2-z
1/2-y,1/2+x,1/2-z
1/2-x,1/2+y,z
1/2+x,1/2-y,z
1/2-y,1/2-x,z
1/2+y,1/2+x,z
loop_
_atom_site_type_symbol
_atom_site_label
_atom_site_fract_x
_atom_site_fract_y
_atom_site_fract_z
Si Si1 0.431860 0.068141 0.388931
Si Si2 0.697792 0.000000 0.250000
Si Si3 0.350357 0.277916 0.842953
Si Si4 0.092245 0.100933 0.500000
O O1 0.412434 0.087567 0.500000
O O2 0.351979 0.041438 0.334628
O O3 0.500000 0.000000 0.379201
O O4 0.750135 0.938308 0.189244
O O5 0.303438 0.303438 0.750000
O O6 0.296212 0.203789 0.890055
O O7 0.364756 0.355444 0.910393
O O8 0.994662 0.113544 0.500000
#
# Coordination Sequence:
#
# PCOD8320501 Si02
#       4
#    16  16  32  16
#     4  11  22  38  63  96 132 178 222 269 328 403
#     4  12  21  44  64  97 138 174 224 272 334 411
#     4  11  24  43  67  99 136 176 219 284 346 408
#     4  11  25  46  70  98 130 178 239 283 336 411
#
# _framework density 21.162735999999999
#
# number of rings (size 3 to 8) (size 9 to 14) (size 15 to 20)
#    0.000    0.800    4.000    3.000    2.800    0.000 
#    3.600    2.000    0.000    0.000    0.000    0.000 
#    0.000    0.000    0.000    0.000    0.000    0.000 
#
# Total GULP energy -495707.822639 kJ/mol
# GULP energy per Si atom -12392.695566 kJ/mol
# Density = 2.111457 g / cm^3
# Si number density = 21.162736 Si / 1000 Ang^3
#
#
#
# Elastic Constant Matrix: (Units=GPa)
#
#
# Indices 1 2 3 4 5 6 
#
# 1 95.9966 26.0526 21.2687 0.0000 0.0000 0.0000
# 2 26.0526 95.9966 21.2688 0.0000 0.0000 0.0000
# 3 21.2687 21.2688 112.8270 0.0000 0.0000 0.0000
# 4 0.0000 0.0000 0.0000 29.2083 0.0000 0.0000
# 5 0.0000 0.0000 0.0000 0.0000 29.2090 0.0000
# 6 0.0000 0.0000 0.0000 0.0000 0.0000 49.2887
#
#
#
# Elastic Compliance Matrix: (Units=1/GPa)
#
#
# Indices 1 2 3 4 5 6 
#
# 1 0.011533 -0.002764 -0.001653 0.000000 0.000000 0.000000
# 2 -0.002764 0.011533 -0.001653 0.000000 0.000000 0.000000
# 3 -0.001653 -0.001653 0.009486 0.000000 0.000000 0.000000
# 4 0.000000 0.000000 0.000000 0.034237 0.000000 0.000000
# 5 0.000000 0.000000 0.000000 0.000000 0.034236 0.000000
# 6 0.000000 0.000000 0.000000 0.000000 0.000000 0.020289
#
#
# Mechanical properties :
#
#
# Convention : Reuss Voigt Hill
#
# Bulk Modulus (GPa) = 48.98837 49.11117 49.04977
# Shear Modulus (GPa) = 35.64831 37.28985 36.46908
#
# Velocity S-wave (km/s) = 4.10870 4.20223 4.15573
# Velocity P-wave (km/s) = 6.76071 6.84119 6.80107
#
# Compressibility (1/GPa) = 0.02041301
#
# Stress axis : x y z
#
# Youngs Moduli (GPa) = 86.70494 86.70489 105.41427
#
# Poissons Ratio (x) = 0.23963 0.17426
# Poissons Ratio (y) = 0.23963 0.17426
# Poissons Ratio (z) = 0.14333 0.14334
#
# Static dielectric constant tensor:
#      x y z
#    x 3.896500 0.000000 0.000000 
#    y 0.000000 3.896490 0.000000 
#    z 0.000000 0.000000 3.973260 
# 
# 
# High freq. dielectric constant tensor:
#      x y z
#    x 1.841290 0.000000 0.000000 
#    y 0.000000 1.841290 0.000000 
#    z 0.000000 0.000000 1.835370 
# 
# From -- ./inp_files/3909.got.cif
#   From: 2010.06.25/outbox.cif.g09.slc.cpg/sg140_2_cif.got.tgz:3909.got - 2010.06.28 10:53:23.
