data_PCOD8320662
_publ_section_title
;
Structure prediction by ZEFSAII (Michael W. Deem and Ramdas Pophale) SiO2 
 PCOD8320662
Probable space group: I 41/A M D
;
_chemical_formula_sum "Si O2"
_cell_formula_units_Z 192
_cell_length_a 18.960028
_cell_length_b 18.960028
_cell_length_c 25.591188
_cell_angle_alpha 90.000000
_cell_angle_beta 90.000000
_cell_angle_gamma 90.000000
_cell_volume 9199.588380
_symmetry_space_group_name_H-M "I 41/A M D"
_symmetry_group_IT_number 141
_space_group.IT_coordinate_system_code '2'
_symmetry_cell_setting 'tetragonal'
loop_
_space_group_symop_operation_xyz
x,y,z
1/4-y,3/4+x,1/4+z
-x,1/2-y,z
1/4+y,1/4-x,3/4+z
x,-y,-z
-x,1/2+y,-z
1/4+y,3/4+x,1/4-z
1/4-y,1/4-x,3/4-z
-x,-y,-z
3/4+y,1/4-x,3/4-z
x,1/2+y,-z
3/4-y,3/4+x,1/4-z
-x,y,z
x,1/2-y,z
3/4-y,1/4-x,3/4+z
3/4+y,3/4+x,1/4+z
1/2+x,1/2+y,1/2+z
3/4-y,1/4+x,3/4+z
1/2-x,-y,1/2+z
3/4+y,3/4-x,1/4+z
1/2+x,1/2-y,1/2-z
1/2-x,y,1/2-z
3/4+y,1/4+x,3/4-z
3/4-y,3/4-x,1/4-z
1/2-x,1/2-y,1/2-z
1/4+y,3/4-x,1/4-z
1/2+x,y,1/2-z
1/4-y,1/4+x,3/4-z
1/2-x,1/2+y,1/2+z
1/2+x,-y,1/2+z
1/4-y,3/4-x,1/4+z
1/4+y,1/4+x,3/4+z
loop_
_atom_site_type_symbol
_atom_site_label
_atom_site_fract_x
_atom_site_fract_y
_atom_site_fract_z
Si Si1 0.883909 0.133909 0.875000
Si Si2 0.721966 0.668883 0.113218
Si Si3 0.788585 0.109604 0.099645
Si Si4 0.794110 0.585110 0.698747
Si Si5 0.080632 0.114877 0.234917
Si Si6 0.000000 0.671263 0.207456
Si Si7 0.917676 0.250000 0.169074
Si Si8 0.334868 0.250000 0.437741
O O1 0.800669 0.147817 0.870017
O O2 0.909752 0.178479 0.924649
O O3 0.706933 0.750000 0.129692
O O4 0.667607 0.618402 0.143532
O O5 0.706044 0.660181 0.050927
O O6 0.746458 0.049068 0.068594
O O7 0.746174 0.127653 0.153300
O O8 0.786870 0.180416 0.065269
O O9 0.750000 0.592081 0.750000
O O10 0.872801 0.613054 0.712196
O O11 0.107005 0.180713 0.200064
O O12 0.000000 0.124657 0.252749
O O13 0.000000 0.750000 0.228962
O O14 0.000000 0.621006 0.256554
O O15 0.886640 0.250000 0.111383
O O16 0.000000 0.250000 0.161220
#
# Coordination Sequence:
#
# PCOD8320662 Si02
#       8
#    16  32  32  32  32  16  16  16
#     4  12  23  44  66  96 130 180 226 273 334 402
#     4  11  22  39  66  92 129 176 216 277 328 398
#     4  11  26  40  62  99 132 168 228 276 342 408
#     4  11  22  42  63  92 132 176 218 283 337 407
#     4  10  22  38  69  97 127 177 226 270 339 416
#     4  12  25  44  67  97 133 177 233 281 344 408
#     4  10  19  41  63  94 129 164 220 276 321 398
#     4  12  25  39  66  97 130 179 215 289 346 396
#
# _framework density 20.870498999999999
#
# number of rings (size 3 to 8) (size 9 to 14) (size 15 to 20)
#    0.000    1.000    5.000    1.250    3.500    1.333 
#    0.000    1.667    0.000    2.500    0.000    0.000 
#    0.000    0.000    0.000    0.000    0.000    0.000 
#
# Total GULP energy -1190038.593324 kJ/mol
# GULP energy per Si atom -12396.235347 kJ/mol
# Density = 2.082300 g / cm^3
# Si number density = 20.870499 Si / 1000 Ang^3
#
#
#
# Elastic Constant Matrix: (Units=GPa)
#
#
# Indices 1 2 3 4 5 6 
#
# 1 109.9215 37.5668 41.5747 0.0000 0.0000 0.0000
# 2 37.5668 109.9215 41.5747 0.0000 0.0000 0.0000
# 3 41.5747 41.5747 92.5765 0.0000 0.0000 0.0000
# 4 0.0000 0.0000 0.0000 22.6540 0.0000 0.0000
# 5 0.0000 0.0000 0.0000 0.0000 22.6540 0.0000
# 6 0.0000 0.0000 0.0000 0.0000 0.0000 29.5908
#
#
#
# Elastic Compliance Matrix: (Units=1/GPa)
#
#
# Indices 1 2 3 4 5 6 
#
# 1 0.011450 -0.002371 -0.004077 0.000000 0.000000 0.000000
# 2 -0.002371 0.011450 -0.004077 0.000000 0.000000 0.000000
# 3 -0.004077 -0.004077 0.014464 0.000000 0.000000 0.000000
# 4 0.000000 0.000000 0.000000 0.044142 0.000000 0.000000
# 5 0.000000 0.000000 0.000000 0.000000 0.044142 0.000000
# 6 0.000000 0.000000 0.000000 0.000000 0.000000 0.033794
#
#
# Mechanical properties :
#
#
# Convention : Reuss Voigt Hill
#
# Bulk Modulus (GPa) = 61.30145 61.53909 61.42027
# Shear Modulus (GPa) = 26.89180 27.76001 27.32591
#
# Velocity S-wave (km/s) = 3.59347 3.65102 3.62236
# Velocity P-wave (km/s) = 6.83033 6.87920 6.85481
#
# Compressibility (1/GPa) = 0.01631283
#
# Stress axis : x y z
#
# Youngs Moduli (GPa) = 87.33793 87.33793 69.13794
#
# Poissons Ratio (x) = 0.20708 0.28188
# Poissons Ratio (y) = 0.20708 0.28188
# Poissons Ratio (z) = 0.35609 0.35609
#
# Static dielectric constant tensor:
#      x y z
#    x 4.262600 0.000000 0.000000 
#    y 0.000000 4.262600 0.000000 
#    z 0.000000 0.000000 3.867430 
# 
# 
# High freq. dielectric constant tensor:
#      x y z
#    x 1.826040 0.000000 0.000000 
#    y 0.000000 1.826040 0.000000 
#    z 0.000000 0.000000 1.802420 
# 
# From -- ./inp_files/11804.got.cif
#   From: 2010.03.12/outbox.cif.g09.slc.cpg/sg141_6_cif.got.tgz:11804.got - 2010.04.03 13:18:35.
