data_PCOD8320972
_publ_section_title
;
Structure prediction by ZEFSAII (Michael W. Deem and Ramdas Pophale) SiO2 
 PCOD8320972
Probable space group: I 41/A C D
;
_chemical_formula_sum "Si O2"
_cell_formula_units_Z 216
_cell_length_a 22.784031
_cell_length_b 22.784031
_cell_length_c 22.558963
_cell_angle_alpha 90.000000
_cell_angle_beta 90.000000
_cell_angle_gamma 90.000000
_cell_volume 11710.629949
_symmetry_space_group_name_H-M "I 41/A C D"
_symmetry_group_IT_number 142
_space_group.IT_coordinate_system_code '2'
_symmetry_cell_setting 'tetragonal'
loop_
_space_group_symop_operation_xyz
x,y,z
1/4-y,3/4+x,1/4+z
-x,1/2-y,z
1/4+y,1/4-x,3/4+z
x,-y,1/2-z
1/2-x,y,-z
3/4+y,1/4+x,1/4-z
1/4-y,1/4-x,1/4-z
-x,-y,-z
3/4+y,1/4-x,3/4-z
x,1/2+y,-z
3/4-y,3/4+x,1/4-z
-x,y,1/2+z
1/2+x,-y,z
1/4-y,3/4-x,3/4+z
3/4+y,3/4+x,3/4+z
1/2+x,1/2+y,1/2+z
3/4-y,1/4+x,3/4+z
1/2-x,-y,1/2+z
3/4+y,3/4-x,1/4+z
1/2+x,1/2-y,-z
-x,1/2+y,1/2-z
1/4+y,3/4+x,3/4-z
3/4-y,3/4-x,3/4-z
1/2-x,1/2-y,1/2-z
1/4+y,3/4-x,1/4-z
1/2+x,y,1/2-z
1/4-y,1/4+x,3/4-z
1/2-x,1/2+y,z
x,1/2-y,1/2+z
3/4-y,1/4-x,1/4+z
1/4+y,1/4+x,1/4+z
loop_
_atom_site_type_symbol
_atom_site_label
_atom_site_fract_x
_atom_site_fract_y
_atom_site_fract_z
Si Si1 0.751549 0.879737 0.562388
Si Si2 0.455871 0.863149 0.919557
Si Si3 0.634566 0.384566 0.375000
Si Si4 0.175172 0.789197 0.790915
Si Si5 0.000000 0.250000 0.875000
Si Si6 0.793130 0.663833 0.262496
Si Si7 0.156052 0.829274 0.143223
Si Si8 0.757939 0.460046 0.193256
O O1 0.750000 0.844771 0.500000
O O2 0.684556 0.895547 0.576517
O O3 0.781340 0.840274 0.612432
O O4 0.790325 0.938025 0.552070
O O5 0.469103 0.794255 0.919978
O O6 0.394400 0.870607 0.884833
O O7 0.509053 0.896976 0.886768
O O8 0.449884 0.881799 0.986697
O O9 0.569711 0.393430 0.402954
O O10 0.187052 0.719583 0.803162
O O11 0.235746 0.820502 0.775285
O O12 0.842563 0.652596 0.212441
O O13 0.783670 0.605836 0.301369
O O14 0.781901 0.500000 0.250000
O O15 0.770849 0.479152 0.125000
#
# Coordination Sequence:
#
# PCOD8320972 Si02
#       8
#    32  32  16  32   8  32  32  32
#     4  11  21  32  53  81 110 139 182 234 281 338
#     4   9  18  32  55  80 105 142 181 235 280 343
#     4  12  20  36  54  79 110 144 188 235 282 330
#     4  10  20  34  56  79 108 148 187 234 286 346
#     4   8  16  32  56  78 104 132 184 232 268 326
#     4  10  20  35  56  80 110 151 188 228 291 356
#     4  10  18  33  54  80 109 141 186 231 289 337
#     4  11  21  35  58  85 115 150 192 235 288 350
#
# _framework density 18.444780000000002
#
# number of rings (size 3 to 8) (size 9 to 14) (size 15 to 20)
#    0.000    1.778    2.222    4.444    0.000    0.000 
#    0.000    0.000   16.296    0.000    0.000    0.000 
#    0.000    0.000    0.000    0.000    0.000    0.000 
#
# Total GULP energy -1338107.808599 kJ/mol
# GULP energy per Si atom -12389.887117 kJ/mol
# Density = 1.840280 g / cm^3
# Si number density = 18.444780 Si / 1000 Ang^3
#
#
#
# Elastic Constant Matrix: (Units=GPa)
#
#
# Indices 1 2 3 4 5 6 
#
# 1 202.9548 -93.8188 37.3533 0.0000 0.0000 0.0000
# 2 -93.8188 202.9464 37.3504 0.0000 0.0000 0.0000
# 3 37.3533 37.3504 100.0133 0.0000 0.0000 0.0000
# 4 0.0000 0.0000 0.0000 30.9116 0.0000 0.0000
# 5 0.0000 0.0000 0.0000 0.0000 30.9118 0.0000
# 6 0.0000 0.0000 0.0000 0.0000 0.0000 23.3902
#
#
#
# Elastic Compliance Matrix: (Units=1/GPa)
#
#
# Indices 1 2 3 4 5 6 
#
# 1 0.007840 0.004470 -0.004598 0.000000 0.000000 0.000000
# 2 0.004470 0.007840 -0.004598 0.000000 0.000000 0.000000
# 3 -0.004598 -0.004598 0.013433 0.000000 0.000000 0.000000
# 4 0.000000 0.000000 0.000000 0.032350 0.000000 0.000000
# 5 0.000000 0.000000 0.000000 0.000000 0.032350 0.000000
# 6 0.000000 0.000000 0.000000 0.000000 0.000000 0.042753
#
#
# Mechanical properties :
#
#
# Convention : Reuss Voigt Hill
#
# Bulk Modulus (GPa) = 50.85608 51.96492 51.41050
# Shear Modulus (GPa) = 32.77186 52.04470 42.40828
#
# Velocity S-wave (km/s) = 4.21973 5.31768 4.80020
# Velocity P-wave (km/s) = 7.16753 8.12023 7.65870
#
# Compressibility (1/GPa) = 0.01966333
#
# Stress axis : x y z
#
# Youngs Moduli (GPa) = 127.55318 127.54902 74.44499
#
# Poissons Ratio (x) = -0.57019 0.34226
# Poissons Ratio (y) = -0.57021 0.34226
# Poissons Ratio (z) = 0.58643 0.58641
#
# Static dielectric constant tensor:
#      x y z
#    x 3.460060 0.000000 0.000000 
#    y 0.000000 3.460060 0.000000 
#    z 0.000000 0.000000 3.493610 
# 
# 
# High freq. dielectric constant tensor:
#      x y z
#    x 1.708850 0.000000 0.000000 
#    y 0.000000 1.708850 0.000000 
#    z 0.000000 0.000000 1.707220 
# 
# From -- ./inp_files/9267.got.cif
#   From: 2010.03.12/outbox.cif.g09.slc.cpg/sg142_5_cif.got.tgz:9267.got - 2010.04.03 13:27:16.
