data_PCOD8320707
_publ_section_title
;
Structure prediction by ZEFSAII (Michael W. Deem and Ramdas Pophale) SiO2 
 PCOD8320707
Probable space group: I 41/A M D
;
_chemical_formula_sum "Si O2"
_cell_formula_units_Z 144
_cell_length_a 17.513081
_cell_length_b 17.513081
_cell_length_c 25.176662
_cell_angle_alpha 90.000000
_cell_angle_beta 90.000000
_cell_angle_gamma 90.000000
_cell_volume 7721.883803
_symmetry_space_group_name_H-M "I 41/A M D"
_symmetry_group_IT_number 141
_space_group.IT_coordinate_system_code '2'
_symmetry_cell_setting 'tetragonal'
loop_
_space_group_symop_operation_xyz
x,y,z
1/4-y,3/4+x,1/4+z
-x,1/2-y,z
1/4+y,1/4-x,3/4+z
x,-y,-z
-x,1/2+y,-z
1/4+y,3/4+x,1/4-z
1/4-y,1/4-x,3/4-z
-x,-y,-z
3/4+y,1/4-x,3/4-z
x,1/2+y,-z
3/4-y,3/4+x,1/4-z
-x,y,z
x,1/2-y,z
3/4-y,1/4-x,3/4+z
3/4+y,3/4+x,1/4+z
1/2+x,1/2+y,1/2+z
3/4-y,1/4+x,3/4+z
1/2-x,-y,1/2+z
3/4+y,3/4-x,1/4+z
1/2+x,1/2-y,1/2-z
1/2-x,y,1/2-z
3/4+y,1/4+x,3/4-z
3/4-y,3/4-x,1/4-z
1/2-x,1/2-y,1/2-z
1/4+y,3/4-x,1/4-z
1/2+x,y,1/2-z
1/4-y,1/4+x,3/4-z
1/2-x,1/2+y,1/2+z
1/2+x,-y,1/2+z
1/4-y,3/4-x,1/4+z
1/4+y,1/4+x,3/4+z
loop_
_atom_site_type_symbol
_atom_site_label
_atom_site_fract_x
_atom_site_fract_y
_atom_site_fract_z
Si Si1 0.087447 0.837447 0.125000
Si Si2 0.283171 0.404052 0.693412
Si Si3 0.911514 0.071804 0.415015
Si Si4 0.412568 0.335403 0.982011
Si Si5 0.327635 0.562835 0.657596
O O1 0.100147 0.750000 0.106407
O O2 0.104539 0.893432 0.075046
O O3 0.250000 0.376166 0.750000
O O4 0.308933 0.492179 0.696463
O O5 0.216088 0.395832 0.650018
O O6 0.889332 0.139332 0.375000
O O7 0.892964 0.101558 0.473911
O O8 0.000000 0.052522 0.408631
O O9 0.864952 0.996505 0.401414
O O10 0.500000 0.342626 0.964269
O O11 0.395126 0.250000 0.002975
O O12 0.360613 0.352334 0.931119
#
# Coordination Sequence:
#
# PCOD8320707 Si02
#       5
#    16  32  32  32  32
#     4   9  20  40  62  86 116 148 181 222 280 338
#     4  10  21  38  60  84 113 141 186 235 277 332
#     4  11  20  33  51  77 111 150 189 229 270 320
#     4  10  21  35  52  77 111 149 187 227 275 330
#     4  10  20  35  57  78 108 145 185 230 280 330
#
# _framework density 18.648299000000002
#
# number of rings (size 3 to 8) (size 9 to 14) (size 15 to 20)
#    0.000    2.111    2.222    3.333    0.000    6.889 
#    0.000    2.222    0.000    2.667    0.000    0.000 
#    0.000    0.000    0.000    0.000    0.000    0.000 
#
# Total GULP energy -892746.102809 kJ/mol
# GULP energy per Si atom -12399.251428 kJ/mol
# Density = 1.860585 g / cm^3
# Si number density = 18.648299 Si / 1000 Ang^3
#
#
#
# Elastic Constant Matrix: (Units=GPa)
#
#
# Indices 1 2 3 4 5 6 
#
# 1 96.2226 58.6429 50.2321 0.0000 0.0000 0.0000
# 2 58.6429 96.2226 50.2321 0.0000 0.0000 0.0000
# 3 50.2321 50.2321 108.3561 0.0000 0.0000 0.0000
# 4 0.0000 0.0000 0.0000 21.4667 0.0000 0.0000
# 5 0.0000 0.0000 0.0000 0.0000 21.4667 0.0000
# 6 0.0000 0.0000 0.0000 0.0000 0.0000 35.8026
#
#
#
# Elastic Compliance Matrix: (Units=1/GPa)
#
#
# Indices 1 2 3 4 5 6 
#
# 1 0.017922 -0.008688 -0.004281 0.000000 0.000000 0.000000
# 2 -0.008688 0.017922 -0.004281 0.000000 0.000000 0.000000
# 3 -0.004281 -0.004281 0.013198 0.000000 0.000000 0.000000
# 4 0.000000 0.000000 0.000000 0.046584 0.000000 0.000000
# 5 0.000000 0.000000 0.000000 0.000000 0.046584 0.000000
# 6 0.000000 0.000000 0.000000 0.000000 0.000000 0.027931
#
#
# Mechanical properties :
#
#
# Convention : Reuss Voigt Hill
#
# Bulk Modulus (GPa) = 68.76143 68.77948 68.77045
# Shear Modulus (GPa) = 23.86777 25.19351 24.53064
#
# Velocity S-wave (km/s) = 3.58144 3.67956 3.63083
# Velocity P-wave (km/s) = 7.35221 7.41719 7.38477
#
# Compressibility (1/GPa) = 0.01454304
#
# Stress axis : x y z
#
# Youngs Moduli (GPa) = 55.79668 55.79668 75.76960
#
# Poissons Ratio (x) = 0.48476 0.32436
# Poissons Ratio (y) = 0.48476 0.32436
# Poissons Ratio (z) = 0.23886 0.23886
#
# Static dielectric constant tensor:
#      x y z
#    x 3.541140 0.000000 0.000000 
#    y 0.000000 3.541140 0.000000 
#    z 0.000000 0.000000 3.282560 
# 
# 
# High freq. dielectric constant tensor:
#      x y z
#    x 1.727690 0.000000 0.000000 
#    y 0.000000 1.727690 0.000000 
#    z 0.000000 0.000000 1.705860 
# 
# From -- ./inp_files/12636.got.cif
#   From: 2010.03.12/outbox.cif.g09.slc.cpg/sg141_7_cif.got.tgz:12636.got - 2010.04.03 13:18:35.
