data_PCOD8320386
_publ_section_title
;
Structure prediction by ZEFSAII (Michael W. Deem and Ramdas Pophale) SiO2 
 PCOD8320386
Probable space group: I 4/M C M
;
_chemical_formula_sum "Si O2"
_cell_formula_units_Z 96
_cell_length_a 24.015872
_cell_length_b 24.015872
_cell_length_c 8.537015
_cell_angle_alpha 90.000000
_cell_angle_beta 90.000000
_cell_angle_gamma 90.000000
_cell_volume 4923.826767
_symmetry_space_group_name_H-M "I 4/M C M"
_symmetry_group_IT_number 140
_symmetry_cell_setting 'tetragonal'
loop_
_space_group_symop_operation_xyz
x,y,z
-y,x,z
-x,-y,z
y,-x,z
x,-y,1/2-z
-x,y,1/2-z
y,x,1/2-z
-y,-x,1/2-z
-x,-y,-z
y,-x,-z
x,y,-z
-y,x,-z
-x,y,1/2+z
x,-y,1/2+z
-y,-x,1/2+z
y,x,1/2+z
1/2+x,1/2+y,1/2+z
1/2-y,1/2+x,1/2+z
1/2-x,1/2-y,1/2+z
1/2+y,1/2-x,1/2+z
1/2+x,1/2-y,-z
1/2-x,1/2+y,-z
1/2+y,1/2+x,-z
1/2-y,1/2-x,-z
1/2-x,1/2-y,1/2-z
1/2+y,1/2-x,1/2-z
1/2+x,1/2+y,1/2-z
1/2-y,1/2+x,1/2-z
1/2-x,1/2+y,z
1/2+x,1/2-y,z
1/2-y,1/2-x,z
1/2+y,1/2+x,z
loop_
_atom_site_type_symbol
_atom_site_label
_atom_site_fract_x
_atom_site_fract_y
_atom_site_fract_z
Si Si1 0.143582 0.941933 0.183794
Si Si2 0.643326 0.143326 0.318576
Si Si3 0.728724 0.940401 0.684329
Si Si4 0.559436 0.940565 0.312021
O O1 0.109397 0.890604 0.250000
O O2 0.207369 0.933864 0.236281
O O3 0.119895 0.000000 0.250000
O O4 0.137319 0.943230 0.000000
O O5 0.654644 0.154644 0.500000
O O6 0.699245 0.116494 0.244529
O O7 0.597865 0.097865 0.287845
O O8 0.720125 0.943020 0.500000
O O9 0.705483 0.000000 0.750000
O O10 0.500000 0.923397 0.250000
O O11 0.565155 0.934846 0.500000
#
# Coordination Sequence:
#
# PCOD8320386 Si02
#       4
#    32  16  32  16
#     4  10  21  38  62  89 119 150 184 225 275 332
#     4  12  23  35  53  77 105 143 189 233 276 330
#     4  10  21  38  58  82 112 148 188 234 283 333
#     4  11  21  34  49  69  99 133 174 227 284 337
#
# _framework density 19.497029999999999
#
# number of rings (size 3 to 8) (size 9 to 14) (size 15 to 20)
#    0.000    1.500    0.000    6.500    0.000    4.333 
#    0.000    2.500    0.000    0.000    0.000    0.000 
#    0.000    0.000    0.000    0.000    0.000    0.000 
#
# Total GULP energy -594859.447424 kJ/mol
# GULP energy per Si atom -12392.905155 kJ/mol
# Density = 1.945265 g / cm^3
# Si number density = 19.497030 Si / 1000 Ang^3
#
#
#
# Elastic Constant Matrix: (Units=GPa)
#
#
# Indices 1 2 3 4 5 6 
#
# 1 101.8032 58.5803 36.7972 0.0000 0.0000 0.0000
# 2 58.5803 101.8160 36.7918 0.0000 0.0000 0.0000
# 3 36.7972 36.7918 80.5013 0.0000 0.0000 0.0000
# 4 0.0000 0.0000 0.0000 33.5437 0.0000 0.0000
# 5 0.0000 0.0000 0.0000 0.0000 33.5432 0.0000
# 6 0.0000 0.0000 0.0000 0.0000 0.0000 40.5982
#
#
#
# Elastic Compliance Matrix: (Units=1/GPa)
#
#
# Indices 1 2 3 4 5 6 
#
# 1 0.015512 -0.007622 -0.003607 0.000000 0.000000 0.000000
# 2 -0.007622 0.015509 -0.003604 0.000000 0.000000 0.000000
# 3 -0.003607 -0.003604 0.015718 0.000000 0.000000 0.000000
# 4 0.000000 0.000000 0.000000 0.029812 0.000000 0.000000
# 5 0.000000 0.000000 0.000000 0.000000 0.029812 0.000000
# 6 0.000000 0.000000 0.000000 0.000000 0.000000 0.024632
#
#
# Mechanical properties :
#
#
# Convention : Reuss Voigt Hill
#
# Bulk Modulus (GPa) = 58.57105 60.93991 59.75548
# Shear Modulus (GPa) = 30.05638 31.66709 30.86174
#
# Velocity S-wave (km/s) = 3.93057 4.03451 3.98288
# Velocity P-wave (km/s) = 7.12077 7.28196 7.20181
#
# Compressibility (1/GPa) = 0.01707328
#
# Stress axis : x y z
#
# Youngs Moduli (GPa) = 64.46420 64.47763 63.61948
#
# Poissons Ratio (x) = 0.49142 0.22950
# Poissons Ratio (y) = 0.49132 0.22931
# Poissons Ratio (z) = 0.23255 0.23240
#
# Static dielectric constant tensor:
#      x y z
#    x 3.694570 0.000000 0.000000 
#    y 0.000000 3.694590 0.000000 
#    z 0.000000 0.000000 3.658470 
# 
# 
# High freq. dielectric constant tensor:
#      x y z
#    x 1.757370 0.000000 0.000000 
#    y 0.000000 1.757370 0.000000 
#    z 0.000000 0.000000 1.775280 
# 
# From -- ./inp_files/943.got.cif
#   From: 2010.06.25/outbox.cif.g09.slc.cpg/sg140_1_cif.got.tgz:943.got - 2010.06.28 10:53:23.
