data_PCOD8320447
_publ_section_title
;
Structure prediction by ZEFSAII (Michael W. Deem and Ramdas Pophale) SiO2 
 PCOD8320447
Probable space group: I 4/M C M
;
_chemical_formula_sum "Si O2"
_cell_formula_units_Z 160
_cell_length_a 21.990825
_cell_length_b 21.990825
_cell_length_c 15.051086
_cell_angle_alpha 90.000000
_cell_angle_beta 90.000000
_cell_angle_gamma 90.000000
_cell_volume 7278.650768
_symmetry_space_group_name_H-M "I 4/M C M"
_symmetry_group_IT_number 140
_symmetry_cell_setting 'tetragonal'
loop_
_space_group_symop_operation_xyz
x,y,z
-y,x,z
-x,-y,z
y,-x,z
x,-y,1/2-z
-x,y,1/2-z
y,x,1/2-z
-y,-x,1/2-z
-x,-y,-z
y,-x,-z
x,y,-z
-y,x,-z
-x,y,1/2+z
x,-y,1/2+z
-y,-x,1/2+z
y,x,1/2+z
1/2+x,1/2+y,1/2+z
1/2-y,1/2+x,1/2+z
1/2-x,1/2-y,1/2+z
1/2+y,1/2-x,1/2+z
1/2+x,1/2-y,-z
1/2-x,1/2+y,-z
1/2+y,1/2+x,-z
1/2-y,1/2-x,-z
1/2-x,1/2-y,1/2-z
1/2+y,1/2-x,1/2-z
1/2+x,1/2+y,1/2-z
1/2-y,1/2+x,1/2-z
1/2-x,1/2+y,z
1/2+x,1/2-y,z
1/2-y,1/2-x,z
1/2+y,1/2+x,z
loop_
_atom_site_type_symbol
_atom_site_label
_atom_site_fract_x
_atom_site_fract_y
_atom_site_fract_z
Si Si1 0.018096 0.820396 0.096924
Si Si2 0.641483 0.954298 0.000000
Si Si3 0.763151 0.361332 0.334477
Si Si4 0.183616 0.415446 0.000000
Si Si5 0.796928 0.550692 0.312697
Si Si6 0.893608 0.871739 0.846454
O O1 0.021884 0.769368 0.171739
O O2 0.080202 0.859043 0.092046
O O3 0.960578 0.862862 0.114930
O O4 0.010433 0.788843 0.000000
O O5 0.672728 0.932934 0.092583
O O6 0.573753 0.926248 0.000000
O O7 0.639261 0.026843 0.000000
O O8 0.796393 0.296393 0.352062
O O9 0.776252 0.412368 0.410654
O O10 0.788767 0.386769 0.241306
O O11 0.690510 0.353654 0.337685
O O12 0.143854 0.356147 0.000000
O O13 0.831664 0.500000 0.250000
O O14 0.901226 0.901226 0.750000
#
# Coordination Sequence:
#
# PCOD8320447 Si02
#       6
#    32  16  32  16  32  32
#     4  12  25  43  69  96 137 179 225 283 339 409
#     4  12  24  39  65  99 136 174 224 286 336 400
#     4  11  24  43  70 101 135 176 228 281 336 404
#     4  10  22  41  67  95 130 180 226 272 337 409
#     4  12  21  42  69  95 132 180 225 276 339 408
#     4  12  24  43  68  98 131 177 227 272 343 400
#
# _framework density 21.982097
#
# number of rings (size 3 to 8) (size 9 to 14) (size 15 to 20)
#    0.000    0.400    7.000    1.800    2.800    1.000 
#    0.000    2.000    0.000    0.000    0.000    0.000 
#    0.000    0.000    0.000    0.000    0.000    0.000 
#
# Total GULP energy -991823.195969 kJ/mol
# GULP energy per Si atom -12397.789950 kJ/mol
# Density = 2.193206 g / cm^3
# Si number density = 21.982097 Si / 1000 Ang^3
#
#
#
# Elastic Constant Matrix: (Units=GPa)
#
#
# Indices 1 2 3 4 5 6 
#
# 1 80.8019 24.4199 25.4625 0.0000 0.0000 0.0000
# 2 24.4199 80.8030 25.4623 0.0000 0.0000 0.0000
# 3 25.4625 25.4623 150.9219 0.0000 0.0000 0.0000
# 4 0.0000 0.0000 0.0000 28.3728 0.0000 0.0000
# 5 0.0000 0.0000 0.0000 0.0000 28.3738 0.0000
# 6 0.0000 0.0000 0.0000 0.0000 0.0000 32.8652
#
#
#
# Elastic Compliance Matrix: (Units=1/GPa)
#
#
# Indices 1 2 3 4 5 6 
#
# 1 0.014042 -0.003694 -0.001746 0.000000 0.000000 0.000000
# 2 -0.003694 0.014042 -0.001746 0.000000 0.000000 0.000000
# 3 -0.001746 -0.001746 0.007215 0.000000 0.000000 0.000000
# 4 0.000000 0.000000 0.000000 0.035245 0.000000 0.000000
# 5 0.000000 0.000000 0.000000 0.000000 0.035244 0.000000
# 6 0.000000 0.000000 0.000000 0.000000 0.000000 0.030427
#
#
# Mechanical properties :
#
#
# Convention : Reuss Voigt Hill
#
# Bulk Modulus (GPa) = 47.78145 51.46847 49.62496
# Shear Modulus (GPa) = 31.73331 33.73450 32.73390
#
# Velocity S-wave (km/s) = 3.80359 3.92169 3.86309
# Velocity P-wave (km/s) = 6.40886 6.63105 6.52090
#
# Compressibility (1/GPa) = 0.02092862
#
# Stress axis : x y z
#
# Youngs Moduli (GPa) = 71.21273 71.21385 138.59871
#
# Poissons Ratio (x) = 0.26304 0.24199
# Poissons Ratio (y) = 0.26303 0.24198
# Poissons Ratio (z) = 0.12434 0.12433
#
# Static dielectric constant tensor:
#      x y z
#    x 3.769720 0.000000 0.000000 
#    y 0.000000 3.769710 0.000000 
#    z 0.000000 0.000000 4.592500 
# 
# 
# High freq. dielectric constant tensor:
#      x y z
#    x 1.849280 0.000000 0.000000 
#    y 0.000000 1.849280 0.000000 
#    z 0.000000 0.000000 1.893800 
# 
# From -- ./inp_files/4804.got.cif
#   From: 2010.06.25/outbox.cif.g09.slc.cpg/sg140_3_cif.got.tgz:4804.got - 2010.06.28 10:53:23.
