data_PCOD8320729
_publ_section_title
;
Structure prediction by ZEFSAII (Michael W. Deem and Ramdas Pophale) SiO2 
 PCOD8320729
Probable space group: I 41/A M D
;
_chemical_formula_sum "Si O2"
_cell_formula_units_Z 192
_cell_length_a 20.862097
_cell_length_b 20.862097
_cell_length_c 23.943563
_cell_angle_alpha 90.000000
_cell_angle_beta 90.000000
_cell_angle_gamma 90.000000
_cell_volume 10420.887278
_symmetry_space_group_name_H-M "I 41/A M D"
_symmetry_group_IT_number 141
_space_group.IT_coordinate_system_code '2'
_symmetry_cell_setting 'tetragonal'
loop_
_space_group_symop_operation_xyz
x,y,z
1/4-y,3/4+x,1/4+z
-x,1/2-y,z
1/4+y,1/4-x,3/4+z
x,-y,-z
-x,1/2+y,-z
1/4+y,3/4+x,1/4-z
1/4-y,1/4-x,3/4-z
-x,-y,-z
3/4+y,1/4-x,3/4-z
x,1/2+y,-z
3/4-y,3/4+x,1/4-z
-x,y,z
x,1/2-y,z
3/4-y,1/4-x,3/4+z
3/4+y,3/4+x,1/4+z
1/2+x,1/2+y,1/2+z
3/4-y,1/4+x,3/4+z
1/2-x,-y,1/2+z
3/4+y,3/4-x,1/4+z
1/2+x,1/2-y,1/2-z
1/2-x,y,1/2-z
3/4+y,1/4+x,3/4-z
3/4-y,3/4-x,1/4-z
1/2-x,1/2-y,1/2-z
1/4+y,3/4-x,1/4-z
1/2+x,y,1/2-z
1/4-y,1/4+x,3/4-z
1/2-x,1/2+y,1/2+z
1/2+x,-y,1/2+z
1/4-y,3/4-x,1/4+z
1/4+y,1/4+x,3/4+z
loop_
_atom_site_type_symbol
_atom_site_label
_atom_site_fract_x
_atom_site_fract_y
_atom_site_fract_z
Si Si1 0.793988 0.180696 0.696628
Si Si2 0.672473 0.944137 0.242478
Si Si3 0.377216 0.322518 0.985699
Si Si4 0.226032 0.750000 0.659717
Si Si5 0.698781 0.632337 0.914081
Si Si6 0.253474 0.175775 0.576853
Si Si7 0.651210 0.750000 0.734656
O O1 0.828627 0.250000 0.685352
O O2 0.750000 0.188803 0.750000
O O3 0.843551 0.123474 0.711289
O O4 0.748817 0.163537 0.643387
O O5 0.750000 0.948580 0.250000
O O6 0.651798 1.000000 0.202292
O O7 0.627805 0.949766 0.298418
O O8 0.400186 0.250000 0.982837
O O9 0.358463 0.338568 0.049258
O O10 0.318268 0.336209 0.944771
O O11 0.436702 0.364244 0.965736
O O12 0.231402 0.811966 0.621223
O O13 0.283405 0.750000 0.702233
O O14 0.161988 0.750000 0.698028
O O15 0.673002 0.576999 0.875000
O O16 0.274903 0.250000 0.563127
#
# Coordination Sequence:
#
# PCOD8320729 Si02
#       7
#    32  32  32  16  32  32  16
#     4   9  19  37  60  84 113 149 184 229 286 347
#     4  10  23  34  57  90 114 146 192 238 287 341
#     4  10  20  37  56  77 108 150 198 234 280 331
#     4  11  24  38  52  80 116 152 195 238 292 348
#     4  11  22  36  57  79 114 154 193 242 288 335
#     4   9  20  38  56  81 121 154 184 230 293 352
#     4  11  23  36  54  82 109 151 196 246 288 321
#
# _framework density 18.424534000000001
#
# number of rings (size 3 to 8) (size 9 to 14) (size 15 to 20)
#    0.000    2.000    2.500    0.250    5.833    3.333 
#    0.000    0.000    0.000    0.500    0.000    0.000 
#    0.000   10.667    0.000    0.000    0.000    0.000 
#
# Total GULP energy -1189679.473686 kJ/mol
# GULP energy per Si atom -12392.494518 kJ/mol
# Density = 1.838260 g / cm^3
# Si number density = 18.424534 Si / 1000 Ang^3
#
#
#
# Elastic Constant Matrix: (Units=GPa)
#
#
# Indices 1 2 3 4 5 6 
#
# 1 93.9810 44.8240 34.0735 0.0000 0.0000 0.0000
# 2 44.8240 93.9837 34.0735 0.0000 0.0000 0.0000
# 3 34.0735 34.0735 110.4748 0.0000 0.0000 0.0000
# 4 0.0000 0.0000 0.0000 25.0986 0.0000 0.0000
# 5 0.0000 0.0000 0.0000 0.0000 25.0984 0.0000
# 6 0.0000 0.0000 0.0000 0.0000 0.0000 27.0265
#
#
#
# Elastic Compliance Matrix: (Units=1/GPa)
#
#
# Indices 1 2 3 4 5 6 
#
# 1 0.014416 -0.005926 -0.002619 0.000000 0.000000 0.000000
# 2 -0.005926 0.014416 -0.002618 0.000000 0.000000 0.000000
# 3 -0.002619 -0.002618 0.010667 0.000000 0.000000 0.000000
# 4 0.000000 0.000000 0.000000 0.039843 0.000000 0.000000
# 5 0.000000 0.000000 0.000000 0.000000 0.039843 0.000000
# 6 0.000000 0.000000 0.000000 0.000000 0.000000 0.037001
#
#
# Mechanical properties :
#
#
# Convention : Reuss Voigt Hill
#
# Bulk Modulus (GPa) = 58.23181 58.26460 58.24821
# Shear Modulus (GPa) = 27.13898 27.80928 27.47413
#
# Velocity S-wave (km/s) = 3.84211 3.88926 3.86576
# Velocity P-wave (km/s) = 7.16635 7.20143 7.18391
#
# Compressibility (1/GPa) = 0.01717274
#
# Stress axis : x y z
#
# Youngs Moduli (GPa) = 69.36560 69.36785 93.74637
#
# Poissons Ratio (x) = 0.41109 0.24548
# Poissons Ratio (y) = 0.41108 0.24547
# Poissons Ratio (z) = 0.18164 0.18163
#
# Static dielectric constant tensor:
#      x y z
#    x 3.577320 0.000000 0.000000 
#    y 0.000000 3.577330 0.000000 
#    z 0.000000 0.000000 3.676640 
# 
# 
# High freq. dielectric constant tensor:
#      x y z
#    x 1.705570 0.000000 0.000000 
#    y 0.000000 1.705570 0.000000 
#    z 0.000000 0.000000 1.728970 
# 
# From -- ./inp_files/11769.got.cif
#   From: 2010.03.12/outbox.cif.g09.slc.cpg/sg141_6_cif.got.tgz:11769.got - 2010.04.03 13:18:35.
