data_PCOD8320000
_publ_section_title
;
Structure prediction by ZEFSAII (Michael W. Deem and Ramdas Pophale) SiO2 
 PCOD8320000
Probable space group: I 4/M M M
;
_chemical_formula_sum "Si O2"
_cell_formula_units_Z 96
_cell_length_a 13.537955
_cell_length_b 13.537955
_cell_length_c 25.116463
_cell_angle_alpha 90.000000
_cell_angle_beta 90.000000
_cell_angle_gamma 90.000000
_cell_volume 4603.250539
_symmetry_space_group_name_H-M "I 4/M M M"
_symmetry_group_IT_number 139
_symmetry_cell_setting 'tetragonal'
loop_
_space_group_symop_operation_xyz
x,y,z
-y,x,z
-x,-y,z
y,-x,z
x,-y,-z
-x,y,-z
y,x,-z
-y,-x,-z
-x,-y,-z
y,-x,-z
x,y,-z
-y,x,-z
-x,y,z
x,-y,z
-y,-x,z
y,x,z
1/2+x,1/2+y,1/2+z
1/2-y,1/2+x,1/2+z
1/2-x,1/2-y,1/2+z
1/2+y,1/2-x,1/2+z
1/2+x,1/2-y,1/2-z
1/2-x,1/2+y,1/2-z
1/2+y,1/2+x,1/2-z
1/2-y,1/2-x,1/2-z
1/2-x,1/2-y,1/2-z
1/2+y,1/2-x,1/2-z
1/2+x,1/2+y,1/2-z
1/2-y,1/2+x,1/2-z
1/2-x,1/2+y,1/2+z
1/2+x,1/2-y,1/2+z
1/2-y,1/2-x,1/2+z
1/2+y,1/2+x,1/2+z
loop_
_atom_site_type_symbol
_atom_site_label
_atom_site_fract_x
_atom_site_fract_y
_atom_site_fract_z
Si Si1 0.690160 0.309841 0.669141
Si Si2 0.500000 0.225378 0.612148
Si Si3 0.000000 0.278034 0.559413
Si Si4 0.891288 0.108713 0.268079
Si Si5 0.500000 0.000000 0.410693
Si Si6 0.334987 0.334987 0.122760
Si Si7 0.832946 0.000000 0.000000
O O1 0.593069 0.272562 0.640125
O O2 0.678778 0.321223 0.732918
O O3 0.771905 0.228096 0.663426
O O4 0.500000 0.258251 0.550139
O O5 0.500000 0.105011 0.620940
O O6 0.902540 0.235242 0.586979
O O7 0.000000 0.236416 0.500000
O O8 0.000000 0.397175 0.556608
O O9 0.894398 0.105603 0.332660
O O10 0.000000 0.137365 0.248742
O O11 0.902154 0.097847 0.000000
#
# Coordination Sequence:
#
# PCOD8320000 Si02
#       7
#    16  16  16  16   8  16   8
#     4  12  24  43  72 100 139 179 229 283 352 409
#     4  12  25  42  68  99 136 183 224 284 336 421
#     4  12  27  46  72 102 138 184 235 285 347 415
#     4  11  23  41  71 101 133 178 229 290 350 405
#     4  12  27  46  66  99 142 178 231 280 339 418
#     4  12  25  47  70  99 141 180 230 291 348 404
#     4  11  24  39  64 104 142 177 224 283 350 394
#
# _framework density 20.854828000000001
#
# number of rings (size 3 to 8) (size 9 to 14) (size 15 to 20)
#    0.000    0.250    8.333    1.250    2.333    0.667 
#    3.000    0.833    0.000    2.000    0.000    0.000 
#    0.000    0.000    0.000    0.000    0.000    0.000 
#
# Total GULP energy -594637.463609 kJ/mol
# GULP energy per Si atom -12388.280492 kJ/mol
# Density = 2.080736 g / cm^3
# Si number density = 20.854828 Si / 1000 Ang^3
#
#
#
# Elastic Constant Matrix: (Units=GPa)
#
#
# Indices 1 2 3 4 5 6 
#
# 1 135.1035 39.4980 41.2098 0.0000 0.0000 0.0000
# 2 39.4980 135.1032 41.2098 0.0000 0.0000 0.0000
# 3 41.2098 41.2098 146.3953 0.0000 0.0000 0.0000
# 4 0.0000 0.0000 0.0000 -6.5010 0.0000 0.0000
# 5 0.0000 0.0000 0.0000 0.0000 -6.5086 0.0000
# 6 0.0000 0.0000 0.0000 0.0000 0.0000 37.5896
#
#
#
# Elastic Compliance Matrix: (Units=1/GPa)
#
#
# Indices 1 2 3 4 5 6 
#
# 1 0.008532 -0.001927 -0.001859 0.000000 0.000000 0.000000
# 2 -0.001927 0.008532 -0.001859 0.000000 0.000000 0.000000
# 3 -0.001859 -0.001859 0.007878 0.000000 0.000000 0.000000
# 4 0.000000 0.000000 0.000000 -0.153822 0.000000 0.000000
# 5 0.000000 0.000000 0.000000 0.000000 -0.153642 0.000000
# 6 0.000000 0.000000 0.000000 0.000000 0.000000 0.026603
#
#
# Mechanical properties :
#
#
# Convention : Reuss Voigt Hill
#
# Bulk Modulus (GPa) = 73.25772 73.38192 73.31982
# Shear Modulus (GPa) = -20.82661 24.56162 1.86750
#
# Velocity S-wave (km/s) = -3.16357 3.43555 0.94732
# Velocity P-wave (km/s) = 4.67542 7.14148 6.03574
#
# Compressibility (1/GPa) = 0.01365044
#
# Stress axis : x y z
#
# Youngs Moduli (GPa) = 117.20139 117.20113 126.94239
#
# Poissons Ratio (x) = 0.22589 0.23602
# Poissons Ratio (y) = 0.22589 0.23602
# Poissons Ratio (z) = 0.21791 0.21791
#
# Static dielectric constant tensor:
#      x y z
#    x 3.933420 0.000000 0.000000 
#    y 0.000000 3.933420 0.000000 
#    z 0.000000 0.000000 3.624140 
# 
# 
# High freq. dielectric constant tensor:
#      x y z
#    x 1.829660 0.000000 0.000000 
#    y 0.000000 1.829660 0.000000 
#    z 0.000000 0.000000 1.817920 
# 
# From -- ./inp_files/11031.got.cif
#   From: 2010.03.12/outbox.cif.g09.slc.cpg/sg139_6_cif.got.tgz:11031.got - 2010.04.08 09:46:31.
