data_PCOD8320720
_publ_section_title
;
Structure prediction by ZEFSAII (Michael W. Deem and Ramdas Pophale) SiO2 
 PCOD8320720
Probable space group: I 41/A M D
;
_chemical_formula_sum "Si O2"
_cell_formula_units_Z 192
_cell_length_a 17.376150
_cell_length_b 17.376150
_cell_length_c 31.099410
_cell_angle_alpha 90.000000
_cell_angle_beta 90.000000
_cell_angle_gamma 90.000000
_cell_volume 9389.863173
_symmetry_space_group_name_H-M "I 41/A M D"
_symmetry_group_IT_number 141
_space_group.IT_coordinate_system_code '2'
_symmetry_cell_setting 'tetragonal'
loop_
_space_group_symop_operation_xyz
x,y,z
1/4-y,3/4+x,1/4+z
-x,1/2-y,z
1/4+y,1/4-x,3/4+z
x,-y,-z
-x,1/2+y,-z
1/4+y,3/4+x,1/4-z
1/4-y,1/4-x,3/4-z
-x,-y,-z
3/4+y,1/4-x,3/4-z
x,1/2+y,-z
3/4-y,3/4+x,1/4-z
-x,y,z
x,1/2-y,z
3/4-y,1/4-x,3/4+z
3/4+y,3/4+x,1/4+z
1/2+x,1/2+y,1/2+z
3/4-y,1/4+x,3/4+z
1/2-x,-y,1/2+z
3/4+y,3/4-x,1/4+z
1/2+x,1/2-y,1/2-z
1/2-x,y,1/2-z
3/4+y,1/4+x,3/4-z
3/4-y,3/4-x,1/4-z
1/2-x,1/2-y,1/2-z
1/4+y,3/4-x,1/4-z
1/2+x,y,1/2-z
1/4-y,1/4+x,3/4-z
1/2-x,1/2+y,1/2+z
1/2+x,-y,1/2+z
1/4-y,3/4-x,1/4+z
1/4+y,1/4+x,3/4+z
loop_
_atom_site_type_symbol
_atom_site_label
_atom_site_fract_x
_atom_site_fract_y
_atom_site_fract_z
Si Si1 0.912884 0.082905 0.779478
Si Si2 0.086451 0.040743 0.612879
Si Si3 0.185786 0.664825 0.716436
Si Si4 0.769613 0.659427 0.545343
Si Si5 0.140611 0.007674 0.138407
Si Si6 0.000000 0.886657 0.007442
Si Si7 0.500000 0.021660 0.426932
O O1 0.908740 0.174354 0.772854
O O2 0.000000 0.056645 0.779389
O O3 0.872572 0.039408 0.739326
O O4 0.880503 0.051591 0.824035
O O5 0.152718 0.100246 0.596668
O O6 0.000000 0.078855 0.616148
O O7 0.081511 0.969509 0.581146
O O8 0.117942 0.009359 0.658244
O O9 0.155499 0.750000 0.729875
O O10 0.250000 0.636695 0.750000
O O11 0.116227 0.605540 0.716400
O O12 0.770496 0.750000 0.544695
O O13 0.075996 0.008854 0.101401
O O14 0.223903 0.973903 0.125000
O O15 0.000000 0.964483 0.033640
O O16 0.000000 0.898157 0.954859
#
# Coordination Sequence:
#
# PCOD8320720 Si02
#       7
#    32  32  32  32  32  16  16
#     4  11  23  40  63  89 125 164 213 260 319 384
#     4  10  22  39  59  86 121 157 208 259 314 386
#     4  10  20  36  58  85 117 154 202 257 311 379
#     4  10  21  37  57  87 119 157 203 256 312 384
#     4  12  22  39  64  91 125 167 209 266 327 383
#     4  11  23  42  60  90 127 166 209 270 320 376
#     4  11  24  40  60  92 132 159 214 271 313 387
#
# _framework density 20.447582000000001
#
# number of rings (size 3 to 8) (size 9 to 14) (size 15 to 20)
#    0.000    1.333    2.500    3.750    0.000    0.333 
#    3.000    1.250    0.000    4.000    0.000    0.000 
#    0.000    0.000    0.000    0.000    0.000    0.000 
#
# Total GULP energy -1189623.117025 kJ/mol
# GULP energy per Si atom -12391.907469 kJ/mol
# Density = 2.040104 g / cm^3
# Si number density = 20.447582 Si / 1000 Ang^3
#
#
#
# Elastic Constant Matrix: (Units=GPa)
#
#
# Indices 1 2 3 4 5 6 
#
# 1 95.8274 28.6427 25.4172 0.0000 0.0000 0.0000
# 2 28.6427 95.8274 25.4172 0.0000 0.0000 0.0000
# 3 25.4172 25.4172 108.8869 0.0000 0.0000 0.0000
# 4 0.0000 0.0000 0.0000 20.1781 0.0000 0.0000
# 5 0.0000 0.0000 0.0000 0.0000 20.1781 0.0000
# 6 0.0000 0.0000 0.0000 0.0000 0.0000 51.6523
#
#
#
# Elastic Compliance Matrix: (Units=1/GPa)
#
#
# Indices 1 2 3 4 5 6 
#
# 1 0.011883 -0.003002 -0.002073 0.000000 0.000000 0.000000
# 2 -0.003002 0.011883 -0.002073 0.000000 0.000000 0.000000
# 3 -0.002073 -0.002073 0.010152 0.000000 0.000000 0.000000
# 4 0.000000 0.000000 0.000000 0.049559 0.000000 0.000000
# 5 0.000000 0.000000 0.000000 0.000000 0.049559 0.000000
# 6 0.000000 0.000000 0.000000 0.000000 0.000000 0.019360
#
#
# Mechanical properties :
#
#
# Convention : Reuss Voigt Hill
#
# Bulk Modulus (GPa) = 50.96576 51.05509 51.01043
# Shear Modulus (GPa) = 28.86332 33.13934 31.00133
#
# Velocity S-wave (km/s) = 3.76117 4.03016 3.89798
# Velocity P-wave (km/s) = 6.62126 6.83222 6.72756
#
# Compressibility (1/GPa) = 0.01962102
#
# Stress axis : x y z
#
# Youngs Moduli (GPa) = 84.15724 84.15724 98.50639
#
# Poissons Ratio (x) = 0.25263 0.20420
# Poissons Ratio (y) = 0.25263 0.20420
# Poissons Ratio (z) = 0.17446 0.17446
#
# Static dielectric constant tensor:
#      x y z
#    x 3.706640 0.000000 0.000000 
#    y 0.000000 3.706640 0.000000 
#    z 0.000000 0.000000 4.214770 
# 
# 
# High freq. dielectric constant tensor:
#      x y z
#    x 1.792720 0.000000 0.000000 
#    y 0.000000 1.792720 0.000000 
#    z 0.000000 0.000000 1.816020 
# 
# From -- ./inp_files/14481.got.cif
#   From: 2010.03.12/outbox.cif.g09.slc.cpg/sg141_8_cif.got.tgz:14481.got - 2010.04.03 13:18:35.
