data_PCOD8320144
_publ_section_title
;
Structure prediction by ZEFSAII (Michael W. Deem and Ramdas Pophale) SiO2 
 PCOD8320144
Probable space group: I 4/M C M
;
_chemical_formula_sum "Si O2"
_cell_formula_units_Z 192
_cell_length_a 21.341071
_cell_length_b 21.341071
_cell_length_c 24.634348
_cell_angle_alpha 90.000000
_cell_angle_beta 90.000000
_cell_angle_gamma 90.000000
_cell_volume 11219.499759
_symmetry_space_group_name_H-M "I 4/M C M"
_symmetry_group_IT_number 140
_symmetry_cell_setting 'tetragonal'
loop_
_space_group_symop_operation_xyz
x,y,z
-y,x,z
-x,-y,z
y,-x,z
x,-y,1/2-z
-x,y,1/2-z
y,x,1/2-z
-y,-x,1/2-z
-x,-y,-z
y,-x,-z
x,y,-z
-y,x,-z
-x,y,1/2+z
x,-y,1/2+z
-y,-x,1/2+z
y,x,1/2+z
1/2+x,1/2+y,1/2+z
1/2-y,1/2+x,1/2+z
1/2-x,1/2-y,1/2+z
1/2+y,1/2-x,1/2+z
1/2+x,1/2-y,-z
1/2-x,1/2+y,-z
1/2+y,1/2+x,-z
1/2-y,1/2-x,-z
1/2-x,1/2-y,1/2-z
1/2+y,1/2-x,1/2-z
1/2+x,1/2+y,1/2-z
1/2-y,1/2+x,1/2-z
1/2-x,1/2+y,z
1/2+x,1/2-y,z
1/2-y,1/2-x,z
1/2+y,1/2+x,z
loop_
_atom_site_type_symbol
_atom_site_label
_atom_site_fract_x
_atom_site_fract_y
_atom_site_fract_z
Si Si1 0.429001 0.828376 0.939606
Si Si2 0.149464 0.248989 0.768096
Si Si3 0.039863 0.095031 0.061975
Si Si4 0.001127 0.399491 0.850172
Si Si5 0.773821 0.463178 0.800797
Si Si6 0.060251 0.214220 0.868352
O O1 0.361992 0.861992 0.938672
O O2 0.479996 0.867775 0.906523
O O3 0.417605 0.759764 0.915982
O O4 0.456107 0.822487 0.000000
O O5 0.192940 0.192940 0.750000
O O6 0.190156 0.309845 0.785895
O O7 0.109989 0.266705 0.713598
O O8 0.106962 0.225157 0.817815
O O9 0.062530 0.144616 0.107197
O O10 0.966877 0.080731 0.071518
O O11 0.049518 0.119319 0.000000
O O12 0.941848 0.441848 0.863548
O O13 0.982247 0.346644 0.807232
O O14 0.058774 0.441227 0.826296
O O15 0.746026 0.500000 0.750000
O O16 0.732357 0.488275 0.851570
#
# Coordination Sequence:
#
# PCOD8320144 Si02
#       6
#    32  32  32  32  32  32
#     4   9  17  29  46  71 101 130 165 206 244 288
#     4  10  21  35  51  72 101 136 173 208 244 291
#     4   9  19  35  55  80 104 126 157 202 258 312
#     4   9  17  28  44  68  97 131 168 205 250 298
#     4   9  19  32  47  70  96 131 169 211 247 289
#     4  10  19  32  54  74  99 130 168 204 250 294
#
# _framework density 17.113061999999999
#
# number of rings (size 3 to 8) (size 9 to 14) (size 15 to 20)
#    0.000    2.667    0.000    2.000    2.333    5.000 
#    0.000    2.500    0.000    0.000    0.000    0.000 
#    0.000    0.000    0.000    0.000    0.000    0.000 
#
# Total GULP energy -1189685.240712 kJ/mol
# GULP energy per Si atom -12392.554591 kJ/mol
# Density = 1.707411 g / cm^3
# Si number density = 17.113062 Si / 1000 Ang^3
#
#
#
# Elastic Constant Matrix: (Units=GPa)
#
#
# Indices 1 2 3 4 5 6 
#
# 1 89.9347 37.2300 42.9476 0.0000 0.0000 0.0000
# 2 37.2300 89.9347 42.9476 0.0000 0.0000 0.0000
# 3 42.9476 42.9476 85.8888 0.0000 0.0000 0.0000
# 4 0.0000 0.0000 0.0000 24.6865 0.0000 0.0000
# 5 0.0000 0.0000 0.0000 0.0000 24.6865 0.0000
# 6 0.0000 0.0000 0.0000 0.0000 0.0000 20.3899
#
#
#
# Elastic Compliance Matrix: (Units=1/GPa)
#
#
# Indices 1 2 3 4 5 6 
#
# 1 0.015424 -0.003550 -0.005938 0.000000 0.000000 0.000000
# 2 -0.003550 0.015424 -0.005938 0.000000 0.000000 0.000000
# 3 -0.005938 -0.005938 0.017581 0.000000 0.000000 0.000000
# 4 0.000000 0.000000 0.000000 0.040508 0.000000 0.000000
# 5 0.000000 0.000000 0.000000 0.000000 0.040508 0.000000
# 6 0.000000 0.000000 0.000000 0.000000 0.000000 0.049044
#
#
# Mechanical properties :
#
#
# Convention : Reuss Voigt Hill
#
# Bulk Modulus (GPa) = 56.88494 56.88983 56.88739
# Shear Modulus (GPa) = 23.23431 23.46143 23.34787
#
# Velocity S-wave (km/s) = 3.68869 3.70667 3.69769
# Velocity P-wave (km/s) = 7.17319 7.18574 7.17947
#
# Compressibility (1/GPa) = 0.01757934
#
# Stress axis : x y z
#
# Youngs Moduli (GPa) = 64.83363 64.83363 56.87922
#
# Poissons Ratio (x) = 0.23013 0.33773
# Poissons Ratio (y) = 0.23013 0.33773
# Poissons Ratio (z) = 0.38496 0.38496
#
# Static dielectric constant tensor:
#      x y z
#    x 3.210370 0.000000 0.000000 
#    y 0.000000 3.210370 0.000000 
#    z 0.000000 0.000000 3.217150 
# 
# 
# High freq. dielectric constant tensor:
#      x y z
#    x 1.655670 0.000000 0.000000 
#    y 0.000000 1.655670 0.000000 
#    z 0.000000 0.000000 1.657100 
# 
# From -- ./inp_files/9756.got.cif
#   From: 2010.06.25/outbox.cif.g09.slc.cpg/sg140_5_cif.got.tgz:9756.got - 2010.06.28 10:53:23.
