data_PCOD8320818
_publ_section_title
;
Structure prediction by ZEFSAII (Michael W. Deem and Ramdas Pophale) SiO2 
 PCOD8320818
Probable space group: I 41/A M D
;
_chemical_formula_sum "Si O2"
_cell_formula_units_Z 120
_cell_length_a 13.545060
_cell_length_b 13.545060
_cell_length_c 28.836031
_cell_angle_alpha 90.000000
_cell_angle_beta 90.000000
_cell_angle_gamma 90.000000
_cell_volume 5290.507691
_symmetry_space_group_name_H-M "I 41/A M D"
_symmetry_group_IT_number 141
_space_group.IT_coordinate_system_code '2'
_symmetry_cell_setting 'tetragonal'
loop_
_space_group_symop_operation_xyz
x,y,z
1/4-y,3/4+x,1/4+z
-x,1/2-y,z
1/4+y,1/4-x,3/4+z
x,-y,-z
-x,1/2+y,-z
1/4+y,3/4+x,1/4-z
1/4-y,1/4-x,3/4-z
-x,-y,-z
3/4+y,1/4-x,3/4-z
x,1/2+y,-z
3/4-y,3/4+x,1/4-z
-x,y,z
x,1/2-y,z
3/4-y,1/4-x,3/4+z
3/4+y,3/4+x,1/4+z
1/2+x,1/2+y,1/2+z
3/4-y,1/4+x,3/4+z
1/2-x,-y,1/2+z
3/4+y,3/4-x,1/4+z
1/2+x,1/2-y,1/2-z
1/2-x,y,1/2-z
3/4+y,1/4+x,3/4-z
3/4-y,3/4-x,1/4-z
1/2-x,1/2-y,1/2-z
1/4+y,3/4-x,1/4-z
1/2+x,y,1/2-z
1/4-y,1/4+x,3/4-z
1/2-x,1/2+y,1/2+z
1/2+x,-y,1/2+z
1/4-y,3/4-x,1/4+z
1/4+y,1/4+x,3/4+z
loop_
_atom_site_type_symbol
_atom_site_label
_atom_site_fract_x
_atom_site_fract_y
_atom_site_fract_z
Si Si1 0.172725 0.750000 0.481823
Si Si2 0.500000 0.426582 0.807278
Si Si3 0.291427 0.561765 0.698079
Si Si4 0.294307 0.250000 0.148374
Si Si5 0.500000 0.250000 0.193715
Si Si6 0.606910 0.466264 0.447017
O O1 0.278763 0.750000 0.505975
O O2 0.166264 0.842771 0.447819
O O3 0.092027 0.750000 0.521883
O O4 0.500000 0.517240 0.844152
O O5 0.598228 0.360967 0.810936
O O6 0.250000 0.564837 0.750000
O O7 0.246380 0.649750 0.669367
O O8 0.265661 0.455180 0.674342
O O9 0.409604 0.250000 0.158137
O O10 0.607878 0.500000 0.500000
O O11 0.500000 0.499894 0.425543
#
# Coordination Sequence:
#
# PCOD8320818 Si02
#       6
#    16  16  32  16   8  32
#     4  12  22  38  64  92 131 181 228 275 322 427
#     4  12  23  41  65 101 134 162 231 284 340 400
#     4  11  21  42  63  91 133 180 226 268 343 401
#     4  12  26  40  67  99 139 185 218 286 338 400
#     4  12  22  37  60  92 136 186 230 260 322 394
#     4  10  21  40  67  91 126 169 214 283 339 390
#
# _framework density 22.682133
#
# number of rings (size 3 to 8) (size 9 to 14) (size 15 to 20)
#    0.000    0.800    8.000    1.600    0.000    4.800 
#    4.800    0.667    0.000    0.000    0.000    0.000 
#    0.000    0.000    0.000    0.000    0.000    0.000 
#
# Total GULP energy -743480.428581 kJ/mol
# GULP energy per Si atom -12391.340476 kJ/mol
# Density = 2.263051 g / cm^3
# Si number density = 22.682133 Si / 1000 Ang^3
#
#
#
# Elastic Constant Matrix: (Units=GPa)
#
#
# Indices 1 2 3 4 5 6 
#
# 1 199.3857 53.4329 36.0115 0.0000 0.0000 0.0000
# 2 53.4329 199.3857 36.0115 0.0000 0.0000 0.0000
# 3 36.0115 36.0115 38.0724 0.0000 0.0000 0.0000
# 4 0.0000 0.0000 0.0000 -24.6252 0.0000 0.0000
# 5 0.0000 0.0000 0.0000 0.0000 -24.6252 0.0000
# 6 0.0000 0.0000 0.0000 0.0000 0.0000 -1.5497
#
#
#
# Elastic Compliance Matrix: (Units=1/GPa)
#
#
# Indices 1 2 3 4 5 6 
#
# 1 0.006133 -0.000719 -0.005121 0.000000 0.000000 0.000000
# 2 -0.000719 0.006133 -0.005121 0.000000 0.000000 0.000000
# 3 -0.005121 -0.005121 0.035954 0.000000 0.000000 0.000000
# 4 0.000000 0.000000 0.000000 -0.040609 0.000000 0.000000
# 5 0.000000 0.000000 0.000000 0.000000 -0.040609 0.000000
# 6 0.000000 0.000000 0.000000 0.000000 0.000000 -0.645301
#
#
# Mechanical properties :
#
#
# Convention : Reuss Voigt Hill
#
# Bulk Modulus (GPa) = 38.02650 76.41728 57.22189
# Shear Modulus (GPa) = -7.72068 10.59920 1.43926
#
# Velocity S-wave (km/s) = -1.84696 2.16404 0.79744
# Velocity P-wave (km/s) = 3.50043 6.32517 5.11179
#
# Compressibility (1/GPa) = 0.02629745
#
# Stress axis : x y z
#
# Youngs Moduli (GPa) = 163.05398 163.05398 27.81350
#
# Poissons Ratio (x) = 0.11717 0.14244
# Poissons Ratio (y) = 0.11717 0.14244
# Poissons Ratio (z) = 0.83504 0.83504
#
# Static dielectric constant tensor:
#      x y z
#    x 4.788280 0.000000 0.000000 
#    y 0.000000 4.788280 0.000000 
#    z 0.000000 0.000000 3.793410 
# 
# 
# High freq. dielectric constant tensor:
#      x y z
#    x 1.910270 0.000000 0.000000 
#    y 0.000000 1.910270 0.000000 
#    z 0.000000 0.000000 1.863380 
# 
# From -- ./inp_files/14148.got.cif
#   From: 2010.03.12/outbox.cif.g09.slc.cpg/sg141_8_cif.got.tgz:14148.got - 2010.04.03 13:18:35.
