data_PCOD8320389
_publ_section_title
;
Structure prediction by ZEFSAII (Michael W. Deem and Ramdas Pophale) SiO2 
 PCOD8320389
Probable space group: I 4/M C M
;
_chemical_formula_sum "Si O2"
_cell_formula_units_Z 176
_cell_length_a 25.778219
_cell_length_b 25.778219
_cell_length_c 14.273820
_cell_angle_alpha 90.000000
_cell_angle_beta 90.000000
_cell_angle_gamma 90.000000
_cell_volume 9485.189976
_symmetry_space_group_name_H-M "I 4/M C M"
_symmetry_group_IT_number 140
_symmetry_cell_setting 'tetragonal'
loop_
_space_group_symop_operation_xyz
x,y,z
-y,x,z
-x,-y,z
y,-x,z
x,-y,1/2-z
-x,y,1/2-z
y,x,1/2-z
-y,-x,1/2-z
-x,-y,-z
y,-x,-z
x,y,-z
-y,x,-z
-x,y,1/2+z
x,-y,1/2+z
-y,-x,1/2+z
y,x,1/2+z
1/2+x,1/2+y,1/2+z
1/2-y,1/2+x,1/2+z
1/2-x,1/2-y,1/2+z
1/2+y,1/2-x,1/2+z
1/2+x,1/2-y,-z
1/2-x,1/2+y,-z
1/2+y,1/2+x,-z
1/2-y,1/2-x,-z
1/2-x,1/2-y,1/2-z
1/2+y,1/2-x,1/2-z
1/2+x,1/2+y,1/2-z
1/2-y,1/2+x,1/2-z
1/2-x,1/2+y,z
1/2+x,1/2-y,z
1/2-y,1/2-x,z
1/2+y,1/2+x,z
loop_
_atom_site_type_symbol
_atom_site_label
_atom_site_fract_x
_atom_site_fract_y
_atom_site_fract_z
Si Si1 0.787897 0.798451 0.500000
Si Si2 0.191939 0.607379 0.797668
Si Si3 0.225175 0.500000 0.750000
Si Si4 0.789931 0.139668 0.188199
Si Si5 0.999130 0.917854 0.139501
Si Si6 0.804768 0.969706 0.605457
Si Si7 0.782808 0.631594 0.500000
O O1 0.747161 0.752840 0.500000
O O2 0.778366 0.832066 0.408345
O O3 0.846846 0.776248 0.500000
O O4 0.137558 0.637558 0.784537
O O5 0.188294 0.550697 0.749490
O O6 0.237137 0.640227 0.748047
O O7 0.205486 0.598556 0.907083
O O8 0.261616 0.504305 0.842198
O O9 0.833762 0.166239 0.250000
O O10 0.810792 0.082436 0.165983
O O11 0.999047 0.859832 0.099113
O O12 0.050623 0.948134 0.104358
O O13 0.000000 0.915317 0.250000
O O14 0.785265 0.958697 0.500000
O O15 0.818014 0.681987 0.500000
#
# Coordination Sequence:
#
# PCOD8320389 Si02
#       7
#    16  32  16  32  32  32  16
#     4  11  20  34  53  80 116 153 192 231 272 327
#     4  10  21  38  59  84 114 150 186 227 278 332
#     4  10  24  40  60  82 114 146 176 226 274 344
#     4  11  22  35  54  82 119 154 190 230 279 333
#     4   9  19  36  55  73  99 140 191 242 283 318
#     4  11  23  38  55  81 113 146 186 233 287 340
#     4   9  18  32  55  86 113 143 187 226 268 324
#
# _framework density 18.555242
#
# number of rings (size 3 to 8) (size 9 to 14) (size 15 to 20)
#    0.000    1.818    3.636    1.091    3.818    1.455 
#    0.000    0.909    0.000    0.273    0.000    0.000 
#    0.000    2.182    0.000    0.000    0.000    0.000 
#
# Total GULP energy -1091083.081929 kJ/mol
# GULP energy per Si atom -12398.671386 kJ/mol
# Density = 1.851301 g / cm^3
# Si number density = 18.555242 Si / 1000 Ang^3
#
#
#
# Elastic Constant Matrix: (Units=GPa)
#
#
# Indices 1 2 3 4 5 6 
#
# 1 82.0568 44.8913 24.8918 0.0000 0.0000 0.0000
# 2 44.8913 82.0589 24.8926 0.0000 0.0000 0.0000
# 3 24.8918 24.8926 112.8691 0.0000 0.0000 0.0000
# 4 0.0000 0.0000 0.0000 19.2278 0.0000 0.0000
# 5 0.0000 0.0000 0.0000 0.0000 19.2296 0.0000
# 6 0.0000 0.0000 0.0000 0.0000 0.0000 23.8815
#
#
#
# Elastic Compliance Matrix: (Units=1/GPa)
#
#
# Indices 1 2 3 4 5 6 
#
# 1 0.017765 -0.009141 -0.001902 0.000000 0.000000 0.000000
# 2 -0.009141 0.017764 -0.001902 0.000000 0.000000 0.000000
# 3 -0.001902 -0.001902 0.009699 0.000000 0.000000 0.000000
# 4 0.000000 0.000000 0.000000 0.052008 0.000000 0.000000
# 5 0.000000 0.000000 0.000000 0.000000 0.052003 0.000000
# 6 0.000000 0.000000 0.000000 0.000000 0.000000 0.041873
#
#
# Mechanical properties :
#
#
# Convention : Reuss Voigt Hill
#
# Bulk Modulus (GPa) = 51.71251 51.81514 51.76383
# Shear Modulus (GPa) = 22.37658 24.62171 23.49915
#
# Velocity S-wave (km/s) = 3.47644 3.64667 3.56257
# Velocity P-wave (km/s) = 6.63658 6.76139 6.69927
#
# Compressibility (1/GPa) = 0.01933768
#
# Stress axis : x y z
#
# Youngs Moduli (GPa) = 56.29167 56.29293 103.10740
#
# Poissons Ratio (x) = 0.51460 0.19607
# Poissons Ratio (y) = 0.51459 0.19609
# Poissons Ratio (z) = 0.10705 0.10706
#
# Static dielectric constant tensor:
#      x y z
#    x 3.265320 0.000000 0.000000 
#    y 0.000000 3.265320 0.000000 
#    z 0.000000 0.000000 3.598820 
# 
# 
# High freq. dielectric constant tensor:
#      x y z
#    x 1.698320 0.000000 0.000000 
#    y 0.000000 1.698320 0.000000 
#    z 0.000000 0.000000 1.737390 
# 
# From -- ./inp_files/5000.got.cif
#   From: 2010.06.25/outbox.cif.g09.slc.cpg/sg140_3_cif.got.tgz:5000.got - 2010.06.28 10:53:23.
