data_PCOD8320819
_publ_section_title
;
Structure prediction by ZEFSAII (Michael W. Deem and Ramdas Pophale) SiO2 
 PCOD8320819
Probable space group: I 41/A M D
;
_chemical_formula_sum "Si O2"
_cell_formula_units_Z 160
_cell_length_a 27.958110
_cell_length_b 27.958110
_cell_length_c 9.540429
_cell_angle_alpha 90.000000
_cell_angle_beta 90.000000
_cell_angle_gamma 90.000000
_cell_volume 7457.332757
_symmetry_space_group_name_H-M "I 41/A M D"
_symmetry_group_IT_number 141
_space_group.IT_coordinate_system_code '2'
_symmetry_cell_setting 'tetragonal'
loop_
_space_group_symop_operation_xyz
x,y,z
1/4-y,3/4+x,1/4+z
-x,1/2-y,z
1/4+y,1/4-x,3/4+z
x,-y,-z
-x,1/2+y,-z
1/4+y,3/4+x,1/4-z
1/4-y,1/4-x,3/4-z
-x,-y,-z
3/4+y,1/4-x,3/4-z
x,1/2+y,-z
3/4-y,3/4+x,1/4-z
-x,y,z
x,1/2-y,z
3/4-y,1/4-x,3/4+z
3/4+y,3/4+x,1/4+z
1/2+x,1/2+y,1/2+z
3/4-y,1/4+x,3/4+z
1/2-x,-y,1/2+z
3/4+y,3/4-x,1/4+z
1/2+x,1/2-y,1/2-z
1/2-x,y,1/2-z
3/4+y,1/4+x,3/4-z
3/4-y,3/4-x,1/4-z
1/2-x,1/2-y,1/2-z
1/4+y,3/4-x,1/4-z
1/2+x,y,1/2-z
1/4-y,1/4+x,3/4-z
1/2-x,1/2+y,1/2+z
1/2+x,-y,1/2+z
1/4-y,3/4-x,1/4+z
1/4+y,1/4+x,3/4+z
loop_
_atom_site_type_symbol
_atom_site_label
_atom_site_fract_x
_atom_site_fract_y
_atom_site_fract_z
Si Si1 0.122306 0.445920 0.847393
Si Si2 0.085987 0.195164 0.228299
Si Si3 0.387953 0.546469 0.739943
Si Si4 0.322587 0.863469 0.716173
Si Si5 0.553655 0.106692 0.438859
O O1 0.175706 0.425706 0.875000
O O2 0.121636 0.503219 0.870477
O O3 0.103175 0.446632 0.687614
O O4 0.087562 0.412217 0.937111
O O5 0.057366 0.192635 0.375000
O O6 0.085149 0.250000 0.174888
O O7 0.139516 0.177347 0.258326
O O8 0.063769 0.161702 0.105112
O O9 0.345765 0.584072 0.711421
O O10 0.437545 0.572224 0.695070
O O11 0.388535 0.533375 0.906637
O O12 0.500000 0.101770 0.492802
#
# Coordination Sequence:
#
# PCOD8320819 Si02
#       5
#    32  32  32  32  32
#     4  12  23  39  64  93 127 172 207 263 328 390
#     4  11  21  38  66  96 128 170 219 270 327 391
#     4  10  21  40  68  87 123 170 215 260 316 373
#     4  10  21  42  63  95 127 167 209 273 318 384
#     4  11  24  42  63  94 128 167 217 269 324 387
#
# _framework density 21.455390999999999
#
# number of rings (size 3 to 8) (size 9 to 14) (size 15 to 20)
#    0.000    1.200    8.000    1.800    0.000    3.800 
#    0.000    0.000   13.200    3.600    0.000    0.000 
#    0.000    0.000    0.000    0.000    0.000    0.000 
#
# Total GULP energy -991095.748937 kJ/mol
# GULP energy per Si atom -12388.696862 kJ/mol
# Density = 2.140656 g / cm^3
# Si number density = 21.455391 Si / 1000 Ang^3
#
#
#
# Elastic Constant Matrix: (Units=GPa)
#
#
# Indices 1 2 3 4 5 6 
#
# 1 99.9239 67.6599 26.7732 0.0000 0.0000 0.0000
# 2 67.6599 99.9236 26.7722 0.0000 0.0000 0.0000
# 3 26.7732 26.7722 117.4926 0.0000 0.0000 0.0000
# 4 0.0000 0.0000 0.0000 12.0289 0.0000 0.0000
# 5 0.0000 0.0000 0.0000 0.0000 12.0293 0.0000
# 6 0.0000 0.0000 0.0000 0.0000 0.0000 9.3856
#
#
#
# Elastic Compliance Matrix: (Units=1/GPa)
#
#
# Indices 1 2 3 4 5 6 
#
# 1 0.018715 -0.012279 -0.001467 0.000000 0.000000 0.000000
# 2 -0.012279 0.018715 -0.001466 0.000000 0.000000 0.000000
# 3 -0.001467 -0.001466 0.009180 0.000000 0.000000 0.000000
# 4 0.000000 0.000000 0.000000 0.083133 0.000000 0.000000
# 5 0.000000 0.000000 0.000000 0.000000 0.083130 0.000000
# 6 0.000000 0.000000 0.000000 0.000000 0.000000 0.106546
#
#
# Mechanical properties :
#
#
# Convention : Reuss Voigt Hill
#
# Bulk Modulus (GPa) = 61.78559 62.19452 61.99006
# Shear Modulus (GPa) = 14.07505 19.76443 16.91974
#
# Velocity S-wave (km/s) = 2.56406 3.03840 2.81125
# Velocity P-wave (km/s) = 6.13397 6.43117 6.28433
#
# Compressibility (1/GPa) = 0.01618500
#
# Stress axis : x y z
#
# Youngs Moduli (GPa) = 53.43280 53.43289 108.93835
#
# Poissons Ratio (x) = 0.65612 0.15977
# Poissons Ratio (y) = 0.65612 0.15974
# Poissons Ratio (z) = 0.07837 0.07835
#
# Static dielectric constant tensor:
#      x y z
#    x 3.811550 0.000000 0.000000 
#    y 0.000000 3.811560 0.000000 
#    z 0.000000 0.000000 4.291410 
# 
# 
# High freq. dielectric constant tensor:
#      x y z
#    x 1.824820 0.000000 0.000000 
#    y 0.000000 1.824820 0.000000 
#    z 0.000000 0.000000 1.863390 
# 
# From -- ./inp_files/4866.got.cif
#   From: 2010.03.12/outbox.cif.g09.slc.cpg/sg141_3_cif.got.tgz:4866.got - 2010.04.03 13:18:35.
