data_PCOD8320839
_publ_section_title
;
Structure prediction by ZEFSAII (Michael W. Deem and Ramdas Pophale) SiO2 
 PCOD8320839
Probable space group: I 41/A M D
;
_chemical_formula_sum "Si O2"
_cell_formula_units_Z 112
_cell_length_a 24.023139
_cell_length_b 24.023139
_cell_length_c 10.262276
_cell_angle_alpha 90.000000
_cell_angle_beta 90.000000
_cell_angle_gamma 90.000000
_cell_volume 5922.474493
_symmetry_space_group_name_H-M "I 41/A M D"
_symmetry_group_IT_number 141
_space_group.IT_coordinate_system_code '2'
_symmetry_cell_setting 'tetragonal'
loop_
_space_group_symop_operation_xyz
x,y,z
1/4-y,3/4+x,1/4+z
-x,1/2-y,z
1/4+y,1/4-x,3/4+z
x,-y,-z
-x,1/2+y,-z
1/4+y,3/4+x,1/4-z
1/4-y,1/4-x,3/4-z
-x,-y,-z
3/4+y,1/4-x,3/4-z
x,1/2+y,-z
3/4-y,3/4+x,1/4-z
-x,y,z
x,1/2-y,z
3/4-y,1/4-x,3/4+z
3/4+y,3/4+x,1/4+z
1/2+x,1/2+y,1/2+z
3/4-y,1/4+x,3/4+z
1/2-x,-y,1/2+z
3/4+y,3/4-x,1/4+z
1/2+x,1/2-y,1/2-z
1/2-x,y,1/2-z
3/4+y,1/4+x,3/4-z
3/4-y,3/4-x,1/4-z
1/2-x,1/2-y,1/2-z
1/4+y,3/4-x,1/4-z
1/2+x,y,1/2-z
1/4-y,1/4+x,3/4-z
1/2-x,1/2+y,1/2+z
1/2+x,-y,1/2+z
1/4-y,3/4-x,1/4+z
1/4+y,1/4+x,3/4+z
loop_
_atom_site_type_symbol
_atom_site_label
_atom_site_fract_x
_atom_site_fract_y
_atom_site_fract_z
Si Si1 0.937609 0.491187 0.726866
Si Si2 0.635402 0.881519 0.522578
Si Si3 0.366448 0.684296 0.977756
Si Si4 0.894198 0.500000 0.000000
O O1 0.897246 0.442272 0.676334
O O2 0.918714 0.553194 0.682644
O O3 0.000000 0.478343 0.677342
O O4 0.936567 0.489722 0.882602
O O5 0.615024 0.865024 0.375000
O O6 0.587446 0.868282 0.627338
O O7 0.646770 0.947781 0.521505
O O8 0.374442 0.750000 0.981081
O O9 0.408602 0.658602 0.875000
#
# Coordination Sequence:
#
# PCOD8320839 Si02
#       4
#    32  32  32  16
#     4   9  17  31  53  78 103 134 175 218 258 306
#     4   9  18  33  56  84 108 134 173 217 259 307
#     4  10  22  39  55  74 106 145 178 212 263 319
#     4   8  15  30  50  78 112 140 163 202 266 322
#
# _framework density 18.911014000000002
#
# number of rings (size 3 to 8) (size 9 to 14) (size 15 to 20)
#    0.000    2.857    0.000    0.429    0.000    9.429 
#    0.000   10.000    0.000    0.000    0.000    6.000 
#    0.000    0.000    0.000    0.000    0.000    0.000 
#
# Total GULP energy -693830.840202 kJ/mol
# GULP energy per Si atom -12389.836432 kJ/mol
# Density = 1.886797 g / cm^3
# Si number density = 18.911014 Si / 1000 Ang^3
#
#
#
# Elastic Constant Matrix: (Units=GPa)
#
#
# Indices 1 2 3 4 5 6 
#
# 1 111.8713 69.6395 50.1821 0.0000 0.0000 0.0000
# 2 69.6395 111.8713 50.1821 0.0000 0.0000 0.0000
# 3 50.1821 50.1821 87.4679 0.0000 0.0000 0.0000
# 4 0.0000 0.0000 0.0000 21.5455 0.0000 0.0000
# 5 0.0000 0.0000 0.0000 0.0000 21.5455 0.0000
# 6 0.0000 0.0000 0.0000 0.0000 0.0000 27.5802
#
#
#
# Elastic Compliance Matrix: (Units=1/GPa)
#
#
# Indices 1 2 3 4 5 6 
#
# 1 0.015874 -0.007805 -0.004629 0.000000 0.000000 0.000000
# 2 -0.007805 0.015874 -0.004629 0.000000 0.000000 0.000000
# 3 -0.004629 -0.004629 0.016745 0.000000 0.000000 0.000000
# 4 0.000000 0.000000 0.000000 0.046413 0.000000 0.000000
# 5 0.000000 0.000000 0.000000 0.000000 0.046413 0.000000
# 6 0.000000 0.000000 0.000000 0.000000 0.000000 0.036258
#
#
# Mechanical properties :
#
#
# Convention : Reuss Voigt Hill
#
# Bulk Modulus (GPa) = 69.61215 72.35752 70.98484
# Shear Modulus (GPa) = 23.09542 23.54803 23.32172
#
# Velocity S-wave (km/s) = 3.49846 3.53257 3.51555
# Velocity P-wave (km/s) = 7.29446 7.41511 7.35504
#
# Compressibility (1/GPa) = 0.01436531
#
# Stress axis : x y z
#
# Youngs Moduli (GPa) = 62.99621 62.99621 59.72033
#
# Poissons Ratio (x) = 0.49168 0.27647
# Poissons Ratio (y) = 0.49168 0.27647
# Poissons Ratio (z) = 0.29163 0.29163
#
# Static dielectric constant tensor:
#      x y z
#    x 3.460980 0.000000 0.000000 
#    y 0.000000 3.460980 0.000000 
#    z 0.000000 0.000000 3.466240 
# 
# 
# High freq. dielectric constant tensor:
#      x y z
#    x 1.724060 0.000000 0.000000 
#    y 0.000000 1.724060 0.000000 
#    z 0.000000 0.000000 1.731850 
# 
# From -- ./inp_files/4443.got.cif
#   From: 2010.03.12/outbox.cif.g09.slc.cpg/sg141_3_cif.got.tgz:4443.got - 2010.04.03 13:18:35.
