data_PCOD8320633
_publ_section_title
;
Structure prediction by ZEFSAII (Michael W. Deem and Ramdas Pophale) SiO2 
 PCOD8320633
Probable space group: I 41/A M D
;
_chemical_formula_sum "Si O2"
_cell_formula_units_Z 176
_cell_length_a 27.457193
_cell_length_b 27.457193
_cell_length_c 12.184471
_cell_angle_alpha 90.000000
_cell_angle_beta 90.000000
_cell_angle_gamma 90.000000
_cell_volume 9185.841585
_symmetry_space_group_name_H-M "I 41/A M D"
_symmetry_group_IT_number 141
_space_group.IT_coordinate_system_code '2'
_symmetry_cell_setting 'tetragonal'
loop_
_space_group_symop_operation_xyz
x,y,z
1/4-y,3/4+x,1/4+z
-x,1/2-y,z
1/4+y,1/4-x,3/4+z
x,-y,-z
-x,1/2+y,-z
1/4+y,3/4+x,1/4-z
1/4-y,1/4-x,3/4-z
-x,-y,-z
3/4+y,1/4-x,3/4-z
x,1/2+y,-z
3/4-y,3/4+x,1/4-z
-x,y,z
x,1/2-y,z
3/4-y,1/4-x,3/4+z
3/4+y,3/4+x,1/4+z
1/2+x,1/2+y,1/2+z
3/4-y,1/4+x,3/4+z
1/2-x,-y,1/2+z
3/4+y,3/4-x,1/4+z
1/2+x,1/2-y,1/2-z
1/2-x,y,1/2-z
3/4+y,1/4+x,3/4-z
3/4-y,3/4-x,1/4-z
1/2-x,1/2-y,1/2-z
1/4+y,3/4-x,1/4-z
1/2+x,y,1/2-z
1/4-y,1/4+x,3/4-z
1/2-x,1/2+y,1/2+z
1/2+x,-y,1/2+z
1/4-y,3/4-x,1/4+z
1/4+y,1/4+x,3/4+z
loop_
_atom_site_type_symbol
_atom_site_label
_atom_site_fract_x
_atom_site_fract_y
_atom_site_fract_z
Si Si1 0.695506 0.304950 0.015781
Si Si2 0.107762 0.643326 0.819678
Si Si3 0.619277 0.692345 0.446681
Si Si4 0.555794 0.194207 0.125000
Si Si5 0.301274 0.114476 0.196814
Si Si6 0.055343 0.529775 0.100740
O O1 0.684174 0.250000 0.053022
O O2 0.698614 0.337055 0.124181
O O3 0.653134 0.321574 0.931404
O O4 0.747544 0.308389 0.958973
O O5 0.090067 0.681346 0.727447
O O6 0.161498 0.623653 0.795150
O O7 0.110276 0.668902 0.935694
O O8 0.572542 0.677459 0.375000
O O9 0.622406 0.750000 0.461221
O O10 0.667912 0.671564 0.384583
O O11 0.564903 0.250000 0.091397
O O12 0.318074 0.068074 0.125000
O O13 0.250000 0.101866 0.250000
O O14 0.000000 0.539841 0.063384
O O15 0.081451 0.500000 0.000000
#
# Coordination Sequence:
#
# PCOD8320633 Si02
#       6
#    32  32  32  16  32  32
#     4  10  19  33  57  86 115 148 191 242 300 357
#     4  11  21  37  58  85 119 156 198 253 297 368
#     4  11  24  39  56  80 114 155 201 248 298 364
#     4  11  22  36  56  84 124 170 206 242 300 376
#     4  10  21  37  59  87 118 154 192 248 311 369
#     4   9  18  34  55  79 105 141 189 245 304 355
#
# _framework density 19.159921000000001
#
# number of rings (size 3 to 8) (size 9 to 14) (size 15 to 20)
#    0.000    1.727    2.727    3.273    0.000    4.182 
#    0.000    0.000    0.000   14.182    0.000    0.000 
#    0.000    0.000    0.000    0.000    0.000    0.000 
#
# Total GULP energy -1090985.399741 kJ/mol
# GULP energy per Si atom -12397.561361 kJ/mol
# Density = 1.911631 g / cm^3
# Si number density = 19.159921 Si / 1000 Ang^3
#
#
#
# Elastic Constant Matrix: (Units=GPa)
#
#
# Indices 1 2 3 4 5 6 
#
# 1 100.0094 53.2415 45.6510 0.0000 0.0000 0.0000
# 2 53.2415 100.0012 45.6501 0.0000 0.0000 0.0000
# 3 45.6510 45.6501 122.1066 0.0000 0.0000 0.0000
# 4 0.0000 0.0000 0.0000 23.9008 0.0000 0.0000
# 5 0.0000 0.0000 0.0000 0.0000 23.9021 0.0000
# 6 0.0000 0.0000 0.0000 0.0000 0.0000 17.8961
#
#
#
# Elastic Compliance Matrix: (Units=1/GPa)
#
#
# Indices 1 2 3 4 5 6 
#
# 1 0.014889 -0.006494 -0.003139 0.000000 0.000000 0.000000
# 2 -0.006494 0.014890 -0.003139 0.000000 0.000000 0.000000
# 3 -0.003139 -0.003139 0.010536 0.000000 0.000000 0.000000
# 4 0.000000 0.000000 0.000000 0.041840 0.000000 0.000000
# 5 0.000000 0.000000 0.000000 0.000000 0.041837 0.000000
# 6 0.000000 0.000000 0.000000 0.000000 0.000000 0.055878
#
#
# Mechanical properties :
#
#
# Convention : Reuss Voigt Hill
#
# Bulk Modulus (GPa) = 67.69360 67.91137 67.80249
# Shear Modulus (GPa) = 23.77122 24.97812 24.37467
#
# Velocity S-wave (km/s) = 3.52614 3.61455 3.57062
# Velocity P-wave (km/s) = 7.21012 7.27608 7.24317
#
# Compressibility (1/GPa) = 0.01477244
#
# Stress axis : x y z
#
# Youngs Moduli (GPa) = 67.16355 67.15744 94.90902
#
# Poissons Ratio (x) = 0.43614 0.29787
# Poissons Ratio (y) = 0.43618 0.29791
# Poissons Ratio (z) = 0.21079 0.21080
#
# Static dielectric constant tensor:
#      x y z
#    x 3.607780 0.000000 0.000000 
#    y 0.000000 3.607750 0.000000 
#    z 0.000000 0.000000 3.543900 
# 
# 
# High freq. dielectric constant tensor:
#      x y z
#    x 1.741260 0.000000 0.000000 
#    y 0.000000 1.741260 0.000000 
#    z 0.000000 0.000000 1.746930 
# 
# From -- ./inp_files/5004.got.cif
#   From: 2010.03.12/outbox.cif.g09.slc.cpg/sg141_3_cif.got.tgz:5004.got - 2010.04.03 13:18:35.
