data_PCOD8320687
_publ_section_title
;
Structure prediction by ZEFSAII (Michael W. Deem and Ramdas Pophale) SiO2 
 PCOD8320687
Probable space group: I 41/A M D
;
_chemical_formula_sum "Si O2"
_cell_formula_units_Z 160
_cell_length_a 16.318590
_cell_length_b 16.318590
_cell_length_c 32.419610
_cell_angle_alpha 90.000000
_cell_angle_beta 90.000000
_cell_angle_gamma 90.000000
_cell_volume 8633.224771
_symmetry_space_group_name_H-M "I 41/A M D"
_symmetry_group_IT_number 141
_space_group.IT_coordinate_system_code '2'
_symmetry_cell_setting 'tetragonal'
loop_
_space_group_symop_operation_xyz
x,y,z
1/4-y,3/4+x,1/4+z
-x,1/2-y,z
1/4+y,1/4-x,3/4+z
x,-y,-z
-x,1/2+y,-z
1/4+y,3/4+x,1/4-z
1/4-y,1/4-x,3/4-z
-x,-y,-z
3/4+y,1/4-x,3/4-z
x,1/2+y,-z
3/4-y,3/4+x,1/4-z
-x,y,z
x,1/2-y,z
3/4-y,1/4-x,3/4+z
3/4+y,3/4+x,1/4+z
1/2+x,1/2+y,1/2+z
3/4-y,1/4+x,3/4+z
1/2-x,-y,1/2+z
3/4+y,3/4-x,1/4+z
1/2+x,1/2-y,1/2-z
1/2-x,y,1/2-z
3/4+y,1/4+x,3/4-z
3/4-y,3/4-x,1/4-z
1/2-x,1/2-y,1/2-z
1/4+y,3/4-x,1/4-z
1/2+x,y,1/2-z
1/4-y,1/4+x,3/4-z
1/2-x,1/2+y,1/2+z
1/2+x,-y,1/2+z
1/4-y,3/4-x,1/4+z
1/4+y,1/4+x,3/4+z
loop_
_atom_site_type_symbol
_atom_site_label
_atom_site_fract_x
_atom_site_fract_y
_atom_site_fract_z
Si Si1 0.164260 0.554545 0.431969
Si Si2 0.091448 0.109561 0.417962
Si Si3 0.817689 0.954750 0.959843
Si Si4 0.410642 0.933385 0.757867
Si Si5 0.402947 0.346049 0.855329
O O1 0.099717 0.481303 0.435995
O O2 0.258076 0.517628 0.433931
O O3 0.142864 0.609991 0.471086
O O4 0.143708 0.605596 0.391335
O O5 0.140789 0.109212 0.375000
O O6 0.123788 0.171050 0.452784
O O7 0.000000 0.134356 0.406965
O O8 0.765597 0.880686 0.977389
O O9 0.886475 0.907036 0.933545
O O10 0.857470 0.000000 0.000000
O O11 0.500000 0.954414 0.740509
O O12 0.500000 0.372781 0.849709
O O13 0.400376 0.250000 0.864763
#
# Coordination Sequence:
#
# PCOD8320687 Si02
#       5
#    32  32  32  32  32
#     4  10  20  35  54  74  99 135 174 209 250 305
#     4  11  22  34  49  69  96 133 175 214 250 294
#     4   9  19  36  57  76  98 134 177 213 245 296
#     4  10  20  34  52  74 101 131 166 210 256 302
#     4  11  22  34  52  80 111 137 164 208 266 316
#
# _framework density 18.533052999999999
#
# number of rings (size 3 to 8) (size 9 to 14) (size 15 to 20)
#    0.000    1.800    0.000    7.200    0.000    4.200 
#    0.000    0.000    0.000    0.000    0.000    0.000 
#    0.000    8.000    0.000    0.000    0.000    0.000 
#
# Total GULP energy -991066.269429 kJ/mol
# GULP energy per Si atom -12388.328368 kJ/mol
# Density = 1.849087 g / cm^3
# Si number density = 18.533053 Si / 1000 Ang^3
#
#
#
# Elastic Constant Matrix: (Units=GPa)
#
#
# Indices 1 2 3 4 5 6 
#
# 1 85.0611 21.7721 31.4127 0.0000 0.0000 0.0000
# 2 21.7721 85.0617 31.4128 0.0000 0.0000 0.0000
# 3 31.4127 31.4128 91.5057 0.0000 0.0000 0.0000
# 4 0.0000 0.0000 0.0000 -61.9939 0.0000 0.0000
# 5 0.0000 0.0000 0.0000 0.0000 -62.0326 0.0000
# 6 0.0000 0.0000 0.0000 0.0000 0.0000 12.6818
#
#
#
# Elastic Compliance Matrix: (Units=1/GPa)
#
#
# Indices 1 2 3 4 5 6 
#
# 1 0.013764 -0.002036 -0.004026 0.000000 0.000000 0.000000
# 2 -0.002036 0.013764 -0.004026 0.000000 0.000000 0.000000
# 3 -0.004026 -0.004026 0.013692 0.000000 0.000000 0.000000
# 4 0.000000 0.000000 0.000000 -0.016131 0.000000 0.000000
# 5 0.000000 0.000000 0.000000 0.000000 -0.016121 0.000000
# 6 0.000000 0.000000 0.000000 0.000000 0.000000 0.078853
#
#
# Mechanical properties :
#
#
# Convention : Reuss Voigt Hill
#
# Bulk Modulus (GPa) = 47.51912 47.86928 47.69420
# Shear Modulus (GPa) = 43.47275 -10.46687 16.50294
#
# Velocity S-wave (km/s) = 4.84848 -2.37906 2.98729
# Velocity P-wave (km/s) = 7.55246 4.28236 6.13915
#
# Compressibility (1/GPa) = 0.02104416
#
# Stress axis : x y z
#
# Youngs Moduli (GPa) = 72.65198 72.65245 73.03290
#
# Poissons Ratio (x) = 0.14794 0.29403
# Poissons Ratio (y) = 0.14794 0.29403
# Poissons Ratio (z) = 0.29250 0.29250
#
# Static dielectric constant tensor:
#      x y z
#    x 3.352510 0.000000 0.000000 
#    y 0.000000 3.352510 0.000000 
#    z 0.000000 0.000000 3.917280 
# 
# 
# High freq. dielectric constant tensor:
#      x y z
#    x 1.707920 0.000000 0.000000 
#    y 0.000000 1.707920 0.000000 
#    z 0.000000 0.000000 1.729740 
# 
# From -- ./inp_files/14271.got.cif
#   From: 2010.03.12/outbox.cif.g09.slc.cpg/sg141_8_cif.got.tgz:14271.got - 2010.04.03 13:18:35.
