data_PCOD8320008
_publ_section_title
;
Structure prediction by ZEFSAII (Michael W. Deem and Ramdas Pophale) SiO2 
 PCOD8320008
Probable space group: I 4/M M M
;
_chemical_formula_sum "Si O2"
_cell_formula_units_Z 128
_cell_length_a 18.495370
_cell_length_b 18.495370
_cell_length_c 27.231154
_cell_angle_alpha 90.000000
_cell_angle_beta 90.000000
_cell_angle_gamma 90.000000
_cell_volume 9315.198071
_symmetry_space_group_name_H-M "I 4/M M M"
_symmetry_group_IT_number 139
_symmetry_cell_setting 'tetragonal'
loop_
_space_group_symop_operation_xyz
x,y,z
-y,x,z
-x,-y,z
y,-x,z
x,-y,-z
-x,y,-z
y,x,-z
-y,-x,-z
-x,-y,-z
y,-x,-z
x,y,-z
-y,x,-z
-x,y,z
x,-y,z
-y,-x,z
y,x,z
1/2+x,1/2+y,1/2+z
1/2-y,1/2+x,1/2+z
1/2-x,1/2-y,1/2+z
1/2+y,1/2-x,1/2+z
1/2+x,1/2-y,1/2-z
1/2-x,1/2+y,1/2-z
1/2+y,1/2+x,1/2-z
1/2-y,1/2-x,1/2-z
1/2-x,1/2-y,1/2-z
1/2+y,1/2-x,1/2-z
1/2+x,1/2+y,1/2-z
1/2-y,1/2+x,1/2-z
1/2-x,1/2+y,1/2+z
1/2+x,1/2-y,1/2+z
1/2-y,1/2-x,1/2+z
1/2+y,1/2+x,1/2+z
loop_
_atom_site_type_symbol
_atom_site_label
_atom_site_fract_x
_atom_site_fract_y
_atom_site_fract_z
Si Si1 0.718771 0.085986 0.054080
Si Si2 0.083447 0.199286 0.149771
Si Si3 0.079197 0.585709 0.394413
Si Si4 0.583367 0.846162 0.295056
O O1 0.775795 0.109902 0.095488
O O2 0.638769 0.116496 0.067530
O O3 0.714885 0.000000 0.054467
O O4 0.741276 0.115046 0.000000
O O5 0.131110 0.131110 0.166274
O O6 0.094739 0.263278 0.188863
O O7 0.000000 0.175033 0.148476
O O8 0.076985 0.500000 0.398885
O O9 0.101477 0.606675 0.339284
O O10 0.000000 0.618744 0.406327
O O11 0.500000 0.859784 0.280208
O O12 0.635887 0.864114 0.250000
#
# Coordination Sequence:
#
# PCOD8320008 Si02
#       4
#    32  32  32  32
#     4   8  14  24  36  50  69  91 114 144 181 215
#     4   9  18  30  41  54  70  89 119 155 188 223
#     4   8  13  20  31  50  74  97 120 141 162 198
#     4   9  16  25  38  56  77  99 120 143 173 210
#
# _framework density 13.740985999999999
#
# number of rings (size 3 to 8) (size 9 to 14) (size 15 to 20)
#    0.000    3.500    0.000    3.750    0.000    3.000 
#    0.000    2.500    0.000    0.000    0.000    3.500 
#    0.000    0.000    0.000    0.000    0.000    0.000 
#
# Total GULP energy -792992.391518 kJ/mol
# GULP energy per Si atom -12390.506117 kJ/mol
# Density = 1.370971 g / cm^3
# Si number density = 13.740986 Si / 1000 Ang^3
#
#
#
# Elastic Constant Matrix: (Units=GPa)
#
#
# Indices 1 2 3 4 5 6 
#
# 1 48.3647 30.5509 21.5793 0.0000 0.0000 0.0000
# 2 30.5509 48.3653 21.5796 0.0000 0.0000 0.0000
# 3 21.5793 21.5796 72.4376 0.0000 0.0000 0.0000
# 4 0.0000 0.0000 0.0000 10.5207 0.0000 0.0000
# 5 0.0000 0.0000 0.0000 0.0000 10.5204 0.0000
# 6 0.0000 0.0000 0.0000 0.0000 0.0000 15.7274
#
#
#
# Elastic Compliance Matrix: (Units=1/GPa)
#
#
# Indices 1 2 3 4 5 6 
#
# 1 0.035637 -0.020499 -0.004510 0.000000 0.000000 0.000000
# 2 -0.020499 0.035636 -0.004510 0.000000 0.000000 0.000000
# 3 -0.004510 -0.004510 0.016492 0.000000 0.000000 0.000000
# 4 0.000000 0.000000 0.000000 0.095051 0.000000 0.000000
# 5 0.000000 0.000000 0.000000 0.000000 0.095053 0.000000
# 6 0.000000 0.000000 0.000000 0.000000 0.000000 0.063583
#
#
# Mechanical properties :
#
#
# Convention : Reuss Voigt Hill
#
# Bulk Modulus (GPa) = 34.80773 35.17636 34.99205
# Shear Modulus (GPa) = 12.19319 13.71756 12.95538
#
# Velocity S-wave (km/s) = 2.98209 3.16301 3.07388
# Velocity P-wave (km/s) = 6.10274 6.24457 6.17406
#
# Compressibility (1/GPa) = 0.02872925
#
# Stress axis : x y z
#
# Youngs Moduli (GPa) = 28.06087 28.06115 60.63589
#
# Poissons Ratio (x) = 0.57521 0.27344
# Poissons Ratio (y) = 0.57521 0.27345
# Poissons Ratio (z) = 0.12654 0.12655
#
# Static dielectric constant tensor:
#      x y z
#    x 2.504520 0.000000 0.000000 
#    y 0.000000 2.504520 0.000000 
#    z 0.000000 0.000000 2.806480 
# 
# 
# High freq. dielectric constant tensor:
#      x y z
#    x 1.493000 0.000000 0.000000 
#    y 0.000000 1.493000 0.000000 
#    z 0.000000 0.000000 1.523910 
# 
# From -- ./inp_files/11299.got.cif
#   From: 2010.03.12/outbox.cif.g09.slc.cpg/sg139_6_cif.got.tgz:11299.got - 2010.04.08 09:46:31.
