data_PCOD8320356
_publ_section_title
;
Structure prediction by ZEFSAII (Michael W. Deem and Ramdas Pophale) SiO2 
 PCOD8320356
Probable space group: I 4/M C M
;
_chemical_formula_sum "Si O2"
_cell_formula_units_Z 176
_cell_length_a 19.218720
_cell_length_b 19.218720
_cell_length_c 26.750112
_cell_angle_alpha 90.000000
_cell_angle_beta 90.000000
_cell_angle_gamma 90.000000
_cell_volume 9880.399926
_symmetry_space_group_name_H-M "I 4/M C M"
_symmetry_group_IT_number 140
_symmetry_cell_setting 'tetragonal'
loop_
_space_group_symop_operation_xyz
x,y,z
-y,x,z
-x,-y,z
y,-x,z
x,-y,1/2-z
-x,y,1/2-z
y,x,1/2-z
-y,-x,1/2-z
-x,-y,-z
y,-x,-z
x,y,-z
-y,x,-z
-x,y,1/2+z
x,-y,1/2+z
-y,-x,1/2+z
y,x,1/2+z
1/2+x,1/2+y,1/2+z
1/2-y,1/2+x,1/2+z
1/2-x,1/2-y,1/2+z
1/2+y,1/2-x,1/2+z
1/2+x,1/2-y,-z
1/2-x,1/2+y,-z
1/2+y,1/2+x,-z
1/2-y,1/2-x,-z
1/2-x,1/2-y,1/2-z
1/2+y,1/2-x,1/2-z
1/2+x,1/2+y,1/2-z
1/2-y,1/2+x,1/2-z
1/2-x,1/2+y,z
1/2+x,1/2-y,z
1/2-y,1/2-x,z
1/2+y,1/2+x,z
loop_
_atom_site_type_symbol
_atom_site_label
_atom_site_fract_x
_atom_site_fract_y
_atom_site_fract_z
Si Si1 0.333359 0.053656 0.287474
Si Si2 0.248172 0.632100 0.889704
Si Si3 0.734632 0.651027 0.058434
Si Si4 0.555297 0.944704 0.441010
Si Si5 0.143581 0.760421 0.776555
Si Si6 0.018743 0.703096 0.603414
O O1 0.384724 0.115277 0.303454
O O2 0.266957 0.079633 0.256179
O O3 0.307043 0.016223 0.337109
O O4 0.372510 0.000000 0.250000
O O5 0.178462 0.678462 0.891681
O O6 0.309269 0.666389 0.922278
O O7 0.276190 0.622195 0.833392
O O8 0.231392 0.556694 0.913263
O O9 0.802845 0.697156 0.069842
O O10 0.742075 0.578253 0.087659
O O11 0.726349 0.636217 0.000000
O O12 0.555631 0.944370 0.500000
O O13 0.630811 0.966590 0.423237
O O14 0.500000 0.000000 0.419370
O O15 0.169221 0.830780 0.750000
O O16 0.203975 0.703975 0.776747
#
# Coordination Sequence:
#
# PCOD8320356 Si02
#       6
#    32  32  32  16  32  32
#     4  11  21  33  49  78 113 153 190 220 269 344
#     4  10  21  36  56  84 115 148 192 245 290 341
#     4  10  21  38  59  82 109 149 199 244 293 348
#     4  11  24  38  56  82 115 158 200 235 290 357
#     4   9  17  31  52  75 107 144 185 228 278 332
#     4  12  21  37  59  82 119 154 193 240 291 348
#
# _framework density 17.813044999999999
#
# number of rings (size 3 to 8) (size 9 to 14) (size 15 to 20)
#    0.000    1.545    3.636    2.182    0.000    5.273 
#    0.000    1.818    0.000    0.545    0.000    1.273 
#    0.000    0.364    0.000    0.000    0.000    0.000 
#
# Total GULP energy -1091346.975620 kJ/mol
# GULP energy per Si atom -12401.670178 kJ/mol
# Density = 1.777250 g / cm^3
# Si number density = 17.813045 Si / 1000 Ang^3
#
#
#
# Elastic Constant Matrix: (Units=GPa)
#
#
# Indices 1 2 3 4 5 6 
#
# 1 93.6473 51.0104 30.0286 0.0000 0.0000 0.0000
# 2 51.0104 93.6466 30.0273 0.0000 0.0000 0.0000
# 3 30.0286 30.0273 77.6548 0.0000 0.0000 0.0000
# 4 0.0000 0.0000 0.0000 24.7114 0.0000 0.0000
# 5 0.0000 0.0000 0.0000 0.0000 24.7109 0.0000
# 6 0.0000 0.0000 0.0000 0.0000 0.0000 22.9320
#
#
#
# Elastic Compliance Matrix: (Units=1/GPa)
#
#
# Indices 1 2 3 4 5 6 
#
# 1 0.015845 -0.007610 -0.003185 0.000000 0.000000 0.000000
# 2 -0.007610 0.015844 -0.003184 0.000000 0.000000 0.000000
# 3 -0.003185 -0.003184 0.015340 0.000000 0.000000 0.000000
# 4 0.000000 0.000000 0.000000 0.040467 0.000000 0.000000
# 5 0.000000 0.000000 0.000000 0.000000 0.040468 0.000000
# 6 0.000000 0.000000 0.000000 0.000000 0.000000 0.043607
#
#
# Mechanical properties :
#
#
# Convention : Reuss Voigt Hill
#
# Bulk Modulus (GPa) = 52.43099 54.12015 53.27557
# Shear Modulus (GPa) = 24.28537 24.72970 24.50753
#
# Velocity S-wave (km/s) = 3.69636 3.73002 3.71323
# Velocity P-wave (km/s) = 6.90763 6.99993 6.95393
#
# Compressibility (1/GPa) = 0.01907269
#
# Stress axis : x y z
#
# Youngs Moduli (GPa) = 63.11332 63.11363 65.18844
#
# Poissons Ratio (x) = 0.48027 0.20759
# Poissons Ratio (y) = 0.48027 0.20757
# Poissons Ratio (z) = 0.20099 0.20096
#
# Static dielectric constant tensor:
#      x y z
#    x 3.227010 0.000000 0.000000 
#    y 0.000000 3.227010 0.000000 
#    z 0.000000 0.000000 3.422180 
# 
# 
# High freq. dielectric constant tensor:
#      x y z
#    x 1.671120 0.000000 0.000000 
#    y 0.000000 1.671120 0.000000 
#    z 0.000000 0.000000 1.705330 
# 
# From -- ./inp_files/10709.got.cif
#   From: 2010.06.25/outbox.cif.g09.slc.cpg/sg140_6_cif.got.tgz:10709.got - 2010.06.28 10:53:23.
