data_PCOD8320880
_publ_section_title
;
Structure prediction by ZEFSAII (Michael W. Deem and Ramdas Pophale) SiO2 
 PCOD8320880
Probable space group: I 41/A M D
;
_chemical_formula_sum "Si O2"
_cell_formula_units_Z 160
_cell_length_a 19.876564
_cell_length_b 19.876564
_cell_length_c 18.949403
_cell_angle_alpha 90.000000
_cell_angle_beta 90.000000
_cell_angle_gamma 90.000000
_cell_volume 7486.488381
_symmetry_space_group_name_H-M "I 41/A M D"
_symmetry_group_IT_number 141
_space_group.IT_coordinate_system_code '2'
_symmetry_cell_setting 'tetragonal'
loop_
_space_group_symop_operation_xyz
x,y,z
1/4-y,3/4+x,1/4+z
-x,1/2-y,z
1/4+y,1/4-x,3/4+z
x,-y,-z
-x,1/2+y,-z
1/4+y,3/4+x,1/4-z
1/4-y,1/4-x,3/4-z
-x,-y,-z
3/4+y,1/4-x,3/4-z
x,1/2+y,-z
3/4-y,3/4+x,1/4-z
-x,y,z
x,1/2-y,z
3/4-y,1/4-x,3/4+z
3/4+y,3/4+x,1/4+z
1/2+x,1/2+y,1/2+z
3/4-y,1/4+x,3/4+z
1/2-x,-y,1/2+z
3/4+y,3/4-x,1/4+z
1/2+x,1/2-y,1/2-z
1/2-x,y,1/2-z
3/4+y,1/4+x,3/4-z
3/4-y,3/4-x,1/4-z
1/2-x,1/2-y,1/2-z
1/4+y,3/4-x,1/4-z
1/2+x,y,1/2-z
1/4-y,1/4+x,3/4-z
1/2-x,1/2+y,1/2+z
1/2+x,-y,1/2+z
1/4-y,3/4-x,1/4+z
1/4+y,1/4+x,3/4+z
loop_
_atom_site_type_symbol
_atom_site_label
_atom_site_fract_x
_atom_site_fract_y
_atom_site_fract_z
Si Si1 0.285508 0.173367 0.018673
Si Si2 0.153610 0.634939 0.923068
Si Si3 0.074800 0.171489 0.535282
Si Si4 0.744005 0.672900 0.142070
Si Si5 0.888306 0.324016 0.802428
O O1 0.282530 0.250000 0.042830
O O2 0.235714 0.135116 0.073707
O O3 0.364723 0.149561 0.018524
O O4 0.255174 0.161636 0.941460
O O5 0.125445 0.672778 0.854281
O O6 0.126844 0.559362 0.926950
O O7 0.124321 0.670491 0.994244
O O8 0.087034 0.250000 0.556599
O O9 0.000000 0.162734 0.501005
O O10 0.725120 0.750000 0.159863
O O11 0.814019 0.651804 0.175535
O O12 0.930057 0.319944 0.875000
O O13 0.887762 0.250000 0.768262
#
# Coordination Sequence:
#
# PCOD8320880 Si02
#       5
#    32  32  32  32  32
#     4   9  17  29  44  64  89 119 161 208 249 287
#     4  11  18  28  47  64  85 123 167 208 247 290
#     4   9  18  31  46  65  92 129 171 209 243 290
#     4   9  18  32  44  60  89 126 165 207 252 291
#     4  11  21  31  42  60  90 128 168 211 250 284
#
# _framework density 21.371836999999999
#
# number of rings (size 3 to 8) (size 9 to 14) (size 15 to 20)
#    0.000    2.200    2.000    4.200    0.000    2.600 
#    0.000    0.000    0.000    0.000    0.000    0.000 
#    0.000    3.200    0.000    7.200    0.000    3.400 
#
# Total GULP energy -991111.664775 kJ/mol
# GULP energy per Si atom -12388.895810 kJ/mol
# Density = 2.132319 g / cm^3
# Si number density = 21.371837 Si / 1000 Ang^3
#
#
#
# Elastic Constant Matrix: (Units=GPa)
#
#
# Indices 1 2 3 4 5 6 
#
# 1 116.5737 48.8617 19.7960 0.0000 0.0000 0.0000
# 2 48.8617 116.5757 19.7975 0.0000 0.0000 0.0000
# 3 19.7960 19.7975 21.2364 0.0000 0.0000 0.0000
# 4 0.0000 0.0000 0.0000 21.1227 0.0000 0.0000
# 5 0.0000 0.0000 0.0000 0.0000 21.1226 0.0000
# 6 0.0000 0.0000 0.0000 0.0000 0.0000 24.6610
#
#
#
# Elastic Compliance Matrix: (Units=1/GPa)
#
#
# Indices 1 2 3 4 5 6 
#
# 1 0.011274 -0.003494 -0.007252 0.000000 0.000000 0.000000
# 2 -0.003494 0.011274 -0.007254 0.000000 0.000000 0.000000
# 3 -0.007252 -0.007254 0.060612 0.000000 0.000000 0.000000
# 4 0.000000 0.000000 0.000000 0.047342 0.000000 0.000000
# 5 0.000000 0.000000 0.000000 0.000000 0.047343 0.000000
# 6 0.000000 0.000000 0.000000 0.000000 0.000000 0.040550
#
#
# Mechanical properties :
#
#
# Convention : Reuss Voigt Hill
#
# Bulk Modulus (GPa) = 21.20421 47.92180 34.56300
# Shear Modulus (GPa) = 18.51065 24.44333 21.47699
#
# Velocity S-wave (km/s) = 2.94619 3.38556 3.17349
# Velocity P-wave (km/s) = 4.63859 6.14445 5.44384
#
# Compressibility (1/GPa) = 0.04716045
#
# Stress axis : x y z
#
# Youngs Moduli (GPa) = 88.69742 88.69669 16.49851
#
# Poissons Ratio (x) = 0.30989 0.11965
# Poissons Ratio (y) = 0.30990 0.11967
# Poissons Ratio (z) = 0.64327 0.64337
#
# Static dielectric constant tensor:
#      x y z
#    x 3.877740 0.000000 0.000000 
#    y 0.000000 3.877740 0.000000 
#    z 0.000000 0.000000 3.504780 
# 
# 
# High freq. dielectric constant tensor:
#      x y z
#    x 1.826100 0.000000 0.000000 
#    y 0.000000 1.826100 0.000000 
#    z 0.000000 0.000000 1.798560 
# 
# From -- ./inp_files/8555.got.cif
#   From: 2010.03.12/outbox.cif.g09.slc.cpg/sg141_5_cif.got.tgz:8555.got - 2010.04.03 13:18:35.
