data_PCOD8320498
_publ_section_title
;
Structure prediction by ZEFSAII (Michael W. Deem and Ramdas Pophale) SiO2 
 PCOD8320498
Probable space group: I 4/M C M
;
_chemical_formula_sum "Si O2"
_cell_formula_units_Z 176
_cell_length_a 23.073618
_cell_length_b 23.073618
_cell_length_c 15.748161
_cell_angle_alpha 90.000000
_cell_angle_beta 90.000000
_cell_angle_gamma 90.000000
_cell_volume 8384.192531
_symmetry_space_group_name_H-M "I 4/M C M"
_symmetry_group_IT_number 140
_symmetry_cell_setting 'tetragonal'
loop_
_space_group_symop_operation_xyz
x,y,z
-y,x,z
-x,-y,z
y,-x,z
x,-y,1/2-z
-x,y,1/2-z
y,x,1/2-z
-y,-x,1/2-z
-x,-y,-z
y,-x,-z
x,y,-z
-y,x,-z
-x,y,1/2+z
x,-y,1/2+z
-y,-x,1/2+z
y,x,1/2+z
1/2+x,1/2+y,1/2+z
1/2-y,1/2+x,1/2+z
1/2-x,1/2-y,1/2+z
1/2+y,1/2-x,1/2+z
1/2+x,1/2-y,-z
1/2-x,1/2+y,-z
1/2+y,1/2+x,-z
1/2-y,1/2-x,-z
1/2-x,1/2-y,1/2-z
1/2+y,1/2-x,1/2-z
1/2+x,1/2+y,1/2-z
1/2-y,1/2+x,1/2-z
1/2-x,1/2+y,z
1/2+x,1/2-y,z
1/2-y,1/2-x,z
1/2+y,1/2+x,z
loop_
_atom_site_type_symbol
_atom_site_label
_atom_site_fract_x
_atom_site_fract_y
_atom_site_fract_z
Si Si1 0.180663 0.509775 0.342415
Si Si2 0.781184 0.190303 0.398965
Si Si3 0.287001 0.559471 0.901182
Si Si4 0.499755 0.904233 0.500000
Si Si5 0.591585 0.509787 0.650134
Si Si6 0.778909 0.373821 0.594422
O O1 0.151326 0.500000 0.250000
O O2 0.233881 0.466173 0.349842
O O3 0.133856 0.499613 0.415422
O O4 0.207997 0.573435 0.343927
O O5 0.781898 0.193547 0.500000
O O6 0.721016 0.221016 0.366830
O O7 0.790543 0.125224 0.366269
O O8 0.836312 0.226725 0.365209
O O9 0.345023 0.521998 0.886885
O O10 0.271630 0.558872 0.000000
O O11 0.556949 0.943052 0.500000
O O12 0.441780 0.941780 0.500000
O O13 0.550689 0.562996 0.618487
O O14 0.595424 0.500000 0.750000
O O15 0.762793 0.397587 0.500000
O O16 0.836011 0.336011 0.586428
#
# Coordination Sequence:
#
# PCOD8320498 Si02
#       6
#    32  32  32  16  32  32
#     4  12  25  42  66 100 135 171 218 265 324 391
#     4   8  17  34  58  88 123 166 210 257 323 382
#     4  11  22  37  60  95 128 172 214 278 328 385
#     4  11  26  50  76 100 132 171 212 272 338 395
#     4   9  20  39  59  84 125 176 225 279 340 397
#     4   9  17  36  66  91 120 164 214 268 312 371
#
# _framework density 20.991885
#
# number of rings (size 3 to 8) (size 9 to 14) (size 15 to 20)
#    0.000    2.091    1.818    2.727    2.545    2.909 
#    0.000    1.818    0.000    2.182    0.000    0.000 
#    0.000    0.000    0.000    0.000    0.000    0.000 
#
# Total GULP energy -1090808.147704 kJ/mol
# GULP energy per Si atom -12395.547133 kJ/mol
# Density = 2.094411 g / cm^3
# Si number density = 20.991885 Si / 1000 Ang^3
#
#
#
# Elastic Constant Matrix: (Units=GPa)
#
#
# Indices 1 2 3 4 5 6 
#
# 1 134.6770 47.8696 41.2648 0.0000 0.0000 0.0000
# 2 47.8696 134.6781 41.2645 0.0000 0.0000 0.0000
# 3 41.2648 41.2645 92.9944 0.0000 0.0000 0.0000
# 4 0.0000 0.0000 0.0000 0.5567 0.0000 0.0000
# 5 0.0000 0.0000 0.0000 0.0000 0.5443 0.0000
# 6 0.0000 0.0000 0.0000 0.0000 0.0000 23.1123
#
#
#
# Elastic Compliance Matrix: (Units=1/GPa)
#
#
# Indices 1 2 3 4 5 6 
#
# 1 0.009186 -0.002333 -0.003041 0.000000 0.000000 0.000000
# 2 -0.002333 0.009186 -0.003041 0.000000 0.000000 0.000000
# 3 -0.003041 -0.003041 0.013452 0.000000 0.000000 0.000000
# 4 0.000000 0.000000 0.000000 1.796429 0.000000 0.000000
# 5 0.000000 0.000000 0.000000 0.000000 1.837272 0.000000
# 6 0.000000 0.000000 0.000000 0.000000 0.000000 0.043267
#
#
# Mechanical properties :
#
#
# Convention : Reuss Voigt Hill
#
# Bulk Modulus (GPa) = 66.69205 69.23860 67.96533
# Shear Modulus (GPa) = 1.34026 20.30602 10.82314
#
# Velocity S-wave (km/s) = 0.79991 3.11356 2.27312
# Velocity P-wave (km/s) = 5.71774 6.78092 6.27189
#
# Compressibility (1/GPa) = 0.01499429
#
# Stress axis : x y z
#
# Youngs Moduli (GPa) = 108.85796 108.85924 74.33870
#
# Poissons Ratio (x) = 0.25402 0.22605
# Poissons Ratio (y) = 0.25401 0.22605
# Poissons Ratio (z) = 0.33102 0.33102
#
# Static dielectric constant tensor:
#      x y z
#    x 3.950090 0.000000 0.000000 
#    y 0.000000 3.950090 0.000000 
#    z 0.000000 0.000000 3.562610 
# 
# 
# High freq. dielectric constant tensor:
#      x y z
#    x 1.826550 0.000000 0.000000 
#    y 0.000000 1.826550 0.000000 
#    z 0.000000 0.000000 1.800480 
# 
# From -- ./inp_files/4955.got.cif
#   From: 2010.06.25/outbox.cif.g09.slc.cpg/sg140_3_cif.got.tgz:4955.got - 2010.06.28 10:53:23.
