data_PCOD8320284
_publ_section_title
;
Structure prediction by ZEFSAII (Michael W. Deem and Ramdas Pophale) SiO2 
 PCOD8320284
Probable space group: I 4/M C M
;
_chemical_formula_sum "Si O2"
_cell_formula_units_Z 160
_cell_length_a 21.172854
_cell_length_b 21.172854
_cell_length_c 17.541051
_cell_angle_alpha 90.000000
_cell_angle_beta 90.000000
_cell_angle_gamma 90.000000
_cell_volume 7863.473306
_symmetry_space_group_name_H-M "I 4/M C M"
_symmetry_group_IT_number 140
_symmetry_cell_setting 'tetragonal'
loop_
_space_group_symop_operation_xyz
x,y,z
-y,x,z
-x,-y,z
y,-x,z
x,-y,1/2-z
-x,y,1/2-z
y,x,1/2-z
-y,-x,1/2-z
-x,-y,-z
y,-x,-z
x,y,-z
-y,x,-z
-x,y,1/2+z
x,-y,1/2+z
-y,-x,1/2+z
y,x,1/2+z
1/2+x,1/2+y,1/2+z
1/2-y,1/2+x,1/2+z
1/2-x,1/2-y,1/2+z
1/2+y,1/2-x,1/2+z
1/2+x,1/2-y,-z
1/2-x,1/2+y,-z
1/2+y,1/2+x,-z
1/2-y,1/2-x,-z
1/2-x,1/2-y,1/2-z
1/2+y,1/2-x,1/2-z
1/2+x,1/2+y,1/2-z
1/2-y,1/2+x,1/2-z
1/2-x,1/2+y,z
1/2+x,1/2-y,z
1/2-y,1/2-x,z
1/2+y,1/2+x,z
loop_
_atom_site_type_symbol
_atom_site_label
_atom_site_fract_x
_atom_site_fract_y
_atom_site_fract_z
Si Si1 0.412217 0.336870 0.910776
Si Si2 0.113388 0.712536 0.161920
Si Si3 0.188201 0.588307 0.668828
Si Si4 0.978132 0.377181 0.912381
Si Si5 0.181854 0.055248 0.588747
O O1 0.376723 0.285062 0.859654
O O2 0.378816 0.402609 0.889889
O O3 0.485151 0.337341 0.884878
O O4 0.404980 0.321646 0.000000
O O5 0.182896 0.682896 0.164102
O O6 0.077635 0.701627 0.241872
O O7 0.070492 0.680787 0.096604
O O8 0.157889 0.657889 0.654586
O O9 0.135625 0.538199 0.640793
O O10 0.254660 0.581092 0.626848
O O11 0.942696 0.442696 0.888986
O O12 0.000208 0.380166 0.000000
O O13 0.196368 0.056973 0.500000
#
# Coordination Sequence:
#
# PCOD8320284 Si02
#       5
#    32  32  32  32  32
#     4  10  21  39  63  89 119 154 197 247 298 356
#     4  10  21  37  59  86 118 159 200 238 288 350
#     4  11  23  38  58  87 124 161 200 246 297 351
#     4  10  20  35  58  87 118 156 200 243 291 347
#     4  10  22  39  61  89 118 155 198 244 300 356
#
# _framework density 20.347242000000001
#
# number of rings (size 3 to 8) (size 9 to 14) (size 15 to 20)
#    0.000    1.800    2.000    1.800    0.000    5.200 
#    0.000    7.000    0.000    3.600    0.000    2.800 
#    0.000    0.000    0.000    0.000    0.000    0.000 
#
# Total GULP energy -991907.607746 kJ/mol
# GULP energy per Si atom -12398.845097 kJ/mol
# Density = 2.030093 g / cm^3
# Si number density = 20.347242 Si / 1000 Ang^3
#
#
#
# Elastic Constant Matrix: (Units=GPa)
#
#
# Indices 1 2 3 4 5 6 
#
# 1 112.6432 91.6297 47.2237 0.0000 0.0000 0.0000
# 2 91.6297 112.6432 47.2237 0.0000 0.0000 0.0000
# 3 47.2237 47.2237 69.1738 0.0000 0.0000 0.0000
# 4 0.0000 0.0000 0.0000 24.7296 0.0000 0.0000
# 5 0.0000 0.0000 0.0000 0.0000 24.7296 0.0000
# 6 0.0000 0.0000 0.0000 0.0000 0.0000 31.8682
#
#
#
# Elastic Compliance Matrix: (Units=1/GPa)
#
#
# Indices 1 2 3 4 5 6 
#
# 1 0.027371 -0.020218 -0.004883 0.000000 0.000000 0.000000
# 2 -0.020218 0.027371 -0.004883 0.000000 0.000000 0.000000
# 3 -0.004883 -0.004883 0.021124 0.000000 0.000000 0.000000
# 4 0.000000 0.000000 0.000000 0.040437 0.000000 0.000000
# 5 0.000000 0.000000 0.000000 0.000000 0.040437 0.000000
# 6 0.000000 0.000000 0.000000 0.000000 0.000000 0.031379
#
#
# Mechanical properties :
#
#
# Convention : Reuss Voigt Hill
#
# Bulk Modulus (GPa) = 62.90542 74.06830 68.48686
# Shear Modulus (GPa) = 19.73261 23.49102 21.61182
#
# Velocity S-wave (km/s) = 3.11753 3.40149 3.26260
# Velocity P-wave (km/s) = 6.62885 7.20472 6.92278
#
# Compressibility (1/GPa) = 0.01589688
#
# Stress axis : x y z
#
# Youngs Moduli (GPa) = 36.53517 36.53517 47.33944
#
# Poissons Ratio (x) = 0.73865 0.23118
# Poissons Ratio (y) = 0.73865 0.23118
# Poissons Ratio (z) = 0.17842 0.17842
#
# Static dielectric constant tensor:
#      x y z
#    x 3.704740 0.000000 0.000000 
#    y 0.000000 3.704740 0.000000 
#    z 0.000000 0.000000 3.628830 
# 
# 
# High freq. dielectric constant tensor:
#      x y z
#    x 1.792170 0.000000 0.000000 
#    y 0.000000 1.792170 0.000000 
#    z 0.000000 0.000000 1.791470 
# 
# From -- ./inp_files/6790.got.cif
#   From: 2010.06.25/outbox.cif.g09.slc.cpg/sg140_4_cif.got.tgz:6790.got - 2010.06.28 10:53:23.
