data_PCOD8320780
_publ_section_title
;
Structure prediction by ZEFSAII (Michael W. Deem and Ramdas Pophale) SiO2 
 PCOD8320780
Probable space group: I 41/A M D
;
_chemical_formula_sum "Si O2"
_cell_formula_units_Z 96
_cell_length_a 25.623468
_cell_length_b 25.623468
_cell_length_c 7.181725
_cell_angle_alpha 90.000000
_cell_angle_beta 90.000000
_cell_angle_gamma 90.000000
_cell_volume 4715.248536
_symmetry_space_group_name_H-M "I 41/A M D"
_symmetry_group_IT_number 141
_space_group.IT_coordinate_system_code '2'
_symmetry_cell_setting 'tetragonal'
loop_
_space_group_symop_operation_xyz
x,y,z
1/4-y,3/4+x,1/4+z
-x,1/2-y,z
1/4+y,1/4-x,3/4+z
x,-y,-z
-x,1/2+y,-z
1/4+y,3/4+x,1/4-z
1/4-y,1/4-x,3/4-z
-x,-y,-z
3/4+y,1/4-x,3/4-z
x,1/2+y,-z
3/4-y,3/4+x,1/4-z
-x,y,z
x,1/2-y,z
3/4-y,1/4-x,3/4+z
3/4+y,3/4+x,1/4+z
1/2+x,1/2+y,1/2+z
3/4-y,1/4+x,3/4+z
1/2-x,-y,1/2+z
3/4+y,3/4-x,1/4+z
1/2+x,1/2-y,1/2-z
1/2-x,y,1/2-z
3/4+y,1/4+x,3/4-z
3/4-y,3/4-x,1/4-z
1/2-x,1/2-y,1/2-z
1/4+y,3/4-x,1/4-z
1/2+x,y,1/2-z
1/4-y,1/4+x,3/4-z
1/2-x,1/2+y,1/2+z
1/2+x,-y,1/2+z
1/4-y,3/4-x,1/4+z
1/4+y,1/4+x,3/4+z
loop_
_atom_site_type_symbol
_atom_site_label
_atom_site_fract_x
_atom_site_fract_y
_atom_site_fract_z
Si Si1 0.059807 0.592623 0.446062
Si Si2 0.698038 0.135397 0.630544
Si Si3 0.559327 0.623578 0.651260
O O1 0.093653 0.548621 0.333602
O O2 0.077358 0.651686 0.394406
O O3 0.068859 0.586721 0.667335
O O4 0.000000 0.585068 0.391363
O O5 0.750000 0.129669 0.750000
O O6 0.671435 0.078566 0.625000
O O7 0.662321 0.179554 0.724692
O O8 0.500000 0.644627 0.647097
#
# Coordination Sequence:
#
# PCOD8320780 Si02
#       3
#    32  32  32
#     4   9  18  32  51  78 110 143 176 210 252 305
#     4  10  21  37  56  72 100 132 173 222 275 321
#     4   9  18  32  51  78 110 143 176 210 252 303
#
# _framework density 20.359476999999998
#
# number of rings (size 3 to 8) (size 9 to 14) (size 15 to 20)
#    0.000    2.667    0.000    1.000    0.000    4.667 
#    0.000    6.667   14.667    6.000    0.000    0.000 
#    0.000    0.000    0.000    0.000    0.000    0.000 
#
# Total GULP energy -594774.244495 kJ/mol
# GULP energy per Si atom -12391.130094 kJ/mol
# Density = 2.031314 g / cm^3
# Si number density = 20.359477 Si / 1000 Ang^3
#
#
#
# Elastic Constant Matrix: (Units=GPa)
#
#
# Indices 1 2 3 4 5 6 
#
# 1 61.0309 29.1675 18.3841 0.0000 0.0000 0.0000
# 2 29.1675 61.0341 18.3857 0.0000 0.0000 0.0000
# 3 18.3841 18.3857 70.7948 0.0000 0.0000 0.0000
# 4 0.0000 0.0000 0.0000 23.8024 0.0000 0.0000
# 5 0.0000 0.0000 0.0000 0.0000 23.8008 0.0000
# 6 0.0000 0.0000 0.0000 0.0000 0.0000 11.8035
#
#
#
# Elastic Compliance Matrix: (Units=1/GPa)
#
#
# Indices 1 2 3 4 5 6 
#
# 1 0.021891 -0.009492 -0.003220 0.000000 0.000000 0.000000
# 2 -0.009492 0.021890 -0.003220 0.000000 0.000000 0.000000
# 3 -0.003220 -0.003220 0.015798 0.000000 0.000000 0.000000
# 4 0.000000 0.000000 0.000000 0.042013 0.000000 0.000000
# 5 0.000000 0.000000 0.000000 0.000000 0.042015 0.000000
# 6 0.000000 0.000000 0.000000 0.000000 0.000000 0.084721
#
#
# Mechanical properties :
#
#
# Convention : Reuss Voigt Hill
#
# Bulk Modulus (GPa) = 36.08015 36.08161 36.08088
# Shear Modulus (GPa) = 18.55770 20.34283 19.45027
#
# Velocity S-wave (km/s) = 3.02238 3.16441 3.09421
# Velocity P-wave (km/s) = 5.47172 5.57782 5.52503
#
# Compressibility (1/GPa) = 0.02771607
#
# Stress axis : x y z
#
# Youngs Moduli (GPa) = 45.68045 45.68243 63.30020
#
# Poissons Ratio (x) = 0.43360 0.20381
# Poissons Ratio (y) = 0.43358 0.20384
# Poissons Ratio (z) = 0.14708 0.14711
#
# Static dielectric constant tensor:
#      x y z
#    x 3.420060 0.000000 0.000000 
#    y 0.000000 3.420040 0.000000 
#    z 0.000000 0.000000 4.165690 
# 
# 
# High freq. dielectric constant tensor:
#      x y z
#    x 1.767920 0.000000 0.000000 
#    y 0.000000 1.767920 0.000000 
#    z 0.000000 0.000000 1.824200 
# 
# From -- ./inp_files/2487.got.cif
#   From: 2010.03.12/outbox.cif.g09.slc.cpg/sg141_2_cif.got.tgz:2487.got - 2010.04.03 13:18:35.
