data_PCOD8320164
_publ_section_title
;
Structure prediction by ZEFSAII (Michael W. Deem and Ramdas Pophale) SiO2 
 PCOD8320164
Probable space group: I 4/M C M
;
_chemical_formula_sum "Si O2"
_cell_formula_units_Z 112
_cell_length_a 16.559187
_cell_length_b 16.559187
_cell_length_c 19.404184
_cell_angle_alpha 90.000000
_cell_angle_beta 90.000000
_cell_angle_gamma 90.000000
_cell_volume 5320.756758
_symmetry_space_group_name_H-M "I 4/M C M"
_symmetry_group_IT_number 140
_symmetry_cell_setting 'tetragonal'
loop_
_space_group_symop_operation_xyz
x,y,z
-y,x,z
-x,-y,z
y,-x,z
x,-y,1/2-z
-x,y,1/2-z
y,x,1/2-z
-y,-x,1/2-z
-x,-y,-z
y,-x,-z
x,y,-z
-y,x,-z
-x,y,1/2+z
x,-y,1/2+z
-y,-x,1/2+z
y,x,1/2+z
1/2+x,1/2+y,1/2+z
1/2-y,1/2+x,1/2+z
1/2-x,1/2-y,1/2+z
1/2+y,1/2-x,1/2+z
1/2+x,1/2-y,-z
1/2-x,1/2+y,-z
1/2+y,1/2+x,-z
1/2-y,1/2-x,-z
1/2-x,1/2-y,1/2-z
1/2+y,1/2-x,1/2-z
1/2+x,1/2+y,1/2-z
1/2-y,1/2+x,1/2-z
1/2-x,1/2+y,z
1/2+x,1/2-y,z
1/2-y,1/2-x,z
1/2+y,1/2+x,z
loop_
_atom_site_type_symbol
_atom_site_label
_atom_site_fract_x
_atom_site_fract_y
_atom_site_fract_z
Si Si1 0.963980 0.332541 0.822832
Si Si2 0.067904 0.432097 0.921257
Si Si3 0.605397 0.576588 0.079199
Si Si4 0.201679 0.168360 0.826314
O O1 0.912813 0.412813 0.808872
O O2 0.906498 0.259443 0.846903
O O3 0.000000 0.305538 0.750000
O O4 0.032173 0.353527 0.880521
O O5 0.000000 0.500000 0.925415
O O6 0.092390 0.407611 0.000000
O O7 0.517097 0.610581 0.097923
O O8 0.670628 0.624984 0.123430
O O9 0.625214 0.591187 0.000000
O O10 0.164917 0.164917 0.750000
O O11 0.247682 0.252319 0.837019
#
# Coordination Sequence:
#
# PCOD8320164 Si02
#       4
#    32  16  32  32
#     4  10  19  33  55  80 116 159 194 246 306 364
#     4   9  18  32  54  86 115 148 206 254 293 361
#     4   9  20  40  64  88 115 152 201 255 306 355
#     4  10  23  38  57  89 123 159 201 248 301 370
#
# _framework density 21.049638000000002
#
# number of rings (size 3 to 8) (size 9 to 14) (size 15 to 20)
#    0.000    2.429    1.429    0.857    4.000    1.714 
#    0.000    4.286    0.000    0.000    0.000    0.000 
#    0.000    0.000    0.000    0.000    0.000    0.000 
#
# Total GULP energy -694331.506360 kJ/mol
# GULP energy per Si atom -12398.776899 kJ/mol
# Density = 2.100173 g / cm^3
# Si number density = 21.049638 Si / 1000 Ang^3
#
#
#
# Elastic Constant Matrix: (Units=GPa)
#
#
# Indices 1 2 3 4 5 6 
#
# 1 45.4450 15.3588 36.6518 0.0000 0.0000 0.0000
# 2 15.3588 45.4451 36.6518 0.0000 0.0000 0.0000
# 3 36.6518 36.6518 115.7082 0.0000 0.0000 0.0000
# 4 0.0000 0.0000 0.0000 31.4303 0.0000 0.0000
# 5 0.0000 0.0000 0.0000 0.0000 31.4304 0.0000
# 6 0.0000 0.0000 0.0000 0.0000 0.0000 25.2114
#
#
#
# Elastic Compliance Matrix: (Units=1/GPa)
#
#
# Indices 1 2 3 4 5 6 
#
# 1 0.029922 -0.003315 -0.008428 0.000000 0.000000 0.000000
# 2 -0.003315 0.029922 -0.008428 0.000000 0.000000 0.000000
# 3 -0.008428 -0.008428 0.013982 0.000000 0.000000 0.000000
# 4 0.000000 0.000000 0.000000 0.031816 0.000000 0.000000
# 5 0.000000 0.000000 0.000000 0.000000 0.031816 0.000000
# 6 0.000000 0.000000 0.000000 0.000000 0.000000 0.039665
#
#
# Mechanical properties :
#
#
# Convention : Reuss Voigt Hill
#
# Bulk Modulus (GPa) = 29.86541 42.65812 36.26177
# Shear Modulus (GPa) = 21.86959 25.47682 23.67321
#
# Velocity S-wave (km/s) = 3.22678 3.48274 3.35720
# Velocity P-wave (km/s) = 5.30110 6.04004 5.68260
#
# Compressibility (1/GPa) = 0.03348355
#
# Stress axis : x y z
#
# Youngs Moduli (GPa) = 33.41978 33.41985 71.52166
#
# Poissons Ratio (x) = 0.11080 0.60279
# Poissons Ratio (y) = 0.11080 0.60279
# Poissons Ratio (z) = 0.28166 0.28166
#
# Static dielectric constant tensor:
#      x y z
#    x 3.656090 0.000000 0.000000 
#    y 0.000000 3.656090 0.000000 
#    z 0.000000 0.000000 3.720460 
# 
# 
# High freq. dielectric constant tensor:
#      x y z
#    x 1.817690 0.000000 0.000000 
#    y 0.000000 1.817690 0.000000 
#    z 0.000000 0.000000 1.816960 
# 
# From -- ./inp_files/6064.got.cif
#   From: 2010.06.25/outbox.cif.g09.slc.cpg/sg140_4_cif.got.tgz:6064.got - 2010.06.28 10:53:23.
