data_PCOD8320396
_publ_section_title
;
Structure prediction by ZEFSAII (Michael W. Deem and Ramdas Pophale) SiO2 
 PCOD8320396
Probable space group: I 4/M C M
;
_chemical_formula_sum "Si O2"
_cell_formula_units_Z 112
_cell_length_a 15.782007
_cell_length_b 15.782007
_cell_length_c 19.998189
_cell_angle_alpha 90.000000
_cell_angle_beta 90.000000
_cell_angle_gamma 90.000000
_cell_volume 4980.983830
_symmetry_space_group_name_H-M "I 4/M C M"
_symmetry_group_IT_number 140
_symmetry_cell_setting 'tetragonal'
loop_
_space_group_symop_operation_xyz
x,y,z
-y,x,z
-x,-y,z
y,-x,z
x,-y,1/2-z
-x,y,1/2-z
y,x,1/2-z
-y,-x,1/2-z
-x,-y,-z
y,-x,-z
x,y,-z
-y,x,-z
-x,y,1/2+z
x,-y,1/2+z
-y,-x,1/2+z
y,x,1/2+z
1/2+x,1/2+y,1/2+z
1/2-y,1/2+x,1/2+z
1/2-x,1/2-y,1/2+z
1/2+y,1/2-x,1/2+z
1/2+x,1/2-y,-z
1/2-x,1/2+y,-z
1/2+y,1/2+x,-z
1/2-y,1/2-x,-z
1/2-x,1/2-y,1/2-z
1/2+y,1/2-x,1/2-z
1/2+x,1/2+y,1/2-z
1/2-y,1/2+x,1/2-z
1/2-x,1/2+y,z
1/2+x,1/2-y,z
1/2-y,1/2-x,z
1/2+y,1/2+x,z
loop_
_atom_site_type_symbol
_atom_site_label
_atom_site_fract_x
_atom_site_fract_y
_atom_site_fract_z
Si Si1 0.566484 0.799675 0.193920
Si Si2 0.693272 0.671718 0.609948
Si Si3 0.803084 0.557087 0.076908
Si Si4 0.374520 0.561570 0.000000
O O1 0.500000 0.772182 0.250000
O O2 0.617321 0.882680 0.219103
O O3 0.633243 0.722444 0.181617
O O4 0.524134 0.822046 0.122468
O O5 0.768192 0.731809 0.580568
O O6 0.608113 0.727033 0.613775
O O7 0.679011 0.589035 0.564424
O O8 0.887445 0.612556 0.074516
O O9 0.777251 0.532600 0.000000
O O10 0.387580 0.462276 0.000000
#
# Coordination Sequence:
#
# PCOD8320396 Si02
#       4
#    32  32  32  16
#     4  11  25  42  63  90 127 174 218 264 320 384
#     4  10  21  38  62  90 123 163 209 261 317 379
#     4  10  21  38  62  92 126 163 212 274 328 379
#     4  11  21  34  58  92 127 159 196 252 318 379
#
# _framework density 22.485519
#
# number of rings (size 3 to 8) (size 9 to 14) (size 15 to 20)
#    0.000    1.571    1.429    3.000    2.000    3.714 
#    0.000    5.714    0.000    0.000    0.000    2.000 
#    0.000    0.000    0.000    0.000    0.000    0.000 
#
# Total GULP energy -694217.820974 kJ/mol
# GULP energy per Si atom -12396.746803 kJ/mol
# Density = 2.243434 g / cm^3
# Si number density = 22.485519 Si / 1000 Ang^3
#
#
#
# Elastic Constant Matrix: (Units=GPa)
#
#
# Indices 1 2 3 4 5 6 
#
# 1 67.7935 9.2309 33.2524 0.0000 0.0000 0.0000
# 2 9.2309 67.7935 33.2524 0.0000 0.0000 0.0000
# 3 33.2524 33.2524 69.6801 0.0000 0.0000 0.0000
# 4 0.0000 0.0000 0.0000 36.5537 0.0000 0.0000
# 5 0.0000 0.0000 0.0000 0.0000 36.5537 0.0000
# 6 0.0000 0.0000 0.0000 0.0000 0.0000 26.4481
#
#
#
# Elastic Compliance Matrix: (Units=1/GPa)
#
#
# Indices 1 2 3 4 5 6 
#
# 1 0.019579 0.002503 -0.010538 0.000000 0.000000 0.000000
# 2 0.002503 0.019579 -0.010538 0.000000 0.000000 0.000000
# 3 -0.010538 -0.010538 0.024409 0.000000 0.000000 0.000000
# 4 0.000000 0.000000 0.000000 0.027357 0.000000 0.000000
# 5 0.000000 0.000000 0.000000 0.000000 0.027357 0.000000
# 6 0.000000 0.000000 0.000000 0.000000 0.000000 0.037810
#
#
# Mechanical properties :
#
#
# Convention : Reuss Voigt Hill
#
# Bulk Modulus (GPa) = 37.84858 39.63763 38.74311
# Shear Modulus (GPa) = 24.74744 28.54654 26.64699
#
# Velocity S-wave (km/s) = 3.32112 3.56694 3.44622
# Velocity P-wave (km/s) = 5.61920 5.88476 5.75352
#
# Compressibility (1/GPa) = 0.02642107
#
# Stress axis : x y z
#
# Youngs Moduli (GPa) = 51.07642 51.07642 40.96909
#
# Poissons Ratio (x) = -0.12783 0.43171
# Poissons Ratio (y) = -0.12783 0.43171
# Poissons Ratio (z) = 0.53822 0.53822
#
# Static dielectric constant tensor:
#      x y z
#    x 4.102860 0.000000 0.000000 
#    y 0.000000 4.102860 0.000000 
#    z 0.000000 0.000000 3.793780 
# 
# 
# High freq. dielectric constant tensor:
#      x y z
#    x 1.896580 0.000000 0.000000 
#    y 0.000000 1.896580 0.000000 
#    z 0.000000 0.000000 1.862000 
# 
# From -- ./inp_files/6108.got.cif
#   From: 2010.06.25/outbox.cif.g09.slc.cpg/sg140_4_cif.got.tgz:6108.got - 2010.06.28 10:53:23.
