data_PCOD8320828
_publ_section_title
;
Structure prediction by ZEFSAII (Michael W. Deem and Ramdas Pophale) SiO2 
 PCOD8320828
Probable space group: I 41/A M D
;
_chemical_formula_sum "Si O2"
_cell_formula_units_Z 160
_cell_length_a 21.878092
_cell_length_b 21.878092
_cell_length_c 18.081619
_cell_angle_alpha 90.000000
_cell_angle_beta 90.000000
_cell_angle_gamma 90.000000
_cell_volume 8654.783381
_symmetry_space_group_name_H-M "I 41/A M D"
_symmetry_group_IT_number 141
_space_group.IT_coordinate_system_code '2'
_symmetry_cell_setting 'tetragonal'
loop_
_space_group_symop_operation_xyz
x,y,z
1/4-y,3/4+x,1/4+z
-x,1/2-y,z
1/4+y,1/4-x,3/4+z
x,-y,-z
-x,1/2+y,-z
1/4+y,3/4+x,1/4-z
1/4-y,1/4-x,3/4-z
-x,-y,-z
3/4+y,1/4-x,3/4-z
x,1/2+y,-z
3/4-y,3/4+x,1/4-z
-x,y,z
x,1/2-y,z
3/4-y,1/4-x,3/4+z
3/4+y,3/4+x,1/4+z
1/2+x,1/2+y,1/2+z
3/4-y,1/4+x,3/4+z
1/2-x,-y,1/2+z
3/4+y,3/4-x,1/4+z
1/2+x,1/2-y,1/2-z
1/2-x,y,1/2-z
3/4+y,1/4+x,3/4-z
3/4-y,3/4-x,1/4-z
1/2-x,1/2-y,1/2-z
1/4+y,3/4-x,1/4-z
1/2+x,y,1/2-z
1/4-y,1/4+x,3/4-z
1/2-x,1/2+y,1/2+z
1/2+x,-y,1/2+z
1/4-y,3/4-x,1/4+z
1/4+y,1/4+x,3/4+z
loop_
_atom_site_type_symbol
_atom_site_label
_atom_site_fract_x
_atom_site_fract_y
_atom_site_fract_z
Si Si1 0.387817 0.484829 0.333902
Si Si2 0.802909 0.319231 0.065068
Si Si3 0.121747 0.317700 0.668330
Si Si4 0.931818 0.092918 0.916081
Si Si5 0.261621 0.075133 0.333207
O O1 0.410973 0.522439 0.262460
O O2 0.421299 0.420144 0.351136
O O3 0.398366 0.529143 0.402447
O O4 0.315873 0.473837 0.330966
O O5 0.783882 0.250000 0.081058
O O6 0.876990 0.323485 0.071945
O O7 0.775477 0.361540 0.127676
O O8 0.091386 0.250000 0.654557
O O9 0.155553 0.316649 0.746151
O O10 0.898568 0.148568 0.875000
O O11 0.000000 0.092559 0.882472
O O12 0.250000 0.094466 0.250000
O O13 0.203961 0.046040 0.375000
#
# Coordination Sequence:
#
# PCOD8320828 Si02
#       5
#    32  32  32  32  32
#     4  11  21  36  58  81 115 146 193 238 290 343
#     4  11  23  38  60  86 115 153 191 237 289 345
#     4  10  22  36  54  80 113 155 195 237 283 334
#     4  11  21  33  48  73 110 152 194 235 277 327
#     4  11  23  40  62  91 118 148 186 237 297 351
#
# _framework density 18.486885999999998
#
# number of rings (size 3 to 8) (size 9 to 14) (size 15 to 20)
#    0.000    1.200    4.000    3.000    0.000    2.600 
#    0.000    2.000    0.000    0.000    0.000    0.000 
#    0.000    0.400    0.000    0.000    0.000    0.000 
#
# Total GULP energy -991331.857005 kJ/mol
# GULP energy per Si atom -12391.648213 kJ/mol
# Density = 1.844481 g / cm^3
# Si number density = 18.486886 Si / 1000 Ang^3
#
#
#
# Elastic Constant Matrix: (Units=GPa)
#
#
# Indices 1 2 3 4 5 6 
#
# 1 92.2576 41.9790 34.6201 0.0000 0.0000 0.0000
# 2 41.9790 92.2544 34.6200 0.0000 0.0000 0.0000
# 3 34.6201 34.6200 87.8722 0.0000 0.0000 0.0000
# 4 0.0000 0.0000 0.0000 18.6669 0.0000 0.0000
# 5 0.0000 0.0000 0.0000 0.0000 18.6719 0.0000
# 6 0.0000 0.0000 0.0000 0.0000 0.0000 13.3879
#
#
#
# Elastic Compliance Matrix: (Units=1/GPa)
#
#
# Indices 1 2 3 4 5 6 
#
# 1 0.014619 -0.005270 -0.003684 0.000000 0.000000 0.000000
# 2 -0.005270 0.014620 -0.003684 0.000000 0.000000 0.000000
# 3 -0.003684 -0.003684 0.014283 0.000000 0.000000 0.000000
# 4 0.000000 0.000000 0.000000 0.053571 0.000000 0.000000
# 5 0.000000 0.000000 0.000000 0.000000 0.053556 0.000000
# 6 0.000000 0.000000 0.000000 0.000000 0.000000 0.074694
#
#
# Mechanical properties :
#
#
# Convention : Reuss Voigt Hill
#
# Bulk Modulus (GPa) = 54.80160 54.98028 54.89094
# Shear Modulus (GPa) = 19.47794 20.88968 20.18381
#
# Velocity S-wave (km/s) = 3.24945 3.36515 3.30781
# Velocity P-wave (km/s) = 6.61713 6.70102 6.65921
#
# Compressibility (1/GPa) = 0.01824764
#
# Stress axis : x y z
#
# Youngs Moduli (GPa) = 68.40206 68.39935 70.01467
#
# Poissons Ratio (x) = 0.36047 0.25790
# Poissons Ratio (y) = 0.36048 0.25791
# Poissons Ratio (z) = 0.25196 0.25196
#
# Static dielectric constant tensor:
#      x y z
#    x 3.492140 0.000000 0.000000 
#    y 0.000000 3.492140 0.000000 
#    z 0.000000 0.000000 3.296140 
# 
# 
# High freq. dielectric constant tensor:
#      x y z
#    x 1.714900 0.000000 0.000000 
#    y 0.000000 1.714900 0.000000 
#    z 0.000000 0.000000 1.710130 
# 
# From -- ./inp_files/8553.got.cif
#   From: 2010.03.12/outbox.cif.g09.slc.cpg/sg141_5_cif.got.tgz:8553.got - 2010.04.03 13:18:35.
