data_PCOD8320368
_publ_section_title
;
Structure prediction by ZEFSAII (Michael W. Deem and Ramdas Pophale) SiO2 
 PCOD8320368
Probable space group: I 4/M C M
;
_chemical_formula_sum "Si O2"
_cell_formula_units_Z 240
_cell_length_a 21.711511
_cell_length_b 21.711511
_cell_length_c 25.704713
_cell_angle_alpha 90.000000
_cell_angle_beta 90.000000
_cell_angle_gamma 90.000000
_cell_volume 12116.937204
_symmetry_space_group_name_H-M "I 4/M C M"
_symmetry_group_IT_number 140
_symmetry_cell_setting 'tetragonal'
loop_
_space_group_symop_operation_xyz
x,y,z
-y,x,z
-x,-y,z
y,-x,z
x,-y,1/2-z
-x,y,1/2-z
y,x,1/2-z
-y,-x,1/2-z
-x,-y,-z
y,-x,-z
x,y,-z
-y,x,-z
-x,y,1/2+z
x,-y,1/2+z
-y,-x,1/2+z
y,x,1/2+z
1/2+x,1/2+y,1/2+z
1/2-y,1/2+x,1/2+z
1/2-x,1/2-y,1/2+z
1/2+y,1/2-x,1/2+z
1/2+x,1/2-y,-z
1/2-x,1/2+y,-z
1/2+y,1/2+x,-z
1/2-y,1/2-x,-z
1/2-x,1/2-y,1/2-z
1/2+y,1/2-x,1/2-z
1/2+x,1/2+y,1/2-z
1/2-y,1/2+x,1/2-z
1/2-x,1/2+y,z
1/2+x,1/2-y,z
1/2-y,1/2-x,z
1/2+y,1/2+x,z
loop_
_atom_site_type_symbol
_atom_site_label
_atom_site_fract_x
_atom_site_fract_y
_atom_site_fract_z
Si Si1 0.551598 0.854153 0.210082
Si Si2 0.503714 0.828228 0.606170
Si Si3 0.855828 0.741140 0.259088
Si Si4 0.598516 0.489939 0.688915
Si Si5 0.691380 0.292494 0.638123
Si Si6 0.924068 0.782566 0.842258
Si Si7 0.717406 0.116793 0.440962
Si Si8 0.549161 0.049161 0.939586
O O1 0.500000 0.832633 0.250000
O O2 0.583249 0.916752 0.231150
O O3 0.526674 0.866138 0.152977
O O4 0.601614 0.800426 0.203846
O O5 0.548279 0.777184 0.630746
O O6 0.454702 0.795902 0.568620
O O7 0.539070 0.879641 0.574169
O O8 0.801732 0.698269 0.233914
O O9 0.826273 0.790291 0.299658
O O10 0.899754 0.769834 0.215857
O O11 0.566846 0.554133 0.671895
O O12 0.608547 0.500000 0.750000
O O13 0.663648 0.475906 0.660812
O O14 0.753495 0.253495 0.628237
O O15 0.699687 0.364110 0.623776
O O16 0.638415 0.268977 0.599762
O O17 0.741726 0.125324 0.500000
O O18 0.654565 0.154565 0.432177
O O19 0.500000 0.000000 0.914263
O O20 0.541458 0.041458 0.000000
#
# Coordination Sequence:
#
# PCOD8320368 Si02
#       8
#    32  32  32  32  32  32  32  16
#     4  11  22  36  54  83 124 166 205 246 296 364
#     4  12  25  39  63  94 125 161 214 263 309 371
#     4  10  21  37  54  84 125 165 200 242 297 374
#     4   9  22  39  55  83 123 165 210 257 304 360
#     4  10  22  39  61  91 123 158 204 255 315 376
#     4  12  25  34  64  90 130 170 204 252 311 378
#     4  10  21  42  70  92 114 151 204 267 320 369
#     4  11  26  48  72  94 123 172 222 270 327 377
#
# _framework density 19.806985999999998
#
# number of rings (size 3 to 8) (size 9 to 14) (size 15 to 20)
#    0.000    1.400    2.667    2.800   10.267    2.267 
#    0.000    1.333    0.000    0.000    0.000    0.000 
#    0.000    1.067    0.000    0.000    0.000    0.000 
#
# Total GULP energy -1487581.244631 kJ/mol
# GULP energy per Si atom -12396.510372 kJ/mol
# Density = 1.976190 g / cm^3
# Si number density = 19.806986 Si / 1000 Ang^3
#
#
#
# Elastic Constant Matrix: (Units=GPa)
#
#
# Indices 1 2 3 4 5 6 
#
# 1 171.9376 -9.3143 24.9863 0.0000 0.0000 0.0000
# 2 -9.3143 171.9376 24.9863 0.0000 0.0000 0.0000
# 3 24.9863 24.9863 66.1015 0.0000 0.0000 0.0000
# 4 0.0000 0.0000 0.0000 14.3985 0.0000 0.0000
# 5 0.0000 0.0000 0.0000 0.0000 14.3985 0.0000
# 6 0.0000 0.0000 0.0000 0.0000 0.0000 23.6410
#
#
#
# Elastic Compliance Matrix: (Units=1/GPa)
#
#
# Indices 1 2 3 4 5 6 
#
# 1 0.006237 0.000720 -0.002630 0.000000 0.000000 0.000000
# 2 0.000720 0.006237 -0.002630 0.000000 0.000000 0.000000
# 3 -0.002630 -0.002630 0.017116 0.000000 0.000000 0.000000
# 4 0.000000 0.000000 0.000000 0.069452 0.000000 0.000000
# 5 0.000000 0.000000 0.000000 0.000000 0.069452 0.000000
# 6 0.000000 0.000000 0.000000 0.000000 0.000000 0.042299
#
#
# Mechanical properties :
#
#
# Convention : Reuss Voigt Hill
#
# Bulk Modulus (GPa) = 48.75288 54.58816 51.67052
# Shear Modulus (GPa) = 22.05460 35.10882 28.58171
#
# Velocity S-wave (km/s) = 3.34050 4.21473 3.80282
# Velocity P-wave (km/s) = 6.28856 7.16276 6.73985
#
# Compressibility (1/GPa) = 0.02051161
#
# Stress axis : x y z
#
# Youngs Moduli (GPa) = 160.32711 160.32711 58.42340
#
# Poissons Ratio (x) = -0.11545 0.15365
# Poissons Ratio (y) = -0.11545 0.15365
# Poissons Ratio (z) = 0.42164 0.42164
#
# Static dielectric constant tensor:
#      x y z
#    x 3.702170 0.000000 0.000000 
#    y 0.000000 3.702170 0.000000 
#    z 0.000000 0.000000 3.347240 
# 
# 
# High freq. dielectric constant tensor:
#      x y z
#    x 1.777860 0.000000 0.000000 
#    y 0.000000 1.777860 0.000000 
#    z 0.000000 0.000000 1.739550 
# 
# From -- ./inp_files/10969.got.cif
#   From: 2010.06.25/outbox.cif.g09.slc.cpg/sg140_6_cif.got.tgz:10969.got - 2010.06.28 10:53:23.
