data_PCOD8320245
_publ_section_title
;
Structure prediction by ZEFSAII (Michael W. Deem and Ramdas Pophale) SiO2 
 PCOD8320245
Probable space group: I 4/M C M
;
_chemical_formula_sum "Si O2"
_cell_formula_units_Z 160
_cell_length_a 20.629738
_cell_length_b 20.629738
_cell_length_c 20.030800
_cell_angle_alpha 90.000000
_cell_angle_beta 90.000000
_cell_angle_gamma 90.000000
_cell_volume 8524.829851
_symmetry_space_group_name_H-M "I 4/M C M"
_symmetry_group_IT_number 140
_symmetry_cell_setting 'tetragonal'
loop_
_space_group_symop_operation_xyz
x,y,z
-y,x,z
-x,-y,z
y,-x,z
x,-y,1/2-z
-x,y,1/2-z
y,x,1/2-z
-y,-x,1/2-z
-x,-y,-z
y,-x,-z
x,y,-z
-y,x,-z
-x,y,1/2+z
x,-y,1/2+z
-y,-x,1/2+z
y,x,1/2+z
1/2+x,1/2+y,1/2+z
1/2-y,1/2+x,1/2+z
1/2-x,1/2-y,1/2+z
1/2+y,1/2-x,1/2+z
1/2+x,1/2-y,-z
1/2-x,1/2+y,-z
1/2+y,1/2+x,-z
1/2-y,1/2-x,-z
1/2-x,1/2-y,1/2-z
1/2+y,1/2-x,1/2-z
1/2+x,1/2+y,1/2-z
1/2-y,1/2+x,1/2-z
1/2-x,1/2+y,z
1/2+x,1/2-y,z
1/2-y,1/2-x,z
1/2+y,1/2+x,z
loop_
_atom_site_type_symbol
_atom_site_label
_atom_site_fract_x
_atom_site_fract_y
_atom_site_fract_z
Si Si1 0.256832 0.648678 0.183030
Si Si2 0.597976 0.481394 0.326917
Si Si3 0.179081 0.425438 0.576554
Si Si4 0.427003 0.176631 0.575978
Si Si5 0.106873 0.214391 0.174848
O O1 0.210169 0.710169 0.193701
O O2 0.235378 0.604234 0.121799
O O3 0.257242 0.604978 0.249989
O O4 0.328679 0.672190 0.166269
O O5 0.575312 0.550619 0.357486
O O6 0.589544 0.500000 0.250000
O O7 0.671094 0.457319 0.340324
O O8 0.201925 0.419343 0.500000
O O9 0.111840 0.388161 0.588740
O O10 0.166692 0.499077 0.598002
O O11 0.421995 0.201668 0.500000
O O12 0.392479 0.107521 0.584508
O O13 0.390961 0.228149 0.622152
#
# Coordination Sequence:
#
# PCOD8320245 Si02
#       5
#    32  32  32  32  32
#     4  10  20  34  52  82 112 141 179 217 267 324
#     4   9  18  31  48  76 109 140 178 217 255 312
#     4   9  20  38  58  80 108 143 182 224 269 324
#     4  10  22  38  56  80 108 141 182 227 277 327
#     4  11  21  32  57  80 113 143 177 224 270 316
#
# _framework density 18.768704
#
# number of rings (size 3 to 8) (size 9 to 14) (size 15 to 20)
#    0.000    2.200    0.000    5.400    5.600    1.200 
#    0.000    4.000    0.000    0.000    0.000    4.200 
#    0.000    0.000    0.000    0.000    0.000    0.000 
#
# Total GULP energy -991416.108575 kJ/mol
# GULP energy per Si atom -12392.701357 kJ/mol
# Density = 1.872599 g / cm^3
# Si number density = 18.768704 Si / 1000 Ang^3
#
#
#
# Elastic Constant Matrix: (Units=GPa)
#
#
# Indices 1 2 3 4 5 6 
#
# 1 83.3560 30.7070 45.7486 0.0000 0.0000 0.0000
# 2 30.7070 83.3560 45.7486 0.0000 0.0000 0.0000
# 3 45.7486 45.7486 83.4099 0.0000 0.0000 0.0000
# 4 0.0000 0.0000 0.0000 25.6770 0.0000 0.0000
# 5 0.0000 0.0000 0.0000 0.0000 25.6770 0.0000
# 6 0.0000 0.0000 0.0000 0.0000 0.0000 28.9739
#
#
#
# Elastic Compliance Matrix: (Units=1/GPa)
#
#
# Indices 1 2 3 4 5 6 
#
# 1 0.017324 -0.001670 -0.008586 0.000000 0.000000 0.000000
# 2 -0.001670 0.017324 -0.008586 0.000000 0.000000 0.000000
# 3 -0.008586 -0.008586 0.021408 0.000000 0.000000 0.000000
# 4 0.000000 0.000000 0.000000 0.038945 0.000000 0.000000
# 5 0.000000 0.000000 0.000000 0.000000 0.038945 0.000000
# 6 0.000000 0.000000 0.000000 0.000000 0.000000 0.034514
#
#
# Mechanical properties :
#
#
# Convention : Reuss Voigt Hill
#
# Bulk Modulus (GPa) = 54.43052 54.94784 54.68918
# Shear Modulus (GPa) = 23.55503 24.59342 24.07423
#
# Velocity S-wave (km/s) = 3.54646 3.62379 3.58534
# Velocity P-wave (km/s) = 6.77005 6.84463 6.80744
#
# Compressibility (1/GPa) = 0.01837204
#
# Stress axis : x y z
#
# Youngs Moduli (GPa) = 57.72277 57.72277 46.71203
#
# Poissons Ratio (x) = 0.09637 0.40108
# Poissons Ratio (y) = 0.09637 0.40108
# Poissons Ratio (z) = 0.49562 0.49562
#
# Static dielectric constant tensor:
#      x y z
#    x 3.555630 0.000000 0.000000 
#    y 0.000000 3.555630 0.000000 
#    z 0.000000 0.000000 3.324200 
# 
# 
# High freq. dielectric constant tensor:
#      x y z
#    x 1.734380 0.000000 0.000000 
#    y 0.000000 1.734380 0.000000 
#    z 0.000000 0.000000 1.702100 
# 
# From -- ./inp_files/6800.got.cif
#   From: 2010.06.25/outbox.cif.g09.slc.cpg/sg140_4_cif.got.tgz:6800.got - 2010.06.28 10:53:23.
