data_PCOD8320655
_publ_section_title
;
Structure prediction by ZEFSAII (Michael W. Deem and Ramdas Pophale) SiO2 
 PCOD8320655
Probable space group: I 41/A M D
;
_chemical_formula_sum "Si O2"
_cell_formula_units_Z 144
_cell_length_a 30.263927
_cell_length_b 30.263927
_cell_length_c 8.773552
_cell_angle_alpha 90.000000
_cell_angle_beta 90.000000
_cell_angle_gamma 90.000000
_cell_volume 8035.742579
_symmetry_space_group_name_H-M "I 41/A M D"
_symmetry_group_IT_number 141
_space_group.IT_coordinate_system_code '2'
_symmetry_cell_setting 'tetragonal'
loop_
_space_group_symop_operation_xyz
x,y,z
1/4-y,3/4+x,1/4+z
-x,1/2-y,z
1/4+y,1/4-x,3/4+z
x,-y,-z
-x,1/2+y,-z
1/4+y,3/4+x,1/4-z
1/4-y,1/4-x,3/4-z
-x,-y,-z
3/4+y,1/4-x,3/4-z
x,1/2+y,-z
3/4-y,3/4+x,1/4-z
-x,y,z
x,1/2-y,z
3/4-y,1/4-x,3/4+z
3/4+y,3/4+x,1/4+z
1/2+x,1/2+y,1/2+z
3/4-y,1/4+x,3/4+z
1/2-x,-y,1/2+z
3/4+y,3/4-x,1/4+z
1/2+x,1/2-y,1/2-z
1/2-x,y,1/2-z
3/4+y,1/4+x,3/4-z
3/4-y,3/4-x,1/4-z
1/2-x,1/2-y,1/2-z
1/4+y,3/4-x,1/4-z
1/2+x,y,1/2-z
1/4-y,1/4+x,3/4-z
1/2-x,1/2+y,1/2+z
1/2+x,-y,1/2+z
1/4-y,3/4-x,1/4+z
1/4+y,1/4+x,3/4+z
loop_
_atom_site_type_symbol
_atom_site_label
_atom_site_fract_x
_atom_site_fract_y
_atom_site_fract_z
Si Si1 0.116643 0.198472 0.301220
Si Si2 0.202114 0.799420 0.500355
Si Si3 0.100987 0.000000 0.500000
Si Si4 0.619155 0.416014 0.842102
Si Si5 0.386715 0.549100 0.490656
O O1 0.072005 0.177996 0.375000
O O2 0.108417 0.250000 0.252932
O O3 0.153454 0.195579 0.430822
O O4 0.133295 0.169182 0.156517
O O5 0.217950 0.750000 0.489788
O O6 0.239414 0.821903 0.602804
O O7 0.202911 0.817196 0.328983
O O8 0.129046 0.043244 0.543481
O O9 0.603546 0.433688 0.678293
O O10 0.666807 0.393795 0.832178
O O11 0.364656 0.500000 0.500000
#
# Coordination Sequence:
#
# PCOD8320655 Si02
#       5
#    32  32  16  32  32
#     4  10  20  37  60  87 114 152 194 236 289 353
#     4  10  20  34  56  84 114 142 188 237 287 350
#     4  10  19  36  56  82 108 152 180 240 297 338
#     4  10  22  37  59  80 116 150 192 240 292 350
#     4  11  21  38  57  82 113 153 192 235 291 351
#
# _framework density 17.919937999999998
#
# number of rings (size 3 to 8) (size 9 to 14) (size 15 to 20)
#    0.000    1.778    4.444    0.333    0.000    2.444 
#    0.000    0.000    9.778    0.000    0.000    0.000 
#    0.000    0.000    0.000    0.000    0.000    0.000 
#
# Total GULP energy -892369.041615 kJ/mol
# GULP energy per Si atom -12394.014467 kJ/mol
# Density = 1.787915 g / cm^3
# Si number density = 17.919938 Si / 1000 Ang^3
#
#
#
# Elastic Constant Matrix: (Units=GPa)
#
#
# Indices 1 2 3 4 5 6 
#
# 1 108.8939 50.1808 42.6367 0.0000 0.0000 0.0000
# 2 50.1808 108.8921 42.6356 0.0000 0.0000 0.0000
# 3 42.6367 42.6356 89.5710 0.0000 0.0000 0.0000
# 4 0.0000 0.0000 0.0000 26.3971 0.0000 0.0000
# 5 0.0000 0.0000 0.0000 0.0000 26.3970 0.0000
# 6 0.0000 0.0000 0.0000 0.0000 0.0000 16.1411
#
#
#
# Elastic Compliance Matrix: (Units=1/GPa)
#
#
# Indices 1 2 3 4 5 6 
#
# 1 0.012736 -0.004296 -0.004018 0.000000 0.000000 0.000000
# 2 -0.004296 0.012736 -0.004017 0.000000 0.000000 0.000000
# 3 -0.004018 -0.004017 0.014989 0.000000 0.000000 0.000000
# 4 0.000000 0.000000 0.000000 0.037883 0.000000 0.000000
# 5 0.000000 0.000000 0.000000 0.000000 0.037883 0.000000
# 6 0.000000 0.000000 0.000000 0.000000 0.000000 0.061954
#
#
# Mechanical properties :
#
#
# Convention : Reuss Voigt Hill
#
# Bulk Modulus (GPa) = 63.29480 64.25145 63.77312
# Shear Modulus (GPa) = 24.02583 25.24730 24.63657
#
# Velocity S-wave (km/s) = 3.66557 3.75760 3.71187
# Velocity P-wave (km/s) = 7.30156 7.39991 7.35090
#
# Compressibility (1/GPa) = 0.01579909
#
# Stress axis : x y z
#
# Youngs Moduli (GPa) = 78.51726 78.51667 66.71562
#
# Poissons Ratio (x) = 0.33732 0.26803
# Poissons Ratio (y) = 0.33732 0.26802
# Poissons Ratio (z) = 0.31545 0.31543
#
# Static dielectric constant tensor:
#      x y z
#    x 3.373150 0.000000 0.000000 
#    y 0.000000 3.373160 0.000000 
#    z 0.000000 0.000000 3.409970 
# 
# 
# High freq. dielectric constant tensor:
#      x y z
#    x 1.687720 0.000000 0.000000 
#    y 0.000000 1.687720 0.000000 
#    z 0.000000 0.000000 1.701710 
# 
# From -- ./inp_files/3184.got.cif
#   From: 2010.03.12/outbox.cif.g09.slc.cpg/sg141_2_cif.got.tgz:3184.got - 2010.04.03 13:18:35.
