data_PCOD8320645
_publ_section_title
;
Structure prediction by ZEFSAII (Michael W. Deem and Ramdas Pophale) SiO2 
 PCOD8320645
Probable space group: I 41/A M D
;
_chemical_formula_sum "Si O2"
_cell_formula_units_Z 160
_cell_length_a 20.473534
_cell_length_b 20.473534
_cell_length_c 19.651004
_cell_angle_alpha 90.000000
_cell_angle_beta 90.000000
_cell_angle_gamma 90.000000
_cell_volume 8237.024773
_symmetry_space_group_name_H-M "I 41/A M D"
_symmetry_group_IT_number 141
_space_group.IT_coordinate_system_code '2'
_symmetry_cell_setting 'tetragonal'
loop_
_space_group_symop_operation_xyz
x,y,z
1/4-y,3/4+x,1/4+z
-x,1/2-y,z
1/4+y,1/4-x,3/4+z
x,-y,-z
-x,1/2+y,-z
1/4+y,3/4+x,1/4-z
1/4-y,1/4-x,3/4-z
-x,-y,-z
3/4+y,1/4-x,3/4-z
x,1/2+y,-z
3/4-y,3/4+x,1/4-z
-x,y,z
x,1/2-y,z
3/4-y,1/4-x,3/4+z
3/4+y,3/4+x,1/4+z
1/2+x,1/2+y,1/2+z
3/4-y,1/4+x,3/4+z
1/2-x,-y,1/2+z
3/4+y,3/4-x,1/4+z
1/2+x,1/2-y,1/2-z
1/2-x,y,1/2-z
3/4+y,1/4+x,3/4-z
3/4-y,3/4-x,1/4-z
1/2-x,1/2-y,1/2-z
1/4+y,3/4-x,1/4-z
1/2+x,y,1/2-z
1/4-y,1/4+x,3/4-z
1/2-x,1/2+y,1/2+z
1/2+x,-y,1/2+z
1/4-y,3/4-x,1/4+z
1/4+y,1/4+x,3/4+z
loop_
_atom_site_type_symbol
_atom_site_label
_atom_site_fract_x
_atom_site_fract_y
_atom_site_fract_z
Si Si1 0.500000 0.353142 0.601231
Si Si2 0.739919 0.323340 0.132040
Si Si3 0.073539 0.638756 0.396842
Si Si4 0.169491 0.000000 0.500000
Si Si5 0.807040 0.360254 0.512268
Si Si6 0.000000 0.498927 0.851626
Si Si7 0.500000 0.379430 0.441929
O O1 0.564160 0.314160 0.625000
O O2 0.500000 0.423037 0.635328
O O3 0.500000 0.367181 0.521481
O O4 0.723913 0.250000 0.157126
O O5 0.816572 0.330842 0.115657
O O6 0.720407 0.373922 0.190639
O O7 0.698112 0.338774 0.065444
O O8 0.118055 0.648732 0.463643
O O9 0.094535 0.686073 0.336599
O O10 0.000000 0.653822 0.420215
O O11 0.213138 0.062641 0.522120
O O12 0.761427 0.315505 0.558619
O O13 0.000000 0.543855 0.919829
#
# Coordination Sequence:
#
# PCOD8320645 Si02
#       7
#    16  32  32  16  32  16  16
#     4  11  27  40  63  96 121 150 199 255 296 348
#     4  10  19  34  59  82 117 159 198 247 300 358
#     4   9  20  34  60  88 116 156 202 243 295 367
#     4  10  21  36  54  90 120 149 204 252 302 361
#     4  10  20  37  60  86 114 159 203 245 301 357
#     4  10  22  44  64  84 120 161 202 236 303 378
#     4  10  21  39  62  88 121 160 190 242 309 357
#
# _framework density 19.424489999999999
#
# number of rings (size 3 to 8) (size 9 to 14) (size 15 to 20)
#    0.000    2.100    1.000    1.500    5.600    0.800 
#    0.000    6.000    0.000    0.000    0.000    0.000 
#    0.000    0.000    0.000    0.000    0.000    0.000 
#
# Total GULP energy -991792.160245 kJ/mol
# GULP energy per Si atom -12397.402003 kJ/mol
# Density = 1.938028 g / cm^3
# Si number density = 19.424490 Si / 1000 Ang^3
#
#
#
# Elastic Constant Matrix: (Units=GPa)
#
#
# Indices 1 2 3 4 5 6 
#
# 1 126.7843 61.9401 49.1195 0.0000 0.0000 0.0000
# 2 61.9401 126.7843 49.1195 0.0000 0.0000 0.0000
# 3 49.1195 49.1195 134.6034 0.0000 0.0000 0.0000
# 4 0.0000 0.0000 0.0000 25.0249 0.0000 0.0000
# 5 0.0000 0.0000 0.0000 0.0000 25.0249 0.0000
# 6 0.0000 0.0000 0.0000 0.0000 0.0000 14.3737
#
#
#
# Elastic Compliance Matrix: (Units=1/GPa)
#
#
# Indices 1 2 3 4 5 6 
#
# 1 0.010981 -0.004440 -0.002387 0.000000 0.000000 0.000000
# 2 -0.004440 0.010981 -0.002387 0.000000 0.000000 0.000000
# 3 -0.002387 -0.002387 0.009171 0.000000 0.000000 0.000000
# 4 0.000000 0.000000 0.000000 0.039960 0.000000 0.000000
# 5 0.000000 0.000000 0.000000 0.000000 0.039960 0.000000
# 6 0.000000 0.000000 0.000000 0.000000 0.000000 0.069572
#
#
# Mechanical properties :
#
#
# Convention : Reuss Voigt Hill
#
# Bulk Modulus (GPa) = 78.70429 78.72555 78.71492
# Shear Modulus (GPa) = 24.59543 28.08424 26.33983
#
# Velocity S-wave (km/s) = 3.56224 3.80651 3.68640
# Velocity P-wave (km/s) = 7.58455 7.74186 7.66361
#
# Compressibility (1/GPa) = 0.01270579
#
# Stress axis : x y z
#
# Youngs Moduli (GPa) = 91.06277 91.06277 109.03459
#
# Poissons Ratio (x) = 0.40433 0.26027
# Poissons Ratio (y) = 0.40433 0.26027
# Poissons Ratio (z) = 0.21737 0.21737
#
# Static dielectric constant tensor:
#      x y z
#    x 3.718730 0.000000 0.000000 
#    y 0.000000 3.718730 0.000000 
#    z 0.000000 0.000000 3.455930 
# 
# 
# High freq. dielectric constant tensor:
#      x y z
#    x 1.758180 0.000000 0.000000 
#    y 0.000000 1.758180 0.000000 
#    z 0.000000 0.000000 1.751560 
# 
# From -- ./inp_files/8727.got.cif
#   From: 2010.03.12/outbox.cif.g09.slc.cpg/sg141_5_cif.got.tgz:8727.got - 2010.04.03 13:18:35.
