data_PCOD8320211
_publ_section_title
;
Structure prediction by ZEFSAII (Michael W. Deem and Ramdas Pophale) SiO2 
 PCOD8320211
Probable space group: I 4/M C M
;
_chemical_formula_sum "Si O2"
_cell_formula_units_Z 192
_cell_length_a 20.193949
_cell_length_b 20.193949
_cell_length_c 25.390791
_cell_angle_alpha 90.000000
_cell_angle_beta 90.000000
_cell_angle_gamma 90.000000
_cell_volume 10354.252246
_symmetry_space_group_name_H-M "I 4/M C M"
_symmetry_group_IT_number 140
_symmetry_cell_setting 'tetragonal'
loop_
_space_group_symop_operation_xyz
x,y,z
-y,x,z
-x,-y,z
y,-x,z
x,-y,1/2-z
-x,y,1/2-z
y,x,1/2-z
-y,-x,1/2-z
-x,-y,-z
y,-x,-z
x,y,-z
-y,x,-z
-x,y,1/2+z
x,-y,1/2+z
-y,-x,1/2+z
y,x,1/2+z
1/2+x,1/2+y,1/2+z
1/2-y,1/2+x,1/2+z
1/2-x,1/2-y,1/2+z
1/2+y,1/2-x,1/2+z
1/2+x,1/2-y,-z
1/2-x,1/2+y,-z
1/2+y,1/2+x,-z
1/2-y,1/2-x,-z
1/2-x,1/2-y,1/2-z
1/2+y,1/2-x,1/2-z
1/2+x,1/2+y,1/2-z
1/2-y,1/2+x,1/2-z
1/2-x,1/2+y,z
1/2+x,1/2-y,z
1/2-y,1/2-x,z
1/2+y,1/2+x,z
loop_
_atom_site_type_symbol
_atom_site_label
_atom_site_fract_x
_atom_site_fract_y
_atom_site_fract_z
Si Si1 0.688976 0.914565 0.941389
Si Si2 0.896433 0.012416 0.937677
Si Si3 0.638828 0.243922 0.155888
Si Si4 0.752200 0.147378 0.343727
Si Si5 0.812886 0.924192 0.249771
Si Si6 0.250314 0.049216 0.439621
O O1 0.614265 0.885736 0.932450
O O2 0.739731 0.883046 0.900741
O O3 0.692236 0.993657 0.935266
O O4 0.714179 0.895398 0.000000
O O5 0.820814 0.021124 0.919096
O O6 0.942615 0.073128 0.916466
O O7 0.898995 0.011154 0.000000
O O8 0.679304 0.179304 0.174773
O O9 0.686574 0.305199 0.147454
O O10 0.586275 0.264501 0.200365
O O11 0.606567 0.227302 0.099562
O O12 0.688605 0.188605 0.322933
O O13 0.768788 0.090528 0.301729
O O14 0.877219 0.877219 0.250000
O O15 0.837055 0.000000 0.250000
O O16 0.245044 0.075233 0.500000
#
# Coordination Sequence:
#
# PCOD8320211 Si02
#       6
#    32  32  32  32  32  32
#     4   9  18  32  50  75 105 135 172 215 260 313
#     4   8  15  28  44  64  95 137 180 215 247 293
#     4  10  21  35  52  76 103 132 174 223 265 306
#     4   9  18  33  54  76 101 136 174 214 262 308
#     4  10  20  36  57  78 105 138 174 212 254 309
#     4  10  20  31  49  74 104 142 178 218 262 309
#
# _framework density 18.543106999999999
#
# number of rings (size 3 to 8) (size 9 to 14) (size 15 to 20)
#    0.000    2.667    0.000    2.000    2.333    3.167 
#    0.000    1.667    0.000    0.500    0.000    2.333 
#    0.000    4.333    0.000    0.000    0.000    0.000 
#
# Total GULP energy -1189834.451539 kJ/mol
# GULP energy per Si atom -12394.108870 kJ/mol
# Density = 1.850090 g / cm^3
# Si number density = 18.543107 Si / 1000 Ang^3
#
#
#
# Elastic Constant Matrix: (Units=GPa)
#
#
# Indices 1 2 3 4 5 6 
#
# 1 72.2921 37.8294 38.6871 0.0000 0.0000 0.0000
# 2 37.8294 72.2921 38.6871 0.0000 0.0000 0.0000
# 3 38.6871 38.6871 101.2310 0.0000 0.0000 0.0000
# 4 0.0000 0.0000 0.0000 26.4826 0.0000 0.0000
# 5 0.0000 0.0000 0.0000 0.0000 26.4826 0.0000
# 6 0.0000 0.0000 0.0000 0.0000 0.0000 13.5279
#
#
#
# Elastic Compliance Matrix: (Units=1/GPa)
#
#
# Indices 1 2 3 4 5 6 
#
# 1 0.020716 -0.008301 -0.004744 0.000000 0.000000 0.000000
# 2 -0.008301 0.020716 -0.004744 0.000000 0.000000 0.000000
# 3 -0.004744 -0.004744 0.013505 0.000000 0.000000 0.000000
# 4 0.000000 0.000000 0.000000 0.037761 0.000000 0.000000
# 5 0.000000 0.000000 0.000000 0.000000 0.037761 0.000000
# 6 0.000000 0.000000 0.000000 0.000000 0.000000 0.073922
#
#
# Mechanical properties :
#
#
# Convention : Reuss Voigt Hill
#
# Bulk Modulus (GPa) = 51.66357 52.91360 52.28859
# Shear Modulus (GPa) = 20.29132 22.00605 21.14869
#
# Velocity S-wave (km/s) = 3.31158 3.44866 3.38081
# Velocity P-wave (km/s) = 6.52257 6.66747 6.59541
#
# Compressibility (1/GPa) = 0.01935600
#
# Stress axis : x y z
#
# Youngs Moduli (GPa) = 48.27272 48.27272 74.04840
#
# Poissons Ratio (x) = 0.40072 0.35131
# Poissons Ratio (y) = 0.40072 0.35131
# Poissons Ratio (z) = 0.22902 0.22902
#
# Static dielectric constant tensor:
#      x y z
#    x 3.366090 0.000000 0.000000 
#    y 0.000000 3.366090 0.000000 
#    z 0.000000 0.000000 3.467170 
# 
# 
# High freq. dielectric constant tensor:
#      x y z
#    x 1.702070 0.000000 0.000000 
#    y 0.000000 1.702070 0.000000 
#    z 0.000000 0.000000 1.719090 
# 
# From -- ./inp_files/9738.got.cif
#   From: 2010.06.25/outbox.cif.g09.slc.cpg/sg140_5_cif.got.tgz:9738.got - 2010.06.28 10:53:23.
