data_PCOD8320364
_publ_section_title
;
Structure prediction by ZEFSAII (Michael W. Deem and Ramdas Pophale) SiO2 
 PCOD8320364
Probable space group: I 4/M C M
;
_chemical_formula_sum "Si O2"
_cell_formula_units_Z 112
_cell_length_a 18.422981
_cell_length_b 18.422981
_cell_length_c 15.050739
_cell_angle_alpha 90.000000
_cell_angle_beta 90.000000
_cell_angle_gamma 90.000000
_cell_volume 5108.314567
_symmetry_space_group_name_H-M "I 4/M C M"
_symmetry_group_IT_number 140
_symmetry_cell_setting 'tetragonal'
loop_
_space_group_symop_operation_xyz
x,y,z
-y,x,z
-x,-y,z
y,-x,z
x,-y,1/2-z
-x,y,1/2-z
y,x,1/2-z
-y,-x,1/2-z
-x,-y,-z
y,-x,-z
x,y,-z
-y,x,-z
-x,y,1/2+z
x,-y,1/2+z
-y,-x,1/2+z
y,x,1/2+z
1/2+x,1/2+y,1/2+z
1/2-y,1/2+x,1/2+z
1/2-x,1/2-y,1/2+z
1/2+y,1/2-x,1/2+z
1/2+x,1/2-y,-z
1/2-x,1/2+y,-z
1/2+y,1/2+x,-z
1/2-y,1/2-x,-z
1/2-x,1/2-y,1/2-z
1/2+y,1/2-x,1/2-z
1/2+x,1/2+y,1/2-z
1/2-y,1/2+x,1/2-z
1/2-x,1/2+y,z
1/2+x,1/2-y,z
1/2-y,1/2-x,z
1/2+y,1/2+x,z
loop_
_atom_site_type_symbol
_atom_site_label
_atom_site_fract_x
_atom_site_fract_y
_atom_site_fract_z
Si Si1 0.884123 0.384123 0.605905
Si Si2 0.955732 0.339755 0.105813
Si Si3 0.233131 0.266870 0.851758
Si Si4 0.113102 0.190522 0.400940
Si Si5 0.416410 0.583591 0.750000
O O1 0.881359 0.381359 0.500000
O O2 0.862237 0.464494 0.640612
O O3 0.828117 0.328117 0.647481
O O4 0.897272 0.397272 0.144506
O O5 0.934117 0.258320 0.137538
O O6 0.953219 0.342055 0.000000
O O7 0.250000 0.250000 0.750000
O O8 0.209418 0.197068 0.906327
O O9 0.085869 0.169825 0.500000
O O10 0.112330 0.120369 0.338877
O O11 0.397985 0.500000 0.750000
#
# Coordination Sequence:
#
# PCOD8320364 Si02
#       5
#    16  32  16  32  16
#     4  10  21  36  62  99 134 170 223 276 330 405
#     4   9  18  35  63 100 137 174 212 267 339 409
#     4  12  24  41  63  96 134 181 230 281 331 396
#     4  11  23  42  70  99 134 178 225 278 340 411
#     4  11  28  49  68  96 130 171 230 295 352 408
#
# _framework density 21.925039999999999
#
# number of rings (size 3 to 8) (size 9 to 14) (size 15 to 20)
#    0.000    1.571    2.857    1.714    4.000    2.857 
#    0.000    1.429    0.000    0.000    3.714    0.000 
#    0.000    0.000    0.000    0.000    0.000    0.000 
#
# Total GULP energy -694368.921782 kJ/mol
# GULP energy per Si atom -12399.445032 kJ/mol
# Density = 2.187514 g / cm^3
# Si number density = 21.925040 Si / 1000 Ang^3
#
#
#
# Elastic Constant Matrix: (Units=GPa)
#
#
# Indices 1 2 3 4 5 6 
#
# 1 198.6818 32.3505 44.0094 0.0000 0.0000 0.0000
# 2 32.3505 198.6845 44.0100 0.0000 0.0000 0.0000
# 3 44.0094 44.0100 78.4716 0.0000 0.0000 0.0000
# 4 0.0000 0.0000 0.0000 40.9636 0.0000 0.0000
# 5 0.0000 0.0000 0.0000 0.0000 40.9695 0.0000
# 6 0.0000 0.0000 0.0000 0.0000 0.0000 41.4044
#
#
#
# Elastic Compliance Matrix: (Units=1/GPa)
#
#
# Indices 1 2 3 4 5 6 
#
# 1 0.005758 -0.000254 -0.003087 0.000000 0.000000 0.000000
# 2 -0.000254 0.005758 -0.003087 0.000000 0.000000 0.000000
# 3 -0.003087 -0.003087 0.016206 0.000000 0.000000 0.000000
# 4 0.000000 0.000000 0.000000 0.024412 0.000000 0.000000
# 5 0.000000 0.000000 0.000000 0.000000 0.024408 0.000000
# 6 0.000000 0.000000 0.000000 0.000000 0.000000 0.024152
#
#
# Mechanical properties :
#
#
# Convention : Reuss Voigt Hill
#
# Bulk Modulus (GPa) = 67.26435 79.61974 73.44205
# Shear Modulus (GPa) = 42.19172 48.36538 45.27855
#
# Velocity S-wave (km/s) = 4.39151 4.70184 4.54932
# Velocity P-wave (km/s) = 7.51397 8.11602 7.82079
#
# Compressibility (1/GPa) = 0.01486672
#
# Stress axis : x y z
#
# Youngs Moduli (GPa) = 173.66195 173.66402 61.70479
#
# Poissons Ratio (x) = 0.04407 0.19049
# Poissons Ratio (y) = 0.04407 0.19049
# Poissons Ratio (z) = 0.53612 0.53612
#
# Static dielectric constant tensor:
#      x y z
#    x 5.139700 0.000000 0.000000 
#    y 0.000000 5.127520 0.000000 
#    z 0.000000 0.000000 3.732340 
# 
# 
# High freq. dielectric constant tensor:
#      x y z
#    x 1.868240 0.000000 0.000000 
#    y 0.000000 1.868240 0.000000 
#    z 0.000000 0.000000 1.848770 
# 
# From -- ./inp_files/6144.got.cif
#   From: 2010.06.25/outbox.cif.g09.slc.cpg/sg140_4_cif.got.tgz:6144.got - 2010.06.28 10:53:23.
