data_PCOD8320902
_publ_section_title
;
Structure prediction by ZEFSAII (Michael W. Deem and Ramdas Pophale) SiO2 
 PCOD8320902
Probable space group: I 41/A M D
;
_chemical_formula_sum "Si O2"
_cell_formula_units_Z 160
_cell_length_a 26.791343
_cell_length_b 26.791343
_cell_length_c 11.123089
_cell_angle_alpha 90.000000
_cell_angle_beta 90.000000
_cell_angle_gamma 90.000000
_cell_volume 7983.886995
_symmetry_space_group_name_H-M "I 41/A M D"
_symmetry_group_IT_number 141
_space_group.IT_coordinate_system_code '2'
_symmetry_cell_setting 'tetragonal'
loop_
_space_group_symop_operation_xyz
x,y,z
1/4-y,3/4+x,1/4+z
-x,1/2-y,z
1/4+y,1/4-x,3/4+z
x,-y,-z
-x,1/2+y,-z
1/4+y,3/4+x,1/4-z
1/4-y,1/4-x,3/4-z
-x,-y,-z
3/4+y,1/4-x,3/4-z
x,1/2+y,-z
3/4-y,3/4+x,1/4-z
-x,y,z
x,1/2-y,z
3/4-y,1/4-x,3/4+z
3/4+y,3/4+x,1/4+z
1/2+x,1/2+y,1/2+z
3/4-y,1/4+x,3/4+z
1/2-x,-y,1/2+z
3/4+y,3/4-x,1/4+z
1/2+x,1/2-y,1/2-z
1/2-x,y,1/2-z
3/4+y,1/4+x,3/4-z
3/4-y,3/4-x,1/4-z
1/2-x,1/2-y,1/2-z
1/4+y,3/4-x,1/4-z
1/2+x,y,1/2-z
1/4-y,1/4+x,3/4-z
1/2-x,1/2+y,1/2+z
1/2+x,-y,1/2+z
1/4-y,3/4-x,1/4+z
1/4+y,1/4+x,3/4+z
loop_
_atom_site_type_symbol
_atom_site_label
_atom_site_fract_x
_atom_site_fract_y
_atom_site_fract_z
Si Si1 0.555726 0.805073 0.733457
Si Si2 0.620198 0.631308 0.570780
Si Si3 0.849434 0.520849 0.127745
Si Si4 0.178547 0.440885 0.506207
Si Si5 0.326336 0.809315 0.375665
O O1 0.500000 0.816034 0.686553
O O2 0.572150 0.750000 0.690154
O O3 0.558039 0.808039 0.875000
O O4 0.592244 0.846189 0.683510
O O5 0.666607 0.601525 0.631534
O O6 0.636970 0.677049 0.485392
O O7 0.580768 0.596031 0.501610
O O8 0.828329 0.578329 0.125000
O O9 0.821087 0.487430 0.225657
O O10 0.909399 0.524964 0.150978
O O11 0.835855 0.500000 0.000000
O O12 0.168886 0.500000 0.500000
O O13 0.166526 0.416526 0.375000
O O14 0.316678 0.750000 0.369160
#
# Coordination Sequence:
#
# PCOD8320902 Si02
#       5
#    32  32  32  32  32
#     4   9  18  34  58  86 117 159 209 259 316 379
#     4  11  21  40  58  90 127 163 213 264 321 383
#     4  12  21  41  62  90 123 159 209 261 315 380
#     4  12  24  39  65  95 125 165 212 269 329 386
#     4  11  23  39  62  88 125 170 210 263 322 383
#
# _framework density 20.040364
#
# number of rings (size 3 to 8) (size 9 to 14) (size 15 to 20)
#    0.000    1.000    4.000    6.000    0.000    0.400 
#    0.000    0.000    0.000   18.000    0.000    0.000 
#    0.000    0.000    0.000    0.000    0.000    0.000 
#
# Total GULP energy -991368.014408 kJ/mol
# GULP energy per Si atom -12392.100180 kJ/mol
# Density = 1.999475 g / cm^3
# Si number density = 20.040364 Si / 1000 Ang^3
#
#
#
# Elastic Constant Matrix: (Units=GPa)
#
#
# Indices 1 2 3 4 5 6 
#
# 1 122.3230 48.5545 35.1099 0.0000 0.0000 0.0000
# 2 48.5545 122.3230 35.1099 0.0000 0.0000 0.0000
# 3 35.1099 35.1099 82.6080 0.0000 0.0000 0.0000
# 4 0.0000 0.0000 0.0000 23.8609 0.0000 0.0000
# 5 0.0000 0.0000 0.0000 0.0000 23.8609 0.0000
# 6 0.0000 0.0000 0.0000 0.0000 0.0000 34.2346
#
#
#
# Elastic Compliance Matrix: (Units=1/GPa)
#
#
# Indices 1 2 3 4 5 6 
#
# 1 0.010323 -0.003233 -0.003014 0.000000 0.000000 0.000000
# 2 -0.003233 0.010323 -0.003014 0.000000 0.000000 0.000000
# 3 -0.003014 -0.003014 0.014667 0.000000 0.000000 0.000000
# 4 0.000000 0.000000 0.000000 0.041910 0.000000 0.000000
# 5 0.000000 0.000000 0.000000 0.000000 0.041910 0.000000
# 6 0.000000 0.000000 0.000000 0.000000 0.000000 0.029210
#
#
# Mechanical properties :
#
#
# Convention : Reuss Voigt Hill
#
# Bulk Modulus (GPa) = 59.54619 62.75587 61.15103
# Shear Modulus (GPa) = 28.99214 30.28993 29.64104
#
# Velocity S-wave (km/s) = 3.80766 3.89195 3.85004
# Velocity P-wave (km/s) = 7.00776 7.18186 7.09534
#
# Compressibility (1/GPa) = 0.01679369
#
# Stress axis : x y z
#
# Youngs Moduli (GPa) = 96.86881 96.86881 68.18003
#
# Poissons Ratio (x) = 0.31315 0.20547
# Poissons Ratio (y) = 0.31315 0.20547
# Poissons Ratio (z) = 0.29193 0.29193
#
# Static dielectric constant tensor:
#      x y z
#    x 3.644530 0.000000 0.000000 
#    y 0.000000 3.644530 0.000000 
#    z 0.000000 0.000000 3.749910 
# 
# 
# High freq. dielectric constant tensor:
#      x y z
#    x 1.771460 0.000000 0.000000 
#    y 0.000000 1.771460 0.000000 
#    z 0.000000 0.000000 1.801020 
# 
# From -- ./inp_files/4830.got.cif
#   From: 2010.03.12/outbox.cif.g09.slc.cpg/sg141_3_cif.got.tgz:4830.got - 2010.04.03 13:18:35.
