data_PCOD8320646
_publ_section_title
;
Structure prediction by ZEFSAII (Michael W. Deem and Ramdas Pophale) SiO2 
 PCOD8320646
Probable space group: I 41/A M D
;
_chemical_formula_sum "Si O2"
_cell_formula_units_Z 144
_cell_length_a 28.016292
_cell_length_b 28.016292
_cell_length_c 9.939133
_cell_angle_alpha 90.000000
_cell_angle_beta 90.000000
_cell_angle_gamma 90.000000
_cell_volume 7801.350898
_symmetry_space_group_name_H-M "I 41/A M D"
_symmetry_group_IT_number 141
_space_group.IT_coordinate_system_code '2'
_symmetry_cell_setting 'tetragonal'
loop_
_space_group_symop_operation_xyz
x,y,z
1/4-y,3/4+x,1/4+z
-x,1/2-y,z
1/4+y,1/4-x,3/4+z
x,-y,-z
-x,1/2+y,-z
1/4+y,3/4+x,1/4-z
1/4-y,1/4-x,3/4-z
-x,-y,-z
3/4+y,1/4-x,3/4-z
x,1/2+y,-z
3/4-y,3/4+x,1/4-z
-x,y,z
x,1/2-y,z
3/4-y,1/4-x,3/4+z
3/4+y,3/4+x,1/4+z
1/2+x,1/2+y,1/2+z
3/4-y,1/4+x,3/4+z
1/2-x,-y,1/2+z
3/4+y,3/4-x,1/4+z
1/2+x,1/2-y,1/2-z
1/2-x,y,1/2-z
3/4+y,1/4+x,3/4-z
3/4-y,3/4-x,1/4-z
1/2-x,1/2-y,1/2-z
1/4+y,3/4-x,1/4-z
1/2+x,y,1/2-z
1/4-y,1/4+x,3/4-z
1/2-x,1/2+y,1/2+z
1/2+x,-y,1/2+z
1/4-y,3/4-x,1/4+z
1/4+y,1/4+x,3/4+z
loop_
_atom_site_type_symbol
_atom_site_label
_atom_site_fract_x
_atom_site_fract_y
_atom_site_fract_z
Si Si1 0.284838 0.465163 0.625000
Si Si2 0.396412 0.964700 0.328350
Si Si3 0.301793 0.195515 0.311332
Si Si4 0.188056 0.693394 0.336572
Si Si5 0.055500 0.122508 0.335931
O O1 0.272093 0.500000 0.500000
O O2 0.339773 0.473441 0.667255
O O3 0.410833 0.940865 0.188064
O O4 0.413723 0.929802 0.449209
O O5 0.425602 0.013700 0.342516
O O6 0.314020 0.250000 0.352960
O O7 0.250000 0.192420 0.250000
O O8 0.335322 0.174813 0.195002
O O9 0.192194 0.750000 0.309041
O O10 0.144207 0.681286 0.435269
O O11 0.076775 0.173226 0.375000
O O12 0.000000 0.127657 0.351132
#
# Coordination Sequence:
#
# PCOD8320646 Si02
#       5
#    16  32  32  32  32
#     4  12  28  46  54  78 122 170 215 232 269 350
#     4  11  21  37  59  83 113 151 192 246 294 339
#     4  10  19  34  59  90 115 139 183 244 303 347
#     4  10  19  37  64  89 110 139 191 252 308 350
#     4  10  22  37  57  86 118 152 190 233 288 357
#
# _framework density 18.458341000000001
#
# number of rings (size 3 to 8) (size 9 to 14) (size 15 to 20)
#    0.000    1.556    4.444    2.667    3.111    1.111 
#    2.000    0.000    0.000    0.000    0.000    0.000 
#    0.000    7.111    0.000    0.000    0.000    0.000 
#
# Total GULP energy -892650.609787 kJ/mol
# GULP energy per Si atom -12397.925136 kJ/mol
# Density = 1.841633 g / cm^3
# Si number density = 18.458341 Si / 1000 Ang^3
#
#
#
# Elastic Constant Matrix: (Units=GPa)
#
#
# Indices 1 2 3 4 5 6 
#
# 1 59.4469 27.8208 48.0520 0.0000 0.0000 0.0000
# 2 27.8208 59.4260 48.0509 0.0000 0.0000 0.0000
# 3 48.0520 48.0509 147.5503 0.0000 0.0000 0.0000
# 4 0.0000 0.0000 0.0000 23.2284 0.0000 0.0000
# 5 0.0000 0.0000 0.0000 0.0000 23.2328 0.0000
# 6 0.0000 0.0000 0.0000 0.0000 0.0000 24.4038
#
#
#
# Elastic Compliance Matrix: (Units=1/GPa)
#
#
# Indices 1 2 3 4 5 6 
#
# 1 0.024744 -0.006880 -0.005818 0.000000 0.000000 0.000000
# 2 -0.006880 0.024756 -0.005821 0.000000 0.000000 0.000000
# 3 -0.005818 -0.005821 0.010568 0.000000 0.000000 0.000000
# 4 0.000000 0.000000 0.000000 0.043051 0.000000 0.000000
# 5 0.000000 0.000000 0.000000 0.000000 0.043043 0.000000
# 6 0.000000 0.000000 0.000000 0.000000 0.000000 0.040977
#
#
# Mechanical properties :
#
#
# Convention : Reuss Voigt Hill
#
# Bulk Modulus (GPa) = 43.42287 57.14118 50.28203
# Shear Modulus (GPa) = 21.56540 23.67295 22.61918
#
# Velocity S-wave (km/s) = 3.42179 3.58510 3.50439
# Velocity P-wave (km/s) = 6.25998 6.93983 6.60866
#
# Compressibility (1/GPa) = 0.02302934
#
# Stress axis : x y z
#
# Youngs Moduli (GPa) = 40.41352 40.39486 94.62769
#
# Poissons Ratio (x) = 0.27792 0.55052
# Poissons Ratio (y) = 0.27805 0.55085
# Poissons Ratio (z) = 0.23512 0.23515
#
# Static dielectric constant tensor:
#      x y z
#    x 3.313860 0.000000 0.000000 
#    y 0.000000 3.313880 0.000000 
#    z 0.000000 0.000000 3.470410 
# 
# 
# High freq. dielectric constant tensor:
#      x y z
#    x 1.701370 0.000000 0.000000 
#    y 0.000000 1.701370 0.000000 
#    z 0.000000 0.000000 1.732820 
# 
# From -- ./inp_files/4801.got.cif
#   From: 2010.03.12/outbox.cif.g09.slc.cpg/sg141_3_cif.got.tgz:4801.got - 2010.04.03 13:18:35.
