data_PCOD8320165
_publ_section_title
;
Structure prediction by ZEFSAII (Michael W. Deem and Ramdas Pophale) SiO2 
 PCOD8320165
Probable space group: I 4/M C M
;
_chemical_formula_sum "Si O2"
_cell_formula_units_Z 160
_cell_length_a 31.541846
_cell_length_b 31.541846
_cell_length_c 9.098576
_cell_angle_alpha 90.000000
_cell_angle_beta 90.000000
_cell_angle_gamma 90.000000
_cell_volume 9052.064526
_symmetry_space_group_name_H-M "I 4/M C M"
_symmetry_group_IT_number 140
_symmetry_cell_setting 'tetragonal'
loop_
_space_group_symop_operation_xyz
x,y,z
-y,x,z
-x,-y,z
y,-x,z
x,-y,1/2-z
-x,y,1/2-z
y,x,1/2-z
-y,-x,1/2-z
-x,-y,-z
y,-x,-z
x,y,-z
-y,x,-z
-x,y,1/2+z
x,-y,1/2+z
-y,-x,1/2+z
y,x,1/2+z
1/2+x,1/2+y,1/2+z
1/2-y,1/2+x,1/2+z
1/2-x,1/2-y,1/2+z
1/2+y,1/2-x,1/2+z
1/2+x,1/2-y,-z
1/2-x,1/2+y,-z
1/2+y,1/2+x,-z
1/2-y,1/2-x,-z
1/2-x,1/2-y,1/2-z
1/2+y,1/2-x,1/2-z
1/2+x,1/2+y,1/2-z
1/2-y,1/2+x,1/2-z
1/2-x,1/2+y,z
1/2+x,1/2-y,z
1/2-y,1/2-x,z
1/2+y,1/2+x,z
loop_
_atom_site_type_symbol
_atom_site_label
_atom_site_fract_x
_atom_site_fract_y
_atom_site_fract_z
Si Si1 0.291695 0.042973 0.827680
Si Si2 0.000000 0.866976 0.750000
Si Si3 0.065391 0.804759 0.832025
Si Si4 0.930606 0.991110 0.000000
Si Si5 0.696827 0.127233 0.169132
Si Si6 0.658057 0.279389 0.326724
O O1 0.241828 0.047892 0.801662
O O2 0.313914 0.082900 0.749081
O O3 0.307759 0.000000 0.750000
O O4 0.303405 0.042432 0.000000
O O5 0.040823 0.836657 0.721625
O O6 0.985387 0.899116 0.630122
O O7 0.115483 0.806846 0.800562
O O8 0.055279 0.817817 0.000000
O O9 0.963853 0.953297 0.000000
O O10 0.654197 0.154197 0.176679
O O11 0.733607 0.152829 0.253326
O O12 0.710730 0.119296 0.000000
O O13 0.697181 0.302820 0.250000
O O14 0.666840 0.273442 0.500000
#
# Coordination Sequence:
#
# PCOD8320165 Si02
#       6
#    32  16  32  16  32  32
#     4  10  19  33  56  81 114 146 177 222 273 321
#     4  12  20  39  60  74  94 124 164 212 269 334
#     4   9  19  35  52  79 103 126 163 209 265 329
#     4  11  26  42  54  68  90 122 162 210 268 330
#     4  10  21  37  56  80 110 149 193 230 272 326
#     4  10  21  37  54  77 109 140 179 227 275 331
#
# _framework density 17.675525
#
# number of rings (size 3 to 8) (size 9 to 14) (size 15 to 20)
#    0.000    1.900    2.000    3.600    0.000    4.400 
#    9.000    0.000    0.000    0.000    0.000    0.000 
#    0.000    0.400    0.000    4.200    0.000    1.800 
#
# Total GULP energy -991625.530079 kJ/mol
# GULP energy per Si atom -12395.319126 kJ/mol
# Density = 1.763529 g / cm^3
# Si number density = 17.675525 Si / 1000 Ang^3
#
#
#
# Elastic Constant Matrix: (Units=GPa)
#
#
# Indices 1 2 3 4 5 6 
#
# 1 79.1849 41.9627 38.8792 0.0000 0.0000 0.0000
# 2 41.9627 79.1876 38.8796 0.0000 0.0000 0.0000
# 3 38.8792 38.8796 104.9209 0.0000 0.0000 0.0000
# 4 0.0000 0.0000 0.0000 45.5997 0.0000 0.0000
# 5 0.0000 0.0000 0.0000 0.0000 45.5995 0.0000
# 6 0.0000 0.0000 0.0000 0.0000 0.0000 -28.9205
#
#
#
# Elastic Compliance Matrix: (Units=1/GPa)
#
#
# Indices 1 2 3 4 5 6 
#
# 1 0.018848 -0.008017 -0.004013 0.000000 0.000000 0.000000
# 2 -0.008017 0.018847 -0.004013 0.000000 0.000000 0.000000
# 3 -0.004013 -0.004013 0.012505 0.000000 0.000000 0.000000
# 4 0.000000 0.000000 0.000000 0.021930 0.000000 0.000000
# 5 0.000000 0.000000 0.000000 0.000000 0.021930 0.000000
# 6 0.000000 0.000000 0.000000 0.000000 0.000000 -0.034578
#
#
# Mechanical properties :
#
#
# Convention : Reuss Voigt Hill
#
# Bulk Modulus (GPa) = 55.20985 55.85963 55.53474
# Shear Modulus (GPa) = 51.22547 22.02718 36.62633
#
# Velocity S-wave (km/s) = 5.38924 3.53398 4.55702
# Velocity P-wave (km/s) = 8.36829 6.95151 7.69258
#
# Compressibility (1/GPa) = 0.01811271
#
# Stress axis : x y z
#
# Youngs Moduli (GPa) = 53.05657 53.05857 79.96637
#
# Poissons Ratio (x) = 0.42539 0.32093
# Poissons Ratio (y) = 0.42537 0.32092
# Poissons Ratio (z) = 0.21293 0.21293
#
# Static dielectric constant tensor:
#      x y z
#    x 3.195200 0.000000 0.000000 
#    y 0.000000 3.195200 0.000000 
#    z 0.000000 0.000000 3.370610 
# 
# 
# High freq. dielectric constant tensor:
#      x y z
#    x 1.669480 0.000000 0.000000 
#    y 0.000000 1.669480 0.000000 
#    z 0.000000 0.000000 1.693280 
# 
# From -- ./inp_files/1834.got.cif
#   From: 2010.06.25/outbox.cif.g09.slc.cpg/sg140_1_cif.got.tgz:1834.got - 2010.06.28 10:53:23.
