data_PCOD8320879
_publ_section_title
;
Structure prediction by ZEFSAII (Michael W. Deem and Ramdas Pophale) SiO2 
 PCOD8320879
Probable space group: I 41/A M D
;
_chemical_formula_sum "Si O2"
_cell_formula_units_Z 116
_cell_length_a 17.979559
_cell_length_b 17.979559
_cell_length_c 17.538826
_cell_angle_alpha 90.000000
_cell_angle_beta 90.000000
_cell_angle_gamma 90.000000
_cell_volume 5669.680551
_symmetry_space_group_name_H-M "I 41/A M D"
_symmetry_group_IT_number 141
_space_group.IT_coordinate_system_code '2'
_symmetry_cell_setting 'tetragonal'
loop_
_space_group_symop_operation_xyz
x,y,z
1/4-y,3/4+x,1/4+z
-x,1/2-y,z
1/4+y,1/4-x,3/4+z
x,-y,-z
-x,1/2+y,-z
1/4+y,3/4+x,1/4-z
1/4-y,1/4-x,3/4-z
-x,-y,-z
3/4+y,1/4-x,3/4-z
x,1/2+y,-z
3/4-y,3/4+x,1/4-z
-x,y,z
x,1/2-y,z
3/4-y,1/4-x,3/4+z
3/4+y,3/4+x,1/4+z
1/2+x,1/2+y,1/2+z
3/4-y,1/4+x,3/4+z
1/2-x,-y,1/2+z
3/4+y,3/4-x,1/4+z
1/2+x,1/2-y,1/2-z
1/2-x,y,1/2-z
3/4+y,1/4+x,3/4-z
3/4-y,3/4-x,1/4-z
1/2-x,1/2-y,1/2-z
1/4+y,3/4-x,1/4-z
1/2+x,y,1/2-z
1/4-y,1/4+x,3/4-z
1/2-x,1/2+y,1/2+z
1/2+x,-y,1/2+z
1/4-y,3/4-x,1/4+z
1/4+y,1/4+x,3/4+z
loop_
_atom_site_type_symbol
_atom_site_label
_atom_site_fract_x
_atom_site_fract_y
_atom_site_fract_z
Si Si1 0.500000 0.168154 0.977570
Si Si2 0.357291 0.427644 0.958705
Si Si3 0.417790 0.162612 0.539817
Si Si4 0.500000 0.250000 0.125000
Si Si5 0.671535 0.959053 0.211460
O O1 0.500000 0.250000 0.939235
O O2 0.574869 0.128927 0.948709
O O3 0.500000 0.176710 0.070417
O O4 0.322470 0.456854 0.879641
O O5 0.390534 0.500000 0.000000
O O6 0.289460 0.392205 0.008357
O O7 0.391561 0.141561 0.625000
O O8 0.500000 0.128342 0.522735
O O9 0.423210 0.250000 0.531289
O O10 0.357010 0.134231 0.481234
O O11 0.750000 0.941541 0.250000
#
# Coordination Sequence:
#
# PCOD8320879 Si02
#       5
#    16  32  32   4  32
#     4  10  25  43  68  96 129 168 213 281 318 387
#     4  11  24  42  66  93 129 169 221 266 334 387
#     4   9  19  37  60  86 121 165 209 255 316 381
#     4   8  24  44  72  88 140 160 226 276 316 376
#     4  11  23  39  65  92 127 168 214 272 317 394
#
# _framework density 20.459706000000001
#
# number of rings (size 3 to 8) (size 9 to 14) (size 15 to 20)
#    0.414    1.379    0.000    6.207    5.793    2.759 
#    0.000    0.000    0.000    0.000    0.000    0.000 
#    0.000    0.000    0.000    0.000    0.000    0.000 
#
# Total GULP energy -718994.971234 kJ/mol
# GULP energy per Si atom -12396.465021 kJ/mol
# Density = 2.041314 g / cm^3
# Si number density = 20.459706 Si / 1000 Ang^3
#
#
#
# Elastic Constant Matrix: (Units=GPa)
#
#
# Indices 1 2 3 4 5 6 
#
# 1 96.5685 54.6855 33.0911 0.0000 0.0000 0.0000
# 2 54.6855 96.5685 33.0911 0.0000 0.0000 0.0000
# 3 33.0911 33.0911 112.6872 0.0000 0.0000 0.0000
# 4 0.0000 0.0000 0.0000 44.3418 0.0000 0.0000
# 5 0.0000 0.0000 0.0000 0.0000 44.3418 0.0000
# 6 0.0000 0.0000 0.0000 0.0000 0.0000 38.2574
#
#
#
# Elastic Compliance Matrix: (Units=1/GPa)
#
#
# Indices 1 2 3 4 5 6 
#
# 1 0.015731 -0.008145 -0.002228 0.000000 0.000000 0.000000
# 2 -0.008145 0.015731 -0.002228 0.000000 0.000000 0.000000
# 3 -0.002228 -0.002228 0.010182 0.000000 0.000000 0.000000
# 4 0.000000 0.000000 0.000000 0.022552 0.000000 0.000000
# 5 0.000000 0.000000 0.000000 0.000000 0.022552 0.000000
# 6 0.000000 0.000000 0.000000 0.000000 0.000000 0.026139
#
#
# Mechanical properties :
#
#
# Convention : Reuss Voigt Hill
#
# Bulk Modulus (GPa) = 60.81266 60.83994 60.82630
# Shear Modulus (GPa) = 34.82632 37.71864 36.27248
#
# Velocity S-wave (km/s) = 4.13024 4.29832 4.21512
# Velocity P-wave (km/s) = 7.24795 7.37802 7.31327
#
# Compressibility (1/GPa) = 0.01644394
#
# Stress axis : x y z
#
# Youngs Moduli (GPa) = 63.56837 63.56837 98.20797
#
# Poissons Ratio (x) = 0.51776 0.21878
# Poissons Ratio (y) = 0.51776 0.21878
# Poissons Ratio (z) = 0.14161 0.14161
#
# Static dielectric constant tensor:
#      x y z
#    x 3.641160 0.000000 0.000000 
#    y 0.000000 3.641160 0.000000 
#    z 0.000000 0.000000 4.291880 
# 
# 
# High freq. dielectric constant tensor:
#      x y z
#    x 1.794530 0.000000 0.000000 
#    y 0.000000 1.794530 0.000000 
#    z 0.000000 0.000000 1.808120 
# 
# From -- ./inp_files/7980.got.cif
#   From: 2010.03.12/outbox.cif.g09.slc.cpg/sg141_4_cif.got.tgz:7980.got - 2010.04.03 13:18:35.
