data_PCOD8320095
_publ_section_title
;
Structure prediction by ZEFSAII (Michael W. Deem and Ramdas Pophale) SiO2 
 PCOD8320095
Probable space group: I 4/M C M
;
_chemical_formula_sum "Si O2"
_cell_formula_units_Z 224
_cell_length_a 24.059991
_cell_length_b 24.059991
_cell_length_c 25.428281
_cell_angle_alpha 90.000000
_cell_angle_beta 90.000000
_cell_angle_gamma 90.000000
_cell_volume 14720.003835
_symmetry_space_group_name_H-M "I 4/M C M"
_symmetry_group_IT_number 140
_symmetry_cell_setting 'tetragonal'
loop_
_space_group_symop_operation_xyz
x,y,z
-y,x,z
-x,-y,z
y,-x,z
x,-y,1/2-z
-x,y,1/2-z
y,x,1/2-z
-y,-x,1/2-z
-x,-y,-z
y,-x,-z
x,y,-z
-y,x,-z
-x,y,1/2+z
x,-y,1/2+z
-y,-x,1/2+z
y,x,1/2+z
1/2+x,1/2+y,1/2+z
1/2-y,1/2+x,1/2+z
1/2-x,1/2-y,1/2+z
1/2+y,1/2-x,1/2+z
1/2+x,1/2-y,-z
1/2-x,1/2+y,-z
1/2+y,1/2+x,-z
1/2-y,1/2-x,-z
1/2-x,1/2-y,1/2-z
1/2+y,1/2-x,1/2-z
1/2+x,1/2+y,1/2-z
1/2-y,1/2+x,1/2-z
1/2-x,1/2+y,z
1/2+x,1/2-y,z
1/2-y,1/2-x,z
1/2+y,1/2+x,z
loop_
_atom_site_type_symbol
_atom_site_label
_atom_site_fract_x
_atom_site_fract_y
_atom_site_fract_z
Si Si1 0.363825 0.229447 0.354894
Si Si2 0.050307 0.362834 0.287663
Si Si3 0.168852 0.423046 0.058027
Si Si4 0.681970 0.724596 0.857739
Si Si5 0.126280 0.536848 0.906691
Si Si6 0.635549 0.225873 0.738204
Si Si7 0.214591 0.621557 0.941682
O O1 0.322740 0.177261 0.353702
O O2 0.413495 0.216050 0.396621
O O3 0.331886 0.285657 0.371603
O O4 0.387983 0.241699 0.296141
O O5 0.085800 0.414201 0.263822
O O6 0.027909 0.378926 0.344577
O O7 0.089662 0.309404 0.293092
O O8 0.000000 0.348839 0.250000
O O9 0.130433 0.369568 0.057885
O O10 0.129357 0.476224 0.067839
O O11 0.196882 0.428856 0.000000
O O12 0.723532 0.776469 0.856220
O O13 0.651616 0.722370 0.800155
O O14 0.636421 0.734135 0.903396
O O15 0.072936 0.572936 0.927140
O O16 0.183599 0.567113 0.920818
O O17 0.691367 0.191367 0.748659
O O18 0.172154 0.672154 0.943086
O O19 0.238408 0.610117 0.000000
#
# Coordination Sequence:
#
# PCOD8320095 Si02
#       7
#    32  32  32  32  32  32  32
#     4   9  17  27  42  60  80 105 129 160 209 261
#     4  10  19  29  42  58  81 109 140 183 229 266
#     4  10  21  34  44  57  79 107 143 182 218 261
#     4   9  15  25  41  62  82 101 127 162 206 255
#     4  10  19  32  46  59  77 105 144 188 223 253
#     4   9  15  26  41  59  81 101 128 167 208 256
#     4   9  16  26  41  60  79  99 129 171 212 244
#
# _framework density 15.217387
#
# number of rings (size 3 to 8) (size 9 to 14) (size 15 to 20)
#    0.000    2.571    1.429    1.714    0.000    5.286 
#    0.000    5.000    0.000    0.000    0.000    0.000 
#    0.000    0.000    0.000    0.000    0.000    0.714 
#
# Total GULP energy -1387847.201822 kJ/mol
# GULP energy per Si atom -12391.492873 kJ/mol
# Density = 1.518275 g / cm^3
# Si number density = 15.217387 Si / 1000 Ang^3
#
#
#
# Elastic Constant Matrix: (Units=GPa)
#
#
# Indices 1 2 3 4 5 6 
#
# 1 26.6834 24.6675 25.9989 0.0000 0.0000 0.0000
# 2 24.6675 26.6834 25.9989 0.0000 0.0000 0.0000
# 3 25.9989 25.9989 109.0809 0.0000 0.0000 0.0000
# 4 0.0000 0.0000 0.0000 17.8622 0.0000 0.0000
# 5 0.0000 0.0000 0.0000 0.0000 17.8622 0.0000
# 6 0.0000 0.0000 0.0000 0.0000 0.0000 13.9828
#
#
#
# Elastic Compliance Matrix: (Units=1/GPa)
#
#
# Indices 1 2 3 4 5 6 
#
# 1 0.260862 -0.235193 -0.006118 0.000000 0.000000 0.000000
# 2 -0.235193 0.260862 -0.006118 0.000000 0.000000 0.000000
# 3 -0.006118 -0.006118 0.012084 0.000000 0.000000 0.000000
# 4 0.000000 0.000000 0.000000 0.055984 0.000000 0.000000
# 5 0.000000 0.000000 0.000000 0.000000 0.055984 0.000000
# 6 0.000000 0.000000 0.000000 0.000000 0.000000 0.071517
#
#
# Mechanical properties :
#
#
# Convention : Reuss Voigt Hill
#
# Bulk Modulus (GPa) = 25.67422 35.08649 30.38035
# Shear Modulus (GPa) = 4.08119 15.66027 9.87073
#
# Velocity S-wave (km/s) = 1.63944 3.21144 2.54962
# Velocity P-wave (km/s) = 4.52680 6.07108 5.35490
#
# Compressibility (1/GPa) = 0.03894958
#
# Stress axis : x y z
#
# Youngs Moduli (GPa) = 3.83345 3.83345 82.75447
#
# Poissons Ratio (x) = 0.90160 0.50630
# Poissons Ratio (y) = 0.90160 0.50630
# Poissons Ratio (z) = 0.02345 0.02345
#
# Static dielectric constant tensor:
#      x y z
#    x 2.639320 0.000000 0.000000 
#    y 0.000000 2.639320 0.000000 
#    z 0.000000 0.000000 3.339170 
# 
# 
# High freq. dielectric constant tensor:
#      x y z
#    x 1.535960 0.000000 0.000000 
#    y 0.000000 1.535960 0.000000 
#    z 0.000000 0.000000 1.607980 
# 
# From -- ./inp_files/9959.got.cif
#   From: 2010.06.25/outbox.cif.g09.slc.cpg/sg140_5_cif.got.tgz:9959.got - 2010.06.28 10:53:23.
