data_PCOD8320178
_publ_section_title
;
Structure prediction by ZEFSAII (Michael W. Deem and Ramdas Pophale) SiO2 
 PCOD8320178
Probable space group: I 4/M C M
;
_chemical_formula_sum "Si O2"
_cell_formula_units_Z 104
_cell_length_a 14.204819
_cell_length_b 14.204819
_cell_length_c 24.206626
_cell_angle_alpha 90.000000
_cell_angle_beta 90.000000
_cell_angle_gamma 90.000000
_cell_volume 4884.337538
_symmetry_space_group_name_H-M "I 4/M C M"
_symmetry_group_IT_number 140
_symmetry_cell_setting 'tetragonal'
loop_
_space_group_symop_operation_xyz
x,y,z
-y,x,z
-x,-y,z
y,-x,z
x,-y,1/2-z
-x,y,1/2-z
y,x,1/2-z
-y,-x,1/2-z
-x,-y,-z
y,-x,-z
x,y,-z
-y,x,-z
-x,y,1/2+z
x,-y,1/2+z
-y,-x,1/2+z
y,x,1/2+z
1/2+x,1/2+y,1/2+z
1/2-y,1/2+x,1/2+z
1/2-x,1/2-y,1/2+z
1/2+y,1/2-x,1/2+z
1/2+x,1/2-y,-z
1/2-x,1/2+y,-z
1/2+y,1/2+x,-z
1/2-y,1/2-x,-z
1/2-x,1/2-y,1/2-z
1/2+y,1/2-x,1/2-z
1/2+x,1/2+y,1/2-z
1/2-y,1/2+x,1/2-z
1/2-x,1/2+y,z
1/2+x,1/2-y,z
1/2-y,1/2-x,z
1/2+y,1/2+x,z
loop_
_atom_site_type_symbol
_atom_site_label
_atom_site_fract_x
_atom_site_fract_y
_atom_site_fract_z
Si Si1 0.577543 0.922458 0.116598
Si Si2 0.703883 0.952444 0.307828
Si Si3 0.276950 0.078730 0.500000
Si Si4 0.852725 0.950364 0.605179
Si Si5 0.405521 0.905521 0.500000
O O1 0.529095 0.843766 0.153012
O O2 0.626908 0.873093 0.062054
O O3 0.500000 0.000000 0.096385
O O4 0.637327 0.862673 0.298256
O O5 0.800274 0.923066 0.337768
O O6 0.728353 0.000000 0.250000
O O7 0.314313 0.185688 0.500000
O O8 0.214617 0.065730 0.553769
O O9 0.370260 0.013549 0.500000
O O10 0.941312 0.882233 0.602772
#
# Coordination Sequence:
#
# PCOD8320178 Si02
#       5
#    16  32  16  32   8
#     4  10  19  34  62  96 136 171 205 270 358 404
#     4  11  22  41  68 101 134 170 222 281 344 405
#     4  12  23  43  70 103 134 164 220 283 345 407
#     4  11  26  48  66  89 136 189 226 269 338 411
#     4  12  21  36  68 104 136 164 202 281 350 403
#
# _framework density 21.292549999999999
#
# number of rings (size 3 to 8) (size 9 to 14) (size 15 to 20)
#    0.000    0.923    4.615    3.231    0.000    2.462 
#   13.846    3.077    0.000    0.000    0.000    0.000 
#    0.000    0.000    0.000    0.000    0.000    0.000 
#
# Total GULP energy -644263.293789 kJ/mol
# GULP energy per Si atom -12389.678727 kJ/mol
# Density = 2.124409 g / cm^3
# Si number density = 21.292550 Si / 1000 Ang^3
#
#
#
# Elastic Constant Matrix: (Units=GPa)
#
#
# Indices 1 2 3 4 5 6 
#
# 1 77.9418 78.1908 61.8547 0.0000 0.0000 0.0000
# 2 78.1908 77.9397 61.8547 0.0000 0.0000 0.0000
# 3 61.8547 61.8547 206.0223 0.0000 0.0000 0.0000
# 4 0.0000 0.0000 0.0000 55.3092 0.0000 0.0000
# 5 0.0000 0.0000 0.0000 0.0000 55.4771 0.0000
# 6 0.0000 0.0000 0.0000 0.0000 0.0000 19.0529
#
#
#
# Elastic Compliance Matrix: (Units=1/GPa)
#
#
# Indices 1 2 3 4 5 6 
#
# 1 -1.995644 2.004084 -0.002534 0.000000 0.000000 0.000000
# 2 2.004084 -1.995716 -0.002512 0.000000 0.000000 0.000000
# 3 -0.002534 -0.002512 0.006369 0.000000 0.000000 0.000000
# 4 0.000000 0.000000 0.000000 0.018080 0.000000 0.000000
# 5 0.000000 0.000000 0.000000 0.000000 0.018025 0.000000
# 6 0.000000 0.000000 0.000000 0.000000 0.000000 0.052485
#
#
# Mechanical properties :
#
#
# Convention : Reuss Voigt Hill
#
# Bulk Modulus (GPa) = 76.42715 85.07824 80.75270
# Shear Modulus (GPa) = -0.63370 36.63474 18.00052
#
# Velocity S-wave (km/s) = -0.54614 4.15244 2.91071
# Velocity P-wave (km/s) = 5.96440 7.93939 7.02168
#
# Compressibility (1/GPa) = 0.01308435
#
# Stress axis : x y z
#
# Youngs Moduli (GPa) = -0.50109 -0.50107 157.01227
#
# Poissons Ratio (x) = 1.00419 0.39787
# Poissons Ratio (y) = 1.00423 0.39447
# Poissons Ratio (z) = -0.00127 -0.00126
#
# Static dielectric constant tensor:
#      x y z
#    x 3.835550 0.000000 0.000000 
#    y 0.000000 3.835550 0.000000 
#    z 0.000000 0.000000 4.271730 
# 
# 
# High freq. dielectric constant tensor:
#      x y z
#    x 1.826440 0.000000 0.000000 
#    y 0.000000 1.826440 0.000000 
#    z 0.000000 0.000000 1.860130 
# 
# From -- ./inp_files/9111.got.cif
#   From: 2010.06.25/outbox.cif.g09.slc.cpg/sg140_5_cif.got.tgz:9111.got - 2010.06.28 10:53:23.
