data_PCOD8320544
_publ_section_title
;
Structure prediction by ZEFSAII (Michael W. Deem and Ramdas Pophale) SiO2 
 PCOD8320544
Probable space group: I 41/A M D
;
_chemical_formula_sum "Si O2"
_cell_formula_units_Z 160
_cell_length_a 27.633756
_cell_length_b 27.633756
_cell_length_c 14.002011
_cell_angle_alpha 90.000000
_cell_angle_beta 90.000000
_cell_angle_gamma 90.000000
_cell_volume 10692.278238
_symmetry_space_group_name_H-M "I 41/A M D"
_symmetry_group_IT_number 141
_space_group.IT_coordinate_system_code '2'
_symmetry_cell_setting 'tetragonal'
loop_
_space_group_symop_operation_xyz
x,y,z
1/4-y,3/4+x,1/4+z
-x,1/2-y,z
1/4+y,1/4-x,3/4+z
x,-y,-z
-x,1/2+y,-z
1/4+y,3/4+x,1/4-z
1/4-y,1/4-x,3/4-z
-x,-y,-z
3/4+y,1/4-x,3/4-z
x,1/2+y,-z
3/4-y,3/4+x,1/4-z
-x,y,z
x,1/2-y,z
3/4-y,1/4-x,3/4+z
3/4+y,3/4+x,1/4+z
1/2+x,1/2+y,1/2+z
3/4-y,1/4+x,3/4+z
1/2-x,-y,1/2+z
3/4+y,3/4-x,1/4+z
1/2+x,1/2-y,1/2-z
1/2-x,y,1/2-z
3/4+y,1/4+x,3/4-z
3/4-y,3/4-x,1/4-z
1/2-x,1/2-y,1/2-z
1/4+y,3/4-x,1/4-z
1/2+x,y,1/2-z
1/4-y,1/4+x,3/4-z
1/2-x,1/2+y,1/2+z
1/2+x,-y,1/2+z
1/4-y,3/4-x,1/4+z
1/4+y,1/4+x,3/4+z
loop_
_atom_site_type_symbol
_atom_site_label
_atom_site_fract_x
_atom_site_fract_y
_atom_site_fract_z
Si Si1 0.225427 0.192591 0.044219
Si Si2 0.267154 0.807460 0.149484
Si Si3 0.177665 0.693856 0.632245
Si Si4 0.442612 0.386231 0.919700
Si Si5 0.055875 0.381093 0.183135
O O1 0.231225 0.250000 0.045159
O O2 0.269734 0.170988 0.107583
O O3 0.173977 0.177275 0.087136
O O4 0.231352 0.173982 0.934998
O O5 0.264699 0.750000 0.154498
O O6 0.250000 0.830518 0.250000
O O7 0.322098 0.823086 0.126818
O O8 0.185265 0.750000 0.652309
O O9 0.156624 0.671915 0.729921
O O10 0.140499 0.685500 0.545505
O O11 0.500000 0.376187 0.920796
O O12 0.415216 0.336228 0.898365
O O13 0.000000 0.369142 0.162803
#
# Coordination Sequence:
#
# PCOD8320544 Si02
#       5
#    32  32  32  32  32
#     4   8  14  24  39  59  78  97 128 170 210 238
#     4   8  14  27  45  58  70  93 128 174 217 238
#     4   8  14  25  39  54  77 108 139 173 204 222
#     4  10  17  24  37  58  86 115 136 157 190 235
#     4   9  17  27  38  56  82 111 141 165 188 230
#
# _framework density 14.96407
#
# number of rings (size 3 to 8) (size 9 to 14) (size 15 to 20)
#    0.000    3.400    0.000    3.600    0.000    2.800 
#    0.000    1.000    0.000    3.600    0.000    0.000 
#    0.000   46.400    0.000    0.000    0.000    0.200 
#
# Total GULP energy -991277.806422 kJ/mol
# GULP energy per Si atom -12390.972580 kJ/mol
# Density = 1.493001 g / cm^3
# Si number density = 14.964070 Si / 1000 Ang^3
#
#
#
# Elastic Constant Matrix: (Units=GPa)
#
#
# Indices 1 2 3 4 5 6 
#
# 1 62.9406 41.0039 39.8569 0.0000 0.0000 0.0000
# 2 41.0039 62.9406 39.8569 0.0000 0.0000 0.0000
# 3 39.8569 39.8569 104.5251 0.0000 0.0000 0.0000
# 4 0.0000 0.0000 0.0000 12.5033 0.0000 0.0000
# 5 0.0000 0.0000 0.0000 0.0000 12.5033 0.0000
# 6 0.0000 0.0000 0.0000 0.0000 0.0000 3.8264
#
#
#
# Elastic Compliance Matrix: (Units=1/GPa)
#
#
# Indices 1 2 3 4 5 6 
#
# 1 0.029591 -0.015995 -0.005185 0.000000 0.000000 0.000000
# 2 -0.015995 0.029591 -0.005185 0.000000 0.000000 0.000000
# 3 -0.005185 -0.005185 0.013521 0.000000 0.000000 0.000000
# 4 0.000000 0.000000 0.000000 0.079979 0.000000 0.000000
# 5 0.000000 0.000000 0.000000 0.000000 0.079979 0.000000
# 6 0.000000 0.000000 0.000000 0.000000 0.000000 0.261345
#
#
# Mechanical properties :
#
#
# Convention : Reuss Voigt Hill
#
# Bulk Modulus (GPa) = 50.06061 52.42685 51.24373
# Shear Modulus (GPa) = 9.03519 13.07919 11.05719
#
# Velocity S-wave (km/s) = 2.45988 2.95962 2.72125
# Velocity P-wave (km/s) = 6.44938 6.84035 6.64774
#
# Compressibility (1/GPa) = 0.01997579
#
# Stress axis : x y z
#
# Youngs Moduli (GPa) = 33.79395 33.79395 73.95939
#
# Poissons Ratio (x) = 0.54052 0.38344
# Poissons Ratio (y) = 0.54052 0.38344
# Poissons Ratio (z) = 0.17521 0.17521
#
# Static dielectric constant tensor:
#      x y z
#    x 2.614190 0.000000 0.000000 
#    y 0.000000 2.614190 0.000000 
#    z 0.000000 0.000000 3.265560 
# 
# 
# High freq. dielectric constant tensor:
#      x y z
#    x 1.538070 0.000000 0.000000 
#    y 0.000000 1.538070 0.000000 
#    z 0.000000 0.000000 1.576040 
# 
# From -- ./inp_files/6628.got.cif
#   From: 2010.03.12/outbox.cif.g09.slc.cpg/sg141_4_cif.got.tgz:6628.got - 2010.04.03 13:18:35.
