data_PCOD8320336
_publ_section_title
;
Structure prediction by ZEFSAII (Michael W. Deem and Ramdas Pophale) SiO2 
 PCOD8320336
Probable space group: I 4/M C M
;
_chemical_formula_sum "Si O2"
_cell_formula_units_Z 176
_cell_length_a 18.349491
_cell_length_b 18.349491
_cell_length_c 27.460119
_cell_angle_alpha 90.000000
_cell_angle_beta 90.000000
_cell_angle_gamma 90.000000
_cell_volume 9245.926964
_symmetry_space_group_name_H-M "I 4/M C M"
_symmetry_group_IT_number 140
_symmetry_cell_setting 'tetragonal'
loop_
_space_group_symop_operation_xyz
x,y,z
-y,x,z
-x,-y,z
y,-x,z
x,-y,1/2-z
-x,y,1/2-z
y,x,1/2-z
-y,-x,1/2-z
-x,-y,-z
y,-x,-z
x,y,-z
-y,x,-z
-x,y,1/2+z
x,-y,1/2+z
-y,-x,1/2+z
y,x,1/2+z
1/2+x,1/2+y,1/2+z
1/2-y,1/2+x,1/2+z
1/2-x,1/2-y,1/2+z
1/2+y,1/2-x,1/2+z
1/2+x,1/2-y,-z
1/2-x,1/2+y,-z
1/2+y,1/2+x,-z
1/2-y,1/2-x,-z
1/2-x,1/2-y,1/2-z
1/2+y,1/2-x,1/2-z
1/2+x,1/2+y,1/2-z
1/2-y,1/2+x,1/2-z
1/2-x,1/2+y,z
1/2+x,1/2-y,z
1/2-y,1/2-x,z
1/2+y,1/2+x,z
loop_
_atom_site_type_symbol
_atom_site_label
_atom_site_fract_x
_atom_site_fract_y
_atom_site_fract_z
Si Si1 0.044418 0.889344 0.130403
Si Si2 0.787173 0.894282 0.942686
Si Si3 0.756283 0.743718 0.102190
Si Si4 0.807362 0.920290 0.225042
Si Si5 0.857617 0.470162 0.942385
Si Si6 0.792303 0.292303 0.209720
Si Si7 0.864709 0.364709 0.558192
O O1 0.059540 0.854746 0.077765
O O2 0.067414 0.830941 0.170045
O O3 0.960257 0.906589 0.136561
O O4 0.790871 0.811578 0.925729
O O5 0.711803 0.926762 0.922484
O O6 0.793091 0.899002 0.000000
O O7 0.736567 0.763433 0.157550
O O8 0.817705 0.682296 0.095817
O O9 0.870423 0.870423 0.250000
O O10 0.729387 0.877413 0.219801
O O11 0.797620 0.000000 0.250000
O O12 0.930590 0.430590 0.921570
O O13 0.849818 0.552717 0.925981
O O14 0.860621 0.466396 0.000000
O O15 0.750000 0.250000 0.250000
O O16 0.850339 0.350339 0.500000
#
# Coordination Sequence:
#
# PCOD8320336 Si02
#       7
#    32  32  16  32  32  16  16
#     4  11  24  39  60  92 124 164 213 265 320 375
#     4  11  23  38  58  84 124 173 212 251 307 376
#     4  12  22  39  62  87 122 161 210 257 307 383
#     4  11  21  39  69  96 126 157 205 267 325 379
#     4   9  18  35  56  81 114 159 207 258 311 356
#     4  10  24  42  63  96 127 157 198 259 331 376
#     4  10  21  34  58  90 119 154 208 265 309 362
#
# _framework density 19.035408
#
# number of rings (size 3 to 8) (size 9 to 14) (size 15 to 20)
#    0.000    1.455    4.545    1.091    2.545    2.000 
#    0.000    0.909    0.000    0.273    0.000    0.000 
#    0.000    0.000    0.000    0.000    0.000    0.000 
#
# Total GULP energy -1090628.696200 kJ/mol
# GULP energy per Si atom -12393.507911 kJ/mol
# Density = 1.899208 g / cm^3
# Si number density = 19.035408 Si / 1000 Ang^3
#
#
#
# Elastic Constant Matrix: (Units=GPa)
#
#
# Indices 1 2 3 4 5 6 
#
# 1 108.7272 86.0316 33.1857 0.0000 0.0000 0.0000
# 2 86.0316 108.7272 33.1857 0.0000 0.0000 0.0000
# 3 33.1857 33.1857 80.1682 0.0000 0.0000 0.0000
# 4 0.0000 0.0000 0.0000 24.7883 0.0000 0.0000
# 5 0.0000 0.0000 0.0000 0.0000 24.7883 0.0000
# 6 0.0000 0.0000 0.0000 0.0000 0.0000 -93.9016
#
#
#
# Elastic Compliance Matrix: (Units=1/GPa)
#
#
# Indices 1 2 3 4 5 6 
#
# 1 0.025020 -0.019042 -0.002475 0.000000 0.000000 0.000000
# 2 -0.019042 0.025020 -0.002475 0.000000 0.000000 0.000000
# 3 -0.002475 -0.002475 0.014522 0.000000 0.000000 0.000000
# 4 0.000000 0.000000 0.000000 0.040342 0.000000 0.000000
# 5 0.000000 0.000000 0.000000 0.000000 0.040342 0.000000
# 6 0.000000 0.000000 0.000000 0.000000 0.000000 -0.010649
#
#
# Mechanical properties :
#
#
# Convention : Reuss Voigt Hill
#
# Bulk Modulus (GPa) = 60.31363 66.93650 63.62507
# Shear Modulus (GPa) = 26.58103 0.81630 13.69866
#
# Velocity S-wave (km/s) = 3.74090 0.65556 2.68552
# Velocity P-wave (km/s) = 7.10020 5.98444 6.56606
#
# Compressibility (1/GPa) = 0.01658000
#
# Stress axis : x y z
#
# Youngs Moduli (GPa) = 39.96856 39.96856 68.85897
#
# Poissons Ratio (x) = 0.76107 0.17039
# Poissons Ratio (y) = 0.76107 0.17039
# Poissons Ratio (z) = 0.09890 0.09890
#
# Static dielectric constant tensor:
#      x y z
#    x 3.845960 0.000000 0.000000 
#    y 0.000000 3.845960 0.000000 
#    z 0.000000 0.000000 3.561830 
# 
# 
# High freq. dielectric constant tensor:
#      x y z
#    x 1.744400 0.000000 0.000000 
#    y 0.000000 1.744400 0.000000 
#    z 0.000000 0.000000 1.723680 
# 
# From -- ./inp_files/10751.got.cif
#   From: 2010.06.25/outbox.cif.g09.slc.cpg/sg140_6_cif.got.tgz:10751.got - 2010.06.28 10:53:23.
