data_PCOD8320714
_publ_section_title
;
Structure prediction by ZEFSAII (Michael W. Deem and Ramdas Pophale) SiO2 
 PCOD8320714
Probable space group: I 41/A M D
;
_chemical_formula_sum "Si O2"
_cell_formula_units_Z 160
_cell_length_a 25.673192
_cell_length_b 25.673192
_cell_length_c 12.857339
_cell_angle_alpha 90.000000
_cell_angle_beta 90.000000
_cell_angle_gamma 90.000000
_cell_volume 8474.436548
_symmetry_space_group_name_H-M "I 41/A M D"
_symmetry_group_IT_number 141
_space_group.IT_coordinate_system_code '2'
_symmetry_cell_setting 'tetragonal'
loop_
_space_group_symop_operation_xyz
x,y,z
1/4-y,3/4+x,1/4+z
-x,1/2-y,z
1/4+y,1/4-x,3/4+z
x,-y,-z
-x,1/2+y,-z
1/4+y,3/4+x,1/4-z
1/4-y,1/4-x,3/4-z
-x,-y,-z
3/4+y,1/4-x,3/4-z
x,1/2+y,-z
3/4-y,3/4+x,1/4-z
-x,y,z
x,1/2-y,z
3/4-y,1/4-x,3/4+z
3/4+y,3/4+x,1/4+z
1/2+x,1/2+y,1/2+z
3/4-y,1/4+x,3/4+z
1/2-x,-y,1/2+z
3/4+y,3/4-x,1/4+z
1/2+x,1/2-y,1/2-z
1/2-x,y,1/2-z
3/4+y,1/4+x,3/4-z
3/4-y,3/4-x,1/4-z
1/2-x,1/2-y,1/2-z
1/4+y,3/4-x,1/4-z
1/2+x,y,1/2-z
1/4-y,1/4+x,3/4-z
1/2-x,1/2+y,1/2+z
1/2+x,-y,1/2+z
1/4-y,3/4-x,1/4+z
1/4+y,1/4+x,3/4+z
loop_
_atom_site_type_symbol
_atom_site_label
_atom_site_fract_x
_atom_site_fract_y
_atom_site_fract_z
Si Si1 0.138270 0.692845 0.334554
Si Si2 0.938024 0.044491 0.424748
Si Si3 0.906986 0.810119 0.735710
Si Si4 0.302458 0.876751 0.315616
Si Si5 0.556901 0.008106 0.290024
O O1 0.123376 0.750000 0.286706
O O2 0.094964 0.680551 0.422026
O O3 0.148036 0.647640 0.248551
O O4 0.194835 0.699205 0.381937
O O5 0.917273 0.099281 0.466502
O O6 0.000000 0.048234 0.416699
O O7 0.917709 0.000000 0.500000
O O8 0.914148 0.030092 0.312537
O O9 0.907930 0.750000 0.772933
O O10 0.936898 0.813102 0.625000
O O11 0.321221 0.928780 0.375000
O O12 0.250000 0.889804 0.250000
O O13 0.289105 0.836844 0.407380
O O14 0.500000 0.985822 0.259684
#
# Coordination Sequence:
#
# PCOD8320714 Si02
#       5
#    32  32  32  32  32
#     4  10  20  36  56  83 113 145 193 235 272 332
#     4   9  18  31  50  79 112 143 186 238 279 317
#     4  11  21  34  54  83 122 161 192 225 276 342
#     4  10  22  39  63  83 109 142 188 240 295 349
#     4   9  17  34  58  81 106 139 184 240 284 325
#
# _framework density 18.880312
#
# number of rings (size 3 to 8) (size 9 to 14) (size 15 to 20)
#    0.000    2.200    2.000    1.200    2.800    3.800 
#    0.000    1.000    8.800    0.000    0.000    0.000 
#    0.000    0.000    0.000    0.000    0.000    0.000 
#
# Total GULP energy -991149.180555 kJ/mol
# GULP energy per Si atom -12389.364757 kJ/mol
# Density = 1.883734 g / cm^3
# Si number density = 18.880312 Si / 1000 Ang^3
#
#
#
# Elastic Constant Matrix: (Units=GPa)
#
#
# Indices 1 2 3 4 5 6 
#
# 1 82.8004 39.8056 35.8921 0.0000 0.0000 0.0000
# 2 39.8056 82.7993 35.8899 0.0000 0.0000 0.0000
# 3 35.8921 35.8899 59.8799 0.0000 0.0000 0.0000
# 4 0.0000 0.0000 0.0000 29.4792 0.0000 0.0000
# 5 0.0000 0.0000 0.0000 0.0000 29.4795 0.0000
# 6 0.0000 0.0000 0.0000 0.0000 0.0000 54.0099
#
#
#
# Elastic Compliance Matrix: (Units=1/GPa)
#
#
# Indices 1 2 3 4 5 6 
#
# 1 0.017913 -0.005347 -0.007532 0.000000 0.000000 0.000000
# 2 -0.005347 0.017912 -0.007531 0.000000 0.000000 0.000000
# 3 -0.007532 -0.007531 0.025729 0.000000 0.000000 0.000000
# 4 0.000000 0.000000 0.000000 0.033922 0.000000 0.000000
# 5 0.000000 0.000000 0.000000 0.000000 0.033922 0.000000
# 6 0.000000 0.000000 0.000000 0.000000 0.000000 0.018515
#
#
# Mechanical properties :
#
#
# Convention : Reuss Voigt Hill
#
# Bulk Modulus (GPa) = 48.23093 49.85055 49.04074
# Shear Modulus (GPa) = 25.55657 30.18651 27.87154
#
# Velocity S-wave (km/s) = 3.68313 4.00288 3.84633
# Velocity P-wave (km/s) = 6.60972 6.91555 6.76436
#
# Compressibility (1/GPa) = 0.02073358
#
# Stress axis : x y z
#
# Youngs Moduli (GPa) = 55.82643 55.82798 38.86677
#
# Poissons Ratio (x) = 0.29849 0.29276
# Poissons Ratio (y) = 0.29848 0.29271
# Poissons Ratio (z) = 0.42051 0.42045
#
# Static dielectric constant tensor:
#      x y z
#    x 3.467700 0.000000 0.000000 
#    y 0.000000 3.467700 0.000000 
#    z 0.000000 0.000000 3.598160 
# 
# 
# High freq. dielectric constant tensor:
#      x y z
#    x 1.716750 0.000000 0.000000 
#    y 0.000000 1.716750 0.000000 
#    z 0.000000 0.000000 1.733730 
# 
# From -- ./inp_files/6619.got.cif
#   From: 2010.03.12/outbox.cif.g09.slc.cpg/sg141_4_cif.got.tgz:6619.got - 2010.04.03 13:18:35.
