data_PCOD8320107
_publ_section_title
;
Structure prediction by ZEFSAII (Michael W. Deem and Ramdas Pophale) SiO2 
 PCOD8320107
Probable space group: I 4/M C M
;
_chemical_formula_sum "Si O2"
_cell_formula_units_Z 160
_cell_length_a 29.822014
_cell_length_b 29.822014
_cell_length_c 9.599036
_cell_angle_alpha 90.000000
_cell_angle_beta 90.000000
_cell_angle_gamma 90.000000
_cell_volume 8536.926847
_symmetry_space_group_name_H-M "I 4/M C M"
_symmetry_group_IT_number 140
_symmetry_cell_setting 'tetragonal'
loop_
_space_group_symop_operation_xyz
x,y,z
-y,x,z
-x,-y,z
y,-x,z
x,-y,1/2-z
-x,y,1/2-z
y,x,1/2-z
-y,-x,1/2-z
-x,-y,-z
y,-x,-z
x,y,-z
-y,x,-z
-x,y,1/2+z
x,-y,1/2+z
-y,-x,1/2+z
y,x,1/2+z
1/2+x,1/2+y,1/2+z
1/2-y,1/2+x,1/2+z
1/2-x,1/2-y,1/2+z
1/2+y,1/2-x,1/2+z
1/2+x,1/2-y,-z
1/2-x,1/2+y,-z
1/2+y,1/2+x,-z
1/2-y,1/2-x,-z
1/2-x,1/2-y,1/2-z
1/2+y,1/2-x,1/2-z
1/2+x,1/2+y,1/2-z
1/2-y,1/2+x,1/2-z
1/2-x,1/2+y,z
1/2+x,1/2-y,z
1/2-y,1/2-x,z
1/2+y,1/2+x,z
loop_
_atom_site_type_symbol
_atom_site_label
_atom_site_fract_x
_atom_site_fract_y
_atom_site_fract_z
Si Si1 0.876405 0.050068 0.500000
Si Si2 0.052293 0.873592 0.500000
Si Si3 0.172103 0.672103 0.340023
Si Si4 0.655356 0.960963 0.842288
Si Si5 0.387553 0.769704 0.657516
Si Si6 0.810910 0.051665 0.253086
Si Si7 0.903596 0.403596 0.659944
O O1 0.919803 0.080980 0.500000
O O2 0.845427 0.061220 0.372802
O O3 0.891778 0.998460 0.500000
O O4 0.064267 0.840469 0.377124
O O5 0.185106 0.685106 0.500000
O O6 0.215913 0.654132 0.255887
O O7 0.134322 0.634322 0.344244
O O8 0.688447 0.919921 0.858302
O O9 0.612928 0.946574 0.747737
O O10 0.678773 0.000000 0.750000
O O11 0.641848 0.976669 0.000000
O O12 0.371661 0.756164 0.500000
O O13 0.414469 0.730303 0.733900
O O14 0.793479 0.000000 0.250000
O O15 0.916461 0.416461 0.500000
#
# Coordination Sequence:
#
# PCOD8320107 Si02
#       7
#    16  16  16  32  32  32  16
#     4  10  20  39  56  85 117 151 193 231 282 334
#     4  10  22  35  60  83 117 153 189 237 278 336
#     4   9  19  31  49  77 107 139 181 222 269 333
#     4  10  19  30  46  69  96 131 168 209 263 322
#     4  10  19  33  51  75 110 146 179 222 277 334
#     4  10  20  35  54  83 115 149 189 238 288 337
#     4   9  17  31  45  64  94 128 166 213 260 314
#
# _framework density 18.742108999999999
#
# number of rings (size 3 to 8) (size 9 to 14) (size 15 to 20)
#    0.000    2.200    1.000    2.400    1.400    3.400 
#    0.000    0.000    0.000    3.900    0.000    6.300 
#    0.000    0.000    0.000    0.000    0.000    0.000 
#
# Total GULP energy -991255.164466 kJ/mol
# GULP energy per Si atom -12390.689556 kJ/mol
# Density = 1.869945 g / cm^3
# Si number density = 18.742109 Si / 1000 Ang^3
#
#
#
# Elastic Constant Matrix: (Units=GPa)
#
#
# Indices 1 2 3 4 5 6 
#
# 1 80.4111 55.0493 53.5587 0.0000 0.0000 0.0000
# 2 55.0493 80.4111 53.5587 0.0000 0.0000 0.0000
# 3 53.5587 53.5587 184.0431 0.0000 0.0000 0.0000
# 4 0.0000 0.0000 0.0000 33.7401 0.0000 0.0000
# 5 0.0000 0.0000 0.0000 0.0000 33.7401 0.0000
# 6 0.0000 0.0000 0.0000 0.0000 0.0000 40.5096
#
#
#
# Elastic Compliance Matrix: (Units=1/GPa)
#
#
# Indices 1 2 3 4 5 6 
#
# 1 0.024509 -0.014920 -0.002790 0.000000 0.000000 0.000000
# 2 -0.014920 0.024509 -0.002790 0.000000 0.000000 0.000000
# 3 -0.002790 -0.002790 0.007058 0.000000 0.000000 0.000000
# 4 0.000000 0.000000 0.000000 0.029638 0.000000 0.000000
# 5 0.000000 0.000000 0.000000 0.000000 0.029638 0.000000
# 6 0.000000 0.000000 0.000000 0.000000 0.000000 0.024686
#
#
# Mechanical properties :
#
#
# Convention : Reuss Voigt Hill
#
# Bulk Modulus (GPa) = 66.34185 74.35541 70.34863
# Shear Modulus (GPa) = 26.87232 33.77785 30.32508
#
# Velocity S-wave (km/s) = 3.79066 4.24989 4.02682
# Velocity P-wave (km/s) = 7.39140 7.99006 7.69656
#
# Compressibility (1/GPa) = 0.01507344
#
# Stress axis : x y z
#
# Youngs Moduli (GPa) = 40.80111 40.80111 141.69070
#
# Poissons Ratio (x) = 0.60876 0.39538
# Poissons Ratio (y) = 0.60876 0.39538
# Poissons Ratio (z) = 0.11385 0.11385
#
# Static dielectric constant tensor:
#      x y z
#    x 3.258080 0.000000 0.000000 
#    y 0.000000 3.258080 0.000000 
#    z 0.000000 0.000000 3.876850 
# 
# 
# High freq. dielectric constant tensor:
#      x y z
#    x 1.701330 0.000000 0.000000 
#    y 0.000000 1.701330 0.000000 
#    z 0.000000 0.000000 1.756690 
# 
# From -- ./inp_files/1897.got.cif
#   From: 2010.06.25/outbox.cif.g09.slc.cpg/sg140_1_cif.got.tgz:1897.got - 2010.06.28 10:53:23.
