data_PCOD8320150
_publ_section_title
;
Structure prediction by ZEFSAII (Michael W. Deem and Ramdas Pophale) SiO2 
 PCOD8320150
Probable space group: I 4/M C M
;
_chemical_formula_sum "Si O2"
_cell_formula_units_Z 144
_cell_length_a 22.693778
_cell_length_b 22.693778
_cell_length_c 17.388518
_cell_angle_alpha 90.000000
_cell_angle_beta 90.000000
_cell_angle_gamma 90.000000
_cell_volume 8955.218226
_symmetry_space_group_name_H-M "I 4/M C M"
_symmetry_group_IT_number 140
_symmetry_cell_setting 'tetragonal'
loop_
_space_group_symop_operation_xyz
x,y,z
-y,x,z
-x,-y,z
y,-x,z
x,-y,1/2-z
-x,y,1/2-z
y,x,1/2-z
-y,-x,1/2-z
-x,-y,-z
y,-x,-z
x,y,-z
-y,x,-z
-x,y,1/2+z
x,-y,1/2+z
-y,-x,1/2+z
y,x,1/2+z
1/2+x,1/2+y,1/2+z
1/2-y,1/2+x,1/2+z
1/2-x,1/2-y,1/2+z
1/2+y,1/2-x,1/2+z
1/2+x,1/2-y,-z
1/2-x,1/2+y,-z
1/2+y,1/2+x,-z
1/2-y,1/2-x,-z
1/2-x,1/2-y,1/2-z
1/2+y,1/2-x,1/2-z
1/2+x,1/2+y,1/2-z
1/2-y,1/2+x,1/2-z
1/2-x,1/2+y,z
1/2+x,1/2-y,z
1/2-y,1/2-x,z
1/2+y,1/2+x,z
loop_
_atom_site_type_symbol
_atom_site_label
_atom_site_fract_x
_atom_site_fract_y
_atom_site_fract_z
Si Si1 0.279369 0.877363 0.588499
Si Si2 0.293359 0.305585 0.164340
Si Si3 0.049213 0.549213 0.087010
Si Si4 0.388686 0.206885 0.590421
Si Si5 0.170191 0.510683 0.159851
O O1 0.276153 0.896401 0.500000
O O2 0.334078 0.834078 0.603982
O O3 0.218036 0.846597 0.611649
O O4 0.287553 0.934462 0.641435
O O5 0.317325 0.317325 0.250000
O O6 0.242084 0.257917 0.164975
O O7 0.267073 0.365723 0.129720
O O8 0.104847 0.523432 0.130842
O O9 0.000000 0.500000 0.084910
O O10 0.067461 0.567461 0.000000
O O11 0.385962 0.216347 0.500000
O O12 0.348834 0.151167 0.615556
O O13 0.454691 0.195828 0.616374
O O14 0.168797 0.500000 0.250000
#
# Coordination Sequence:
#
# PCOD8320150 Si02
#       5
#    32  32  16  32  32
#     4  10  19  33  51  70  94 127 166 205 251 302
#     4   9  17  30  50  72  96 119 156 203 253 300
#     4  11  24  38  50  64  91 132 174 212 250 293
#     4  10  20  34  50  69  96 130 165 202 252 304
#     4  12  24  33  50  70  98 128 171 213 253 288
#
# _framework density 16.080010000000001
#
# number of rings (size 3 to 8) (size 9 to 14) (size 15 to 20)
#    0.000    1.667    1.111    4.667    3.111    6.222 
#    0.000    0.000    0.000    0.000    0.000    0.000 
#    0.000    0.889    0.000    8.889    0.000    5.333 
#
# Total GULP energy -893006.928673 kJ/mol
# GULP energy per Si atom -12402.874009 kJ/mol
# Density = 1.604341 g / cm^3
# Si number density = 16.080010 Si / 1000 Ang^3
#
#
#
# Elastic Constant Matrix: (Units=GPa)
#
#
# Indices 1 2 3 4 5 6 
#
# 1 75.6585 64.0441 40.7678 0.0000 0.0000 0.0000
# 2 64.0441 75.6585 40.7678 0.0000 0.0000 0.0000
# 3 40.7678 40.7678 102.9981 0.0000 0.0000 0.0000
# 4 0.0000 0.0000 0.0000 29.7697 0.0000 0.0000
# 5 0.0000 0.0000 0.0000 0.0000 29.7697 0.0000
# 6 0.0000 0.0000 0.0000 0.0000 0.0000 30.5343
#
#
#
# Elastic Compliance Matrix: (Units=1/GPa)
#
#
# Indices 1 2 3 4 5 6 
#
# 1 0.047704 -0.038395 -0.003684 0.000000 0.000000 0.000000
# 2 -0.038395 0.047704 -0.003684 0.000000 0.000000 0.000000
# 3 -0.003684 -0.003684 0.012626 0.000000 0.000000 0.000000
# 4 0.000000 0.000000 0.000000 0.033591 0.000000 0.000000
# 5 0.000000 0.000000 0.000000 0.000000 0.033591 0.000000
# 6 0.000000 0.000000 0.000000 0.000000 0.000000 0.032750
#
#
# Mechanical properties :
#
#
# Convention : Reuss Voigt Hill
#
# Bulk Modulus (GPa) = 60.58820 60.60829 60.59825
# Shear Modulus (GPa) = 16.39367 25.26377 20.82872
#
# Velocity S-wave (km/s) = 3.19643 3.96805 3.60296
# Velocity P-wave (km/s) = 7.16826 7.66599 7.42130
#
# Compressibility (1/GPa) = 0.01650486
#
# Stress axis : x y z
#
# Youngs Moduli (GPa) = 20.96266 20.96266 79.20440
#
# Poissons Ratio (x) = 0.80487 0.29182
# Poissons Ratio (y) = 0.80487 0.29182
# Poissons Ratio (z) = 0.07723 0.07723
#
# Static dielectric constant tensor:
#      x y z
#    x 2.924850 0.000000 0.000000 
#    y 0.000000 2.924850 0.000000 
#    z 0.000000 0.000000 10.006480 
# 
# 
# High freq. dielectric constant tensor:
#      x y z
#    x 1.597230 0.000000 0.000000 
#    y 0.000000 1.597230 0.000000 
#    z 0.000000 0.000000 1.640370 
# 
# From -- ./inp_files/6636.got.cif
#   From: 2010.06.25/outbox.cif.g09.slc.cpg/sg140_4_cif.got.tgz:6636.got - 2010.06.28 10:53:23.
