data_PCOD8320889
_publ_section_title
;
Structure prediction by ZEFSAII (Michael W. Deem and Ramdas Pophale) SiO2 
 PCOD8320889
Probable space group: I 41/A M D
;
_chemical_formula_sum "Si O2"
_cell_formula_units_Z 192
_cell_length_a 17.125270
_cell_length_b 17.125270
_cell_length_c 33.131844
_cell_angle_alpha 90.000000
_cell_angle_beta 90.000000
_cell_angle_gamma 90.000000
_cell_volume 9716.737327
_symmetry_space_group_name_H-M "I 41/A M D"
_symmetry_group_IT_number 141
_space_group.IT_coordinate_system_code '2'
_symmetry_cell_setting 'tetragonal'
loop_
_space_group_symop_operation_xyz
x,y,z
1/4-y,3/4+x,1/4+z
-x,1/2-y,z
1/4+y,1/4-x,3/4+z
x,-y,-z
-x,1/2+y,-z
1/4+y,3/4+x,1/4-z
1/4-y,1/4-x,3/4-z
-x,-y,-z
3/4+y,1/4-x,3/4-z
x,1/2+y,-z
3/4-y,3/4+x,1/4-z
-x,y,z
x,1/2-y,z
3/4-y,1/4-x,3/4+z
3/4+y,3/4+x,1/4+z
1/2+x,1/2+y,1/2+z
3/4-y,1/4+x,3/4+z
1/2-x,-y,1/2+z
3/4+y,3/4-x,1/4+z
1/2+x,1/2-y,1/2-z
1/2-x,y,1/2-z
3/4+y,1/4+x,3/4-z
3/4-y,3/4-x,1/4-z
1/2-x,1/2-y,1/2-z
1/4+y,3/4-x,1/4-z
1/2+x,y,1/2-z
1/4-y,1/4+x,3/4-z
1/2-x,1/2+y,1/2+z
1/2+x,-y,1/2+z
1/4-y,3/4-x,1/4+z
1/4+y,1/4+x,3/4+z
loop_
_atom_site_type_symbol
_atom_site_label
_atom_site_fract_x
_atom_site_fract_y
_atom_site_fract_z
Si Si1 0.637137 0.921754 0.681500
Si Si2 0.588339 0.967921 0.385378
Si Si3 0.416071 0.558920 0.535102
Si Si4 0.000000 0.839662 0.453813
Si Si5 0.845061 0.436579 0.419543
Si Si6 0.321842 0.250000 0.219225
Si Si7 0.841595 0.007190 0.739450
O O1 0.624891 0.828462 0.683948
O O2 0.725445 0.936201 0.667518
O O3 0.584845 0.964154 0.648224
O O4 0.614501 0.964457 0.723756
O O5 0.500000 0.934505 0.389876
O O6 0.646994 0.896994 0.375000
O O7 0.615619 0.009528 0.426668
O O8 0.434843 0.500000 0.500000
O O9 0.500000 0.601549 0.545012
O O10 0.347470 0.617195 0.519195
O O11 0.000000 0.750000 0.443764
O O12 0.000000 0.852070 0.502259
O O13 0.849513 0.400488 0.375000
O O14 0.787409 0.387310 0.448151
O O15 0.928420 0.431676 0.439654
O O16 0.250000 0.250000 0.250000
O O17 0.750000 0.003118 0.750000
#
# Coordination Sequence:
#
# PCOD8320889 Si02
#       7
#    32  32  32  16  32  16  32
#     4  11  20  37  60  88 118 154 207 255 313 371
#     4  11  22  36  56  87 122 157 205 258 302 362
#     4   9  17  30  50  82 117 148 187 242 306 361
#     4  12  24  40  64  88 122 166 208 258 320 388
#     4  11  20  33  59  87 115 155 209 266 313 378
#     4  12  20  44  62  86 122 170 212 258 322 402
#     4   9  16  29  53  80 110 153 195 246 303 366
#
# _framework density 19.759720000000002
#
# number of rings (size 3 to 8) (size 9 to 14) (size 15 to 20)
#    0.000    1.500    3.333    5.500    0.000    0.167 
#    1.500    0.000    0.000    0.000   13.000    0.000 
#    0.000    0.000    0.000    0.000    0.000    0.000 
#
# Total GULP energy -1189539.617147 kJ/mol
# GULP energy per Si atom -12391.037679 kJ/mol
# Density = 1.971475 g / cm^3
# Si number density = 19.759720 Si / 1000 Ang^3
#
#
#
# Elastic Constant Matrix: (Units=GPa)
#
#
# Indices 1 2 3 4 5 6 
#
# 1 99.6938 20.0267 37.6501 0.0000 0.0000 0.0000
# 2 20.0267 99.6942 37.6504 0.0000 0.0000 0.0000
# 3 37.6501 37.6504 148.9966 0.0000 0.0000 0.0000
# 4 0.0000 0.0000 0.0000 30.3932 0.0000 0.0000
# 5 0.0000 0.0000 0.0000 0.0000 30.3931 0.0000
# 6 0.0000 0.0000 0.0000 0.0000 0.0000 12.0597
#
#
#
# Elastic Compliance Matrix: (Units=1/GPa)
#
#
# Indices 1 2 3 4 5 6 
#
# 1 0.011242 -0.001311 -0.002510 0.000000 0.000000 0.000000
# 2 -0.001311 0.011242 -0.002510 0.000000 0.000000 0.000000
# 3 -0.002510 -0.002510 0.007980 0.000000 0.000000 0.000000
# 4 0.000000 0.000000 0.000000 0.032902 0.000000 0.000000
# 5 0.000000 0.000000 0.000000 0.000000 0.032902 0.000000
# 6 0.000000 0.000000 0.000000 0.000000 0.000000 0.082921
#
#
# Mechanical properties :
#
#
# Convention : Reuss Voigt Hill
#
# Bulk Modulus (GPa) = 56.16688 59.89325 58.03007
# Shear Modulus (GPa) = 25.28036 31.43968 28.36002
#
# Velocity S-wave (km/s) = 3.58073 3.99319 3.79257
# Velocity P-wave (km/s) = 6.75146 7.18591 6.97207
#
# Compressibility (1/GPa) = 0.01780409
#
# Stress axis : x y z
#
# Youngs Moduli (GPa) = 88.95442 88.95463 125.31579
#
# Poissons Ratio (x) = 0.11658 0.31448
# Poissons Ratio (y) = 0.11658 0.31449
# Poissons Ratio (z) = 0.22323 0.22324
#
# Static dielectric constant tensor:
#      x y z
#    x 3.391810 0.000000 0.000000 
#    y 0.000000 3.391800 0.000000 
#    z 0.000000 0.000000 3.947890 
# 
# 
# High freq. dielectric constant tensor:
#      x y z
#    x 1.749290 0.000000 0.000000 
#    y 0.000000 1.749290 0.000000 
#    z 0.000000 0.000000 1.785310 
# 
# From -- ./inp_files/14465.got.cif
#   From: 2010.03.12/outbox.cif.g09.slc.cpg/sg141_8_cif.got.tgz:14465.got - 2010.04.03 13:18:35.
