data_PCOD8320057
_publ_section_title
;
Structure prediction by ZEFSAII (Michael W. Deem and Ramdas Pophale) SiO2 
 PCOD8320057
Probable space group: I 4/M C M
;
_chemical_formula_sum "Si O2"
_cell_formula_units_Z 192
_cell_length_a 28.620765
_cell_length_b 28.620765
_cell_length_c 15.018466
_cell_angle_alpha 90.000000
_cell_angle_beta 90.000000
_cell_angle_gamma 90.000000
_cell_volume 12302.349228
_symmetry_space_group_name_H-M "I 4/M C M"
_symmetry_group_IT_number 140
_symmetry_cell_setting 'tetragonal'
loop_
_space_group_symop_operation_xyz
x,y,z
-y,x,z
-x,-y,z
y,-x,z
x,-y,1/2-z
-x,y,1/2-z
y,x,1/2-z
-y,-x,1/2-z
-x,-y,-z
y,-x,-z
x,y,-z
-y,x,-z
-x,y,1/2+z
x,-y,1/2+z
-y,-x,1/2+z
y,x,1/2+z
1/2+x,1/2+y,1/2+z
1/2-y,1/2+x,1/2+z
1/2-x,1/2-y,1/2+z
1/2+y,1/2-x,1/2+z
1/2+x,1/2-y,-z
1/2-x,1/2+y,-z
1/2+y,1/2+x,-z
1/2-y,1/2-x,-z
1/2-x,1/2-y,1/2-z
1/2+y,1/2-x,1/2-z
1/2+x,1/2+y,1/2-z
1/2-y,1/2+x,1/2-z
1/2-x,1/2+y,z
1/2+x,1/2-y,z
1/2-y,1/2-x,z
1/2+y,1/2+x,z
loop_
_atom_site_type_symbol
_atom_site_label
_atom_site_fract_x
_atom_site_fract_y
_atom_site_fract_z
Si Si1 0.390960 0.037696 0.815351
Si Si2 0.415805 0.159413 0.500000
Si Si3 0.204597 0.372196 0.171378
Si Si4 0.279466 0.297900 0.844197
Si Si5 0.218609 0.454958 0.303456
Si Si6 0.569649 0.780379 0.000000
Si Si7 0.674443 0.253314 0.500000
Si Si8 0.518941 0.873078 0.000000
O O1 0.411510 0.088491 0.790489
O O2 0.336021 0.036893 0.810038
O O3 0.406241 0.022933 0.914597
O O4 0.413617 0.000000 0.750000
O O5 0.391160 0.108840 0.500000
O O6 0.402599 0.186845 0.410897
O O7 0.471025 0.155711 0.500000
O O8 0.163869 0.336132 0.205514
O O9 0.248432 0.343149 0.133590
O O10 0.223786 0.406065 0.249719
O O11 0.305081 0.305081 0.750000
O O12 0.247783 0.252218 0.841254
O O13 0.319480 0.288270 0.916565
O O14 0.240445 0.500000 0.250000
O O15 0.239678 0.451656 0.405211
O O16 0.561888 0.836046 0.000000
O O17 0.624300 0.770321 0.000000
O O18 0.712415 0.212415 0.500000
#
# Coordination Sequence:
#
# PCOD8320057 Si02
#       8
#    32  16  32  32  32  16  16  16
#     4  10  20  33  46  59  76  97 124 163 211 265
#     4  10  19  31  48  65  81 105 141 184 226 264
#     4  10  18  29  46  65  85 114 148 179 221 273
#     4   9  17  28  41  60  87 114 140 172 211 260
#     4  10  20  32  47  65  85 108 139 182 225 263
#     4  10  20  31  45  64  84 109 137 169 222 273
#     4  10  19  30  44  65  92 117 143 180 225 272
#     4  10  21  34  47  64  82 101 131 173 218 264
#
# _framework density 15.606776
#
# number of rings (size 3 to 8) (size 9 to 14) (size 15 to 20)
#    0.000    2.167    0.000    5.250    0.000    8.833 
#    0.000    0.000    0.000    1.500    0.000    0.000 
#    0.000    0.000    0.000    0.000    0.000    0.000 
#
# Total GULP energy -1189345.571446 kJ/mol
# GULP energy per Si atom -12389.016369 kJ/mol
# Density = 1.557125 g / cm^3
# Si number density = 15.606776 Si / 1000 Ang^3
#
#
#
# Elastic Constant Matrix: (Units=GPa)
#
#
# Indices 1 2 3 4 5 6 
#
# 1 43.1865 40.8719 31.5219 0.0000 0.0000 0.0000
# 2 40.8719 43.1873 31.5212 0.0000 0.0000 0.0000
# 3 31.5219 31.5212 122.6214 0.0000 0.0000 0.0000
# 4 0.0000 0.0000 0.0000 8.9511 0.0000 0.0000
# 5 0.0000 0.0000 0.0000 0.0000 8.9501 0.0000
# 6 0.0000 0.0000 0.0000 0.0000 0.0000 16.7287
#
#
#
# Elastic Compliance Matrix: (Units=1/GPa)
#
#
# Indices 1 2 3 4 5 6 
#
# 1 0.223353 -0.208611 -0.003791 0.000000 0.000000 0.000000
# 2 -0.208611 0.223345 -0.003786 0.000000 0.000000 0.000000
# 3 -0.003791 -0.003786 0.010103 0.000000 0.000000 0.000000
# 4 0.000000 0.000000 0.000000 0.111718 0.000000 0.000000
# 5 0.000000 0.000000 0.000000 0.000000 0.111731 0.000000
# 6 0.000000 0.000000 0.000000 0.000000 0.000000 0.059777
#
#
# Mechanical properties :
#
#
# Convention : Reuss Voigt Hill
#
# Bulk Modulus (GPa) = 40.94271 46.31390 43.62831
# Shear Modulus (GPa) = 4.23533 13.93133 9.08333
#
# Velocity S-wave (km/s) = 1.64914 2.99096 2.41511
# Velocity P-wave (km/s) = 5.46965 6.45505 5.98268
#
# Compressibility (1/GPa) = 0.02442437
#
# Stress axis : x y z
#
# Youngs Moduli (GPa) = 4.47722 4.47737 98.98054
#
# Poissons Ratio (x) = 0.93403 0.37521
# Poissons Ratio (y) = 0.93400 0.37477
# Poissons Ratio (z) = 0.01697 0.01695
#
# Static dielectric constant tensor:
#      x y z
#    x 2.752490 0.000000 0.000000 
#    y 0.000000 2.752490 0.000000 
#    z 0.000000 0.000000 3.808730 
# 
# 
# High freq. dielectric constant tensor:
#      x y z
#    x 1.557160 0.000000 0.000000 
#    y 0.000000 1.557160 0.000000 
#    z 0.000000 0.000000 1.630870 
# 
# From -- ./inp_files/5242.got.cif
#   From: 2010.06.25/outbox.cif.g09.slc.cpg/sg140_3_cif.got.tgz:5242.got - 2010.06.28 10:53:23.
