data_PCOD8320367
_publ_section_title
;
Structure prediction by ZEFSAII (Michael W. Deem and Ramdas Pophale) SiO2 
 PCOD8320367
Probable space group: I 4/M C M
;
_chemical_formula_sum "Si O2"
_cell_formula_units_Z 160
_cell_length_a 21.389859
_cell_length_b 21.389859
_cell_length_c 18.371265
_cell_angle_alpha 90.000000
_cell_angle_beta 90.000000
_cell_angle_gamma 90.000000
_cell_volume 8405.332640
_symmetry_space_group_name_H-M "I 4/M C M"
_symmetry_group_IT_number 140
_symmetry_cell_setting 'tetragonal'
loop_
_space_group_symop_operation_xyz
x,y,z
-y,x,z
-x,-y,z
y,-x,z
x,-y,1/2-z
-x,y,1/2-z
y,x,1/2-z
-y,-x,1/2-z
-x,-y,-z
y,-x,-z
x,y,-z
-y,x,-z
-x,y,1/2+z
x,-y,1/2+z
-y,-x,1/2+z
y,x,1/2+z
1/2+x,1/2+y,1/2+z
1/2-y,1/2+x,1/2+z
1/2-x,1/2-y,1/2+z
1/2+y,1/2-x,1/2+z
1/2+x,1/2-y,-z
1/2-x,1/2+y,-z
1/2+y,1/2+x,-z
1/2-y,1/2-x,-z
1/2-x,1/2-y,1/2-z
1/2+y,1/2-x,1/2-z
1/2+x,1/2+y,1/2-z
1/2-y,1/2+x,1/2-z
1/2-x,1/2+y,z
1/2+x,1/2-y,z
1/2-y,1/2-x,z
1/2+y,1/2+x,z
loop_
_atom_site_type_symbol
_atom_site_label
_atom_site_fract_x
_atom_site_fract_y
_atom_site_fract_z
Si Si1 0.269216 0.869714 0.179027
Si Si2 0.292998 0.980015 0.920114
Si Si3 0.606010 0.625136 0.332579
Si Si4 0.662341 0.939567 0.203601
Si Si5 0.349313 0.513250 0.918899
O O1 0.300896 0.800896 0.173971
O O2 0.304170 0.914343 0.120890
O O3 0.195254 0.865346 0.164604
O O4 0.281106 0.900272 0.258846
O O5 0.220067 0.989553 0.927859
O O6 0.319751 0.039690 0.877447
O O7 0.324469 0.976875 0.000000
O O8 0.601854 0.601854 0.250000
O O9 0.650809 0.580694 0.379993
O O10 0.537219 0.616650 0.367320
O O11 0.600253 0.899748 0.198949
O O12 0.646172 0.000000 0.250000
O O13 0.379920 0.517167 0.000000
#
# Coordination Sequence:
#
# PCOD8320367 Si02
#       5
#    32  32  32  32  32
#     4   9  19  35  55  79 106 138 174 213 258 308
#     4   9  18  33  53  76 104 139 176 213 254 305
#     4  11  21  35  57  81 105 134 175 219 256 302
#     4   9  17  31  51  74 102 136 172 212 262 314
#     4  10  21  37  54  75 106 141 173 210 262 312
#
# _framework density 19.035533000000001
#
# number of rings (size 3 to 8) (size 9 to 14) (size 15 to 20)
#    0.000    2.400    0.000    2.400    0.000    5.800 
#    0.000    3.000    0.000    1.200    0.000    5.600 
#    0.000    0.000    0.000    0.000    0.000    0.000 
#
# Total GULP energy -991663.116249 kJ/mol
# GULP energy per Si atom -12395.788953 kJ/mol
# Density = 1.899221 g / cm^3
# Si number density = 19.035533 Si / 1000 Ang^3
#
#
#
# Elastic Constant Matrix: (Units=GPa)
#
#
# Indices 1 2 3 4 5 6 
#
# 1 71.9271 28.1607 35.5984 0.0000 0.0000 0.0000
# 2 28.1607 71.9271 35.5984 0.0000 0.0000 0.0000
# 3 35.5984 35.5984 150.9447 0.0000 0.0000 0.0000
# 4 0.0000 0.0000 0.0000 18.1172 0.0000 0.0000
# 5 0.0000 0.0000 0.0000 0.0000 18.1172 0.0000
# 6 0.0000 0.0000 0.0000 0.0000 0.0000 18.7156
#
#
#
# Elastic Compliance Matrix: (Units=1/GPa)
#
#
# Indices 1 2 3 4 5 6 
#
# 1 0.017427 -0.005422 -0.002831 0.000000 0.000000 0.000000
# 2 -0.005422 0.017427 -0.002831 0.000000 0.000000 0.000000
# 3 -0.002831 -0.002831 0.007960 0.000000 0.000000 0.000000
# 4 0.000000 0.000000 0.000000 0.055196 0.000000 0.000000
# 5 0.000000 0.000000 0.000000 0.000000 0.055196 0.000000
# 6 0.000000 0.000000 0.000000 0.000000 0.000000 0.053431
#
#
# Mechanical properties :
#
#
# Convention : Reuss Voigt Hill
#
# Bulk Modulus (GPa) = 48.43619 54.83490 51.63554
# Shear Modulus (GPa) = 21.21444 24.01941 22.61692
#
# Velocity S-wave (km/s) = 3.34198 3.55606 3.45068
# Velocity P-wave (km/s) = 6.35548 6.76239 6.56209
#
# Compressibility (1/GPa) = 0.02064572
#
# Stress axis : x y z
#
# Youngs Moduli (GPa) = 57.38254 57.38254 125.62207
#
# Poissons Ratio (x) = 0.31111 0.35567
# Poissons Ratio (y) = 0.31111 0.35567
# Poissons Ratio (z) = 0.16247 0.16247
#
# Static dielectric constant tensor:
#      x y z
#    x 3.336340 0.000000 0.000000 
#    y 0.000000 3.336340 0.000000 
#    z 0.000000 0.000000 4.035070 
# 
# 
# High freq. dielectric constant tensor:
#      x y z
#    x 1.726790 0.000000 0.000000 
#    y 0.000000 1.726790 0.000000 
#    z 0.000000 0.000000 1.750320 
# 
# From -- ./inp_files/6781.got.cif
#   From: 2010.06.25/outbox.cif.g09.slc.cpg/sg140_4_cif.got.tgz:6781.got - 2010.06.28 10:53:23.
