data_PCOD8320098
_publ_section_title
;
Structure prediction by ZEFSAII (Michael W. Deem and Ramdas Pophale) SiO2 
 PCOD8320098
Probable space group: I 4/M C M
;
_chemical_formula_sum "Si O2"
_cell_formula_units_Z 192
_cell_length_a 19.100039
_cell_length_b 19.100039
_cell_length_c 29.898654
_cell_angle_alpha 90.000000
_cell_angle_beta 90.000000
_cell_angle_gamma 90.000000
_cell_volume 10907.372509
_symmetry_space_group_name_H-M "I 4/M C M"
_symmetry_group_IT_number 140
_symmetry_cell_setting 'tetragonal'
loop_
_space_group_symop_operation_xyz
x,y,z
-y,x,z
-x,-y,z
y,-x,z
x,-y,1/2-z
-x,y,1/2-z
y,x,1/2-z
-y,-x,1/2-z
-x,-y,-z
y,-x,-z
x,y,-z
-y,x,-z
-x,y,1/2+z
x,-y,1/2+z
-y,-x,1/2+z
y,x,1/2+z
1/2+x,1/2+y,1/2+z
1/2-y,1/2+x,1/2+z
1/2-x,1/2-y,1/2+z
1/2+y,1/2-x,1/2+z
1/2+x,1/2-y,-z
1/2-x,1/2+y,-z
1/2+y,1/2+x,-z
1/2-y,1/2-x,-z
1/2-x,1/2-y,1/2-z
1/2+y,1/2-x,1/2-z
1/2+x,1/2+y,1/2-z
1/2-y,1/2+x,1/2-z
1/2-x,1/2+y,z
1/2+x,1/2-y,z
1/2-y,1/2-x,z
1/2+y,1/2+x,z
loop_
_atom_site_type_symbol
_atom_site_label
_atom_site_fract_x
_atom_site_fract_y
_atom_site_fract_z
Si Si1 0.225696 0.159697 0.405098
Si Si2 0.240944 0.625645 0.849760
Si Si3 0.364198 0.339104 0.500000
Si Si4 0.249469 0.000962 0.094752
Si Si5 0.435121 0.336487 0.779006
Si Si6 0.893582 0.974335 0.129400
Si Si7 0.014041 0.787759 0.000000
O O1 0.296758 0.203243 0.399651
O O2 0.164579 0.194084 0.374996
O O3 0.202453 0.162354 0.456582
O O4 0.246069 0.079980 0.389050
O O5 0.177339 0.677339 0.842256
O O6 0.206789 0.556366 0.874996
O O7 0.269869 0.603077 0.801316
O O8 0.448793 0.341671 0.500000
O O9 0.333776 0.416709 0.500000
O O10 0.174887 0.039627 0.101197
O O11 0.265704 0.008285 0.042118
O O12 0.500000 0.308205 0.750000
O O13 0.379847 0.379847 0.750000
O O14 0.469342 0.384604 0.817304
O O15 0.948840 0.916950 0.114397
#
# Coordination Sequence:
#
# PCOD8320098 Si02
#       7
#    32  32  16  32  32  32  16
#     4  10  20  35  55  78 105 143 186 226 266 313
#     4  10  22  37  56  79 108 140 178 222 272 326
#     4  10  19  33  48  76 109 152 181 220 256 309
#     4  10  19  34  51  74 108 142 181 222 263 309
#     4  11  21  33  52  75 106 140 174 217 262 322
#     4  10  19  29  45  71 104 141 177 207 249 313
#     4  10  20  29  48  74 111 148 190 210 247 309
#
# _framework density 17.602772999999999
#
# number of rings (size 3 to 8) (size 9 to 14) (size 15 to 20)
#    0.000    1.833    3.333    2.250    4.667    0.667 
#    0.000    0.417    0.000    0.500    0.000    0.000 
#    0.000    4.000    0.000    0.000    0.000    0.000 
#
# Total GULP energy -1189296.921821 kJ/mol
# GULP energy per Si atom -12388.509602 kJ/mol
# Density = 1.756271 g / cm^3
# Si number density = 17.602773 Si / 1000 Ang^3
#
#
#
# Elastic Constant Matrix: (Units=GPa)
#
#
# Indices 1 2 3 4 5 6 
#
# 1 90.6481 43.0502 28.6240 0.0000 0.0000 0.0000
# 2 43.0502 90.6481 28.6240 0.0000 0.0000 0.0000
# 3 28.6240 28.6240 87.7073 0.0000 0.0000 0.0000
# 4 0.0000 0.0000 0.0000 21.9061 0.0000 0.0000
# 5 0.0000 0.0000 0.0000 0.0000 21.9061 0.0000
# 6 0.0000 0.0000 0.0000 0.0000 0.0000 45.5018
#
#
#
# Elastic Compliance Matrix: (Units=1/GPa)
#
#
# Indices 1 2 3 4 5 6 
#
# 1 0.014852 -0.006157 -0.002838 0.000000 0.000000 0.000000
# 2 -0.006157 0.014852 -0.002838 0.000000 0.000000 0.000000
# 3 -0.002838 -0.002838 0.013254 0.000000 0.000000 0.000000
# 4 0.000000 0.000000 0.000000 0.045649 0.000000 0.000000
# 5 0.000000 0.000000 0.000000 0.000000 0.045649 0.000000
# 6 0.000000 0.000000 0.000000 0.000000 0.000000 0.021977
#
#
# Mechanical properties :
#
#
# Convention : Reuss Voigt Hill
#
# Bulk Modulus (GPa) = 51.83339 52.17778 52.00558
# Shear Modulus (GPa) = 26.83422 29.10982 27.97202
#
# Velocity S-wave (km/s) = 3.90863 4.07099 3.99064
# Velocity P-wave (km/s) = 7.06257 7.19746 7.13034
#
# Compressibility (1/GPa) = 0.01929258
#
# Stress axis : x y z
#
# Youngs Moduli (GPa) = 67.33131 67.33131 75.45089
#
# Poissons Ratio (x) = 0.41459 0.21409
# Poissons Ratio (y) = 0.41459 0.21409
# Poissons Ratio (z) = 0.19105 0.19105
#
# Static dielectric constant tensor:
#      x y z
#    x 3.307480 0.000000 0.000000 
#    y 0.000000 3.307480 0.000000 
#    z 0.000000 0.000000 3.441610 
# 
# 
# High freq. dielectric constant tensor:
#      x y z
#    x 1.660930 0.000000 0.000000 
#    y 0.000000 1.660930 0.000000 
#    z 0.000000 0.000000 1.685250 
# 
# From -- ./inp_files/10902.got.cif
#   From: 2010.06.25/outbox.cif.g09.slc.cpg/sg140_6_cif.got.tgz:10902.got - 2010.06.28 10:53:23.
