data_PCOD8320120
_publ_section_title
;
Structure prediction by ZEFSAII (Michael W. Deem and Ramdas Pophale) SiO2 
 PCOD8320120
Probable space group: I 4/M C M
;
_chemical_formula_sum "Si O2"
_cell_formula_units_Z 144
_cell_length_a 19.211780
_cell_length_b 19.211780
_cell_length_c 22.853624
_cell_angle_alpha 90.000000
_cell_angle_beta 90.000000
_cell_angle_gamma 90.000000
_cell_volume 8435.101005
_symmetry_space_group_name_H-M "I 4/M C M"
_symmetry_group_IT_number 140
_symmetry_cell_setting 'tetragonal'
loop_
_space_group_symop_operation_xyz
x,y,z
-y,x,z
-x,-y,z
y,-x,z
x,-y,1/2-z
-x,y,1/2-z
y,x,1/2-z
-y,-x,1/2-z
-x,-y,-z
y,-x,-z
x,y,-z
-y,x,-z
-x,y,1/2+z
x,-y,1/2+z
-y,-x,1/2+z
y,x,1/2+z
1/2+x,1/2+y,1/2+z
1/2-y,1/2+x,1/2+z
1/2-x,1/2-y,1/2+z
1/2+y,1/2-x,1/2+z
1/2+x,1/2-y,-z
1/2-x,1/2+y,-z
1/2+y,1/2+x,-z
1/2-y,1/2-x,-z
1/2-x,1/2-y,1/2-z
1/2+y,1/2-x,1/2-z
1/2+x,1/2+y,1/2-z
1/2-y,1/2+x,1/2-z
1/2-x,1/2+y,z
1/2+x,1/2-y,z
1/2-y,1/2-x,z
1/2+y,1/2+x,z
loop_
_atom_site_type_symbol
_atom_site_label
_atom_site_fract_x
_atom_site_fract_y
_atom_site_fract_z
Si Si1 0.232688 0.267313 0.931070
Si Si2 0.620799 0.879202 0.430422
Si Si3 0.102770 0.964515 0.430420
Si Si4 0.500000 0.112550 0.250000
Si Si5 0.762520 0.889726 0.069495
Si Si6 0.639438 0.971654 0.875206
O O1 0.177089 0.322911 0.905076
O O2 0.216750 0.188326 0.910855
O O3 0.226937 0.273064 0.000000
O O4 0.620967 0.879034 0.500000
O O5 0.544097 0.857592 0.409626
O O6 0.102976 0.962191 0.500000
O O7 0.176733 0.939735 0.406467
O O8 0.042350 0.912416 0.407748
O O9 0.565600 0.065600 0.231646
O O10 0.516532 0.159319 0.306938
O O11 0.691914 0.915551 0.098384
O O12 0.752590 0.893082 0.000000
O O13 0.561793 0.938208 0.879099
#
# Coordination Sequence:
#
# PCOD8320120 Si02
#       6
#    16  16  32  16  32  32
#     4   9  20  35  45  68 111 144 166 196 252 323
#     4  11  23  34  52  82 112 137 165 211 264 312
#     4   8  15  27  44  68  96 128 170 211 243 293
#     4   9  18  36  56  72  98 133 182 220 264 301
#     4  10  19  31  49  73 105 142 170 202 259 317
#     4  11  21  35  55  78 102 137 176 219 255 311
#
# _framework density 17.071521000000001
#
# number of rings (size 3 to 8) (size 9 to 14) (size 15 to 20)
#    0.000    2.333    2.222    1.667    3.111    1.778 
#    0.000    0.000    0.000    2.667    0.000    0.000 
#    0.000    1.778    0.000    0.000    0.000    0.000 
#
# Total GULP energy -892401.722061 kJ/mol
# GULP energy per Si atom -12394.468362 kJ/mol
# Density = 1.703267 g / cm^3
# Si number density = 17.071521 Si / 1000 Ang^3
#
#
#
# Elastic Constant Matrix: (Units=GPa)
#
#
# Indices 1 2 3 4 5 6 
#
# 1 94.9647 48.2836 34.3362 0.0000 0.0000 0.0000
# 2 48.2836 94.9649 34.3366 0.0000 0.0000 0.0000
# 3 34.3362 34.3366 61.6162 0.0000 0.0000 0.0000
# 4 0.0000 0.0000 0.0000 9.4764 0.0000 0.0000
# 5 0.0000 0.0000 0.0000 0.0000 9.4764 0.0000
# 6 0.0000 0.0000 0.0000 0.0000 0.0000 34.3704
#
#
#
# Elastic Compliance Matrix: (Units=1/GPa)
#
#
# Indices 1 2 3 4 5 6 
#
# 1 0.015474 -0.005948 -0.005308 0.000000 0.000000 0.000000
# 2 -0.005948 0.015474 -0.005308 0.000000 0.000000 0.000000
# 3 -0.005308 -0.005308 0.022146 0.000000 0.000000 0.000000
# 4 0.000000 0.000000 0.000000 0.105525 0.000000 0.000000
# 5 0.000000 0.000000 0.000000 0.000000 0.105525 0.000000
# 6 0.000000 0.000000 0.000000 0.000000 0.000000 0.029095
#
#
# Mechanical properties :
#
#
# Convention : Reuss Voigt Hill
#
# Bulk Modulus (GPa) = 50.09049 53.93984 52.01516
# Shear Modulus (GPa) = 15.01401 19.63728 17.32564
#
# Velocity S-wave (km/s) = 2.96881 3.39528 3.18918
# Velocity P-wave (km/s) = 6.41538 6.85825 6.64050
#
# Compressibility (1/GPa) = 0.01996387
#
# Stress axis : x y z
#
# Youngs Moduli (GPa) = 64.62556 64.62531 45.15552
#
# Poissons Ratio (x) = 0.38440 0.23969
# Poissons Ratio (y) = 0.38440 0.23970
# Poissons Ratio (z) = 0.34305 0.34305
#
# Static dielectric constant tensor:
#      x y z
#    x 3.364200 0.000000 0.000000 
#    y 0.000000 3.364200 0.000000 
#    z 0.000000 0.000000 2.814280 
# 
# 
# High freq. dielectric constant tensor:
#      x y z
#    x 1.664460 0.000000 0.000000 
#    y 0.000000 1.664460 0.000000 
#    z 0.000000 0.000000 1.606380 
# 
# From -- ./inp_files/8399.got.cif
#   From: 2010.06.25/outbox.cif.g09.slc.cpg/sg140_5_cif.got.tgz:8399.got - 2010.06.28 10:53:23.
