data_PCOD8320805
_publ_section_title
;
Structure prediction by ZEFSAII (Michael W. Deem and Ramdas Pophale) SiO2 
 PCOD8320805
Probable space group: I 41/A M D
;
_chemical_formula_sum "Si O2"
_cell_formula_units_Z 176
_cell_length_a 18.686231
_cell_length_b 18.686231
_cell_length_c 26.150140
_cell_angle_alpha 90.000000
_cell_angle_beta 90.000000
_cell_angle_gamma 90.000000
_cell_volume 9130.981122
_symmetry_space_group_name_H-M "I 41/A M D"
_symmetry_group_IT_number 141
_space_group.IT_coordinate_system_code '2'
_symmetry_cell_setting 'tetragonal'
loop_
_space_group_symop_operation_xyz
x,y,z
1/4-y,3/4+x,1/4+z
-x,1/2-y,z
1/4+y,1/4-x,3/4+z
x,-y,-z
-x,1/2+y,-z
1/4+y,3/4+x,1/4-z
1/4-y,1/4-x,3/4-z
-x,-y,-z
3/4+y,1/4-x,3/4-z
x,1/2+y,-z
3/4-y,3/4+x,1/4-z
-x,y,z
x,1/2-y,z
3/4-y,1/4-x,3/4+z
3/4+y,3/4+x,1/4+z
1/2+x,1/2+y,1/2+z
3/4-y,1/4+x,3/4+z
1/2-x,-y,1/2+z
3/4+y,3/4-x,1/4+z
1/2+x,1/2-y,1/2-z
1/2-x,y,1/2-z
3/4+y,1/4+x,3/4-z
3/4-y,3/4-x,1/4-z
1/2-x,1/2-y,1/2-z
1/4+y,3/4-x,1/4-z
1/2+x,y,1/2-z
1/4-y,1/4+x,3/4-z
1/2-x,1/2+y,1/2+z
1/2+x,-y,1/2+z
1/4-y,3/4-x,1/4+z
1/4+y,1/4+x,3/4+z
loop_
_atom_site_type_symbol
_atom_site_label
_atom_site_fract_x
_atom_site_fract_y
_atom_site_fract_z
Si Si1 0.818230 0.829547 0.546163
Si Si2 0.822734 0.830714 0.279537
Si Si3 0.078864 0.165641 0.538977
Si Si4 0.639079 0.548728 0.641739
Si Si5 0.702434 0.452434 0.125000
Si Si6 0.920255 0.060877 0.781956
O O1 0.831129 0.750000 0.569156
O O2 0.888055 0.857462 0.515618
O O3 0.799901 0.883823 0.589925
O O4 0.752692 0.827154 0.507932
O O5 0.852787 0.750000 0.290817
O O6 0.750000 0.822787 0.250000
O O7 0.805052 0.873551 0.331483
O O8 0.876061 0.873716 0.242112
O O9 0.072895 0.250000 0.540403
O O10 0.129639 0.143753 0.585083
O O11 0.000000 0.130693 0.545193
O O12 0.723101 0.549966 0.655400
O O13 0.609973 0.473717 0.665213
O O14 0.000000 0.089764 0.793376
#
# Coordination Sequence:
#
# PCOD8320805 Si02
#       6
#    32  32  32  32  16  32
#     4   9  20  37  54  82 120 156 198 247 298 354
#     4  11  23  39  61  91 122 154 203 255 304 372
#     4   9  19  37  60  84 116 158 199 246 308 366
#     4  11  22  38  61  88 120 159 205 254 307 364
#     4  12  22  34  60  87 116 167 208 250 300 368
#     4  10  21  39  61  84 120 160 196 249 315 370
#
# _framework density 19.275037999999999
#
# number of rings (size 3 to 8) (size 9 to 14) (size 15 to 20)
#    0.000    1.818    1.818    3.818    0.000    4.727 
#    0.000    0.909    0.000    0.000    0.000    2.545 
#    0.000    0.000    0.000    0.000    0.000    0.000 
#
# Total GULP energy -1090704.742305 kJ/mol
# GULP energy per Si atom -12394.372072 kJ/mol
# Density = 1.923117 g / cm^3
# Si number density = 19.275038 Si / 1000 Ang^3
#
#
#
# Elastic Constant Matrix: (Units=GPa)
#
#
# Indices 1 2 3 4 5 6 
#
# 1 91.8038 30.6867 36.9965 0.0000 0.0000 0.0000
# 2 30.6867 91.8038 36.9965 0.0000 0.0000 0.0000
# 3 36.9965 36.9965 75.3181 0.0000 0.0000 0.0000
# 4 0.0000 0.0000 0.0000 33.1327 0.0000 0.0000
# 5 0.0000 0.0000 0.0000 0.0000 33.1327 0.0000
# 6 0.0000 0.0000 0.0000 0.0000 0.0000 15.7160
#
#
#
# Elastic Compliance Matrix: (Units=1/GPa)
#
#
# Indices 1 2 3 4 5 6 
#
# 1 0.013985 -0.002377 -0.005702 0.000000 0.000000 0.000000
# 2 -0.002377 0.013985 -0.005702 0.000000 0.000000 0.000000
# 3 -0.005702 -0.005702 0.018879 0.000000 0.000000 0.000000
# 4 0.000000 0.000000 0.000000 0.030182 0.000000 0.000000
# 5 0.000000 0.000000 0.000000 0.000000 0.030182 0.000000
# 6 0.000000 0.000000 0.000000 0.000000 0.000000 0.063629
#
#
# Mechanical properties :
#
#
# Convention : Reuss Voigt Hill
#
# Bulk Modulus (GPa) = 51.84782 52.03170 51.93976
# Shear Modulus (GPa) = 24.41017 26.67937 25.54477
#
# Velocity S-wave (km/s) = 3.56253 3.72444 3.64439
# Velocity P-wave (km/s) = 6.62416 6.74894 6.68684
#
# Compressibility (1/GPa) = 0.01928721
#
# Stress axis : x y z
#
# Youngs Moduli (GPa) = 71.50424 71.50424 52.96960
#
# Poissons Ratio (x) = 0.16995 0.30204
# Poissons Ratio (y) = 0.16995 0.30204
# Poissons Ratio (z) = 0.40772 0.40772
#
# Static dielectric constant tensor:
#      x y z
#    x 3.972620 0.000000 0.000000 
#    y 0.000000 3.972620 0.000000 
#    z 0.000000 0.000000 3.150890 
# 
# 
# High freq. dielectric constant tensor:
#      x y z
#    x 1.754220 0.000000 0.000000 
#    y 0.000000 1.754220 0.000000 
#    z 0.000000 0.000000 1.741330 
# 
# From -- ./inp_files/12855.got.cif
#   From: 2010.03.12/outbox.cif.g09.slc.cpg/sg141_7_cif.got.tgz:12855.got - 2010.04.03 13:18:35.
