data_PCOD8320859
_publ_section_title
;
Structure prediction by ZEFSAII (Michael W. Deem and Ramdas Pophale) SiO2 
 PCOD8320859
Probable space group: I 41/A M D
;
_chemical_formula_sum "Si O2"
_cell_formula_units_Z 160
_cell_length_a 19.999833
_cell_length_b 19.999833
_cell_length_c 18.475015
_cell_angle_alpha 90.000000
_cell_angle_beta 90.000000
_cell_angle_gamma 90.000000
_cell_volume 7389.882587
_symmetry_space_group_name_H-M "I 41/A M D"
_symmetry_group_IT_number 141
_space_group.IT_coordinate_system_code '2'
_symmetry_cell_setting 'tetragonal'
loop_
_space_group_symop_operation_xyz
x,y,z
1/4-y,3/4+x,1/4+z
-x,1/2-y,z
1/4+y,1/4-x,3/4+z
x,-y,-z
-x,1/2+y,-z
1/4+y,3/4+x,1/4-z
1/4-y,1/4-x,3/4-z
-x,-y,-z
3/4+y,1/4-x,3/4-z
x,1/2+y,-z
3/4-y,3/4+x,1/4-z
-x,y,z
x,1/2-y,z
3/4-y,1/4-x,3/4+z
3/4+y,3/4+x,1/4+z
1/2+x,1/2+y,1/2+z
3/4-y,1/4+x,3/4+z
1/2-x,-y,1/2+z
3/4+y,3/4-x,1/4+z
1/2+x,1/2-y,1/2-z
1/2-x,y,1/2-z
3/4+y,1/4+x,3/4-z
3/4-y,3/4-x,1/4-z
1/2-x,1/2-y,1/2-z
1/4+y,3/4-x,1/4-z
1/2+x,y,1/2-z
1/4-y,1/4+x,3/4-z
1/2-x,1/2+y,1/2+z
1/2+x,-y,1/2+z
1/4-y,3/4-x,1/4+z
1/4+y,1/4+x,3/4+z
loop_
_atom_site_type_symbol
_atom_site_label
_atom_site_fract_x
_atom_site_fract_y
_atom_site_fract_z
Si Si1 0.076497 0.325208 0.790749
Si Si2 0.789211 0.250000 0.323681
Si Si3 0.710359 0.130150 0.078299
Si Si4 0.182852 0.404894 0.704950
Si Si5 0.921739 0.750000 0.761019
Si Si6 0.424071 0.106090 0.318102
O O1 0.098375 0.250000 0.769547
O O2 0.087199 0.337199 0.875000
O O3 0.119720 0.378428 0.748659
O O4 0.000000 0.336972 0.768895
O O5 0.750000 0.250000 0.250000
O O6 0.762243 0.187489 0.369379
O O7 0.869862 0.250000 0.307371
O O8 0.654527 0.095474 0.125000
O O9 0.766304 0.076567 0.055692
O O10 0.677826 0.163350 0.008669
O O11 0.250000 0.389963 0.750000
O O12 0.183234 0.370762 0.626348
O O13 0.907595 0.685093 0.811097
O O14 0.000000 0.750000 0.733697
O O15 0.500000 0.096329 0.343184
#
# Coordination Sequence:
#
# PCOD8320859 Si02
#       6
#    32  16  32  32  16  32
#     4   9  21  44  73 104 137 178 233 295 358 424
#     4  12  24  46  74 104 141 190 239 289 358 433
#     4  12  28  45  70 102 143 189 238 289 354 437
#     4  12  30  45  72  99 144 194 239 300 364 429
#     4  10  22  44  76 110 148 180 231 300 364 432
#     4  11  25  47  72 107 141 181 237 295 364 434
#
# _framework density 21.651223000000002
#
# number of rings (size 3 to 8) (size 9 to 14) (size 15 to 20)
#    0.000    1.000    3.000    2.400    8.400    1.600 
#    1.800    0.000    0.000    0.000    0.000    0.000 
#    0.000    0.000    0.000    0.000    0.000    0.000 
#
# Total GULP energy -992142.267781 kJ/mol
# GULP energy per Si atom -12401.778347 kJ/mol
# Density = 2.160194 g / cm^3
# Si number density = 21.651223 Si / 1000 Ang^3
#
#
#
# Elastic Constant Matrix: (Units=GPa)
#
#
# Indices 1 2 3 4 5 6 
#
# 1 -52.7256 142.7342 47.7824 0.0000 0.0000 0.0000
# 2 142.7342 -52.7006 47.7664 0.0000 0.0000 0.0000
# 3 47.7824 47.7664 117.0346 0.0000 0.0000 0.0000
# 4 0.0000 0.0000 0.0000 31.1878 0.0000 0.0000
# 5 0.0000 0.0000 0.0000 0.0000 31.1770 0.0000
# 6 0.0000 0.0000 0.0000 0.0000 0.0000 30.6093
#
#
#
# Elastic Compliance Matrix: (Units=1/GPa)
#
#
# Indices 1 2 3 4 5 6 
#
# 1 0.007240 0.012359 -0.008000 0.000000 0.000000 0.000000
# 2 0.012359 0.007244 -0.008002 0.000000 0.000000 0.000000
# 3 -0.008000 -0.008002 0.015077 0.000000 0.000000 0.000000
# 4 0.000000 0.000000 0.000000 0.032064 0.000000 0.000000
# 5 0.000000 0.000000 0.000000 0.000000 0.032075 0.000000
# 6 0.000000 0.000000 0.000000 0.000000 0.000000 0.032670
#
#
# Mechanical properties :
#
#
# Convention : Reuss Voigt Hill
#
# Bulk Modulus (GPa) = 44.89567 54.24159 49.56863
# Shear Modulus (GPa) = 35.44024 3.48318 19.46171
#
# Velocity S-wave (km/s) = 4.05021 1.26975 3.00137
# Velocity P-wave (km/s) = 6.53094 5.22078 5.91226
#
# Compressibility (1/GPa) = 0.02227386
#
# Stress axis : x y z
#
# Youngs Moduli (GPa) = 138.11315 138.04027 66.32663
#
# Poissons Ratio (x) = -1.70602 0.53063
# Poissons Ratio (y) = -1.70692 0.53078
# Poissons Ratio (z) = 1.10493 1.10466
#
# Static dielectric constant tensor:
#      x y z
#    x 3.961360 0.000000 0.000000 
#    y 0.000000 3.961360 0.000000 
#    z 0.000000 0.000000 3.809900 
# 
# 
# High freq. dielectric constant tensor:
#      x y z
#    x 1.854590 0.000000 0.000000 
#    y 0.000000 1.854590 0.000000 
#    z 0.000000 0.000000 1.859820 
# 
# From -- ./inp_files/8675.got.cif
#   From: 2010.03.12/outbox.cif.g09.slc.cpg/sg141_5_cif.got.tgz:8675.got - 2010.04.03 13:18:35.
