data_PCOD8320558
_publ_section_title
;
Structure prediction by ZEFSAII (Michael W. Deem and Ramdas Pophale) SiO2 
 PCOD8320558
Probable space group: I 41/A M D
;
_chemical_formula_sum "Si O2"
_cell_formula_units_Z 192
_cell_length_a 28.994837
_cell_length_b 28.994837
_cell_length_c 15.105885
_cell_angle_alpha 90.000000
_cell_angle_beta 90.000000
_cell_angle_gamma 90.000000
_cell_volume 12699.526170
_symmetry_space_group_name_H-M "I 41/A M D"
_symmetry_group_IT_number 141
_space_group.IT_coordinate_system_code '2'
_symmetry_cell_setting 'tetragonal'
loop_
_space_group_symop_operation_xyz
x,y,z
1/4-y,3/4+x,1/4+z
-x,1/2-y,z
1/4+y,1/4-x,3/4+z
x,-y,-z
-x,1/2+y,-z
1/4+y,3/4+x,1/4-z
1/4-y,1/4-x,3/4-z
-x,-y,-z
3/4+y,1/4-x,3/4-z
x,1/2+y,-z
3/4-y,3/4+x,1/4-z
-x,y,z
x,1/2-y,z
3/4-y,1/4-x,3/4+z
3/4+y,3/4+x,1/4+z
1/2+x,1/2+y,1/2+z
3/4-y,1/4+x,3/4+z
1/2-x,-y,1/2+z
3/4+y,3/4-x,1/4+z
1/2+x,1/2-y,1/2-z
1/2-x,y,1/2-z
3/4+y,1/4+x,3/4-z
3/4-y,3/4-x,1/4-z
1/2-x,1/2-y,1/2-z
1/4+y,3/4-x,1/4-z
1/2+x,y,1/2-z
1/4-y,1/4+x,3/4-z
1/2-x,1/2+y,1/2+z
1/2+x,-y,1/2+z
1/4-y,3/4-x,1/4+z
1/4+y,1/4+x,3/4+z
loop_
_atom_site_type_symbol
_atom_site_label
_atom_site_fract_x
_atom_site_fract_y
_atom_site_fract_z
Si Si1 0.120169 0.957920 0.192124
Si Si2 0.550431 0.047238 0.833278
Si Si3 0.697660 0.107819 0.746770
Si Si4 0.685372 0.372155 0.942368
Si Si5 0.611749 0.945359 0.002964
Si Si6 0.811721 0.698249 0.585337
O O1 0.076604 0.937591 0.244404
O O2 0.109026 0.945535 0.089638
O O3 0.166711 0.936318 0.229666
O O4 0.129321 0.011130 0.213526
O O5 0.500000 0.070265 0.832370
O O6 0.577099 0.066085 0.917909
O O7 0.545687 0.992671 0.836088
O O8 0.750000 0.089393 0.750000
O O9 0.680450 0.133944 0.835733
O O10 0.658430 0.416672 0.979913
O O11 0.669789 0.325559 0.994205
O O12 0.586146 0.925970 0.915831
O O13 0.623826 0.000000 0.000000
O O14 0.833677 0.750000 0.594344
#
# Coordination Sequence:
#
# PCOD8320558 Si02
#       6
#    32  32  32  32  32  32
#     4   9  17  29  43  61  88 120 151 182 216 257
#     4   9  16  28  45  62  84 114 148 185 225 263
#     4   9  17  29  43  60  86 121 152 178 215 258
#     4  10  18  29  44  63  86 118 154 182 217 261
#     4  10  18  28  43  65  89 115 148 188 226 262
#     4   9  18  30  42  59  86 119 150 183 224 263
#
# _framework density 15.118675
#
# number of rings (size 3 to 8) (size 9 to 14) (size 15 to 20)
#    0.000    2.667    1.667    1.000    0.000    2.667 
#    0.000    0.833    0.000    5.000    0.000    0.000 
#    0.000   11.333    0.000    0.333    0.000    0.000 
#
# Total GULP energy -1189393.415706 kJ/mol
# GULP energy per Si atom -12389.514747 kJ/mol
# Density = 1.508426 g / cm^3
# Si number density = 15.118675 Si / 1000 Ang^3
#
#
#
# Elastic Constant Matrix: (Units=GPa)
#
#
# Indices 1 2 3 4 5 6 
#
# 1 56.2340 26.9991 41.6489 0.0000 0.0000 0.0000
# 2 26.9991 56.2340 41.6489 0.0000 0.0000 0.0000
# 3 41.6489 41.6489 134.6999 0.0000 0.0000 0.0000
# 4 0.0000 0.0000 0.0000 16.9010 0.0000 0.0000
# 5 0.0000 0.0000 0.0000 0.0000 16.9010 0.0000
# 6 0.0000 0.0000 0.0000 0.0000 0.0000 1.0416
#
#
#
# Elastic Compliance Matrix: (Units=1/GPa)
#
#
# Indices 1 2 3 4 5 6 
#
# 1 0.025802 -0.008404 -0.005379 0.000000 0.000000 0.000000
# 2 -0.008404 0.025802 -0.005379 0.000000 0.000000 0.000000
# 3 -0.005379 -0.005379 0.010751 0.000000 0.000000 0.000000
# 4 0.000000 0.000000 0.000000 0.059168 0.000000 0.000000
# 5 0.000000 0.000000 0.000000 0.000000 0.059168 0.000000
# 6 0.000000 0.000000 0.000000 0.000000 0.000000 0.960071
#
#
# Mechanical properties :
#
#
# Convention : Reuss Voigt Hill
#
# Bulk Modulus (GPa) = 41.61654 51.97350 46.79502
# Shear Modulus (GPa) = 4.21196 16.09346 10.15271
#
# Velocity S-wave (km/s) = 1.67092 3.26617 2.59421
# Velocity P-wave (km/s) = 5.59544 6.97678 6.32394
#
# Compressibility (1/GPa) = 0.02402891
#
# Stress axis : x y z
#
# Youngs Moduli (GPa) = 38.75693 38.75693 93.01865
#
# Poissons Ratio (x) = 0.32570 0.50039
# Poissons Ratio (y) = 0.32570 0.50039
# Poissons Ratio (z) = 0.20849 0.20849
#
# Static dielectric constant tensor:
#      x y z
#    x 2.804310 0.000000 0.000000 
#    y 0.000000 2.804310 0.000000 
#    z 0.000000 0.000000 3.330560 
# 
# 
# High freq. dielectric constant tensor:
#      x y z
#    x 1.546060 0.000000 0.000000 
#    y 0.000000 1.546060 0.000000 
#    z 0.000000 0.000000 1.602430 
# 
# From -- ./inp_files/6958.got.cif
#   From: 2010.03.12/outbox.cif.g09.slc.cpg/sg141_4_cif.got.tgz:6958.got - 2010.04.03 13:18:35.
