data_PCOD8320444
_publ_section_title
;
Structure prediction by ZEFSAII (Michael W. Deem and Ramdas Pophale) SiO2 
 PCOD8320444
Probable space group: I 4/M C M
;
_chemical_formula_sum "Si O2"
_cell_formula_units_Z 160
_cell_length_a 19.408123
_cell_length_b 19.408123
_cell_length_c 20.630106
_cell_angle_alpha 90.000000
_cell_angle_beta 90.000000
_cell_angle_gamma 90.000000
_cell_volume 7770.850095
_symmetry_space_group_name_H-M "I 4/M C M"
_symmetry_group_IT_number 140
_symmetry_cell_setting 'tetragonal'
loop_
_space_group_symop_operation_xyz
x,y,z
-y,x,z
-x,-y,z
y,-x,z
x,-y,1/2-z
-x,y,1/2-z
y,x,1/2-z
-y,-x,1/2-z
-x,-y,-z
y,-x,-z
x,y,-z
-y,x,-z
-x,y,1/2+z
x,-y,1/2+z
-y,-x,1/2+z
y,x,1/2+z
1/2+x,1/2+y,1/2+z
1/2-y,1/2+x,1/2+z
1/2-x,1/2-y,1/2+z
1/2+y,1/2-x,1/2+z
1/2+x,1/2-y,-z
1/2-x,1/2+y,-z
1/2+y,1/2+x,-z
1/2-y,1/2-x,-z
1/2-x,1/2-y,1/2-z
1/2+y,1/2-x,1/2-z
1/2+x,1/2+y,1/2-z
1/2-y,1/2+x,1/2-z
1/2-x,1/2+y,z
1/2+x,1/2-y,z
1/2-y,1/2-x,z
1/2+y,1/2+x,z
loop_
_atom_site_type_symbol
_atom_site_label
_atom_site_fract_x
_atom_site_fract_y
_atom_site_fract_z
Si Si1 0.357323 0.742836 0.626012
Si Si2 0.302983 0.082256 0.000000
Si Si3 0.420074 0.192733 0.752345
Si Si4 0.579048 0.812850 0.500000
Si Si5 0.390929 0.478490 0.075343
Si Si6 0.396346 0.275694 0.376245
O O1 0.291869 0.791869 0.628441
O O2 0.402549 0.756266 0.562282
O O3 0.405634 0.755956 0.688100
O O4 0.329305 0.666039 0.624890
O O5 0.323387 0.002629 0.000000
O O6 0.372881 0.127120 0.000000
O O7 0.500000 0.172736 0.750000
O O8 0.378119 0.121882 0.760606
O O9 0.396360 0.230744 0.687769
O O10 0.610599 0.889402 0.500000
O O11 0.608452 0.773903 0.437524
O O12 0.447108 0.420232 0.092460
O O13 0.322730 0.465240 0.117904
O O14 0.370681 0.473122 0.000000
#
# Coordination Sequence:
#
# PCOD8320444 Si02
#       6
#    32  16  32  16  32  32
#     4  10  22  41  63  90 122 157 202 254 311 375
#     4  10  23  42  67  92 120 165 210 255 317 378
#     4  11  25  44  65  92 124 163 210 257 315 380
#     4  12  25  38  59  97 131 160 213 264 304 365
#     4   9  20  37  58  91 130 170 211 251 304 371
#     4  12  23  37  66  91 128 163 204 256 313 361
#
# _framework density 20.589769
#
# number of rings (size 3 to 8) (size 9 to 14) (size 15 to 20)
#    0.000    1.400    1.000    4.800    5.600    2.800 
#    0.000    0.000    0.000    6.000    0.000    0.000 
#    0.000    0.000    0.000    0.000    0.000    0.000 
#
# Total GULP energy -992294.459617 kJ/mol
# GULP energy per Si atom -12403.680745 kJ/mol
# Density = 2.054291 g / cm^3
# Si number density = 20.589769 Si / 1000 Ang^3
#
#
#
# Elastic Constant Matrix: (Units=GPa)
#
#
# Indices 1 2 3 4 5 6 
#
# 1 110.1124 40.6930 46.0837 0.0000 0.0000 0.0000
# 2 40.6930 110.1115 46.0836 0.0000 0.0000 0.0000
# 3 46.0837 46.0836 153.8255 0.0000 0.0000 0.0000
# 4 0.0000 0.0000 0.0000 29.3511 0.0000 0.0000
# 5 0.0000 0.0000 0.0000 0.0000 29.3515 0.0000
# 6 0.0000 0.0000 0.0000 0.0000 0.0000 33.9935
#
#
#
# Elastic Compliance Matrix: (Units=1/GPa)
#
#
# Indices 1 2 3 4 5 6 
#
# 1 0.011261 -0.003144 -0.002432 0.000000 0.000000 0.000000
# 2 -0.003144 0.011261 -0.002432 0.000000 0.000000 0.000000
# 3 -0.002432 -0.002432 0.007958 0.000000 0.000000 0.000000
# 4 0.000000 0.000000 0.000000 0.034070 0.000000 0.000000
# 5 0.000000 0.000000 0.000000 0.000000 0.034070 0.000000
# 6 0.000000 0.000000 0.000000 0.000000 0.000000 0.029417
#
#
# Mechanical properties :
#
#
# Convention : Reuss Voigt Hill
#
# Bulk Modulus (GPa) = 69.13085 71.08556 70.10821
# Shear Modulus (GPa) = 33.58520 34.61848 34.10184
#
# Velocity S-wave (km/s) = 4.04314 4.10487 4.07412
# Velocity P-wave (km/s) = 7.44609 7.55422 7.50035
#
# Compressibility (1/GPa) = 0.01446532
#
# Stress axis : x y z
#
# Youngs Moduli (GPa) = 88.79995 88.79918 125.66062
#
# Poissons Ratio (x) = 0.27918 0.30558
# Poissons Ratio (y) = 0.27919 0.30559
# Poissons Ratio (z) = 0.21594 0.21595
#
# Static dielectric constant tensor:
#      x y z
#    x 3.753650 0.000000 0.000000 
#    y 0.000000 3.753650 0.000000 
#    z 0.000000 0.000000 3.797120 
# 
# 
# High freq. dielectric constant tensor:
#      x y z
#    x 1.814040 0.000000 0.000000 
#    y 0.000000 1.814040 0.000000 
#    z 0.000000 0.000000 1.804010 
# 
# From -- ./inp_files/6932.got.cif
#   From: 2010.06.25/outbox.cif.g09.slc.cpg/sg140_4_cif.got.tgz:6932.got - 2010.06.28 10:53:23.
