data_PCOD8320319
_publ_section_title
;
Structure prediction by ZEFSAII (Michael W. Deem and Ramdas Pophale) SiO2 
 PCOD8320319
Probable space group: I 4/M C M
;
_chemical_formula_sum "Si O2"
_cell_formula_units_Z 144
_cell_length_a 28.480458
_cell_length_b 28.480458
_cell_length_c 9.318060
_cell_angle_alpha 90.000000
_cell_angle_beta 90.000000
_cell_angle_gamma 90.000000
_cell_volume 7558.218462
_symmetry_space_group_name_H-M "I 4/M C M"
_symmetry_group_IT_number 140
_symmetry_cell_setting 'tetragonal'
loop_
_space_group_symop_operation_xyz
x,y,z
-y,x,z
-x,-y,z
y,-x,z
x,-y,1/2-z
-x,y,1/2-z
y,x,1/2-z
-y,-x,1/2-z
-x,-y,-z
y,-x,-z
x,y,-z
-y,x,-z
-x,y,1/2+z
x,-y,1/2+z
-y,-x,1/2+z
y,x,1/2+z
1/2+x,1/2+y,1/2+z
1/2-y,1/2+x,1/2+z
1/2-x,1/2-y,1/2+z
1/2+y,1/2-x,1/2+z
1/2+x,1/2-y,-z
1/2-x,1/2+y,-z
1/2+y,1/2+x,-z
1/2-y,1/2-x,-z
1/2-x,1/2-y,1/2-z
1/2+y,1/2-x,1/2-z
1/2+x,1/2+y,1/2-z
1/2-y,1/2+x,1/2-z
1/2-x,1/2+y,z
1/2+x,1/2-y,z
1/2-y,1/2-x,z
1/2+y,1/2+x,z
loop_
_atom_site_type_symbol
_atom_site_label
_atom_site_fract_x
_atom_site_fract_y
_atom_site_fract_z
Si Si1 0.874067 0.549750 0.668533
Si Si2 0.544893 0.392623 0.163136
Si Si3 0.956212 0.781569 0.160986
Si Si4 0.280705 0.892910 0.666637
Si Si5 0.215611 0.284390 0.664738
O O1 0.873071 0.500000 0.750000
O O2 0.872952 0.538934 0.500000
O O3 0.921296 0.578705 0.709003
O O4 0.829783 0.582580 0.711852
O O5 0.500000 0.411876 0.250000
O O6 0.590372 0.409629 0.250000
O O7 0.546200 0.337097 0.162582
O O8 0.544304 0.411988 0.000000
O O9 0.910621 0.761868 0.236996
O O10 0.000000 0.761859 0.250000
O O11 0.960531 0.762104 0.000000
O O12 0.270937 0.902806 0.500000
O O13 0.277358 0.838461 0.702608
O O14 0.250000 0.250000 0.750000
O O15 0.226173 0.273828 0.500000
#
# Coordination Sequence:
#
# PCOD8320319 Si02
#       5
#    32  32  32  32  16
#     4  10  21  38  59  84 116 154 196 241 292 350
#     4  10  21  37  56  79 110 145 184 230 282 339
#     4  10  21  36  56  84 114 145 185 234 284 336
#     4  10  20  38  61  82 113 154 193 236 291 349
#     4  10  22  40  60  84 115 154 193 237 292 347
#
# _framework density 19.052109000000002
#
# number of rings (size 3 to 8) (size 9 to 14) (size 15 to 20)
#    0.000    2.000    1.111    2.000    0.000    8.000 
#    0.000    6.667    0.000    0.000    0.000    0.000 
#    0.000    0.000    0.000    0.000    0.000    0.000 
#
# Total GULP energy -892643.799734 kJ/mol
# GULP energy per Si atom -12397.830552 kJ/mol
# Density = 1.900875 g / cm^3
# Si number density = 19.052109 Si / 1000 Ang^3
#
#
#
# Elastic Constant Matrix: (Units=GPa)
#
#
# Indices 1 2 3 4 5 6 
#
# 1 69.2135 71.1299 61.0441 0.0000 0.0000 0.0000
# 2 71.1299 69.2313 61.0482 0.0000 0.0000 0.0000
# 3 61.0441 61.0482 125.5635 0.0000 0.0000 0.0000
# 4 0.0000 0.0000 0.0000 35.1583 0.0000 0.0000
# 5 0.0000 0.0000 0.0000 0.0000 35.1581 0.0000
# 6 0.0000 0.0000 0.0000 0.0000 0.0000 39.0551
#
#
#
# Elastic Compliance Matrix: (Units=1/GPa)
#
#
# Indices 1 2 3 4 5 6 
#
# 1 -0.255998 0.268300 -0.005990 0.000000 0.000000 0.000000
# 2 0.268300 -0.255909 -0.006016 0.000000 0.000000 0.000000
# 3 -0.005990 -0.006016 0.013801 0.000000 0.000000 0.000000
# 4 0.000000 0.000000 0.000000 0.028443 0.000000 0.000000
# 5 0.000000 0.000000 0.000000 0.000000 0.028443 0.000000
# 6 0.000000 0.000000 0.000000 0.000000 0.000000 0.025605
#
#
# Mechanical properties :
#
#
# Convention : Reuss Voigt Hill
#
# Bulk Modulus (GPa) = 69.04430 72.27250 70.65840
# Shear Modulus (GPa) = -5.41490 26.59338 10.58924
#
# Velocity S-wave (km/s) = -1.68770 3.74013 2.36011
# Velocity P-wave (km/s) = 5.70269 7.52781 6.67789
#
# Compressibility (1/GPa) = 0.01448345
#
# Stress axis : x y z
#
# Youngs Moduli (GPa) = -3.90628 -3.90763 72.45953
#
# Poissons Ratio (x) = 1.04842 0.43401
# Poissons Ratio (y) = 1.04806 0.43589
# Poissons Ratio (z) = -0.02340 -0.02351
#
# Static dielectric constant tensor:
#      x y z
#    x 3.463760 0.000000 0.000000 
#    y 0.000000 3.463750 0.000000 
#    z 0.000000 0.000000 3.644440 
# 
# 
# High freq. dielectric constant tensor:
#      x y z
#    x 1.742700 0.000000 0.000000 
#    y 0.000000 1.742700 0.000000 
#    z 0.000000 0.000000 1.746170 
# 
# From -- ./inp_files/1644.got.cif
#   From: 2010.06.25/outbox.cif.g09.slc.cpg/sg140_1_cif.got.tgz:1644.got - 2010.06.28 10:53:23.
