data_PCOD8320865
_publ_section_title
;
Structure prediction by ZEFSAII (Michael W. Deem and Ramdas Pophale) SiO2 
 PCOD8320865
Probable space group: I 41/A M D
;
_chemical_formula_sum "Si O2"
_cell_formula_units_Z 160
_cell_length_a 22.578915
_cell_length_b 22.578915
_cell_length_c 15.646823
_cell_angle_alpha 90.000000
_cell_angle_beta 90.000000
_cell_angle_gamma 90.000000
_cell_volume 7976.866192
_symmetry_space_group_name_H-M "I 41/A M D"
_symmetry_group_IT_number 141
_space_group.IT_coordinate_system_code '2'
_symmetry_cell_setting 'tetragonal'
loop_
_space_group_symop_operation_xyz
x,y,z
1/4-y,3/4+x,1/4+z
-x,1/2-y,z
1/4+y,1/4-x,3/4+z
x,-y,-z
-x,1/2+y,-z
1/4+y,3/4+x,1/4-z
1/4-y,1/4-x,3/4-z
-x,-y,-z
3/4+y,1/4-x,3/4-z
x,1/2+y,-z
3/4-y,3/4+x,1/4-z
-x,y,z
x,1/2-y,z
3/4-y,1/4-x,3/4+z
3/4+y,3/4+x,1/4+z
1/2+x,1/2+y,1/2+z
3/4-y,1/4+x,3/4+z
1/2-x,-y,1/2+z
3/4+y,3/4-x,1/4+z
1/2+x,1/2-y,1/2-z
1/2-x,y,1/2-z
3/4+y,1/4+x,3/4-z
3/4-y,3/4-x,1/4-z
1/2-x,1/2-y,1/2-z
1/4+y,3/4-x,1/4-z
1/2+x,y,1/2-z
1/4-y,1/4+x,3/4-z
1/2-x,1/2+y,1/2+z
1/2+x,-y,1/2+z
1/4-y,3/4-x,1/4+z
1/4+y,1/4+x,3/4+z
loop_
_atom_site_type_symbol
_atom_site_label
_atom_site_fract_x
_atom_site_fract_y
_atom_site_fract_z
Si Si1 0.235823 0.182992 0.059161
Si Si2 0.126923 0.619572 0.877764
Si Si3 0.128906 0.180938 0.451962
Si Si4 0.750031 0.683808 0.132789
Si Si5 0.873260 0.317173 0.796024
O O1 0.225806 0.250000 0.092859
O O2 0.195694 0.137845 0.114291
O O3 0.303937 0.163468 0.072102
O O4 0.218072 0.178822 0.959498
O O5 0.102618 0.642620 0.787366
O O6 0.117742 0.548906 0.886975
O O7 0.091569 0.649440 0.956963
O O8 0.085972 0.164029 0.375000
O O9 0.124173 0.250000 0.471400
O O10 0.720302 0.750000 0.139074
O O11 0.800863 0.677047 0.205135
O O12 0.896040 0.353960 0.875000
O O13 0.893677 0.250000 0.807607
#
# Coordination Sequence:
#
# PCOD8320865 Si02
#       5
#    32  32  32  32  32
#     4   9  19  37  60  87 118 152 190 237 296 359
#     4  11  20  35  63  88 112 153 206 244 285 352
#     4  10  23  43  64  87 118 154 199 251 302 358
#     4   9  18  35  56  83 120 159 197 238 287 351
#     4  11  21  34  55  85 122 159 196 241 294 350
#
# _framework density 20.058001000000001
#
# number of rings (size 3 to 8) (size 9 to 14) (size 15 to 20)
#    0.000    2.000    2.000    3.600    0.000    3.600 
#    0.000    3.000    4.400    6.600    0.000    0.000 
#    0.000    0.000    0.000    0.000    0.000    0.000 
#
# Total GULP energy -991916.580089 kJ/mol
# GULP energy per Si atom -12398.957251 kJ/mol
# Density = 2.001235 g / cm^3
# Si number density = 20.058001 Si / 1000 Ang^3
#
#
#
# Elastic Constant Matrix: (Units=GPa)
#
#
# Indices 1 2 3 4 5 6 
#
# 1 64.8724 42.8508 25.2109 0.0000 0.0000 0.0000
# 2 42.8508 64.8641 25.2064 0.0000 0.0000 0.0000
# 3 25.2109 25.2064 110.1104 0.0000 0.0000 0.0000
# 4 0.0000 0.0000 0.0000 27.1470 0.0000 0.0000
# 5 0.0000 0.0000 0.0000 0.0000 27.1472 0.0000
# 6 0.0000 0.0000 0.0000 0.0000 0.0000 34.4026
#
#
#
# Elastic Compliance Matrix: (Units=1/GPa)
#
#
# Indices 1 2 3 4 5 6 
#
# 1 0.027907 -0.017510 -0.002381 0.000000 0.000000 0.000000
# 2 -0.017510 0.027910 -0.002380 0.000000 0.000000 0.000000
# 3 -0.002381 -0.002380 0.010172 0.000000 0.000000 0.000000
# 4 0.000000 0.000000 0.000000 0.036837 0.000000 0.000000
# 5 0.000000 0.000000 0.000000 0.000000 0.036836 0.000000
# 6 0.000000 0.000000 0.000000 0.000000 0.000000 0.029068
#
#
# Mechanical properties :
#
#
# Convention : Reuss Voigt Hill
#
# Bulk Modulus (GPa) = 46.63052 47.37590 47.00321
# Shear Modulus (GPa) = 22.68404 27.51126 25.09765
#
# Velocity S-wave (km/s) = 3.36657 3.70751 3.54114
# Velocity P-wave (km/s) = 6.19758 6.48060 6.34067
#
# Compressibility (1/GPa) = 0.02144518
#
# Stress axis : x y z
#
# Youngs Moduli (GPa) = 35.83384 35.83005 98.31157
#
# Poissons Ratio (x) = 0.62740 0.23408
# Poissons Ratio (y) = 0.62747 0.23396
# Poissons Ratio (z) = 0.08532 0.08527
#
# Static dielectric constant tensor:
#      x y z
#    x 3.439820 0.000000 0.000000 
#    y 0.000000 3.439820 0.000000 
#    z 0.000000 0.000000 3.738720 
# 
# 
# High freq. dielectric constant tensor:
#      x y z
#    x 1.763480 0.000000 0.000000 
#    y 0.000000 1.763480 0.000000 
#    z 0.000000 0.000000 1.796420 
# 
# From -- ./inp_files/8554.got.cif
#   From: 2010.03.12/outbox.cif.g09.slc.cpg/sg141_5_cif.got.tgz:8554.got - 2010.04.03 13:18:35.
