data_PCOD8320595
_publ_section_title
;
Structure prediction by ZEFSAII (Michael W. Deem and Ramdas Pophale) SiO2 
 PCOD8320595
Probable space group: I 41/A M D
;
_chemical_formula_sum "Si O2"
_cell_formula_units_Z 160
_cell_length_a 27.274515
_cell_length_b 27.274515
_cell_length_c 13.793650
_cell_angle_alpha 90.000000
_cell_angle_beta 90.000000
_cell_angle_gamma 90.000000
_cell_volume 10261.084765
_symmetry_space_group_name_H-M "I 41/A M D"
_symmetry_group_IT_number 141
_space_group.IT_coordinate_system_code '2'
_symmetry_cell_setting 'tetragonal'
loop_
_space_group_symop_operation_xyz
x,y,z
1/4-y,3/4+x,1/4+z
-x,1/2-y,z
1/4+y,1/4-x,3/4+z
x,-y,-z
-x,1/2+y,-z
1/4+y,3/4+x,1/4-z
1/4-y,1/4-x,3/4-z
-x,-y,-z
3/4+y,1/4-x,3/4-z
x,1/2+y,-z
3/4-y,3/4+x,1/4-z
-x,y,z
x,1/2-y,z
3/4-y,1/4-x,3/4+z
3/4+y,3/4+x,1/4+z
1/2+x,1/2+y,1/2+z
3/4-y,1/4+x,3/4+z
1/2-x,-y,1/2+z
3/4+y,3/4-x,1/4+z
1/2+x,1/2-y,1/2-z
1/2-x,y,1/2-z
3/4+y,1/4+x,3/4-z
3/4-y,3/4-x,1/4-z
1/2-x,1/2-y,1/2-z
1/4+y,3/4-x,1/4-z
1/2+x,y,1/2-z
1/4-y,1/4+x,3/4-z
1/2-x,1/2+y,1/2+z
1/2+x,-y,1/2+z
1/4-y,3/4-x,1/4+z
1/4+y,1/4+x,3/4+z
loop_
_atom_site_type_symbol
_atom_site_label
_atom_site_fract_x
_atom_site_fract_y
_atom_site_fract_z
Si Si1 0.058010 0.082275 0.621809
Si Si2 0.057537 0.878112 0.175853
Si Si3 0.941709 0.020209 0.302692
Si Si4 0.232398 0.191826 0.851449
Si Si5 0.366550 0.308426 0.162980
O O1 0.073634 0.117095 0.711489
O O2 0.078641 0.026887 0.637182
O O3 0.076798 0.106100 0.522306
O O4 0.000000 0.077944 0.618266
O O5 0.082028 0.832028 0.125000
O O6 0.074565 0.926751 0.119429
O O7 0.000000 0.869913 0.167556
O O8 0.923595 0.016389 0.190856
O O9 0.000000 0.018855 0.306882
O O10 0.922919 0.070768 0.348584
O O11 0.235468 0.250000 0.846123
O O12 0.250000 0.168069 0.750000
O O13 0.374368 0.250000 0.156402
O O14 0.415792 0.334209 0.125000
#
# Coordination Sequence:
#
# PCOD8320595 Si02
#       5
#    32  32  32  32  32
#     4   8  15  29  45  59  78 106 142 184 218 236
#     4   9  17  28  42  61  87 117 144 169 200 245
#     4   8  14  26  44  61  77 103 138 176 216 246
#     4   8  14  25  41  61  83 104 132 177 222 246
#     4  10  19  29  42  61  86 114 142 170 203 250
#
# _framework density 15.592893999999999
#
# number of rings (size 3 to 8) (size 9 to 14) (size 15 to 20)
#    0.000    3.400    0.000    3.000    0.000    4.400 
#    0.000    3.000    0.000    3.600    0.000    0.000 
#    0.000   44.800    0.000    0.000    0.000    0.000 
#
# Total GULP energy -991329.229159 kJ/mol
# GULP energy per Si atom -12391.615364 kJ/mol
# Density = 1.555740 g / cm^3
# Si number density = 15.592894 Si / 1000 Ang^3
#
#
#
# Elastic Constant Matrix: (Units=GPa)
#
#
# Indices 1 2 3 4 5 6 
#
# 1 50.5138 31.9147 45.4993 0.0000 0.0000 0.0000
# 2 31.9147 50.5176 45.5014 0.0000 0.0000 0.0000
# 3 45.4993 45.5014 144.7298 0.0000 0.0000 0.0000
# 4 0.0000 0.0000 0.0000 20.0119 0.0000 0.0000
# 5 0.0000 0.0000 0.0000 0.0000 20.0118 0.0000
# 6 0.0000 0.0000 0.0000 0.0000 0.0000 2.2719
#
#
#
# Elastic Compliance Matrix: (Units=1/GPa)
#
#
# Indices 1 2 3 4 5 6 
#
# 1 0.036171 -0.017590 -0.005841 0.000000 0.000000 0.000000
# 2 -0.017590 0.036169 -0.005841 0.000000 0.000000 0.000000
# 3 -0.005841 -0.005841 0.010582 0.000000 0.000000 0.000000
# 4 0.000000 0.000000 0.000000 0.049970 0.000000 0.000000
# 5 0.000000 0.000000 0.000000 0.000000 0.049970 0.000000
# 6 0.000000 0.000000 0.000000 0.000000 0.000000 0.440166
#
#
# Mechanical properties :
#
#
# Convention : Reuss Voigt Hill
#
# Bulk Modulus (GPa) = 41.02178 54.62134 47.82156
# Shear Modulus (GPa) = 7.24952 16.64885 11.94919
#
# Velocity S-wave (km/s) = 2.15855 3.27114 2.77126
# Velocity P-wave (km/s) = 5.70768 7.02658 6.40119
#
# Compressibility (1/GPa) = 0.02437729
#
# Stress axis : x y z
#
# Youngs Moduli (GPa) = 27.64616 27.64802 94.49876
#
# Poissons Ratio (x) = 0.48633 0.55198
# Poissons Ratio (y) = 0.48630 0.55199
# Poissons Ratio (z) = 0.16149 0.16150
#
# Static dielectric constant tensor:
#      x y z
#    x 2.667620 0.000000 0.000000 
#    y 0.000000 2.667620 0.000000 
#    z 0.000000 0.000000 3.620430 
# 
# 
# High freq. dielectric constant tensor:
#      x y z
#    x 1.559970 0.000000 0.000000 
#    y 0.000000 1.559970 0.000000 
#    z 0.000000 0.000000 1.619040 
# 
# From -- ./inp_files/4851.got.cif
#   From: 2010.03.12/outbox.cif.g09.slc.cpg/sg141_3_cif.got.tgz:4851.got - 2010.04.03 13:18:35.
