data_PCOD8320244
_publ_section_title
;
Structure prediction by ZEFSAII (Michael W. Deem and Ramdas Pophale) SiO2 
 PCOD8320244
Probable space group: I 4/M C M
;
_chemical_formula_sum "Si O2"
_cell_formula_units_Z 160
_cell_length_a 21.200136
_cell_length_b 21.200136
_cell_length_c 18.898920
_cell_angle_alpha 90.000000
_cell_angle_beta 90.000000
_cell_angle_gamma 90.000000
_cell_volume 8494.039584
_symmetry_space_group_name_H-M "I 4/M C M"
_symmetry_group_IT_number 140
_symmetry_cell_setting 'tetragonal'
loop_
_space_group_symop_operation_xyz
x,y,z
-y,x,z
-x,-y,z
y,-x,z
x,-y,1/2-z
-x,y,1/2-z
y,x,1/2-z
-y,-x,1/2-z
-x,-y,-z
y,-x,-z
x,y,-z
-y,x,-z
-x,y,1/2+z
x,-y,1/2+z
-y,-x,1/2+z
y,x,1/2+z
1/2+x,1/2+y,1/2+z
1/2-y,1/2+x,1/2+z
1/2-x,1/2-y,1/2+z
1/2+y,1/2-x,1/2+z
1/2+x,1/2-y,-z
1/2-x,1/2+y,-z
1/2+y,1/2+x,-z
1/2-y,1/2-x,-z
1/2-x,1/2-y,1/2-z
1/2+y,1/2-x,1/2-z
1/2+x,1/2+y,1/2-z
1/2-y,1/2+x,1/2-z
1/2-x,1/2+y,z
1/2+x,1/2-y,z
1/2-y,1/2-x,z
1/2+y,1/2+x,z
loop_
_atom_site_type_symbol
_atom_site_label
_atom_site_fract_x
_atom_site_fract_y
_atom_site_fract_z
Si Si1 0.852985 0.252605 0.686753
Si Si2 0.294610 0.373244 0.336063
Si Si3 0.577966 0.440303 0.833013
Si Si4 0.670801 0.067986 0.081916
Si Si5 0.924433 0.324345 0.916582
O O1 0.813594 0.313594 0.711814
O O2 0.889415 0.223274 0.754352
O O3 0.803507 0.201938 0.654935
O O4 0.903264 0.271927 0.627256
O O5 0.361000 0.403116 0.359148
O O6 0.241291 0.399693 0.386603
O O7 0.587157 0.511732 0.862246
O O8 0.567934 0.432067 0.750000
O O9 0.605719 0.105719 0.095254
O O10 0.660956 0.996042 0.106690
O O11 0.690838 0.072074 0.000000
O O12 0.881412 0.381412 0.887297
O O13 0.919194 0.319533 0.000000
#
# Coordination Sequence:
#
# PCOD8320244 Si02
#       5
#    32  32  32  32  32
#     4  10  20  34  52  82 112 140 180 221 268 324
#     4  11  20  33  57  80 110 142 177 223 272 322
#     4   9  18  31  48  76 108 136 172 217 260 311
#     4   9  20  38  58  80 108 144 184 224 268 326
#     4  10  22  38  56  81 111 143 182 228 279 329
#
# _framework density 18.836738
#
# number of rings (size 3 to 8) (size 9 to 14) (size 15 to 20)
#    0.000    2.200    2.000    3.000    2.800    2.000 
#    0.000    4.000    0.000    0.000    0.000    4.200 
#    0.000    0.000    0.000    0.000    0.000    0.000 
#
# Total GULP energy -991589.680090 kJ/mol
# GULP energy per Si atom -12394.871001 kJ/mol
# Density = 1.879386 g / cm^3
# Si number density = 18.836738 Si / 1000 Ang^3
#
#
#
# Elastic Constant Matrix: (Units=GPa)
#
#
# Indices 1 2 3 4 5 6 
#
# 1 115.9462 48.1431 30.7767 0.0000 0.0000 0.0000
# 2 48.1431 115.9460 30.7769 0.0000 0.0000 0.0000
# 3 30.7767 30.7769 24.4322 0.0000 0.0000 0.0000
# 4 0.0000 0.0000 0.0000 27.1145 0.0000 0.0000
# 5 0.0000 0.0000 0.0000 0.0000 27.1145 0.0000
# 6 0.0000 0.0000 0.0000 0.0000 0.0000 32.4209
#
#
#
# Elastic Compliance Matrix: (Units=1/GPa)
#
#
# Indices 1 2 3 4 5 6 
#
# 1 0.013151 -0.001597 -0.014554 0.000000 0.000000 0.000000
# 2 -0.001597 0.013151 -0.014554 0.000000 0.000000 0.000000
# 3 -0.014554 -0.014554 0.077596 0.000000 0.000000 0.000000
# 4 0.000000 0.000000 0.000000 0.036881 0.000000 0.000000
# 5 0.000000 0.000000 0.000000 0.000000 0.036881 0.000000
# 6 0.000000 0.000000 0.000000 0.000000 0.000000 0.030844
#
#
# Mechanical properties :
#
#
# Convention : Reuss Voigt Hill
#
# Bulk Modulus (GPa) = 23.53621 52.85751 38.19686
# Shear Modulus (GPa) = 17.60079 27.10517 22.35298
#
# Velocity S-wave (km/s) = 3.06009 3.79747 3.44854
# Velocity P-wave (km/s) = 5.00075 6.88109 6.01486
#
# Compressibility (1/GPa) = 0.04248772
#
# Stress axis : x y z
#
# Youngs Moduli (GPa) = 76.03899 76.03827 12.88719
#
# Poissons Ratio (x) = 0.12146 0.18756
# Poissons Ratio (y) = 0.12146 0.18756
# Poissons Ratio (z) = 1.10667 1.10668
#
# Static dielectric constant tensor:
#      x y z
#    x 3.683600 0.000000 0.000000 
#    y 0.000000 3.683610 0.000000 
#    z 0.000000 0.000000 3.141310 
# 
# 
# High freq. dielectric constant tensor:
#      x y z
#    x 1.739830 0.000000 0.000000 
#    y 0.000000 1.739830 0.000000 
#    z 0.000000 0.000000 1.694890 
# 
# From -- ./inp_files/6799.got.cif
#   From: 2010.06.25/outbox.cif.g09.slc.cpg/sg140_4_cif.got.tgz:6799.got - 2010.06.28 10:53:23.
