data_PCOD8320778
_publ_section_title
;
Structure prediction by ZEFSAII (Michael W. Deem and Ramdas Pophale) SiO2 
 PCOD8320778
Probable space group: I 41/A M D
;
_chemical_formula_sum "Si O2"
_cell_formula_units_Z 112
_cell_length_a 23.554002
_cell_length_b 23.554002
_cell_length_c 11.060511
_cell_angle_alpha 90.000000
_cell_angle_beta 90.000000
_cell_angle_gamma 90.000000
_cell_volume 6136.272071
_symmetry_space_group_name_H-M "I 41/A M D"
_symmetry_group_IT_number 141
_space_group.IT_coordinate_system_code '2'
_symmetry_cell_setting 'tetragonal'
loop_
_space_group_symop_operation_xyz
x,y,z
1/4-y,3/4+x,1/4+z
-x,1/2-y,z
1/4+y,1/4-x,3/4+z
x,-y,-z
-x,1/2+y,-z
1/4+y,3/4+x,1/4-z
1/4-y,1/4-x,3/4-z
-x,-y,-z
3/4+y,1/4-x,3/4-z
x,1/2+y,-z
3/4-y,3/4+x,1/4-z
-x,y,z
x,1/2-y,z
3/4-y,1/4-x,3/4+z
3/4+y,3/4+x,1/4+z
1/2+x,1/2+y,1/2+z
3/4-y,1/4+x,3/4+z
1/2-x,-y,1/2+z
3/4+y,3/4-x,1/4+z
1/2+x,1/2-y,1/2-z
1/2-x,y,1/2-z
3/4+y,1/4+x,3/4-z
3/4-y,3/4-x,1/4-z
1/2-x,1/2-y,1/2-z
1/4+y,3/4-x,1/4-z
1/2+x,y,1/2-z
1/4-y,1/4+x,3/4-z
1/2-x,1/2+y,1/2+z
1/2+x,-y,1/2+z
1/4-y,3/4-x,1/4+z
1/4+y,1/4+x,3/4+z
loop_
_atom_site_type_symbol
_atom_site_label
_atom_site_fract_x
_atom_site_fract_y
_atom_site_fract_z
Si Si1 0.500000 0.625979 0.572054
Si Si2 0.000000 0.935199 0.166247
Si Si3 0.810759 0.637481 0.702681
Si Si4 0.562558 0.134964 0.842491
Si Si5 0.302264 0.750000 0.955057
O O1 0.500000 0.573146 0.478311
O O2 0.444570 0.663185 0.547903
O O3 0.500000 0.607861 0.712031
O O4 0.055984 0.905408 0.224621
O O5 0.000000 0.000796 0.200443
O O6 0.836468 0.586468 0.625000
O O7 0.750000 0.616290 0.750000
O O8 0.854756 0.646946 0.811343
O O9 0.800866 0.695025 0.628625
O O10 0.500000 0.144670 0.901875
#
# Coordination Sequence:
#
# PCOD8320778 Si02
#       5
#    16  16  32  32  16
#     4  12  22  35  56  94 120 162 193 238 302 350
#     4  10  22  38  56  82 126 165 196 233 287 380
#     4  12  22  41  67  86 117 157 202 254 307 354
#     4  10  21  36  60  87 124 158 189 239 299 366
#     4  12  21  37  64  90 114 154 207 245 299 356
#
# _framework density 18.252123999999998
#
# number of rings (size 3 to 8) (size 9 to 14) (size 15 to 20)
#    0.857    0.000    7.143    2.143    0.000    0.000 
#    2.571    0.000    6.286    0.000    0.000    0.000 
#    0.000    0.000    0.000    0.000    0.000    0.000 
#
# Total GULP energy -694278.150762 kJ/mol
# GULP energy per Si atom -12397.824121 kJ/mol
# Density = 1.821058 g / cm^3
# Si number density = 18.252124 Si / 1000 Ang^3
#
#
#
# Elastic Constant Matrix: (Units=GPa)
#
#
# Indices 1 2 3 4 5 6 
#
# 1 91.3236 30.1192 24.0047 0.0000 0.0000 0.0000
# 2 30.1192 91.3236 24.0047 0.0000 0.0000 0.0000
# 3 24.0047 24.0047 79.8142 0.0000 0.0000 0.0000
# 4 0.0000 0.0000 0.0000 28.6131 0.0000 0.0000
# 5 0.0000 0.0000 0.0000 0.0000 28.6131 0.0000
# 6 0.0000 0.0000 0.0000 0.0000 0.0000 -12.4333
#
#
#
# Elastic Compliance Matrix: (Units=1/GPa)
#
#
# Indices 1 2 3 4 5 6 
#
# 1 0.012842 -0.003497 -0.002811 0.000000 0.000000 0.000000
# 2 -0.003497 0.012842 -0.002811 0.000000 0.000000 0.000000
# 3 -0.002811 -0.002811 0.014220 0.000000 0.000000 0.000000
# 4 0.000000 0.000000 0.000000 0.034949 0.000000 0.000000
# 5 0.000000 0.000000 0.000000 0.000000 0.034949 0.000000
# 6 0.000000 0.000000 0.000000 0.000000 0.000000 -0.080429
#
#
# Mechanical properties :
#
#
# Convention : Reuss Voigt Hill
#
# Bulk Modulus (GPa) = 46.15130 46.52430 46.33780
# Shear Modulus (GPa) = 91.18898 21.24746 56.21822
#
# Velocity S-wave (km/s) = 7.07596 3.41561 5.55588
# Velocity P-wave (km/s) = 9.59684 6.41095 8.16087
#
# Compressibility (1/GPa) = 0.02166786
#
# Stress axis : x y z
#
# Youngs Moduli (GPa) = 77.86902 77.86902 70.32450
#
# Poissons Ratio (x) = 0.27228 0.19766
# Poissons Ratio (y) = 0.27228 0.19766
# Poissons Ratio (z) = 0.21887 0.21887
#
# Static dielectric constant tensor:
#      x y z
#    x 3.221070 0.000000 0.000000 
#    y 0.000000 3.221070 0.000000 
#    z 0.000000 0.000000 3.280070 
# 
# 
# High freq. dielectric constant tensor:
#      x y z
#    x 1.698930 0.000000 0.000000 
#    y 0.000000 1.698930 0.000000 
#    z 0.000000 0.000000 1.711610 
# 
# From -- ./inp_files/4493.got.cif
#   From: 2010.03.12/outbox.cif.g09.slc.cpg/sg141_3_cif.got.tgz:4493.got - 2010.04.03 13:18:35.
