data_PCOD8320845
_publ_section_title
;
Structure prediction by ZEFSAII (Michael W. Deem and Ramdas Pophale) SiO2 
 PCOD8320845
Probable space group: I 41/A M D
;
_chemical_formula_sum "Si O2"
_cell_formula_units_Z 84
_cell_length_a 15.393196
_cell_length_b 15.393196
_cell_length_c 17.687273
_cell_angle_alpha 90.000000
_cell_angle_beta 90.000000
_cell_angle_gamma 90.000000
_cell_volume 4191.007882
_symmetry_space_group_name_H-M "I 41/A M D"
_symmetry_group_IT_number 141
_space_group.IT_coordinate_system_code '2'
_symmetry_cell_setting 'tetragonal'
loop_
_space_group_symop_operation_xyz
x,y,z
1/4-y,3/4+x,1/4+z
-x,1/2-y,z
1/4+y,1/4-x,3/4+z
x,-y,-z
-x,1/2+y,-z
1/4+y,3/4+x,1/4-z
1/4-y,1/4-x,3/4-z
-x,-y,-z
3/4+y,1/4-x,3/4-z
x,1/2+y,-z
3/4-y,3/4+x,1/4-z
-x,y,z
x,1/2-y,z
3/4-y,1/4-x,3/4+z
3/4+y,3/4+x,1/4+z
1/2+x,1/2+y,1/2+z
3/4-y,1/4+x,3/4+z
1/2-x,-y,1/2+z
3/4+y,3/4-x,1/4+z
1/2+x,1/2-y,1/2-z
1/2-x,y,1/2-z
3/4+y,1/4+x,3/4-z
3/4-y,3/4-x,1/4-z
1/2-x,1/2-y,1/2-z
1/4+y,3/4-x,1/4-z
1/2+x,y,1/2-z
1/4-y,1/4+x,3/4-z
1/2-x,1/2+y,1/2+z
1/2+x,-y,1/2+z
1/4-y,3/4-x,1/4+z
1/4+y,1/4+x,3/4+z
loop_
_atom_site_type_symbol
_atom_site_label
_atom_site_fract_x
_atom_site_fract_y
_atom_site_fract_z
Si Si1 0.647834 0.577966 0.113414
Si Si2 0.000000 0.153469 0.210011
Si Si3 0.000000 0.750000 0.625000
Si Si4 0.250000 0.470989 0.750000
Si Si5 0.500000 0.060152 0.133642
O O1 0.600555 0.667364 0.094664
O O2 0.689851 0.588599 0.196565
O O3 0.721062 0.562683 0.051299
O O4 0.584395 0.495025 0.111907
O O5 0.000000 0.083063 0.276647
O O6 0.000000 0.250000 0.249107
O O7 0.098649 0.750000 0.663436
#
# Coordination Sequence:
#
# PCOD8320845 Si02
#       5
#    32  16   4  16  16
#     4  11  23  40  65  91 131 169 222 271 330 394
#     4  12  24  41  62  97 135 173 215 269 327 398
#     4  12  24  36  60  92 136 172 216 262 336 392
#     4  10  22  40  62  94 120 170 220 271 330 393
#     4  12  24  39  60  99 132 170 217 272 333 405
#
# _framework density 20.042911
#
# number of rings (size 3 to 8) (size 9 to 14) (size 15 to 20)
#    0.000    0.762    6.667    2.286    0.000    1.524 
#    0.000    0.000    0.000    0.000    0.000    0.000 
#    0.000    0.000    0.000    0.000    0.000    0.000 
#
# Total GULP energy -520528.030972 kJ/mol
# GULP energy per Si atom -12393.524547 kJ/mol
# Density = 1.999729 g / cm^3
# Si number density = 20.042911 Si / 1000 Ang^3
#
#
#
# Elastic Constant Matrix: (Units=GPa)
#
#
# Indices 1 2 3 4 5 6 
#
# 1 125.3298 47.4783 49.8348 0.0000 0.0000 0.0000
# 2 47.4783 125.3298 49.8348 0.0000 0.0000 0.0000
# 3 49.8348 49.8348 129.2120 0.0000 0.0000 0.0000
# 4 0.0000 0.0000 0.0000 28.0659 0.0000 0.0000
# 5 0.0000 0.0000 0.0000 0.0000 28.0659 0.0000
# 6 0.0000 0.0000 0.0000 0.0000 0.0000 31.2674
#
#
#
# Elastic Compliance Matrix: (Units=1/GPa)
#
#
# Indices 1 2 3 4 5 6 
#
# 1 0.010144 -0.002701 -0.002870 0.000000 0.000000 0.000000
# 2 -0.002701 0.010144 -0.002870 0.000000 0.000000 0.000000
# 3 -0.002870 -0.002870 0.009953 0.000000 0.000000 0.000000
# 4 0.000000 0.000000 0.000000 0.035630 0.000000 0.000000
# 5 0.000000 0.000000 0.000000 0.000000 0.035630 0.000000
# 6 0.000000 0.000000 0.000000 0.000000 0.000000 0.031982
#
#
# Mechanical properties :
#
#
# Convention : Reuss Voigt Hill
#
# Bulk Modulus (GPa) = 74.87018 74.90748 74.88883
# Shear Modulus (GPa) = 32.29556 32.99473 32.64515
#
# Velocity S-wave (km/s) = 4.01848 4.06175 4.04017
# Velocity P-wave (km/s) = 7.67899 7.71049 7.69476
#
# Compressibility (1/GPa) = 0.01335645
#
# Stress axis : x y z
#
# Youngs Moduli (GPa) = 98.58403 98.58403 100.46903
#
# Poissons Ratio (x) = 0.26631 0.28838
# Poissons Ratio (y) = 0.26631 0.28838
# Poissons Ratio (z) = 0.28297 0.28297
#
# Static dielectric constant tensor:
#      x y z
#    x 3.707810 0.000000 0.000000 
#    y 0.000000 3.707810 0.000000 
#    z 0.000000 0.000000 3.837490 
# 
# 
# High freq. dielectric constant tensor:
#      x y z
#    x 1.781060 0.000000 0.000000 
#    y 0.000000 1.781060 0.000000 
#    z 0.000000 0.000000 1.788610 
# 
# From -- ./inp_files/9676.got.cif
#   From: 2010.03.12/outbox.cif.g09.slc.cpg/sg141_5_cif.got.tgz:9676.got - 2010.04.03 13:18:35.
