data_PCOD8320611
_publ_section_title
;
Structure prediction by ZEFSAII (Michael W. Deem and Ramdas Pophale) SiO2 
 PCOD8320611
Probable space group: I 41/A M D
;
_chemical_formula_sum "Si O2"
_cell_formula_units_Z 192
_cell_length_a 29.312050
_cell_length_b 29.312050
_cell_length_c 14.002845
_cell_angle_alpha 90.000000
_cell_angle_beta 90.000000
_cell_angle_gamma 90.000000
_cell_volume 12031.192266
_symmetry_space_group_name_H-M "I 41/A M D"
_symmetry_group_IT_number 141
_space_group.IT_coordinate_system_code '2'
_symmetry_cell_setting 'tetragonal'
loop_
_space_group_symop_operation_xyz
x,y,z
1/4-y,3/4+x,1/4+z
-x,1/2-y,z
1/4+y,1/4-x,3/4+z
x,-y,-z
-x,1/2+y,-z
1/4+y,3/4+x,1/4-z
1/4-y,1/4-x,3/4-z
-x,-y,-z
3/4+y,1/4-x,3/4-z
x,1/2+y,-z
3/4-y,3/4+x,1/4-z
-x,y,z
x,1/2-y,z
3/4-y,1/4-x,3/4+z
3/4+y,3/4+x,1/4+z
1/2+x,1/2+y,1/2+z
3/4-y,1/4+x,3/4+z
1/2-x,-y,1/2+z
3/4+y,3/4-x,1/4+z
1/2+x,1/2-y,1/2-z
1/2-x,y,1/2-z
3/4+y,1/4+x,3/4-z
3/4-y,3/4-x,1/4-z
1/2-x,1/2-y,1/2-z
1/4+y,3/4-x,1/4-z
1/2+x,y,1/2-z
1/4-y,1/4+x,3/4-z
1/2-x,1/2+y,1/2+z
1/2+x,-y,1/2+z
1/4-y,3/4-x,1/4+z
1/4+y,1/4+x,3/4+z
loop_
_atom_site_type_symbol
_atom_site_label
_atom_site_fract_x
_atom_site_fract_y
_atom_site_fract_z
Si Si1 0.090021 0.447978 0.500357
Si Si2 0.253773 0.549115 0.460672
Si Si3 0.551215 0.445236 0.205752
Si Si4 0.549744 0.051213 0.799407
Si Si5 0.363539 0.081016 0.323642
Si Si6 0.357640 0.915639 0.266492
O O1 0.108492 0.500000 0.500000
O O2 0.064943 0.434645 0.402978
O O3 0.054860 0.441823 0.587067
O O4 0.131979 0.414112 0.513517
O O5 0.235813 0.500000 0.500000
O O6 0.286816 0.536816 0.375000
O O7 0.214396 0.583541 0.433821
O O8 0.289210 0.579776 0.522482
O O9 0.500000 0.426043 0.223400
O O10 0.552598 0.498482 0.227015
O O11 0.586371 0.422103 0.278796
O O12 0.500000 0.070689 0.770381
O O13 0.588217 0.076888 0.739114
O O14 0.371350 0.093586 0.435726
O O15 0.348902 0.901099 0.375000
#
# Coordination Sequence:
#
# PCOD8320611 Si02
#       6
#    32  32  32  32  32  32
#     4   9  18  30  48  74 100 129 161 205 251 299
#     4  11  20  30  44  65  96 137 169 200 241 283
#     4  10  19  32  48  69 100 133 166 208 254 296
#     4   9  17  32  50  68  93 130 173 207 246 298
#     4  11  20  32  48  71  98 130 175 208 242 298
#     4  10  21  34  47  67  96 132 171 207 250 292
#
# _framework density 15.958518
#
# number of rings (size 3 to 8) (size 9 to 14) (size 15 to 20)
#    0.000    2.000    3.333    1.500    0.000    3.333 
#    0.000    0.833    0.000    2.000    0.000    0.000 
#    0.000   43.000    0.000    0.000    0.000    0.000 
#
# Total GULP energy -1189288.985403 kJ/mol
# GULP energy per Si atom -12388.426931 kJ/mol
# Density = 1.592220 g / cm^3
# Si number density = 15.958518 Si / 1000 Ang^3
#
#
#
# Elastic Constant Matrix: (Units=GPa)
#
#
# Indices 1 2 3 4 5 6 
#
# 1 101.3592 44.6832 46.3818 0.0000 0.0000 0.0000
# 2 44.6832 101.3590 46.3816 0.0000 0.0000 0.0000
# 3 46.3818 46.3816 101.2850 0.0000 0.0000 0.0000
# 4 0.0000 0.0000 0.0000 18.3372 0.0000 0.0000
# 5 0.0000 0.0000 0.0000 0.0000 18.3375 0.0000
# 6 0.0000 0.0000 0.0000 0.0000 0.0000 10.6964
#
#
#
# Elastic Compliance Matrix: (Units=1/GPa)
#
#
# Indices 1 2 3 4 5 6 
#
# 1 0.013650 -0.003994 -0.004422 0.000000 0.000000 0.000000
# 2 -0.003994 0.013650 -0.004422 0.000000 0.000000 0.000000
# 3 -0.004422 -0.004422 0.013923 0.000000 0.000000 0.000000
# 4 0.000000 0.000000 0.000000 0.054534 0.000000 0.000000
# 5 0.000000 0.000000 0.000000 0.000000 0.054533 0.000000
# 6 0.000000 0.000000 0.000000 0.000000 0.000000 0.093489
#
#
# Mechanical properties :
#
#
# Convention : Reuss Voigt Hill
#
# Bulk Modulus (GPa) = 64.31822 64.32182 64.32002
# Shear Modulus (GPa) = 18.20582 20.57799 19.39190
#
# Velocity S-wave (km/s) = 3.38127 3.59481 3.48967
# Velocity P-wave (km/s) = 7.45888 7.59100 7.52523
#
# Compressibility (1/GPa) = 0.01554769
#
# Stress axis : x y z
#
# Youngs Moduli (GPa) = 73.25966 73.25968 71.82423
#
# Poissons Ratio (x) = 0.29261 0.31759
# Poissons Ratio (y) = 0.29261 0.31759
# Poissons Ratio (z) = 0.32394 0.32394
#
# Static dielectric constant tensor:
#      x y z
#    x 2.943040 0.000000 0.000000 
#    y 0.000000 2.943050 0.000000 
#    z 0.000000 0.000000 3.045920 
# 
# 
# High freq. dielectric constant tensor:
#      x y z
#    x 1.593120 0.000000 0.000000 
#    y 0.000000 1.593120 0.000000 
#    z 0.000000 0.000000 1.614000 
# 
# From -- ./inp_files/6951.got.cif
#   From: 2010.03.12/outbox.cif.g09.slc.cpg/sg141_4_cif.got.tgz:6951.got - 2010.04.03 13:18:35.
