data_PCOD8320018
_publ_section_title
;
Structure prediction by ZEFSAII (Michael W. Deem and Ramdas Pophale) SiO2 
 PCOD8320018
Probable space group: I 4/M M M
;
_chemical_formula_sum "Si O2"
_cell_formula_units_Z 208
_cell_length_a 22.529954
_cell_length_b 22.529954
_cell_length_c 28.909808
_cell_angle_alpha 90.000000
_cell_angle_beta 90.000000
_cell_angle_gamma 90.000000
_cell_volume 14674.584637
_symmetry_space_group_name_H-M "I 4/M M M"
_symmetry_group_IT_number 139
_symmetry_cell_setting 'tetragonal'
loop_
_space_group_symop_operation_xyz
x,y,z
-y,x,z
-x,-y,z
y,-x,z
x,-y,-z
-x,y,-z
y,x,-z
-y,-x,-z
-x,-y,-z
y,-x,-z
x,y,-z
-y,x,-z
-x,y,z
x,-y,z
-y,-x,z
y,x,z
1/2+x,1/2+y,1/2+z
1/2-y,1/2+x,1/2+z
1/2-x,1/2-y,1/2+z
1/2+y,1/2-x,1/2+z
1/2+x,1/2-y,1/2-z
1/2-x,1/2+y,1/2-z
1/2+y,1/2+x,1/2-z
1/2-y,1/2-x,1/2-z
1/2-x,1/2-y,1/2-z
1/2+y,1/2-x,1/2-z
1/2+x,1/2+y,1/2-z
1/2-y,1/2+x,1/2-z
1/2-x,1/2+y,1/2+z
1/2+x,1/2-y,1/2+z
1/2-y,1/2-x,1/2+z
1/2+y,1/2+x,1/2+z
loop_
_atom_site_type_symbol
_atom_site_label
_atom_site_fract_x
_atom_site_fract_y
_atom_site_fract_z
Si Si1 0.120562 0.565570 0.909334
Si Si2 0.065752 0.249104 0.447648
Si Si3 0.332079 0.568469 0.221824
Si Si4 0.931421 0.293204 0.236726
Si Si5 0.150242 0.628512 0.822422
Si Si6 0.129638 0.776713 0.361445
Si Si7 0.431136 0.933241 0.500000
O O1 0.092574 0.500000 0.904041
O O2 0.189483 0.561124 0.920587
O O3 0.108177 0.598341 0.860997
O O4 0.089972 0.599451 0.952984
O O5 0.091335 0.254901 0.500000
O O6 0.109308 0.211740 0.414642
O O7 0.000000 0.220470 0.449802
O O8 0.353956 0.500000 0.225526
O O9 0.387075 0.612926 0.233003
O O10 0.277229 0.580439 0.256951
O O11 0.305176 0.578488 0.170766
O O12 0.886358 0.315362 0.196991
O O13 0.918279 0.331574 0.282773
O O14 0.000000 0.304536 0.223134
O O15 0.209880 0.648096 0.848548
O O16 0.190600 0.809401 0.352541
O O17 0.500000 0.937280 0.500000
O O18 0.402092 0.000000 0.500000
#
# Coordination Sequence:
#
# PCOD8320018 Si02
#       7
#    32  32  32  32  32  32  16
#     4   9  15  25  38  53  72  97 129 163 196 229
#     4   9  15  24  39  55  72  98 130 159 191 231
#     4   9  17  29  44  61  81 103 127 159 197 238
#     4   9  17  29  42  59  79 102 133 166 200 236
#     4   9  17  27  42  57  75 104 132 162 198 240
#     4   9  17  27  39  58  81 102 128 161 197 235
#     4   9  16  24  34  50  71  92 120 160 199 228
#
# _framework density 14.174166
#
# number of rings (size 3 to 8) (size 9 to 14) (size 15 to 20)
#    0.000    3.000    0.769    0.923    0.000    5.385 
#    0.000    3.077    0.000    7.385    0.000    0.000 
#    0.000    0.000    0.000   14.308    0.000    0.000 
#
# Total GULP energy -1288365.184735 kJ/mol
# GULP energy per Si atom -12388.126776 kJ/mol
# Density = 1.414191 g / cm^3
# Si number density = 14.174166 Si / 1000 Ang^3
#
#
#
# Elastic Constant Matrix: (Units=GPa)
#
#
# Indices 1 2 3 4 5 6 
#
# 1 63.6754 38.1960 35.8924 0.0000 0.0000 0.0000
# 2 38.1960 63.6754 35.8924 0.0000 0.0000 0.0000
# 3 35.8924 35.8924 98.3533 0.0000 0.0000 0.0000
# 4 0.0000 0.0000 0.0000 19.7191 0.0000 0.0000
# 5 0.0000 0.0000 0.0000 0.0000 19.7191 0.0000
# 6 0.0000 0.0000 0.0000 0.0000 0.0000 15.4064
#
#
#
# Elastic Compliance Matrix: (Units=1/GPa)
#
#
# Indices 1 2 3 4 5 6 
#
# 1 0.026231 -0.013016 -0.004822 0.000000 0.000000 0.000000
# 2 -0.013016 0.026231 -0.004822 0.000000 0.000000 0.000000
# 3 -0.004822 -0.004822 0.013687 0.000000 0.000000 0.000000
# 4 0.000000 0.000000 0.000000 0.050712 0.000000 0.000000
# 5 0.000000 0.000000 0.000000 0.000000 0.050712 0.000000
# 6 0.000000 0.000000 0.000000 0.000000 0.000000 0.064908
#
#
# Mechanical properties :
#
#
# Convention : Reuss Voigt Hill
#
# Bulk Modulus (GPa) = 48.01586 49.51843 48.76715
# Shear Modulus (GPa) = 17.55952 18.68383 18.12167
#
# Velocity S-wave (km/s) = 3.52353 3.63459 3.57949
# Velocity P-wave (km/s) = 7.10654 7.25432 7.18081
#
# Compressibility (1/GPa) = 0.02082645
#
# Stress axis : x y z
#
# Youngs Moduli (GPa) = 38.12295 38.12295 73.06127
#
# Poissons Ratio (x) = 0.49623 0.35233
# Poissons Ratio (y) = 0.49623 0.35233
# Poissons Ratio (z) = 0.18384 0.18384
#
# Static dielectric constant tensor:
#      x y z
#    x 2.654770 0.000000 0.000000 
#    y 0.000000 2.654770 0.000000 
#    z 0.000000 0.000000 2.757700 
# 
# 
# High freq. dielectric constant tensor:
#      x y z
#    x 1.518680 0.000000 0.000000 
#    y 0.000000 1.518680 0.000000 
#    z 0.000000 0.000000 1.541430 
# 
# From -- ./inp_files/14699.got.cif
#   From: 2010.03.12/outbox.cif.g09.slc.cpg/sg139_8_cif.got.tgz:14699.got - 2010.04.08 09:46:31.
