data_PCOD8320424
_publ_section_title
;
Structure prediction by ZEFSAII (Michael W. Deem and Ramdas Pophale) SiO2 
 PCOD8320424
Probable space group: I 4/M C M
;
_chemical_formula_sum "Si O2"
_cell_formula_units_Z 96
_cell_length_a 13.160897
_cell_length_b 13.160897
_cell_length_c 27.277975
_cell_angle_alpha 90.000000
_cell_angle_beta 90.000000
_cell_angle_gamma 90.000000
_cell_volume 4724.796496
_symmetry_space_group_name_H-M "I 4/M C M"
_symmetry_group_IT_number 140
_symmetry_cell_setting 'tetragonal'
loop_
_space_group_symop_operation_xyz
x,y,z
-y,x,z
-x,-y,z
y,-x,z
x,-y,1/2-z
-x,y,1/2-z
y,x,1/2-z
-y,-x,1/2-z
-x,-y,-z
y,-x,-z
x,y,-z
-y,x,-z
-x,y,1/2+z
x,-y,1/2+z
-y,-x,1/2+z
y,x,1/2+z
1/2+x,1/2+y,1/2+z
1/2-y,1/2+x,1/2+z
1/2-x,1/2-y,1/2+z
1/2+y,1/2-x,1/2+z
1/2+x,1/2-y,-z
1/2-x,1/2+y,-z
1/2+y,1/2+x,-z
1/2-y,1/2-x,-z
1/2-x,1/2-y,1/2-z
1/2+y,1/2-x,1/2-z
1/2+x,1/2+y,1/2-z
1/2-y,1/2+x,1/2-z
1/2-x,1/2+y,z
1/2+x,1/2-y,z
1/2-y,1/2-x,z
1/2+y,1/2+x,z
loop_
_atom_site_type_symbol
_atom_site_label
_atom_site_fract_x
_atom_site_fract_y
_atom_site_fract_z
Si Si1 0.574985 0.762708 0.349927
Si Si2 0.666426 0.480891 0.554280
Si Si3 0.786484 0.875691 0.795525
O O1 0.626541 0.873460 0.343550
O O2 0.529572 0.753751 0.404693
O O3 0.658761 0.674336 0.342677
O O4 0.489917 0.746750 0.308107
O O5 0.610318 0.587304 0.560896
O O6 0.716262 0.474997 0.500000
O O7 0.865816 0.865816 0.750000
O O8 0.684083 0.815918 0.781059
#
# Coordination Sequence:
#
# PCOD8320424 Si02
#       3
#    32  32  32
#     4  11  21  35  59  86 116 158 200 244 305 364
#     4   9  17  32  55  83 117 155 203 259 305 352
#     4  10  22  39  57  84 118 150 194 249 300 361
#
# _framework density 20.318335999999999
#
# number of rings (size 3 to 8) (size 9 to 14) (size 15 to 20)
#    0.000    2.000    3.333    2.000    0.000    2.000 
#    0.000    1.667    0.000    7.000    0.000    2.333 
#    0.000    0.000    0.000    0.000    0.000    0.000 
#
# Total GULP energy -594935.333467 kJ/mol
# GULP energy per Si atom -12394.486114 kJ/mol
# Density = 2.027209 g / cm^3
# Si number density = 20.318336 Si / 1000 Ang^3
#
#
#
# Elastic Constant Matrix: (Units=GPa)
#
#
# Indices 1 2 3 4 5 6 
#
# 1 86.2655 49.0761 43.8301 0.0000 0.0000 0.0000
# 2 49.0761 86.2655 43.8301 0.0000 0.0000 0.0000
# 3 43.8301 43.8301 141.7850 0.0000 0.0000 0.0000
# 4 0.0000 0.0000 0.0000 27.5928 0.0000 0.0000
# 5 0.0000 0.0000 0.0000 0.0000 27.5928 0.0000
# 6 0.0000 0.0000 0.0000 0.0000 0.0000 33.1816
#
#
#
# Elastic Compliance Matrix: (Units=1/GPa)
#
#
# Indices 1 2 3 4 5 6 
#
# 1 0.018064 -0.008825 -0.002856 0.000000 0.000000 0.000000
# 2 -0.008825 0.018064 -0.002856 0.000000 0.000000 0.000000
# 3 -0.002856 -0.002856 0.008819 0.000000 0.000000 0.000000
# 4 0.000000 0.000000 0.000000 0.036241 0.000000 0.000000
# 5 0.000000 0.000000 0.000000 0.000000 0.036241 0.000000
# 6 0.000000 0.000000 0.000000 0.000000 0.000000 0.030137
#
#
# Mechanical properties :
#
#
# Convention : Reuss Voigt Hill
#
# Bulk Modulus (GPa) = 63.00412 65.30983 64.15698
# Shear Modulus (GPa) = 27.48288 29.51209 28.49749
#
# Velocity S-wave (km/s) = 3.68178 3.81528 3.74913
# Velocity P-wave (km/s) = 7.01069 7.18482 7.09829
#
# Compressibility (1/GPa) = 0.01587198
#
# Stress axis : x y z
#
# Youngs Moduli (GPa) = 55.35896 55.35896 113.39648
#
# Poissons Ratio (x) = 0.48857 0.32385
# Poissons Ratio (y) = 0.48857 0.32385
# Poissons Ratio (z) = 0.15810 0.15810
#
# Static dielectric constant tensor:
#      x y z
#    x 3.389440 0.000000 0.000000 
#    y 0.000000 3.389440 0.000000 
#    z 0.000000 0.000000 3.788490 
# 
# 
# High freq. dielectric constant tensor:
#      x y z
#    x 1.764290 0.000000 0.000000 
#    y 0.000000 1.764290 0.000000 
#    z 0.000000 0.000000 1.811030 
# 
# From -- ./inp_files/11211.got.cif
#   From: 2010.06.25/outbox.cif.g09.slc.cpg/sg140_6_cif.got.tgz:11211.got - 2010.06.28 10:53:23.
