data_PCOD8320151
_publ_section_title
;
Structure prediction by ZEFSAII (Michael W. Deem and Ramdas Pophale) SiO2 
 PCOD8320151
Probable space group: I 4/M C M
;
_chemical_formula_sum "Si O2"
_cell_formula_units_Z 128
_cell_length_a 29.803841
_cell_length_b 29.803841
_cell_length_c 8.460270
_cell_angle_alpha 90.000000
_cell_angle_beta 90.000000
_cell_angle_gamma 90.000000
_cell_volume 7514.995051
_symmetry_space_group_name_H-M "I 4/M C M"
_symmetry_group_IT_number 140
_symmetry_cell_setting 'tetragonal'
loop_
_space_group_symop_operation_xyz
x,y,z
-y,x,z
-x,-y,z
y,-x,z
x,-y,1/2-z
-x,y,1/2-z
y,x,1/2-z
-y,-x,1/2-z
-x,-y,-z
y,-x,-z
x,y,-z
-y,x,-z
-x,y,1/2+z
x,-y,1/2+z
-y,-x,1/2+z
y,x,1/2+z
1/2+x,1/2+y,1/2+z
1/2-y,1/2+x,1/2+z
1/2-x,1/2-y,1/2+z
1/2+y,1/2-x,1/2+z
1/2+x,1/2-y,-z
1/2-x,1/2+y,-z
1/2+y,1/2+x,-z
1/2-y,1/2-x,-z
1/2-x,1/2-y,1/2-z
1/2+y,1/2-x,1/2-z
1/2+x,1/2+y,1/2-z
1/2-y,1/2+x,1/2-z
1/2-x,1/2+y,z
1/2+x,1/2-y,z
1/2-y,1/2-x,z
1/2+y,1/2+x,z
loop_
_atom_site_type_symbol
_atom_site_label
_atom_site_fract_x
_atom_site_fract_y
_atom_site_fract_z
Si Si1 0.624724 0.875277 0.177915
Si Si2 0.456214 0.826726 0.816385
Si Si3 0.199398 0.300603 0.324781
Si Si4 0.770185 0.046900 0.682266
Si Si5 0.285463 0.353316 0.311008
O O1 0.584430 0.858890 0.284069
O O2 0.662040 0.837961 0.166905
O O3 0.610467 0.889533 0.000000
O O4 0.500000 0.852418 0.750000
O O5 0.452356 0.782640 0.709443
O O6 0.459486 0.813729 0.000000
O O7 0.214229 0.285772 0.500000
O O8 0.243380 0.323311 0.241612
O O9 0.782060 0.046037 0.500000
O O10 0.787053 0.094994 0.753656
O O11 0.791344 0.000000 0.750000
O O12 0.331186 0.331186 0.250000
O O13 0.281897 0.354198 0.500000
#
# Coordination Sequence:
#
# PCOD8320151 Si02
#       5
#    16  32  16  32  32
#     4  11  19  34  54  71  98 128 161 208 252 293
#     4  11  21  33  50  74  97 124 163 205 252 302
#     4   9  17  32  48  66  98 136 166 199 244 284
#     4  10  19  33  51  71  97 130 166 208 253 291
#     4  10  20  33  49  70  99 137 171 204 247 292
#
# _framework density 17.032612
#
# number of rings (size 3 to 8) (size 9 to 14) (size 15 to 20)
#    0.000    1.750    2.500    5.250    0.000    2.000 
#    0.000    0.000    0.000    0.375    0.000    2.625 
#    0.000    0.500    0.000    5.500    0.000    4.000 
#
# Total GULP energy -792837.161597 kJ/mol
# GULP energy per Si atom -12388.080650 kJ/mol
# Density = 1.699384 g / cm^3
# Si number density = 17.032612 Si / 1000 Ang^3
#
#
#
# Elastic Constant Matrix: (Units=GPa)
#
#
# Indices 1 2 3 4 5 6 
#
# 1 113.3867 42.3453 14.5450 0.0000 0.0000 0.0000
# 2 42.3453 113.3860 14.5449 0.0000 0.0000 0.0000
# 3 14.5450 14.5449 39.2554 0.0000 0.0000 0.0000
# 4 0.0000 0.0000 0.0000 35.7002 0.0000 0.0000
# 5 0.0000 0.0000 0.0000 0.0000 35.6884 0.0000
# 6 0.0000 0.0000 0.0000 0.0000 0.0000 19.8412
#
#
#
# Elastic Compliance Matrix: (Units=1/GPa)
#
#
# Indices 1 2 3 4 5 6 
#
# 1 0.010488 -0.003589 -0.002556 0.000000 0.000000 0.000000
# 2 -0.003589 0.010488 -0.002556 0.000000 0.000000 0.000000
# 3 -0.002556 -0.002556 0.027368 0.000000 0.000000 0.000000
# 4 0.000000 0.000000 0.000000 0.028011 0.000000 0.000000
# 5 0.000000 0.000000 0.000000 0.000000 0.028020 0.000000
# 6 0.000000 0.000000 0.000000 0.000000 0.000000 0.050400
#
#
# Mechanical properties :
#
#
# Convention : Reuss Voigt Hill
#
# Bulk Modulus (GPa) = 32.31917 45.43316 38.87616
# Shear Modulus (GPa) = 27.39862 31.21883 29.30872
#
# Velocity S-wave (km/s) = 4.01508 4.28587 4.15268
# Velocity P-wave (km/s) = 6.36479 7.15707 6.77253
#
# Compressibility (1/GPa) = 0.03094139
#
# Stress axis : x y z
#
# Youngs Moduli (GPa) = 95.35127 95.35066 36.53851
#
# Poissons Ratio (x) = 0.34219 0.09340
# Poissons Ratio (y) = 0.34220 0.09340
# Poissons Ratio (z) = 0.24373 0.24373
#
# Static dielectric constant tensor:
#      x y z
#    x 3.367100 0.000000 0.000000 
#    y 0.000000 3.367100 0.000000 
#    z 0.000000 0.000000 3.094120 
# 
# 
# High freq. dielectric constant tensor:
#      x y z
#    x 1.640180 0.000000 0.000000 
#    y 0.000000 1.640180 0.000000 
#    z 0.000000 0.000000 1.651380 
# 
# From -- ./inp_files/1490.got.cif
#   From: 2010.06.25/outbox.cif.g09.slc.cpg/sg140_1_cif.got.tgz:1490.got - 2010.06.28 10:53:23.
