data_PCOD8320713
_publ_section_title
;
Structure prediction by ZEFSAII (Michael W. Deem and Ramdas Pophale) SiO2 
 PCOD8320713
Probable space group: I 41/A M D
;
_chemical_formula_sum "Si O2"
_cell_formula_units_Z 128
_cell_length_a 24.680253
_cell_length_b 24.680253
_cell_length_c 9.634270
_cell_angle_alpha 90.000000
_cell_angle_beta 90.000000
_cell_angle_gamma 90.000000
_cell_volume 5868.377293
_symmetry_space_group_name_H-M "I 41/A M D"
_symmetry_group_IT_number 141
_space_group.IT_coordinate_system_code '2'
_symmetry_cell_setting 'tetragonal'
loop_
_space_group_symop_operation_xyz
x,y,z
1/4-y,3/4+x,1/4+z
-x,1/2-y,z
1/4+y,1/4-x,3/4+z
x,-y,-z
-x,1/2+y,-z
1/4+y,3/4+x,1/4-z
1/4-y,1/4-x,3/4-z
-x,-y,-z
3/4+y,1/4-x,3/4-z
x,1/2+y,-z
3/4-y,3/4+x,1/4-z
-x,y,z
x,1/2-y,z
3/4-y,1/4-x,3/4+z
3/4+y,3/4+x,1/4+z
1/2+x,1/2+y,1/2+z
3/4-y,1/4+x,3/4+z
1/2-x,-y,1/2+z
3/4+y,3/4-x,1/4+z
1/2+x,1/2-y,1/2-z
1/2-x,y,1/2-z
3/4+y,1/4+x,3/4-z
3/4-y,3/4-x,1/4-z
1/2-x,1/2-y,1/2-z
1/4+y,3/4-x,1/4-z
1/2+x,y,1/2-z
1/4-y,1/4+x,3/4-z
1/2-x,1/2+y,1/2+z
1/2+x,-y,1/2+z
1/4-y,3/4-x,1/4+z
1/4+y,1/4+x,3/4+z
loop_
_atom_site_type_symbol
_atom_site_label
_atom_site_fract_x
_atom_site_fract_y
_atom_site_fract_z
Si Si1 0.940311 0.116496 0.575696
Si Si2 0.119695 0.544718 0.616984
Si Si3 0.126418 0.686201 0.241563
Si Si4 0.222962 0.690016 0.063381
O O1 0.924599 0.089387 0.429444
O O2 0.892773 0.159628 0.613331
O O3 0.942994 0.071224 0.693187
O O4 0.000000 0.143671 0.561011
O O5 0.123735 0.500000 0.500000
O O6 0.178932 0.571069 0.625000
O O7 0.101680 0.519915 0.766387
O O8 0.119232 0.750000 0.249433
O O9 0.085772 0.664229 0.125000
O O10 0.189955 0.671819 0.203539
O O11 0.248545 0.750000 0.084851
#
# Coordination Sequence:
#
# PCOD8320713 Si02
#       4
#    32  32  32  32
#     4   9  17  30  51  77 104 137 174 214 267 331
#     4  10  20  36  54  73  98 134 183 232 279 331
#     4   9  16  27  47  78 111 141 173 212 267 330
#     4   8  15  30  53  76  98 131 177 222 261 313
#
# _framework density 21.811821999999999
#
# number of rings (size 3 to 8) (size 9 to 14) (size 15 to 20)
#    0.000    3.000    0.000    3.000    0.000    4.750 
#    0.000   10.000    0.000    3.000    0.000    0.000 
#    0.000    0.000    0.000    0.000    0.000    0.000 
#
# Total GULP energy -793033.825961 kJ/mol
# GULP energy per Si atom -12391.153531 kJ/mol
# Density = 2.176218 g / cm^3
# Si number density = 21.811822 Si / 1000 Ang^3
#
#
#
# Elastic Constant Matrix: (Units=GPa)
#
#
# Indices 1 2 3 4 5 6 
#
# 1 110.4711 88.7826 42.1393 0.0000 0.0000 0.0000
# 2 88.7826 110.4769 42.1402 0.0000 0.0000 0.0000
# 3 42.1393 42.1402 66.7639 0.0000 0.0000 0.0000
# 4 0.0000 0.0000 0.0000 21.2499 0.0000 0.0000
# 5 0.0000 0.0000 0.0000 0.0000 21.2475 0.0000
# 6 0.0000 0.0000 0.0000 0.0000 0.0000 41.6837
#
#
#
# Elastic Compliance Matrix: (Units=1/GPa)
#
#
# Indices 1 2 3 4 5 6 
#
# 1 0.026475 -0.019627 -0.004321 0.000000 0.000000 0.000000
# 2 -0.019627 0.026473 -0.004321 0.000000 0.000000 0.000000
# 3 -0.004321 -0.004321 0.020433 0.000000 0.000000 0.000000
# 4 0.000000 0.000000 0.000000 0.047059 0.000000 0.000000
# 5 0.000000 0.000000 0.000000 0.000000 0.047064 0.000000
# 6 0.000000 0.000000 0.000000 0.000000 0.000000 0.023990
#
#
# Mechanical properties :
#
#
# Convention : Reuss Voigt Hill
#
# Bulk Modulus (GPa) = 59.37953 70.42622 64.90288
# Shear Modulus (GPa) = 19.71237 24.47953 22.09595
#
# Velocity S-wave (km/s) = 3.00950 3.35372 3.18626
# Velocity P-wave (km/s) = 6.27366 6.88148 6.58459
#
# Compressibility (1/GPa) = 0.01684082
#
# Stress axis : x y z
#
# Youngs Moduli (GPa) = 37.77218 37.77430 48.94005
#
# Poissons Ratio (x) = 0.74141 0.21149
# Poissons Ratio (y) = 0.74137 0.21148
# Poissons Ratio (z) = 0.16323 0.16323
#
# Static dielectric constant tensor:
#      x y z
#    x 4.053080 0.000000 0.000000 
#    y 0.000000 4.053070 0.000000 
#    z 0.000000 0.000000 4.102740 
# 
# 
# High freq. dielectric constant tensor:
#      x y z
#    x 1.845670 0.000000 0.000000 
#    y 0.000000 1.845670 0.000000 
#    z 0.000000 0.000000 1.851330 
# 
# From -- ./inp_files/4557.got.cif
#   From: 2010.03.12/outbox.cif.g09.slc.cpg/sg141_3_cif.got.tgz:4557.got - 2010.04.03 13:18:35.
