data_PCOD8320316
_publ_section_title
;
Structure prediction by ZEFSAII (Michael W. Deem and Ramdas Pophale) SiO2 
 PCOD8320316
Probable space group: I 4/M C M
;
_chemical_formula_sum "Si O2"
_cell_formula_units_Z 96
_cell_length_a 14.867644
_cell_length_b 14.867644
_cell_length_c 26.097936
_cell_angle_alpha 90.000000
_cell_angle_beta 90.000000
_cell_angle_gamma 90.000000
_cell_volume 5768.866234
_symmetry_space_group_name_H-M "I 4/M C M"
_symmetry_group_IT_number 140
_symmetry_cell_setting 'tetragonal'
loop_
_space_group_symop_operation_xyz
x,y,z
-y,x,z
-x,-y,z
y,-x,z
x,-y,1/2-z
-x,y,1/2-z
y,x,1/2-z
-y,-x,1/2-z
-x,-y,-z
y,-x,-z
x,y,-z
-y,x,-z
-x,y,1/2+z
x,-y,1/2+z
-y,-x,1/2+z
y,x,1/2+z
1/2+x,1/2+y,1/2+z
1/2-y,1/2+x,1/2+z
1/2-x,1/2-y,1/2+z
1/2+y,1/2-x,1/2+z
1/2+x,1/2-y,-z
1/2-x,1/2+y,-z
1/2+y,1/2+x,-z
1/2-y,1/2-x,-z
1/2-x,1/2-y,1/2-z
1/2+y,1/2-x,1/2-z
1/2+x,1/2+y,1/2-z
1/2-y,1/2+x,1/2-z
1/2-x,1/2+y,z
1/2+x,1/2-y,z
1/2-y,1/2-x,z
1/2+y,1/2+x,z
loop_
_atom_site_type_symbol
_atom_site_label
_atom_site_fract_x
_atom_site_fract_y
_atom_site_fract_z
Si Si1 0.575855 0.924146 0.813261
Si Si2 0.819410 0.680591 0.774682
Si Si3 0.699348 0.940090 0.362775
Si Si4 0.855736 0.971652 0.557919
O O1 0.620151 0.879850 0.763117
O O2 0.534825 0.844138 0.847090
O O3 0.500000 0.000000 0.799112
O O4 0.750000 0.750000 0.750000
O O5 0.889766 0.735389 0.811011
O O6 0.622638 0.877363 0.388904
O O7 0.777034 0.956107 0.402644
O O8 0.818741 0.964529 0.500000
O O9 0.930363 0.896306 0.567557
#
# Coordination Sequence:
#
# PCOD8320316 Si02
#       4
#    16  16  32  32
#     4  10  20  38  57  76 109 157 187 210 274 341
#     4  10  22  32  51  85 110 141 183 231 264 315
#     4   9  21  32  57  82 105 144 180 225 268 319
#     4   9  19  38  59  77 105 143 179 222 283 340
#
# _framework density 16.641051000000001
#
# number of rings (size 3 to 8) (size 9 to 14) (size 15 to 20)
#    1.000    1.667    0.000    2.000    7.000    0.667 
#    0.000    0.833    0.000    3.000    0.000    0.000 
#    0.000    0.000    0.000    0.000    0.000    0.000 
#
# Total GULP energy -594687.323259 kJ/mol
# GULP energy per Si atom -12389.319235 kJ/mol
# Density = 1.660318 g / cm^3
# Si number density = 16.641051 Si / 1000 Ang^3
#
#
#
# Elastic Constant Matrix: (Units=GPa)
#
#
# Indices 1 2 3 4 5 6 
#
# 1 101.0670 53.2770 87.9220 0.0000 0.0000 0.0000
# 2 53.2770 101.0670 87.9220 0.0000 0.0000 0.0000
# 3 87.9220 87.9220 146.0141 0.0000 0.0000 0.0000
# 4 0.0000 0.0000 0.0000 33.5703 0.0000 0.0000
# 5 0.0000 0.0000 0.0000 0.0000 33.5703 0.0000
# 6 0.0000 0.0000 0.0000 0.0000 0.0000 21.8290
#
#
#
# Elastic Compliance Matrix: (Units=1/GPa)
#
#
# Indices 1 2 3 4 5 6 
#
# 1 0.020780 -0.000145 -0.012426 0.000000 0.000000 0.000000
# 2 -0.000145 0.020780 -0.012426 0.000000 0.000000 0.000000
# 3 -0.012426 -0.012426 0.021813 0.000000 0.000000 0.000000
# 4 0.000000 0.000000 0.000000 0.029788 0.000000 0.000000
# 5 0.000000 0.000000 0.000000 0.000000 0.029788 0.000000
# 6 0.000000 0.000000 0.000000 0.000000 0.000000 0.045811
#
#
# Mechanical properties :
#
#
# Convention : Reuss Voigt Hill
#
# Bulk Modulus (GPa) = 74.73099 89.59893 82.16496
# Shear Modulus (GPa) = 22.40012 25.72903 24.06458
#
# Velocity S-wave (km/s) = 3.67287 3.93634 3.80688
# Velocity P-wave (km/s) = 7.93673 8.63821 8.29489
#
# Compressibility (1/GPa) = 0.01338133
#
# Stress axis : x y z
#
# Youngs Moduli (GPa) = 48.12260 48.12260 45.84454
#
# Poissons Ratio (x) = 0.00696 0.56965
# Poissons Ratio (y) = 0.00696 0.56965
# Poissons Ratio (z) = 0.59796 0.59796
#
# Static dielectric constant tensor:
#      x y z
#    x 3.046160 0.000000 0.000000 
#    y 0.000000 3.046160 0.000000 
#    z 0.000000 0.000000 3.014050 
# 
# 
# High freq. dielectric constant tensor:
#      x y z
#    x 1.634760 0.000000 0.000000 
#    y 0.000000 1.634760 0.000000 
#    z 0.000000 0.000000 1.639100 
# 
# From -- ./inp_files/10204.got.cif
#   From: 2010.06.25/outbox.cif.g09.slc.cpg/sg140_6_cif.got.tgz:10204.got - 2010.06.28 10:53:23.
