data_PCOD8320412
_publ_section_title
;
Structure prediction by ZEFSAII (Michael W. Deem and Ramdas Pophale) SiO2 
 PCOD8320412
Probable space group: I 4/M C M
;
_chemical_formula_sum "Si O2"
_cell_formula_units_Z 160
_cell_length_a 22.085078
_cell_length_b 22.085078
_cell_length_c 16.193110
_cell_angle_alpha 90.000000
_cell_angle_beta 90.000000
_cell_angle_gamma 90.000000
_cell_volume 7898.200256
_symmetry_space_group_name_H-M "I 4/M C M"
_symmetry_group_IT_number 140
_symmetry_cell_setting 'tetragonal'
loop_
_space_group_symop_operation_xyz
x,y,z
-y,x,z
-x,-y,z
y,-x,z
x,-y,1/2-z
-x,y,1/2-z
y,x,1/2-z
-y,-x,1/2-z
-x,-y,-z
y,-x,-z
x,y,-z
-y,x,-z
-x,y,1/2+z
x,-y,1/2+z
-y,-x,1/2+z
y,x,1/2+z
1/2+x,1/2+y,1/2+z
1/2-y,1/2+x,1/2+z
1/2-x,1/2-y,1/2+z
1/2+y,1/2-x,1/2+z
1/2+x,1/2-y,-z
1/2-x,1/2+y,-z
1/2+y,1/2+x,-z
1/2-y,1/2-x,-z
1/2-x,1/2-y,1/2-z
1/2+y,1/2-x,1/2-z
1/2+x,1/2+y,1/2-z
1/2-y,1/2+x,1/2-z
1/2-x,1/2+y,z
1/2+x,1/2-y,z
1/2-y,1/2-x,z
1/2+y,1/2+x,z
loop_
_atom_site_type_symbol
_atom_site_label
_atom_site_fract_x
_atom_site_fract_y
_atom_site_fract_z
Si Si1 0.373842 0.126159 0.591846
Si Si2 0.431124 0.568935 0.000000
Si Si3 0.373831 0.126170 0.908145
Si Si4 0.626003 0.374014 0.341650
Si Si5 0.429296 0.256836 0.094201
Si Si6 0.256832 0.570710 0.405801
Si Si7 0.431060 0.068941 0.750005
O O1 0.395481 0.104520 0.500000
O O2 0.389797 0.196364 0.601865
O O3 0.407042 0.092959 0.664439
O O4 0.414123 0.500037 0.000000
O O5 0.407957 0.592136 0.913417
O O6 0.389790 0.196374 0.898104
O O7 0.407048 0.092953 0.835580
O O8 0.395457 0.104544 0.000000
O O9 0.605215 0.394786 0.250000
O O10 0.608772 0.303309 0.349857
O O11 0.696722 0.391208 0.349829
O O12 0.500002 0.248543 0.123142
O O13 0.429279 0.280556 0.000000
O O14 0.280568 0.570726 0.500000
O O15 0.500000 0.085524 0.750000
#
# Coordination Sequence:
#
# PCOD8320412 Si02
#       7
#    16  16  16  32  32  32  16
#     4  10  23  42  66  97 129 171 222 268 325 393
#     4  11  24  44  66  91 130 170 216 279 332 391
#     4  10  23  42  66  97 129 171 222 268 325 393
#     4  12  25  40  64  97 129 171 220 266 327 395
#     4  10  21  41  67  93 130 174 217 270 327 386
#     4  10  21  41  67  93 130 174 217 270 327 386
#     4  11  24  40  62  95 134 174 220 275 332 391
#
# _framework density 20.257781000000001
#
# number of rings (size 3 to 8) (size 9 to 14) (size 15 to 20)
#    0.000    1.400    2.000    2.400    2.800    6.400 
#    0.000    6.000    0.000    0.000    0.000    0.000 
#    0.000    0.000    0.000    0.000    0.000    0.000 
#
# Total GULP energy -991223.190279 kJ/mol
# GULP energy per Si atom -12390.289878 kJ/mol
# Density = 2.021167 g / cm^3
# Si number density = 20.257781 Si / 1000 Ang^3
#
#
#
# Elastic Constant Matrix: (Units=GPa)
#
#
# Indices 1 2 3 4 5 6 
#
# 1 127.5918 70.5039 73.4999 0.0000 0.0000 0.0000
# 2 70.5039 127.5917 73.5001 0.0000 0.0000 0.0000
# 3 73.4999 73.5001 186.7093 0.0000 0.0000 0.0000
# 4 0.0000 0.0000 0.0000 13.9374 0.0000 0.0000
# 5 0.0000 0.0000 0.0000 0.0000 13.9410 0.0000
# 6 0.0000 0.0000 0.0000 0.0000 0.0000 44.1753
#
#
#
# Elastic Compliance Matrix: (Units=1/GPa)
#
#
# Indices 1 2 3 4 5 6 
#
# 1 0.012324 -0.005193 -0.002807 0.000000 0.000000 0.000000
# 2 -0.005193 0.012324 -0.002807 0.000000 0.000000 0.000000
# 3 -0.002807 -0.002807 0.007566 0.000000 0.000000 0.000000
# 4 0.000000 0.000000 0.000000 0.071749 0.000000 0.000000
# 5 0.000000 0.000000 0.000000 0.000000 0.071731 0.000000
# 6 0.000000 0.000000 0.000000 0.000000 0.000000 0.022637
#
#
# Mechanical properties :
#
#
# Convention : Reuss Voigt Hill
#
# Bulk Modulus (GPa) = 94.34398 97.43339 95.88868
# Shear Modulus (GPa) = 22.37344 29.37002 25.87173
#
# Velocity S-wave (km/s) = 3.32691 3.81177 3.57757
# Velocity P-wave (km/s) = 7.83777 8.22034 8.03133
#
# Compressibility (1/GPa) = 0.01059951
#
# Stress axis : x y z
#
# Youngs Moduli (GPa) = 81.14222 81.14207 132.16750
#
# Poissons Ratio (x) = 0.42135 0.37103
# Poissons Ratio (y) = 0.42135 0.37103
# Poissons Ratio (z) = 0.22779 0.22779
#
# Static dielectric constant tensor:
#      x y z
#    x 3.939170 0.000000 0.000000 
#    y 0.000000 3.939180 0.000000 
#    z 0.000000 0.000000 3.832390 
# 
# 
# High freq. dielectric constant tensor:
#      x y z
#    x 1.795860 0.000000 0.000000 
#    y 0.000000 1.795860 0.000000 
#    z 0.000000 0.000000 1.801150 
# 
# From -- ./inp_files/6946.got.cif
#   From: 2010.06.25/outbox.cif.g09.slc.cpg/sg140_4_cif.got.tgz:6946.got - 2010.06.28 10:53:23.
