data_PCOD8320146
_publ_section_title
;
Structure prediction by ZEFSAII (Michael W. Deem and Ramdas Pophale) SiO2 
 PCOD8320146
Probable space group: I 4/M C M
;
_chemical_formula_sum "Si O2"
_cell_formula_units_Z 160
_cell_length_a 20.371134
_cell_length_b 20.371134
_cell_length_c 19.159119
_cell_angle_alpha 90.000000
_cell_angle_beta 90.000000
_cell_angle_gamma 90.000000
_cell_volume 7950.710604
_symmetry_space_group_name_H-M "I 4/M C M"
_symmetry_group_IT_number 140
_symmetry_cell_setting 'tetragonal'
loop_
_space_group_symop_operation_xyz
x,y,z
-y,x,z
-x,-y,z
y,-x,z
x,-y,1/2-z
-x,y,1/2-z
y,x,1/2-z
-y,-x,1/2-z
-x,-y,-z
y,-x,-z
x,y,-z
-y,x,-z
-x,y,1/2+z
x,-y,1/2+z
-y,-x,1/2+z
y,x,1/2+z
1/2+x,1/2+y,1/2+z
1/2-y,1/2+x,1/2+z
1/2-x,1/2-y,1/2+z
1/2+y,1/2-x,1/2+z
1/2+x,1/2-y,-z
1/2-x,1/2+y,-z
1/2+y,1/2+x,-z
1/2-y,1/2-x,-z
1/2-x,1/2-y,1/2-z
1/2+y,1/2-x,1/2-z
1/2+x,1/2+y,1/2-z
1/2-y,1/2+x,1/2-z
1/2-x,1/2+y,z
1/2+x,1/2-y,z
1/2-y,1/2-x,z
1/2+y,1/2+x,z
loop_
_atom_site_type_symbol
_atom_site_label
_atom_site_fract_x
_atom_site_fract_y
_atom_site_fract_z
Si Si1 0.759363 0.948063 0.581144
Si Si2 0.396964 0.504574 0.582745
Si Si3 0.669559 0.940339 0.705424
Si Si4 0.693124 0.698086 0.076306
Si Si5 0.850568 0.758926 0.713896
O O1 0.740390 0.960188 0.500000
O O2 0.821104 0.992692 0.606215
O O3 0.696274 0.963576 0.629536
O O4 0.780951 0.873557 0.594363
O O5 0.431553 0.437992 0.610465
O O6 0.399496 0.508660 0.500000
O O7 0.613956 0.886045 0.694100
O O8 0.732506 0.916536 0.750724
O O9 0.638515 0.000000 0.750000
O O10 0.757477 0.742524 0.078836
O O11 0.639525 0.724629 0.131650
O O12 0.659000 0.699851 0.000000
O O13 0.825785 0.825785 0.750000
O O14 0.796933 0.703068 0.724818
#
# Coordination Sequence:
#
# PCOD8320146 Si02
#       5
#    32  32  32  32  32
#     4  10  19  32  55  86 114 144 190 245 292 341
#     4   8  15  29  48  74 115 162 198 228 272 337
#     4  11  24  41  60  83 111 150 196 240 295 357
#     4   9  16  27  48  79 112 145 181 229 289 341
#     4   9  16  31  53  76 107 141 171 217 280 344
#
# _framework density 20.123988000000001
#
# number of rings (size 3 to 8) (size 9 to 14) (size 15 to 20)
#    0.000    2.600    2.000    1.200    0.000    3.000 
#    0.000    3.000    0.000    1.800    0.000    2.800 
#    0.000    0.000    0.000    0.000    0.000    0.000 
#
# Total GULP energy -991414.204349 kJ/mol
# GULP energy per Si atom -12392.677554 kJ/mol
# Density = 2.007818 g / cm^3
# Si number density = 20.123988 Si / 1000 Ang^3
#
#
#
# Elastic Constant Matrix: (Units=GPa)
#
#
# Indices 1 2 3 4 5 6 
#
# 1 67.7914 18.4902 29.9105 0.0000 0.0000 0.0000
# 2 18.4902 67.7914 29.9105 0.0000 0.0000 0.0000
# 3 29.9105 29.9105 100.2699 0.0000 0.0000 0.0000
# 4 0.0000 0.0000 0.0000 23.6374 0.0000 0.0000
# 5 0.0000 0.0000 0.0000 0.0000 23.6374 0.0000
# 6 0.0000 0.0000 0.0000 0.0000 0.0000 16.4338
#
#
#
# Elastic Compliance Matrix: (Units=1/GPa)
#
#
# Indices 1 2 3 4 5 6 
#
# 1 0.017448 -0.002836 -0.004359 0.000000 0.000000 0.000000
# 2 -0.002836 0.017448 -0.004359 0.000000 0.000000 0.000000
# 3 -0.004359 -0.004359 0.012574 0.000000 0.000000 0.000000
# 4 0.000000 0.000000 0.000000 0.042306 0.000000 0.000000
# 5 0.000000 0.000000 0.000000 0.000000 0.042306 0.000000
# 6 0.000000 0.000000 0.000000 0.000000 0.000000 0.060850
#
#
# Mechanical properties :
#
#
# Convention : Reuss Voigt Hill
#
# Bulk Modulus (GPa) = 41.04679 43.60839 42.32759
# Shear Modulus (GPa) = 22.30568 23.24449 22.77509
#
# Velocity S-wave (km/s) = 3.33289 3.40231 3.36778
# Velocity P-wave (km/s) = 5.93735 6.09518 6.01678
#
# Compressibility (1/GPa) = 0.02436244
#
# Stress axis : x y z
#
# Youngs Moduli (GPa) = 57.31405 57.31405 79.53227
#
# Poissons Ratio (x) = 0.16253 0.34666
# Poissons Ratio (y) = 0.16253 0.34666
# Poissons Ratio (z) = 0.24982 0.24982
#
# Static dielectric constant tensor:
#      x y z
#    x 3.572830 0.000000 0.000000 
#    y 0.000000 3.572830 0.000000 
#    z 0.000000 0.000000 3.792190 
# 
# 
# High freq. dielectric constant tensor:
#      x y z
#    x 1.763170 0.000000 0.000000 
#    y 0.000000 1.763170 0.000000 
#    z 0.000000 0.000000 1.777450 
# 
# From -- ./inp_files/6837.got.cif
#   From: 2010.06.25/outbox.cif.g09.slc.cpg/sg140_4_cif.got.tgz:6837.got - 2010.06.28 10:53:23.
