data_PCOD8320772
_publ_section_title
;
Structure prediction by ZEFSAII (Michael W. Deem and Ramdas Pophale) SiO2 
 PCOD8320772
Probable space group: I 41/A M D
;
_chemical_formula_sum "Si O2"
_cell_formula_units_Z 80
_cell_length_a 22.746940
_cell_length_b 22.746940
_cell_length_c 8.678714
_cell_angle_alpha 90.000000
_cell_angle_beta 90.000000
_cell_angle_gamma 90.000000
_cell_volume 4490.568659
_symmetry_space_group_name_H-M "I 41/A M D"
_symmetry_group_IT_number 141
_space_group.IT_coordinate_system_code '2'
_symmetry_cell_setting 'tetragonal'
loop_
_space_group_symop_operation_xyz
x,y,z
1/4-y,3/4+x,1/4+z
-x,1/2-y,z
1/4+y,1/4-x,3/4+z
x,-y,-z
-x,1/2+y,-z
1/4+y,3/4+x,1/4-z
1/4-y,1/4-x,3/4-z
-x,-y,-z
3/4+y,1/4-x,3/4-z
x,1/2+y,-z
3/4-y,3/4+x,1/4-z
-x,y,z
x,1/2-y,z
3/4-y,1/4-x,3/4+z
3/4+y,3/4+x,1/4+z
1/2+x,1/2+y,1/2+z
3/4-y,1/4+x,3/4+z
1/2-x,-y,1/2+z
3/4+y,3/4-x,1/4+z
1/2+x,1/2-y,1/2-z
1/2-x,y,1/2-z
3/4+y,1/4+x,3/4-z
3/4-y,3/4-x,1/4-z
1/2-x,1/2-y,1/2-z
1/4+y,3/4-x,1/4-z
1/2+x,y,1/2-z
1/4-y,1/4+x,3/4-z
1/2-x,1/2+y,1/2+z
1/2+x,-y,1/2+z
1/4-y,3/4-x,1/4+z
1/4+y,1/4+x,3/4+z
loop_
_atom_site_type_symbol
_atom_site_label
_atom_site_fract_x
_atom_site_fract_y
_atom_site_fract_z
Si Si1 0.750000 0.128376 0.750000
Si Si2 0.817983 0.906079 0.788349
Si Si3 0.347324 0.681798 0.454722
O O1 0.786131 0.086892 0.633866
O O2 0.707804 0.171044 0.655853
O O3 0.750000 0.912236 0.750000
O O4 0.850839 0.899162 0.625000
O O5 0.833962 0.847515 0.881132
O O6 0.357924 0.750000 0.482714
O O7 0.405284 0.655284 0.375000
#
# Coordination Sequence:
#
# PCOD8320772 Si02
#       3
#    16  32  32
#     4  10  21  36  56  84 114 154 185 226 282 344
#     4  11  22  34  55  88 121 152 185 225 289 347
#     4  10  22  39  58  81 111 148 194 236 281 332
#
# _framework density 17.815114999999999
#
# number of rings (size 3 to 8) (size 9 to 14) (size 15 to 20)
#    0.000    1.600    4.000    0.600    2.800    1.200 
#    0.000    2.000    0.000    0.000    0.000    0.000 
#    0.000    0.000    0.000    0.000    0.000    0.000 
#
# Total GULP energy -496058.148035 kJ/mol
# GULP energy per Si atom -12401.453701 kJ/mol
# Density = 1.777457 g / cm^3
# Si number density = 17.815115 Si / 1000 Ang^3
#
#
#
# Elastic Constant Matrix: (Units=GPa)
#
#
# Indices 1 2 3 4 5 6 
#
# 1 122.6508 46.8527 51.2594 0.0000 0.0000 0.0000
# 2 46.8527 122.6548 51.2612 0.0000 0.0000 0.0000
# 3 51.2594 51.2612 151.2511 0.0000 0.0000 0.0000
# 4 0.0000 0.0000 0.0000 24.3489 0.0000 0.0000
# 5 0.0000 0.0000 0.0000 0.0000 24.3486 0.0000
# 6 0.0000 0.0000 0.0000 0.0000 0.0000 13.6884
#
#
#
# Elastic Compliance Matrix: (Units=1/GPa)
#
#
# Indices 1 2 3 4 5 6 
#
# 1 0.010307 -0.002886 -0.002515 0.000000 0.000000 0.000000
# 2 -0.002886 0.010306 -0.002515 0.000000 0.000000 0.000000
# 3 -0.002515 -0.002515 0.008316 0.000000 0.000000 0.000000
# 4 0.000000 0.000000 0.000000 0.041070 0.000000 0.000000
# 5 0.000000 0.000000 0.000000 0.000000 0.041070 0.000000
# 6 0.000000 0.000000 0.000000 0.000000 0.000000 0.073055
#
#
# Mechanical properties :
#
#
# Convention : Reuss Voigt Hill
#
# Bulk Modulus (GPa) = 76.34911 77.25591 76.80251
# Shear Modulus (GPa) = 24.47127 28.95607 26.71367
#
# Velocity S-wave (km/s) = 3.71026 4.03596 3.87653
# Velocity P-wave (km/s) = 7.82970 8.07330 7.95243
#
# Compressibility (1/GPa) = 0.01309773
#
# Stress axis : x y z
#
# Youngs Moduli (GPa) = 97.02403 97.02667 120.24781
#
# Poissons Ratio (x) = 0.28002 0.30241
# Poissons Ratio (y) = 0.28001 0.30241
# Poissons Ratio (z) = 0.24400 0.24401
#
# Static dielectric constant tensor:
#      x y z
#    x 2.882140 0.000000 0.000000 
#    y 0.000000 2.882210 0.000000 
#    z 0.000000 0.000000 3.913270 
# 
# 
# High freq. dielectric constant tensor:
#      x y z
#    x 1.677040 0.000000 0.000000 
#    y 0.000000 1.677040 0.000000 
#    z 0.000000 0.000000 1.710990 
# 
# From -- ./inp_files/2274.got.cif
#   From: 2010.03.12/outbox.cif.g09.slc.cpg/sg141_2_cif.got.tgz:2274.got - 2010.04.03 13:18:35.
