data_PCOD8320030
_publ_section_title
;
Structure prediction by ZEFSAII (Michael W. Deem and Ramdas Pophale) SiO2 
 PCOD8320030
Probable space group: I 4/M C M
;
_chemical_formula_sum "Si O2"
_cell_formula_units_Z 144
_cell_length_a 24.191080
_cell_length_b 24.191080
_cell_length_c 18.812679
_cell_angle_alpha 90.000000
_cell_angle_beta 90.000000
_cell_angle_gamma 90.000000
_cell_volume 11009.336866
_symmetry_space_group_name_H-M "I 4/M C M"
_symmetry_group_IT_number 140
_symmetry_cell_setting 'tetragonal'
loop_
_space_group_symop_operation_xyz
x,y,z
-y,x,z
-x,-y,z
y,-x,z
x,-y,1/2-z
-x,y,1/2-z
y,x,1/2-z
-y,-x,1/2-z
-x,-y,-z
y,-x,-z
x,y,-z
-y,x,-z
-x,y,1/2+z
x,-y,1/2+z
-y,-x,1/2+z
y,x,1/2+z
1/2+x,1/2+y,1/2+z
1/2-y,1/2+x,1/2+z
1/2-x,1/2-y,1/2+z
1/2+y,1/2-x,1/2+z
1/2+x,1/2-y,-z
1/2-x,1/2+y,-z
1/2+y,1/2+x,-z
1/2-y,1/2-x,-z
1/2-x,1/2-y,1/2-z
1/2+y,1/2-x,1/2-z
1/2+x,1/2+y,1/2-z
1/2-y,1/2+x,1/2-z
1/2-x,1/2+y,z
1/2+x,1/2-y,z
1/2-y,1/2-x,z
1/2+y,1/2+x,z
loop_
_atom_site_type_symbol
_atom_site_label
_atom_site_fract_x
_atom_site_fract_y
_atom_site_fract_z
Si Si1 0.914843 0.674783 0.211111
Si Si2 0.244239 0.836624 0.278183
Si Si3 0.875089 0.283465 0.920383
Si Si4 0.526387 0.839169 0.856556
Si Si5 0.042840 0.457161 0.416535
O O1 0.869763 0.630238 0.183325
O O2 0.886524 0.734168 0.228077
O O3 0.941369 0.651965 0.283171
O O4 0.963816 0.683809 0.153860
O O5 0.184695 0.815306 0.250000
O O6 0.288065 0.788065 0.272096
O O7 0.239237 0.854865 0.361185
O O8 0.840340 0.340340 0.912102
O O9 0.939479 0.297221 0.906828
O O10 0.867864 0.258720 0.000000
O O11 0.522867 0.897633 0.893164
O O12 0.041147 0.458854 0.500000
O O13 0.000000 0.500000 0.382159
#
# Coordination Sequence:
#
# PCOD8320030 Si02
#       5
#    32  32  32  32  16
#     4   9  16  25  36  51  70  91 122 159 194 228
#     4   8  14  25  40  56  71  88 115 161 208 240
#     4   9  15  24  39  54  69  92 125 161 193 223
#     4  10  16  25  35  49  69  94 125 160 188 221
#     4  11  20  26  32  44  67 100 132 162 193 222
#
# _framework density 13.079807000000001
#
# number of rings (size 3 to 8) (size 9 to 14) (size 15 to 20)
#    0.000    2.778    2.222    2.667    0.000    0.000 
#    0.000    0.000    0.000    2.667    0.000    9.333 
#    0.000    0.000    0.000    0.000    0.000  142.222 
#
# Total GULP energy -892248.622651 kJ/mol
# GULP energy per Si atom -12392.341981 kJ/mol
# Density = 1.305004 g / cm^3
# Si number density = 13.079807 Si / 1000 Ang^3
#
#
#
# Elastic Constant Matrix: (Units=GPa)
#
#
# Indices 1 2 3 4 5 6 
#
# 1 57.6006 38.1269 35.4100 0.0000 0.0000 0.0000
# 2 38.1269 57.5995 35.4086 0.0000 0.0000 0.0000
# 3 35.4100 35.4086 68.6757 0.0000 0.0000 0.0000
# 4 0.0000 0.0000 0.0000 9.8926 0.0000 0.0000
# 5 0.0000 0.0000 0.0000 0.0000 9.8916 0.0000
# 6 0.0000 0.0000 0.0000 0.0000 0.0000 24.4167
#
#
#
# Elastic Compliance Matrix: (Units=1/GPa)
#
#
# Indices 1 2 3 4 5 6 
#
# 1 0.034121 -0.017232 -0.008708 0.000000 0.000000 0.000000
# 2 -0.017232 0.034120 -0.008707 0.000000 0.000000 0.000000
# 3 -0.008708 -0.008707 0.023540 0.000000 0.000000 0.000000
# 4 0.000000 0.000000 0.000000 0.101086 0.000000 0.000000
# 5 0.000000 0.000000 0.000000 0.000000 0.101096 0.000000
# 6 0.000000 0.000000 0.000000 0.000000 0.000000 0.040956
#
#
# Mechanical properties :
#
#
# Convention : Reuss Voigt Hill
#
# Bulk Modulus (GPa) = 44.47098 44.64075 44.55587
# Shear Modulus (GPa) = 12.14450 13.83553 12.99002
#
# Velocity S-wave (km/s) = 3.05042 3.25588 3.15482
# Velocity P-wave (km/s) = 6.81765 6.95255 6.88543
#
# Compressibility (1/GPa) = 0.02248657
#
# Stress axis : x y z
#
# Youngs Moduli (GPa) = 29.30776 29.30800 42.48001
#
# Poissons Ratio (x) = 0.50504 0.36992
# Poissons Ratio (y) = 0.50504 0.36987
# Poissons Ratio (z) = 0.25522 0.25519
#
# Static dielectric constant tensor:
#      x y z
#    x 2.621250 0.000000 0.000000 
#    y 0.000000 2.621250 0.000000 
#    z 0.000000 0.000000 2.685580 
# 
# 
# High freq. dielectric constant tensor:
#      x y z
#    x 1.465920 0.000000 0.000000 
#    y 0.000000 1.465920 0.000000 
#    z 0.000000 0.000000 1.494420 
# 
# From -- ./inp_files/8509.got.cif
#   From: 2010.06.25/outbox.cif.g09.slc.cpg/sg140_5_cif.got.tgz:8509.got - 2010.06.28 10:53:23.
