data_PCOD8320830
_publ_section_title
;
Structure prediction by ZEFSAII (Michael W. Deem and Ramdas Pophale) SiO2 
 PCOD8320830
Probable space group: I 41/A M D
;
_chemical_formula_sum "Si O2"
_cell_formula_units_Z 112
_cell_length_a 19.374116
_cell_length_b 19.374116
_cell_length_c 16.314730
_cell_angle_alpha 90.000000
_cell_angle_beta 90.000000
_cell_angle_gamma 90.000000
_cell_volume 6123.837843
_symmetry_space_group_name_H-M "I 41/A M D"
_symmetry_group_IT_number 141
_space_group.IT_coordinate_system_code '2'
_symmetry_cell_setting 'tetragonal'
loop_
_space_group_symop_operation_xyz
x,y,z
1/4-y,3/4+x,1/4+z
-x,1/2-y,z
1/4+y,1/4-x,3/4+z
x,-y,-z
-x,1/2+y,-z
1/4+y,3/4+x,1/4-z
1/4-y,1/4-x,3/4-z
-x,-y,-z
3/4+y,1/4-x,3/4-z
x,1/2+y,-z
3/4-y,3/4+x,1/4-z
-x,y,z
x,1/2-y,z
3/4-y,1/4-x,3/4+z
3/4+y,3/4+x,1/4+z
1/2+x,1/2+y,1/2+z
3/4-y,1/4+x,3/4+z
1/2-x,-y,1/2+z
3/4+y,3/4-x,1/4+z
1/2+x,1/2-y,1/2-z
1/2-x,y,1/2-z
3/4+y,1/4+x,3/4-z
3/4-y,3/4-x,1/4-z
1/2-x,1/2-y,1/2-z
1/4+y,3/4-x,1/4-z
1/2+x,y,1/2-z
1/4-y,1/4+x,3/4-z
1/2-x,1/2+y,1/2+z
1/2+x,-y,1/2+z
1/4-y,3/4-x,1/4+z
1/4+y,1/4+x,3/4+z
loop_
_atom_site_type_symbol
_atom_site_label
_atom_site_fract_x
_atom_site_fract_y
_atom_site_fract_z
Si Si1 0.196536 0.892250 0.956602
Si Si2 0.785614 0.964387 0.125000
Si Si3 0.079960 0.328664 0.609602
Si Si4 0.920658 0.592279 0.694947
O O1 0.127041 0.850663 0.935579
O O2 0.260562 0.840639 0.947960
O O3 0.203994 0.955277 0.893602
O O4 0.190619 0.917977 0.049334
O O5 0.096764 0.250000 0.634962
O O6 0.123568 0.351342 0.530537
O O7 0.000000 0.337988 0.587696
O O8 0.873503 0.623503 0.625000
O O9 0.000000 0.608457 0.674816
#
# Coordination Sequence:
#
# PCOD8320830 Si02
#       4
#    32  16  32  32
#     4  11  20  40  59  88 115 154 195 244 293 345
#     4  10  22  36  62  85 119 144 192 256 290 332
#     4  10  22  40  60  86 121 156 194 244 297 349
#     4  11  22  36  57  87 122 158 197 235 288 356
#
# _framework density 18.289185
#
# number of rings (size 3 to 8) (size 9 to 14) (size 15 to 20)
#    0.000    1.429    4.286    1.714    0.000    2.571 
#    0.000    8.571    0.000    1.714    0.000    0.000 
#    0.000    0.000    0.000    0.000    0.000    0.000 
#
# Total GULP energy -694681.649762 kJ/mol
# GULP energy per Si atom -12405.029460 kJ/mol
# Density = 1.824756 g / cm^3
# Si number density = 18.289185 Si / 1000 Ang^3
#
#
#
# Elastic Constant Matrix: (Units=GPa)
#
#
# Indices 1 2 3 4 5 6 
#
# 1 95.2250 42.7669 49.9098 0.0000 0.0000 0.0000
# 2 42.7669 95.2257 49.9099 0.0000 0.0000 0.0000
# 3 49.9098 49.9099 92.5505 0.0000 0.0000 0.0000
# 4 0.0000 0.0000 0.0000 22.2790 0.0000 0.0000
# 5 0.0000 0.0000 0.0000 0.0000 22.2790 0.0000
# 6 0.0000 0.0000 0.0000 0.0000 0.0000 34.1928
#
#
#
# Elastic Compliance Matrix: (Units=1/GPa)
#
#
# Indices 1 2 3 4 5 6 
#
# 1 0.015472 -0.003590 -0.006408 0.000000 0.000000 0.000000
# 2 -0.003590 0.015472 -0.006407 0.000000 0.000000 0.000000
# 3 -0.006408 -0.006407 0.017716 0.000000 0.000000 0.000000
# 4 0.000000 0.000000 0.000000 0.044885 0.000000 0.000000
# 5 0.000000 0.000000 0.000000 0.000000 0.044885 0.000000
# 6 0.000000 0.000000 0.000000 0.000000 0.000000 0.029246
#
#
# Mechanical properties :
#
#
# Convention : Reuss Voigt Hill
#
# Bulk Modulus (GPa) = 63.09454 63.13048 63.11251
# Shear Modulus (GPa) = 24.29888 25.11113 24.70500
#
# Velocity S-wave (km/s) = 3.64894 3.70943 3.67931
# Velocity P-wave (km/s) = 7.23369 7.27594 7.25484
#
# Compressibility (1/GPa) = 0.01584923
#
# Stress axis : x y z
#
# Youngs Moduli (GPa) = 64.63151 64.63215 56.44715
#
# Poissons Ratio (x) = 0.23206 0.36169
# Poissons Ratio (y) = 0.23206 0.36168
# Poissons Ratio (z) = 0.41413 0.41413
#
# Static dielectric constant tensor:
#      x y z
#    x 3.384210 0.000000 0.000000 
#    y 0.000000 3.384190 0.000000 
#    z 0.000000 0.000000 3.299100 
# 
# 
# High freq. dielectric constant tensor:
#      x y z
#    x 1.714770 0.000000 0.000000 
#    y 0.000000 1.714770 0.000000 
#    z 0.000000 0.000000 1.703710 
# 
# From -- ./inp_files/7904.got.cif
#   From: 2010.03.12/outbox.cif.g09.slc.cpg/sg141_4_cif.got.tgz:7904.got - 2010.04.03 13:18:35.
