data_PCOD8320636
_publ_section_title
;
Structure prediction by ZEFSAII (Michael W. Deem and Ramdas Pophale) SiO2 
 PCOD8320636
Probable space group: I 41/A M D
;
_chemical_formula_sum "Si O2"
_cell_formula_units_Z 160
_cell_length_a 16.868856
_cell_length_b 16.868856
_cell_length_c 25.403249
_cell_angle_alpha 90.000000
_cell_angle_beta 90.000000
_cell_angle_gamma 90.000000
_cell_volume 7228.705420
_symmetry_space_group_name_H-M "I 41/A M D"
_symmetry_group_IT_number 141
_space_group.IT_coordinate_system_code '2'
_symmetry_cell_setting 'tetragonal'
loop_
_space_group_symop_operation_xyz
x,y,z
1/4-y,3/4+x,1/4+z
-x,1/2-y,z
1/4+y,1/4-x,3/4+z
x,-y,-z
-x,1/2+y,-z
1/4+y,3/4+x,1/4-z
1/4-y,1/4-x,3/4-z
-x,-y,-z
3/4+y,1/4-x,3/4-z
x,1/2+y,-z
3/4-y,3/4+x,1/4-z
-x,y,z
x,1/2-y,z
3/4-y,1/4-x,3/4+z
3/4+y,3/4+x,1/4+z
1/2+x,1/2+y,1/2+z
3/4-y,1/4+x,3/4+z
1/2-x,-y,1/2+z
3/4+y,3/4-x,1/4+z
1/2+x,1/2-y,1/2-z
1/2-x,y,1/2-z
3/4+y,1/4+x,3/4-z
3/4-y,3/4-x,1/4-z
1/2-x,1/2-y,1/2-z
1/4+y,3/4-x,1/4-z
1/2+x,y,1/2-z
1/4-y,1/4+x,3/4-z
1/2-x,1/2+y,1/2+z
1/2+x,-y,1/2+z
1/4-y,3/4-x,1/4+z
1/4+y,1/4+x,3/4+z
loop_
_atom_site_type_symbol
_atom_site_label
_atom_site_fract_x
_atom_site_fract_y
_atom_site_fract_z
Si Si1 0.303763 0.395086 0.200804
Si Si2 0.666835 0.597222 0.106296
Si Si3 0.589008 0.082648 0.471317
Si Si4 0.087856 0.750000 0.822594
Si Si5 0.500000 0.839715 0.948065
Si Si6 0.909490 0.986759 0.238409
O O1 0.250000 0.364191 0.250000
O O2 0.247267 0.423562 0.153161
O O3 0.362170 0.327148 0.179245
O O4 0.354979 0.469933 0.218910
O O5 0.684966 0.620903 0.165420
O O6 0.576998 0.618068 0.092627
O O7 0.730975 0.642435 0.070019
O O8 0.500000 0.118328 0.465264
O O9 0.642751 0.142455 0.506022
O O10 0.584725 0.000000 0.500000
O O11 0.084310 0.750000 0.760388
O O12 0.000000 0.750000 0.846715
O O13 0.500000 0.750000 0.924461
O O14 0.000000 0.004440 0.252568
#
# Coordination Sequence:
#
# PCOD8320636 Si02
#       6
#    32  32  32  16  16  32
#     4  10  19  33  58  94 135 182 233 272 321 396
#     4  11  23  41  69  99 135 181 230 280 340 412
#     4  11  26  47  70  97 130 171 226 295 353 409
#     4  11  19  31  63 103 140 182 226 274 329 396
#     4  11  18  30  56 100 148 190 228 274 330 394
#     4  11  23  40  64  98 136 176 220 275 344 414
#
# _framework density 22.133976000000001
#
# number of rings (size 3 to 8) (size 9 to 14) (size 15 to 20)
#    0.000    1.200    4.000    5.100    1.400    3.600 
#    0.000    0.000    0.000    0.000    2.600    2.800 
#    0.000    0.000    0.000    0.000    0.000    0.000 
#
# Total GULP energy -992106.879686 kJ/mol
# GULP energy per Si atom -12401.335996 kJ/mol
# Density = 2.208360 g / cm^3
# Si number density = 22.133976 Si / 1000 Ang^3
#
#
#
# Elastic Constant Matrix: (Units=GPa)
#
#
# Indices 1 2 3 4 5 6 
#
# 1 153.7215 45.5144 39.5896 0.0000 0.0000 0.0000
# 2 45.5144 153.7215 39.5896 0.0000 0.0000 0.0000
# 3 39.5896 39.5896 104.8293 0.0000 0.0000 0.0000
# 4 0.0000 0.0000 0.0000 15.8691 0.0000 0.0000
# 5 0.0000 0.0000 0.0000 0.0000 15.8691 0.0000
# 6 0.0000 0.0000 0.0000 0.0000 0.0000 27.5968
#
#
#
# Elastic Compliance Matrix: (Units=1/GPa)
#
#
# Indices 1 2 3 4 5 6 
#
# 1 0.007574 -0.001668 -0.002230 0.000000 0.000000 0.000000
# 2 -0.001668 0.007574 -0.002230 0.000000 0.000000 0.000000
# 3 -0.002230 -0.002230 0.011224 0.000000 0.000000 0.000000
# 4 0.000000 0.000000 0.000000 0.063015 0.000000 0.000000
# 5 0.000000 0.000000 0.000000 0.000000 0.063015 0.000000
# 6 0.000000 0.000000 0.000000 0.000000 0.000000 0.036236
#
#
# Mechanical properties :
#
#
# Convention : Reuss Voigt Hill
#
# Bulk Modulus (GPa) = 70.85241 73.51772 72.18507
# Shear Modulus (GPa) = 24.31910 31.03892 27.67901
#
# Velocity S-wave (km/s) = 3.31829 3.74882 3.54011
# Velocity P-wave (km/s) = 6.83825 7.21285 7.02804
#
# Compressibility (1/GPa) = 0.01411385
#
# Stress axis : x y z
#
# Youngs Moduli (GPa) = 132.03892 132.03892 89.09586
#
# Poissons Ratio (x) = 0.22024 0.19871
# Poissons Ratio (y) = 0.22024 0.19871
# Poissons Ratio (z) = 0.29448 0.29448
#
# Static dielectric constant tensor:
#      x y z
#    x 4.237610 0.000000 0.000000 
#    y 0.000000 4.237610 0.000000 
#    z 0.000000 0.000000 3.942240 
# 
# 
# High freq. dielectric constant tensor:
#      x y z
#    x 1.878150 0.000000 0.000000 
#    y 0.000000 1.878150 0.000000 
#    z 0.000000 0.000000 1.860900 
# 
# From -- ./inp_files/12806.got.cif
#   From: 2010.03.12/outbox.cif.g09.slc.cpg/sg141_7_cif.got.tgz:12806.got - 2010.04.03 13:18:35.
