data_PCOD8320052
_publ_section_title
;
Structure prediction by ZEFSAII (Michael W. Deem and Ramdas Pophale) SiO2 
 PCOD8320052
Probable space group: I 4/M C M
;
_chemical_formula_sum "Si O2"
_cell_formula_units_Z 240
_cell_length_a 25.696182
_cell_length_b 25.696182
_cell_length_c 27.397846
_cell_angle_alpha 90.000000
_cell_angle_beta 90.000000
_cell_angle_gamma 90.000000
_cell_volume 18090.627008
_symmetry_space_group_name_H-M "I 4/M C M"
_symmetry_group_IT_number 140
_symmetry_cell_setting 'tetragonal'
loop_
_space_group_symop_operation_xyz
x,y,z
-y,x,z
-x,-y,z
y,-x,z
x,-y,1/2-z
-x,y,1/2-z
y,x,1/2-z
-y,-x,1/2-z
-x,-y,-z
y,-x,-z
x,y,-z
-y,x,-z
-x,y,1/2+z
x,-y,1/2+z
-y,-x,1/2+z
y,x,1/2+z
1/2+x,1/2+y,1/2+z
1/2-y,1/2+x,1/2+z
1/2-x,1/2-y,1/2+z
1/2+y,1/2-x,1/2+z
1/2+x,1/2-y,-z
1/2-x,1/2+y,-z
1/2+y,1/2+x,-z
1/2-y,1/2-x,-z
1/2-x,1/2-y,1/2-z
1/2+y,1/2-x,1/2-z
1/2+x,1/2+y,1/2-z
1/2-y,1/2+x,1/2-z
1/2-x,1/2+y,z
1/2+x,1/2-y,z
1/2-y,1/2-x,z
1/2+y,1/2+x,z
loop_
_atom_site_type_symbol
_atom_site_label
_atom_site_fract_x
_atom_site_fract_y
_atom_site_fract_z
Si Si1 0.659783 0.752780 0.338910
Si Si2 0.327150 0.260383 0.861026
Si Si3 0.641676 0.057397 0.767701
Si Si4 0.277964 0.865506 0.735844
Si Si5 0.154980 0.511585 0.057042
Si Si6 0.541583 0.041583 0.441934
Si Si7 0.705511 0.119800 0.555460
Si Si8 0.668496 0.916301 0.376371
O O1 0.703598 0.796403 0.336022
O O2 0.682719 0.699908 0.362606
O O3 0.640997 0.741181 0.283461
O O4 0.612783 0.775745 0.371384
O O5 0.283237 0.216764 0.858378
O O6 0.363674 0.256528 0.813129
O O7 0.361653 0.252205 0.909427
O O8 0.591212 0.091212 0.754822
O O9 0.691718 0.079688 0.738692
O O10 0.652450 0.058369 0.825224
O O11 0.629908 0.000000 0.750000
O O12 0.319642 0.819642 0.735833
O O13 0.097962 0.525322 0.078185
O O14 0.192937 0.559999 0.067234
O O15 0.176845 0.460956 0.083856
O O16 0.151966 0.498750 0.000000
O O17 0.543582 0.043582 0.500000
O O18 0.500000 0.000000 0.422367
O O19 0.724999 0.126607 0.500000
O O20 0.653111 0.153111 0.564250
O O21 0.623959 0.876042 0.393972
#
# Coordination Sequence:
#
# PCOD8320052 Si02
#       8
#    32  32  32  32  32  16  32  32
#     4   8  14  26  40  56  78  94 113 154 200 234
#     4   9  15  23  41  61  72  91 121 153 194 242
#     4   9  18  30  39  50  74 104 132 166 201 230
#     4   8  14  24  39  57  73  91 120 158 192 227
#     4  10  18  29  42  54  72  99 131 170 204 232
#     4   9  16  26  40  54  68  90 129 178 216 230
#     4   9  17  28  38  53  76  97 120 159 205 235
#     4   9  18  30  41  54  74 100 127 162 205 237
#
# _framework density 13.266538000000001
#
# number of rings (size 3 to 8) (size 9 to 14) (size 15 to 20)
#    0.000    3.133    0.667    2.400    1.867    2.533 
#    1.200    0.667    0.000    2.400    0.000    0.000 
#    0.000    0.000    0.000    0.000    0.000    0.667 
#
# Total GULP energy -1487440.466802 kJ/mol
# GULP energy per Si atom -12395.337223 kJ/mol
# Density = 1.323634 g / cm^3
# Si number density = 13.266538 Si / 1000 Ang^3
#
#
#
# Elastic Constant Matrix: (Units=GPa)
#
#
# Indices 1 2 3 4 5 6 
#
# 1 57.9708 49.1659 45.3363 0.0000 0.0000 0.0000
# 2 49.1659 57.9708 45.3363 0.0000 0.0000 0.0000
# 3 45.3363 45.3363 73.4626 0.0000 0.0000 0.0000
# 4 0.0000 0.0000 0.0000 18.7565 0.0000 0.0000
# 5 0.0000 0.0000 0.0000 0.0000 18.7565 0.0000
# 6 0.0000 0.0000 0.0000 0.0000 0.0000 18.3943
#
#
#
# Elastic Compliance Matrix: (Units=1/GPa)
#
#
# Indices 1 2 3 4 5 6 
#
# 1 0.066556 -0.047017 -0.012058 0.000000 0.000000 0.000000
# 2 -0.047017 0.066556 -0.012058 0.000000 0.000000 0.000000
# 3 -0.012058 -0.012058 0.028495 0.000000 0.000000 0.000000
# 4 0.000000 0.000000 0.000000 0.053315 0.000000 0.000000
# 5 0.000000 0.000000 0.000000 0.000000 0.053315 0.000000
# 6 0.000000 0.000000 0.000000 0.000000 0.000000 0.054365
#
#
# Mechanical properties :
#
#
# Convention : Reuss Voigt Hill
#
# Bulk Modulus (GPa) = 51.70450 52.12014 51.91232
# Shear Modulus (GPa) = 10.60861 14.48584 12.54722
#
# Velocity S-wave (km/s) = 2.83088 3.30799 3.07869
# Velocity P-wave (km/s) = 7.05290 7.34592 7.20090
#
# Compressibility (1/GPa) = 0.01934068
#
# Stress axis : x y z
#
# Youngs Moduli (GPa) = 15.02495 15.02495 35.09332
#
# Poissons Ratio (x) = 0.70643 0.42316
# Poissons Ratio (y) = 0.70643 0.42316
# Poissons Ratio (z) = 0.18117 0.18117
#
# Static dielectric constant tensor:
#      x y z
#    x 2.526730 0.000000 0.000000 
#    y 0.000000 2.526730 0.000000 
#    z 0.000000 0.000000 2.686940 
# 
# 
# High freq. dielectric constant tensor:
#      x y z
#    x 1.473350 0.000000 0.000000 
#    y 0.000000 1.473350 0.000000 
#    z 0.000000 0.000000 1.505530 
# 
# From -- ./inp_files/11858.got.cif
#   From: 2010.06.25/outbox.cif.g09.slc.cpg/sg140_6_cif.got.tgz:11858.got - 2010.06.28 10:53:23.
