data_PCOD8320451
_publ_section_title
;
Structure prediction by ZEFSAII (Michael W. Deem and Ramdas Pophale) SiO2 
 PCOD8320451
Probable space group: I 4/M C M
;
_chemical_formula_sum "Si O2"
_cell_formula_units_Z 136
_cell_length_a 16.461342
_cell_length_b 16.461342
_cell_length_c 22.784106
_cell_angle_alpha 90.000000
_cell_angle_beta 90.000000
_cell_angle_gamma 90.000000
_cell_volume 6173.940905
_symmetry_space_group_name_H-M "I 4/M C M"
_symmetry_group_IT_number 140
_symmetry_cell_setting 'tetragonal'
loop_
_space_group_symop_operation_xyz
x,y,z
-y,x,z
-x,-y,z
y,-x,z
x,-y,1/2-z
-x,y,1/2-z
y,x,1/2-z
-y,-x,1/2-z
-x,-y,-z
y,-x,-z
x,y,-z
-y,x,-z
-x,y,1/2+z
x,-y,1/2+z
-y,-x,1/2+z
y,x,1/2+z
1/2+x,1/2+y,1/2+z
1/2-y,1/2+x,1/2+z
1/2-x,1/2-y,1/2+z
1/2+y,1/2-x,1/2+z
1/2+x,1/2-y,-z
1/2-x,1/2+y,-z
1/2+y,1/2+x,-z
1/2-y,1/2-x,-z
1/2-x,1/2-y,1/2-z
1/2+y,1/2-x,1/2-z
1/2+x,1/2+y,1/2-z
1/2-y,1/2+x,1/2-z
1/2-x,1/2+y,z
1/2+x,1/2-y,z
1/2-y,1/2-x,z
1/2+y,1/2+x,z
loop_
_atom_site_type_symbol
_atom_site_label
_atom_site_fract_x
_atom_site_fract_y
_atom_site_fract_z
Si Si1 0.081808 0.194247 0.134249
Si Si2 0.375513 0.875513 0.586268
Si Si3 0.500000 0.000000 0.893127
Si Si4 0.580414 0.305230 0.434293
Si Si5 0.622686 0.877315 0.661191
Si Si6 0.666659 0.166659 0.287013
Si Si7 0.344984 0.344984 0.750000
O O1 0.149371 0.158797 0.090833
O O2 0.097065 0.290321 0.135604
O O3 0.084748 0.154508 0.200286
O O4 0.993713 0.174410 0.108927
O O5 0.401486 0.789783 0.560486
O O6 0.374009 0.874009 0.656927
O O7 0.442516 0.942516 0.566984
O O8 0.443716 0.943716 0.853154
O O9 0.560903 0.336822 0.500000
O O10 0.625766 0.874235 0.731179
O O11 0.651220 0.262952 0.288499
#
# Coordination Sequence:
#
# PCOD8320451 Si02
#       7
#    32  16   8  32  16  16  16
#     4  11  23  44  70 101 136 180 234 290 359 412
#     4  12  23  44  66 100 143 179 229 281 340 422
#     4  12  24  43  65 110 144 176 227 277 350 414
#     4  12  26  45  70  98 135 186 240 286 342 419
#     4  10  22  42  69 100 145 183 222 288 362 429
#     4   9  18  36  66 100 138 177 224 275 342 420
#     4   9  18  38  70 101 132 178 223 287 348 414
#
# _framework density 22.028071000000001
#
# number of rings (size 3 to 8) (size 9 to 14) (size 15 to 20)
#    0.000    1.176    4.706    2.471    0.000    2.824 
#    0.000    5.294    0.000    1.412    0.000    0.000 
#    0.000    0.000    0.000    0.000    0.000    0.000 
#
# Total GULP energy -843310.283969 kJ/mol
# GULP energy per Si atom -12401.621823 kJ/mol
# Density = 2.197793 g / cm^3
# Si number density = 22.028071 Si / 1000 Ang^3
#
#
#
# Elastic Constant Matrix: (Units=GPa)
#
#
# Indices 1 2 3 4 5 6 
#
# 1 88.2178 61.7159 45.8281 0.0000 0.0000 0.0000
# 2 61.7159 88.2178 45.8281 0.0000 0.0000 0.0000
# 3 45.8281 45.8281 144.2344 0.0000 0.0000 0.0000
# 4 0.0000 0.0000 0.0000 45.3757 0.0000 0.0000
# 5 0.0000 0.0000 0.0000 0.0000 45.3757 0.0000
# 6 0.0000 0.0000 0.0000 0.0000 0.0000 46.4400
#
#
#
# Elastic Compliance Matrix: (Units=1/GPa)
#
#
# Indices 1 2 3 4 5 6 
#
# 1 0.023005 -0.014728 -0.002630 0.000000 0.000000 0.000000
# 2 -0.014728 0.023005 -0.002630 0.000000 0.000000 0.000000
# 3 -0.002630 -0.002630 0.008604 0.000000 0.000000 0.000000
# 4 0.000000 0.000000 0.000000 0.022038 0.000000 0.000000
# 5 0.000000 0.000000 0.000000 0.000000 0.022038 0.000000
# 6 0.000000 0.000000 0.000000 0.000000 0.000000 0.021533
#
#
# Mechanical properties :
#
#
# Convention : Reuss Voigt Hill
#
# Bulk Modulus (GPa) = 68.30986 69.71269 69.01127
# Shear Modulus (GPa) = 30.28834 38.59149 34.43991
#
# Velocity S-wave (km/s) = 3.71211 4.19014 3.95835
# Velocity P-wave (km/s) = 7.03212 7.42466 7.23105
#
# Compressibility (1/GPa) = 0.01463918
#
# Stress axis : x y z
#
# Youngs Moduli (GPa) = 43.46832 43.46832 116.21917
#
# Poissons Ratio (x) = 0.64020 0.30566
# Poissons Ratio (y) = 0.64020 0.30566
# Poissons Ratio (z) = 0.11432 0.11432
#
# Static dielectric constant tensor:
#      x y z
#    x 3.939840 0.000000 0.000000 
#    y 0.000000 3.939840 0.000000 
#    z 0.000000 0.000000 3.957150 
# 
# 
# High freq. dielectric constant tensor:
#      x y z
#    x 1.863130 0.000000 0.000000 
#    y 0.000000 1.863130 0.000000 
#    z 0.000000 0.000000 1.871580 
# 
# From -- ./inp_files/8170.got.cif
#   From: 2010.06.25/outbox.cif.g09.slc.cpg/sg140_5_cif.got.tgz:8170.got - 2010.06.28 10:53:23.
