data_PCOD8320513
_publ_section_title
;
Structure prediction by ZEFSAII (Michael W. Deem and Ramdas Pophale) SiO2 
 PCOD8320513
Probable space group: I 4/M C M
;
_chemical_formula_sum "Si O2"
_cell_formula_units_Z 160
_cell_length_a 18.270307
_cell_length_b 18.270307
_cell_length_c 27.080349
_cell_angle_alpha 90.000000
_cell_angle_beta 90.000000
_cell_angle_gamma 90.000000
_cell_volume 9039.532010
_symmetry_space_group_name_H-M "I 4/M C M"
_symmetry_group_IT_number 140
_symmetry_cell_setting 'tetragonal'
loop_
_space_group_symop_operation_xyz
x,y,z
-y,x,z
-x,-y,z
y,-x,z
x,-y,1/2-z
-x,y,1/2-z
y,x,1/2-z
-y,-x,1/2-z
-x,-y,-z
y,-x,-z
x,y,-z
-y,x,-z
-x,y,1/2+z
x,-y,1/2+z
-y,-x,1/2+z
y,x,1/2+z
1/2+x,1/2+y,1/2+z
1/2-y,1/2+x,1/2+z
1/2-x,1/2-y,1/2+z
1/2+y,1/2-x,1/2+z
1/2+x,1/2-y,-z
1/2-x,1/2+y,-z
1/2+y,1/2+x,-z
1/2-y,1/2-x,-z
1/2-x,1/2-y,1/2-z
1/2+y,1/2-x,1/2-z
1/2+x,1/2+y,1/2-z
1/2-y,1/2+x,1/2-z
1/2-x,1/2+y,z
1/2+x,1/2-y,z
1/2-y,1/2-x,z
1/2+y,1/2+x,z
loop_
_atom_site_type_symbol
_atom_site_label
_atom_site_fract_x
_atom_site_fract_y
_atom_site_fract_z
Si Si1 0.817999 0.511070 0.871177
Si Si2 0.864394 0.364394 0.557109
Si Si3 0.057829 0.557829 0.699540
Si Si4 0.283296 0.612108 0.315720
Si Si5 0.264823 0.235177 0.612149
Si Si6 0.843169 0.343169 0.756209
Si Si7 0.085874 0.914127 0.250000
Si Si8 0.653837 0.846163 0.127961
O O1 0.835796 0.560722 0.918565
O O2 0.881752 0.517486 0.831895
O O3 0.743263 0.536884 0.843245
O O4 0.820185 0.427028 0.887904
O O5 0.878718 0.378718 0.500000
O O6 0.802418 0.302418 0.564834
O O7 0.094922 0.594922 0.747673
O O8 0.000000 0.500000 0.719083
O O9 0.276595 0.675135 0.355545
O O10 0.232475 0.629644 0.268334
O O11 0.367867 0.610586 0.298198
O O12 0.205700 0.294301 0.595026
O O13 0.831447 0.331447 0.814061
O O14 0.000000 0.897499 0.250000
#
# Coordination Sequence:
#
# PCOD8320513 Si02
#       8
#    32  16  16  32  16  16  16  16
#     4   9  20  32  52  78 105 140 170 224 272 320
#     4   9  19  43  62  71  96 143 180 204 277 372
#     4   9  15  32  41  68 116 149 189 209 232 306
#     4   9  19  37  49  70 108 144 198 213 262 304
#     4   9  20  35  58  80  98 140 175 233 270 326
#     4   9  20  29  50  73 100 161 179 214 250 300
#     4  11  24  33  46  70 100 147 198 233 252 288
#     4  12  20  30  49  85 113 130 178 221 274 302
#
# _framework density 17.700032
#
# number of rings (size 3 to 8) (size 9 to 14) (size 15 to 20)
#    0.000    2.500    1.000    3.600    5.600    4.000 
#    3.600    2.000    0.000    0.000    0.000    0.000 
#    0.000    0.000    0.000   16.400    0.000    0.000 
#
# Total GULP energy -991246.627799 kJ/mol
# GULP energy per Si atom -12390.582847 kJ/mol
# Density = 1.765975 g / cm^3
# Si number density = 17.700032 Si / 1000 Ang^3
#
#
#
# Elastic Constant Matrix: (Units=GPa)
#
#
# Indices 1 2 3 4 5 6 
#
# 1 98.0176 56.0076 24.1710 0.0000 0.0000 0.0000
# 2 56.0076 98.0205 24.1711 0.0000 0.0000 0.0000
# 3 24.1710 24.1711 82.1178 0.0000 0.0000 0.0000
# 4 0.0000 0.0000 0.0000 11.7801 0.0000 0.0000
# 5 0.0000 0.0000 0.0000 0.0000 11.7807 0.0000
# 6 0.0000 0.0000 0.0000 0.0000 0.0000 28.3721
#
#
#
# Elastic Compliance Matrix: (Units=1/GPa)
#
#
# Indices 1 2 3 4 5 6 
#
# 1 0.015478 -0.008325 -0.002106 0.000000 0.000000 0.000000
# 2 -0.008325 0.015478 -0.002105 0.000000 0.000000 0.000000
# 3 -0.002106 -0.002105 0.013417 0.000000 0.000000 0.000000
# 4 0.000000 0.000000 0.000000 0.084889 0.000000 0.000000
# 5 0.000000 0.000000 0.000000 0.000000 0.084885 0.000000
# 6 0.000000 0.000000 0.000000 0.000000 0.000000 0.035246
#
#
# Mechanical properties :
#
#
# Convention : Reuss Voigt Hill
#
# Bulk Modulus (GPa) = 51.80951 54.09503 52.95227
# Shear Modulus (GPa) = 17.80003 21.97366 19.88685
#
# Velocity S-wave (km/s) = 3.17464 3.52724 3.35557
# Velocity P-wave (km/s) = 6.54004 6.87146 6.70780
#
# Compressibility (1/GPa) = 0.01930148
#
# Stress axis : x y z
#
# Youngs Moduli (GPa) = 64.60623 64.60827 74.53154
#
# Poissons Ratio (x) = 0.53786 0.15693
# Poissons Ratio (y) = 0.53784 0.15692
# Poissons Ratio (z) = 0.13603 0.13603
#
# Static dielectric constant tensor:
#      x y z
#    x 3.426600 0.000000 0.000000 
#    y 0.000000 3.426570 0.000000 
#    z 0.000000 0.000000 2.809440 
# 
# 
# High freq. dielectric constant tensor:
#      x y z
#    x 1.688230 0.000000 0.000000 
#    y 0.000000 1.688230 0.000000 
#    z 0.000000 0.000000 1.636750 
# 
# From -- ./inp_files/11503.got.cif
#   From: 2010.06.25/outbox.cif.g09.slc.cpg/sg140_6_cif.got.tgz:11503.got - 2010.06.28 10:53:23.
