data_PCOD8320116
_publ_section_title
;
Structure prediction by ZEFSAII (Michael W. Deem and Ramdas Pophale) SiO2 
 PCOD8320116
Probable space group: I 4/M C M
;
_chemical_formula_sum "Si O2"
_cell_formula_units_Z 96
_cell_length_a 21.806877
_cell_length_b 21.806877
_cell_length_c 9.430043
_cell_angle_alpha 90.000000
_cell_angle_beta 90.000000
_cell_angle_gamma 90.000000
_cell_volume 4484.361559
_symmetry_space_group_name_H-M "I 4/M C M"
_symmetry_group_IT_number 140
_symmetry_cell_setting 'tetragonal'
loop_
_space_group_symop_operation_xyz
x,y,z
-y,x,z
-x,-y,z
y,-x,z
x,-y,1/2-z
-x,y,1/2-z
y,x,1/2-z
-y,-x,1/2-z
-x,-y,-z
y,-x,-z
x,y,-z
-y,x,-z
-x,y,1/2+z
x,-y,1/2+z
-y,-x,1/2+z
y,x,1/2+z
1/2+x,1/2+y,1/2+z
1/2-y,1/2+x,1/2+z
1/2-x,1/2-y,1/2+z
1/2+y,1/2-x,1/2+z
1/2+x,1/2-y,-z
1/2-x,1/2+y,-z
1/2+y,1/2+x,-z
1/2-y,1/2-x,-z
1/2-x,1/2-y,1/2-z
1/2+y,1/2-x,1/2-z
1/2+x,1/2+y,1/2-z
1/2-y,1/2+x,1/2-z
1/2-x,1/2+y,z
1/2+x,1/2-y,z
1/2-y,1/2-x,z
1/2+y,1/2+x,z
loop_
_atom_site_type_symbol
_atom_site_label
_atom_site_fract_x
_atom_site_fract_y
_atom_site_fract_z
Si Si1 0.771563 0.150502 0.344140
Si Si2 0.550931 0.372697 0.656339
Si Si3 0.337470 0.936156 0.334314
O O1 0.789995 0.210005 0.250000
O O2 0.751502 0.174129 0.500000
O O3 0.831078 0.109556 0.361243
O O4 0.715515 0.110634 0.278500
O O5 0.500000 0.336835 0.750000
O O6 0.567266 0.432735 0.750000
O O7 0.525749 0.390474 0.500000
O O8 0.325804 0.950797 0.500000
O O9 0.403262 0.903262 0.311271
O O10 0.336012 0.000000 0.250000
#
# Coordination Sequence:
#
# PCOD8320116 Si02
#       3
#    32  32  32
#     4   9  19  35  56  83 114 147 184 231 286 344
#     4  10  19  31  47  68  96 132 175 222 274 331
#     4  10  22  40  61  87 120 157 199 247 297 350
#
# _framework density 21.407729
#
# number of rings (size 3 to 8) (size 9 to 14) (size 15 to 20)
#    0.000    2.333    0.000    2.000    0.000    4.667 
#    0.000    3.333    0.000    0.000    0.000    0.000 
#    0.000    0.000    0.000    0.000    0.000    0.000 
#
# Total GULP energy -594680.408481 kJ/mol
# GULP energy per Si atom -12389.175177 kJ/mol
# Density = 2.135900 g / cm^3
# Si number density = 21.407729 Si / 1000 Ang^3
#
#
#
# Elastic Constant Matrix: (Units=GPa)
#
#
# Indices 1 2 3 4 5 6 
#
# 1 47.4027 110.3149 59.3049 0.0000 0.0000 0.0000
# 2 110.3149 47.3925 59.3019 0.0000 0.0000 0.0000
# 3 59.3049 59.3019 141.3516 0.0000 0.0000 0.0000
# 4 0.0000 0.0000 0.0000 -42.1462 0.0000 0.0000
# 5 0.0000 0.0000 0.0000 0.0000 -42.1487 0.0000
# 6 0.0000 0.0000 0.0000 0.0000 0.0000 25.3525
#
#
#
# Elastic Compliance Matrix: (Units=1/GPa)
#
#
# Indices 1 2 3 4 5 6 
#
# 1 -0.003315 0.012579 -0.003887 0.000000 0.000000 0.000000
# 2 0.012579 -0.003316 -0.003886 0.000000 0.000000 0.000000
# 3 -0.003887 -0.003886 0.010336 0.000000 0.000000 0.000000
# 4 0.000000 0.000000 0.000000 -0.023727 0.000000 0.000000
# 5 0.000000 0.000000 0.000000 0.000000 -0.023726 0.000000
# 6 0.000000 0.000000 0.000000 0.000000 0.000000 0.039444
#
#
# Mechanical properties :
#
#
# Convention : Reuss Voigt Hill
#
# Bulk Modulus (GPa) = 75.09336 77.11003 76.10169
# Shear Modulus (GPa) = -527.64413 -11.30682 -269.47547
#
# Velocity S-wave (km/s) = -15.71651 -2.30068 -11.23169
# Velocity P-wave (km/s) = 17.15200 5.38892 11.51414
#
# Compressibility (1/GPa) = 0.01331676
#
# Stress axis : x y z
#
# Youngs Moduli (GPa) = -301.69044 -301.58667 96.75271
#
# Poissons Ratio (x) = 3.79355 0.37603
# Poissons Ratio (y) = 3.79486 0.37602
# Poissons Ratio (z) = -1.17252 -1.17207
#
# Static dielectric constant tensor:
#      x y z
#    x 3.749410 0.000000 0.000000 
#    y 0.000000 3.749440 0.000000 
#    z 0.000000 0.000000 4.450860 
# 
# 
# High freq. dielectric constant tensor:
#      x y z
#    x 1.837980 0.000000 0.000000 
#    y 0.000000 1.837980 0.000000 
#    z 0.000000 0.000000 1.837900 
# 
# From -- ./inp_files/918.got.cif
#   From: 2010.06.25/outbox.cif.g09.slc.cpg/sg140_1_cif.got.tgz:918.got - 2010.06.28 10:53:23.
