data_PCOD8320259
_publ_section_title
;
Structure prediction by ZEFSAII (Michael W. Deem and Ramdas Pophale) SiO2 
 PCOD8320259
Probable space group: I 4/M C M
;
_chemical_formula_sum "Si O2"
_cell_formula_units_Z 240
_cell_length_a 19.537009
_cell_length_b 19.537009
_cell_length_c 33.441848
_cell_angle_alpha 90.000000
_cell_angle_beta 90.000000
_cell_angle_gamma 90.000000
_cell_volume 12764.576831
_symmetry_space_group_name_H-M "I 4/M C M"
_symmetry_group_IT_number 140
_symmetry_cell_setting 'tetragonal'
loop_
_space_group_symop_operation_xyz
x,y,z
-y,x,z
-x,-y,z
y,-x,z
x,-y,1/2-z
-x,y,1/2-z
y,x,1/2-z
-y,-x,1/2-z
-x,-y,-z
y,-x,-z
x,y,-z
-y,x,-z
-x,y,1/2+z
x,-y,1/2+z
-y,-x,1/2+z
y,x,1/2+z
1/2+x,1/2+y,1/2+z
1/2-y,1/2+x,1/2+z
1/2-x,1/2-y,1/2+z
1/2+y,1/2-x,1/2+z
1/2+x,1/2-y,-z
1/2-x,1/2+y,-z
1/2+y,1/2+x,-z
1/2-y,1/2-x,-z
1/2-x,1/2-y,1/2-z
1/2+y,1/2-x,1/2-z
1/2+x,1/2+y,1/2-z
1/2-y,1/2+x,1/2-z
1/2-x,1/2+y,z
1/2+x,1/2-y,z
1/2-y,1/2-x,z
1/2+y,1/2+x,z
loop_
_atom_site_type_symbol
_atom_site_label
_atom_site_fract_x
_atom_site_fract_y
_atom_site_fract_z
Si Si1 0.202755 0.875155 0.412554
Si Si2 0.626075 0.763242 0.590170
Si Si3 0.091358 0.063391 0.956783
Si Si4 0.424559 0.810273 0.253109
Si Si5 0.205427 0.515907 0.047095
Si Si6 0.445427 0.945427 0.547513
Si Si7 0.862106 0.247876 0.319791
Si Si8 0.859182 0.755515 0.674321
O O1 0.183875 0.794995 0.421146
O O2 0.129457 0.910265 0.417671
O O3 0.252203 0.914354 0.443872
O O4 0.234667 0.891305 0.369438
O O5 0.663975 0.836026 0.583419
O O6 0.554403 0.762964 0.565863
O O7 0.604213 0.752118 0.636373
O O8 0.017061 0.093942 0.954426
O O9 0.123658 0.085698 0.000000
O O10 0.500000 0.841566 0.250000
O O11 0.372843 0.872843 0.252032
O O12 0.416639 0.759840 0.215202
O O13 0.416168 0.766490 0.293722
O O14 0.128965 0.531018 0.063567
O O15 0.205428 0.503382 0.000000
O O16 0.443772 0.943772 0.500000
O O17 0.500000 0.000000 0.563985
O O18 0.804449 0.304449 0.315711
O O19 0.827305 0.174207 0.312256
O O20 0.801958 0.698043 0.670721
#
# Coordination Sequence:
#
# PCOD8320259 Si02
#       8
#    32  32  32  32  32  16  32  32
#     4  11  21  33  56  84 117 145 187 243 298 347
#     4  10  22  39  60  85 116 153 195 247 304 350
#     4   9  18  34  54  75 106 150 194 233 285 358
#     4  10  20  34  56  83 114 149 182 219 268 331
#     4  11  24  38  57  83 115 156 198 247 302 356
#     4   9  20  40  60  76 104 152 207 243 279 349
#     4   8  16  34  58  80 105 140 184 230 278 337
#     4   9  19  35  55  80 108 142 180 226 281 334
#
# _framework density 18.802033000000002
#
# number of rings (size 3 to 8) (size 9 to 14) (size 15 to 20)
#    0.000    2.333    0.000    3.600    3.733    4.667 
#    0.000    0.000    0.000    0.000    0.000    0.000 
#    0.000    1.067    0.000    0.000    0.000    0.000 
#
# Total GULP energy -1486597.618034 kJ/mol
# GULP energy per Si atom -12388.313484 kJ/mol
# Density = 1.875924 g / cm^3
# Si number density = 18.802033 Si / 1000 Ang^3
#
#
#
# Elastic Constant Matrix: (Units=GPa)
#
#
# Indices 1 2 3 4 5 6 
#
# 1 60.2704 41.1254 40.2054 0.0000 0.0000 0.0000
# 2 41.1254 60.2704 40.2054 0.0000 0.0000 0.0000
# 3 40.2054 40.2054 95.3734 0.0000 0.0000 0.0000
# 4 0.0000 0.0000 0.0000 26.7864 0.0000 0.0000
# 5 0.0000 0.0000 0.0000 0.0000 26.7864 0.0000
# 6 0.0000 0.0000 0.0000 0.0000 0.0000 21.7754
#
#
#
# Elastic Compliance Matrix: (Units=1/GPa)
#
#
# Indices 1 2 3 4 5 6 
#
# 1 0.033524 -0.018709 -0.006245 0.000000 0.000000 0.000000
# 2 -0.018709 0.033524 -0.006245 0.000000 0.000000 0.000000
# 3 -0.006245 -0.006245 0.015751 0.000000 0.000000 0.000000
# 4 0.000000 0.000000 0.000000 0.037332 0.000000 0.000000
# 5 0.000000 0.000000 0.000000 0.000000 0.037332 0.000000
# 6 0.000000 0.000000 0.000000 0.000000 0.000000 0.045923
#
#
# Mechanical properties :
#
#
# Convention : Reuss Voigt Hill
#
# Bulk Modulus (GPa) = 49.02122 50.99852 50.00987
# Shear Modulus (GPa) = 18.34280 21.36151 19.85216
#
# Velocity S-wave (km/s) = 3.12681 3.37431 3.25291
# Velocity P-wave (km/s) = 6.25818 6.50877 6.38470
#
# Compressibility (1/GPa) = 0.02039933
#
# Stress axis : x y z
#
# Youngs Moduli (GPa) = 29.82929 29.82929 63.48888
#
# Poissons Ratio (x) = 0.55807 0.39652
# Poissons Ratio (y) = 0.55807 0.39652
# Poissons Ratio (z) = 0.18630 0.18630
#
# Static dielectric constant tensor:
#      x y z
#    x 3.455660 0.000000 0.000000 
#    y 0.000000 3.455660 0.000000 
#    z 0.000000 0.000000 3.616760 
# 
# 
# High freq. dielectric constant tensor:
#      x y z
#    x 1.724140 0.000000 0.000000 
#    y 0.000000 1.724140 0.000000 
#    z 0.000000 0.000000 1.724570 
# 
# From -- ./inp_files/11791.got.cif
#   From: 2010.06.25/outbox.cif.g09.slc.cpg/sg140_6_cif.got.tgz:11791.got - 2010.06.28 10:53:23.
