data_PCOD8320372
_publ_section_title
;
Structure prediction by ZEFSAII (Michael W. Deem and Ramdas Pophale) SiO2 
 PCOD8320372
Probable space group: I 4/M C M
;
_chemical_formula_sum "Si O2"
_cell_formula_units_Z 112
_cell_length_a 19.138445
_cell_length_b 19.138445
_cell_length_c 15.995676
_cell_angle_alpha 90.000000
_cell_angle_beta 90.000000
_cell_angle_gamma 90.000000
_cell_volume 5858.897437
_symmetry_space_group_name_H-M "I 4/M C M"
_symmetry_group_IT_number 140
_symmetry_cell_setting 'tetragonal'
loop_
_space_group_symop_operation_xyz
x,y,z
-y,x,z
-x,-y,z
y,-x,z
x,-y,1/2-z
-x,y,1/2-z
y,x,1/2-z
-y,-x,1/2-z
-x,-y,-z
y,-x,-z
x,y,-z
-y,x,-z
-x,y,1/2+z
x,-y,1/2+z
-y,-x,1/2+z
y,x,1/2+z
1/2+x,1/2+y,1/2+z
1/2-y,1/2+x,1/2+z
1/2-x,1/2-y,1/2+z
1/2+y,1/2-x,1/2+z
1/2+x,1/2-y,-z
1/2-x,1/2+y,-z
1/2+y,1/2+x,-z
1/2-y,1/2-x,-z
1/2-x,1/2-y,1/2-z
1/2+y,1/2-x,1/2-z
1/2+x,1/2+y,1/2-z
1/2-y,1/2+x,1/2-z
1/2-x,1/2+y,z
1/2+x,1/2-y,z
1/2-y,1/2-x,z
1/2+y,1/2+x,z
loop_
_atom_site_type_symbol
_atom_site_label
_atom_site_fract_x
_atom_site_fract_y
_atom_site_fract_z
Si Si1 0.386341 0.489991 0.000000
Si Si2 0.286499 0.674404 0.158209
Si Si3 0.706624 0.487196 0.842571
Si Si4 0.390671 0.780455 0.904873
O O1 0.437014 0.424886 0.000000
O O2 0.343208 0.483296 0.914766
O O3 0.317759 0.682242 0.250000
O O4 0.211083 0.711083 0.149499
O O5 0.275175 0.592917 0.137998
O O6 0.342842 0.710296 0.097219
O O7 0.673783 0.500000 0.750000
O O8 0.774308 0.538553 0.849484
O O9 0.345131 0.845131 0.868536
O O10 0.412267 0.794344 0.000000
#
# Coordination Sequence:
#
# PCOD8320372 Si02
#       4
#    16  32  32  32
#     4  11  26  40  52  80 122 159 200 244 288 355
#     4  10  21  37  58  86 116 149 199 254 294 341
#     4  12  23  36  61  86 115 158 198 244 303 358
#     4  10  21  38  58  84 116 154 197 245 294 348
#
# _framework density 19.116223999999999
#
# number of rings (size 3 to 8) (size 9 to 14) (size 15 to 20)
#    0.000    1.286    4.286    1.714    2.000    0.000 
#    0.000    1.429    0.000    0.857    0.000    4.000 
#    0.000    0.000    0.000    0.000    0.000    0.000 
#
# Total GULP energy -694161.518290 kJ/mol
# GULP energy per Si atom -12395.741398 kJ/mol
# Density = 1.907272 g / cm^3
# Si number density = 19.116224 Si / 1000 Ang^3
#
#
#
# Elastic Constant Matrix: (Units=GPa)
#
#
# Indices 1 2 3 4 5 6 
#
# 1 119.4125 21.7345 13.0374 0.0000 0.0000 0.0000
# 2 21.7345 119.4121 13.0357 0.0000 0.0000 0.0000
# 3 13.0374 13.0357 99.2775 0.0000 0.0000 0.0000
# 4 0.0000 0.0000 0.0000 12.2434 0.0000 0.0000
# 5 0.0000 0.0000 0.0000 0.0000 12.2427 0.0000
# 6 0.0000 0.0000 0.0000 0.0000 0.0000 -45.6491
#
#
#
# Elastic Compliance Matrix: (Units=1/GPa)
#
#
# Indices 1 2 3 4 5 6 
#
# 1 0.008749 -0.001488 -0.000954 0.000000 0.000000 0.000000
# 2 -0.001488 0.008749 -0.000953 0.000000 0.000000 0.000000
# 3 -0.000954 -0.000953 0.010323 0.000000 0.000000 0.000000
# 4 0.000000 0.000000 0.000000 0.081676 0.000000 0.000000
# 5 0.000000 0.000000 0.000000 0.000000 0.081681 0.000000
# 6 0.000000 0.000000 0.000000 0.000000 0.000000 -0.021906
#
#
# Mechanical properties :
#
#
# Convention : Reuss Voigt Hill
#
# Bulk Modulus (GPa) = 47.54838 48.19082 47.86960
# Shear Modulus (GPa) = 27.31132 15.12037 21.21584
#
# Velocity S-wave (km/s) = 3.78391 2.81547 3.33503
# Velocity P-wave (km/s) = 6.63460 5.98609 6.31867
#
# Compressibility (1/GPa) = 0.02103121
#
# Stress axis : x y z
#
# Youngs Moduli (GPa) = 114.29420 114.29428 96.86937
#
# Poissons Ratio (x) = 0.17011 0.09237
# Poissons Ratio (y) = 0.17011 0.09235
# Poissons Ratio (z) = 0.10899 0.10897
#
# Static dielectric constant tensor:
#      x y z
#    x 3.552360 0.000000 0.000000 
#    y 0.000000 3.552360 0.000000 
#    z 0.000000 0.000000 3.600330 
# 
# 
# High freq. dielectric constant tensor:
#      x y z
#    x 1.728940 0.000000 0.000000 
#    y 0.000000 1.728940 0.000000 
#    z 0.000000 0.000000 1.754230 
# 
# From -- ./inp_files/6091.got.cif
#   From: 2010.06.25/outbox.cif.g09.slc.cpg/sg140_4_cif.got.tgz:6091.got - 2010.06.28 10:53:23.
