data_PCOD8320449
_publ_section_title
;
Structure prediction by ZEFSAII (Michael W. Deem and Ramdas Pophale) SiO2 
 PCOD8320449
Probable space group: I 4/M C M
;
_chemical_formula_sum "Si O2"
_cell_formula_units_Z 128
_cell_length_a 20.213479
_cell_length_b 20.213479
_cell_length_c 15.178835
_cell_angle_alpha 90.000000
_cell_angle_beta 90.000000
_cell_angle_gamma 90.000000
_cell_volume 6201.840250
_symmetry_space_group_name_H-M "I 4/M C M"
_symmetry_group_IT_number 140
_symmetry_cell_setting 'tetragonal'
loop_
_space_group_symop_operation_xyz
x,y,z
-y,x,z
-x,-y,z
y,-x,z
x,-y,1/2-z
-x,y,1/2-z
y,x,1/2-z
-y,-x,1/2-z
-x,-y,-z
y,-x,-z
x,y,-z
-y,x,-z
-x,y,1/2+z
x,-y,1/2+z
-y,-x,1/2+z
y,x,1/2+z
1/2+x,1/2+y,1/2+z
1/2-y,1/2+x,1/2+z
1/2-x,1/2-y,1/2+z
1/2+y,1/2-x,1/2+z
1/2+x,1/2-y,-z
1/2-x,1/2+y,-z
1/2+y,1/2+x,-z
1/2-y,1/2-x,-z
1/2-x,1/2-y,1/2-z
1/2+y,1/2-x,1/2-z
1/2+x,1/2+y,1/2-z
1/2-y,1/2+x,1/2-z
1/2-x,1/2+y,z
1/2+x,1/2-y,z
1/2-y,1/2-x,z
1/2+y,1/2+x,z
loop_
_atom_site_type_symbol
_atom_site_label
_atom_site_fract_x
_atom_site_fract_y
_atom_site_fract_z
Si Si1 0.282288 0.608248 0.654093
Si Si2 0.601754 0.472618 0.604148
Si Si3 0.422636 0.183732 0.500000
Si Si4 0.647436 0.743257 0.847218
Si Si5 0.687125 0.922914 0.000000
O O1 0.329490 0.543878 0.651815
O O2 0.222822 0.599989 0.586467
O O3 0.251896 0.616081 0.750566
O O4 0.328552 0.670100 0.627261
O O5 0.579898 0.545656 0.633595
O O6 0.612072 0.469004 0.500000
O O7 0.387038 0.112963 0.500000
O O8 0.500443 0.168589 0.500000
O O9 0.712184 0.787817 0.852328
O O10 0.592227 0.768173 0.914878
O O11 0.619849 0.880152 0.000000
#
# Coordination Sequence:
#
# PCOD8320449 Si02
#       5
#    32  32  16  32  16
#     4  11  21  36  65  94 128 156 204 254 309 361
#     4   9  19  35  55  86 130 174 210 241 286 360
#     4  12  25  40  65  99 127 152 199 266 322 373
#     4  10  22  42  63  88 122 162 206 254 312 369
#     4  10  25  46  67  86 120 169 210 253 313 384
#
# _framework density 20.639036999999998
#
# number of rings (size 3 to 8) (size 9 to 14) (size 15 to 20)
#    0.000    1.750    1.250    4.500    3.500    2.250 
#    4.500    0.000    0.000    6.000    0.000    3.500 
#    0.000    0.000    0.000    0.000    0.000    0.000 
#
# Total GULP energy -793865.257391 kJ/mol
# GULP energy per Si atom -12404.144647 kJ/mol
# Density = 2.059206 g / cm^3
# Si number density = 20.639037 Si / 1000 Ang^3
#
#
#
# Elastic Constant Matrix: (Units=GPa)
#
#
# Indices 1 2 3 4 5 6 
#
# 1 102.4248 35.7802 51.8062 0.0000 0.0000 0.0000
# 2 35.7802 102.4280 51.8067 0.0000 0.0000 0.0000
# 3 51.8062 51.8067 102.9532 0.0000 0.0000 0.0000
# 4 0.0000 0.0000 0.0000 16.2378 0.0000 0.0000
# 5 0.0000 0.0000 0.0000 0.0000 16.2369 0.0000
# 6 0.0000 0.0000 0.0000 0.0000 0.0000 32.7669
#
#
#
# Elastic Compliance Matrix: (Units=1/GPa)
#
#
# Indices 1 2 3 4 5 6 
#
# 1 0.013312 -0.001693 -0.005847 0.000000 0.000000 0.000000
# 2 -0.001693 0.013311 -0.005846 0.000000 0.000000 0.000000
# 3 -0.005847 -0.005846 0.015597 0.000000 0.000000 0.000000
# 4 0.000000 0.000000 0.000000 0.061585 0.000000 0.000000
# 5 0.000000 0.000000 0.000000 0.000000 0.061588 0.000000
# 6 0.000000 0.000000 0.000000 0.000000 0.000000 0.030519
#
#
# Mechanical properties :
#
#
# Convention : Reuss Voigt Hill
#
# Bulk Modulus (GPa) = 64.73209 65.17691 64.95450
# Shear Modulus (GPa) = 21.94586 24.27586 23.11086
#
# Velocity S-wave (km/s) = 3.26439 3.43331 3.34992
# Velocity P-wave (km/s) = 6.75576 6.88221 6.81928
#
# Compressibility (1/GPa) = 0.01544829
#
# Stress axis : x y z
#
# Youngs Moduli (GPa) = 75.12088 75.12349 64.11417
#
# Poissons Ratio (x) = 0.12718 0.37485
# Poissons Ratio (y) = 0.12718 0.37484
# Poissons Ratio (z) = 0.43921 0.43921
#
# Static dielectric constant tensor:
#      x y z
#    x 3.737360 0.000000 0.000000 
#    y 0.000000 3.737350 0.000000 
#    z 0.000000 0.000000 4.620430 
# 
# 
# High freq. dielectric constant tensor:
#      x y z
#    x 1.802660 0.000000 0.000000 
#    y 0.000000 1.802660 0.000000 
#    z 0.000000 0.000000 1.812790 
# 
# From -- ./inp_files/4389.got.cif
#   From: 2010.06.25/outbox.cif.g09.slc.cpg/sg140_3_cif.got.tgz:4389.got - 2010.06.28 10:53:23.
