data_PCOD8320612
_publ_section_title
;
Structure prediction by ZEFSAII (Michael W. Deem and Ramdas Pophale) SiO2 
 PCOD8320612
Probable space group: I 41/A M D
;
_chemical_formula_sum "Si O2"
_cell_formula_units_Z 176
_cell_length_a 17.360218
_cell_length_b 17.360218
_cell_length_c 35.708754
_cell_angle_alpha 90.000000
_cell_angle_beta 90.000000
_cell_angle_gamma 90.000000
_cell_volume 10761.803189
_symmetry_space_group_name_H-M "I 41/A M D"
_symmetry_group_IT_number 141
_space_group.IT_coordinate_system_code '2'
_symmetry_cell_setting 'tetragonal'
loop_
_space_group_symop_operation_xyz
x,y,z
1/4-y,3/4+x,1/4+z
-x,1/2-y,z
1/4+y,1/4-x,3/4+z
x,-y,-z
-x,1/2+y,-z
1/4+y,3/4+x,1/4-z
1/4-y,1/4-x,3/4-z
-x,-y,-z
3/4+y,1/4-x,3/4-z
x,1/2+y,-z
3/4-y,3/4+x,1/4-z
-x,y,z
x,1/2-y,z
3/4-y,1/4-x,3/4+z
3/4+y,3/4+x,1/4+z
1/2+x,1/2+y,1/2+z
3/4-y,1/4+x,3/4+z
1/2-x,-y,1/2+z
3/4+y,3/4-x,1/4+z
1/2+x,1/2-y,1/2-z
1/2-x,y,1/2-z
3/4+y,1/4+x,3/4-z
3/4-y,3/4-x,1/4-z
1/2-x,1/2-y,1/2-z
1/4+y,3/4-x,1/4-z
1/2+x,y,1/2-z
1/4-y,1/4+x,3/4-z
1/2-x,1/2+y,1/2+z
1/2+x,-y,1/2+z
1/4-y,3/4-x,1/4+z
1/4+y,1/4+x,3/4+z
loop_
_atom_site_type_symbol
_atom_site_label
_atom_site_fract_x
_atom_site_fract_y
_atom_site_fract_z
Si Si1 0.850916 0.580575 0.423231
Si Si2 0.668300 0.837335 0.003836
Si Si3 0.090330 0.507453 0.317901
Si Si4 0.415007 0.750000 0.777451
Si Si5 0.414233 0.340527 0.397003
Si Si6 0.246842 0.750000 0.704583
Si Si7 0.203773 0.046228 0.375000
O O1 0.808890 0.618022 0.458679
O O2 0.872076 0.646089 0.393162
O O3 0.789067 0.522336 0.405207
O O4 0.925720 0.534495 0.436552
O O5 0.694222 0.750000 0.009141
O O6 0.718768 0.873856 0.969937
O O7 0.576167 0.843506 0.998144
O O8 0.112862 0.598436 0.322156
O O9 0.122765 0.460799 0.353524
O O10 0.000000 0.494237 0.319394
O O11 0.500000 0.750000 0.797021
O O12 0.344500 0.750000 0.806859
O O13 0.500000 0.367473 0.410216
O O14 0.413023 0.250000 0.390887
O O15 0.250000 0.750000 0.750000
#
# Coordination Sequence:
#
# PCOD8320612 Si02
#       7
#    32  32  32  16  32  16  16
#     4  11  20  32  46  73  91 126 162 203 245 291
#     4  10  19  32  49  68  97 123 163 208 244 281
#     4   9  19  34  45  67  94 128 160 202 243 290
#     4  10  20  30  42  68  96 134 168 206 240 274
#     4   9  17  31  50  70  92 118 156 210 259 290
#     4  12  20  30  48  70  94 126 168 218 246 269
#     4  10  22  30  46  63  94 130 158 193 238 288
#
# _framework density 16.354136
#
# number of rings (size 3 to 8) (size 9 to 14) (size 15 to 20)
#    0.000    2.000    2.727    1.636    1.273    0.000 
#    1.636    0.000    0.000    0.000    0.000   11.455 
#    0.000    0.000    0.000    0.000    0.000   72.000 
#
# Total GULP energy -1090550.848352 kJ/mol
# GULP energy per Si atom -12392.623277 kJ/mol
# Density = 1.631691 g / cm^3
# Si number density = 16.354136 Si / 1000 Ang^3
#
#
#
# Elastic Constant Matrix: (Units=GPa)
#
#
# Indices 1 2 3 4 5 6 
#
# 1 75.8016 28.7989 47.1447 0.0000 0.0000 0.0000
# 2 28.7989 75.8010 47.1446 0.0000 0.0000 0.0000
# 3 47.1447 47.1446 110.1361 0.0000 0.0000 0.0000
# 4 0.0000 0.0000 0.0000 22.5546 0.0000 0.0000
# 5 0.0000 0.0000 0.0000 0.0000 22.5547 0.0000
# 6 0.0000 0.0000 0.0000 0.0000 0.0000 11.6724
#
#
#
# Elastic Compliance Matrix: (Units=1/GPa)
#
#
# Indices 1 2 3 4 5 6 
#
# 1 0.018421 -0.002854 -0.006664 0.000000 0.000000 0.000000
# 2 -0.002854 0.018421 -0.006664 0.000000 0.000000 0.000000
# 3 -0.006664 -0.006664 0.014784 0.000000 0.000000 0.000000
# 4 0.000000 0.000000 0.000000 0.044337 0.000000 0.000000
# 5 0.000000 0.000000 0.000000 0.000000 0.044337 0.000000
# 6 0.000000 0.000000 0.000000 0.000000 0.000000 0.085672
#
#
# Mechanical properties :
#
#
# Convention : Reuss Voigt Hill
#
# Bulk Modulus (GPa) = 51.91007 56.43500 54.17253
# Shear Modulus (GPa) = 18.88527 20.59971 19.74249
#
# Velocity S-wave (km/s) = 3.40188 3.55294 3.47823
# Velocity P-wave (km/s) = 6.87317 7.17037 7.02334
#
# Compressibility (1/GPa) = 0.01926408
#
# Stress axis : x y z
#
# Youngs Moduli (GPa) = 54.28552 54.28506 67.63877
#
# Poissons Ratio (x) = 0.15495 0.45071
# Poissons Ratio (y) = 0.15495 0.45071
# Poissons Ratio (z) = 0.36173 0.36173
#
# Static dielectric constant tensor:
#      x y z
#    x 3.209740 0.000000 0.000000 
#    y 0.000000 3.209730 0.000000 
#    z 0.000000 0.000000 3.191630 
# 
# 
# High freq. dielectric constant tensor:
#      x y z
#    x 1.612500 0.000000 0.000000 
#    y 0.000000 1.612500 0.000000 
#    z 0.000000 0.000000 1.617810 
# 
# From -- ./inp_files/14434.got.cif
#   From: 2010.03.12/outbox.cif.g09.slc.cpg/sg141_8_cif.got.tgz:14434.got - 2010.04.03 13:18:35.
