data_PCOD8320327
_publ_section_title
;
Structure prediction by ZEFSAII (Michael W. Deem and Ramdas Pophale) SiO2 
 PCOD8320327
Probable space group: I 4/M C M
;
_chemical_formula_sum "Si O2"
_cell_formula_units_Z 80
_cell_length_a 15.537193
_cell_length_b 15.537193
_cell_length_c 12.834667
_cell_angle_alpha 90.000000
_cell_angle_beta 90.000000
_cell_angle_gamma 90.000000
_cell_volume 3098.344654
_symmetry_space_group_name_H-M "I 4/M C M"
_symmetry_group_IT_number 140
_symmetry_cell_setting 'tetragonal'
loop_
_space_group_symop_operation_xyz
x,y,z
-y,x,z
-x,-y,z
y,-x,z
x,-y,1/2-z
-x,y,1/2-z
y,x,1/2-z
-y,-x,1/2-z
-x,-y,-z
y,-x,-z
x,y,-z
-y,x,-z
-x,y,1/2+z
x,-y,1/2+z
-y,-x,1/2+z
y,x,1/2+z
1/2+x,1/2+y,1/2+z
1/2-y,1/2+x,1/2+z
1/2-x,1/2-y,1/2+z
1/2+y,1/2-x,1/2+z
1/2+x,1/2-y,-z
1/2-x,1/2+y,-z
1/2+y,1/2+x,-z
1/2-y,1/2-x,-z
1/2-x,1/2-y,1/2-z
1/2+y,1/2-x,1/2-z
1/2+x,1/2+y,1/2-z
1/2-y,1/2+x,1/2-z
1/2-x,1/2+y,z
1/2+x,1/2-y,z
1/2-y,1/2-x,z
1/2+y,1/2+x,z
loop_
_atom_site_type_symbol
_atom_site_label
_atom_site_fract_x
_atom_site_fract_y
_atom_site_fract_z
Si Si1 0.384837 0.253235 0.835979
Si Si2 0.587990 0.388772 0.500000
Si Si3 0.211050 0.574134 0.616008
O O1 0.304660 0.195341 0.871562
O O2 0.384233 0.268177 0.710191
O O3 0.471988 0.202972 0.868927
O O4 0.378166 0.343908 0.894859
O O5 0.619702 0.485574 0.500000
O O6 0.251235 0.594947 0.500000
O O7 0.115580 0.615580 0.622543
#
# Coordination Sequence:
#
# PCOD8320327 Si02
#       3
#    32  16  32
#     4  10  20  39  70 102 135 176 228 289 346 411
#     4  11  25  46  70  95 133 189 242 289 350 415
#     4   9  18  34  63 104 145 180 215 270 351 431
#
# _framework density 25.820239999999998
#
# number of rings (size 3 to 8) (size 9 to 14) (size 15 to 20)
#    0.000    2.200    2.000    0.600    0.000    0.800 
#    0.000   18.000    0.000   21.600    0.000    0.000 
#    0.000    0.000    0.000    0.000    0.000    0.000 
#
# Total GULP energy -495942.307242 kJ/mol
# GULP energy per Si atom -12398.557681 kJ/mol
# Density = 2.576147 g / cm^3
# Si number density = 25.820240 Si / 1000 Ang^3
#
#
#
# Elastic Constant Matrix: (Units=GPa)
#
#
# Indices 1 2 3 4 5 6 
#
# 1 110.7157 52.7200 87.1214 0.0000 0.0000 0.0000
# 2 52.7200 110.7157 87.1214 0.0000 0.0000 0.0000
# 3 87.1214 87.1214 242.4462 0.0000 0.0000 0.0000
# 4 0.0000 0.0000 0.0000 44.0896 0.0000 0.0000
# 5 0.0000 0.0000 0.0000 0.0000 44.0896 0.0000
# 6 0.0000 0.0000 0.0000 0.0000 0.0000 11.5043
#
#
#
# Elastic Compliance Matrix: (Units=1/GPa)
#
#
# Indices 1 2 3 4 5 6 
#
# 1 0.013581 -0.003662 -0.003564 0.000000 0.000000 0.000000
# 2 -0.003662 0.013581 -0.003564 0.000000 0.000000 0.000000
# 3 -0.003564 -0.003564 0.006686 0.000000 0.000000 0.000000
# 4 0.000000 0.000000 0.000000 0.022681 0.000000 0.000000
# 5 0.000000 0.000000 0.000000 0.000000 0.022681 0.000000
# 6 0.000000 0.000000 0.000000 0.000000 0.000000 0.086924
#
#
# Mechanical properties :
#
#
# Convention : Reuss Voigt Hill
#
# Bulk Modulus (GPa) = 81.52309 101.97816 91.75062
# Shear Modulus (GPa) = 26.06843 35.73103 30.89973
#
# Velocity S-wave (km/s) = 3.18089 3.72403 3.46312
# Velocity P-wave (km/s) = 6.71808 7.62053 7.18349
#
# Compressibility (1/GPa) = 0.01226646
#
# Stress axis : x y z
#
# Youngs Moduli (GPa) = 73.63477 73.63477 149.56388
#
# Poissons Ratio (x) = 0.26966 0.53306
# Poissons Ratio (y) = 0.26966 0.53306
# Poissons Ratio (z) = 0.26244 0.26244
#
# Static dielectric constant tensor:
#      x y z
#    x 4.594590 0.000000 0.000000 
#    y 0.000000 4.594590 0.000000 
#    z 0.000000 0.000000 5.332060 
# 
# 
# High freq. dielectric constant tensor:
#      x y z
#    x 2.040120 0.000000 0.000000 
#    y 0.000000 2.040120 0.000000 
#    z 0.000000 0.000000 2.063670 
# 
# From -- ./inp_files/3891.got.cif
#   From: 2010.06.25/outbox.cif.g09.slc.cpg/sg140_2_cif.got.tgz:3891.got - 2010.06.28 10:53:23.
