data_PCOD8320266
_publ_section_title
;
Structure prediction by ZEFSAII (Michael W. Deem and Ramdas Pophale) SiO2 
 PCOD8320266
Probable space group: I 4/M C M
;
_chemical_formula_sum "Si O2"
_cell_formula_units_Z 160
_cell_length_a 19.970634
_cell_length_b 19.970634
_cell_length_c 19.551770
_cell_angle_alpha 90.000000
_cell_angle_beta 90.000000
_cell_angle_gamma 90.000000
_cell_volume 7797.758570
_symmetry_space_group_name_H-M "I 4/M C M"
_symmetry_group_IT_number 140
_symmetry_cell_setting 'tetragonal'
loop_
_space_group_symop_operation_xyz
x,y,z
-y,x,z
-x,-y,z
y,-x,z
x,-y,1/2-z
-x,y,1/2-z
y,x,1/2-z
-y,-x,1/2-z
-x,-y,-z
y,-x,-z
x,y,-z
-y,x,-z
-x,y,1/2+z
x,-y,1/2+z
-y,-x,1/2+z
y,x,1/2+z
1/2+x,1/2+y,1/2+z
1/2-y,1/2+x,1/2+z
1/2-x,1/2-y,1/2+z
1/2+y,1/2-x,1/2+z
1/2+x,1/2-y,-z
1/2-x,1/2+y,-z
1/2+y,1/2+x,-z
1/2-y,1/2-x,-z
1/2-x,1/2-y,1/2-z
1/2+y,1/2-x,1/2-z
1/2+x,1/2+y,1/2-z
1/2-y,1/2+x,1/2-z
1/2-x,1/2+y,z
1/2+x,1/2-y,z
1/2-y,1/2-x,z
1/2+y,1/2+x,z
loop_
_atom_site_type_symbol
_atom_site_label
_atom_site_fract_x
_atom_site_fract_y
_atom_site_fract_z
Si Si1 0.050295 0.343190 0.578268
Si Si2 0.226742 0.164819 0.310378
Si Si3 0.596625 0.462119 0.919008
Si Si4 0.331854 0.944515 0.808789
Si Si5 0.285818 0.628301 0.919520
O O1 0.031276 0.327615 0.500000
O O2 0.084414 0.415587 0.586590
O O3 0.105006 0.288059 0.603215
O O4 0.981541 0.342746 0.619360
O O5 0.171091 0.171091 0.250000
O O6 0.288215 0.211786 0.291044
O O7 0.258632 0.090520 0.312990
O O8 0.195137 0.189023 0.382032
O O9 0.586203 0.537237 0.890554
O O10 0.667274 0.433167 0.895574
O O11 0.592372 0.463114 0.000000
O O12 0.391781 0.891781 0.796379
O O13 0.332731 0.000000 0.750000
O O14 0.289807 0.644174 0.000000
#
# Coordination Sequence:
#
# PCOD8320266 Si02
#       5
#    32  32  32  32  32
#     4  10  22  39  59  88 126 163 202 252 307 358
#     4  10  22  40  59  82 115 151 188 239 302 359
#     4   8  15  28  47  76 113 148 182 225 279 339
#     4  11  24  41  64  90 117 157 207 254 302 365
#     4  10  20  34  60  89 117 154 196 240 292 355
#
# _framework density 20.518718
#
# number of rings (size 3 to 8) (size 9 to 14) (size 15 to 20)
#    0.000    2.200    0.000    3.000    2.800    5.400 
#    0.000    3.000    0.000    0.000    0.000    1.400 
#    0.000    0.000    0.000    0.000    0.000    0.000 
#
# Total GULP energy -991677.453039 kJ/mol
# GULP energy per Si atom -12395.968163 kJ/mol
# Density = 2.047202 g / cm^3
# Si number density = 20.518718 Si / 1000 Ang^3
#
#
#
# Elastic Constant Matrix: (Units=GPa)
#
#
# Indices 1 2 3 4 5 6 
#
# 1 86.3466 34.5341 35.1867 0.0000 0.0000 0.0000
# 2 34.5341 86.3466 35.1867 0.0000 0.0000 0.0000
# 3 35.1867 35.1867 77.2847 0.0000 0.0000 0.0000
# 4 0.0000 0.0000 0.0000 29.6264 0.0000 0.0000
# 5 0.0000 0.0000 0.0000 0.0000 29.6264 0.0000
# 6 0.0000 0.0000 0.0000 0.0000 0.0000 35.7256
#
#
#
# Elastic Compliance Matrix: (Units=1/GPa)
#
#
# Indices 1 2 3 4 5 6 
#
# 1 0.015278 -0.004022 -0.005125 0.000000 0.000000 0.000000
# 2 -0.004022 0.015278 -0.005125 0.000000 0.000000 0.000000
# 3 -0.005125 -0.005125 0.017606 0.000000 0.000000 0.000000
# 4 0.000000 0.000000 0.000000 0.033754 0.000000 0.000000
# 5 0.000000 0.000000 0.000000 0.000000 0.033754 0.000000
# 6 0.000000 0.000000 0.000000 0.000000 0.000000 0.027991
#
#
# Mechanical properties :
#
#
# Convention : Reuss Voigt Hill
#
# Bulk Modulus (GPa) = 50.97146 51.08812 51.02979
# Shear Modulus (GPa) = 27.97303 28.66703 28.32003
#
# Velocity S-wave (km/s) = 3.69629 3.74186 3.71914
# Velocity P-wave (km/s) = 6.56598 6.60462 6.58533
#
# Compressibility (1/GPa) = 0.01961882
#
# Stress axis : x y z
#
# Youngs Moduli (GPa) = 65.45254 65.45254 56.79998
#
# Poissons Ratio (x) = 0.26326 0.29109
# Poissons Ratio (y) = 0.26326 0.29109
# Poissons Ratio (z) = 0.33543 0.33543
#
# Static dielectric constant tensor:
#      x y z
#    x 3.895760 0.000000 0.000000 
#    y 0.000000 3.895760 0.000000 
#    z 0.000000 0.000000 3.517100 
# 
# 
# High freq. dielectric constant tensor:
#      x y z
#    x 1.803330 0.000000 0.000000 
#    y 0.000000 1.803330 0.000000 
#    z 0.000000 0.000000 1.781810 
# 
# From -- ./inp_files/6792.got.cif
#   From: 2010.06.25/outbox.cif.g09.slc.cpg/sg140_4_cif.got.tgz:6792.got - 2010.06.28 10:53:23.
