data_PCOD8320782
_publ_section_title
;
Structure prediction by ZEFSAII (Michael W. Deem and Ramdas Pophale) SiO2 
 PCOD8320782
Probable space group: I 41/A M D
;
_chemical_formula_sum "Si O2"
_cell_formula_units_Z 160
_cell_length_a 18.511844
_cell_length_b 18.511844
_cell_length_c 24.572325
_cell_angle_alpha 90.000000
_cell_angle_beta 90.000000
_cell_angle_gamma 90.000000
_cell_volume 8420.649959
_symmetry_space_group_name_H-M "I 41/A M D"
_symmetry_group_IT_number 141
_space_group.IT_coordinate_system_code '2'
_symmetry_cell_setting 'tetragonal'
loop_
_space_group_symop_operation_xyz
x,y,z
1/4-y,3/4+x,1/4+z
-x,1/2-y,z
1/4+y,1/4-x,3/4+z
x,-y,-z
-x,1/2+y,-z
1/4+y,3/4+x,1/4-z
1/4-y,1/4-x,3/4-z
-x,-y,-z
3/4+y,1/4-x,3/4-z
x,1/2+y,-z
3/4-y,3/4+x,1/4-z
-x,y,z
x,1/2-y,z
3/4-y,1/4-x,3/4+z
3/4+y,3/4+x,1/4+z
1/2+x,1/2+y,1/2+z
3/4-y,1/4+x,3/4+z
1/2-x,-y,1/2+z
3/4+y,3/4-x,1/4+z
1/2+x,1/2-y,1/2-z
1/2-x,y,1/2-z
3/4+y,1/4+x,3/4-z
3/4-y,3/4-x,1/4-z
1/2-x,1/2-y,1/2-z
1/4+y,3/4-x,1/4-z
1/2+x,y,1/2-z
1/4-y,1/4+x,3/4-z
1/2-x,1/2+y,1/2+z
1/2+x,-y,1/2+z
1/4-y,3/4-x,1/4+z
1/4+y,1/4+x,3/4+z
loop_
_atom_site_type_symbol
_atom_site_label
_atom_site_fract_x
_atom_site_fract_y
_atom_site_fract_z
Si Si1 0.080358 0.336022 0.435280
Si Si2 0.304980 0.335735 0.979127
Si Si3 0.174004 0.333749 0.643305
Si Si4 0.165658 0.168530 0.830304
Si Si5 0.647386 0.835668 0.516351
O O1 0.077938 0.250000 0.438266
O O2 0.108188 0.358188 0.375000
O O3 0.134367 0.368295 0.480524
O O4 0.000000 0.367122 0.446478
O O5 0.307269 0.250000 0.980020
O O6 0.318907 0.363929 0.918158
O O7 0.227130 0.361840 0.999832
O O8 0.151199 0.250000 0.642746
O O9 0.248940 0.345423 0.675653
O O10 0.111371 0.379797 0.672522
O O11 0.135175 0.114826 0.875000
O O12 0.152875 0.250000 0.851423
O O13 0.125573 0.159100 0.773084
O O14 0.637849 0.750000 0.511906
#
# Coordination Sequence:
#
# PCOD8320782 Si02
#       5
#    32  32  32  32  32
#     4   8  14  27  52  82 105 133 178 226 271 323
#     4   9  18  34  54  78 112 147 178 223 282 333
#     4  10  21  37  56  80 112 149 184 225 281 334
#     4  11  21  36  57  80 108 144 187 236 278 323
#     4  11  22  36  55  81 113 148 187 229 278 335
#
# _framework density 19.000909
#
# number of rings (size 3 to 8) (size 9 to 14) (size 15 to 20)
#    0.000    2.200    2.000    2.400    0.000    5.000 
#    0.000    3.000    0.000    0.000    0.000    5.600 
#    0.000    0.000    0.000    0.000    0.000    0.000 
#
# Total GULP energy -992023.353495 kJ/mol
# GULP energy per Si atom -12400.291919 kJ/mol
# Density = 1.895766 g / cm^3
# Si number density = 19.000909 Si / 1000 Ang^3
#
#
#
# Elastic Constant Matrix: (Units=GPa)
#
#
# Indices 1 2 3 4 5 6 
#
# 1 60.9732 30.4834 48.3038 0.0000 0.0000 0.0000
# 2 30.4834 60.9733 48.3036 0.0000 0.0000 0.0000
# 3 48.3038 48.3036 141.2749 0.0000 0.0000 0.0000
# 4 0.0000 0.0000 0.0000 33.5426 0.0000 0.0000
# 5 0.0000 0.0000 0.0000 0.0000 33.5425 0.0000
# 6 0.0000 0.0000 0.0000 0.0000 0.0000 15.3855
#
#
#
# Elastic Compliance Matrix: (Units=1/GPa)
#
#
# Indices 1 2 3 4 5 6 
#
# 1 0.024957 -0.007841 -0.005852 0.000000 0.000000 0.000000
# 2 -0.007841 0.024957 -0.005852 0.000000 0.000000 0.000000
# 3 -0.005852 -0.005852 0.011080 0.000000 0.000000 0.000000
# 4 0.000000 0.000000 0.000000 0.029813 0.000000 0.000000
# 5 0.000000 0.000000 0.000000 0.000000 0.029813 0.000000
# 6 0.000000 0.000000 0.000000 0.000000 0.000000 0.064996
#
#
# Mechanical properties :
#
#
# Convention : Reuss Voigt Hill
#
# Bulk Modulus (GPa) = 45.65497 57.48923 51.57210
# Shear Modulus (GPa) = 21.55101 25.56949 23.56025
#
# Velocity S-wave (km/s) = 3.37146 3.67236 3.52512
# Velocity P-wave (km/s) = 6.26383 6.95006 6.61585
#
# Compressibility (1/GPa) = 0.02190342
#
# Stress axis : x y z
#
# Youngs Moduli (GPa) = 40.06901 40.06929 90.25088
#
# Poissons Ratio (x) = 0.31418 0.52816
# Poissons Ratio (y) = 0.31418 0.52815
# Poissons Ratio (z) = 0.23449 0.23449
#
# Static dielectric constant tensor:
#      x y z
#    x 3.350660 0.000000 0.000000 
#    y 0.000000 3.350660 0.000000 
#    z 0.000000 0.000000 3.742460 
# 
# 
# High freq. dielectric constant tensor:
#      x y z
#    x 1.716270 0.000000 0.000000 
#    y 0.000000 1.716270 0.000000 
#    z 0.000000 0.000000 1.748200 
# 
# From -- ./inp_files/12672.got.cif
#   From: 2010.03.12/outbox.cif.g09.slc.cpg/sg141_7_cif.got.tgz:12672.got - 2010.04.03 13:18:35.
