data_PCOD8320955
_publ_section_title
;
Structure prediction by ZEFSAII (Michael W. Deem and Ramdas Pophale) SiO2 
 PCOD8320955
Probable space group: I 41/A C D
;
_chemical_formula_sum "Si O2"
_cell_formula_units_Z 160
_cell_length_a 16.531016
_cell_length_b 16.531016
_cell_length_c 30.845639
_cell_angle_alpha 90.000000
_cell_angle_beta 90.000000
_cell_angle_gamma 90.000000
_cell_volume 8429.326266
_symmetry_space_group_name_H-M "I 41/A C D"
_symmetry_group_IT_number 142
_space_group.IT_coordinate_system_code '2'
_symmetry_cell_setting 'tetragonal'
loop_
_space_group_symop_operation_xyz
x,y,z
1/4-y,3/4+x,1/4+z
-x,1/2-y,z
1/4+y,1/4-x,3/4+z
x,-y,1/2-z
1/2-x,y,-z
3/4+y,1/4+x,1/4-z
1/4-y,1/4-x,1/4-z
-x,-y,-z
3/4+y,1/4-x,3/4-z
x,1/2+y,-z
3/4-y,3/4+x,1/4-z
-x,y,1/2+z
1/2+x,-y,z
1/4-y,3/4-x,3/4+z
3/4+y,3/4+x,3/4+z
1/2+x,1/2+y,1/2+z
3/4-y,1/4+x,3/4+z
1/2-x,-y,1/2+z
3/4+y,3/4-x,1/4+z
1/2+x,1/2-y,-z
-x,1/2+y,1/2-z
1/4+y,3/4+x,3/4-z
3/4-y,3/4-x,3/4-z
1/2-x,1/2-y,1/2-z
1/4+y,3/4-x,1/4-z
1/2+x,y,1/2-z
1/4-y,1/4+x,3/4-z
1/2-x,1/2+y,z
x,1/2-y,1/2+z
3/4-y,1/4-x,1/4+z
1/4+y,1/4+x,1/4+z
loop_
_atom_site_type_symbol
_atom_site_label
_atom_site_fract_x
_atom_site_fract_y
_atom_site_fract_z
Si Si1 0.323296 0.809826 0.102435
Si Si2 0.692009 0.630383 0.834014
Si Si3 0.034960 0.945097 0.037910
Si Si4 0.737091 0.643638 0.626306
Si Si5 0.167392 0.088580 0.522653
O O1 0.404167 0.845834 0.125000
O O2 0.241352 0.846232 0.122829
O O3 0.319387 0.712794 0.105162
O O4 0.325997 0.832306 0.052150
O O5 0.649908 0.710596 0.812615
O O6 0.621305 0.568285 0.847624
O O7 0.757288 0.598538 0.799767
O O8 0.082931 0.996685 0.073991
O O9 0.099394 0.888238 0.013435
O O10 0.000000 0.000000 0.000000
O O11 0.690805 0.559196 0.625000
O O12 0.250000 0.069138 0.500000
#
# Coordination Sequence:
#
# PCOD8320955 Si02
#       5
#    32  32  32  32  32
#     4   9  19  34  52  77 110 143 179 225 283 345
#     4   9  18  33  54  80 106 141 192 233 271 333
#     4   9  19  34  55  80 110 144 183 234 287 336
#     4  11  20  34  59  84 106 143 193 239 281 344
#     4  10  17  31  55  78 105 142 181 227 279 334
#
# _framework density 18.981351
#
# number of rings (size 3 to 8) (size 9 to 14) (size 15 to 20)
#    0.000    2.400    0.000    5.400    0.000    0.400 
#    0.000    5.000    0.000   32.400    0.000    0.000 
#    0.000    0.000    0.000    0.000    0.000    0.000 
#
# Total GULP energy -991287.096643 kJ/mol
# GULP energy per Si atom -12391.088708 kJ/mol
# Density = 1.893815 g / cm^3
# Si number density = 18.981351 Si / 1000 Ang^3
#
#
#
# Elastic Constant Matrix: (Units=GPa)
#
#
# Indices 1 2 3 4 5 6 
#
# 1 93.0560 35.7048 50.8194 0.0000 0.0000 0.0000
# 2 35.7048 93.0579 50.8199 0.0000 0.0000 0.0000
# 3 50.8194 50.8199 129.1607 0.0000 0.0000 0.0000
# 4 0.0000 0.0000 0.0000 26.2725 0.0000 0.0000
# 5 0.0000 0.0000 0.0000 0.0000 26.2718 0.0000
# 6 0.0000 0.0000 0.0000 0.0000 0.0000 27.0887
#
#
#
# Elastic Compliance Matrix: (Units=1/GPa)
#
#
# Indices 1 2 3 4 5 6 
#
# 1 0.014351 -0.003086 -0.004432 0.000000 0.000000 0.000000
# 2 -0.003086 0.014350 -0.004432 0.000000 0.000000 0.000000
# 3 -0.004432 -0.004432 0.011230 0.000000 0.000000 0.000000
# 4 0.000000 0.000000 0.000000 0.038063 0.000000 0.000000
# 5 0.000000 0.000000 0.000000 0.000000 0.038064 0.000000
# 6 0.000000 0.000000 0.000000 0.000000 0.000000 0.036916
#
#
# Mechanical properties :
#
#
# Convention : Reuss Voigt Hill
#
# Bulk Modulus (GPa) = 62.37975 65.55142 63.96558
# Shear Modulus (GPa) = 27.43975 27.78863 27.61419
#
# Velocity S-wave (km/s) = 3.80625 3.83037 3.81833
# Velocity P-wave (km/s) = 7.22854 7.36016 7.29465
#
# Compressibility (1/GPa) = 0.01603084
#
# Stress axis : x y z
#
# Youngs Moduli (GPa) = 69.68300 69.68439 89.04566
#
# Poissons Ratio (x) = 0.21502 0.39468
# Poissons Ratio (y) = 0.21501 0.39468
# Poissons Ratio (z) = 0.30886 0.30886
#
# Static dielectric constant tensor:
#      x y z
#    x 3.474530 0.000000 0.000000 
#    y 0.000000 3.474530 0.000000 
#    z 0.000000 0.000000 3.697650 
# 
# 
# High freq. dielectric constant tensor:
#      x y z
#    x 1.717700 0.000000 0.000000 
#    y 0.000000 1.717700 0.000000 
#    z 0.000000 0.000000 1.752860 
# 
# From -- ./inp_files/11274.got.cif
#   From: 2010.03.12/outbox.cif.g09.slc.cpg/sg142_6_cif.got.tgz:11274.got - 2010.04.03 13:27:16.
