data_PCOD8320025
_publ_section_title
;
Structure prediction by ZEFSAII (Michael W. Deem and Ramdas Pophale) SiO2 
 PCOD8320025
Probable space group: I 4/M M M
;
_chemical_formula_sum "Si O2"
_cell_formula_units_Z 160
_cell_length_a 25.890377
_cell_length_b 25.890377
_cell_length_c 14.152639
_cell_angle_alpha 90.000000
_cell_angle_beta 90.000000
_cell_angle_gamma 90.000000
_cell_volume 9486.678392
_symmetry_space_group_name_H-M "I 4/M M M"
_symmetry_group_IT_number 139
_symmetry_cell_setting 'tetragonal'
loop_
_space_group_symop_operation_xyz
x,y,z
-y,x,z
-x,-y,z
y,-x,z
x,-y,-z
-x,y,-z
y,x,-z
-y,-x,-z
-x,-y,-z
y,-x,-z
x,y,-z
-y,x,-z
-x,y,z
x,-y,z
-y,-x,z
y,x,z
1/2+x,1/2+y,1/2+z
1/2-y,1/2+x,1/2+z
1/2-x,1/2-y,1/2+z
1/2+y,1/2-x,1/2+z
1/2+x,1/2-y,1/2-z
1/2-x,1/2+y,1/2-z
1/2+y,1/2+x,1/2-z
1/2-y,1/2-x,1/2-z
1/2-x,1/2-y,1/2-z
1/2+y,1/2-x,1/2-z
1/2+x,1/2+y,1/2-z
1/2-y,1/2+x,1/2-z
1/2-x,1/2+y,1/2+z
1/2+x,1/2-y,1/2+z
1/2-y,1/2-x,1/2+z
1/2+y,1/2+x,1/2+z
loop_
_atom_site_type_symbol
_atom_site_label
_atom_site_fract_x
_atom_site_fract_y
_atom_site_fract_z
Si Si1 0.057783 0.215668 0.233362
Si Si2 0.875592 0.349950 0.890053
Si Si3 0.831076 0.442925 0.218387
Si Si4 0.763753 0.153794 0.889962
Si Si5 0.358709 0.440724 0.895849
O O1 0.053199 0.270224 0.283651
O O2 0.099954 0.214366 0.150647
O O3 0.079564 0.179391 0.315658
O O4 0.000000 0.199824 0.195987
O O5 0.844885 0.401670 0.862917
O O6 0.926096 0.349489 0.823466
O O7 0.841425 0.298002 0.868243
O O8 0.892060 0.351723 0.000000
O O9 0.854939 0.500000 0.196938
O O10 0.796088 0.203913 0.851159
O O11 0.773123 0.149334 0.000000
O O12 0.371002 0.500000 0.880408
O O13 0.412967 0.412967 0.884198
O O14 0.334477 0.430176 0.000000
#
# Coordination Sequence:
#
# PCOD8320025 Si02
#       5
#    32  32  32  32  32
#     4   9  17  29  45  66  92 120 152 189 227 268
#     4   9  18  32  49  71  96 121 152 186 222 268
#     4   9  18  32  49  70  94 119 149 185 224 267
#     4   9  17  30  48  69  95 125 154 187 228 272
#     4   9  17  28  41  58  82 113 150 191 231 270
#
# _framework density 16.865756999999999
#
# number of rings (size 3 to 8) (size 9 to 14) (size 15 to 20)
#    0.000    3.000    0.000    0.600    0.000    2.200 
#    0.000   16.000    0.000    7.200    0.000    5.600 
#    0.000    0.000    0.000   18.600    0.000    0.600 
#
# Total GULP energy -991122.431836 kJ/mol
# GULP energy per Si atom -12389.030398 kJ/mol
# Density = 1.682737 g / cm^3
# Si number density = 16.865757 Si / 1000 Ang^3
#
#
#
# Elastic Constant Matrix: (Units=GPa)
#
#
# Indices 1 2 3 4 5 6 
#
# 1 75.0780 52.2458 32.0458 0.0000 0.0000 0.0000
# 2 52.2458 75.0780 32.0458 0.0000 0.0000 0.0000
# 3 32.0458 32.0458 66.6794 0.0000 0.0000 0.0000
# 4 0.0000 0.0000 0.0000 23.7855 0.0000 0.0000
# 5 0.0000 0.0000 0.0000 0.0000 23.7855 0.0000
# 6 0.0000 0.0000 0.0000 0.0000 0.0000 19.8621
#
#
#
# Elastic Compliance Matrix: (Units=1/GPa)
#
#
# Indices 1 2 3 4 5 6 
#
# 1 0.027079 -0.016719 -0.004979 0.000000 0.000000 0.000000
# 2 -0.016719 0.027079 -0.004979 0.000000 0.000000 0.000000
# 3 -0.004979 -0.004979 0.019783 0.000000 0.000000 0.000000
# 4 0.000000 0.000000 0.000000 0.042042 0.000000 0.000000
# 5 0.000000 0.000000 0.000000 0.000000 0.042042 0.000000
# 6 0.000000 0.000000 0.000000 0.000000 0.000000 0.050347
#
#
# Mechanical properties :
#
#
# Convention : Reuss Voigt Hill
#
# Bulk Modulus (GPa) = 48.57389 49.94561 49.25975
# Shear Modulus (GPa) = 18.61576 20.18648 19.40112
#
# Velocity S-wave (km/s) = 3.32589 3.46337 3.39533
# Velocity P-wave (km/s) = 6.60391 6.75804 6.68142
#
# Compressibility (1/GPa) = 0.02058719
#
# Stress axis : x y z
#
# Youngs Moduli (GPa) = 36.92891 36.92891 50.54837
#
# Poissons Ratio (x) = 0.61740 0.25169
# Poissons Ratio (y) = 0.61740 0.25169
# Poissons Ratio (z) = 0.18387 0.18387
#
# Static dielectric constant tensor:
#      x y z
#    x 3.307640 0.000000 0.000000 
#    y 0.000000 3.307640 0.000000 
#    z 0.000000 0.000000 3.160400 
# 
# 
# High freq. dielectric constant tensor:
#      x y z
#    x 1.642870 0.000000 0.000000 
#    y 0.000000 1.642870 0.000000 
#    z 0.000000 0.000000 1.646810 
# 
# From -- ./inp_files/5879.got.cif
#   From: 2010.03.12/outbox.cif.g09.slc.cpg/sg139_3_cif.got.tgz:5879.got - 2010.04.08 09:46:31.
