data_PCOD8320174
_publ_section_title
;
Structure prediction by ZEFSAII (Michael W. Deem and Ramdas Pophale) SiO2 
 PCOD8320174
Probable space group: I 4/M C M
;
_chemical_formula_sum "Si O2"
_cell_formula_units_Z 116
_cell_length_a 19.001696
_cell_length_b 19.001696
_cell_length_c 18.299925
_cell_angle_alpha 90.000000
_cell_angle_beta 90.000000
_cell_angle_gamma 90.000000
_cell_volume 6607.452371
_symmetry_space_group_name_H-M "I 4/M C M"
_symmetry_group_IT_number 140
_symmetry_cell_setting 'tetragonal'
loop_
_space_group_symop_operation_xyz
x,y,z
-y,x,z
-x,-y,z
y,-x,z
x,-y,1/2-z
-x,y,1/2-z
y,x,1/2-z
-y,-x,1/2-z
-x,-y,-z
y,-x,-z
x,y,-z
-y,x,-z
-x,y,1/2+z
x,-y,1/2+z
-y,-x,1/2+z
y,x,1/2+z
1/2+x,1/2+y,1/2+z
1/2-y,1/2+x,1/2+z
1/2-x,1/2-y,1/2+z
1/2+y,1/2-x,1/2+z
1/2+x,1/2-y,-z
1/2-x,1/2+y,-z
1/2+y,1/2+x,-z
1/2-y,1/2-x,-z
1/2-x,1/2-y,1/2-z
1/2+y,1/2-x,1/2-z
1/2+x,1/2+y,1/2-z
1/2-y,1/2+x,1/2-z
1/2-x,1/2+y,z
1/2+x,1/2-y,z
1/2-y,1/2-x,z
1/2+y,1/2+x,z
loop_
_atom_site_type_symbol
_atom_site_label
_atom_site_fract_x
_atom_site_fract_y
_atom_site_fract_z
Si Si1 0.612799 0.112799 0.789064
Si Si2 0.811551 0.688450 0.079569
Si Si3 0.575365 0.412468 0.000000
Si Si4 0.000000 0.500000 0.250000
Si Si5 0.078824 0.236596 0.738282
Si Si6 0.653904 0.662130 0.628960
O O1 0.640730 0.140730 0.867128
O O2 0.551992 0.051992 0.797042
O O3 0.679083 0.083275 0.744271
O O4 0.728056 0.682183 0.084860
O O5 0.836672 0.663329 0.000000
O O6 0.598634 0.492703 0.000000
O O7 0.602956 0.379375 0.924966
O O8 0.118268 0.194493 0.800378
O O9 0.109455 0.214925 0.658589
O O10 0.000000 0.211492 0.750000
#
# Coordination Sequence:
#
# PCOD8320174 Si02
#       6
#    16  16  16   4  32  32
#     4  10  21  34  59  84 107 149 179 224 275 344
#     4  10  19  37  59  81 107 142 193 227 273 319
#     4  11  22  35  50  76 110 147 180 215 278 336
#     4  12  20  40  58  88 124 140 172 226 288 340
#     4  10  19  34  54  81 107 139 186 226 275 325
#     4  10  20  34  55  78 107 142 182 235 269 320
#
# _framework density 17.555935000000002
#
# number of rings (size 3 to 8) (size 9 to 14) (size 15 to 20)
#    0.000    1.793    2.759    2.483    0.000    3.310 
#    0.000    0.345    0.000    6.621    3.586    0.000 
#    0.000    0.000    0.000    0.000    0.000    0.000 
#
# Total GULP energy -718614.238120 kJ/mol
# GULP energy per Si atom -12389.900657 kJ/mol
# Density = 1.751598 g / cm^3
# Si number density = 17.555935 Si / 1000 Ang^3
#
#
#
# Elastic Constant Matrix: (Units=GPa)
#
#
# Indices 1 2 3 4 5 6 
#
# 1 159.2359 -6.6905 27.5437 0.0000 0.0000 0.0000
# 2 -6.6905 159.2360 27.5441 0.0000 0.0000 0.0000
# 3 27.5437 27.5441 61.2669 0.0000 0.0000 0.0000
# 4 0.0000 0.0000 0.0000 19.3096 0.0000 0.0000
# 5 0.0000 0.0000 0.0000 0.0000 19.3087 0.0000
# 6 0.0000 0.0000 0.0000 0.0000 0.0000 6.6071
#
#
#
# Elastic Compliance Matrix: (Units=1/GPa)
#
#
# Indices 1 2 3 4 5 6 
#
# 1 0.006926 0.000900 -0.003518 0.000000 0.000000 0.000000
# 2 0.000900 0.006926 -0.003518 0.000000 0.000000 0.000000
# 3 -0.003518 -0.003518 0.019486 0.000000 0.000000 0.000000
# 4 0.000000 0.000000 0.000000 0.051788 0.000000 0.000000
# 5 0.000000 0.000000 0.000000 0.000000 0.051790 0.000000
# 6 0.000000 0.000000 0.000000 0.000000 0.000000 0.151352
#
#
# Mechanical properties :
#
#
# Convention : Reuss Voigt Hill
#
# Bulk Modulus (GPa) = 47.47410 52.94815 50.21113
# Shear Modulus (GPa) = 16.25680 31.13452 23.69566
#
# Velocity S-wave (km/s) = 3.04633 4.21580 3.67784
# Velocity P-wave (km/s) = 6.28282 7.34319 6.83360
#
# Compressibility (1/GPa) = 0.02106412
#
# Stress axis : x y z
#
# Youngs Moduli (GPa) = 144.37580 144.37555 51.32010
#
# Poissons Ratio (x) = -0.12988 0.18056
# Poissons Ratio (y) = -0.12988 0.18056
# Poissons Ratio (z) = 0.50796 0.50797
#
# Static dielectric constant tensor:
#      x y z
#    x 3.916230 0.000000 0.000000 
#    y 0.000000 3.916190 0.000000 
#    z 0.000000 0.000000 3.075230 
# 
# 
# High freq. dielectric constant tensor:
#      x y z
#    x 1.685970 0.000000 0.000000 
#    y 0.000000 1.685970 0.000000 
#    z 0.000000 0.000000 1.671870 
# 
# From -- ./inp_files/6225.got.cif
#   From: 2010.06.25/outbox.cif.g09.slc.cpg/sg140_4_cif.got.tgz:6225.got - 2010.06.28 10:53:23.
