data_PCOD8320942
_publ_section_title
;
Structure prediction by ZEFSAII (Michael W. Deem and Ramdas Pophale) SiO2 
 PCOD8320942
Probable space group: I 41/A M D
;
_chemical_formula_sum "Si O2"
_cell_formula_units_Z 80
_cell_length_a 14.076500
_cell_length_b 14.076500
_cell_length_c 16.090107
_cell_angle_alpha 90.000000
_cell_angle_beta 90.000000
_cell_angle_gamma 90.000000
_cell_volume 3188.220145
_symmetry_space_group_name_H-M "I 41/A M D"
_symmetry_group_IT_number 141
_space_group.IT_coordinate_system_code '2'
_symmetry_cell_setting 'tetragonal'
loop_
_space_group_symop_operation_xyz
x,y,z
1/4-y,3/4+x,1/4+z
-x,1/2-y,z
1/4+y,1/4-x,3/4+z
x,-y,-z
-x,1/2+y,-z
1/4+y,3/4+x,1/4-z
1/4-y,1/4-x,3/4-z
-x,-y,-z
3/4+y,1/4-x,3/4-z
x,1/2+y,-z
3/4-y,3/4+x,1/4-z
-x,y,z
x,1/2-y,z
3/4-y,1/4-x,3/4+z
3/4+y,3/4+x,1/4+z
1/2+x,1/2+y,1/2+z
3/4-y,1/4+x,3/4+z
1/2-x,-y,1/2+z
3/4+y,3/4-x,1/4+z
1/2+x,1/2-y,1/2-z
1/2-x,y,1/2-z
3/4+y,1/4+x,3/4-z
3/4-y,3/4-x,1/4-z
1/2-x,1/2-y,1/2-z
1/4+y,3/4-x,1/4-z
1/2+x,y,1/2-z
1/4-y,1/4+x,3/4-z
1/2-x,1/2+y,1/2+z
1/2+x,-y,1/2+z
1/4-y,3/4-x,1/4+z
1/4+y,1/4+x,3/4+z
loop_
_atom_site_type_symbol
_atom_site_label
_atom_site_fract_x
_atom_site_fract_y
_atom_site_fract_z
Si Si1 0.388976 0.361025 0.625000
Si Si2 0.106847 0.139786 0.547845
Si Si3 0.710414 0.639126 0.539169
O O1 0.366975 0.250000 0.632652
O O2 0.339793 0.404855 0.542516
O O3 0.108766 0.250000 0.573687
O O4 0.175809 0.120322 0.469212
O O5 0.151720 0.080956 0.624944
O O6 0.000000 0.107789 0.522654
O O7 0.685614 0.750000 0.541634
#
# Coordination Sequence:
#
# PCOD8320942 Si02
#       3
#    16  32  32
#     4   9  16  26  42  68 102 134 162 197 248 316
#     4   9  17  30  48  73 105 135 166 208 255 309
#     4   9  17  28  44  69 102 137 167 200 253 313
#
# _framework density 25.092369000000001
#
# number of rings (size 3 to 8) (size 9 to 14) (size 15 to 20)
#    0.000    3.000    0.000    1.200    0.000    6.400 
#    0.000    6.000    0.000    0.000    0.000   11.200 
#    0.000    0.000    0.000    0.000    0.000    0.000 
#
# Total GULP energy -495869.176046 kJ/mol
# GULP energy per Si atom -12396.729401 kJ/mol
# Density = 2.503526 g / cm^3
# Si number density = 25.092369 Si / 1000 Ang^3
#
#
#
# Elastic Constant Matrix: (Units=GPa)
#
#
# Indices 1 2 3 4 5 6 
#
# 1 79.4101 17.9270 36.9309 0.0000 0.0000 0.0000
# 2 17.9270 79.4083 36.9309 0.0000 0.0000 0.0000
# 3 36.9309 36.9309 69.8929 0.0000 0.0000 0.0000
# 4 0.0000 0.0000 0.0000 24.0247 0.0000 0.0000
# 5 0.0000 0.0000 0.0000 0.0000 24.0247 0.0000
# 6 0.0000 0.0000 0.0000 0.0000 0.0000 9.0643
#
#
#
# Elastic Compliance Matrix: (Units=1/GPa)
#
#
# Indices 1 2 3 4 5 6 
#
# 1 0.016707 0.000443 -0.009062 0.000000 0.000000 0.000000
# 2 0.000443 0.016708 -0.009062 0.000000 0.000000 0.000000
# 3 -0.009062 -0.009062 0.023884 0.000000 0.000000 0.000000
# 4 0.000000 0.000000 0.000000 0.041624 0.000000 0.000000
# 5 0.000000 0.000000 0.000000 0.000000 0.041624 0.000000
# 6 0.000000 0.000000 0.000000 0.000000 0.000000 0.110323
#
#
# Mechanical properties :
#
#
# Convention : Reuss Voigt Hill
#
# Bulk Modulus (GPa) = 45.58615 45.80990 45.69802
# Shear Modulus (GPa) = 17.03317 20.55091 18.79204
#
# Velocity S-wave (km/s) = 2.60824 2.86494 2.73960
# Velocity P-wave (km/s) = 5.22277 5.40740 5.31589
#
# Compressibility (1/GPa) = 0.02193649
#
# Stress axis : x y z
#
# Youngs Moduli (GPa) = 59.85398 59.85223 41.86851
#
# Poissons Ratio (x) = -0.02650 0.37941
# Poissons Ratio (y) = -0.02650 0.37942
# Poissons Ratio (z) = 0.54239 0.54239
#
# Static dielectric constant tensor:
#      x y z
#    x 4.429340 0.000000 0.000000 
#    y 0.000000 4.429390 0.000000 
#    z 0.000000 0.000000 4.345390 
# 
# 
# High freq. dielectric constant tensor:
#      x y z
#    x 1.998280 0.000000 0.000000 
#    y 0.000000 1.998280 0.000000 
#    z 0.000000 0.000000 1.982350 
# 
# From -- ./inp_files/5779.got.cif
#   From: 2010.03.12/outbox.cif.g09.slc.cpg/sg141_3_cif.got.tgz:5779.got - 2010.04.03 13:18:35.
