data_PCOD8320736
_publ_section_title
;
Structure prediction by ZEFSAII (Michael W. Deem and Ramdas Pophale) SiO2 
 PCOD8320736
Probable space group: I 41/A M D
;
_chemical_formula_sum "Si O2"
_cell_formula_units_Z 160
_cell_length_a 26.977685
_cell_length_b 26.977685
_cell_length_c 12.076039
_cell_angle_alpha 90.000000
_cell_angle_beta 90.000000
_cell_angle_gamma 90.000000
_cell_volume 8788.886697
_symmetry_space_group_name_H-M "I 41/A M D"
_symmetry_group_IT_number 141
_space_group.IT_coordinate_system_code '2'
_symmetry_cell_setting 'tetragonal'
loop_
_space_group_symop_operation_xyz
x,y,z
1/4-y,3/4+x,1/4+z
-x,1/2-y,z
1/4+y,1/4-x,3/4+z
x,-y,-z
-x,1/2+y,-z
1/4+y,3/4+x,1/4-z
1/4-y,1/4-x,3/4-z
-x,-y,-z
3/4+y,1/4-x,3/4-z
x,1/2+y,-z
3/4-y,3/4+x,1/4-z
-x,y,z
x,1/2-y,z
3/4-y,1/4-x,3/4+z
3/4+y,3/4+x,1/4+z
1/2+x,1/2+y,1/2+z
3/4-y,1/4+x,3/4+z
1/2-x,-y,1/2+z
3/4+y,3/4-x,1/4+z
1/2+x,1/2-y,1/2-z
1/2-x,y,1/2-z
3/4+y,1/4+x,3/4-z
3/4-y,3/4-x,1/4-z
1/2-x,1/2-y,1/2-z
1/4+y,3/4-x,1/4-z
1/2+x,y,1/2-z
1/4-y,1/4+x,3/4-z
1/2-x,1/2+y,1/2+z
1/2+x,-y,1/2+z
1/4-y,3/4-x,1/4+z
1/4+y,1/4+x,3/4+z
loop_
_atom_site_type_symbol
_atom_site_label
_atom_site_fract_x
_atom_site_fract_y
_atom_site_fract_z
Si Si1 0.309016 0.304693 0.241264
Si Si2 0.616132 0.554893 0.550547
Si Si3 0.188972 0.863283 0.950496
Si Si4 0.557478 0.389945 0.612406
Si Si5 0.302496 0.623291 0.938781
O O1 0.332554 0.250000 0.249280
O O2 0.250000 0.301418 0.250000
O O3 0.332421 0.339099 0.337477
O O4 0.323762 0.328109 0.123100
O O5 0.620938 0.500000 0.500000
O O6 0.661858 0.587376 0.506027
O O7 0.566717 0.582328 0.505229
O O8 0.619751 0.561301 0.681755
O O9 0.244035 0.880453 0.924315
O O10 0.181577 0.822019 0.045887
O O11 0.589513 0.339513 0.625000
O O12 0.500000 0.375628 0.623016
O O13 0.325671 0.575671 0.875000
#
# Coordination Sequence:
#
# PCOD8320736 Si02
#       5
#    32  32  32  32  32
#     4   9  18  32  53  78 102 137 188 237 281 332
#     4  11  22  38  55  81 118 154 194 239 287 349
#     4  10  20  38  56  80 113 155 193 237 286 341
#     4  10  22  39  61  87 116 151 191 244 301 355
#     4  11  21  36  55  81 117 154 193 241 284 344
#
# _framework density 18.204809000000001
#
# number of rings (size 3 to 8) (size 9 to 14) (size 15 to 20)
#    0.000    1.800    4.000    0.600    0.000    2.200 
#    3.600    0.000    0.000    0.000    0.000    0.000 
#    0.000    0.400    0.000    0.000    0.000    0.000 
#
# Total GULP energy -991108.108240 kJ/mol
# GULP energy per Si atom -12388.851353 kJ/mol
# Density = 1.816337 g / cm^3
# Si number density = 18.204809 Si / 1000 Ang^3
#
#
#
# Elastic Constant Matrix: (Units=GPa)
#
#
# Indices 1 2 3 4 5 6 
#
# 1 109.0304 55.0594 40.7331 0.0000 0.0000 0.0000
# 2 55.0594 109.0304 40.7331 0.0000 0.0000 0.0000
# 3 40.7331 40.7331 141.0716 0.0000 0.0000 0.0000
# 4 0.0000 0.0000 0.0000 19.6536 0.0000 0.0000
# 5 0.0000 0.0000 0.0000 0.0000 19.6536 0.0000
# 6 0.0000 0.0000 0.0000 0.0000 0.0000 16.2677
#
#
#
# Elastic Compliance Matrix: (Units=1/GPa)
#
#
# Indices 1 2 3 4 5 6 
#
# 1 0.012821 -0.005707 -0.002054 0.000000 0.000000 0.000000
# 2 -0.005707 0.012821 -0.002054 0.000000 0.000000 0.000000
# 3 -0.002054 -0.002054 0.008275 0.000000 0.000000 0.000000
# 4 0.000000 0.000000 0.000000 0.050881 0.000000 0.000000
# 5 0.000000 0.000000 0.000000 0.000000 0.050881 0.000000
# 6 0.000000 0.000000 0.000000 0.000000 0.000000 0.061471
#
#
# Mechanical properties :
#
#
# Convention : Reuss Voigt Hill
#
# Bulk Modulus (GPa) = 69.99645 70.24261 70.11953
# Shear Modulus (GPa) = 22.56885 25.95544 24.26214
#
# Velocity S-wave (km/s) = 3.52478 3.78000 3.65462
# Velocity P-wave (km/s) = 7.42283 7.59734 7.51059
#
# Compressibility (1/GPa) = 0.01428644
#
# Stress axis : x y z
#
# Youngs Moduli (GPa) = 77.99554 77.99554 120.84877
#
# Poissons Ratio (x) = 0.44514 0.24824
# Poissons Ratio (y) = 0.44514 0.24824
# Poissons Ratio (z) = 0.16021 0.16021
#
# Static dielectric constant tensor:
#      x y z
#    x 3.298870 0.000000 0.000000 
#    y 0.000000 3.298870 0.000000 
#    z 0.000000 0.000000 3.756540 
# 
# 
# High freq. dielectric constant tensor:
#      x y z
#    x 1.686160 0.000000 0.000000 
#    y 0.000000 1.686160 0.000000 
#    z 0.000000 0.000000 1.726440 
# 
# From -- ./inp_files/4855.got.cif
#   From: 2010.03.12/outbox.cif.g09.slc.cpg/sg141_3_cif.got.tgz:4855.got - 2010.04.03 13:18:35.
