data_PCOD8320282
_publ_section_title
;
Structure prediction by ZEFSAII (Michael W. Deem and Ramdas Pophale) SiO2 
 PCOD8320282
Probable space group: I 4/M C M
;
_chemical_formula_sum "Si O2"
_cell_formula_units_Z 160
_cell_length_a 21.444124
_cell_length_b 21.444124
_cell_length_c 18.261963
_cell_angle_alpha 90.000000
_cell_angle_beta 90.000000
_cell_angle_gamma 90.000000
_cell_volume 8397.771979
_symmetry_space_group_name_H-M "I 4/M C M"
_symmetry_group_IT_number 140
_symmetry_cell_setting 'tetragonal'
loop_
_space_group_symop_operation_xyz
x,y,z
-y,x,z
-x,-y,z
y,-x,z
x,-y,1/2-z
-x,y,1/2-z
y,x,1/2-z
-y,-x,1/2-z
-x,-y,-z
y,-x,-z
x,y,-z
-y,x,-z
-x,y,1/2+z
x,-y,1/2+z
-y,-x,1/2+z
y,x,1/2+z
1/2+x,1/2+y,1/2+z
1/2-y,1/2+x,1/2+z
1/2-x,1/2-y,1/2+z
1/2+y,1/2-x,1/2+z
1/2+x,1/2-y,-z
1/2-x,1/2+y,-z
1/2+y,1/2+x,-z
1/2-y,1/2-x,-z
1/2-x,1/2-y,1/2-z
1/2+y,1/2-x,1/2-z
1/2+x,1/2+y,1/2-z
1/2-y,1/2+x,1/2-z
1/2-x,1/2+y,z
1/2+x,1/2-y,z
1/2-y,1/2-x,z
1/2+y,1/2+x,z
loop_
_atom_site_type_symbol
_atom_site_label
_atom_site_fract_x
_atom_site_fract_y
_atom_site_fract_z
Si Si1 0.249942 0.000000 0.250000
Si Si2 0.303939 0.704971 0.664449
Si Si3 0.398563 0.473543 0.000000
Si Si4 0.297546 0.430126 0.112191
Si Si5 0.404673 0.806149 0.353826
Si Si6 0.585198 0.188219 0.000000
Si Si7 0.457136 0.856255 0.500000
O O1 0.207429 0.966195 0.189237
O O2 0.295658 0.951352 0.287686
O O3 0.308256 0.691745 0.750000
O O4 0.237336 0.737336 0.645887
O O5 0.314857 0.641619 0.621815
O O6 0.359393 0.747938 0.636419
O O7 0.455919 0.424679 0.000000
O O8 0.354259 0.463385 0.929839
O O9 0.231309 0.427168 0.070725
O O10 0.367500 0.867500 0.330502
O O11 0.438719 0.814722 0.430573
O O12 0.652429 0.152429 0.000000
O O13 0.531700 0.134673 0.000000
O O14 0.423461 0.923461 0.500000
#
# Coordination Sequence:
#
# PCOD8320282 Si02
#       7
#    16  32  16  32  32  16  16
#     4  12  22  38  62  92 122 154 202 244 304 356
#     4  10  20  35  57  89 125 154 191 249 309 359
#     4  10  26  47  63  85 122 163 202 254 306 358
#     4  11  24  38  63  91 117 159 203 248 302 368
#     4  10  22  39  62  88 121 159 198 249 303 358
#     4  11  23  39  59  87 123 159 202 251 298 357
#     4  10  21  40  61  85 117 161 205 243 296 361
#
# _framework density 19.052672999999999
#
# number of rings (size 3 to 8) (size 9 to 14) (size 15 to 20)
#    0.000    1.500    4.000    0.600    2.800    2.600 
#    0.000    3.000    0.000    1.500    0.000    0.000 
#    0.000    0.000    0.000    0.000    0.000    0.000 
#
# Total GULP energy -991791.740750 kJ/mol
# GULP energy per Si atom -12397.396759 kJ/mol
# Density = 1.900931 g / cm^3
# Si number density = 19.052673 Si / 1000 Ang^3
#
#
#
# Elastic Constant Matrix: (Units=GPa)
#
#
# Indices 1 2 3 4 5 6 
#
# 1 117.5457 45.1324 56.4270 0.0000 0.0000 0.0000
# 2 45.1324 117.5462 56.4269 0.0000 0.0000 0.0000
# 3 56.4270 56.4269 118.7654 0.0000 0.0000 0.0000
# 4 0.0000 0.0000 0.0000 -20.2067 0.0000 0.0000
# 5 0.0000 0.0000 0.0000 0.0000 -20.2018 0.0000
# 6 0.0000 0.0000 0.0000 0.0000 0.0000 18.9185
#
#
#
# Elastic Compliance Matrix: (Units=1/GPa)
#
#
# Indices 1 2 3 4 5 6 
#
# 1 0.011489 -0.002320 -0.004356 0.000000 0.000000 0.000000
# 2 -0.002320 0.011489 -0.004356 0.000000 0.000000 0.000000
# 3 -0.004356 -0.004356 0.012560 0.000000 0.000000 0.000000
# 4 0.000000 0.000000 0.000000 -0.049488 0.000000 0.000000
# 5 0.000000 0.000000 0.000000 0.000000 -0.049501 0.000000
# 6 0.000000 0.000000 0.000000 0.000000 0.000000 0.052858
#
#
# Mechanical properties :
#
#
# Convention : Reuss Voigt Hill
#
# Bulk Modulus (GPa) = 74.22614 74.42557 74.32585
# Shear Modulus (GPa) = 313.19631 8.76007 160.97819
#
# Velocity S-wave (km/s) = 12.83516 2.14658 9.20188
# Velocity P-wave (km/s) = 16.08409 6.72990 12.32862
#
# Compressibility (1/GPa) = 0.01347234
#
# Stress axis : x y z
#
# Youngs Moduli (GPa) = 87.03633 87.03688 79.62068
#
# Poissons Ratio (x) = 0.20194 0.34686
# Poissons Ratio (y) = 0.20194 0.34686
# Poissons Ratio (z) = 0.37917 0.37917
#
# Static dielectric constant tensor:
#      x y z
#    x 3.672680 0.000000 0.000000 
#    y 0.000000 3.672680 0.000000 
#    z 0.000000 0.000000 3.527920 
# 
# 
# High freq. dielectric constant tensor:
#      x y z
#    x 1.744170 0.000000 0.000000 
#    y 0.000000 1.744170 0.000000 
#    z 0.000000 0.000000 1.746410 
# 
# From -- ./inp_files/6955.got.cif
#   From: 2010.06.25/outbox.cif.g09.slc.cpg/sg140_4_cif.got.tgz:6955.got - 2010.06.28 10:53:23.
