data_PCOD8320431
_publ_section_title
;
Structure prediction by ZEFSAII (Michael W. Deem and Ramdas Pophale) SiO2 
 PCOD8320431
Probable space group: I 4/M C M
;
_chemical_formula_sum "Si O2"
_cell_formula_units_Z 128
_cell_length_a 21.223482
_cell_length_b 21.223482
_cell_length_c 14.117340
_cell_angle_alpha 90.000000
_cell_angle_beta 90.000000
_cell_angle_gamma 90.000000
_cell_volume 6358.960817
_symmetry_space_group_name_H-M "I 4/M C M"
_symmetry_group_IT_number 140
_symmetry_cell_setting 'tetragonal'
loop_
_space_group_symop_operation_xyz
x,y,z
-y,x,z
-x,-y,z
y,-x,z
x,-y,1/2-z
-x,y,1/2-z
y,x,1/2-z
-y,-x,1/2-z
-x,-y,-z
y,-x,-z
x,y,-z
-y,x,-z
-x,y,1/2+z
x,-y,1/2+z
-y,-x,1/2+z
y,x,1/2+z
1/2+x,1/2+y,1/2+z
1/2-y,1/2+x,1/2+z
1/2-x,1/2-y,1/2+z
1/2+y,1/2-x,1/2+z
1/2+x,1/2-y,-z
1/2-x,1/2+y,-z
1/2+y,1/2+x,-z
1/2-y,1/2-x,-z
1/2-x,1/2-y,1/2-z
1/2+y,1/2-x,1/2-z
1/2+x,1/2+y,1/2-z
1/2-y,1/2+x,1/2-z
1/2-x,1/2+y,z
1/2+x,1/2-y,z
1/2-y,1/2-x,z
1/2+y,1/2+x,z
loop_
_atom_site_type_symbol
_atom_site_label
_atom_site_fract_x
_atom_site_fract_y
_atom_site_fract_z
Si Si1 0.402574 0.464224 0.000000
Si Si2 0.699083 0.939289 0.105791
Si Si3 0.000000 0.601629 0.750000
Si Si4 0.697417 0.468404 0.347081
Si Si5 0.649553 0.751656 0.742063
O O1 0.462586 0.419746 0.000000
O O2 0.363252 0.447887 0.906368
O O3 0.644478 0.975111 0.163917
O O4 0.721407 0.875237 0.157360
O O5 0.760057 0.983310 0.094699
O O6 0.674521 0.923080 0.000000
O O7 0.057664 0.557664 0.713652
O O8 0.673418 0.500000 0.250000
O O9 0.741916 0.408534 0.328074
O O10 0.684966 0.684966 0.750000
O O11 0.697026 0.802975 0.697241
#
# Coordination Sequence:
#
# PCOD8320431 Si02
#       5
#    16  32  16  32  32
#     4  11  26  42  63  94 126 163 211 256 304 374
#     4  11  22  40  66  94 124 168 215 262 320 385
#     4  11  24  42  64  92 132 173 212 268 326 381
#     4  10  22  39  63  89 123 164 200 252 315 364
#     4  10  22  40  63  91 123 164 207 257 319 381
#
# _framework density 20.129076000000001
#
# number of rings (size 3 to 8) (size 9 to 14) (size 15 to 20)
#    0.000    1.500    5.000    0.750    7.000    2.500 
#    0.000    3.125    0.000    0.000    0.000    0.000 
#    0.000    0.000    0.000    0.000    0.000    0.000 
#
# Total GULP energy -793529.915743 kJ/mol
# GULP energy per Si atom -12398.904933 kJ/mol
# Density = 2.008326 g / cm^3
# Si number density = 20.129076 Si / 1000 Ang^3
#
#
#
# Elastic Constant Matrix: (Units=GPa)
#
#
# Indices 1 2 3 4 5 6 
#
# 1 90.0802 23.7425 43.8763 0.0000 0.0000 0.0000
# 2 23.7425 90.0802 43.8763 0.0000 0.0000 0.0000
# 3 43.8763 43.8763 133.9548 0.0000 0.0000 0.0000
# 4 0.0000 0.0000 0.0000 7.8603 0.0000 0.0000
# 5 0.0000 0.0000 0.0000 0.0000 7.8603 0.0000
# 6 0.0000 0.0000 0.0000 0.0000 0.0000 45.3740
#
#
#
# Elastic Compliance Matrix: (Units=1/GPa)
#
#
# Indices 1 2 3 4 5 6 
#
# 1 0.013414 -0.001660 -0.003850 0.000000 0.000000 0.000000
# 2 -0.001660 0.013414 -0.003850 0.000000 0.000000 0.000000
# 3 -0.003850 -0.003850 0.009987 0.000000 0.000000 0.000000
# 4 0.000000 0.000000 0.000000 0.127222 0.000000 0.000000
# 5 0.000000 0.000000 0.000000 0.000000 0.127222 0.000000
# 6 0.000000 0.000000 0.000000 0.000000 0.000000 0.022039
#
#
# Mechanical properties :
#
#
# Convention : Reuss Voigt Hill
#
# Bulk Modulus (GPa) = 55.26353 59.67837 57.47095
# Shear Modulus (GPa) = 14.79070 25.72692 20.25881
#
# Velocity S-wave (km/s) = 2.71365 3.57893 3.17589
# Velocity P-wave (km/s) = 6.11005 6.84036 6.48549
#
# Compressibility (1/GPa) = 0.01809512
#
# Stress axis : x y z
#
# Youngs Moduli (GPa) = 74.54885 74.54885 100.12801
#
# Poissons Ratio (x) = 0.12378 0.38548
# Poissons Ratio (y) = 0.12378 0.38548
# Poissons Ratio (z) = 0.28700 0.28700
#
# Static dielectric constant tensor:
#      x y z
#    x 3.831310 0.000000 0.000000 
#    y 0.000000 3.831310 0.000000 
#    z 0.000000 0.000000 3.473850 
# 
# 
# High freq. dielectric constant tensor:
#      x y z
#    x 1.797980 0.000000 0.000000 
#    y 0.000000 1.797980 0.000000 
#    z 0.000000 0.000000 1.764770 
# 
# From -- ./inp_files/4435.got.cif
#   From: 2010.06.25/outbox.cif.g09.slc.cpg/sg140_3_cif.got.tgz:4435.got - 2010.06.28 10:53:23.
