data_PCOD8320241
_publ_section_title
;
Structure prediction by ZEFSAII (Michael W. Deem and Ramdas Pophale) SiO2 
 PCOD8320241
Probable space group: I 4/M C M
;
_chemical_formula_sum "Si O2"
_cell_formula_units_Z 160
_cell_length_a 21.493627
_cell_length_b 21.493627
_cell_length_c 18.490721
_cell_angle_alpha 90.000000
_cell_angle_beta 90.000000
_cell_angle_gamma 90.000000
_cell_volume 8542.269355
_symmetry_space_group_name_H-M "I 4/M C M"
_symmetry_group_IT_number 140
_symmetry_cell_setting 'tetragonal'
loop_
_space_group_symop_operation_xyz
x,y,z
-y,x,z
-x,-y,z
y,-x,z
x,-y,1/2-z
-x,y,1/2-z
y,x,1/2-z
-y,-x,1/2-z
-x,-y,-z
y,-x,-z
x,y,-z
-y,x,-z
-x,y,1/2+z
x,-y,1/2+z
-y,-x,1/2+z
y,x,1/2+z
1/2+x,1/2+y,1/2+z
1/2-y,1/2+x,1/2+z
1/2-x,1/2-y,1/2+z
1/2+y,1/2-x,1/2+z
1/2+x,1/2-y,-z
1/2-x,1/2+y,-z
1/2+y,1/2+x,-z
1/2-y,1/2-x,-z
1/2-x,1/2-y,1/2-z
1/2+y,1/2-x,1/2-z
1/2+x,1/2+y,1/2-z
1/2-y,1/2+x,1/2-z
1/2-x,1/2+y,z
1/2+x,1/2-y,z
1/2-y,1/2-x,z
1/2+y,1/2+x,z
loop_
_atom_site_type_symbol
_atom_site_label
_atom_site_fract_x
_atom_site_fract_y
_atom_site_fract_z
Si Si1 0.058921 0.163066 0.417063
Si Si2 0.420325 0.667399 0.913507
Si Si3 0.890070 0.706596 0.580548
Si Si4 0.568943 0.165878 0.723551
Si Si5 0.342187 0.259863 0.299620
O O1 0.041229 0.157190 0.500000
O O2 0.097095 0.101964 0.393507
O O3 0.106145 0.220294 0.402416
O O4 0.990766 0.171854 0.381049
O O5 0.376436 0.716264 0.871941
O O6 0.414152 0.680352 0.000000
O O7 0.915489 0.692645 0.500000
O O8 0.818462 0.681539 0.588966
O O9 0.933396 0.669150 0.636226
O O10 0.500000 0.165268 0.750000
O O11 0.602854 0.102854 0.749552
O O12 0.606512 0.225497 0.751131
O O13 0.315702 0.315702 0.250000
O O14 0.286790 0.213211 0.322960
#
# Coordination Sequence:
#
# PCOD8320241 Si02
#       5
#    32  32  32  32  32
#     4   9  18  31  49  75 101 130 169 209 252 300
#     4  10  20  34  52  73 101 136 173 212 254 307
#     4   9  17  31  53  78 101 128 169 215 253 299
#     4  10  20  34  53  76 104 138 170 205 254 305
#     4  10  21  35  51  76 106 132 165 211 262 314
#
# _framework density 18.730384999999998
#
# number of rings (size 3 to 8) (size 9 to 14) (size 15 to 20)
#    0.000    2.400    0.000    2.400    0.000    3.400 
#    0.000    4.000    0.000    1.800    0.000    7.000 
#    0.000    0.000    0.000    0.000    0.000    0.000 
#
# Total GULP energy -991248.369008 kJ/mol
# GULP energy per Si atom -12390.604613 kJ/mol
# Density = 1.868775 g / cm^3
# Si number density = 18.730385 Si / 1000 Ang^3
#
#
#
# Elastic Constant Matrix: (Units=GPa)
#
#
# Indices 1 2 3 4 5 6 
#
# 1 128.3739 72.1578 45.4877 0.0000 0.0000 0.0000
# 2 72.1578 128.3739 45.4877 0.0000 0.0000 0.0000
# 3 45.4877 45.4877 75.1213 0.0000 0.0000 0.0000
# 4 0.0000 0.0000 0.0000 19.4122 0.0000 0.0000
# 5 0.0000 0.0000 0.0000 0.0000 19.4122 0.0000
# 6 0.0000 0.0000 0.0000 0.0000 0.0000 18.9755
#
#
#
# Elastic Compliance Matrix: (Units=1/GPa)
#
#
# Indices 1 2 3 4 5 6 
#
# 1 0.012332 -0.005456 -0.004163 0.000000 0.000000 0.000000
# 2 -0.005456 0.012332 -0.004163 0.000000 0.000000 0.000000
# 3 -0.004163 -0.004163 0.018354 0.000000 0.000000 0.000000
# 4 0.000000 0.000000 0.000000 0.051514 0.000000 0.000000
# 5 0.000000 0.000000 0.000000 0.000000 0.051514 0.000000
# 6 0.000000 0.000000 0.000000 0.000000 0.000000 0.052700
#
#
# Mechanical properties :
#
#
# Convention : Reuss Voigt Hill
#
# Bulk Modulus (GPa) = 64.71816 73.12619 68.92218
# Shear Modulus (GPa) = 21.60185 22.80906 22.20545
#
# Velocity S-wave (km/s) = 3.39972 3.49342 3.44689
# Velocity P-wave (km/s) = 7.07378 7.44300 7.26073
#
# Compressibility (1/GPa) = 0.01545161
#
# Stress axis : x y z
#
# Youngs Moduli (GPa) = 81.08988 81.08988 54.48485
#
# Poissons Ratio (x) = 0.44247 0.22684
# Poissons Ratio (y) = 0.44247 0.22684
# Poissons Ratio (z) = 0.33760 0.33760
#
# Static dielectric constant tensor:
#      x y z
#    x 3.476830 0.000000 0.000000 
#    y 0.000000 3.476830 0.000000 
#    z 0.000000 0.000000 3.500600 
# 
# 
# High freq. dielectric constant tensor:
#      x y z
#    x 1.720780 0.000000 0.000000 
#    y 0.000000 1.720780 0.000000 
#    z 0.000000 0.000000 1.720210 
# 
# From -- ./inp_files/6828.got.cif
#   From: 2010.06.25/outbox.cif.g09.slc.cpg/sg140_4_cif.got.tgz:6828.got - 2010.06.28 10:53:23.
