data_PCOD8320413
_publ_section_title
;
Structure prediction by ZEFSAII (Michael W. Deem and Ramdas Pophale) SiO2 
 PCOD8320413
Probable space group: I 4/M C M
;
_chemical_formula_sum "Si O2"
_cell_formula_units_Z 136
_cell_length_a 17.212391
_cell_length_b 17.212391
_cell_length_c 21.904268
_cell_angle_alpha 90.000000
_cell_angle_beta 90.000000
_cell_angle_gamma 90.000000
_cell_volume 6489.498711
_symmetry_space_group_name_H-M "I 4/M C M"
_symmetry_group_IT_number 140
_symmetry_cell_setting 'tetragonal'
loop_
_space_group_symop_operation_xyz
x,y,z
-y,x,z
-x,-y,z
y,-x,z
x,-y,1/2-z
-x,y,1/2-z
y,x,1/2-z
-y,-x,1/2-z
-x,-y,-z
y,-x,-z
x,y,-z
-y,x,-z
-x,y,1/2+z
x,-y,1/2+z
-y,-x,1/2+z
y,x,1/2+z
1/2+x,1/2+y,1/2+z
1/2-y,1/2+x,1/2+z
1/2-x,1/2-y,1/2+z
1/2+y,1/2-x,1/2+z
1/2+x,1/2-y,-z
1/2-x,1/2+y,-z
1/2+y,1/2+x,-z
1/2-y,1/2-x,-z
1/2-x,1/2-y,1/2-z
1/2+y,1/2-x,1/2-z
1/2+x,1/2+y,1/2-z
1/2-y,1/2+x,1/2-z
1/2-x,1/2+y,z
1/2+x,1/2-y,z
1/2-y,1/2-x,z
1/2+y,1/2+x,z
loop_
_atom_site_type_symbol
_atom_site_label
_atom_site_fract_x
_atom_site_fract_y
_atom_site_fract_z
Si Si1 0.682302 0.182302 0.434397
Si Si2 0.836685 0.105757 0.432090
Si Si3 0.726989 0.000000 0.250000
Si Si4 0.718693 0.550704 0.124630
Si Si5 0.000000 0.500000 0.619617
Si Si6 0.121623 0.378377 0.071521
Si Si7 0.110297 0.389704 0.684984
O O1 0.649570 0.149570 0.500000
O O2 0.774378 0.174216 0.432658
O O3 0.640554 0.140554 0.379331
O O4 0.870599 0.090466 0.500000
O O5 0.903890 0.138354 0.388394
O O6 0.790504 0.030961 0.409000
O O7 0.779641 0.036817 0.197025
O O8 0.677666 0.071662 0.275636
O O9 0.797806 0.592479 0.102031
O O10 0.055414 0.555414 0.579236
O O11 0.047429 0.452572 0.668911
O O12 0.135599 0.364401 0.000000
#
# Coordination Sequence:
#
# PCOD8320413 Si02
#       7
#    16  32  16  32   8  16  16
#     4  10  21  41  68  97 131 171 224 285 349 403
#     4  11  23  44  70 100 135 175 230 289 345 402
#     4  12  24  43  66  95 144 178 234 268 328 423
#     4  12  26  44  67 101 135 185 227 280 344 404
#     4  12  21  37  62  98 136 173 219 274 350 400
#     4  12  23  42  68 105 139 171 227 291 352 411
#     4  12  22  42  65  99 133 189 221 275 337 406
#
# _framework density 20.956935000000001
#
# number of rings (size 3 to 8) (size 9 to 14) (size 15 to 20)
#    0.000    0.471    4.706    4.412    0.000    5.176 
#    0.000    2.353    0.000    1.412    0.000    0.000 
#    0.000    0.000    0.000    0.000    0.000    0.000 
#
# Total GULP energy -843003.452827 kJ/mol
# GULP energy per Si atom -12397.109600 kJ/mol
# Density = 2.090924 g / cm^3
# Si number density = 20.956935 Si / 1000 Ang^3
#
#
#
# Elastic Constant Matrix: (Units=GPa)
#
#
# Indices 1 2 3 4 5 6 
#
# 1 73.5383 48.9707 53.4232 0.0000 0.0000 0.0000
# 2 48.9707 73.5383 53.4232 0.0000 0.0000 0.0000
# 3 53.4232 53.4232 190.0596 0.0000 0.0000 0.0000
# 4 0.0000 0.0000 0.0000 -34.6267 0.0001 0.0000
# 5 0.0000 0.0000 0.0000 0.0001 -34.6267 0.0000
# 6 0.0000 0.0000 0.0000 0.0000 0.0000 52.2535
#
#
#
# Elastic Compliance Matrix: (Units=1/GPa)
#
#
# Indices 1 2 3 4 5 6 
#
# 1 0.025759 -0.014945 -0.003040 0.000000 0.000000 0.000000
# 2 -0.014945 0.025759 -0.003040 0.000000 0.000000 0.000000
# 3 -0.003040 -0.003040 0.006970 0.000000 0.000000 0.000000
# 4 0.000000 0.000000 0.000000 -0.028879 0.000000 0.000000
# 5 0.000000 0.000000 0.000000 0.000000 -0.028879 0.000000
# 6 0.000000 0.000000 0.000000 0.000000 0.000000 0.019137
#
#
# Mechanical properties :
#
#
# Convention : Reuss Voigt Hill
#
# Bulk Modulus (GPa) = 60.82999 72.08560 66.45780
# Shear Modulus (GPa) = 74.18960 8.68796 41.43878
#
# Velocity S-wave (km/s) = 5.95633 2.03829 4.45154
# Velocity P-wave (km/s) = 8.74031 6.32544 7.62903
#
# Compressibility (1/GPa) = 0.01643926
#
# Stress axis : x y z
#
# Youngs Moduli (GPa) = 38.82165 38.82165 143.46646
#
# Poissons Ratio (x) = 0.58020 0.43608
# Poissons Ratio (y) = 0.58020 0.43608
# Poissons Ratio (z) = 0.11800 0.11800
#
# Static dielectric constant tensor:
#      x y z
#    x 3.829870 0.000000 0.000000 
#    y 0.000000 3.829870 0.000000 
#    z 0.000000 0.000000 3.902630 
# 
# 
# High freq. dielectric constant tensor:
#      x y z
#    x 1.819190 0.000000 0.000000 
#    y 0.000000 1.819190 0.000000 
#    z 0.000000 0.000000 1.833080 
# 
# From -- ./inp_files/8171.got.cif
#   From: 2010.06.25/outbox.cif.g09.slc.cpg/sg140_5_cif.got.tgz:8171.got - 2010.06.28 10:53:23.
