data_PCOD8320240
_publ_section_title
;
Structure prediction by ZEFSAII (Michael W. Deem and Ramdas Pophale) SiO2 
 PCOD8320240
Probable space group: I 4/M C M
;
_chemical_formula_sum "Si O2"
_cell_formula_units_Z 240
_cell_length_a 21.131931
_cell_length_b 21.131931
_cell_length_c 31.242329
_cell_angle_alpha 90.000000
_cell_angle_beta 90.000000
_cell_angle_gamma 90.000000
_cell_volume 13951.527818
_symmetry_space_group_name_H-M "I 4/M C M"
_symmetry_group_IT_number 140
_symmetry_cell_setting 'tetragonal'
loop_
_space_group_symop_operation_xyz
x,y,z
-y,x,z
-x,-y,z
y,-x,z
x,-y,1/2-z
-x,y,1/2-z
y,x,1/2-z
-y,-x,1/2-z
-x,-y,-z
y,-x,-z
x,y,-z
-y,x,-z
-x,y,1/2+z
x,-y,1/2+z
-y,-x,1/2+z
y,x,1/2+z
1/2+x,1/2+y,1/2+z
1/2-y,1/2+x,1/2+z
1/2-x,1/2-y,1/2+z
1/2+y,1/2-x,1/2+z
1/2+x,1/2-y,-z
1/2-x,1/2+y,-z
1/2+y,1/2+x,-z
1/2-y,1/2-x,-z
1/2-x,1/2-y,1/2-z
1/2+y,1/2-x,1/2-z
1/2+x,1/2+y,1/2-z
1/2-y,1/2+x,1/2-z
1/2-x,1/2+y,z
1/2+x,1/2-y,z
1/2-y,1/2-x,z
1/2+y,1/2+x,z
loop_
_atom_site_type_symbol
_atom_site_label
_atom_site_fract_x
_atom_site_fract_y
_atom_site_fract_z
Si Si1 0.189699 0.994383 0.450248
Si Si2 0.371550 0.636059 0.049627
Si Si3 0.682262 0.975018 0.899480
Si Si4 0.185654 0.792001 0.377495
Si Si5 0.876429 0.724971 0.666485
Si Si6 0.174540 0.571390 0.752783
Si Si7 0.803154 0.405999 0.657464
Si Si8 0.553236 0.053236 0.550816
O O1 0.205065 0.994442 0.500000
O O2 0.144862 0.935825 0.437626
O O3 0.257789 0.992141 0.428271
O O4 0.150108 0.056315 0.436963
O O5 0.324802 0.682673 0.074733
O O6 0.359287 0.649406 0.000000
O O7 0.693984 0.909904 0.874663
O O8 0.619151 0.969857 0.928188
O O9 0.675676 0.028226 0.863146
O O10 0.241099 0.741099 0.379814
O O11 0.205568 0.850367 0.346290
O O12 0.119963 0.763154 0.360557
O O13 0.816400 0.683601 0.679445
O O14 0.920713 0.726350 0.708900
O O15 0.150557 0.500000 0.750000
O O16 0.112379 0.612379 0.762757
O O17 0.206776 0.590337 0.708292
O O18 0.858125 0.358125 0.644795
O O19 0.563439 0.063439 0.500000
O O20 0.500000 0.000000 0.559397
#
# Coordination Sequence:
#
# PCOD8320240 Si02
#       8
#    32  32  32  32  32  32  32  16
#     4  10  21  35  55  80 107 138 175 224 278 331
#     4  10  20  35  53  79 109 138 177 223 278 336
#     4  12  19  35  59  77 106 143 186 230 268 317
#     4  10  20  35  53  78 107 140 179 223 275 334
#     4  10  20  34  54  79 106 137 177 221 275 326
#     4  10  20  34  51  78 109 140 178 224 273 333
#     4  10  21  35  54  78 107 139 177 222 275 326
#     4  11  26  42  54  78 116 159 204 234 270 334
#
# _framework density 17.202417000000001
#
# number of rings (size 3 to 8) (size 9 to 14) (size 15 to 20)
#    0.000    1.667    4.667    0.800    0.000    1.200 
#    0.000    4.000    0.000    0.000    0.000    0.000 
#    0.000    0.000    0.000    4.800    0.000    0.000 
#
# Total GULP energy -1487668.709125 kJ/mol
# GULP energy per Si atom -12397.239243 kJ/mol
# Density = 1.716326 g / cm^3
# Si number density = 17.202417 Si / 1000 Ang^3
#
#
#
# Elastic Constant Matrix: (Units=GPa)
#
#
# Indices 1 2 3 4 5 6 
#
# 1 81.1139 35.6192 34.8782 0.0000 0.0000 0.0000
# 2 35.6192 81.1139 34.8782 0.0000 0.0000 0.0000
# 3 34.8782 34.8782 77.5356 0.0000 0.0000 0.0000
# 4 0.0000 0.0000 0.0000 25.0320 0.0000 0.0000
# 5 0.0000 0.0000 0.0000 0.0000 25.0320 0.0000
# 6 0.0000 0.0000 0.0000 0.0000 0.0000 23.8692
#
#
#
# Elastic Compliance Matrix: (Units=1/GPa)
#
#
# Indices 1 2 3 4 5 6 
#
# 1 0.016848 -0.005132 -0.005270 0.000000 0.000000 0.000000
# 2 -0.005132 0.016848 -0.005270 0.000000 0.000000 0.000000
# 3 -0.005270 -0.005270 0.017639 0.000000 0.000000 0.000000
# 4 0.000000 0.000000 0.000000 0.039949 0.000000 0.000000
# 5 0.000000 0.000000 0.000000 0.000000 0.039949 0.000000
# 6 0.000000 0.000000 0.000000 0.000000 0.000000 0.041895
#
#
# Mechanical properties :
#
#
# Convention : Reuss Voigt Hill
#
# Bulk Modulus (GPa) = 50.02585 50.05719 50.04152
# Shear Modulus (GPa) = 23.68135 23.74584 23.71360
#
# Velocity S-wave (km/s) = 3.71432 3.71937 3.71685
# Velocity P-wave (km/s) = 6.89483 6.89979 6.89731
#
# Compressibility (1/GPa) = 0.01998967
#
# Stress axis : x y z
#
# Youngs Moduli (GPa) = 59.35338 59.35338 56.69335
#
# Poissons Ratio (x) = 0.30462 0.29879
# Poissons Ratio (y) = 0.30462 0.29879
# Poissons Ratio (z) = 0.31281 0.31281
#
# Static dielectric constant tensor:
#      x y z
#    x 3.273250 0.000000 0.000000 
#    y 0.000000 3.273250 0.000000 
#    z 0.000000 0.000000 3.332950 
# 
# 
# High freq. dielectric constant tensor:
#      x y z
#    x 1.660150 0.000000 0.000000 
#    y 0.000000 1.660150 0.000000 
#    z 0.000000 0.000000 1.671010 
# 
# From -- ./inp_files/11796.got.cif
#   From: 2010.06.25/outbox.cif.g09.slc.cpg/sg140_6_cif.got.tgz:11796.got - 2010.06.28 10:53:23.
