data_PCOD8320795
_publ_section_title
;
Structure prediction by ZEFSAII (Michael W. Deem and Ramdas Pophale) SiO2 
 PCOD8320795
Probable space group: I 41/A M D
;
_chemical_formula_sum "Si O2"
_cell_formula_units_Z 160
_cell_length_a 21.110929
_cell_length_b 21.110929
_cell_length_c 18.570969
_cell_angle_alpha 90.000000
_cell_angle_beta 90.000000
_cell_angle_gamma 90.000000
_cell_volume 8276.548328
_symmetry_space_group_name_H-M "I 41/A M D"
_symmetry_group_IT_number 141
_space_group.IT_coordinate_system_code '2'
_symmetry_cell_setting 'tetragonal'
loop_
_space_group_symop_operation_xyz
x,y,z
1/4-y,3/4+x,1/4+z
-x,1/2-y,z
1/4+y,1/4-x,3/4+z
x,-y,-z
-x,1/2+y,-z
1/4+y,3/4+x,1/4-z
1/4-y,1/4-x,3/4-z
-x,-y,-z
3/4+y,1/4-x,3/4-z
x,1/2+y,-z
3/4-y,3/4+x,1/4-z
-x,y,z
x,1/2-y,z
3/4-y,1/4-x,3/4+z
3/4+y,3/4+x,1/4+z
1/2+x,1/2+y,1/2+z
3/4-y,1/4+x,3/4+z
1/2-x,-y,1/2+z
3/4+y,3/4-x,1/4+z
1/2+x,1/2-y,1/2-z
1/2-x,y,1/2-z
3/4+y,1/4+x,3/4-z
3/4-y,3/4-x,1/4-z
1/2-x,1/2-y,1/2-z
1/4+y,3/4-x,1/4-z
1/2+x,y,1/2-z
1/4-y,1/4+x,3/4-z
1/2-x,1/2+y,1/2+z
1/2+x,-y,1/2+z
1/4-y,3/4-x,1/4+z
1/4+y,1/4+x,3/4+z
loop_
_atom_site_type_symbol
_atom_site_label
_atom_site_fract_x
_atom_site_fract_y
_atom_site_fract_z
Si Si1 0.568903 0.930575 0.031061
Si Si2 0.428932 0.534226 0.575132
Si Si3 0.182714 0.055564 0.289733
Si Si4 0.885582 0.072196 0.687746
Si Si5 0.069080 0.087105 0.837798
O O1 0.500000 0.896823 0.014878
O O2 0.573940 0.939922 0.116763
O O3 0.631058 0.897604 0.993726
O O4 0.566338 0.000000 0.000000
O O5 0.416923 0.500000 0.500000
O O6 0.500000 0.563848 0.577033
O O7 0.375804 0.586359 0.585605
O O8 0.419682 0.485656 0.640654
O O9 0.188857 0.061144 0.375000
O O10 0.250000 0.048326 0.250000
O O11 0.144476 0.991203 0.277616
O O12 0.929479 0.097351 0.751981
O O13 0.121754 0.128247 0.875000
O O14 0.000000 0.108960 0.865525
#
# Coordination Sequence:
#
# PCOD8320795 Si02
#       5
#    32  32  32  32  32
#     4  10  21  39  58  86 127 161 196 253 315 370
#     4  10  21  38  57  83 122 162 196 244 316 366
#     4  11  21  35  57  94 122 153 196 249 311 364
#     4  12  21  36  64  90 115 156 206 256 298 367
#     4  11  24  38  55  82 115 157 199 241 296 359
#
# _framework density 19.331731000000001
#
# number of rings (size 3 to 8) (size 9 to 14) (size 15 to 20)
#    0.000    1.200    6.000    2.400    0.000    0.200 
#    0.000    0.000    0.000    1.800    0.000    0.000 
#    0.000    0.000    0.000    0.000    0.000    0.000 
#
# Total GULP energy -991240.978702 kJ/mol
# GULP energy per Si atom -12390.512234 kJ/mol
# Density = 1.928773 g / cm^3
# Si number density = 19.331731 Si / 1000 Ang^3
#
#
#
# Elastic Constant Matrix: (Units=GPa)
#
#
# Indices 1 2 3 4 5 6 
#
# 1 98.4128 39.3801 18.2773 0.0000 0.0000 0.0000
# 2 39.3801 98.4170 18.2785 0.0000 0.0000 0.0000
# 3 18.2773 18.2785 134.0702 0.0000 0.0000 0.0000
# 4 0.0000 0.0000 0.0000 -25.9863 0.0000 0.0000
# 5 0.0000 0.0000 0.0000 0.0000 -25.9545 0.0000
# 6 0.0000 0.0000 0.0000 0.0000 0.0000 -0.5277
#
#
#
# Elastic Compliance Matrix: (Units=1/GPa)
#
#
# Indices 1 2 3 4 5 6 
#
# 1 0.012235 -0.004705 -0.001026 0.000000 0.000000 0.000000
# 2 -0.004705 0.012234 -0.001027 0.000000 0.000000 0.000000
# 3 -0.001026 -0.001027 0.007739 0.000000 0.000000 0.000000
# 4 0.000000 0.000000 0.000000 -0.038482 0.000000 0.000000
# 5 0.000000 0.000000 0.000000 0.000000 -0.038529 0.000000
# 6 0.000000 0.000000 0.000000 0.000000 0.000000 -1.894995
#
#
# Mechanical properties :
#
#
# Convention : Reuss Voigt Hill
#
# Bulk Modulus (GPa) = 53.49990 53.64132 53.57061
# Shear Modulus (GPa) = -2.60410 6.50389 1.94990
#
# Velocity S-wave (km/s) = -1.16189 1.83621 1.00541
# Velocity P-wave (km/s) = 5.09262 5.68363 5.39622
#
# Compressibility (1/GPa) = 0.01869162
#
# Stress axis : x y z
#
# Youngs Moduli (GPa) = 81.73558 81.73891 129.22120
#
# Poissons Ratio (x) = 0.38457 0.13264
# Poissons Ratio (y) = 0.38455 0.13265
# Poissons Ratio (z) = 0.08390 0.08391
#
# Static dielectric constant tensor:
#      x y z
#    x 3.762110 0.000000 0.000000 
#    y 0.000000 3.762100 0.000000 
#    z 0.000000 0.000000 3.593490 
# 
# 
# High freq. dielectric constant tensor:
#      x y z
#    x 1.733960 0.000000 0.000000 
#    y 0.000000 1.733960 0.000000 
#    z 0.000000 0.000000 1.774570 
# 
# From -- ./inp_files/8607.got.cif
#   From: 2010.03.12/outbox.cif.g09.slc.cpg/sg141_5_cif.got.tgz:8607.got - 2010.04.03 13:18:35.
