data_PCOD8320083
_publ_section_title
;
Structure prediction by ZEFSAII (Michael W. Deem and Ramdas Pophale) SiO2 
 PCOD8320083
Probable space group: I 4/M C M
;
_chemical_formula_sum "Si O2"
_cell_formula_units_Z 160
_cell_length_a 30.404303
_cell_length_b 30.404303
_cell_length_c 10.149692
_cell_angle_alpha 90.000000
_cell_angle_beta 90.000000
_cell_angle_gamma 90.000000
_cell_volume 9382.594933
_symmetry_space_group_name_H-M "I 4/M C M"
_symmetry_group_IT_number 140
_symmetry_cell_setting 'tetragonal'
loop_
_space_group_symop_operation_xyz
x,y,z
-y,x,z
-x,-y,z
y,-x,z
x,-y,1/2-z
-x,y,1/2-z
y,x,1/2-z
-y,-x,1/2-z
-x,-y,-z
y,-x,-z
x,y,-z
-y,x,-z
-x,y,1/2+z
x,-y,1/2+z
-y,-x,1/2+z
y,x,1/2+z
1/2+x,1/2+y,1/2+z
1/2-y,1/2+x,1/2+z
1/2-x,1/2-y,1/2+z
1/2+y,1/2-x,1/2+z
1/2+x,1/2-y,-z
1/2-x,1/2+y,-z
1/2+y,1/2+x,-z
1/2-y,1/2-x,-z
1/2-x,1/2-y,1/2-z
1/2+y,1/2-x,1/2-z
1/2+x,1/2+y,1/2-z
1/2-y,1/2+x,1/2-z
1/2-x,1/2+y,z
1/2+x,1/2-y,z
1/2-y,1/2-x,z
1/2+y,1/2+x,z
loop_
_atom_site_type_symbol
_atom_site_label
_atom_site_fract_x
_atom_site_fract_y
_atom_site_fract_z
Si Si1 0.748608 0.547790 0.000000
Si Si2 0.161695 0.266447 0.741657
Si Si3 0.265136 0.452291 0.500000
Si Si4 0.932085 0.297269 0.239089
Si Si5 0.108617 0.463899 0.650293
Si Si6 0.284735 0.643352 0.500000
Si Si7 0.794995 0.860138 0.000000
O O1 0.718263 0.503235 0.000000
O O2 0.780893 0.547224 0.875448
O O3 0.716595 0.590144 0.000000
O O4 0.206138 0.293863 0.720513
O O5 0.120738 0.300125 0.748126
O O6 0.155707 0.232065 0.625477
O O7 0.164518 0.239264 0.875662
O O8 0.236724 0.445850 0.628890
O O9 0.302367 0.413561 0.500000
O O10 0.951256 0.344153 0.205262
O O11 0.088427 0.500000 0.750000
O O12 0.111387 0.481972 0.500000
O O13 0.078881 0.421120 0.654870
O O14 0.336100 0.657642 0.500000
#
# Coordination Sequence:
#
# PCOD8320083 Si02
#       7
#    16  32  16  32  32  16  16
#     4  10  20  33  53  74 101 128 159 201 247 293
#     4  10  20  33  49  70  98 132 166 197 234 284
#     4  10  18  33  53  74  97 124 163 201 243 291
#     4  10  20  34  53  77  98 122 158 205 250 290
#     4  11  24  40  57  75  97 124 157 202 255 311
#     4  10  21  34  46  69 101 132 163 201 239 279
#     4  10  21  32  48  71  97 130 167 203 235 279
#
# _framework density 17.052852000000001
#
# number of rings (size 3 to 8) (size 9 to 14) (size 15 to 20)
#    0.000    1.800    1.000    3.600    1.400    3.000 
#    0.000    2.000    0.000    0.000    0.000    0.000 
#    0.000    0.400    0.000    0.000    0.000   31.200 
#
# Total GULP energy -991735.295418 kJ/mol
# GULP energy per Si atom -12396.691193 kJ/mol
# Density = 1.701404 g / cm^3
# Si number density = 17.052852 Si / 1000 Ang^3
#
#
#
# Elastic Constant Matrix: (Units=GPa)
#
#
# Indices 1 2 3 4 5 6 
#
# 1 81.7393 51.6886 29.0844 0.0000 0.0000 0.0000
# 2 51.6886 81.7393 29.0844 0.0000 0.0000 0.0000
# 3 29.0844 29.0844 137.7787 0.0000 0.0000 0.0000
# 4 0.0000 0.0000 0.0000 21.6718 0.0000 0.0000
# 5 0.0000 0.0000 0.0000 0.0000 21.6718 0.0000
# 6 0.0000 0.0000 0.0000 0.0000 0.0000 61.4689
#
#
#
# Elastic Compliance Matrix: (Units=1/GPa)
#
#
# Indices 1 2 3 4 5 6 
#
# 1 0.020766 -0.012511 -0.001742 0.000000 0.000000 0.000000
# 2 -0.012511 0.020766 -0.001742 0.000000 0.000000 0.000000
# 3 -0.001742 -0.001742 0.007994 0.000000 0.000000 0.000000
# 4 0.000000 0.000000 0.000000 0.046143 0.000000 0.000000
# 5 0.000000 0.000000 0.000000 0.000000 0.046143 0.000000
# 6 0.000000 0.000000 0.000000 0.000000 0.000000 0.016268
#
#
# Mechanical properties :
#
#
# Convention : Reuss Voigt Hill
#
# Bulk Modulus (GPa) = 57.03690 57.88578 57.46134
# Shear Modulus (GPa) = 25.52110 33.72247 29.62179
#
# Velocity S-wave (km/s) = 3.87277 4.45176 4.17232
# Velocity P-wave (km/s) = 7.31557 7.77450 7.54853
#
# Compressibility (1/GPa) = 0.01753251
#
# Stress axis : x y z
#
# Youngs Moduli (GPa) = 48.15624 48.15624 125.09917
#
# Poissons Ratio (x) = 0.60250 0.21798
# Poissons Ratio (y) = 0.60250 0.21798
# Poissons Ratio (z) = 0.08391 0.08391
#
# Static dielectric constant tensor:
#      x y z
#    x 3.270140 0.000000 0.000000 
#    y 0.000000 3.270140 0.000000 
#    z 0.000000 0.000000 3.473990 
# 
# 
# High freq. dielectric constant tensor:
#      x y z
#    x 1.636480 0.000000 0.000000 
#    y 0.000000 1.636480 0.000000 
#    z 0.000000 0.000000 1.687800 
# 
# From -- ./inp_files/1906.got.cif
#   From: 2010.06.25/outbox.cif.g09.slc.cpg/sg140_1_cif.got.tgz:1906.got - 2010.06.28 10:53:23.
