data_PCOD8320022
_publ_section_title
;
Structure prediction by ZEFSAII (Michael W. Deem and Ramdas Pophale) SiO2 
 PCOD8320022
Probable space group: I 4/M M M
;
_chemical_formula_sum "Si O2"
_cell_formula_units_Z 128
_cell_length_a 30.310456
_cell_length_b 30.310456
_cell_length_c 9.560099
_cell_angle_alpha 90.000000
_cell_angle_beta 90.000000
_cell_angle_gamma 90.000000
_cell_volume 8783.089936
_symmetry_space_group_name_H-M "I 4/M M M"
_symmetry_group_IT_number 139
_symmetry_cell_setting 'tetragonal'
loop_
_space_group_symop_operation_xyz
x,y,z
-y,x,z
-x,-y,z
y,-x,z
x,-y,-z
-x,y,-z
y,x,-z
-y,-x,-z
-x,-y,-z
y,-x,-z
x,y,-z
-y,x,-z
-x,y,z
x,-y,z
-y,-x,z
y,x,z
1/2+x,1/2+y,1/2+z
1/2-y,1/2+x,1/2+z
1/2-x,1/2-y,1/2+z
1/2+y,1/2-x,1/2+z
1/2+x,1/2-y,1/2-z
1/2-x,1/2+y,1/2-z
1/2+y,1/2+x,1/2-z
1/2-y,1/2-x,1/2-z
1/2-x,1/2-y,1/2-z
1/2+y,1/2-x,1/2-z
1/2+x,1/2+y,1/2-z
1/2-y,1/2+x,1/2-z
1/2-x,1/2+y,1/2+z
1/2+x,1/2-y,1/2+z
1/2-y,1/2-x,1/2+z
1/2+y,1/2+x,1/2+z
loop_
_atom_site_type_symbol
_atom_site_label
_atom_site_fract_x
_atom_site_fract_y
_atom_site_fract_z
Si Si1 0.683516 0.245604 0.836029
Si Si2 0.751825 0.082777 0.658492
Si Si3 0.854689 0.000000 0.844851
Si Si4 0.250663 0.000000 0.159979
Si Si5 0.355411 0.576080 0.846520
O O1 0.706574 0.293427 0.804948
O O2 0.708029 0.208029 0.750000
O O3 0.632411 0.242186 0.787793
O O4 0.687296 0.235137 0.000000
O O5 0.733977 0.075301 0.500000
O O6 0.732028 0.044394 0.759721
O O7 0.803738 0.079513 0.660842
O O8 0.873957 0.957338 0.768139
O O9 0.801881 0.000000 0.841037
O O10 0.873516 0.000000 0.000000
O O11 0.268769 0.000000 0.000000
O O12 0.375949 0.624052 0.816651
O O13 0.369285 0.558750 0.000000
#
# Coordination Sequence:
#
# PCOD8320022 Si02
#       5
#    32  32  16  16  32
#     4   9  17  28  41  58  81 109 140 171 201 235
#     4   9  16  27  42  58  77 101 129 160 194 232
#     4   9  17  27  37  52  74  93 109 137 181 229
#     4   9  17  27  39  57  78  98 123 158 198 236
#     4   9  16  26  41  57  70  88 116 148 181 219
#
# _framework density 14.573459
#
# number of rings (size 3 to 8) (size 9 to 14) (size 15 to 20)
#    0.000    3.000    0.000    1.500    0.000    7.500 
#    0.000    0.000    0.000    4.875    0.000    2.625 
#    0.000    0.000    0.000    0.000    0.000    0.625 
#
# Total GULP energy -792889.797915 kJ/mol
# GULP energy per Si atom -12388.903092 kJ/mol
# Density = 1.454029 g / cm^3
# Si number density = 14.573459 Si / 1000 Ang^3
#
#
#
# Elastic Constant Matrix: (Units=GPa)
#
#
# Indices 1 2 3 4 5 6 
#
# 1 69.3292 15.7178 37.5221 0.0000 0.0000 0.0000
# 2 15.7178 69.3292 37.5221 0.0000 0.0000 0.0000
# 3 37.5221 37.5221 89.4580 0.0000 0.0000 0.0000
# 4 0.0000 0.0000 0.0000 131.0775 0.0000 0.0000
# 5 0.0000 0.0000 0.0000 0.0000 131.0775 0.0000
# 6 0.0000 0.0000 0.0000 0.0000 0.0000 12.9035
#
#
#
# Elastic Compliance Matrix: (Units=1/GPa)
#
#
# Indices 1 2 3 4 5 6 
#
# 1 0.018660 0.000007 -0.007830 0.000000 0.000000 0.000000
# 2 0.000007 0.018660 -0.007830 0.000000 0.000000 0.000000
# 3 -0.007830 -0.007830 0.017747 0.000000 0.000000 0.000000
# 4 0.000000 0.000000 0.000000 0.007629 0.000000 0.000000
# 5 0.000000 0.000000 0.000000 0.000000 0.007629 0.000000
# 6 0.000000 0.000000 0.000000 0.000000 0.000000 0.077498
#
#
# Mechanical properties :
#
#
# Convention : Reuss Voigt Hill
#
# Bulk Modulus (GPa) = 42.08418 45.51560 43.79989
# Shear Modulus (GPa) = 26.73117 64.16867 45.44992
#
# Velocity S-wave (km/s) = 4.28745 6.64280 5.59057
# Velocity P-wave (km/s) = 7.31092 9.49396 8.47304
#
# Compressibility (1/GPa) = 0.02376190
#
# Stress axis : x y z
#
# Youngs Moduli (GPa) = 53.59101 53.59101 56.34903
#
# Poissons Ratio (x) = -0.00038 0.44119
# Poissons Ratio (y) = -0.00038 0.44119
# Poissons Ratio (z) = 0.41960 0.41960
#
# Static dielectric constant tensor:
#      x y z
#    x 2.712870 0.000000 0.000000 
#    y 0.000000 2.712870 0.000000 
#    z 0.000000 0.000000 3.124090 
# 
# 
# High freq. dielectric constant tensor:
#      x y z
#    x 1.523740 0.000000 0.000000 
#    y 0.000000 1.523740 0.000000 
#    z 0.000000 0.000000 1.565500 
# 
# From -- ./inp_files/1783.got.cif
#   From: 2010.03.12/outbox.cif.g09.slc.cpg/sg139_1_cif.got.tgz:1783.got - 2010.04.08 09:46:31.
