data_PCOD8320846
_publ_section_title
;
Structure prediction by ZEFSAII (Michael W. Deem and Ramdas Pophale) SiO2 
 PCOD8320846
Probable space group: I 41/A M D
;
_chemical_formula_sum "Si O2"
_cell_formula_units_Z 80
_cell_length_a 26.630224
_cell_length_b 26.630224
_cell_length_c 5.086413
_cell_angle_alpha 90.000000
_cell_angle_beta 90.000000
_cell_angle_gamma 90.000000
_cell_volume 3607.125558
_symmetry_space_group_name_H-M "I 41/A M D"
_symmetry_group_IT_number 141
_space_group.IT_coordinate_system_code '2'
_symmetry_cell_setting 'tetragonal'
loop_
_space_group_symop_operation_xyz
x,y,z
1/4-y,3/4+x,1/4+z
-x,1/2-y,z
1/4+y,1/4-x,3/4+z
x,-y,-z
-x,1/2+y,-z
1/4+y,3/4+x,1/4-z
1/4-y,1/4-x,3/4-z
-x,-y,-z
3/4+y,1/4-x,3/4-z
x,1/2+y,-z
3/4-y,3/4+x,1/4-z
-x,y,z
x,1/2-y,z
3/4-y,1/4-x,3/4+z
3/4+y,3/4+x,1/4+z
1/2+x,1/2+y,1/2+z
3/4-y,1/4+x,3/4+z
1/2-x,-y,1/2+z
3/4+y,3/4-x,1/4+z
1/2+x,1/2-y,1/2-z
1/2-x,y,1/2-z
3/4+y,1/4+x,3/4-z
3/4-y,3/4-x,1/4-z
1/2-x,1/2-y,1/2-z
1/4+y,3/4-x,1/4-z
1/2+x,y,1/2-z
1/4-y,1/4+x,3/4-z
1/2-x,1/2+y,1/2+z
1/2+x,-y,1/2+z
1/4-y,3/4-x,1/4+z
1/4+y,1/4+x,3/4+z
loop_
_atom_site_type_symbol
_atom_site_label
_atom_site_fract_x
_atom_site_fract_y
_atom_site_fract_z
Si Si1 0.500000 0.331914 0.600294
Si Si2 0.145762 0.750000 0.636833
Si Si3 0.908820 0.533252 0.754924
Si Si4 0.304287 0.945714 0.875000
O O1 0.550167 0.300167 0.625000
O O2 0.500000 0.348079 0.299005
O O3 0.500000 0.378043 0.808728
O O4 0.175971 0.700137 0.565421
O O5 0.902315 0.500000 0.500000
O O6 0.853600 0.557873 0.816426
O O7 0.927209 0.500000 0.000000
O O8 0.250000 0.942733 0.750000
#
# Coordination Sequence:
#
# PCOD8320846 Si02
#       4
#    16  16  32  16
#     4  11  26  45  68  99 134 173 228 293 354 424
#     4  12  24  44  72  99 136 179 230 290 358 421
#     4  11  24  42  66  99 138 182 229 287 347 418
#     4  10  22  40  66  98 137 184 228 282 343 412
#
# _framework density 22.178325999999998
#
# number of rings (size 3 to 8) (size 9 to 14) (size 15 to 20)
#    0.000    1.000    0.000    6.000    5.600    6.400 
#    0.000    0.000    0.000    0.000    0.000    0.000 
#    0.000    0.000    0.000    0.000    0.000    0.000 
#
# Total GULP energy -495632.822265 kJ/mol
# GULP energy per Si atom -12390.820557 kJ/mol
# Density = 2.212785 g / cm^3
# Si number density = 22.178326 Si / 1000 Ang^3
#
#
#
# Elastic Constant Matrix: (Units=GPa)
#
#
# Indices 1 2 3 4 5 6 
#
# 1 140.1164 59.5396 14.6197 0.0000 0.0000 0.0000
# 2 59.5396 140.1165 14.6195 0.0000 0.0000 0.0000
# 3 14.6197 14.6195 94.2437 0.0000 0.0000 0.0000
# 4 0.0000 0.0000 0.0000 32.7142 0.0000 0.0000
# 5 0.0000 0.0000 0.0000 0.0000 32.7128 0.0000
# 6 0.0000 0.0000 0.0000 0.0000 0.0000 47.2058
#
#
#
# Elastic Compliance Matrix: (Units=1/GPa)
#
#
# Indices 1 2 3 4 5 6 
#
# 1 0.008768 -0.003643 -0.000795 0.000000 0.000000 0.000000
# 2 -0.003643 0.008768 -0.000795 0.000000 0.000000 0.000000
# 3 -0.000795 -0.000795 0.010857 0.000000 0.000000 0.000000
# 4 0.000000 0.000000 0.000000 0.030568 0.000000 0.000000
# 5 0.000000 0.000000 0.000000 0.000000 0.030569 0.000000
# 6 0.000000 0.000000 0.000000 0.000000 0.000000 0.021184
#
#
# Mechanical properties :
#
#
# Convention : Reuss Voigt Hill
#
# Bulk Modulus (GPa) = 55.78043 61.33714 58.55878
# Shear Modulus (GPa) = 39.32208 41.57308 40.44758
#
# Velocity S-wave (km/s) = 4.21526 4.33424 4.27516
# Velocity P-wave (km/s) = 6.99262 7.26387 7.12954
#
# Compressibility (1/GPa) = 0.01792744
#
# Stress axis : x y z
#
# Youngs Moduli (GPa) = 114.05391 114.05406 92.10264
#
# Poissons Ratio (x) = 0.41547 0.07323
# Poissons Ratio (y) = 0.41547 0.07322
# Poissons Ratio (z) = 0.09068 0.09067
#
# Static dielectric constant tensor:
#      x y z
#    x 6.593160 0.000000 0.000000 
#    y 0.000000 6.591580 0.000000 
#    z 0.000000 0.000000 4.086320 
# 
# 
# High freq. dielectric constant tensor:
#      x y z
#    x 1.892880 0.000000 0.000000 
#    y 0.000000 1.892880 0.000000 
#    z 0.000000 0.000000 1.863160 
# 
# From -- ./inp_files/1037.got.cif
#   From: 2010.03.12/outbox.cif.g09.slc.cpg/sg141_1_cif.got.tgz:1037.got - 2010.04.03 13:18:35.
