data_PCOD8320223
_publ_section_title
;
Structure prediction by ZEFSAII (Michael W. Deem and Ramdas Pophale) SiO2 
 PCOD8320223
Probable space group: I 4/M C M
;
_chemical_formula_sum "Si O2"
_cell_formula_units_Z 192
_cell_length_a 25.264762
_cell_length_b 25.264762
_cell_length_c 20.403117
_cell_angle_alpha 90.000000
_cell_angle_beta 90.000000
_cell_angle_gamma 90.000000
_cell_volume 13023.476865
_symmetry_space_group_name_H-M "I 4/M C M"
_symmetry_group_IT_number 140
_symmetry_cell_setting 'tetragonal'
loop_
_space_group_symop_operation_xyz
x,y,z
-y,x,z
-x,-y,z
y,-x,z
x,-y,1/2-z
-x,y,1/2-z
y,x,1/2-z
-y,-x,1/2-z
-x,-y,-z
y,-x,-z
x,y,-z
-y,x,-z
-x,y,1/2+z
x,-y,1/2+z
-y,-x,1/2+z
y,x,1/2+z
1/2+x,1/2+y,1/2+z
1/2-y,1/2+x,1/2+z
1/2-x,1/2-y,1/2+z
1/2+y,1/2-x,1/2+z
1/2+x,1/2-y,-z
1/2-x,1/2+y,-z
1/2+y,1/2+x,-z
1/2-y,1/2-x,-z
1/2-x,1/2-y,1/2-z
1/2+y,1/2-x,1/2-z
1/2+x,1/2+y,1/2-z
1/2-y,1/2+x,1/2-z
1/2-x,1/2+y,z
1/2+x,1/2-y,z
1/2-y,1/2-x,z
1/2+y,1/2+x,z
loop_
_atom_site_type_symbol
_atom_site_label
_atom_site_fract_x
_atom_site_fract_y
_atom_site_fract_z
Si Si1 0.857151 0.267715 0.500000
Si Si2 0.637622 0.949599 0.072287
Si Si3 0.629630 0.781106 0.115084
Si Si4 0.163499 0.752812 0.750746
Si Si5 0.887888 0.700852 0.863628
Si Si6 0.380578 0.969725 0.181525
Si Si7 0.771956 0.817040 0.000000
O O1 0.811617 0.311617 0.500000
O O2 0.894639 0.274472 0.563804
O O3 0.830064 0.209606 0.500000
O O4 0.600484 0.899517 0.065143
O O5 0.694305 0.927923 0.098123
O O6 0.609728 0.989781 0.122322
O O7 0.644638 0.976009 0.000000
O O8 0.673258 0.826743 0.114808
O O9 0.625968 0.754103 0.186210
O O10 0.646024 0.735668 0.063583
O O11 0.189141 0.810859 0.750000
O O12 0.208801 0.708801 0.752005
O O13 0.128232 0.747622 0.685687
O O14 0.842655 0.657346 0.865802
O O15 0.940987 0.674249 0.836220
O O16 0.429838 0.929838 0.186281
O O17 0.374520 0.000000 0.250000
O O18 0.728789 0.771212 0.000000
#
# Coordination Sequence:
#
# PCOD8320223 Si02
#       7
#    16  32  32  32  32  32  16
#     4   9  16  26  41  60  83 103 124 147 187 254
#     4  10  20  33  47  62  78 100 136 182 230 270
#     4   9  15  25  40  58  82 104 125 159 202 247
#     4   9  15  23  38  60  83 104 125 149 187 244
#     4   9  18  30  42  59  80 103 127 161 207 255
#     4  11  23  36  49  60  75 102 139 184 236 278
#     4   9  14  22  39  62  83 107 126 145 185 244
#
# _framework density 14.742607
#
# number of rings (size 3 to 8) (size 9 to 14) (size 15 to 20)
#    0.000    2.500    0.833    2.500    1.167    8.167 
#    0.000    0.833    0.000    0.000    0.000    0.000 
#    0.000    0.000    0.000    0.000    0.000    0.000 
#
# Total GULP energy -1189934.294833 kJ/mol
# GULP energy per Si atom -12395.148905 kJ/mol
# Density = 1.470905 g / cm^3
# Si number density = 14.742607 Si / 1000 Ang^3
#
#
#
# Elastic Constant Matrix: (Units=GPa)
#
#
# Indices 1 2 3 4 5 6 
#
# 1 36.0446 35.0588 39.1961 0.0000 0.0000 0.0000
# 2 35.0588 36.0440 39.1952 0.0000 0.0000 0.0000
# 3 39.1961 39.1952 156.5894 0.0000 0.0000 0.0000
# 4 0.0000 0.0000 0.0000 19.4659 0.0000 0.0000
# 5 0.0000 0.0000 0.0000 0.0000 19.4662 0.0000
# 6 0.0000 0.0000 0.0000 0.0000 0.0000 22.0523
#
#
#
# Elastic Compliance Matrix: (Units=1/GPa)
#
#
# Indices 1 2 3 4 5 6 
#
# 1 0.517076 -0.497653 -0.004865 0.000000 0.000000 0.000000
# 2 -0.497653 0.517079 -0.004860 0.000000 0.000000 0.000000
# 3 -0.004865 -0.004860 0.008820 0.000000 0.000000 0.000000
# 4 0.000000 0.000000 0.000000 0.051372 0.000000 0.000000
# 5 0.000000 0.000000 0.000000 0.000000 0.051371 0.000000
# 6 0.000000 0.000000 0.000000 0.000000 0.000000 0.045347
#
#
# Mechanical properties :
#
#
# Convention : Reuss Voigt Hill
#
# Bulk Modulus (GPa) = 35.43481 50.61981 43.02731
# Shear Modulus (GPa) = 2.25711 19.87874 11.06792
#
# Velocity S-wave (km/s) = 1.23868 3.67602 2.74294
# Velocity P-wave (km/s) = 5.11210 7.24070 6.26743
#
# Compressibility (1/GPa) = 0.02822084
#
# Stress axis : x y z
#
# Youngs Moduli (GPa) = 1.93395 1.93394 113.37604
#
# Poissons Ratio (x) = 0.96243 0.55152
# Poissons Ratio (y) = 0.96244 0.55098
# Poissons Ratio (z) = 0.00941 0.00940
#
# Static dielectric constant tensor:
#      x y z
#    x 2.625960 0.000000 0.000000 
#    y 0.000000 2.625970 0.000000 
#    z 0.000000 0.000000 3.206460 
# 
# 
# High freq. dielectric constant tensor:
#      x y z
#    x 1.519030 0.000000 0.000000 
#    y 0.000000 1.519030 0.000000 
#    z 0.000000 0.000000 1.592580 
# 
# From -- ./inp_files/8672.got.cif
#   From: 2010.06.25/outbox.cif.g09.slc.cpg/sg140_5_cif.got.tgz:8672.got - 2010.06.28 10:53:23.
