data_PCOD8320921
_publ_section_title
;
Structure prediction by ZEFSAII (Michael W. Deem and Ramdas Pophale) SiO2 
 PCOD8320921
Probable space group: I 41/A M D
;
_chemical_formula_sum "Si O2"
_cell_formula_units_Z 112
_cell_length_a 16.377884
_cell_length_b 16.377884
_cell_length_c 18.057761
_cell_angle_alpha 90.000000
_cell_angle_beta 90.000000
_cell_angle_gamma 90.000000
_cell_volume 4843.725044
_symmetry_space_group_name_H-M "I 41/A M D"
_symmetry_group_IT_number 141
_space_group.IT_coordinate_system_code '2'
_symmetry_cell_setting 'tetragonal'
loop_
_space_group_symop_operation_xyz
x,y,z
1/4-y,3/4+x,1/4+z
-x,1/2-y,z
1/4+y,1/4-x,3/4+z
x,-y,-z
-x,1/2+y,-z
1/4+y,3/4+x,1/4-z
1/4-y,1/4-x,3/4-z
-x,-y,-z
3/4+y,1/4-x,3/4-z
x,1/2+y,-z
3/4-y,3/4+x,1/4-z
-x,y,z
x,1/2-y,z
3/4-y,1/4-x,3/4+z
3/4+y,3/4+x,1/4+z
1/2+x,1/2+y,1/2+z
3/4-y,1/4+x,3/4+z
1/2-x,-y,1/2+z
3/4+y,3/4-x,1/4+z
1/2+x,1/2-y,1/2-z
1/2-x,y,1/2-z
3/4+y,1/4+x,3/4-z
3/4-y,3/4-x,1/4-z
1/2-x,1/2-y,1/2-z
1/4+y,3/4-x,1/4-z
1/2+x,y,1/2-z
1/4-y,1/4+x,3/4-z
1/2-x,1/2+y,1/2+z
1/2+x,-y,1/2+z
1/4-y,3/4-x,1/4+z
1/4+y,1/4+x,3/4+z
loop_
_atom_site_type_symbol
_atom_site_label
_atom_site_fract_x
_atom_site_fract_y
_atom_site_fract_z
Si Si1 0.857649 0.107649 0.375000
Si Si2 0.403751 0.750000 0.768845
Si Si3 0.188050 0.600468 0.942707
Si Si4 0.097664 0.036356 0.851584
Si Si5 0.095293 0.750000 0.895951
O O1 0.916550 0.126350 0.443146
O O2 0.762653 0.121802 0.389638
O O3 0.500000 0.750000 0.768134
O O4 0.366549 0.750000 0.686498
O O5 0.138431 0.520455 0.915616
O O6 0.122332 0.672053 0.941942
O O7 0.228466 0.602287 0.024982
O O8 0.120021 0.129980 0.875000
O O9 0.000000 0.022208 0.845275
O O10 0.000000 0.750000 0.888752
#
# Coordination Sequence:
#
# PCOD8320921 Si02
#       5
#    16  16  32  32  16
#     4  12  23  40  72 104 153 198 250 298 374 462
#     4  11  23  41  67 111 152 209 239 306 373 453
#     4  12  26  47  75 112 150 200 253 317 384 464
#     4  12  28  51  77 111 152 198 255 322 390 459
#     4  11  25  43  71 104 150 196 255 305 381 457
#
# _framework density 23.122699999999998
#
# number of rings (size 3 to 8) (size 9 to 14) (size 15 to 20)
#    0.000    0.286    4.286    4.286    0.000   10.571 
#    0.000    0.000    0.000    0.000    0.000    0.000 
#    0.000    0.000    0.000    0.000    0.000    0.000 
#
# Total GULP energy -693917.941492 kJ/mol
# GULP energy per Si atom -12391.391812 kJ/mol
# Density = 2.307007 g / cm^3
# Si number density = 23.122700 Si / 1000 Ang^3
#
#
#
# Elastic Constant Matrix: (Units=GPa)
#
#
# Indices 1 2 3 4 5 6 
#
# 1 118.3188 44.1391 26.9874 0.0000 0.0000 0.0000
# 2 44.1391 118.3163 26.9884 0.0000 0.0000 0.0000
# 3 26.9874 26.9884 63.7692 0.0000 0.0000 0.0000
# 4 0.0000 0.0000 0.0000 41.1270 0.0000 0.0000
# 5 0.0000 0.0000 0.0000 0.0000 41.1275 0.0000
# 6 0.0000 0.0000 0.0000 0.0000 0.0000 40.1210
#
#
#
# Elastic Compliance Matrix: (Units=1/GPa)
#
#
# Indices 1 2 3 4 5 6 
#
# 1 0.010322 -0.003159 -0.003031 0.000000 0.000000 0.000000
# 2 -0.003159 0.010322 -0.003031 0.000000 0.000000 0.000000
# 3 -0.003031 -0.003031 0.018247 0.000000 0.000000 0.000000
# 4 0.000000 0.000000 0.000000 0.024315 0.000000 0.000000
# 5 0.000000 0.000000 0.000000 0.000000 0.024315 0.000000
# 6 0.000000 0.000000 0.000000 0.000000 0.000000 0.024925
#
#
# Mechanical properties :
#
#
# Convention : Reuss Voigt Hill
#
# Bulk Modulus (GPa) = 48.90613 55.18158 52.04386
# Shear Modulus (GPa) = 36.30961 37.96105 37.13533
#
# Velocity S-wave (km/s) = 3.96700 4.05621 4.01186
# Velocity P-wave (km/s) = 6.49457 6.77153 6.63450
#
# Compressibility (1/GPa) = 0.02044734
#
# Stress axis : x y z
#
# Youngs Moduli (GPa) = 96.88364 96.88059 54.80251
#
# Poissons Ratio (x) = 0.30606 0.16611
# Poissons Ratio (y) = 0.30607 0.16613
# Poissons Ratio (z) = 0.29367 0.29369
#
# Static dielectric constant tensor:
#      x y z
#    x 4.174170 0.000000 0.000000 
#    y 0.000000 4.174170 0.000000 
#    z 0.000000 0.000000 4.516630 
# 
# 
# High freq. dielectric constant tensor:
#      x y z
#    x 1.918700 0.000000 0.000000 
#    y 0.000000 1.918700 0.000000 
#    z 0.000000 0.000000 1.926050 
# 
# From -- ./inp_files/7964.got.cif
#   From: 2010.03.12/outbox.cif.g09.slc.cpg/sg141_4_cif.got.tgz:7964.got - 2010.04.03 13:18:35.
