data_PCOD8320171
_publ_section_title
;
Structure prediction by ZEFSAII (Michael W. Deem and Ramdas Pophale) SiO2 
 PCOD8320171
Probable space group: I 4/M C M
;
_chemical_formula_sum "Si O2"
_cell_formula_units_Z 128
_cell_length_a 29.071662
_cell_length_b 29.071662
_cell_length_c 9.230763
_cell_angle_alpha 90.000000
_cell_angle_beta 90.000000
_cell_angle_gamma 90.000000
_cell_volume 7801.485793
_symmetry_space_group_name_H-M "I 4/M C M"
_symmetry_group_IT_number 140
_symmetry_cell_setting 'tetragonal'
loop_
_space_group_symop_operation_xyz
x,y,z
-y,x,z
-x,-y,z
y,-x,z
x,-y,1/2-z
-x,y,1/2-z
y,x,1/2-z
-y,-x,1/2-z
-x,-y,-z
y,-x,-z
x,y,-z
-y,x,-z
-x,y,1/2+z
x,-y,1/2+z
-y,-x,1/2+z
y,x,1/2+z
1/2+x,1/2+y,1/2+z
1/2-y,1/2+x,1/2+z
1/2-x,1/2-y,1/2+z
1/2+y,1/2-x,1/2+z
1/2+x,1/2-y,-z
1/2-x,1/2+y,-z
1/2+y,1/2+x,-z
1/2-y,1/2-x,-z
1/2-x,1/2-y,1/2-z
1/2+y,1/2-x,1/2-z
1/2+x,1/2+y,1/2-z
1/2-y,1/2+x,1/2-z
1/2-x,1/2+y,z
1/2+x,1/2-y,z
1/2-y,1/2-x,z
1/2+y,1/2+x,z
loop_
_atom_site_type_symbol
_atom_site_label
_atom_site_fract_x
_atom_site_fract_y
_atom_site_fract_z
Si Si1 0.195913 0.695913 0.334909
Si Si2 0.645981 0.290362 0.167722
Si Si3 0.368092 0.131909 0.171037
Si Si4 0.660224 0.042631 0.837337
Si Si5 0.268838 0.543580 0.339187
O O1 0.181251 0.681251 0.500000
O O2 0.249046 0.682754 0.310025
O O3 0.169514 0.669514 0.209733
O O4 0.665103 0.334898 0.250000
O O5 0.594290 0.279848 0.227999
O O6 0.642213 0.302501 0.000000
O O7 0.352668 0.085130 0.240838
O O8 0.373057 0.126944 0.000000
O O9 0.714546 0.038533 0.848115
O O10 0.638858 0.000000 0.750000
O O11 0.639363 0.045620 0.000000
O O12 0.289405 0.500000 0.250000
O O13 0.290035 0.540118 0.500000
#
# Coordination Sequence:
#
# PCOD8320171 Si02
#       5
#    16  32  16  32  32
#     4  10  19  35  49  64  99 139 169 206 249 283
#     4  10  20  33  49  70  99 136 170 204 248 292
#     4  12  22  31  49  75  98 126 167 204 245 300
#     4  10  19  34  52  71  96 124 158 205 254 297
#     4   9  18  32  50  70  95 126 162 203 248 288
#
# _framework density 16.407131
#
# number of rings (size 3 to 8) (size 9 to 14) (size 15 to 20)
#    0.000    2.000    2.500    2.250    0.000    3.000 
#    0.000    0.000    0.000    0.375    0.000    2.625 
#    0.000    0.500    0.000    5.500    0.000    4.000 
#
# Total GULP energy -793099.052906 kJ/mol
# GULP energy per Si atom -12392.172702 kJ/mol
# Density = 1.636979 g / cm^3
# Si number density = 16.407131 Si / 1000 Ang^3
#
#
#
# Elastic Constant Matrix: (Units=GPa)
#
#
# Indices 1 2 3 4 5 6 
#
# 1 64.5608 24.6583 34.6297 0.0000 0.0000 0.0000
# 2 24.6583 64.5548 34.6259 0.0000 0.0000 0.0000
# 3 34.6297 34.6259 107.7769 0.0000 0.0000 0.0000
# 4 0.0000 0.0000 0.0000 14.9494 0.0000 0.0000
# 5 0.0000 0.0000 0.0000 0.0000 14.9571 0.0000
# 6 0.0000 0.0000 0.0000 0.0000 0.0000 13.2766
#
#
#
# Elastic Compliance Matrix: (Units=1/GPa)
#
#
# Indices 1 2 3 4 5 6 
#
# 1 0.019997 -0.005065 -0.004798 0.000000 0.000000 0.000000
# 2 -0.005065 0.019999 -0.004798 0.000000 0.000000 0.000000
# 3 -0.004798 -0.004798 0.012361 0.000000 0.000000 0.000000
# 4 0.000000 0.000000 0.000000 0.066892 0.000000 0.000000
# 5 0.000000 0.000000 0.000000 0.000000 0.066858 0.000000
# 6 0.000000 0.000000 0.000000 0.000000 0.000000 0.075320
#
#
# Mechanical properties :
#
#
# Convention : Reuss Voigt Hill
#
# Bulk Modulus (GPa) = 43.40983 47.19114 45.30049
# Shear Modulus (GPa) = 16.75445 18.16854 17.46150
#
# Velocity S-wave (km/s) = 3.19904 3.33131 3.26584
# Velocity P-wave (km/s) = 6.33723 6.60468 6.47234
#
# Compressibility (1/GPa) = 0.02303626
#
# Stress axis : x y z
#
# Youngs Moduli (GPa) = 50.00643 50.00310 80.89646
#
# Poissons Ratio (x) = 0.25326 0.38815
# Poissons Ratio (y) = 0.25328 0.38812
# Poissons Ratio (z) = 0.23994 0.23990
#
# Static dielectric constant tensor:
#      x y z
#    x 2.799480 0.000000 0.000000 
#    y 0.000000 2.799550 0.000000 
#    z 0.000000 0.000000 4.008940 
# 
# 
# High freq. dielectric constant tensor:
#      x y z
#    x 1.608430 0.000000 0.000000 
#    y 0.000000 1.608430 0.000000 
#    z 0.000000 0.000000 1.639340 
# 
# From -- ./inp_files/1482.got.cif
#   From: 2010.06.25/outbox.cif.g09.slc.cpg/sg140_1_cif.got.tgz:1482.got - 2010.06.28 10:53:23.
