data_PCOD8320117
_publ_section_title
;
Structure prediction by ZEFSAII (Michael W. Deem and Ramdas Pophale) SiO2 
 PCOD8320117
Probable space group: I 4/M C M
;
_chemical_formula_sum "Si O2"
_cell_formula_units_Z 224
_cell_length_a 24.100011
_cell_length_b 24.100011
_cell_length_c 23.399805
_cell_angle_alpha 90.000000
_cell_angle_beta 90.000000
_cell_angle_gamma 90.000000
_cell_volume 13590.853149
_symmetry_space_group_name_H-M "I 4/M C M"
_symmetry_group_IT_number 140
_symmetry_cell_setting 'tetragonal'
loop_
_space_group_symop_operation_xyz
x,y,z
-y,x,z
-x,-y,z
y,-x,z
x,-y,1/2-z
-x,y,1/2-z
y,x,1/2-z
-y,-x,1/2-z
-x,-y,-z
y,-x,-z
x,y,-z
-y,x,-z
-x,y,1/2+z
x,-y,1/2+z
-y,-x,1/2+z
y,x,1/2+z
1/2+x,1/2+y,1/2+z
1/2-y,1/2+x,1/2+z
1/2-x,1/2-y,1/2+z
1/2+y,1/2-x,1/2+z
1/2+x,1/2-y,-z
1/2-x,1/2+y,-z
1/2+y,1/2+x,-z
1/2-y,1/2-x,-z
1/2-x,1/2-y,1/2-z
1/2+y,1/2-x,1/2-z
1/2+x,1/2+y,1/2-z
1/2-y,1/2+x,1/2-z
1/2-x,1/2+y,z
1/2+x,1/2-y,z
1/2-y,1/2-x,z
1/2+y,1/2+x,z
loop_
_atom_site_type_symbol
_atom_site_label
_atom_site_fract_x
_atom_site_fract_y
_atom_site_fract_z
Si Si1 0.561024 0.564241 0.567746
Si Si2 0.253021 0.339043 0.244495
Si Si3 0.770171 0.361356 0.621065
Si Si4 0.767075 0.359525 0.868789
Si Si5 0.440758 0.146745 0.435184
Si Si6 0.345265 0.651642 0.567301
Si Si7 0.065306 0.345413 0.434234
O O1 0.497979 0.578095 0.589094
O O2 0.560946 0.565194 0.500000
O O3 0.605023 0.610661 0.589479
O O4 0.315304 0.315304 0.250000
O O5 0.211466 0.288535 0.238129
O O6 0.248678 0.373935 0.186208
O O7 0.239042 0.373696 0.301525
O O8 0.801886 0.301886 0.613464
O O9 0.810769 0.411019 0.606323
O O10 0.717673 0.366963 0.579208
O O11 0.803528 0.303528 0.878624
O O12 0.707676 0.352932 0.897380
O O13 0.795024 0.412768 0.896615
O O14 0.435972 0.168945 0.500000
O O15 0.413963 0.086038 0.429774
O O16 0.503501 0.141040 0.415013
O O17 0.353152 0.662855 0.500000
O O18 0.069818 0.327222 0.500000
O O19 0.099293 0.400708 0.421633
#
# Coordination Sequence:
#
# PCOD8320117 Si02
#       7
#    32  32  32  32  32  32  32
#     4   8  16  32  49  64  86 117 154 192 227 269
#     4   9  16  30  49  66  89 127 166 197 229 277
#     4  10  19  31  47  70  99 128 159 196 241 287
#     4  10  19  31  47  70  99 128 159 196 241 287
#     4   9  18  32  49  70  98 131 165 203 246 292
#     4  11  20  27  44  73 100 126 153 187 236 296
#     4   9  18  32  49  70  98 131 165 203 246 292
#
# _framework density 16.481673000000001
#
# number of rings (size 3 to 8) (size 9 to 14) (size 15 to 20)
#    0.000    2.571    1.429    1.714    0.000    3.714 
#    0.000    5.000    0.000    0.000    0.000    1.000 
#    0.000   10.286    0.000    0.000    0.000    0.000 
#
# Total GULP energy -1388151.810347 kJ/mol
# GULP energy per Si atom -12394.212592 kJ/mol
# Density = 1.644416 g / cm^3
# Si number density = 16.481673 Si / 1000 Ang^3
#
#
#
# Elastic Constant Matrix: (Units=GPa)
#
#
# Indices 1 2 3 4 5 6 
#
# 1 73.4414 42.7131 15.6957 0.0000 0.0000 0.0000
# 2 42.7131 73.4414 15.6957 0.0000 0.0000 0.0000
# 3 15.6957 15.6957 49.2342 0.0000 0.0000 0.0000
# 4 0.0000 0.0000 0.0000 11.2153 0.0000 0.0000
# 5 0.0000 0.0000 0.0000 0.0000 11.2153 0.0000
# 6 0.0000 0.0000 0.0000 0.0000 0.0000 20.6087
#
#
#
# Elastic Compliance Matrix: (Units=1/GPa)
#
#
# Indices 1 2 3 4 5 6 
#
# 1 0.020982 -0.011561 -0.003003 0.000000 0.000000 0.000000
# 2 -0.011561 0.020982 -0.003003 0.000000 0.000000 0.000000
# 3 -0.003003 -0.003003 0.022226 0.000000 0.000000 0.000000
# 4 0.000000 0.000000 0.000000 0.089164 0.000000 0.000000
# 5 0.000000 0.000000 0.000000 0.000000 0.089164 0.000000
# 6 0.000000 0.000000 0.000000 0.000000 0.000000 0.048523
#
#
# Mechanical properties :
#
#
# Convention : Reuss Voigt Hill
#
# Bulk Modulus (GPa) = 34.41820 38.25843 36.33832
# Shear Modulus (GPa) = 14.88707 16.74203 15.81455
#
# Velocity S-wave (km/s) = 3.00867 3.19061 3.10098
# Velocity P-wave (km/s) = 5.74435 6.06931 5.90906
#
# Compressibility (1/GPa) = 0.02905439
#
# Stress axis : x y z
#
# Youngs Moduli (GPa) = 47.65969 47.65969 44.99239
#
# Poissons Ratio (x) = 0.55100 0.13513
# Poissons Ratio (y) = 0.55100 0.13513
# Poissons Ratio (z) = 0.14314 0.14314
#
# Static dielectric constant tensor:
#      x y z
#    x 3.237620 0.000000 0.000000 
#    y 0.000000 3.237620 0.000000 
#    z 0.000000 0.000000 3.134160 
# 
# 
# High freq. dielectric constant tensor:
#      x y z
#    x 1.626070 0.000000 0.000000 
#    y 0.000000 1.626070 0.000000 
#    z 0.000000 0.000000 1.619340 
# 
# From -- ./inp_files/9951.got.cif
#   From: 2010.06.25/outbox.cif.g09.slc.cpg/sg140_5_cif.got.tgz:9951.got - 2010.06.28 10:53:23.
