data_PCOD8320131
_publ_section_title
;
Structure prediction by ZEFSAII (Michael W. Deem and Ramdas Pophale) SiO2 
 PCOD8320131
Probable space group: I 4/M C M
;
_chemical_formula_sum "Si O2"
_cell_formula_units_Z 176
_cell_length_a 23.982178
_cell_length_b 23.982178
_cell_length_c 15.128493
_cell_angle_alpha 90.000000
_cell_angle_beta 90.000000
_cell_angle_gamma 90.000000
_cell_volume 8701.075013
_symmetry_space_group_name_H-M "I 4/M C M"
_symmetry_group_IT_number 140
_symmetry_cell_setting 'tetragonal'
loop_
_space_group_symop_operation_xyz
x,y,z
-y,x,z
-x,-y,z
y,-x,z
x,-y,1/2-z
-x,y,1/2-z
y,x,1/2-z
-y,-x,1/2-z
-x,-y,-z
y,-x,-z
x,y,-z
-y,x,-z
-x,y,1/2+z
x,-y,1/2+z
-y,-x,1/2+z
y,x,1/2+z
1/2+x,1/2+y,1/2+z
1/2-y,1/2+x,1/2+z
1/2-x,1/2-y,1/2+z
1/2+y,1/2-x,1/2+z
1/2+x,1/2-y,-z
1/2-x,1/2+y,-z
1/2+y,1/2+x,-z
1/2-y,1/2-x,-z
1/2-x,1/2-y,1/2-z
1/2+y,1/2-x,1/2-z
1/2+x,1/2+y,1/2-z
1/2-y,1/2+x,1/2-z
1/2-x,1/2+y,z
1/2+x,1/2-y,z
1/2-y,1/2-x,z
1/2+y,1/2+x,z
loop_
_atom_site_type_symbol
_atom_site_label
_atom_site_fract_x
_atom_site_fract_y
_atom_site_fract_z
Si Si1 0.129774 0.717761 0.712053
Si Si2 0.848810 0.740436 0.403494
Si Si3 0.070815 0.052766 0.604834
Si Si4 0.090848 0.502979 0.000000
Si Si5 0.671812 0.369967 0.600853
Si Si6 0.369649 0.958903 0.827073
O O1 0.191829 0.691829 0.697382
O O2 0.116391 0.719430 0.818021
O O3 0.123321 0.777525 0.668099
O O4 0.086095 0.678617 0.663027
O O5 0.876334 0.724920 0.500000
O O6 0.786984 0.713017 0.400049
O O7 0.846347 0.806402 0.396252
O O8 0.070214 0.053842 0.500000
O O9 0.121811 0.091146 0.638306
O O10 0.011263 0.077398 0.638832
O O11 0.129474 0.495794 0.915053
O O12 0.043377 0.456624 0.000000
O O13 0.064591 0.564591 0.000000
O O14 0.688254 0.386771 0.500000
O O15 0.429003 0.929003 0.808938
O O16 0.354235 0.000000 0.750000
#
# Coordination Sequence:
#
# PCOD8320131 Si02
#       6
#    32  32  32  16  32  32
#     4  10  21  36  55  81 118 155 188 238 295 347
#     4   9  18  35  57  81 108 145 196 241 284 345
#     4   8  15  31  54  80 112 149 191 238 284 333
#     4   9  18  34  60  88 112 146 196 247 286 338
#     4  10  19  31  55  88 116 152 192 230 286 353
#     4  10  21  38  58  84 116 153 196 240 293 347
#
# _framework density 20.227385999999999
#
# number of rings (size 3 to 8) (size 9 to 14) (size 15 to 20)
#    0.000    2.636    0.000    2.182    1.273    3.455 
#    4.909    0.000    0.000    0.000    0.000    5.091 
#    0.000    0.000    0.000    0.000    0.000    0.000 
#
# Total GULP energy -1090507.115740 kJ/mol
# GULP energy per Si atom -12392.126315 kJ/mol
# Density = 2.018135 g / cm^3
# Si number density = 20.227386 Si / 1000 Ang^3
#
#
#
# Elastic Constant Matrix: (Units=GPa)
#
#
# Indices 1 2 3 4 5 6 
#
# 1 84.3582 62.4483 45.1345 0.0000 0.0000 0.0000
# 2 62.4483 84.3577 45.1348 0.0000 0.0000 0.0000
# 3 45.1345 45.1348 122.2033 0.0000 0.0000 0.0000
# 4 0.0000 0.0000 0.0000 28.5222 0.0000 0.0000
# 5 0.0000 0.0000 0.0000 0.0000 28.5222 0.0000
# 6 0.0000 0.0000 0.0000 0.0000 0.0000 30.5705
#
#
#
# Elastic Compliance Matrix: (Units=1/GPa)
#
#
# Indices 1 2 3 4 5 6 
#
# 1 0.027227 -0.018414 -0.003255 0.000000 0.000000 0.000000
# 2 -0.018414 0.027228 -0.003255 0.000000 0.000000 0.000000
# 3 -0.003255 -0.003255 0.010588 0.000000 0.000000 0.000000
# 4 0.000000 0.000000 0.000000 0.035060 0.000000 0.000000
# 5 0.000000 0.000000 0.000000 0.000000 0.035060 0.000000
# 6 0.000000 0.000000 0.000000 0.000000 0.000000 0.032711
#
#
# Mechanical properties :
#
#
# Convention : Reuss Voigt Hill
#
# Bulk Modulus (GPa) = 65.81694 66.26160 66.03927
# Shear Modulus (GPa) = 22.44282 26.73642 24.58962
#
# Velocity S-wave (km/s) = 3.33457 3.63959 3.49041
# Velocity P-wave (km/s) = 6.88731 7.10575 6.99738
#
# Compressibility (1/GPa) = 0.01519366
#
# Stress axis : x y z
#
# Youngs Moduli (GPa) = 36.72769 36.72728 94.45061
#
# Poissons Ratio (x) = 0.67631 0.30743
# Poissons Ratio (y) = 0.67632 0.30745
# Poissons Ratio (z) = 0.11955 0.11955
#
# Static dielectric constant tensor:
#      x y z
#    x 3.641950 0.000000 0.000000 
#    y 0.000000 3.641950 0.000000 
#    z 0.000000 0.000000 3.706150 
# 
# 
# High freq. dielectric constant tensor:
#      x y z
#    x 1.773700 0.000000 0.000000 
#    y 0.000000 1.773700 0.000000 
#    z 0.000000 0.000000 1.796460 
# 
# From -- ./inp_files/4926.got.cif
#   From: 2010.06.25/outbox.cif.g09.slc.cpg/sg140_3_cif.got.tgz:4926.got - 2010.06.28 10:53:23.
