data_PCOD8320334
_publ_section_title
;
Structure prediction by ZEFSAII (Michael W. Deem and Ramdas Pophale) SiO2 
 PCOD8320334
Probable space group: I 4/M C M
;
_chemical_formula_sum "Si O2"
_cell_formula_units_Z 192
_cell_length_a 21.226886
_cell_length_b 21.226886
_cell_length_c 23.389911
_cell_angle_alpha 90.000000
_cell_angle_beta 90.000000
_cell_angle_gamma 90.000000
_cell_volume 10539.042220
_symmetry_space_group_name_H-M "I 4/M C M"
_symmetry_group_IT_number 140
_symmetry_cell_setting 'tetragonal'
loop_
_space_group_symop_operation_xyz
x,y,z
-y,x,z
-x,-y,z
y,-x,z
x,-y,1/2-z
-x,y,1/2-z
y,x,1/2-z
-y,-x,1/2-z
-x,-y,-z
y,-x,-z
x,y,-z
-y,x,-z
-x,y,1/2+z
x,-y,1/2+z
-y,-x,1/2+z
y,x,1/2+z
1/2+x,1/2+y,1/2+z
1/2-y,1/2+x,1/2+z
1/2-x,1/2-y,1/2+z
1/2+y,1/2-x,1/2+z
1/2+x,1/2-y,-z
1/2-x,1/2+y,-z
1/2+y,1/2+x,-z
1/2-y,1/2-x,-z
1/2-x,1/2-y,1/2-z
1/2+y,1/2-x,1/2-z
1/2+x,1/2+y,1/2-z
1/2-y,1/2+x,1/2-z
1/2-x,1/2+y,z
1/2+x,1/2-y,z
1/2-y,1/2-x,z
1/2+y,1/2+x,z
loop_
_atom_site_type_symbol
_atom_site_label
_atom_site_fract_x
_atom_site_fract_y
_atom_site_fract_z
Si Si1 0.851448 0.252893 0.240632
Si Si2 0.596282 0.537121 0.565593
Si Si3 0.335390 0.935415 0.067622
Si Si4 0.825221 0.575905 0.432458
Si Si5 0.389771 0.700398 0.373576
Si Si6 0.148462 0.752448 0.364825
O O1 0.795249 0.204752 0.250000
O O2 0.820877 0.320877 0.223462
O O3 0.898059 0.227460 0.191096
O O4 0.885615 0.255310 0.302525
O O5 0.535422 0.580167 0.577058
O O6 0.619053 0.546371 0.500000
O O7 0.650626 0.555877 0.610410
O O8 0.397669 0.897669 0.088756
O O9 0.272512 0.900572 0.088694
O O10 0.336049 0.005882 0.092980
O O11 0.332131 0.936382 0.000000
O O12 0.829564 0.573271 0.500000
O O13 0.880239 0.619762 0.407027
O O14 0.758294 0.605254 0.416654
O O15 0.323296 0.665797 0.381595
O O16 0.213247 0.713247 0.364638
#
# Coordination Sequence:
#
# PCOD8320334 Si02
#       6
#    32  32  32  32  32  32
#     4   8  15  30  51  75 104 137 169 207 259 317
#     4   9  20  37  53  72 102 143 182 211 253 316
#     4   9  19  35  54  76 104 140 180 215 253 314
#     4  10  21  34  49  76 110 138 171 217 267 315
#     4  11  19  30  55  79 103 133 169 217 265 308
#     4   9  18  33  54  78 106 136 170 216 265 311
#
# _framework density 18.217974999999999
#
# number of rings (size 3 to 8) (size 9 to 14) (size 15 to 20)
#    0.000    2.667    0.000    3.500    2.333    1.667 
#    0.000    4.167    3.667    0.000    0.000   10.500 
#    0.000    4.000    0.000    0.000    0.000    0.000 
#
# Total GULP energy -1189924.599812 kJ/mol
# GULP energy per Si atom -12395.047915 kJ/mol
# Density = 1.817651 g / cm^3
# Si number density = 18.217975 Si / 1000 Ang^3
#
#
#
# Elastic Constant Matrix: (Units=GPa)
#
#
# Indices 1 2 3 4 5 6 
#
# 1 83.5278 37.6829 27.7689 0.0000 0.0000 0.0000
# 2 37.6829 83.5272 27.7689 0.0000 0.0000 0.0000
# 3 27.7689 27.7689 40.1527 0.0000 0.0000 0.0000
# 4 0.0000 0.0000 0.0000 17.6312 0.0000 0.0000
# 5 0.0000 0.0000 0.0000 0.0000 17.6298 0.0000
# 6 0.0000 0.0000 0.0000 0.0000 0.0000 24.8723
#
#
#
# Elastic Compliance Matrix: (Units=1/GPa)
#
#
# Indices 1 2 3 4 5 6 
#
# 1 0.016945 -0.004868 -0.008352 0.000000 0.000000 0.000000
# 2 -0.004868 0.016945 -0.008352 0.000000 0.000000 0.000000
# 3 -0.008352 -0.008352 0.036458 0.000000 0.000000 0.000000
# 4 0.000000 0.000000 0.000000 0.056718 0.000000 0.000000
# 5 0.000000 0.000000 0.000000 0.000000 0.056722 0.000000
# 6 0.000000 0.000000 0.000000 0.000000 0.000000 0.040205
#
#
# Mechanical properties :
#
#
# Convention : Reuss Voigt Hill
#
# Bulk Modulus (GPa) = 36.76133 43.73880 40.25006
# Shear Modulus (GPa) = 18.10248 19.62578 18.86413
#
# Velocity S-wave (km/s) = 3.15566 3.28575 3.22136
# Velocity P-wave (km/s) = 5.78792 6.20126 5.99815
#
# Compressibility (1/GPa) = 0.02720250
#
# Stress axis : x y z
#
# Youngs Moduli (GPa) = 59.01484 59.01435 27.42914
#
# Poissons Ratio (x) = 0.28727 0.22910
# Poissons Ratio (y) = 0.28728 0.22910
# Poissons Ratio (z) = 0.49291 0.49291
#
# Static dielectric constant tensor:
#      x y z
#    x 3.363460 0.000000 0.000000 
#    y 0.000000 3.363460 0.000000 
#    z 0.000000 0.000000 3.746610 
# 
# 
# High freq. dielectric constant tensor:
#      x y z
#    x 1.696420 0.000000 0.000000 
#    y 0.000000 1.696420 0.000000 
#    z 0.000000 0.000000 1.695900 
# 
# From -- ./inp_files/9791.got.cif
#   From: 2010.06.25/outbox.cif.g09.slc.cpg/sg140_5_cif.got.tgz:9791.got - 2010.06.28 10:53:23.
