data_PCOD8320084
_publ_section_title
;
Structure prediction by ZEFSAII (Michael W. Deem and Ramdas Pophale) SiO2 
 PCOD8320084
Probable space group: I 4/M C M
;
_chemical_formula_sum "Si O2"
_cell_formula_units_Z 240
_cell_length_a 24.680886
_cell_length_b 24.680886
_cell_length_c 20.190125
_cell_angle_alpha 90.000000
_cell_angle_beta 90.000000
_cell_angle_gamma 90.000000
_cell_volume 12298.736584
_symmetry_space_group_name_H-M "I 4/M C M"
_symmetry_group_IT_number 140
_symmetry_cell_setting 'tetragonal'
loop_
_space_group_symop_operation_xyz
x,y,z
-y,x,z
-x,-y,z
y,-x,z
x,-y,1/2-z
-x,y,1/2-z
y,x,1/2-z
-y,-x,1/2-z
-x,-y,-z
y,-x,-z
x,y,-z
-y,x,-z
-x,y,1/2+z
x,-y,1/2+z
-y,-x,1/2+z
y,x,1/2+z
1/2+x,1/2+y,1/2+z
1/2-y,1/2+x,1/2+z
1/2-x,1/2-y,1/2+z
1/2+y,1/2-x,1/2+z
1/2+x,1/2-y,-z
1/2-x,1/2+y,-z
1/2+y,1/2+x,-z
1/2-y,1/2-x,-z
1/2-x,1/2-y,1/2-z
1/2+y,1/2-x,1/2-z
1/2+x,1/2+y,1/2-z
1/2-y,1/2+x,1/2-z
1/2-x,1/2+y,z
1/2+x,1/2-y,z
1/2-y,1/2-x,z
1/2+y,1/2+x,z
loop_
_atom_site_type_symbol
_atom_site_label
_atom_site_fract_x
_atom_site_fract_y
_atom_site_fract_z
Si Si1 0.103948 0.150894 0.680982
Si Si2 0.943208 0.644846 0.926536
Si Si3 0.446758 0.755984 0.709247
Si Si4 0.068871 0.056524 0.075793
Si Si5 0.791480 0.790583 0.828735
Si Si6 0.000000 0.582649 0.750000
Si Si7 0.878265 0.707257 0.174291
Si Si8 0.445648 0.141793 0.131241
O O1 0.122720 0.122720 0.750000
O O2 0.053293 0.191915 0.690947
O O3 0.088946 0.105467 0.627762
O O4 0.149679 0.190596 0.648597
O O5 0.909949 0.590052 0.911058
O O6 0.927108 0.693317 0.876263
O O7 0.007519 0.632847 0.923037
O O8 0.929720 0.665642 0.000000
O O9 0.500000 0.770998 0.750000
O O10 0.396764 0.765938 0.757806
O O11 0.436973 0.793982 0.644375
O O12 0.007372 0.074954 0.088469
O O13 0.085745 0.070180 0.000000
O O14 0.789525 0.789525 0.750000
O O15 0.732496 0.767505 0.854331
O O16 0.837005 0.749882 0.858194
O O17 0.955826 0.544175 0.786932
O O18 0.968301 0.619990 0.700077
O O19 0.848640 0.651361 0.192454
O O20 0.390827 0.109174 0.110387
#
# Coordination Sequence:
#
# PCOD8320084 Si02
#       8
#    32  32  32  32  32  16  32  32
#     4  11  23  36  62  95 127 152 195 248 294 347
#     4  10  21  37  55  76 107 149 198 249 296 344
#     4  12  22  34  54  84 120 147 181 235 302 354
#     4   9  21  44  69  91 123 166 201 232 288 368
#     4   9  17  32  55  84 116 152 190 232 288 347
#     4   9  16  28  48  74 102 136 184 239 290 338
#     4  10  18  34  57  79 109 150 192 236 290 348
#     4  11  21  33  51  76 108 151 195 239 293 350
#
# _framework density 19.514199000000001
#
# number of rings (size 3 to 8) (size 9 to 14) (size 15 to 20)
#    0.000    1.800    4.667    1.200    1.867    3.733 
#    0.000    2.667    0.000    1.200    0.000    0.000 
#    0.000    0.000    0.000    0.000    0.000    0.000 
#
# Total GULP energy -1486770.351377 kJ/mol
# GULP energy per Si atom -12389.752928 kJ/mol
# Density = 1.946978 g / cm^3
# Si number density = 19.514199 Si / 1000 Ang^3
#
#
#
# Elastic Constant Matrix: (Units=GPa)
#
#
# Indices 1 2 3 4 5 6 
#
# 1 83.3713 34.8613 32.4862 0.0000 0.0000 0.0000
# 2 34.8613 83.3713 32.4862 0.0000 0.0000 0.0000
# 3 32.4862 32.4862 69.1161 0.0000 0.0000 0.0000
# 4 0.0000 0.0000 0.0000 18.9760 0.0000 0.0000
# 5 0.0000 0.0000 0.0000 0.0000 18.9760 0.0000
# 6 0.0000 0.0000 0.0000 0.0000 0.0000 36.8895
#
#
#
# Elastic Compliance Matrix: (Units=1/GPa)
#
#
# Indices 1 2 3 4 5 6 
#
# 1 0.016009 -0.004605 -0.005360 0.000000 0.000000 0.000000
# 2 -0.004605 0.016009 -0.005360 0.000000 0.000000 0.000000
# 3 -0.005360 -0.005360 0.019507 0.000000 0.000000 0.000000
# 4 0.000000 0.000000 0.000000 0.052698 0.000000 0.000000
# 5 0.000000 0.000000 0.000000 0.000000 0.052698 0.000000
# 6 0.000000 0.000000 0.000000 0.000000 0.000000 0.027108
#
#
# Mechanical properties :
#
#
# Convention : Reuss Voigt Hill
#
# Bulk Modulus (GPa) = 47.90602 48.39178 48.14890
# Shear Modulus (GPa) = 22.55943 24.03666 23.29804
#
# Velocity S-wave (km/s) = 3.40377 3.51344 3.45904
# Velocity P-wave (km/s) = 6.32851 6.42737 6.37813
#
# Compressibility (1/GPa) = 0.02087420
#
# Stress axis : x y z
#
# Youngs Moduli (GPa) = 62.46573 62.46573 51.26394
#
# Poissons Ratio (x) = 0.28769 0.27477
# Poissons Ratio (y) = 0.28769 0.27477
# Poissons Ratio (z) = 0.33480 0.33480
#
# Static dielectric constant tensor:
#      x y z
#    x 3.746750 0.000000 0.000000 
#    y 0.000000 3.746750 0.000000 
#    z 0.000000 0.000000 3.163470 
# 
# 
# High freq. dielectric constant tensor:
#      x y z
#    x 1.763660 0.000000 0.000000 
#    y 0.000000 1.763660 0.000000 
#    z 0.000000 0.000000 1.711290 
# 
# From -- ./inp_files/8769.got.cif
#   From: 2010.06.25/outbox.cif.g09.slc.cpg/sg140_5_cif.got.tgz:8769.got - 2010.06.28 10:53:23.
