data_PCOD8320619
_publ_section_title
;
Structure prediction by ZEFSAII (Michael W. Deem and Ramdas Pophale) SiO2 
 PCOD8320619
Probable space group: I 41/A M D
;
_chemical_formula_sum "Si O2"
_cell_formula_units_Z 160
_cell_length_a 25.810127
_cell_length_b 25.810127
_cell_length_c 12.144468
_cell_angle_alpha 90.000000
_cell_angle_beta 90.000000
_cell_angle_gamma 90.000000
_cell_volume 8090.191056
_symmetry_space_group_name_H-M "I 41/A M D"
_symmetry_group_IT_number 141
_space_group.IT_coordinate_system_code '2'
_symmetry_cell_setting 'tetragonal'
loop_
_space_group_symop_operation_xyz
x,y,z
1/4-y,3/4+x,1/4+z
-x,1/2-y,z
1/4+y,1/4-x,3/4+z
x,-y,-z
-x,1/2+y,-z
1/4+y,3/4+x,1/4-z
1/4-y,1/4-x,3/4-z
-x,-y,-z
3/4+y,1/4-x,3/4-z
x,1/2+y,-z
3/4-y,3/4+x,1/4-z
-x,y,z
x,1/2-y,z
3/4-y,1/4-x,3/4+z
3/4+y,3/4+x,1/4+z
1/2+x,1/2+y,1/2+z
3/4-y,1/4+x,3/4+z
1/2-x,-y,1/2+z
3/4+y,3/4-x,1/4+z
1/2+x,1/2-y,1/2-z
1/2-x,y,1/2-z
3/4+y,1/4+x,3/4-z
3/4-y,3/4-x,1/4-z
1/2-x,1/2-y,1/2-z
1/4+y,3/4-x,1/4-z
1/2+x,y,1/2-z
1/4-y,1/4+x,3/4-z
1/2-x,1/2+y,1/2+z
1/2+x,-y,1/2+z
1/4-y,3/4-x,1/4+z
1/4+y,1/4+x,3/4+z
loop_
_atom_site_type_symbol
_atom_site_label
_atom_site_fract_x
_atom_site_fract_y
_atom_site_fract_z
Si Si1 0.644090 0.690092 0.350326
Si Si2 0.113901 0.058985 0.348529
Si Si3 0.057225 0.628185 0.474447
Si Si4 0.940938 0.897870 0.847866
Si Si5 0.210708 0.808011 0.948046
O O1 0.593908 0.656093 0.375000
O O2 0.628496 0.750000 0.369412
O O3 0.660703 0.680142 0.224902
O O4 0.693387 0.675606 0.428205
O O5 0.174324 0.075677 0.375000
O O6 0.079755 0.097795 0.421271
O O7 0.098307 0.065950 0.220571
O O8 0.099700 0.998416 0.364420
O O9 0.088912 0.678844 0.437965
O O10 0.057137 0.591536 0.369631
O O11 0.000000 0.646957 0.505992
O O12 0.000000 0.910408 0.817389
O O13 0.236068 0.750000 0.947967
#
# Coordination Sequence:
#
# PCOD8320619 Si02
#       5
#    32  32  32  32  32
#     4  10  20  34  52  78 112 147 183 222 265 318
#     4  10  21  35  51  76 105 135 176 227 279 327
#     4  10  19  32  52  78 109 143 180 219 260 317
#     4  10  20  33  50  76 112 145 176 216 266 326
#     4  10  19  33  55  79 104 138 181 226 268 313
#
# _framework density 19.777035999999999
#
# number of rings (size 3 to 8) (size 9 to 14) (size 15 to 20)
#    0.000    2.000    2.000    2.400    0.000    3.000 
#    0.000    5.000    0.000    3.600    0.000   21.000 
#    0.000    0.000    0.000    0.000    0.000    0.000 
#
# Total GULP energy -991300.873798 kJ/mol
# GULP energy per Si atom -12391.260922 kJ/mol
# Density = 1.973202 g / cm^3
# Si number density = 19.777036 Si / 1000 Ang^3
#
#
#
# Elastic Constant Matrix: (Units=GPa)
#
#
# Indices 1 2 3 4 5 6 
#
# 1 45.8494 21.5300 10.2461 0.0000 0.0000 0.0000
# 2 21.5300 45.8460 10.2476 0.0000 0.0000 0.0000
# 3 10.2461 10.2476 99.0329 0.0000 0.0000 0.0000
# 4 0.0000 0.0000 0.0000 24.4078 0.0000 0.0000
# 5 0.0000 0.0000 0.0000 0.0000 24.4074 0.0000
# 6 0.0000 0.0000 0.0000 0.0000 0.0000 29.1624
#
#
#
# Elastic Compliance Matrix: (Units=1/GPa)
#
#
# Indices 1 2 3 4 5 6 
#
# 1 0.028222 -0.012899 -0.001585 0.000000 0.000000 0.000000
# 2 -0.012899 0.028224 -0.001586 0.000000 0.000000 0.000000
# 3 -0.001585 -0.001586 0.010426 0.000000 0.000000 0.000000
# 4 0.000000 0.000000 0.000000 0.040970 0.000000 0.000000
# 5 0.000000 0.000000 0.000000 0.000000 0.040971 0.000000
# 6 0.000000 0.000000 0.000000 0.000000 0.000000 0.034291
#
#
# Mechanical properties :
#
#
# Convention : Reuss Voigt Hill
#
# Bulk Modulus (GPa) = 28.79231 30.53061 29.66146
# Shear Modulus (GPa) = 22.04373 25.50919 23.77646
#
# Velocity S-wave (km/s) = 3.34220 3.59533 3.47107
# Velocity P-wave (km/s) = 5.42990 5.71893 5.57629
#
# Compressibility (1/GPa) = 0.03473150
#
# Stress axis : x y z
#
# Youngs Moduli (GPa) = 35.43343 35.43047 95.91617
#
# Poissons Ratio (x) = 0.45702 0.15204
# Poissons Ratio (y) = 0.45706 0.15212
# Poissons Ratio (z) = 0.05617 0.05619
#
# Static dielectric constant tensor:
#      x y z
#    x 3.567580 0.000000 0.000000 
#    y 0.000000 3.567580 0.000000 
#    z 0.000000 0.000000 3.909400 
# 
# 
# High freq. dielectric constant tensor:
#      x y z
#    x 1.745530 0.000000 0.000000 
#    y 0.000000 1.745530 0.000000 
#    z 0.000000 0.000000 1.795310 
# 
# From -- ./inp_files/4826.got.cif
#   From: 2010.03.12/outbox.cif.g09.slc.cpg/sg141_3_cif.got.tgz:4826.got - 2010.04.03 13:18:35.
