data_PCOD8320614
_publ_section_title
;
Structure prediction by ZEFSAII (Michael W. Deem and Ramdas Pophale) SiO2 
 PCOD8320614
Probable space group: I 41/A M D
;
_chemical_formula_sum "Si O2"
_cell_formula_units_Z 192
_cell_length_a 30.165097
_cell_length_b 30.165097
_cell_length_c 13.412266
_cell_angle_alpha 90.000000
_cell_angle_beta 90.000000
_cell_angle_gamma 90.000000
_cell_volume 12204.264471
_symmetry_space_group_name_H-M "I 41/A M D"
_symmetry_group_IT_number 141
_space_group.IT_coordinate_system_code '2'
_symmetry_cell_setting 'tetragonal'
loop_
_space_group_symop_operation_xyz
x,y,z
1/4-y,3/4+x,1/4+z
-x,1/2-y,z
1/4+y,1/4-x,3/4+z
x,-y,-z
-x,1/2+y,-z
1/4+y,3/4+x,1/4-z
1/4-y,1/4-x,3/4-z
-x,-y,-z
3/4+y,1/4-x,3/4-z
x,1/2+y,-z
3/4-y,3/4+x,1/4-z
-x,y,z
x,1/2-y,z
3/4-y,1/4-x,3/4+z
3/4+y,3/4+x,1/4+z
1/2+x,1/2+y,1/2+z
3/4-y,1/4+x,3/4+z
1/2-x,-y,1/2+z
3/4+y,3/4-x,1/4+z
1/2+x,1/2-y,1/2-z
1/2-x,y,1/2-z
3/4+y,1/4+x,3/4-z
3/4-y,3/4-x,1/4-z
1/2-x,1/2-y,1/2-z
1/4+y,3/4-x,1/4-z
1/2+x,y,1/2-z
1/4-y,1/4+x,3/4-z
1/2-x,1/2+y,1/2+z
1/2+x,-y,1/2+z
1/4-y,3/4-x,1/4+z
1/4+y,1/4+x,3/4+z
loop_
_atom_site_type_symbol
_atom_site_label
_atom_site_fract_x
_atom_site_fract_y
_atom_site_fract_z
Si Si1 0.548460 0.047402 0.307133
Si Si2 0.658840 0.623587 0.965208
Si Si3 0.757829 0.924784 0.634269
Si Si4 0.137009 0.581717 0.329340
Si Si5 0.803440 0.801788 0.032358
Si Si6 0.903249 0.950691 0.007314
O O1 0.500000 0.066076 0.292989
O O2 0.577097 0.082531 0.248226
O O3 0.559263 0.048367 0.423457
O O4 0.553455 0.998703 0.260102
O O5 0.623687 0.626314 0.875000
O O6 0.703613 0.602780 0.920039
O O7 0.638392 0.595523 0.055477
O O8 0.750000 0.911425 0.750000
O O9 0.773302 0.976699 0.625000
O O10 0.714319 0.913974 0.569716
O O11 0.085367 0.577599 0.295234
O O12 0.163192 0.616354 0.260078
O O13 0.820220 0.750000 0.023480
O O14 0.811777 0.821454 0.141874
O O15 0.880992 0.000000 0.000000
#
# Coordination Sequence:
#
# PCOD8320614 Si02
#       6
#    32  32  32  32  32  32
#     4   9  17  30  49  70  91 124 168 202 250 307
#     4  10  19  33  50  65  96 134 158 212 253 287
#     4  11  20  32  47  65  96 142 174 207 245 287
#     4  11  20  33  49  71  99 132 180 208 247 299
#     4  10  19  32  50  70  99 132 166 215 262 299
#     4   9  19  32  47  71 102 134 163 210 254 299
#
# _framework density 15.732206
#
# number of rings (size 3 to 8) (size 9 to 14) (size 15 to 20)
#    0.000    2.000    5.000    1.000    0.000    2.667 
#    0.000    0.833    0.000    3.000    0.000    0.000 
#    0.000   43.000    0.000    0.000    0.000    0.000 
#
# Total GULP energy -1189261.720285 kJ/mol
# GULP energy per Si atom -12388.142920 kJ/mol
# Density = 1.569640 g / cm^3
# Si number density = 15.732206 Si / 1000 Ang^3
#
#
#
# Elastic Constant Matrix: (Units=GPa)
#
#
# Indices 1 2 3 4 5 6 
#
# 1 84.2314 42.4148 42.6830 0.0000 0.0000 0.0000
# 2 42.4148 84.2273 42.6837 0.0000 0.0000 0.0000
# 3 42.6830 42.6837 101.9771 0.0000 0.0000 0.0000
# 4 0.0000 0.0000 0.0000 14.0098 0.0000 0.0000
# 5 0.0000 0.0000 0.0000 0.0000 14.0112 0.0000
# 6 0.0000 0.0000 0.0000 0.0000 0.0000 12.9694
#
#
#
# Elastic Compliance Matrix: (Units=1/GPa)
#
#
# Indices 1 2 3 4 5 6 
#
# 1 0.017457 -0.006458 -0.004604 0.000000 0.000000 0.000000
# 2 -0.006458 0.017458 -0.004604 0.000000 0.000000 0.000000
# 3 -0.004604 -0.004604 0.013660 0.000000 0.000000 0.000000
# 4 0.000000 0.000000 0.000000 0.071379 0.000000 0.000000
# 5 0.000000 0.000000 0.000000 0.000000 0.071372 0.000000
# 6 0.000000 0.000000 0.000000 0.000000 0.000000 0.077104
#
#
# Mechanical properties :
#
#
# Convention : Reuss Voigt Hill
#
# Bulk Modulus (GPa) = 57.99312 58.44431 58.21871
# Shear Modulus (GPa) = 16.36615 17.70836 17.03726
#
# Velocity S-wave (km/s) = 3.22886 3.35865 3.29440
# Velocity P-wave (km/s) = 7.13046 7.22986 7.18033
#
# Compressibility (1/GPa) = 0.01724343
#
# Stress axis : x y z
#
# Youngs Moduli (GPa) = 57.28456 57.28058 73.20569
#
# Poissons Ratio (x) = 0.36991 0.33701
# Poissons Ratio (y) = 0.36993 0.33706
# Poissons Ratio (z) = 0.26371 0.26373
#
# Static dielectric constant tensor:
#      x y z
#    x 3.055190 0.000000 0.000000 
#    y 0.000000 3.055180 0.000000 
#    z 0.000000 0.000000 3.532410 
# 
# 
# High freq. dielectric constant tensor:
#      x y z
#    x 1.582710 0.000000 0.000000 
#    y 0.000000 1.582710 0.000000 
#    z 0.000000 0.000000 1.613350 
# 
# From -- ./inp_files/6977.got.cif
#   From: 2010.03.12/outbox.cif.g09.slc.cpg/sg141_4_cif.got.tgz:6977.got - 2010.04.03 13:18:35.
