data_PCOD8320528
_publ_section_title
;
Structure prediction by ZEFSAII (Michael W. Deem and Ramdas Pophale) SiO2 
 PCOD8320528
Probable space group: I 4/M C M
;
_chemical_formula_sum "Si O2"
_cell_formula_units_Z 192
_cell_length_a 30.798280
_cell_length_b 30.798280
_cell_length_c 14.364960
_cell_angle_alpha 90.000000
_cell_angle_beta 90.000000
_cell_angle_gamma 90.000000
_cell_volume 13625.653701
_symmetry_space_group_name_H-M "I 4/M C M"
_symmetry_group_IT_number 140
_symmetry_cell_setting 'tetragonal'
loop_
_space_group_symop_operation_xyz
x,y,z
-y,x,z
-x,-y,z
y,-x,z
x,-y,1/2-z
-x,y,1/2-z
y,x,1/2-z
-y,-x,1/2-z
-x,-y,-z
y,-x,-z
x,y,-z
-y,x,-z
-x,y,1/2+z
x,-y,1/2+z
-y,-x,1/2+z
y,x,1/2+z
1/2+x,1/2+y,1/2+z
1/2-y,1/2+x,1/2+z
1/2-x,1/2-y,1/2+z
1/2+y,1/2-x,1/2+z
1/2+x,1/2-y,-z
1/2-x,1/2+y,-z
1/2+y,1/2+x,-z
1/2-y,1/2-x,-z
1/2-x,1/2-y,1/2-z
1/2+y,1/2-x,1/2-z
1/2+x,1/2+y,1/2-z
1/2-y,1/2+x,1/2-z
1/2-x,1/2+y,z
1/2+x,1/2-y,z
1/2-y,1/2-x,z
1/2+y,1/2+x,z
loop_
_atom_site_type_symbol
_atom_site_label
_atom_site_fract_x
_atom_site_fract_y
_atom_site_fract_z
Si Si1 0.335626 0.236374 0.750000
Si Si2 1.000000 0.858631 0.103666
Si Si3 0.500000 0.744066 0.103122
Si Si4 0.141641 0.070846 0.750000
Si Si5 0.213875 0.213875 0.602427
Si Si6 0.569822 0.255515 0.750000
O O1 0.308337 0.191664 0.749999
O O2 0.325897 0.265124 0.841480
O O3 0.325897 0.265126 0.658522
O O4 0.386647 0.226675 0.750000
O O5 0.043283 0.872677 0.159149
O O6 0.000000 0.807273 0.096853
O O7 0.956717 0.872676 0.159149
O O8 1.000000 0.879466 0.000000
O O9 0.457007 0.758470 0.158569
O O10 0.542993 0.758471 0.158569
O O11 0.500000 0.765105 0.000000
O O12 0.116586 0.116586 0.750000
O O13 0.193059 0.080400 0.750000
O O14 0.198128 0.198128 0.500000
O O15 0.250001 0.250000 0.591902
#
# Coordination Sequence:
#
# PCOD8320528 Si02
#       6
#    32  32  32  32  32  32
#     4   9  17  27  40  57  80 110 139 164 194 234
#     4   8  15  29  42  53  73  95 115 147 191 232
#     4   8  15  29  44  57  73  98 130 163 202 237
#     4   9  17  26  41  60  75  92 116 151 191 232
#     4   8  15  27  38  49  73 110 143 167 190 219
#     4   9  17  27  42  59  81 103 125 165 200 229
#
# _framework density 14.091067000000001
#
# number of rings (size 3 to 8) (size 9 to 14) (size 15 to 20)
#    0.000    3.500    0.000    3.000    2.333    2.000 
#    0.000    0.000    0.000    4.000    0.000    4.667 
#    0.000    0.000    0.000    0.000    0.000    6.667 
#
# Total GULP energy -1189600.803904 kJ/mol
# GULP energy per Si atom -12391.675041 kJ/mol
# Density = 1.405900 g / cm^3
# Si number density = 14.091067 Si / 1000 Ang^3
#
#
#
# Elastic Constant Matrix: (Units=GPa)
#
#
# Indices 1 2 3 4 5 6 
#
# 1 65.9216 23.4109 30.7778 0.0000 0.0000 0.0000
# 2 23.4109 65.9216 30.7778 0.0000 0.0000 0.0000
# 3 30.7778 30.7778 135.5585 0.0000 0.0000 0.0000
# 4 0.0000 0.0000 0.0000 8.5998 0.0000 0.0000
# 5 0.0000 0.0000 0.0000 0.0000 8.5998 0.0000
# 6 0.0000 0.0000 0.0000 0.0000 0.0000 17.6137
#
#
#
# Elastic Compliance Matrix: (Units=1/GPa)
#
#
# Indices 1 2 3 4 5 6 
#
# 1 0.018397 -0.005127 -0.003013 0.000000 0.000000 0.000000
# 2 -0.005127 0.018397 -0.003013 0.000000 0.000000 0.000000
# 3 -0.003013 -0.003013 0.008745 0.000000 0.000000 0.000000
# 4 0.000000 0.000000 0.000000 0.116281 0.000000 0.000000
# 5 0.000000 0.000000 0.000000 0.000000 0.116281 0.000000
# 6 0.000000 0.000000 0.000000 0.000000 0.000000 0.056774
#
#
# Mechanical properties :
#
#
# Convention : Reuss Voigt Hill
#
# Bulk Modulus (GPa) = 43.04084 48.59276 45.81680
# Shear Modulus (GPa) = 13.70145 19.12503 16.41324
#
# Velocity S-wave (km/s) = 3.12164 3.68808 3.41662
# Velocity P-wave (km/s) = 6.60332 7.25917 6.93900
#
# Compressibility (1/GPa) = 0.02323375
#
# Stress axis : x y z
#
# Youngs Moduli (GPa) = 54.35713 54.35713 114.35075
#
# Poissons Ratio (x) = 0.27867 0.34453
# Poissons Ratio (y) = 0.27867 0.34453
# Poissons Ratio (z) = 0.16377 0.16377
#
# Static dielectric constant tensor:
#      x y z
#    x 2.424280 0.000000 0.000000 
#    y 0.000000 2.424280 0.000000 
#    z 0.000000 0.000000 3.790040 
# 
# 
# High freq. dielectric constant tensor:
#      x y z
#    x 1.498810 0.000000 0.000000 
#    y 0.000000 1.498810 0.000000 
#    z 0.000000 0.000000 1.554380 
# 
# From -- ./inp_files/5327.got.cif
#   From: 2010.06.25/outbox.cif.g09.slc.cpg/sg140_3_cif.got.tgz:5327.got - 2010.06.28 10:53:23.
