data_PCOD8320358
_publ_section_title
;
Structure prediction by ZEFSAII (Michael W. Deem and Ramdas Pophale) SiO2 
 PCOD8320358
Probable space group: I 4/M C M
;
_chemical_formula_sum "Si O2"
_cell_formula_units_Z 176
_cell_length_a 19.613099
_cell_length_b 19.613099
_cell_length_c 25.407389
_cell_angle_alpha 90.000000
_cell_angle_beta 90.000000
_cell_angle_gamma 90.000000
_cell_volume 9773.553124
_symmetry_space_group_name_H-M "I 4/M C M"
_symmetry_group_IT_number 140
_symmetry_cell_setting 'tetragonal'
loop_
_space_group_symop_operation_xyz
x,y,z
-y,x,z
-x,-y,z
y,-x,z
x,-y,1/2-z
-x,y,1/2-z
y,x,1/2-z
-y,-x,1/2-z
-x,-y,-z
y,-x,-z
x,y,-z
-y,x,-z
-x,y,1/2+z
x,-y,1/2+z
-y,-x,1/2+z
y,x,1/2+z
1/2+x,1/2+y,1/2+z
1/2-y,1/2+x,1/2+z
1/2-x,1/2-y,1/2+z
1/2+y,1/2-x,1/2+z
1/2+x,1/2-y,-z
1/2-x,1/2+y,-z
1/2+y,1/2+x,-z
1/2-y,1/2-x,-z
1/2-x,1/2-y,1/2-z
1/2+y,1/2-x,1/2-z
1/2+x,1/2+y,1/2-z
1/2-y,1/2+x,1/2-z
1/2-x,1/2+y,z
1/2+x,1/2-y,z
1/2-y,1/2-x,z
1/2+y,1/2+x,z
loop_
_atom_site_type_symbol
_atom_site_label
_atom_site_fract_x
_atom_site_fract_y
_atom_site_fract_z
Si Si1 0.135682 0.748654 0.388187
Si Si2 0.490038 0.792774 0.594354
Si Si3 0.949559 0.662716 0.706266
Si Si4 0.107771 0.503184 0.500000
Si Si5 0.243777 0.142342 0.732440
Si Si6 0.760975 0.850130 0.061872
O O1 0.179733 0.679733 0.396975
O O2 0.118865 0.761368 0.327429
O O3 0.174875 0.813033 0.412005
O O4 0.062344 0.744008 0.416651
O O5 0.490733 0.823548 0.652934
O O6 0.483529 0.851799 0.552004
O O7 0.425419 0.742802 0.586963
O O8 0.890295 0.609706 0.693489
O O9 0.919700 0.733516 0.729927
O O10 0.000000 0.630874 0.750000
O O11 0.041665 0.458336 0.500000
O O12 0.082440 0.582440 0.500000
O O13 0.169813 0.169813 0.750000
O O14 0.298533 0.201468 0.738698
O O15 0.691762 0.808239 0.074871
O O16 0.773424 0.854772 0.000000
#
# Coordination Sequence:
#
# PCOD8320358 Si02
#       6
#    32  32  32  16  32  32
#     4  10  21  36  57  86 115 147 193 246 292 339
#     4  12  22  38  60  83 116 154 195 244 292 348
#     4  11  22  35  53  80 116 156 194 230 280 346
#     4  11  24  38  54  80 114 157 200 236 284 345
#     4   9  17  33  55  79 108 143 185 234 289 339
#     4  10  21  37  58  84 113 151 198 244 293 346
#
# _framework density 18.00778
#
# number of rings (size 3 to 8) (size 9 to 14) (size 15 to 20)
#    0.000    1.545    2.727    3.273    1.273    3.818 
#    0.000    0.000    0.000    0.545    0.000    1.273 
#    0.000    0.364    0.000    0.000    0.000    0.000 
#
# Total GULP energy -1091213.306737 kJ/mol
# GULP energy per Si atom -12400.151213 kJ/mol
# Density = 1.796679 g / cm^3
# Si number density = 18.007780 Si / 1000 Ang^3
#
#
#
# Elastic Constant Matrix: (Units=GPa)
#
#
# Indices 1 2 3 4 5 6 
#
# 1 95.3345 47.3173 33.7787 0.0000 0.0000 0.0000
# 2 47.3173 95.3335 33.7783 0.0000 0.0000 0.0000
# 3 33.7787 33.7783 109.6619 0.0000 0.0000 0.0000
# 4 0.0000 0.0000 0.0000 24.5738 0.0000 0.0000
# 5 0.0000 0.0000 0.0000 0.0000 24.5736 0.0000
# 6 0.0000 0.0000 0.0000 0.0000 0.0000 22.8873
#
#
#
# Elastic Compliance Matrix: (Units=1/GPa)
#
#
# Indices 1 2 3 4 5 6 
#
# 1 0.014517 -0.006309 -0.002528 0.000000 0.000000 0.000000
# 2 -0.006309 0.014517 -0.002528 0.000000 0.000000 0.000000
# 3 -0.002528 -0.002528 0.010676 0.000000 0.000000 0.000000
# 4 0.000000 0.000000 0.000000 0.040694 0.000000 0.000000
# 5 0.000000 0.000000 0.000000 0.000000 0.040694 0.000000
# 6 0.000000 0.000000 0.000000 0.000000 0.000000 0.043692
#
#
# Mechanical properties :
#
#
# Convention : Reuss Voigt Hill
#
# Bulk Modulus (GPa) = 58.89698 58.89759 58.89729
# Shear Modulus (GPa) = 25.88253 26.77064 26.32659
#
# Velocity S-wave (km/s) = 3.79528 3.85985 3.82770
# Velocity P-wave (km/s) = 7.20992 7.25550 7.23275
#
# Compressibility (1/GPa) = 0.01697880
#
# Stress axis : x y z
#
# Youngs Moduli (GPa) = 68.88645 68.88583 93.66499
#
# Poissons Ratio (x) = 0.43463 0.23679
# Poissons Ratio (y) = 0.43463 0.23679
# Poissons Ratio (z) = 0.17415 0.17415
#
# Static dielectric constant tensor:
#      x y z
#    x 3.282130 0.000000 0.000000 
#    y 0.000000 3.282130 0.000000 
#    z 0.000000 0.000000 3.519380 
# 
# 
# High freq. dielectric constant tensor:
#      x y z
#    x 1.678740 0.000000 0.000000 
#    y 0.000000 1.678740 0.000000 
#    z 0.000000 0.000000 1.716400 
# 
# From -- ./inp_files/10694.got.cif
#   From: 2010.06.25/outbox.cif.g09.slc.cpg/sg140_6_cif.got.tgz:10694.got - 2010.06.28 10:53:23.
