data_PCOD8320960
_publ_section_title
;
Structure prediction by ZEFSAII (Michael W. Deem and Ramdas Pophale) SiO2 
 PCOD8320960
Probable space group: I 41/A C D
;
_chemical_formula_sum "Si O2"
_cell_formula_units_Z 160
_cell_length_a 18.179485
_cell_length_b 18.179485
_cell_length_c 25.798476
_cell_angle_alpha 90.000000
_cell_angle_beta 90.000000
_cell_angle_gamma 90.000000
_cell_volume 8526.233139
_symmetry_space_group_name_H-M "I 41/A C D"
_symmetry_group_IT_number 142
_space_group.IT_coordinate_system_code '2'
_symmetry_cell_setting 'tetragonal'
loop_
_space_group_symop_operation_xyz
x,y,z
1/4-y,3/4+x,1/4+z
-x,1/2-y,z
1/4+y,1/4-x,3/4+z
x,-y,1/2-z
1/2-x,y,-z
3/4+y,1/4+x,1/4-z
1/4-y,1/4-x,1/4-z
-x,-y,-z
3/4+y,1/4-x,3/4-z
x,1/2+y,-z
3/4-y,3/4+x,1/4-z
-x,y,1/2+z
1/2+x,-y,z
1/4-y,3/4-x,3/4+z
3/4+y,3/4+x,3/4+z
1/2+x,1/2+y,1/2+z
3/4-y,1/4+x,3/4+z
1/2-x,-y,1/2+z
3/4+y,3/4-x,1/4+z
1/2+x,1/2-y,-z
-x,1/2+y,1/2-z
1/4+y,3/4+x,3/4-z
3/4-y,3/4-x,3/4-z
1/2-x,1/2-y,1/2-z
1/4+y,3/4-x,1/4-z
1/2+x,y,1/2-z
1/4-y,1/4+x,3/4-z
1/2-x,1/2+y,z
x,1/2-y,1/2+z
3/4-y,1/4-x,1/4+z
1/4+y,1/4+x,1/4+z
loop_
_atom_site_type_symbol
_atom_site_label
_atom_site_fract_x
_atom_site_fract_y
_atom_site_fract_z
Si Si1 0.077024 0.539877 0.507786
Si Si2 0.514365 0.425442 0.362326
Si Si3 0.369645 0.997864 0.878740
Si Si4 0.549836 0.819195 0.545391
Si Si5 0.254947 0.395689 0.154364
O O1 0.110689 0.520246 0.562557
O O2 0.062299 0.627752 0.503857
O O3 0.136847 0.514912 0.464873
O O4 0.000000 0.500000 0.500000
O O5 0.437504 0.464520 0.349157
O O6 0.509399 0.366783 0.409672
O O7 0.541638 0.380489 0.312556
O O8 0.567411 0.493239 0.376579
O O9 0.339606 0.923187 0.851145
O O10 0.303971 0.053971 0.875000
O O11 0.500000 0.750000 0.529617
O O12 0.200484 0.450484 0.125000
#
# Coordination Sequence:
#
# PCOD8320960 Si02
#       5
#    32  32  32  32  32
#     4  11  21  39  63  87 123 163 201 252 319 365
#     4  10  17  36  59  91 119 156 196 255 298 357
#     4  11  23  36  65  92 121 160 203 250 308 370
#     4  10  18  32  64  91 117 150 207 254 298 354
#     4  10  20  38  59  87 123 160 196 249 313 360
#
# _framework density 18.765612999999998
#
# number of rings (size 3 to 8) (size 9 to 14) (size 15 to 20)
#    0.000    1.600    8.000    2.400    0.000    3.200 
#    0.000    2.000    4.400    0.000    0.000    0.000 
#    0.000    0.000    0.000    0.000    0.000    0.000 
#
# Total GULP energy -991520.198433 kJ/mol
# GULP energy per Si atom -12394.002480 kJ/mol
# Density = 1.872290 g / cm^3
# Si number density = 18.765613 Si / 1000 Ang^3
#
#
#
# Elastic Constant Matrix: (Units=GPa)
#
#
# Indices 1 2 3 4 5 6 
#
# 1 159.2635 13.7685 38.5192 0.0000 0.0000 0.0000
# 2 13.7685 159.2635 38.5192 0.0000 0.0000 0.0000
# 3 38.5192 38.5192 61.8608 0.0000 0.0000 0.0000
# 4 0.0000 0.0000 0.0000 40.8324 0.0000 0.0000
# 5 0.0000 0.0000 0.0000 0.0000 40.8324 0.0000
# 6 0.0000 0.0000 0.0000 0.0000 0.0000 55.1245
#
#
#
# Elastic Compliance Matrix: (Units=1/GPa)
#
#
# Indices 1 2 3 4 5 6 
#
# 1 0.007435 0.000561 -0.004979 0.000000 0.000000 0.000000
# 2 0.000561 0.007435 -0.004979 0.000000 0.000000 0.000000
# 3 -0.004979 -0.004979 0.022366 0.000000 0.000000 0.000000
# 4 0.000000 0.000000 0.000000 0.024490 0.000000 0.000000
# 5 0.000000 0.000000 0.000000 0.000000 0.024490 0.000000
# 6 0.000000 0.000000 0.000000 0.000000 0.000000 0.018141
#
#
# Mechanical properties :
#
#
# Convention : Reuss Voigt Hill
#
# Bulk Modulus (GPa) = 54.22353 62.44463 58.33408
# Shear Modulus (GPa) = 38.67074 46.66323 42.66699
#
# Velocity S-wave (km/s) = 4.54444 4.99203 4.77348
# Velocity P-wave (km/s) = 7.51624 8.15938 7.84440
#
# Compressibility (1/GPa) = 0.01844218
#
# Stress axis : x y z
#
# Youngs Moduli (GPa) = 134.50687 134.50687 44.71097
#
# Poissons Ratio (x) = -0.07552 0.22261
# Poissons Ratio (y) = -0.07552 0.22261
# Poissons Ratio (z) = 0.66970 0.66970
#
# Static dielectric constant tensor:
#      x y z
#    x 3.932110 0.000000 0.000000 
#    y 0.000000 3.932110 0.000000 
#    z 0.000000 0.000000 3.232670 
# 
# 
# High freq. dielectric constant tensor:
#      x y z
#    x 1.732890 0.000000 0.000000 
#    y 0.000000 1.732890 0.000000 
#    z 0.000000 0.000000 1.692540 
# 
# From -- ./inp_files/11338.got.cif
#   From: 2010.03.12/outbox.cif.g09.slc.cpg/sg142_6_cif.got.tgz:11338.got - 2010.04.03 13:27:16.
