data_PCOD8320193
_publ_section_title
;
Structure prediction by ZEFSAII (Michael W. Deem and Ramdas Pophale) SiO2 
 PCOD8320193
Probable space group: I 4/M C M
;
_chemical_formula_sum "Si O2"
_cell_formula_units_Z 176
_cell_length_a 24.891156
_cell_length_b 24.891156
_cell_length_c 14.728658
_cell_angle_alpha 90.000000
_cell_angle_beta 90.000000
_cell_angle_gamma 90.000000
_cell_volume 9125.429438
_symmetry_space_group_name_H-M "I 4/M C M"
_symmetry_group_IT_number 140
_symmetry_cell_setting 'tetragonal'
loop_
_space_group_symop_operation_xyz
x,y,z
-y,x,z
-x,-y,z
y,-x,z
x,-y,1/2-z
-x,y,1/2-z
y,x,1/2-z
-y,-x,1/2-z
-x,-y,-z
y,-x,-z
x,y,-z
-y,x,-z
-x,y,1/2+z
x,-y,1/2+z
-y,-x,1/2+z
y,x,1/2+z
1/2+x,1/2+y,1/2+z
1/2-y,1/2+x,1/2+z
1/2-x,1/2-y,1/2+z
1/2+y,1/2-x,1/2+z
1/2+x,1/2-y,-z
1/2-x,1/2+y,-z
1/2+y,1/2+x,-z
1/2-y,1/2-x,-z
1/2-x,1/2-y,1/2-z
1/2+y,1/2-x,1/2-z
1/2+x,1/2+y,1/2-z
1/2-y,1/2+x,1/2-z
1/2-x,1/2+y,z
1/2+x,1/2-y,z
1/2-y,1/2-x,z
1/2+y,1/2+x,z
loop_
_atom_site_type_symbol
_atom_site_label
_atom_site_fract_x
_atom_site_fract_y
_atom_site_fract_z
Si Si1 0.024587 0.722273 0.105230
Si Si2 0.213812 0.370661 0.723428
Si Si3 0.584226 0.831339 0.397491
Si Si4 0.827175 0.827175 0.250000
Si Si5 0.881433 0.104756 0.892296
Si Si6 0.343051 0.490332 0.394139
O O1 0.075801 0.709070 0.164816
O O2 0.003134 0.781064 0.137080
O O3 0.979466 0.676105 0.122843
O O4 0.041646 0.723518 0.000000
O O5 0.165907 0.334094 0.686420
O O6 0.207098 0.383350 0.830082
O O7 0.268024 0.337137 0.710951
O O8 0.595322 0.810854 0.500000
O O9 0.606743 0.893258 0.386585
O O10 0.866104 0.835074 0.163991
O O11 0.937505 0.128393 0.853229
O O12 0.877682 0.042023 0.866141
O O13 0.872667 0.113786 0.000000
O O14 0.344900 0.482042 0.500000
#
# Coordination Sequence:
#
# PCOD8320193 Si02
#       6
#    32  32  32  16  32  32
#     4  10  19  36  60  84 113 150 192 234 288 353
#     4  11  23  37  55  83 115 150 190 233 286 345
#     4   9  19  36  59  86 112 142 187 240 287 338
#     4  12  23  36  56  77 110 154 192 236 279 336
#     4  10  21  36  54  79 109 143 190 238 283 335
#     4   9  18  34  55  78 106 145 188 235 286 334
#
# _framework density 19.286763000000001
#
# number of rings (size 3 to 8) (size 9 to 14) (size 15 to 20)
#    0.000    2.000    1.818    1.909    0.000    3.636 
#    0.000    1.818    0.000    4.909    0.000    5.091 
#    0.000    0.000    0.000    0.000    0.000    0.000 
#
# Total GULP energy -1090666.026063 kJ/mol
# GULP energy per Si atom -12393.932114 kJ/mol
# Density = 1.924287 g / cm^3
# Si number density = 19.286763 Si / 1000 Ang^3
#
#
#
# Elastic Constant Matrix: (Units=GPa)
#
#
# Indices 1 2 3 4 5 6 
#
# 1 101.1774 91.7342 34.6538 0.0000 0.0000 0.0000
# 2 91.7342 101.1774 34.6538 0.0000 0.0000 0.0000
# 3 34.6538 34.6538 66.4710 0.0000 0.0000 0.0000
# 4 0.0000 0.0000 0.0000 23.7688 0.0000 0.0000
# 5 0.0000 0.0000 0.0000 0.0000 23.7688 0.0000
# 6 0.0000 0.0000 0.0000 0.0000 0.0000 41.4507
#
#
#
# Elastic Compliance Matrix: (Units=1/GPa)
#
#
# Indices 1 2 3 4 5 6 
#
# 1 0.056137 -0.049759 -0.003325 0.000000 0.000000 0.000000
# 2 -0.049759 0.056137 -0.003325 0.000000 0.000000 0.000000
# 3 -0.003325 -0.003325 0.018511 0.000000 0.000000 0.000000
# 4 0.000000 0.000000 0.000000 0.042072 0.000000 0.000000
# 5 0.000000 0.000000 0.000000 0.000000 0.042072 0.000000
# 6 0.000000 0.000000 0.000000 0.000000 0.000000 0.024125
#
#
# Mechanical properties :
#
#
# Convention : Reuss Voigt Hill
#
# Bulk Modulus (GPa) = 55.65768 65.65658 60.65713
# Shear Modulus (GPa) = 13.97181 24.98326 19.47753
#
# Velocity S-wave (km/s) = 2.69443 3.60301 3.18133
# Velocity P-wave (km/s) = 6.21294 7.17113 6.70916
#
# Compressibility (1/GPa) = 0.01796697
#
# Stress axis : x y z
#
# Youngs Moduli (GPa) = 17.81342 17.81342 54.02094
#
# Poissons Ratio (x) = 0.88638 0.17964
# Poissons Ratio (y) = 0.88638 0.17964
# Poissons Ratio (z) = 0.05923 0.05923
#
# Static dielectric constant tensor:
#      x y z
#    x 3.594320 0.000000 0.000000 
#    y 0.000000 3.594320 0.000000 
#    z 0.000000 0.000000 3.540850 
# 
# 
# High freq. dielectric constant tensor:
#      x y z
#    x 1.740910 0.000000 0.000000 
#    y 0.000000 1.740910 0.000000 
#    z 0.000000 0.000000 1.757340 
# 
# From -- ./inp_files/4958.got.cif
#   From: 2010.06.25/outbox.cif.g09.slc.cpg/sg140_3_cif.got.tgz:4958.got - 2010.06.28 10:53:23.
