data_PCOD8320890
_publ_section_title
;
Structure prediction by ZEFSAII (Michael W. Deem and Ramdas Pophale) SiO2 
 PCOD8320890
Probable space group: I 41/A M D
;
_chemical_formula_sum "Si O2"
_cell_formula_units_Z 128
_cell_length_a 21.186683
_cell_length_b 21.186683
_cell_length_c 13.816137
_cell_angle_alpha 90.000000
_cell_angle_beta 90.000000
_cell_angle_gamma 90.000000
_cell_volume 6201.725909
_symmetry_space_group_name_H-M "I 41/A M D"
_symmetry_group_IT_number 141
_space_group.IT_coordinate_system_code '2'
_symmetry_cell_setting 'tetragonal'
loop_
_space_group_symop_operation_xyz
x,y,z
1/4-y,3/4+x,1/4+z
-x,1/2-y,z
1/4+y,1/4-x,3/4+z
x,-y,-z
-x,1/2+y,-z
1/4+y,3/4+x,1/4-z
1/4-y,1/4-x,3/4-z
-x,-y,-z
3/4+y,1/4-x,3/4-z
x,1/2+y,-z
3/4-y,3/4+x,1/4-z
-x,y,z
x,1/2-y,z
3/4-y,1/4-x,3/4+z
3/4+y,3/4+x,1/4+z
1/2+x,1/2+y,1/2+z
3/4-y,1/4+x,3/4+z
1/2-x,-y,1/2+z
3/4+y,3/4-x,1/4+z
1/2+x,1/2-y,1/2-z
1/2-x,y,1/2-z
3/4+y,1/4+x,3/4-z
3/4-y,3/4-x,1/4-z
1/2-x,1/2-y,1/2-z
1/4+y,3/4-x,1/4-z
1/2+x,y,1/2-z
1/4-y,1/4+x,3/4-z
1/2-x,1/2+y,1/2+z
1/2+x,-y,1/2+z
1/4-y,3/4-x,1/4+z
1/4+y,1/4+x,3/4+z
loop_
_atom_site_type_symbol
_atom_site_label
_atom_site_fract_x
_atom_site_fract_y
_atom_site_fract_z
Si Si1 0.782048 0.750000 0.908487
Si Si2 0.075168 0.174832 0.875000
Si Si3 0.678386 0.544182 0.715024
Si Si4 0.129394 0.418635 0.731062
Si Si5 0.625786 0.375786 0.125000
Si Si6 0.500000 0.411364 0.052067
O O1 0.803673 0.810516 0.965932
O O2 0.707288 0.750000 0.894911
O O3 0.808028 0.750000 0.801083
O O4 0.087770 0.250000 0.885297
O O5 0.116532 0.148616 0.783817
O O6 0.750000 0.558873 0.750000
O O7 0.660473 0.580901 0.617275
O O8 0.667429 0.469074 0.701715
O O9 0.631243 0.566200 0.800104
O O10 0.563337 0.371615 0.060492
#
# Coordination Sequence:
#
# PCOD8320890 Si02
#       6
#    16  16  32  32  16  16
#     4  11  20  40  67  92 127 175 225 262 338 396
#     4  11  28  53  72  91 130 185 236 281 334 393
#     4  12  23  41  69 104 141 172 215 274 346 403
#     4  12  25  44  70 100 129 178 221 277 333 399
#     4  12  22  38  62  95 138 179 216 264 340 398
#     4  11  22  37  62  96 135 174 219 276 324 413
#
# _framework density 20.639415
#
# number of rings (size 3 to 8) (size 9 to 14) (size 15 to 20)
#    0.000    0.375    8.750    0.000    3.500    0.250 
#    4.500    1.250    2.750    0.000    0.000    0.000 
#    0.000    0.000    0.000    0.000    0.000    0.000 
#
# Total GULP energy -793066.895201 kJ/mol
# GULP energy per Si atom -12391.670238 kJ/mol
# Density = 2.059244 g / cm^3
# Si number density = 20.639415 Si / 1000 Ang^3
#
#
#
# Elastic Constant Matrix: (Units=GPa)
#
#
# Indices 1 2 3 4 5 6 
#
# 1 80.5305 28.3963 35.5031 0.0000 0.0000 0.0000
# 2 28.3963 80.5299 35.5027 0.0000 0.0000 0.0000
# 3 35.5031 35.5027 98.3411 0.0000 0.0000 0.0000
# 4 0.0000 0.0000 0.0000 32.9768 0.0000 0.0000
# 5 0.0000 0.0000 0.0000 0.0000 32.9773 0.0000
# 6 0.0000 0.0000 0.0000 0.0000 0.0000 468.4504
#
#
#
# Elastic Compliance Matrix: (Units=1/GPa)
#
#
# Indices 1 2 3 4 5 6 
#
# 1 0.015594 -0.003588 -0.004334 0.000000 0.000000 0.000000
# 2 -0.003588 0.015594 -0.004334 0.000000 0.000000 0.000000
# 3 -0.004334 -0.004334 0.013298 0.000000 0.000000 0.000000
# 4 0.000000 0.000000 0.000000 0.030324 0.000000 0.000000
# 5 0.000000 0.000000 0.000000 0.000000 0.030324 0.000000
# 6 0.000000 0.000000 0.000000 0.000000 0.000000 0.002135
#
#
# Mechanical properties :
#
#
# Convention : Reuss Voigt Hill
#
# Bulk Modulus (GPa) = 50.06838 50.91175 50.49007
# Shear Modulus (GPa) = 36.11697 117.54751 76.83224
#
# Velocity S-wave (km/s) = 4.18772 7.55490 6.10793
# Velocity P-wave (km/s) = 6.90608 10.04106 8.61733
#
# Compressibility (1/GPa) = 0.01997269
#
# Stress axis : x y z
#
# Youngs Moduli (GPa) = 64.12871 64.12847 75.19782
#
# Poissons Ratio (x) = 0.23008 0.32594
# Poissons Ratio (y) = 0.23008 0.32593
# Poissons Ratio (z) = 0.27796 0.27795
#
# Static dielectric constant tensor:
#      x y z
#    x 3.742420 0.000000 0.000000 
#    y 0.000000 3.742360 0.000000 
#    z 0.000000 0.000000 3.511640 
# 
# 
# High freq. dielectric constant tensor:
#      x y z
#    x 1.806440 0.000000 0.000000 
#    y 0.000000 1.806430 0.000000 
#    z 0.000000 0.000000 1.806120 
# 
# From -- ./inp_files/6273.got.cif
#   From: 2010.03.12/outbox.cif.g09.slc.cpg/sg141_4_cif.got.tgz:6273.got - 2010.04.03 13:18:35.
