data_PCOD8320637
_publ_section_title
;
Structure prediction by ZEFSAII (Michael W. Deem and Ramdas Pophale) SiO2 
 PCOD8320637
Probable space group: I 41/A M D
;
_chemical_formula_sum "Si O2"
_cell_formula_units_Z 160
_cell_length_a 17.551972
_cell_length_b 17.551972
_cell_length_c 27.816413
_cell_angle_alpha 90.000000
_cell_angle_beta 90.000000
_cell_angle_gamma 90.000000
_cell_volume 8569.450227
_symmetry_space_group_name_H-M "I 41/A M D"
_symmetry_group_IT_number 141
_space_group.IT_coordinate_system_code '2'
_symmetry_cell_setting 'tetragonal'
loop_
_space_group_symop_operation_xyz
x,y,z
1/4-y,3/4+x,1/4+z
-x,1/2-y,z
1/4+y,1/4-x,3/4+z
x,-y,-z
-x,1/2+y,-z
1/4+y,3/4+x,1/4-z
1/4-y,1/4-x,3/4-z
-x,-y,-z
3/4+y,1/4-x,3/4-z
x,1/2+y,-z
3/4-y,3/4+x,1/4-z
-x,y,z
x,1/2-y,z
3/4-y,1/4-x,3/4+z
3/4+y,3/4+x,1/4+z
1/2+x,1/2+y,1/2+z
3/4-y,1/4+x,3/4+z
1/2-x,-y,1/2+z
3/4+y,3/4-x,1/4+z
1/2+x,1/2-y,1/2-z
1/2-x,y,1/2-z
3/4+y,1/4+x,3/4-z
3/4-y,3/4-x,1/4-z
1/2-x,1/2-y,1/2-z
1/4+y,3/4-x,1/4-z
1/2+x,y,1/2-z
1/4-y,1/4+x,3/4-z
1/2-x,1/2+y,1/2+z
1/2+x,-y,1/2+z
1/4-y,3/4-x,1/4+z
1/4+y,1/4+x,3/4+z
loop_
_atom_site_type_symbol
_atom_site_label
_atom_site_fract_x
_atom_site_fract_y
_atom_site_fract_z
Si Si1 0.583755 0.334449 0.736526
Si Si2 0.298999 0.094200 0.672294
Si Si3 0.088786 0.991165 0.362530
Si Si4 0.806490 0.470121 0.445529
Si Si5 0.360059 0.166598 0.840766
O O1 0.500000 0.366332 0.723073
O O2 0.594462 0.250000 0.714261
O O3 0.649727 0.389436 0.718295
O O4 0.589526 0.330542 0.793323
O O5 0.351952 0.101952 0.625000
O O6 0.228083 0.151067 0.671780
O O7 0.277591 0.005460 0.674334
O O8 0.103381 0.901015 0.372020
O O9 0.000000 0.010244 0.355221
O O10 0.117856 0.028489 0.412490
O O11 0.134696 0.020967 0.314384
O O12 0.823839 0.500000 0.500000
O O13 0.365331 0.250000 0.866471
#
# Coordination Sequence:
#
# PCOD8320637 Si02
#       5
#    32  32  32  32  32
#     4  10  21  33  48  74 107 145 186 225 271 324
#     4  11  19  34  52  74 102 142 182 231 273 323
#     4  10  20  37  58  85 115 148 187 236 291 343
#     4  10  20  38  59  83 110 144 190 234 280 347
#     4  10  19  34  53  74 104 145 185 223 270 323
#
# _framework density 18.670976
#
# number of rings (size 3 to 8) (size 9 to 14) (size 15 to 20)
#    0.000    1.800    4.000    4.200    0.000    4.800 
#    0.000    2.000    0.000    4.800    0.000    0.000 
#    0.000    0.000    0.000    0.000    0.000    0.000 
#
# Total GULP energy -991066.199182 kJ/mol
# GULP energy per Si atom -12388.327490 kJ/mol
# Density = 1.862848 g / cm^3
# Si number density = 18.670976 Si / 1000 Ang^3
#
#
#
# Elastic Constant Matrix: (Units=GPa)
#
#
# Indices 1 2 3 4 5 6 
#
# 1 104.0553 37.4659 20.4130 0.0000 0.0000 0.0000
# 2 37.4659 104.0553 20.4130 0.0000 0.0000 0.0000
# 3 20.4130 20.4130 75.3254 0.0000 0.0000 0.0000
# 4 0.0000 0.0000 0.0000 24.1862 0.0000 0.0000
# 5 0.0000 0.0000 0.0000 0.0000 24.1862 0.0000
# 6 0.0000 0.0000 0.0000 0.0000 0.0000 15.3932
#
#
#
# Elastic Compliance Matrix: (Units=1/GPa)
#
#
# Indices 1 2 3 4 5 6 
#
# 1 0.011341 -0.003676 -0.002077 0.000000 0.000000 0.000000
# 2 -0.003676 0.011341 -0.002077 0.000000 0.000000 0.000000
# 3 -0.002077 -0.002077 0.014402 0.000000 0.000000 0.000000
# 4 0.000000 0.000000 0.000000 0.041346 0.000000 0.000000
# 5 0.000000 0.000000 0.000000 0.000000 0.041346 0.000000
# 6 0.000000 0.000000 0.000000 0.000000 0.000000 0.064964
#
#
# Mechanical properties :
#
#
# Convention : Reuss Voigt Hill
#
# Bulk Modulus (GPa) = 46.67848 48.89106 47.78477
# Shear Modulus (GPa) = 24.09151 26.42940 25.26045
#
# Velocity S-wave (km/s) = 3.59600 3.76644 3.68220
# Velocity P-wave (km/s) = 6.50357 6.71991 6.61263
#
# Compressibility (1/GPa) = 0.02142315
#
# Stress axis : x y z
#
# Youngs Moduli (GPa) = 88.17273 88.17273 69.43665
#
# Poissons Ratio (x) = 0.32413 0.14424
# Poissons Ratio (y) = 0.32413 0.14424
# Poissons Ratio (z) = 0.18316 0.18316
#
# Static dielectric constant tensor:
#      x y z
#    x 3.469620 0.000000 0.000000 
#    y 0.000000 3.469620 0.000000 
#    z 0.000000 0.000000 3.293950 
# 
# 
# High freq. dielectric constant tensor:
#      x y z
#    x 1.717860 0.000000 0.000000 
#    y 0.000000 1.717860 0.000000 
#    z 0.000000 0.000000 1.698480 
# 
# From -- ./inp_files/12679.got.cif
#   From: 2010.03.12/outbox.cif.g09.slc.cpg/sg141_7_cif.got.tgz:12679.got - 2010.04.03 13:18:35.
