data_PCOD8320325
_publ_section_title
;
Structure prediction by ZEFSAII (Michael W. Deem and Ramdas Pophale) SiO2 
 PCOD8320325
Probable space group: I 4/M C M
;
_chemical_formula_sum "Si O2"
_cell_formula_units_Z 144
_cell_length_a 17.876561
_cell_length_b 17.876561
_cell_length_c 24.092773
_cell_angle_alpha 90.000000
_cell_angle_beta 90.000000
_cell_angle_gamma 90.000000
_cell_volume 7699.361997
_symmetry_space_group_name_H-M "I 4/M C M"
_symmetry_group_IT_number 140
_symmetry_cell_setting 'tetragonal'
loop_
_space_group_symop_operation_xyz
x,y,z
-y,x,z
-x,-y,z
y,-x,z
x,-y,1/2-z
-x,y,1/2-z
y,x,1/2-z
-y,-x,1/2-z
-x,-y,-z
y,-x,-z
x,y,-z
-y,x,-z
-x,y,1/2+z
x,-y,1/2+z
-y,-x,1/2+z
y,x,1/2+z
1/2+x,1/2+y,1/2+z
1/2-y,1/2+x,1/2+z
1/2-x,1/2-y,1/2+z
1/2+y,1/2-x,1/2+z
1/2+x,1/2-y,-z
1/2-x,1/2+y,-z
1/2+y,1/2+x,-z
1/2-y,1/2-x,-z
1/2-x,1/2-y,1/2-z
1/2+y,1/2-x,1/2-z
1/2+x,1/2+y,1/2-z
1/2-y,1/2+x,1/2-z
1/2-x,1/2+y,z
1/2+x,1/2-y,z
1/2-y,1/2-x,z
1/2+y,1/2+x,z
loop_
_atom_site_type_symbol
_atom_site_label
_atom_site_fract_x
_atom_site_fract_y
_atom_site_fract_z
Si Si1 0.203589 0.090340 0.894055
Si Si2 0.957682 0.886069 0.500000
Si Si3 0.712244 0.331966 0.689942
Si Si4 0.644750 0.144750 0.437186
Si Si5 0.485361 0.213643 0.689317
Si Si6 0.439040 0.939040 0.344627
O O1 0.155633 0.055681 0.942698
O O2 0.156705 0.148252 0.856364
O O3 0.269348 0.133115 0.924530
O O4 0.234768 0.024034 0.856090
O O5 0.043959 0.904151 0.500000
O O6 0.671361 0.328640 0.750000
O O7 0.752315 0.252315 0.680445
O O8 0.775985 0.395956 0.682292
O O9 0.625254 0.125254 0.500000
O O10 0.591193 0.091193 0.402339
O O11 0.500000 0.246752 0.750000
O O12 0.519421 0.128875 0.688078
O O13 0.500000 0.000000 0.359212
#
# Coordination Sequence:
#
# PCOD8320325 Si02
#       6
#    32  16  32  16  32  16
#     4  11  21  40  63  89 118 159 204 253 314 367
#     4  11  24  41  64  86 117 157 204 257 309 378
#     4  11  22  36  60  89 125 162 205 258 307 369
#     4  10  20  39  64  86 117 160 203 257 308 366
#     4  11  23  37  59  89 127 164 205 255 316 375
#     4  10  24  37  57  89 124 169 214 250 311 387
#
# _framework density 18.702847999999999
#
# number of rings (size 3 to 8) (size 9 to 14) (size 15 to 20)
#    0.000    1.222    4.444    2.000    3.111    0.222 
#    0.000    0.000    0.000    0.000    0.000    0.000 
#    0.000    0.000    0.000    0.000    0.000    0.000 
#
# Total GULP energy -892398.759851 kJ/mol
# GULP energy per Si atom -12394.427220 kJ/mol
# Density = 1.866028 g / cm^3
# Si number density = 18.702848 Si / 1000 Ang^3
#
#
#
# Elastic Constant Matrix: (Units=GPa)
#
#
# Indices 1 2 3 4 5 6 
#
# 1 105.0752 44.0275 45.4873 0.0000 0.0000 0.0000
# 2 44.0275 105.0750 45.4874 0.0000 0.0000 0.0000
# 3 45.4873 45.4874 139.7523 0.0000 0.0000 0.0000
# 4 0.0000 0.0000 0.0000 25.8816 0.0000 0.0000
# 5 0.0000 0.0000 0.0000 0.0000 25.8815 0.0000
# 6 0.0000 0.0000 0.0000 0.0000 0.0000 34.3556
#
#
#
# Elastic Compliance Matrix: (Units=1/GPa)
#
#
# Indices 1 2 3 4 5 6 
#
# 1 0.012375 -0.004006 -0.002724 0.000000 0.000000 0.000000
# 2 -0.004006 0.012375 -0.002724 0.000000 0.000000 0.000000
# 3 -0.002724 -0.002724 0.008929 0.000000 0.000000 0.000000
# 4 0.000000 0.000000 0.000000 0.038638 0.000000 0.000000
# 5 0.000000 0.000000 0.000000 0.000000 0.038638 0.000000
# 6 0.000000 0.000000 0.000000 0.000000 0.000000 0.029107
#
#
# Mechanical properties :
#
#
# Convention : Reuss Voigt Hill
#
# Bulk Modulus (GPa) = 67.70205 68.87857 68.29031
# Shear Modulus (GPa) = 30.50793 31.55041 31.02917
#
# Velocity S-wave (km/s) = 4.04318 4.11168 4.07758
# Velocity P-wave (km/s) = 7.62062 7.71032 7.66560
#
# Compressibility (1/GPa) = 0.01477060
#
# Stress axis : x y z
#
# Youngs Moduli (GPa) = 80.81005 80.80980 111.99825
#
# Poissons Ratio (x) = 0.32372 0.30507
# Poissons Ratio (y) = 0.32372 0.30508
# Poissons Ratio (z) = 0.22012 0.22012
#
# Static dielectric constant tensor:
#      x y z
#    x 3.337920 0.000000 0.000000 
#    y 0.000000 3.337920 0.000000 
#    z 0.000000 0.000000 3.577120 
# 
# 
# High freq. dielectric constant tensor:
#      x y z
#    x 1.726750 0.000000 0.000000 
#    y 0.000000 1.726750 0.000000 
#    z 0.000000 0.000000 1.737710 
# 
# From -- ./inp_files/9492.got.cif
#   From: 2010.06.25/outbox.cif.g09.slc.cpg/sg140_5_cif.got.tgz:9492.got - 2010.06.28 10:53:23.
