data_PCOD8320497
_publ_section_title
;
Structure prediction by ZEFSAII (Michael W. Deem and Ramdas Pophale) SiO2 
 PCOD8320497
Probable space group: I 4/M C M
;
_chemical_formula_sum "Si O2"
_cell_formula_units_Z 176
_cell_length_a 23.252715
_cell_length_b 23.252715
_cell_length_c 15.712122
_cell_angle_alpha 90.000000
_cell_angle_beta 90.000000
_cell_angle_gamma 90.000000
_cell_volume 8495.367681
_symmetry_space_group_name_H-M "I 4/M C M"
_symmetry_group_IT_number 140
_symmetry_cell_setting 'tetragonal'
loop_
_space_group_symop_operation_xyz
x,y,z
-y,x,z
-x,-y,z
y,-x,z
x,-y,1/2-z
-x,y,1/2-z
y,x,1/2-z
-y,-x,1/2-z
-x,-y,-z
y,-x,-z
x,y,-z
-y,x,-z
-x,y,1/2+z
x,-y,1/2+z
-y,-x,1/2+z
y,x,1/2+z
1/2+x,1/2+y,1/2+z
1/2-y,1/2+x,1/2+z
1/2-x,1/2-y,1/2+z
1/2+y,1/2-x,1/2+z
1/2+x,1/2-y,-z
1/2-x,1/2+y,-z
1/2+y,1/2+x,-z
1/2-y,1/2-x,-z
1/2-x,1/2-y,1/2-z
1/2+y,1/2-x,1/2-z
1/2+x,1/2+y,1/2-z
1/2-y,1/2+x,1/2-z
1/2-x,1/2+y,z
1/2+x,1/2-y,z
1/2-y,1/2-x,z
1/2+y,1/2+x,z
loop_
_atom_site_type_symbol
_atom_site_label
_atom_site_fract_x
_atom_site_fract_y
_atom_site_fract_z
Si Si1 0.237282 0.646744 0.899479
Si Si2 0.269278 0.982395 0.599453
Si Si3 0.137085 0.183831 0.101591
Si Si4 0.515649 0.591935 0.000000
Si Si5 0.847555 0.981434 0.660258
Si Si6 0.310198 0.100988 0.599546
O O1 0.192469 0.692469 0.859679
O O2 0.213681 0.582856 0.875639
O O3 0.301594 0.659653 0.864548
O O4 0.239132 0.654398 0.000000
O O5 0.250400 0.985374 0.500000
O O6 0.218913 0.001917 0.661418
O O7 0.317565 0.031920 0.617341
O O8 0.086717 0.144746 0.142932
O O9 0.127561 0.249635 0.132586
O O10 0.131754 0.178470 0.000000
O O11 0.452987 0.565693 0.000000
O O12 0.521997 0.627512 0.086211
O O13 0.876071 0.000000 0.750000
O O14 0.310906 0.111686 0.500000
O O15 0.363352 0.136649 0.641475
#
# Coordination Sequence:
#
# PCOD8320497 Si02
#       6
#    32  32  32  16  32  32
#     4   9  17  28  50  82 111 148 190 229 284 351
#     4   9  17  31  51  75 109 145 184 232 288 346
#     4   9  16  29  50  76 109 145 186 239 286 333
#     4  11  26  44  60  78 108 150 196 245 291 329
#     4  11  22  37  60  85 110 147 193 239 288 341
#     4   8  13  23  42  69  99 137 186 234 283 340
#
# _framework density 20.717172000000001
#
# number of rings (size 3 to 8) (size 9 to 14) (size 15 to 20)
#    0.000    2.636    1.818    1.636    2.545    2.909 
#    0.000    0.909    0.000    7.091    0.000    3.818 
#    0.000    0.000    0.000    6.545    0.000    7.273 
#
# Total GULP energy -1090198.533895 kJ/mol
# GULP energy per Si atom -12388.619703 kJ/mol
# Density = 2.067002 g / cm^3
# Si number density = 20.717172 Si / 1000 Ang^3
#
#
#
# Elastic Constant Matrix: (Units=GPa)
#
#
# Indices 1 2 3 4 5 6 
#
# 1 113.6738 48.7377 17.0155 0.0000 0.0000 0.0000
# 2 48.7377 113.6738 17.0155 0.0000 0.0000 0.0000
# 3 17.0155 17.0155 62.9536 0.0000 0.0000 0.0000
# 4 0.0000 0.0000 0.0000 176.2153 0.0000 0.0000
# 5 0.0000 0.0000 0.0000 0.0000 176.2153 0.0000
# 6 0.0000 0.0000 0.0000 0.0000 0.0000 35.8076
#
#
#
# Elastic Compliance Matrix: (Units=1/GPa)
#
#
# Indices 1 2 3 4 5 6 
#
# 1 0.010963 -0.004436 -0.001764 0.000000 0.000000 0.000000
# 2 -0.004436 0.010963 -0.001764 0.000000 0.000000 0.000000
# 3 -0.001764 -0.001764 0.016838 0.000000 0.000000 0.000000
# 4 0.000000 0.000000 0.000000 0.005675 0.000000 0.000000
# 5 0.000000 0.000000 0.000000 0.000000 0.005675 0.000000
# 6 0.000000 0.000000 0.000000 0.000000 0.000000 0.027927
#
#
# Mechanical properties :
#
#
# Convention : Reuss Voigt Hill
#
# Bulk Modulus (GPa) = 43.79135 50.64876 47.22005
# Shear Modulus (GPa) = 49.22087 91.48315 70.35201
#
# Velocity S-wave (km/s) = 4.87956 6.65237 5.83370
# Velocity P-wave (km/s) = 7.27532 9.13817 8.25943
#
# Compressibility (1/GPa) = 0.02283556
#
# Stress axis : x y z
#
# Youngs Moduli (GPa) = 91.21348 91.21348 59.38821
#
# Poissons Ratio (x) = 0.40466 0.10477
# Poissons Ratio (y) = 0.40466 0.10477
# Poissons Ratio (z) = 0.16091 0.16091
#
# Static dielectric constant tensor:
#      x y z
#    x 3.919900 0.000000 0.000000 
#    y 0.000000 3.919900 0.000000 
#    z 0.000000 0.000000 3.280280 
# 
# 
# High freq. dielectric constant tensor:
#      x y z
#    x 1.796160 0.000000 0.000000 
#    y 0.000000 1.796160 0.000000 
#    z 0.000000 0.000000 1.772330 
# 
# From -- ./inp_files/4892.got.cif
#   From: 2010.06.25/outbox.cif.g09.slc.cpg/sg140_3_cif.got.tgz:4892.got - 2010.06.28 10:53:23.
