data_PCOD8320708
_publ_section_title
;
Structure prediction by ZEFSAII (Michael W. Deem and Ramdas Pophale) SiO2 
 PCOD8320708
Probable space group: I 41/A M D
;
_chemical_formula_sum "Si O2"
_cell_formula_units_Z 192
_cell_length_a 20.530825
_cell_length_b 20.530825
_cell_length_c 22.682947
_cell_angle_alpha 90.000000
_cell_angle_beta 90.000000
_cell_angle_gamma 90.000000
_cell_volume 9561.197305
_symmetry_space_group_name_H-M "I 41/A M D"
_symmetry_group_IT_number 141
_space_group.IT_coordinate_system_code '2'
_symmetry_cell_setting 'tetragonal'
loop_
_space_group_symop_operation_xyz
x,y,z
1/4-y,3/4+x,1/4+z
-x,1/2-y,z
1/4+y,1/4-x,3/4+z
x,-y,-z
-x,1/2+y,-z
1/4+y,3/4+x,1/4-z
1/4-y,1/4-x,3/4-z
-x,-y,-z
3/4+y,1/4-x,3/4-z
x,1/2+y,-z
3/4-y,3/4+x,1/4-z
-x,y,z
x,1/2-y,z
3/4-y,1/4-x,3/4+z
3/4+y,3/4+x,1/4+z
1/2+x,1/2+y,1/2+z
3/4-y,1/4+x,3/4+z
1/2-x,-y,1/2+z
3/4+y,3/4-x,1/4+z
1/2+x,1/2-y,1/2-z
1/2-x,y,1/2-z
3/4+y,1/4+x,3/4-z
3/4-y,3/4-x,1/4-z
1/2-x,1/2-y,1/2-z
1/4+y,3/4-x,1/4-z
1/2+x,y,1/2-z
1/4-y,1/4+x,3/4-z
1/2-x,1/2+y,1/2+z
1/2+x,-y,1/2+z
1/4-y,3/4-x,1/4+z
1/4+y,1/4+x,3/4+z
loop_
_atom_site_type_symbol
_atom_site_label
_atom_site_fract_x
_atom_site_fract_y
_atom_site_fract_z
Si Si1 0.674919 0.575628 0.004550
Si Si2 0.071994 0.898075 0.228654
Si Si3 0.264542 0.178494 0.069705
Si Si4 0.844486 0.673022 0.319020
Si Si5 0.574325 0.093305 0.908712
Si Si6 0.135588 0.515486 0.140193
O O1 0.600384 0.587213 0.024348
O O2 0.714899 0.607216 0.057458
O O3 0.693828 0.500000 0.000000
O O4 0.687229 0.618148 0.945247
O O5 0.127494 0.849941 0.255225
O O6 0.091621 0.923741 0.163453
O O7 0.000000 0.864667 0.225090
O O8 0.067484 0.959249 0.271062
O O9 0.299861 0.250000 0.072250
O O10 0.228715 0.163130 0.131249
O O11 0.839343 0.750000 0.319052
O O12 0.893073 0.650034 0.370224
O O13 0.771915 0.644546 0.333190
O O14 0.500000 0.112824 0.911502
O O15 0.206840 0.543161 0.125000
#
# Coordination Sequence:
#
# PCOD8320708 Si02
#       6
#    32  32  32  32  32  32
#     4  10  21  29  51  79 104 139 183 233 281 336
#     4   9  18  34  54  76 105 141 179 227 278 326
#     4   8  16  33  51  69 102 141 176 215 280 342
#     4  10  20  35  57  82 104 141 188 233 276 328
#     4   9  19  34  51  76 108 142 177 225 280 339
#     4  10  22  34  52  76 113 144 183 231 285 332
#
# _framework density 20.081167000000001
#
# number of rings (size 3 to 8) (size 9 to 14) (size 15 to 20)
#    0.000    2.667    0.000    2.000    9.333    5.667 
#    0.000    2.500    0.000    0.000    0.000    0.000 
#    0.000    1.333    0.000    0.000    0.000    0.000 
#
# Total GULP energy -1189371.531437 kJ/mol
# GULP energy per Si atom -12389.286786 kJ/mol
# Density = 2.003546 g / cm^3
# Si number density = 20.081167 Si / 1000 Ang^3
#
#
#
# Elastic Constant Matrix: (Units=GPa)
#
#
# Indices 1 2 3 4 5 6 
#
# 1 118.6165 53.1144 32.6711 0.0000 0.0000 0.0000
# 2 53.1144 118.6182 32.6715 0.0000 0.0000 0.0000
# 3 32.6711 32.6715 34.8337 0.0000 0.0000 0.0000
# 4 0.0000 0.0000 0.0000 16.9176 0.0000 0.0000
# 5 0.0000 0.0000 0.0000 0.0000 16.9167 0.0000
# 6 0.0000 0.0000 0.0000 0.0000 0.0000 12.2792
#
#
#
# Elastic Compliance Matrix: (Units=1/GPa)
#
#
# Indices 1 2 3 4 5 6 
#
# 1 0.012160 -0.003106 -0.008492 0.000000 0.000000 0.000000
# 2 -0.003106 0.012160 -0.008492 0.000000 0.000000 0.000000
# 3 -0.008492 -0.008492 0.044638 0.000000 0.000000 0.000000
# 4 0.000000 0.000000 0.000000 0.059110 0.000000 0.000000
# 5 0.000000 0.000000 0.000000 0.000000 0.059113 0.000000
# 6 0.000000 0.000000 0.000000 0.000000 0.000000 0.081439
#
#
# Mechanical properties :
#
#
# Convention : Reuss Voigt Hill
#
# Bulk Modulus (GPa) = 34.74920 56.55359 45.65140
# Shear Modulus (GPa) = 15.70380 19.46344 17.58362
#
# Velocity S-wave (km/s) = 2.79949 3.11664 2.96231
# Velocity P-wave (km/s) = 5.27176 6.41677 5.87224
#
# Compressibility (1/GPa) = 0.02877764
#
# Stress axis : x y z
#
# Youngs Moduli (GPa) = 82.23384 82.23483 22.40250
#
# Poissons Ratio (x) = 0.25543 0.19025
# Poissons Ratio (y) = 0.25543 0.19025
# Poissons Ratio (z) = 0.69834 0.69835
#
# Static dielectric constant tensor:
#      x y z
#    x 3.752170 0.000000 0.000000 
#    y 0.000000 3.752170 0.000000 
#    z 0.000000 0.000000 3.886000 
# 
# 
# High freq. dielectric constant tensor:
#      x y z
#    x 1.769770 0.000000 0.000000 
#    y 0.000000 1.769770 0.000000 
#    z 0.000000 0.000000 1.764310 
# 
# From -- ./inp_files/13055.got.cif
#   From: 2010.03.12/outbox.cif.g09.slc.cpg/sg141_7_cif.got.tgz:13055.got - 2010.04.03 13:18:35.
