data_PCOD8320067
_publ_section_title
;
Structure prediction by ZEFSAII (Michael W. Deem and Ramdas Pophale) SiO2 
 PCOD8320067
Probable space group: I 4/M C M
;
_chemical_formula_sum "Si O2"
_cell_formula_units_Z 160
_cell_length_a 32.020400
_cell_length_b 32.020400
_cell_length_c 8.592768
_cell_angle_alpha 90.000000
_cell_angle_beta 90.000000
_cell_angle_gamma 90.000000
_cell_volume 8810.216726
_symmetry_space_group_name_H-M "I 4/M C M"
_symmetry_group_IT_number 140
_symmetry_cell_setting 'tetragonal'
loop_
_space_group_symop_operation_xyz
x,y,z
-y,x,z
-x,-y,z
y,-x,z
x,-y,1/2-z
-x,y,1/2-z
y,x,1/2-z
-y,-x,1/2-z
-x,-y,-z
y,-x,-z
x,y,-z
-y,x,-z
-x,y,1/2+z
x,-y,1/2+z
-y,-x,1/2+z
y,x,1/2+z
1/2+x,1/2+y,1/2+z
1/2-y,1/2+x,1/2+z
1/2-x,1/2-y,1/2+z
1/2+y,1/2-x,1/2+z
1/2+x,1/2-y,-z
1/2-x,1/2+y,-z
1/2+y,1/2+x,-z
1/2-y,1/2-x,-z
1/2-x,1/2-y,1/2-z
1/2+y,1/2-x,1/2-z
1/2+x,1/2+y,1/2-z
1/2-y,1/2+x,1/2-z
1/2-x,1/2+y,z
1/2+x,1/2-y,z
1/2-y,1/2-x,z
1/2+y,1/2+x,z
loop_
_atom_site_type_symbol
_atom_site_label
_atom_site_fract_x
_atom_site_fract_y
_atom_site_fract_z
Si Si1 0.833382 0.454522 0.315610
Si Si2 0.605972 0.894029 0.184544
Si Si3 0.612703 0.674009 0.183116
Si Si4 0.828363 0.671638 0.814654
Si Si5 0.731326 0.888446 0.815104
Si Si6 0.045464 0.892656 0.816151
O O1 0.824373 0.500000 0.250000
O O2 0.834704 0.455234 0.500000
O O3 0.878480 0.438528 0.251582
O O4 0.795655 0.425270 0.259894
O O5 0.639295 0.860706 0.242015
O O6 0.603715 0.896285 0.000000
O O7 0.655905 0.655905 0.250000
O O8 0.605565 0.721155 0.240499
O O9 0.573849 0.646075 0.241484
O O10 0.616374 0.672604 0.000000
O O11 0.842991 0.716658 0.750139
O O12 0.829424 0.670577 0.000000
O O13 0.726230 0.889905 0.000000
O O14 0.064259 0.935742 0.750000
O O15 0.000000 0.884798 0.750000
O O16 0.043534 0.895797 0.000000
#
# Coordination Sequence:
#
# PCOD8320067 Si02
#       6
#    32  16  32  16  32  32
#     4  11  21  34  52  78 107 138 174 215 258 306
#     4  10  18  32  52  74 102 138 172 211 259 309
#     4   9  20  36  55  76 103 136 172 208 254 308
#     4  10  18  30  49  75 101 133 173 213 256 305
#     4  10  19  34  53  76 104 136 171 214 260 306
#     4  10  20  36  55  78 103 132 166 206 250 300
#
# _framework density 18.160733
#
# number of rings (size 3 to 8) (size 9 to 14) (size 15 to 20)
#    0.000    2.000    0.000    7.200    0.000    3.400 
#    0.000    3.500    0.000    0.300    0.000    2.100 
#    0.000    0.000    0.000    0.000    0.000    0.000 
#
# Total GULP energy -991885.183807 kJ/mol
# GULP energy per Si atom -12398.564798 kJ/mol
# Density = 1.811940 g / cm^3
# Si number density = 18.160733 Si / 1000 Ang^3
#
#
#
# Elastic Constant Matrix: (Units=GPa)
#
#
# Indices 1 2 3 4 5 6 
#
# 1 98.7647 89.0502 46.8706 0.0000 0.0000 0.0000
# 2 89.0502 98.7529 46.8656 0.0000 0.0000 0.0000
# 3 46.8706 46.8656 121.4500 0.0000 0.0000 0.0000
# 4 0.0000 0.0000 0.0000 29.1280 0.0000 0.0000
# 5 0.0000 0.0000 0.0000 0.0000 29.1283 0.0000
# 6 0.0000 0.0000 0.0000 0.0000 0.0000 16.2318
#
#
#
# Elastic Compliance Matrix: (Units=1/GPa)
#
#
# Indices 1 2 3 4 5 6 
#
# 1 0.054796 -0.048204 -0.002546 0.000000 0.000000 0.000000
# 2 -0.048204 0.054801 -0.002544 0.000000 0.000000 0.000000
# 3 -0.002546 -0.002544 0.010198 0.000000 0.000000 0.000000
# 4 0.000000 0.000000 0.000000 0.034331 0.000000 0.000000
# 5 0.000000 0.000000 0.000000 0.000000 0.034331 0.000000
# 6 0.000000 0.000000 0.000000 0.000000 0.000000 0.061608
#
#
# Mechanical properties :
#
#
# Convention : Reuss Voigt Hill
#
# Bulk Modulus (GPa) = 75.71297 76.06005 75.88651
# Shear Modulus (GPa) = 13.84836 23.97635 18.91235
#
# Velocity S-wave (km/s) = 2.76442 3.63744 3.23055
# Velocity P-wave (km/s) = 7.20904 7.72100 7.46941
#
# Compressibility (1/GPa) = 0.01320778
#
# Stress axis : x y z
#
# Youngs Moduli (GPa) = 18.24964 18.24786 98.05793
#
# Poissons Ratio (x) = 0.87961 0.24966
# Poissons Ratio (y) = 0.87970 0.24944
# Poissons Ratio (z) = 0.04646 0.04642
#
# Static dielectric constant tensor:
#      x y z
#    x -94.390650 0.000000 0.000000 
#    y 0.000000 0.514990 0.000000 
#    z 0.000000 0.000000 3.436150 
# 
# 
# High freq. dielectric constant tensor:
#      x y z
#    x 1.696470 0.000000 0.000000 
#    y 0.000000 1.696470 0.000000 
#    z 0.000000 0.000000 1.719790 
# 
# From -- ./inp_files/1829.got.cif
#   From: 2010.06.25/outbox.cif.g09.slc.cpg/sg140_1_cif.got.tgz:1829.got - 2010.06.28 10:53:23.
