data_PCOD8320115
_publ_section_title
;
Structure prediction by ZEFSAII (Michael W. Deem and Ramdas Pophale) SiO2 
 PCOD8320115
Probable space group: I 4/M C M
;
_chemical_formula_sum "Si O2"
_cell_formula_units_Z 224
_cell_length_a 24.602046
_cell_length_b 24.602046
_cell_length_c 25.575307
_cell_angle_alpha 90.000000
_cell_angle_beta 90.000000
_cell_angle_gamma 90.000000
_cell_volume 15479.727383
_symmetry_space_group_name_H-M "I 4/M C M"
_symmetry_group_IT_number 140
_symmetry_cell_setting 'tetragonal'
loop_
_space_group_symop_operation_xyz
x,y,z
-y,x,z
-x,-y,z
y,-x,z
x,-y,1/2-z
-x,y,1/2-z
y,x,1/2-z
-y,-x,1/2-z
-x,-y,-z
y,-x,-z
x,y,-z
-y,x,-z
-x,y,1/2+z
x,-y,1/2+z
-y,-x,1/2+z
y,x,1/2+z
1/2+x,1/2+y,1/2+z
1/2-y,1/2+x,1/2+z
1/2-x,1/2-y,1/2+z
1/2+y,1/2-x,1/2+z
1/2+x,1/2-y,-z
1/2-x,1/2+y,-z
1/2+y,1/2+x,-z
1/2-y,1/2-x,-z
1/2-x,1/2-y,1/2-z
1/2+y,1/2-x,1/2-z
1/2+x,1/2+y,1/2-z
1/2-y,1/2+x,1/2-z
1/2-x,1/2+y,z
1/2+x,1/2-y,z
1/2-y,1/2-x,z
1/2+y,1/2+x,z
loop_
_atom_site_type_symbol
_atom_site_label
_atom_site_fract_x
_atom_site_fract_y
_atom_site_fract_z
Si Si1 0.765216 0.826334 0.291402
Si Si2 0.722685 0.868648 0.941325
Si Si3 0.286536 0.694933 0.595305
Si Si4 0.405526 0.816834 0.754610
Si Si5 0.659522 0.931712 0.141772
Si Si6 0.205748 0.385105 0.942933
Si Si7 0.141840 0.552851 0.639437
O O1 0.810395 0.810395 0.250000
O O2 0.716337 0.783664 0.294320
O O3 0.795697 0.827796 0.346540
O O4 0.741861 0.885264 0.275019
O O5 0.678503 0.821498 0.938444
O O6 0.781755 0.843374 0.926928
O O7 0.705918 0.915525 0.900271
O O8 0.725410 0.893180 0.000000
O O9 0.243051 0.743051 0.594255
O O10 0.264927 0.643060 0.562568
O O11 0.352699 0.852699 0.743445
O O12 0.436645 0.812459 0.699167
O O13 0.442411 0.843678 0.799366
O O14 0.610651 0.889350 0.141140
O O15 0.633162 0.989622 0.126611
O O16 0.162133 0.337868 0.938379
O O17 0.192207 0.427009 0.896492
O O18 0.202930 0.413767 0.000000
O O19 0.086820 0.586820 0.626865
#
# Coordination Sequence:
#
# PCOD8320115 Si02
#       7
#    32  32  32  32  32  32  32
#     4   9  14  20  35  58  83 104 120 147 191 246
#     4   9  17  28  41  58  80 103 128 161 201 249
#     4   9  14  23  39  60  81 100 121 149 194 249
#     4   9  16  28  41  57  78  99 129 170 213 252
#     4  10  20  31  43  57  75 105 143 181 219 253
#     4   9  16  26  41  60  78  96 123 162 208 254
#     4  10  19  31  44  57  76 103 139 185 226 251
#
# _framework density 14.470539
#
# number of rings (size 3 to 8) (size 9 to 14) (size 15 to 20)
#    0.000    2.714    1.429    1.714    0.000    6.000 
#    0.000    0.000    0.000    2.571    0.000    4.000 
#    0.000    0.000    0.000    0.000    0.000    0.714 
#
# Total GULP energy -1387877.182247 kJ/mol
# GULP energy per Si atom -12391.760556 kJ/mol
# Density = 1.443760 g / cm^3
# Si number density = 14.470539 Si / 1000 Ang^3
#
#
#
# Elastic Constant Matrix: (Units=GPa)
#
#
# Indices 1 2 3 4 5 6 
#
# 1 38.2013 35.3602 28.4983 0.0000 0.0000 0.0000
# 2 35.3602 38.2013 28.4983 0.0000 0.0000 0.0000
# 3 28.4983 28.4983 114.2836 0.0000 0.0000 0.0000
# 4 0.0000 0.0000 0.0000 11.6018 0.0000 0.0000
# 5 0.0000 0.0000 0.0000 0.0000 11.6018 0.0000
# 6 0.0000 0.0000 0.0000 0.0000 0.0000 11.5120
#
#
#
# Elastic Compliance Matrix: (Units=1/GPa)
#
#
# Indices 1 2 3 4 5 6 
#
# 1 0.184412 -0.167562 -0.004202 0.000000 0.000000 0.000000
# 2 -0.167562 0.184412 -0.004202 0.000000 0.000000 0.000000
# 3 -0.004202 -0.004202 0.010846 0.000000 0.000000 0.000000
# 4 0.000000 0.000000 0.000000 0.086193 0.000000 0.000000
# 5 0.000000 0.000000 0.000000 0.000000 0.086193 0.000000
# 6 0.000000 0.000000 0.000000 0.000000 0.000000 0.086866
#
#
# Mechanical properties :
#
#
# Convention : Reuss Voigt Hill
#
# Bulk Modulus (GPa) = 36.05150 41.71109 38.88129
# Shear Modulus (GPa) = 4.99951 13.49843 9.24897
#
# Velocity S-wave (km/s) = 1.86077 3.05753 2.53090
# Velocity P-wave (km/s) = 5.43916 6.43055 5.95552
#
# Compressibility (1/GPa) = 0.02773810
#
# Stress axis : x y z
#
# Youngs Moduli (GPa) = 5.42265 5.42265 92.20265
#
# Poissons Ratio (x) = 0.90863 0.38741
# Poissons Ratio (y) = 0.90863 0.38741
# Poissons Ratio (z) = 0.02278 0.02278
#
# Static dielectric constant tensor:
#      x y z
#    x 2.541570 0.000000 0.000000 
#    y 0.000000 2.541570 0.000000 
#    z 0.000000 0.000000 3.119510 
# 
# 
# High freq. dielectric constant tensor:
#      x y z
#    x 1.507250 0.000000 0.000000 
#    y 0.000000 1.507250 0.000000 
#    z 0.000000 0.000000 1.576260 
# 
# From -- ./inp_files/10003.got.cif
#   From: 2010.06.25/outbox.cif.g09.slc.cpg/sg140_6_cif.got.tgz:10003.got - 2010.06.28 10:53:23.
