data_PCOD8320848
_publ_section_title
;
Structure prediction by ZEFSAII (Michael W. Deem and Ramdas Pophale) SiO2 
 PCOD8320848
Probable space group: I 41/A M D
;
_chemical_formula_sum "Si O2"
_cell_formula_units_Z 192
_cell_length_a 20.589663
_cell_length_b 20.589663
_cell_length_c 21.757180
_cell_angle_alpha 90.000000
_cell_angle_beta 90.000000
_cell_angle_gamma 90.000000
_cell_volume 9223.613186
_symmetry_space_group_name_H-M "I 41/A M D"
_symmetry_group_IT_number 141
_space_group.IT_coordinate_system_code '2'
_symmetry_cell_setting 'tetragonal'
loop_
_space_group_symop_operation_xyz
x,y,z
1/4-y,3/4+x,1/4+z
-x,1/2-y,z
1/4+y,1/4-x,3/4+z
x,-y,-z
-x,1/2+y,-z
1/4+y,3/4+x,1/4-z
1/4-y,1/4-x,3/4-z
-x,-y,-z
3/4+y,1/4-x,3/4-z
x,1/2+y,-z
3/4-y,3/4+x,1/4-z
-x,y,z
x,1/2-y,z
3/4-y,1/4-x,3/4+z
3/4+y,3/4+x,1/4+z
1/2+x,1/2+y,1/2+z
3/4-y,1/4+x,3/4+z
1/2-x,-y,1/2+z
3/4+y,3/4-x,1/4+z
1/2+x,1/2-y,1/2-z
1/2-x,y,1/2-z
3/4+y,1/4+x,3/4-z
3/4-y,3/4-x,1/4-z
1/2-x,1/2-y,1/2-z
1/4+y,3/4-x,1/4-z
1/2+x,y,1/2-z
1/4-y,1/4+x,3/4-z
1/2-x,1/2+y,1/2+z
1/2+x,-y,1/2+z
1/4-y,3/4-x,1/4+z
1/4+y,1/4+x,3/4+z
loop_
_atom_site_type_symbol
_atom_site_label
_atom_site_fract_x
_atom_site_fract_y
_atom_site_fract_z
Si Si1 0.141507 0.015336 0.342807
Si Si2 0.133034 0.824512 0.071263
Si Si3 0.576050 0.054216 0.952828
Si Si4 0.928445 0.521466 0.863254
Si Si5 0.646599 0.929582 0.527218
Si Si6 0.144977 0.177565 0.496031
O O1 0.203981 0.046020 0.375000
O O2 0.094446 0.072731 0.318610
O O3 0.105808 0.964071 0.387115
O O4 0.167206 0.973512 0.284867
O O5 0.078904 0.828904 0.125000
O O6 0.138101 0.750000 0.047488
O O7 0.198810 0.849324 0.105111
O O8 0.116110 0.871777 0.014011
O O9 0.500000 0.051187 0.944809
O O10 0.592911 0.125364 0.979506
O O11 0.602022 0.000000 0.000000
O O12 0.885488 0.568897 0.905207
O O13 0.932017 0.548116 0.794826
O O14 0.000000 0.518383 0.893114
O O15 0.631914 0.000000 0.500000
O O16 0.113591 0.250000 0.487066
#
# Coordination Sequence:
#
# PCOD8320848 Si02
#       6
#    32  32  32  32  32  32
#     4  12  25  38  64  98 135 167 216 275 339 392
#     4  11  24  43  65  93 131 171 213 267 331 393
#     4  11  24  43  66  95 127 168 219 275 333 393
#     4  10  22  41  62  89 125 165 208 259 321 388
#     4  12  25  37  65  98 126 165 218 269 319 384
#     4  11  23  43  67  93 128 174 218 266 333 404
#
# _framework density 20.816136
#
# number of rings (size 3 to 8) (size 9 to 14) (size 15 to 20)
#    0.000    0.833    6.667    0.500    4.667    2.167 
#    0.000    0.000    0.000    0.000    0.000    0.000 
#    0.000    0.000    0.000    0.000    0.000    0.000 
#
# Total GULP energy -1190186.796027 kJ/mol
# GULP energy per Si atom -12397.779125 kJ/mol
# Density = 2.076876 g / cm^3
# Si number density = 20.816136 Si / 1000 Ang^3
#
#
#
# Elastic Constant Matrix: (Units=GPa)
#
#
# Indices 1 2 3 4 5 6 
#
# 1 89.4091 22.1137 26.3467 0.0000 0.0000 0.0000
# 2 22.1137 89.4121 26.3480 0.0000 0.0000 0.0000
# 3 26.3467 26.3480 77.9085 0.0000 0.0000 0.0000
# 4 0.0000 0.0000 0.0000 28.0207 0.0000 0.0000
# 5 0.0000 0.0000 0.0000 0.0000 28.0206 0.0000
# 6 0.0000 0.0000 0.0000 0.0000 0.0000 24.9994
#
#
#
# Elastic Compliance Matrix: (Units=1/GPa)
#
#
# Indices 1 2 3 4 5 6 
#
# 1 0.012766 -0.002094 -0.003609 0.000000 0.000000 0.000000
# 2 -0.002094 0.012766 -0.003609 0.000000 0.000000 0.000000
# 3 -0.003609 -0.003609 0.015277 0.000000 0.000000 0.000000
# 4 0.000000 0.000000 0.000000 0.035688 0.000000 0.000000
# 5 0.000000 0.000000 0.000000 0.000000 0.035688 0.000000
# 6 0.000000 0.000000 0.000000 0.000000 0.000000 0.040001
#
#
# Mechanical properties :
#
#
# Convention : Reuss Voigt Hill
#
# Bulk Modulus (GPa) = 45.07713 45.14962 45.11337
# Shear Modulus (GPa) = 28.05782 28.33624 28.19703
#
# Velocity S-wave (km/s) = 3.67534 3.69353 3.68445
# Velocity P-wave (km/s) = 6.30181 6.31873 6.31028
#
# Compressibility (1/GPa) = 0.02218420
#
# Stress axis : x y z
#
# Youngs Moduli (GPa) = 78.33376 78.33576 65.45953
#
# Poissons Ratio (x) = 0.16402 0.23624
# Poissons Ratio (y) = 0.16402 0.23625
# Poissons Ratio (z) = 0.28271 0.28272
#
# Static dielectric constant tensor:
#      x y z
#    x 3.734000 0.000000 0.000000 
#    y 0.000000 3.734000 0.000000 
#    z 0.000000 0.000000 3.726580 
# 
# 
# High freq. dielectric constant tensor:
#      x y z
#    x 1.808440 0.000000 0.000000 
#    y 0.000000 1.808440 0.000000 
#    z 0.000000 0.000000 1.818060 
# 
# From -- ./inp_files/11694.got.cif
#   From: 2010.03.12/outbox.cif.g09.slc.cpg/sg141_6_cif.got.tgz:11694.got - 2010.04.03 13:18:35.
