data_PCOD8320667
_publ_section_title
;
Structure prediction by ZEFSAII (Michael W. Deem and Ramdas Pophale) SiO2 
 PCOD8320667
Probable space group: I 41/A M D
;
_chemical_formula_sum "Si O2"
_cell_formula_units_Z 160
_cell_length_a 20.963194
_cell_length_b 20.963194
_cell_length_c 18.980380
_cell_angle_alpha 90.000000
_cell_angle_beta 90.000000
_cell_angle_gamma 90.000000
_cell_volume 8341.032434
_symmetry_space_group_name_H-M "I 41/A M D"
_symmetry_group_IT_number 141
_space_group.IT_coordinate_system_code '2'
_symmetry_cell_setting 'tetragonal'
loop_
_space_group_symop_operation_xyz
x,y,z
1/4-y,3/4+x,1/4+z
-x,1/2-y,z
1/4+y,1/4-x,3/4+z
x,-y,-z
-x,1/2+y,-z
1/4+y,3/4+x,1/4-z
1/4-y,1/4-x,3/4-z
-x,-y,-z
3/4+y,1/4-x,3/4-z
x,1/2+y,-z
3/4-y,3/4+x,1/4-z
-x,y,z
x,1/2-y,z
3/4-y,1/4-x,3/4+z
3/4+y,3/4+x,1/4+z
1/2+x,1/2+y,1/2+z
3/4-y,1/4+x,3/4+z
1/2-x,-y,1/2+z
3/4+y,3/4-x,1/4+z
1/2+x,1/2-y,1/2-z
1/2-x,y,1/2-z
3/4+y,1/4+x,3/4-z
3/4-y,3/4-x,1/4-z
1/2-x,1/2-y,1/2-z
1/4+y,3/4-x,1/4-z
1/2+x,y,1/2-z
1/4-y,1/4+x,3/4-z
1/2-x,1/2+y,1/2+z
1/2+x,-y,1/2+z
1/4-y,3/4-x,1/4+z
1/4+y,1/4+x,3/4+z
loop_
_atom_site_type_symbol
_atom_site_label
_atom_site_fract_x
_atom_site_fract_y
_atom_site_fract_z
Si Si1 0.428655 0.323217 0.347448
Si Si2 0.715255 0.322592 0.127337
Si Si3 0.711645 0.060428 0.543203
Si Si4 0.652459 0.597861 0.989567
Si Si5 0.071411 0.413790 0.714002
O O1 0.500000 0.351689 0.343084
O O2 0.427938 0.250000 0.323151
O O3 0.380787 0.360688 0.298331
O O4 0.405678 0.329333 0.428795
O O5 0.697149 0.250000 0.144675
O O6 0.707699 0.363901 0.198543
O O7 0.669308 0.346973 0.065793
O O8 0.787475 0.330233 0.101104
O O9 0.702987 0.047014 0.625000
O O10 0.785911 0.067106 0.525615
O O11 0.673978 0.125309 0.523719
O O12 0.683673 0.000000 0.500000
O O13 0.000000 0.421875 0.747110
#
# Coordination Sequence:
#
# PCOD8320667 Si02
#       5
#    32  32  32  32  32
#     4  10  20  34  54  80 111 149 191 235 283 342
#     4   9  18  32  51  78 110 149 184 224 273 334
#     4  11  24  38  60  85 117 151 193 242 295 349
#     4  10  20  31  53  78 116 147 187 228 280 339
#     4   9  20  39  59  80 110 145 190 240 291 344
#
# _framework density 19.182278
#
# number of rings (size 3 to 8) (size 9 to 14) (size 15 to 20)
#    0.000    2.200    0.000    2.400    8.400    0.800 
#    0.000    4.000    0.000    7.200    0.000    0.000 
#    0.000    0.000    0.000    0.000    0.000    0.000 
#
# Total GULP energy -991957.733143 kJ/mol
# GULP energy per Si atom -12399.471664 kJ/mol
# Density = 1.913862 g / cm^3
# Si number density = 19.182278 Si / 1000 Ang^3
#
#
#
# Elastic Constant Matrix: (Units=GPa)
#
#
# Indices 1 2 3 4 5 6 
#
# 1 65.0875 17.7324 41.4479 0.0000 0.0000 0.0000
# 2 17.7324 65.0895 41.4489 0.0000 0.0000 0.0000
# 3 41.4479 41.4489 112.8932 0.0000 0.0000 0.0000
# 4 0.0000 0.0000 0.0000 25.4271 0.0000 0.0000
# 5 0.0000 0.0000 0.0000 0.0000 25.4267 0.0000
# 6 0.0000 0.0000 0.0000 0.0000 0.0000 16.8533
#
#
#
# Elastic Compliance Matrix: (Units=1/GPa)
#
#
# Indices 1 2 3 4 5 6 
#
# 1 0.020103 -0.001014 -0.007009 0.000000 0.000000 0.000000
# 2 -0.001014 0.020103 -0.007009 0.000000 0.000000 0.000000
# 3 -0.007009 -0.007009 0.014004 0.000000 0.000000 0.000000
# 4 0.000000 0.000000 0.000000 0.039328 0.000000 0.000000
# 5 0.000000 0.000000 0.000000 0.000000 0.039329 0.000000
# 6 0.000000 0.000000 0.000000 0.000000 0.000000 0.059336
#
#
# Mechanical properties :
#
#
# Convention : Reuss Voigt Hill
#
# Bulk Modulus (GPa) = 41.41045 49.36986 45.39016
# Shear Modulus (GPa) = 21.70952 23.03747 22.37350
#
# Velocity S-wave (km/s) = 3.36780 3.46927 3.41891
# Velocity P-wave (km/s) = 6.06279 6.46845 6.26891
#
# Compressibility (1/GPa) = 0.02414849
#
# Stress axis : x y z
#
# Youngs Moduli (GPa) = 49.74337 49.74467 71.40676
#
# Poissons Ratio (x) = 0.05043 0.50046
# Poissons Ratio (y) = 0.05042 0.50046
# Poissons Ratio (z) = 0.34863 0.34864
#
# Static dielectric constant tensor:
#      x y z
#    x 3.676840 0.000000 0.000000 
#    y 0.000000 3.676840 0.000000 
#    z 0.000000 0.000000 3.270860 
# 
# 
# High freq. dielectric constant tensor:
#      x y z
#    x 1.747860 0.000000 0.000000 
#    y 0.000000 1.747860 0.000000 
#    z 0.000000 0.000000 1.729480 
# 
# From -- ./inp_files/6603.got.cif
#   From: 2010.03.12/outbox.cif.g09.slc.cpg/sg141_4_cif.got.tgz:6603.got - 2010.04.03 13:18:35.
