data_PCOD8320135
_publ_section_title
;
Structure prediction by ZEFSAII (Michael W. Deem and Ramdas Pophale) SiO2 
 PCOD8320135
Probable space group: I 4/M C M
;
_chemical_formula_sum "Si O2"
_cell_formula_units_Z 160
_cell_length_a 23.653602
_cell_length_b 23.653602
_cell_length_c 15.289206
_cell_angle_alpha 90.000000
_cell_angle_beta 90.000000
_cell_angle_gamma 90.000000
_cell_volume 8554.202014
_symmetry_space_group_name_H-M "I 4/M C M"
_symmetry_group_IT_number 140
_symmetry_cell_setting 'tetragonal'
loop_
_space_group_symop_operation_xyz
x,y,z
-y,x,z
-x,-y,z
y,-x,z
x,-y,1/2-z
-x,y,1/2-z
y,x,1/2-z
-y,-x,1/2-z
-x,-y,-z
y,-x,-z
x,y,-z
-y,x,-z
-x,y,1/2+z
x,-y,1/2+z
-y,-x,1/2+z
y,x,1/2+z
1/2+x,1/2+y,1/2+z
1/2-y,1/2+x,1/2+z
1/2-x,1/2-y,1/2+z
1/2+y,1/2-x,1/2+z
1/2+x,1/2-y,-z
1/2-x,1/2+y,-z
1/2+y,1/2+x,-z
1/2-y,1/2-x,-z
1/2-x,1/2-y,1/2-z
1/2+y,1/2-x,1/2-z
1/2+x,1/2+y,1/2-z
1/2-y,1/2+x,1/2-z
1/2-x,1/2+y,z
1/2+x,1/2-y,z
1/2-y,1/2-x,z
1/2+y,1/2+x,z
loop_
_atom_site_type_symbol
_atom_site_label
_atom_site_fract_x
_atom_site_fract_y
_atom_site_fract_z
Si Si1 0.059710 0.739001 0.402545
Si Si2 0.864728 0.925754 0.903815
Si Si3 0.432705 0.842454 0.247091
Si Si4 0.856266 0.960398 0.664244
Si Si5 0.762927 0.573667 0.597053
O O1 0.086901 0.736216 0.500000
O O2 0.084994 0.689428 0.342174
O O3 0.072764 0.798097 0.354267
O O4 0.993129 0.732665 0.409436
O O5 0.910843 0.903183 0.834141
O O6 0.800924 0.908811 0.874366
O O7 0.869644 0.993981 0.911397
O O8 0.877410 0.900618 0.000000
O O9 0.500000 0.850763 0.250000
O O10 0.403881 0.903881 0.247317
O O11 0.407117 0.807340 0.329355
O O12 0.853334 0.000000 0.750000
O O13 0.777087 0.598891 0.500000
#
# Coordination Sequence:
#
# PCOD8320135 Si02
#       5
#    32  32  32  32  32
#     4   9  17  32  52  72  98 137 181 214 245 296
#     4  10  19  32  49  71 100 135 175 217 264 312
#     4  10  20  34  54  80 106 131 163 205 255 314
#     4  11  20  31  49  74 102 134 174 222 269 310
#     4   8  16  32  53  74  98 134 179 218 250 298
#
# _framework density 18.704257999999999
#
# number of rings (size 3 to 8) (size 9 to 14) (size 15 to 20)
#    0.000    2.400    0.000    6.600    0.000    1.400 
#    0.000    2.000    0.000    2.400    0.000    8.400 
#    0.000    0.000    0.000    0.000    0.000    0.000 
#
# Total GULP energy -991118.365912 kJ/mol
# GULP energy per Si atom -12388.979574 kJ/mol
# Density = 1.866169 g / cm^3
# Si number density = 18.704258 Si / 1000 Ang^3
#
#
#
# Elastic Constant Matrix: (Units=GPa)
#
#
# Indices 1 2 3 4 5 6 
#
# 1 76.9087 47.9847 41.7671 0.0000 0.0000 0.0000
# 2 47.9847 76.9087 41.7671 0.0000 0.0000 0.0000
# 3 41.7671 41.7671 133.6921 0.0000 0.0000 0.0000
# 4 0.0000 0.0000 0.0000 17.5857 0.0000 0.0000
# 5 0.0000 0.0000 0.0000 0.0000 17.5857 0.0000
# 6 0.0000 0.0000 0.0000 0.0000 0.0000 10.7973
#
#
#
# Elastic Compliance Matrix: (Units=1/GPa)
#
#
# Indices 1 2 3 4 5 6 
#
# 1 0.022348 -0.012226 -0.003162 0.000000 0.000000 0.000000
# 2 -0.012226 0.022348 -0.003162 0.000000 0.000000 0.000000
# 3 -0.003162 -0.003162 0.009456 0.000000 0.000000 0.000000
# 4 0.000000 0.000000 0.000000 0.056864 0.000000 0.000000
# 5 0.000000 0.000000 0.000000 0.000000 0.056864 0.000000
# 6 0.000000 0.000000 0.000000 0.000000 0.000000 0.092615
#
#
# Mechanical properties :
#
#
# Convention : Reuss Voigt Hill
#
# Bulk Modulus (GPa) = 58.64896 61.17194 59.91045
# Shear Modulus (GPa) = 16.48647 19.59311 18.03979
#
# Velocity S-wave (km/s) = 2.97211 3.24005 3.10897
# Velocity P-wave (km/s) = 6.57282 6.83909 6.70727
#
# Compressibility (1/GPa) = 0.01705060
#
# Stress axis : x y z
#
# Youngs Moduli (GPa) = 44.74753 44.74753 105.75637
#
# Poissons Ratio (x) = 0.54707 0.33442
# Poissons Ratio (y) = 0.54707 0.33442
# Poissons Ratio (z) = 0.14150 0.14150
#
# Static dielectric constant tensor:
#      x y z
#    x 3.141280 0.000000 0.000000 
#    y 0.000000 3.141280 0.000000 
#    z 0.000000 0.000000 4.057500 
# 
# 
# High freq. dielectric constant tensor:
#      x y z
#    x 1.689420 0.000000 0.000000 
#    y 0.000000 1.689420 0.000000 
#    z 0.000000 0.000000 1.751420 
# 
# From -- ./inp_files/4732.got.cif
#   From: 2010.06.25/outbox.cif.g09.slc.cpg/sg140_3_cif.got.tgz:4732.got - 2010.06.28 10:53:23.
