data_PCOD8320222
_publ_section_title
;
Structure prediction by ZEFSAII (Michael W. Deem and Ramdas Pophale) SiO2 
 PCOD8320222
Probable space group: I 4/M C M
;
_chemical_formula_sum "Si O2"
_cell_formula_units_Z 192
_cell_length_a 26.458254
_cell_length_b 26.458254
_cell_length_c 17.030507
_cell_angle_alpha 90.000000
_cell_angle_beta 90.000000
_cell_angle_gamma 90.000000
_cell_volume 11922.022576
_symmetry_space_group_name_H-M "I 4/M C M"
_symmetry_group_IT_number 140
_symmetry_cell_setting 'tetragonal'
loop_
_space_group_symop_operation_xyz
x,y,z
-y,x,z
-x,-y,z
y,-x,z
x,-y,1/2-z
-x,y,1/2-z
y,x,1/2-z
-y,-x,1/2-z
-x,-y,-z
y,-x,-z
x,y,-z
-y,x,-z
-x,y,1/2+z
x,-y,1/2+z
-y,-x,1/2+z
y,x,1/2+z
1/2+x,1/2+y,1/2+z
1/2-y,1/2+x,1/2+z
1/2-x,1/2-y,1/2+z
1/2+y,1/2-x,1/2+z
1/2+x,1/2-y,-z
1/2-x,1/2+y,-z
1/2+y,1/2+x,-z
1/2-y,1/2-x,-z
1/2-x,1/2-y,1/2-z
1/2+y,1/2-x,1/2-z
1/2+x,1/2+y,1/2-z
1/2-y,1/2+x,1/2-z
1/2-x,1/2+y,z
1/2+x,1/2-y,z
1/2-y,1/2-x,z
1/2+y,1/2+x,z
loop_
_atom_site_type_symbol
_atom_site_label
_atom_site_fract_x
_atom_site_fract_y
_atom_site_fract_z
Si Si1 0.785233 0.201875 0.085979
Si Si2 0.120209 0.702261 0.408334
Si Si3 0.963829 0.852482 0.090610
Si Si4 0.754539 0.048815 0.802353
Si Si5 0.693135 0.626566 0.698981
Si Si6 0.574079 0.376097 0.589070
O O1 0.748244 0.248244 0.081376
O O2 0.754072 0.151327 0.107209
O O3 0.825742 0.215711 0.152150
O O4 0.810751 0.194155 0.000000
O O5 0.106838 0.696815 0.500000
O O6 0.153443 0.653443 0.381622
O O7 0.067868 0.708244 0.358627
O O8 0.964772 0.803573 0.145926
O O9 0.921727 0.891506 0.120523
O O10 0.014610 0.885731 0.099056
O O11 0.955936 0.835105 0.000000
O O12 0.764337 0.097742 0.748011
O O13 0.738555 0.000000 0.750000
O O14 0.646109 0.646109 0.750000
O O15 0.673987 0.585732 0.637106
O O16 0.588636 0.365387 0.500000
#
# Coordination Sequence:
#
# PCOD8320222 Si02
#       6
#    32  32  32  32  32  32
#     4   9  18  32  49  70  95 123 158 197 238 292
#     4   9  18  34  54  73  97 131 166 199 236 284
#     4  10  20  33  47  62  86 120 163 209 254 299
#     4  12  22  32  47  71 100 125 157 200 247 292
#     4  12  20  29  47  66  92 124 157 201 244 294
#     4  10  20  33  46  60  81 118 163 209 256 298
#
# _framework density 16.104649999999999
#
# number of rings (size 3 to 8) (size 9 to 14) (size 15 to 20)
#    0.000    1.667    5.000    2.000    0.000    4.000 
#    0.000    1.667    0.000    0.000    0.000    0.000 
#    0.000    0.333    0.000    1.833    0.000    0.000 
#
# Total GULP energy -1189729.325647 kJ/mol
# GULP energy per Si atom -12393.013809 kJ/mol
# Density = 1.606799 g / cm^3
# Si number density = 16.104650 Si / 1000 Ang^3
#
#
#
# Elastic Constant Matrix: (Units=GPa)
#
#
# Indices 1 2 3 4 5 6 
#
# 1 58.0699 27.1143 37.1049 0.0000 0.0000 0.0000
# 2 27.1143 58.0699 37.1049 0.0000 0.0000 0.0000
# 3 37.1049 37.1049 73.7075 0.0000 0.0000 0.0000
# 4 0.0000 0.0000 0.0000 27.2138 0.0000 0.0000
# 5 0.0000 0.0000 0.0000 0.0000 27.2138 0.0000
# 6 0.0000 0.0000 0.0000 0.0000 0.0000 19.3332
#
#
#
# Elastic Compliance Matrix: (Units=1/GPa)
#
#
# Indices 1 2 3 4 5 6 
#
# 1 0.026607 -0.005698 -0.010526 0.000000 0.000000 0.000000
# 2 -0.005698 0.026607 -0.010526 0.000000 0.000000 0.000000
# 3 -0.010526 -0.010526 0.024165 0.000000 0.000000 0.000000
# 4 0.000000 0.000000 0.000000 0.036746 0.000000 0.000000
# 5 0.000000 0.000000 0.000000 0.000000 0.036746 0.000000
# 6 0.000000 0.000000 0.000000 0.000000 0.000000 0.051724
#
#
# Mechanical properties :
#
#
# Convention : Reuss Voigt Hill
#
# Bulk Modulus (GPa) = 41.87673 43.61059 42.74366
# Shear Modulus (GPa) = 18.93564 20.65371 19.79468
#
# Velocity S-wave (km/s) = 3.43270 3.58504 3.50970
# Velocity P-wave (km/s) = 6.46301 6.65395 6.55917
#
# Compressibility (1/GPa) = 0.02387961
#
# Stress axis : x y z
#
# Youngs Moduli (GPa) = 37.58470 37.58470 41.38296
#
# Poissons Ratio (x) = 0.21415 0.43558
# Poissons Ratio (y) = 0.21415 0.43558
# Poissons Ratio (z) = 0.39560 0.39560
#
# Static dielectric constant tensor:
#      x y z
#    x 2.884290 0.000000 0.000000 
#    y 0.000000 2.884290 0.000000 
#    z 0.000000 0.000000 3.402340 
# 
# 
# High freq. dielectric constant tensor:
#      x y z
#    x 1.588590 0.000000 0.000000 
#    y 0.000000 1.588590 0.000000 
#    z 0.000000 0.000000 1.638960 
# 
# From -- ./inp_files/5293.got.cif
#   From: 2010.06.25/outbox.cif.g09.slc.cpg/sg140_3_cif.got.tgz:5293.got - 2010.06.28 10:53:23.
