data_PCOD8320235
_publ_section_title
;
Structure prediction by ZEFSAII (Michael W. Deem and Ramdas Pophale) SiO2 
 PCOD8320235
Probable space group: I 4/M C M
;
_chemical_formula_sum "Si O2"
_cell_formula_units_Z 160
_cell_length_a 20.821558
_cell_length_b 20.821558
_cell_length_c 19.476053
_cell_angle_alpha 90.000000
_cell_angle_beta 90.000000
_cell_angle_gamma 90.000000
_cell_volume 8443.594995
_symmetry_space_group_name_H-M "I 4/M C M"
_symmetry_group_IT_number 140
_symmetry_cell_setting 'tetragonal'
loop_
_space_group_symop_operation_xyz
x,y,z
-y,x,z
-x,-y,z
y,-x,z
x,-y,1/2-z
-x,y,1/2-z
y,x,1/2-z
-y,-x,1/2-z
-x,-y,-z
y,-x,-z
x,y,-z
-y,x,-z
-x,y,1/2+z
x,-y,1/2+z
-y,-x,1/2+z
y,x,1/2+z
1/2+x,1/2+y,1/2+z
1/2-y,1/2+x,1/2+z
1/2-x,1/2-y,1/2+z
1/2+y,1/2-x,1/2+z
1/2+x,1/2-y,-z
1/2-x,1/2+y,-z
1/2+y,1/2+x,-z
1/2-y,1/2-x,-z
1/2-x,1/2-y,1/2-z
1/2+y,1/2-x,1/2-z
1/2+x,1/2+y,1/2-z
1/2-y,1/2+x,1/2-z
1/2-x,1/2+y,z
1/2+x,1/2-y,z
1/2-y,1/2-x,z
1/2+y,1/2+x,z
loop_
_atom_site_type_symbol
_atom_site_label
_atom_site_fract_x
_atom_site_fract_y
_atom_site_fract_z
Si Si1 0.356874 0.036152 0.177565
Si Si2 0.923740 0.682748 0.076730
Si Si3 0.565086 0.577171 0.668983
Si Si4 0.362515 0.301566 0.653172
Si Si5 0.641235 0.242202 0.705959
O O1 0.421700 0.078301 0.163924
O O2 0.294161 0.081286 0.172695
O O3 0.363695 0.000000 0.250000
O O4 0.342924 0.983901 0.119778
O O5 0.874791 0.625210 0.076254
O O6 0.885283 0.744593 0.104399
O O7 0.947858 0.698721 0.000000
O O8 0.492255 0.588916 0.644715
O O9 0.576894 0.576894 0.750000
O O10 0.603529 0.632813 0.630553
O O11 0.286195 0.318898 0.651542
O O12 0.384225 0.284585 0.730894
O O13 0.689581 0.189581 0.737640
#
# Coordination Sequence:
#
# PCOD8320235 Si02
#       5
#    32  32  32  32  32
#     4  11  23  39  63  94 125 158 205 265 316 369
#     4  11  25  43  61  85 122 165 208 255 313 382
#     4   9  18  29  46  82 121 147 179 229 287 347
#     4  11  19  33  61  84 118 156 195 240 299 364
#     4  10  20  33  55  90 120 144 188 250 305 353
#
# _framework density 18.949275
#
# number of rings (size 3 to 8) (size 9 to 14) (size 15 to 20)
#    0.000    1.600    4.000    3.600    2.800    1.800 
#    0.000    2.000    0.000    1.200    0.000    1.400 
#    0.000    0.000    0.000    0.000    0.000    0.000 
#
# Total GULP energy -991256.668648 kJ/mol
# GULP energy per Si atom -12390.708358 kJ/mol
# Density = 1.890615 g / cm^3
# Si number density = 18.949275 Si / 1000 Ang^3
#
#
#
# Elastic Constant Matrix: (Units=GPa)
#
#
# Indices 1 2 3 4 5 6 
#
# 1 126.3466 36.1016 47.3327 0.0000 0.0000 0.0000
# 2 36.1016 126.3466 47.3327 0.0000 0.0000 0.0000
# 3 47.3327 47.3327 98.1196 0.0000 0.0000 0.0000
# 4 0.0000 0.0000 0.0000 12.0814 0.0000 0.0000
# 5 0.0000 0.0000 0.0000 0.0000 12.0814 0.0000
# 6 0.0000 0.0000 0.0000 0.0000 0.0000 41.0387
#
#
#
# Elastic Compliance Matrix: (Units=1/GPa)
#
#
# Indices 1 2 3 4 5 6 
#
# 1 0.009822 -0.001259 -0.004131 0.000000 0.000000 0.000000
# 2 -0.001259 0.009822 -0.004131 0.000000 0.000000 0.000000
# 3 -0.004131 -0.004131 0.014177 0.000000 0.000000 0.000000
# 4 0.000000 0.000000 0.000000 0.082772 0.000000 0.000000
# 5 0.000000 0.000000 0.000000 0.000000 0.082772 0.000000
# 6 0.000000 0.000000 0.000000 0.000000 0.000000 0.024367
#
#
# Mechanical properties :
#
#
# Convention : Reuss Voigt Hill
#
# Bulk Modulus (GPa) = 67.65952 68.03855 67.84903
# Shear Modulus (GPa) = 20.18575 27.71002 23.94788
#
# Velocity S-wave (km/s) = 3.26736 3.82819 3.55884
# Velocity P-wave (km/s) = 7.07229 7.45141 7.26433
#
# Compressibility (1/GPa) = 0.01477989
#
# Stress axis : x y z
#
# Youngs Moduli (GPa) = 101.81267 101.81267 70.53680
#
# Poissons Ratio (x) = 0.12818 0.29137
# Poissons Ratio (y) = 0.12818 0.29137
# Poissons Ratio (z) = 0.42056 0.42056
#
# Static dielectric constant tensor:
#      x y z
#    x 3.766530 0.000000 0.000000 
#    y 0.000000 3.766530 0.000000 
#    z 0.000000 0.000000 3.270800 
# 
# 
# High freq. dielectric constant tensor:
#      x y z
#    x 1.755780 0.000000 0.000000 
#    y 0.000000 1.755780 0.000000 
#    z 0.000000 0.000000 1.675870 
# 
# From -- ./inp_files/6858.got.cif
#   From: 2010.06.25/outbox.cif.g09.slc.cpg/sg140_4_cif.got.tgz:6858.got - 2010.06.28 10:53:23.
