data_PCOD8320077
_publ_section_title
;
Structure prediction by ZEFSAII (Michael W. Deem and Ramdas Pophale) SiO2 
 PCOD8320077
Probable space group: I 4/M C M
;
_chemical_formula_sum "Si O2"
_cell_formula_units_Z 96
_cell_length_a 25.246502
_cell_length_b 25.246502
_cell_length_c 8.563296
_cell_angle_alpha 90.000000
_cell_angle_beta 90.000000
_cell_angle_gamma 90.000000
_cell_volume 5458.123813
_symmetry_space_group_name_H-M "I 4/M C M"
_symmetry_group_IT_number 140
_symmetry_cell_setting 'tetragonal'
loop_
_space_group_symop_operation_xyz
x,y,z
-y,x,z
-x,-y,z
y,-x,z
x,-y,1/2-z
-x,y,1/2-z
y,x,1/2-z
-y,-x,1/2-z
-x,-y,-z
y,-x,-z
x,y,-z
-y,x,-z
-x,y,1/2+z
x,-y,1/2+z
-y,-x,1/2+z
y,x,1/2+z
1/2+x,1/2+y,1/2+z
1/2-y,1/2+x,1/2+z
1/2-x,1/2-y,1/2+z
1/2+y,1/2-x,1/2+z
1/2+x,1/2-y,-z
1/2-x,1/2+y,-z
1/2+y,1/2+x,-z
1/2-y,1/2-x,-z
1/2-x,1/2-y,1/2-z
1/2+y,1/2-x,1/2-z
1/2+x,1/2+y,1/2-z
1/2-y,1/2+x,1/2-z
1/2-x,1/2+y,z
1/2+x,1/2-y,z
1/2-y,1/2-x,z
1/2+y,1/2+x,z
loop_
_atom_site_type_symbol
_atom_site_label
_atom_site_fract_x
_atom_site_fract_y
_atom_site_fract_z
Si Si1 0.942115 0.644126 0.816957
Si Si2 0.558887 0.748671 0.184641
Si Si3 0.559001 0.640738 0.315300
O O1 0.905728 0.594273 0.776003
O O2 0.914466 0.696226 0.739392
O O3 0.000000 0.631708 0.750000
O O4 0.946898 0.654338 0.000000
O O5 0.500000 0.752199 0.250000
O O6 0.585677 0.696194 0.258581
O O7 0.559771 0.743163 0.000000
O O8 0.500000 0.635570 0.250000
O O9 0.592279 0.592279 0.250000
O O10 0.557647 0.638667 0.500000
#
# Coordination Sequence:
#
# PCOD8320077 Si02
#       3
#    32  32  32
#     4  10  20  33  50  73 101 133 168 207 251 298
#     4  10  18  31  51  73  97 129 168 207 246 291
#     4  11  21  35  53  76 104 134 168 205 248 295
#
# _framework density 17.588463000000001
#
# number of rings (size 3 to 8) (size 9 to 14) (size 15 to 20)
#    0.000    1.667    0.000   11.000    0.000    3.333 
#    0.000    3.333    0.000    1.000    0.000    0.000 
#    0.000    0.000    0.000    0.000    0.000    0.000 
#
# Total GULP energy -595039.202831 kJ/mol
# GULP energy per Si atom -12396.650059 kJ/mol
# Density = 1.754843 g / cm^3
# Si number density = 17.588463 Si / 1000 Ang^3
#
#
#
# Elastic Constant Matrix: (Units=GPa)
#
#
# Indices 1 2 3 4 5 6 
#
# 1 100.5389 57.8311 56.8238 0.0000 0.0000 0.0000
# 2 57.8311 100.5389 56.8238 0.0000 0.0000 0.0000
# 3 56.8238 56.8238 177.9006 0.0000 0.0000 0.0000
# 4 0.0000 0.0000 0.0000 29.4414 0.0000 0.0000
# 5 0.0000 0.0000 0.0000 0.0000 29.4414 0.0000
# 6 0.0000 0.0000 0.0000 0.0000 0.0000 1.2411
#
#
#
# Elastic Compliance Matrix: (Units=1/GPa)
#
#
# Indices 1 2 3 4 5 6 
#
# 1 0.015803 -0.007611 -0.002617 0.000000 0.000000 0.000000
# 2 -0.007611 0.015803 -0.002617 0.000000 0.000000 0.000000
# 3 -0.002617 -0.002617 0.007293 0.000000 0.000000 0.000000
# 4 0.000000 0.000000 0.000000 0.033966 0.000000 0.000000
# 5 0.000000 0.000000 0.000000 0.000000 0.033966 0.000000
# 6 0.000000 0.000000 0.000000 0.000000 0.000000 0.805725
#
#
# Mechanical properties :
#
#
# Convention : Reuss Voigt Hill
#
# Bulk Modulus (GPa) = 75.69903 80.21510 77.95707
# Shear Modulus (GPa) = 5.30420 25.85808 15.58114
#
# Velocity S-wave (km/s) = 1.73847 3.83844 2.97959
# Velocity P-wave (km/s) = 6.86747 8.08397 7.50042
#
# Compressibility (1/GPa) = 0.01321021
#
# Stress axis : x y z
#
# Youngs Moduli (GPa) = 63.27716 63.27716 137.12334
#
# Poissons Ratio (x) = 0.48163 0.35880
# Poissons Ratio (y) = 0.48163 0.35880
# Poissons Ratio (z) = 0.16557 0.16557
#
# Static dielectric constant tensor:
#      x y z
#    x 3.588230 0.000000 0.000000 
#    y 0.000000 3.588230 0.000000 
#    z 0.000000 0.000000 3.480130 
# 
# 
# High freq. dielectric constant tensor:
#      x y z
#    x 1.665550 0.000000 0.000000 
#    y 0.000000 1.665550 0.000000 
#    z 0.000000 0.000000 1.707470 
# 
# From -- ./inp_files/914.got.cif
#   From: 2010.06.25/outbox.cif.g09.slc.cpg/sg140_1_cif.got.tgz:914.got - 2010.06.28 10:53:23.
