data_PCOD8320996
_publ_section_title
;
Structure prediction by ZEFSAII (Michael W. Deem and Ramdas Pophale) SiO2 
 PCOD8320996
Probable space group: I 41/A C D
;
_chemical_formula_sum "Si O2"
_cell_formula_units_Z 144
_cell_length_a 21.247823
_cell_length_b 21.247823
_cell_length_c 17.215837
_cell_angle_alpha 90.000000
_cell_angle_beta 90.000000
_cell_angle_gamma 90.000000
_cell_volume 7772.433625
_symmetry_space_group_name_H-M "I 41/A C D"
_symmetry_group_IT_number 142
_space_group.IT_coordinate_system_code '2'
_symmetry_cell_setting 'tetragonal'
loop_
_space_group_symop_operation_xyz
x,y,z
1/4-y,3/4+x,1/4+z
-x,1/2-y,z
1/4+y,1/4-x,3/4+z
x,-y,1/2-z
1/2-x,y,-z
3/4+y,1/4+x,1/4-z
1/4-y,1/4-x,1/4-z
-x,-y,-z
3/4+y,1/4-x,3/4-z
x,1/2+y,-z
3/4-y,3/4+x,1/4-z
-x,y,1/2+z
1/2+x,-y,z
1/4-y,3/4-x,3/4+z
3/4+y,3/4+x,3/4+z
1/2+x,1/2+y,1/2+z
3/4-y,1/4+x,3/4+z
1/2-x,-y,1/2+z
3/4+y,3/4-x,1/4+z
1/2+x,1/2-y,-z
-x,1/2+y,1/2-z
1/4+y,3/4+x,3/4-z
3/4-y,3/4-x,3/4-z
1/2-x,1/2-y,1/2-z
1/4+y,3/4-x,1/4-z
1/2+x,y,1/2-z
1/4-y,1/4+x,3/4-z
1/2-x,1/2+y,z
x,1/2-y,1/2+z
3/4-y,1/4-x,1/4+z
1/4+y,1/4+x,1/4+z
loop_
_atom_site_type_symbol
_atom_site_label
_atom_site_fract_x
_atom_site_fract_y
_atom_site_fract_z
Si Si1 0.259476 0.103025 0.742321
Si Si2 0.385477 0.828934 0.711672
Si Si3 0.683459 0.717890 0.265000
Si Si4 0.027879 0.156734 0.351566
Si Si5 0.748466 0.498466 0.875000
O O1 0.324299 0.140858 0.749047
O O2 0.196102 0.145545 0.742254
O O3 0.258177 0.055720 0.813070
O O4 0.259046 0.067290 0.661085
O O5 0.397652 0.852348 0.625000
O O6 0.371093 0.753364 0.714239
O O7 0.445750 0.847745 0.763786
O O8 0.750000 0.750000 0.250000
O O9 0.661083 0.719640 0.355478
O O10 0.069612 0.205876 0.402117
#
# Coordination Sequence:
#
# PCOD8320996 Si02
#       5
#    32  32  32  32  16
#     4  10  19  35  52  79 109 145 183 234 276 336
#     4  10  19  35  58  84 108 141 195 236 283 335
#     4   9  19  35  55  77 114 146 181 236 286 330
#     4   9  18  35  55  78 109 149 183 228 285 338
#     4  10  20  32  56  78 105 149 192 218 284 344
#
# _framework density 18.527016
#
# number of rings (size 3 to 8) (size 9 to 14) (size 15 to 20)
#    0.000    2.444    1.111    1.333    0.000    0.000 
#    4.000    7.778    0.000    0.000    0.000    0.000 
#    0.000    0.000    0.000    0.000    0.000    0.000 
#
# Total GULP energy -892186.315756 kJ/mol
# GULP energy per Si atom -12391.476608 kJ/mol
# Density = 1.848485 g / cm^3
# Si number density = 18.527016 Si / 1000 Ang^3
#
#
#
# Elastic Constant Matrix: (Units=GPa)
#
#
# Indices 1 2 3 4 5 6 
#
# 1 75.8916 19.8963 30.6939 0.0000 0.0000 0.0000
# 2 19.8963 75.8911 30.6935 0.0000 0.0000 0.0000
# 3 30.6939 30.6935 86.0119 0.0000 0.0000 0.0000
# 4 0.0000 0.0000 0.0000 19.1573 0.0000 0.0000
# 5 0.0000 0.0000 0.0000 0.0000 19.1567 0.0000
# 6 0.0000 0.0000 0.0000 0.0000 0.0000 26.8738
#
#
#
# Elastic Compliance Matrix: (Units=1/GPa)
#
#
# Indices 1 2 3 4 5 6 
#
# 1 0.015697 -0.002162 -0.004830 0.000000 0.000000 0.000000
# 2 -0.002162 0.015697 -0.004830 0.000000 0.000000 0.000000
# 3 -0.004830 -0.004830 0.015074 0.000000 0.000000 0.000000
# 4 0.000000 0.000000 0.000000 0.052199 0.000000 0.000000
# 5 0.000000 0.000000 0.000000 0.000000 0.052201 0.000000
# 6 0.000000 0.000000 0.000000 0.000000 0.000000 0.037211
#
#
# Mechanical properties :
#
#
# Convention : Reuss Voigt Hill
#
# Bulk Modulus (GPa) = 43.81424 44.48467 44.14945
# Shear Modulus (GPa) = 22.79662 23.47162 23.13412
#
# Velocity S-wave (km/s) = 3.51159 3.56320 3.53749
# Velocity P-wave (km/s) = 6.33576 6.40245 6.36919
#
# Compressibility (1/GPa) = 0.02282363
#
# Stress axis : x y z
#
# Youngs Moduli (GPa) = 63.70666 63.70643 66.34116
#
# Poissons Ratio (x) = 0.13772 0.32044
# Poissons Ratio (y) = 0.13772 0.32043
# Poissons Ratio (z) = 0.30771 0.30771
#
# Static dielectric constant tensor:
#      x y z
#    x 3.612970 0.000000 0.000000 
#    y 0.000000 3.612870 0.000000 
#    z 0.000000 0.000000 3.238640 
# 
# 
# High freq. dielectric constant tensor:
#      x y z
#    x 1.722990 0.000000 0.000000 
#    y 0.000000 1.722990 0.000000 
#    z 0.000000 0.000000 1.700050 
# 
# From -- ./inp_files/7266.got.cif
#   From: 2010.03.12/outbox.cif.g09.slc.cpg/sg142_4_cif.got.tgz:7266.got - 2010.04.03 13:27:16.
