data_PCOD8320716
_publ_section_title
;
Structure prediction by ZEFSAII (Michael W. Deem and Ramdas Pophale) SiO2 
 PCOD8320716
Probable space group: I 41/A M D
;
_chemical_formula_sum "Si O2"
_cell_formula_units_Z 144
_cell_length_a 27.866428
_cell_length_b 27.866428
_cell_length_c 9.490973
_cell_angle_alpha 90.000000
_cell_angle_beta 90.000000
_cell_angle_gamma 90.000000
_cell_volume 7370.099383
_symmetry_space_group_name_H-M "I 41/A M D"
_symmetry_group_IT_number 141
_space_group.IT_coordinate_system_code '2'
_symmetry_cell_setting 'tetragonal'
loop_
_space_group_symop_operation_xyz
x,y,z
1/4-y,3/4+x,1/4+z
-x,1/2-y,z
1/4+y,1/4-x,3/4+z
x,-y,-z
-x,1/2+y,-z
1/4+y,3/4+x,1/4-z
1/4-y,1/4-x,3/4-z
-x,-y,-z
3/4+y,1/4-x,3/4-z
x,1/2+y,-z
3/4-y,3/4+x,1/4-z
-x,y,z
x,1/2-y,z
3/4-y,1/4-x,3/4+z
3/4+y,3/4+x,1/4+z
1/2+x,1/2+y,1/2+z
3/4-y,1/4+x,3/4+z
1/2-x,-y,1/2+z
3/4+y,3/4-x,1/4+z
1/2+x,1/2-y,1/2-z
1/2-x,y,1/2-z
3/4+y,1/4+x,3/4-z
3/4-y,3/4-x,1/4-z
1/2-x,1/2-y,1/2-z
1/4+y,3/4-x,1/4-z
1/2+x,y,1/2-z
1/4-y,1/4+x,3/4-z
1/2-x,1/2+y,1/2+z
1/2+x,-y,1/2+z
1/4-y,3/4-x,1/4+z
1/4+y,1/4+x,3/4+z
loop_
_atom_site_type_symbol
_atom_site_label
_atom_site_fract_x
_atom_site_fract_y
_atom_site_fract_z
Si Si1 0.195385 0.500000 0.500000
Si Si2 0.445954 0.540165 0.318197
Si Si3 0.184039 0.174385 0.626826
Si Si4 0.125489 0.081098 0.601392
Si Si5 0.126885 0.697160 0.633515
O O1 0.227920 0.477920 0.375000
O O2 0.159774 0.537188 0.428772
O O3 0.500000 0.537280 0.255513
O O4 0.450495 0.563152 0.473062
O O5 0.421761 0.487778 0.315296
O O6 0.412056 0.573616 0.226281
O O7 0.162183 0.122033 0.647613
O O8 0.149834 0.203593 0.521158
O O9 0.093113 0.092635 0.465305
O O10 0.126643 0.750000 0.705465
O O11 0.072022 0.677979 0.625000
#
# Coordination Sequence:
#
# PCOD8320716 Si02
#       5
#    16  32  32  32  32
#     4  12  26  42  59  84 116 156 199 236 278 338
#     4  11  21  35  58  83 108 142 188 230 273 337
#     4  10  21  36  54  79 112 145 181 229 280 330
#     4  11  22  38  56  81 113 147 185 232 283 331
#     4  10  20  36  57  80 110 144 181 229 283 337
#
# _framework density 19.538406999999999
#
# number of rings (size 3 to 8) (size 9 to 14) (size 15 to 20)
#    0.000    1.333    0.000    8.667    0.000    3.778 
#    0.000    3.333    0.000    0.000    0.000    0.000 
#    0.000   19.556    0.000    0.000    0.000    0.000 
#
# Total GULP energy -892533.919944 kJ/mol
# GULP energy per Si atom -12396.304444 kJ/mol
# Density = 1.949394 g / cm^3
# Si number density = 19.538407 Si / 1000 Ang^3
#
#
#
# Elastic Constant Matrix: (Units=GPa)
#
#
# Indices 1 2 3 4 5 6 
#
# 1 127.2855 63.8284 30.8332 0.0000 0.0000 0.0000
# 2 63.8284 127.2818 30.8311 0.0000 0.0000 0.0000
# 3 30.8332 30.8311 69.2494 0.0000 0.0000 0.0000
# 4 0.0000 0.0000 0.0000 19.0702 0.0000 0.0000
# 5 0.0000 0.0000 0.0000 0.0000 19.0716 0.0000
# 6 0.0000 0.0000 0.0000 0.0000 0.0000 45.2668
#
#
#
# Elastic Compliance Matrix: (Units=1/GPa)
#
#
# Indices 1 2 3 4 5 6 
#
# 1 0.010935 -0.004824 -0.002721 0.000000 0.000000 0.000000
# 2 -0.004824 0.010935 -0.002720 0.000000 0.000000 0.000000
# 3 -0.002721 -0.002720 0.016863 0.000000 0.000000 0.000000
# 4 0.000000 0.000000 0.000000 0.052438 0.000000 0.000000
# 5 0.000000 0.000000 0.000000 0.000000 0.052434 0.000000
# 6 0.000000 0.000000 0.000000 0.000000 0.000000 0.022091
#
#
# Mechanical properties :
#
#
# Convention : Reuss Voigt Hill
#
# Bulk Modulus (GPa) = 54.94002 63.86688 59.40345
# Shear Modulus (GPa) = 26.00188 29.90332 27.95260
#
# Velocity S-wave (km/s) = 3.65198 3.91639 3.78650
# Velocity P-wave (km/s) = 6.77958 7.29449 7.04174
#
# Compressibility (1/GPa) = 0.01820167
#
# Stress axis : x y z
#
# Youngs Moduli (GPa) = 91.45244 91.45089 59.30110
#
# Poissons Ratio (x) = 0.44120 0.16134
# Poissons Ratio (y) = 0.44120 0.16132
# Poissons Ratio (z) = 0.24882 0.24878
#
# Static dielectric constant tensor:
#      x y z
#    x 3.731370 0.000000 0.000000 
#    y 0.000000 3.731390 0.000000 
#    z 0.000000 0.000000 3.453660 
# 
# 
# High freq. dielectric constant tensor:
#      x y z
#    x 1.766180 0.000000 0.000000 
#    y 0.000000 1.766180 0.000000 
#    z 0.000000 0.000000 1.760370 
# 
# From -- ./inp_files/3134.got.cif
#   From: 2010.03.12/outbox.cif.g09.slc.cpg/sg141_2_cif.got.tgz:3134.got - 2010.04.03 13:18:35.
