data_PCOD8320518
_publ_section_title
;
Structure prediction by ZEFSAII (Michael W. Deem and Ramdas Pophale) SiO2 
 PCOD8320518
Probable space group: I 4/M C M
;
_chemical_formula_sum "Si O2"
_cell_formula_units_Z 96
_cell_length_a 19.562917
_cell_length_b 19.562917
_cell_length_c 13.146307
_cell_angle_alpha 90.000000
_cell_angle_beta 90.000000
_cell_angle_gamma 90.000000
_cell_volume 5031.193199
_symmetry_space_group_name_H-M "I 4/M C M"
_symmetry_group_IT_number 140
_symmetry_cell_setting 'tetragonal'
loop_
_space_group_symop_operation_xyz
x,y,z
-y,x,z
-x,-y,z
y,-x,z
x,-y,1/2-z
-x,y,1/2-z
y,x,1/2-z
-y,-x,1/2-z
-x,-y,-z
y,-x,-z
x,y,-z
-y,x,-z
-x,y,1/2+z
x,-y,1/2+z
-y,-x,1/2+z
y,x,1/2+z
1/2+x,1/2+y,1/2+z
1/2-y,1/2+x,1/2+z
1/2-x,1/2-y,1/2+z
1/2+y,1/2-x,1/2+z
1/2+x,1/2-y,-z
1/2-x,1/2+y,-z
1/2+y,1/2+x,-z
1/2-y,1/2-x,-z
1/2-x,1/2-y,1/2-z
1/2+y,1/2-x,1/2-z
1/2+x,1/2+y,1/2-z
1/2-y,1/2+x,1/2-z
1/2-x,1/2+y,z
1/2+x,1/2-y,z
1/2-y,1/2-x,z
1/2+y,1/2+x,z
loop_
_atom_site_type_symbol
_atom_site_label
_atom_site_fract_x
_atom_site_fract_y
_atom_site_fract_z
Si Si1 0.057458 0.442543 0.110778
Si Si2 0.000000 0.222556 0.250000
Si Si3 0.394518 0.533093 0.381412
Si Si4 0.049374 0.660270 0.877939
O O1 0.122963 0.478761 0.162631
O O2 0.000000 0.500000 0.100464
O O3 0.081445 0.418556 0.000000
O O4 0.048661 0.175278 0.179053
O O5 0.050566 0.266994 0.321688
O O6 0.415784 0.455422 0.351150
O O7 0.379506 0.539056 0.500000
O O8 0.115597 0.615597 0.846557
O O9 0.047698 0.669329 0.000000
#
# Coordination Sequence:
#
# PCOD8320518 Si02
#       4
#    16  16  32  32
#     4   7  12  28  48  62  88 133 179 219 252 280
#     4  12  20  27  53  84 108 130 172 218 258 306
#     4   9  19  37  59  81 104 128 159 211 276 329
#     4   9  19  33  47  70 107 146 180 215 254 296
#
# _framework density 19.080962
#
# number of rings (size 3 to 8) (size 9 to 14) (size 15 to 20)
#    0.000    2.833    0.000    5.000    2.333    1.333 
#    0.000    0.000    0.000    4.000    0.000    4.667 
#    0.000    0.000    0.000    0.000    0.000    0.000 
#
# Total GULP energy -594667.534087 kJ/mol
# GULP energy per Si atom -12388.906960 kJ/mol
# Density = 1.903753 g / cm^3
# Si number density = 19.080962 Si / 1000 Ang^3
#
#
#
# Elastic Constant Matrix: (Units=GPa)
#
#
# Indices 1 2 3 4 5 6 
#
# 1 96.7913 32.5558 44.9719 0.0000 0.0000 0.0000
# 2 32.5558 96.7913 44.9719 0.0000 0.0000 0.0000
# 3 44.9719 44.9719 57.7649 0.0000 0.0000 0.0000
# 4 0.0000 0.0000 0.0000 37.8640 0.0000 0.0000
# 5 0.0000 0.0000 0.0000 0.0000 37.8640 0.0000
# 6 0.0000 0.0000 0.0000 0.0000 0.0000 12.9494
#
#
#
# Elastic Compliance Matrix: (Units=1/GPa)
#
#
# Indices 1 2 3 4 5 6 
#
# 1 0.016212 0.000645 -0.013124 0.000000 0.000000 0.000000
# 2 0.000645 0.016212 -0.013124 0.000000 0.000000 0.000000
# 3 -0.013124 -0.013124 0.037746 0.000000 0.000000 0.000000
# 4 0.000000 0.000000 0.000000 0.026410 0.000000 0.000000
# 5 0.000000 0.000000 0.000000 0.000000 0.026410 0.000000
# 6 0.000000 0.000000 0.000000 0.000000 0.000000 0.077224
#
#
# Mechanical properties :
#
#
# Convention : Reuss Voigt Hill
#
# Bulk Modulus (GPa) = 52.72835 55.14964 53.93900
# Shear Modulus (GPa) = 19.39921 26.32532 22.86226
#
# Velocity S-wave (km/s) = 3.19200 3.71841 3.46522
# Velocity P-wave (km/s) = 6.42488 6.88485 6.65884
#
# Compressibility (1/GPa) = 0.01896513
#
# Stress axis : x y z
#
# Youngs Moduli (GPa) = 61.68149 61.68142 26.49282
#
# Poissons Ratio (x) = -0.03976 0.34768
# Poissons Ratio (y) = -0.03976 0.34768
# Poissons Ratio (z) = 0.80949 0.80949
#
# Static dielectric constant tensor:
#      x y z
#    x 3.341720 0.000000 0.000000 
#    y 0.000000 3.341720 0.000000 
#    z 0.000000 0.000000 3.757130 
# 
# 
# High freq. dielectric constant tensor:
#      x y z
#    x 1.702670 0.000000 0.000000 
#    y 0.000000 1.702670 0.000000 
#    z 0.000000 0.000000 1.784600 
# 
# From -- ./inp_files/4171.got.cif
#   From: 2010.06.25/outbox.cif.g09.slc.cpg/sg140_3_cif.got.tgz:4171.got - 2010.06.28 10:53:23.
