data_PCOD8320940
_publ_section_title
;
Structure prediction by ZEFSAII (Michael W. Deem and Ramdas Pophale) SiO2 
 PCOD8320940
Probable space group: I 41/A M D
;
_chemical_formula_sum "Si O2"
_cell_formula_units_Z 144
_cell_length_a 18.681741
_cell_length_b 18.681741
_cell_length_c 23.187880
_cell_angle_alpha 90.000000
_cell_angle_beta 90.000000
_cell_angle_gamma 90.000000
_cell_volume 8092.742795
_symmetry_space_group_name_H-M "I 41/A M D"
_symmetry_group_IT_number 141
_space_group.IT_coordinate_system_code '2'
_symmetry_cell_setting 'tetragonal'
loop_
_space_group_symop_operation_xyz
x,y,z
1/4-y,3/4+x,1/4+z
-x,1/2-y,z
1/4+y,1/4-x,3/4+z
x,-y,-z
-x,1/2+y,-z
1/4+y,3/4+x,1/4-z
1/4-y,1/4-x,3/4-z
-x,-y,-z
3/4+y,1/4-x,3/4-z
x,1/2+y,-z
3/4-y,3/4+x,1/4-z
-x,y,z
x,1/2-y,z
3/4-y,1/4-x,3/4+z
3/4+y,3/4+x,1/4+z
1/2+x,1/2+y,1/2+z
3/4-y,1/4+x,3/4+z
1/2-x,-y,1/2+z
3/4+y,3/4-x,1/4+z
1/2+x,1/2-y,1/2-z
1/2-x,y,1/2-z
3/4+y,1/4+x,3/4-z
3/4-y,3/4-x,1/4-z
1/2-x,1/2-y,1/2-z
1/4+y,3/4-x,1/4-z
1/2+x,y,1/2-z
1/4-y,1/4+x,3/4-z
1/2-x,1/2+y,1/2+z
1/2+x,-y,1/2+z
1/4-y,3/4-x,1/4+z
1/4+y,1/4+x,3/4+z
loop_
_atom_site_type_symbol
_atom_site_label
_atom_site_fract_x
_atom_site_fract_y
_atom_site_fract_z
Si Si1 0.416259 0.333742 0.125000
Si Si2 0.670770 0.835014 0.762374
Si Si3 0.080623 0.665691 0.842555
Si Si4 0.831560 0.334452 0.698418
Si Si5 0.170938 0.334979 0.826175
O O1 0.404425 0.250000 0.108880
O O2 0.391524 0.385004 0.072667
O O3 0.671999 0.750000 0.760015
O O4 0.750000 0.865909 0.750000
O O5 0.623015 0.867116 0.711111
O O6 0.084503 0.750000 0.841925
O O7 0.114176 0.639332 0.902913
O O8 0.000000 0.637232 0.836809
O O9 0.832285 0.250000 0.704666
O O10 0.853366 0.362030 0.762233
O O11 0.754413 0.356645 0.673117
O O12 0.158615 0.250000 0.836062
O O13 0.127846 0.377846 0.875000
#
# Coordination Sequence:
#
# PCOD8320940 Si02
#       5
#    16  32  32  32  32
#     4   9  16  28  48  70  92 124 164 194 224 282
#     4   9  17  29  46  69  96 122 150 192 240 277
#     4   9  16  28  49  72  92 120 158 195 233 283
#     4   8  16  31  48  67  94 126 157 191 238 287
#     4   9  17  30  49  70  94 126 158 193 237 282
#
# _framework density 17.793721000000001
#
# number of rings (size 3 to 8) (size 9 to 14) (size 15 to 20)
#    0.000    3.222    0.000    2.000    0.000    3.778 
#    0.000    4.444    7.333    8.000    0.000    0.000 
#    0.000    0.000    0.000    0.000    0.000    0.000 
#
# Total GULP energy -891945.325791 kJ/mol
# GULP energy per Si atom -12388.129525 kJ/mol
# Density = 1.775322 g / cm^3
# Si number density = 17.793721 Si / 1000 Ang^3
#
#
#
# Elastic Constant Matrix: (Units=GPa)
#
#
# Indices 1 2 3 4 5 6 
#
# 1 41.1172 36.3504 59.0557 0.0000 0.0000 0.0000
# 2 36.3504 41.1161 59.0559 0.0000 0.0000 0.0000
# 3 59.0557 59.0559 178.1902 0.0000 0.0000 0.0000
# 4 0.0000 0.0000 0.0000 22.0393 0.0000 0.0000
# 5 0.0000 0.0000 0.0000 0.0000 22.0392 0.0000
# 6 0.0000 0.0000 0.0000 0.0000 0.0000 13.8450
#
#
#
# Elastic Compliance Matrix: (Units=1/GPa)
#
#
# Indices 1 2 3 4 5 6 
#
# 1 0.117948 -0.091857 -0.008647 0.000000 0.000000 0.000000
# 2 -0.091857 0.117955 -0.008650 0.000000 0.000000 0.000000
# 3 -0.008647 -0.008650 0.011344 0.000000 0.000000 0.000000
# 4 0.000000 0.000000 0.000000 0.045373 0.000000 0.000000
# 5 0.000000 0.000000 0.000000 0.000000 0.045374 0.000000
# 6 0.000000 0.000000 0.000000 0.000000 0.000000 0.072228
#
#
# Mechanical properties :
#
#
# Convention : Reuss Voigt Hill
#
# Bulk Modulus (GPa) = 34.55388 63.26083 48.90736
# Shear Modulus (GPa) = 7.83482 18.64880 13.24181
#
# Velocity S-wave (km/s) = 2.10064 3.24088 2.73093
# Velocity P-wave (km/s) = 5.03437 7.04513 6.12286
#
# Compressibility (1/GPa) = 0.02894031
#
# Stress axis : x y z
#
# Youngs Moduli (GPa) = 8.47830 8.47780 88.14954
#
# Poissons Ratio (x) = 0.77875 0.76222
# Poissons Ratio (y) = 0.77879 0.76245
# Poissons Ratio (z) = 0.07331 0.07333
#
# Static dielectric constant tensor:
#      x y z
#    x 3.156800 0.000000 0.000000 
#    y 0.000000 3.156810 0.000000 
#    z 0.000000 0.000000 3.938050 
# 
# 
# High freq. dielectric constant tensor:
#      x y z
#    x 1.658400 0.000000 0.000000 
#    y 0.000000 1.658400 0.000000 
#    z 0.000000 0.000000 1.707280 
# 
# From -- ./inp_files/10333.got.cif
#   From: 2010.03.12/outbox.cif.g09.slc.cpg/sg141_6_cif.got.tgz:10333.got - 2010.04.03 13:18:35.
