data_PCOD8320509
_publ_section_title
;
Structure prediction by ZEFSAII (Michael W. Deem and Ramdas Pophale) SiO2 
 PCOD8320509
Probable space group: I 4/M C M
;
_chemical_formula_sum "Si O2"
_cell_formula_units_Z 176
_cell_length_a 24.409654
_cell_length_b 24.409654
_cell_length_c 15.184321
_cell_angle_alpha 90.000000
_cell_angle_beta 90.000000
_cell_angle_gamma 90.000000
_cell_volume 9047.292330
_symmetry_space_group_name_H-M "I 4/M C M"
_symmetry_group_IT_number 140
_symmetry_cell_setting 'tetragonal'
loop_
_space_group_symop_operation_xyz
x,y,z
-y,x,z
-x,-y,z
y,-x,z
x,-y,1/2-z
-x,y,1/2-z
y,x,1/2-z
-y,-x,1/2-z
-x,-y,-z
y,-x,-z
x,y,-z
-y,x,-z
-x,y,1/2+z
x,-y,1/2+z
-y,-x,1/2+z
y,x,1/2+z
1/2+x,1/2+y,1/2+z
1/2-y,1/2+x,1/2+z
1/2-x,1/2-y,1/2+z
1/2+y,1/2-x,1/2+z
1/2+x,1/2-y,-z
1/2-x,1/2+y,-z
1/2+y,1/2+x,-z
1/2-y,1/2-x,-z
1/2-x,1/2-y,1/2-z
1/2+y,1/2-x,1/2-z
1/2+x,1/2+y,1/2-z
1/2-y,1/2+x,1/2-z
1/2-x,1/2+y,z
1/2+x,1/2-y,z
1/2-y,1/2-x,z
1/2+y,1/2+x,z
loop_
_atom_site_type_symbol
_atom_site_label
_atom_site_fract_x
_atom_site_fract_y
_atom_site_fract_z
Si Si1 0.584052 0.728996 0.599431
Si Si2 0.500001 0.909229 0.000000
Si Si3 0.728996 0.584052 0.599431
Si Si4 0.647757 0.558040 0.750000
Si Si5 0.319440 0.000000 0.647693
Si Si6 0.295561 0.295561 0.350661
O O1 0.567029 0.714749 0.500000
O O2 0.559790 0.683247 0.662246
O O3 0.555974 0.786223 0.626677
O O4 0.650080 0.729399 0.605052
O O5 0.499999 0.873358 0.088472
O O6 0.554322 0.945678 0.000000
O O7 0.445684 0.945684 0.000000
O O8 0.714749 0.567029 0.500000
O O9 0.683247 0.559790 0.662246
O O10 0.786224 0.555974 0.626676
O O11 0.729399 0.650080 0.605052
O O12 0.616541 0.500000 0.750000
O O13 0.606164 0.606164 0.750000
O O14 0.336552 0.000000 0.750000
O O15 0.310162 0.310162 0.250000
O O16 0.250000 0.250001 0.359265
#
# Coordination Sequence:
#
# PCOD8320509 Si02
#       6
#    32  16  32  32  32  32
#     4  12  21  38  66  96 130 171 217 269 330 393
#     4  11  28  52  72  98 138 178 223 282 344 398
#     4  12  21  38  66  96 130 171 217 269 330 393
#     4  12  24  41  64  94 132 172 226 274 328 388
#     4  12  23  43  75 102 130 171 229 279 325 396
#     4  11  23  39  59  92 141 176 206 260 336 411
#
# _framework density 19.453334999999999
#
# number of rings (size 3 to 8) (size 9 to 14) (size 15 to 20)
#    0.000    0.273    9.091    0.545    0.000    3.818 
#    0.000    0.909    0.000    0.000    0.000    2.545 
#    0.000    0.000    0.000    0.000    0.000    0.000 
#
# Total GULP energy -1091110.225330 kJ/mol
# GULP energy per Si atom -12398.979833 kJ/mol
# Density = 1.940906 g / cm^3
# Si number density = 19.453335 Si / 1000 Ang^3
#
#
#
# Elastic Constant Matrix: (Units=GPa)
#
#
# Indices 1 2 3 4 5 6 
#
# 1 131.8352 62.7801 51.2130 0.0000 0.0000 0.0000
# 2 62.7801 131.8361 51.2131 0.0000 0.0000 0.0000
# 3 51.2130 51.2131 193.1084 0.0000 0.0000 0.0000
# 4 0.0000 0.0000 0.0000 11.5175 0.0000 0.0000
# 5 0.0000 0.0000 0.0000 0.0000 11.5180 0.0000
# 6 0.0000 0.0000 0.0000 0.0000 0.0000 20.4198
#
#
#
# Elastic Compliance Matrix: (Units=1/GPa)
#
#
# Indices 1 2 3 4 5 6 
#
# 1 0.010227 -0.004255 -0.001584 0.000000 0.000000 0.000000
# 2 -0.004255 0.010226 -0.001584 0.000000 0.000000 0.000000
# 3 -0.001584 -0.001584 0.006018 0.000000 0.000000 0.000000
# 4 0.000000 0.000000 0.000000 0.086824 0.000000 0.000000
# 5 0.000000 0.000000 0.000000 0.000000 0.086821 0.000000
# 6 0.000000 0.000000 0.000000 0.000000 0.000000 0.048972
#
#
# Mechanical properties :
#
#
# Convention : Reuss Voigt Hill
#
# Bulk Modulus (GPa) = 86.00551 87.46578 86.73565
# Shear Modulus (GPa) = 18.67006 28.12930 23.39968
#
# Velocity S-wave (km/s) = 3.10132 3.80674 3.47199
# Velocity P-wave (km/s) = 7.55853 8.02379 7.79463
#
# Compressibility (1/GPa) = 0.01162716
#
# Stress axis : x y z
#
# Youngs Moduli (GPa) = 97.78502 97.78570 166.15498
#
# Poissons Ratio (x) = 0.41604 0.26315
# Poissons Ratio (y) = 0.41604 0.26315
# Poissons Ratio (z) = 0.15487 0.15487
#
# Static dielectric constant tensor:
#      x y z
#    x 3.726790 0.000000 0.000000 
#    y 0.000000 3.726790 0.000000 
#    z 0.000000 0.000000 3.803080 
# 
# 
# High freq. dielectric constant tensor:
#      x y z
#    x 1.755460 0.000000 0.000000 
#    y 0.000000 1.755460 0.000000 
#    z 0.000000 0.000000 1.780000 
# 
# From -- ./inp_files/4919.got.cif
#   From: 2010.06.25/outbox.cif.g09.slc.cpg/sg140_3_cif.got.tgz:4919.got - 2010.06.28 10:53:23.
