data_PCOD8320941
_publ_section_title
;
Structure prediction by ZEFSAII (Michael W. Deem and Ramdas Pophale) SiO2 
 PCOD8320941
Probable space group: I 41/A M D
;
_chemical_formula_sum "Si O2"
_cell_formula_units_Z 176
_cell_length_a 18.333420
_cell_length_b 18.333420
_cell_length_c 30.211284
_cell_angle_alpha 90.000000
_cell_angle_beta 90.000000
_cell_angle_gamma 90.000000
_cell_volume 10154.444238
_symmetry_space_group_name_H-M "I 41/A M D"
_symmetry_group_IT_number 141
_space_group.IT_coordinate_system_code '2'
_symmetry_cell_setting 'tetragonal'
loop_
_space_group_symop_operation_xyz
x,y,z
1/4-y,3/4+x,1/4+z
-x,1/2-y,z
1/4+y,1/4-x,3/4+z
x,-y,-z
-x,1/2+y,-z
1/4+y,3/4+x,1/4-z
1/4-y,1/4-x,3/4-z
-x,-y,-z
3/4+y,1/4-x,3/4-z
x,1/2+y,-z
3/4-y,3/4+x,1/4-z
-x,y,z
x,1/2-y,z
3/4-y,1/4-x,3/4+z
3/4+y,3/4+x,1/4+z
1/2+x,1/2+y,1/2+z
3/4-y,1/4+x,3/4+z
1/2-x,-y,1/2+z
3/4+y,3/4-x,1/4+z
1/2+x,1/2-y,1/2-z
1/2-x,y,1/2-z
3/4+y,1/4+x,3/4-z
3/4-y,3/4-x,1/4-z
1/2-x,1/2-y,1/2-z
1/4+y,3/4-x,1/4-z
1/2+x,y,1/2-z
1/4-y,1/4+x,3/4-z
1/2-x,1/2+y,1/2+z
1/2+x,-y,1/2+z
1/4-y,3/4-x,1/4+z
1/4+y,1/4+x,3/4+z
loop_
_atom_site_type_symbol
_atom_site_label
_atom_site_fract_x
_atom_site_fract_y
_atom_site_fract_z
Si Si1 0.583472 0.529982 0.451618
Si Si2 0.166523 0.163804 0.291767
Si Si3 0.803607 0.832515 0.383167
Si Si4 0.913572 0.917416 0.444103
Si Si5 0.915502 0.665502 0.625000
Si Si6 0.353756 0.331593 0.580886
O O1 0.592146 0.500000 0.500000
O O2 0.500000 0.545213 0.437879
O O3 0.614161 0.472141 0.415062
O O4 0.625196 0.607110 0.454642
O O5 0.161861 0.250000 0.291436
O O6 0.248266 0.140939 0.303917
O O7 0.137991 0.139495 0.242985
O O8 0.116511 0.129401 0.330320
O O9 0.833337 0.750000 0.378274
O O10 0.868455 0.879625 0.404722
O O11 0.733092 0.834732 0.414295
O O12 0.000000 0.905994 0.435011
O O13 0.897446 0.750000 0.624491
O O14 0.377383 0.250000 0.565943
O O15 0.397198 0.352803 0.625000
#
# Coordination Sequence:
#
# PCOD8320941 Si02
#       6
#    32  32  32  32  16  32
#     4   9  18  34  52  71 101 133 158 195 248 303
#     4   8  16  31  48  68  93 124 162 204 244 288
#     4   9  18  32  49  71  97 122 159 208 245 283
#     4   9  17  32  50  67  95 131 167 202 240 295
#     4   9  16  28  46  68  94 120 154 204 253 288
#     4   9  17  31  51  74  97 121 159 208 245 282
#
# _framework density 17.332312000000002
#
# number of rings (size 3 to 8) (size 9 to 14) (size 15 to 20)
#    0.000    3.182    0.000    2.727    0.000    2.364 
#    8.182    2.727    0.000    7.636    0.000    0.000 
#    0.000    0.000    0.000    0.000    0.000    0.000 
#
# Total GULP energy -1090203.307610 kJ/mol
# GULP energy per Si atom -12388.673950 kJ/mol
# Density = 1.729286 g / cm^3
# Si number density = 17.332312 Si / 1000 Ang^3
#
#
#
# Elastic Constant Matrix: (Units=GPa)
#
#
# Indices 1 2 3 4 5 6 
#
# 1 79.2191 24.0839 40.4171 0.0000 0.0000 0.0000
# 2 24.0839 79.2193 40.4161 0.0000 0.0000 0.0000
# 3 40.4171 40.4161 96.3967 0.0000 0.0000 0.0000
# 4 0.0000 0.0000 0.0000 22.7629 0.0000 0.0000
# 5 0.0000 0.0000 0.0000 0.0000 22.7628 0.0000
# 6 0.0000 0.0000 0.0000 0.0000 0.0000 25.4094
#
#
#
# Elastic Compliance Matrix: (Units=1/GPa)
#
#
# Indices 1 2 3 4 5 6 
#
# 1 0.016272 -0.001865 -0.006041 0.000000 0.000000 0.000000
# 2 -0.001865 0.016272 -0.006040 0.000000 0.000000 0.000000
# 3 -0.006041 -0.006040 0.015439 0.000000 0.000000 0.000000
# 4 0.000000 0.000000 0.000000 0.043931 0.000000 0.000000
# 5 0.000000 0.000000 0.000000 0.000000 0.043931 0.000000
# 6 0.000000 0.000000 0.000000 0.000000 0.000000 0.039356
#
#
# Mechanical properties :
#
#
# Convention : Reuss Voigt Hill
#
# Bulk Modulus (GPa) = 49.77363 51.62993 50.70178
# Shear Modulus (GPa) = 23.83339 24.18156 24.00747
#
# Velocity S-wave (km/s) = 3.71224 3.73925 3.72577
# Velocity P-wave (km/s) = 6.86687 6.96388 6.91554
#
# Compressibility (1/GPa) = 0.02009096
#
# Stress axis : x y z
#
# Youngs Moduli (GPa) = 61.45483 61.45586 64.77127
#
# Poissons Ratio (x) = 0.11463 0.39125
# Poissons Ratio (y) = 0.11463 0.39123
# Poissons Ratio (z) = 0.37122 0.37121
#
# Static dielectric constant tensor:
#      x y z
#    x 3.273400 0.000000 0.000000 
#    y 0.000000 3.273400 0.000000 
#    z 0.000000 0.000000 3.283130 
# 
# 
# High freq. dielectric constant tensor:
#      x y z
#    x 1.653880 0.000000 0.000000 
#    y 0.000000 1.653880 0.000000 
#    z 0.000000 0.000000 1.664350 
# 
# From -- ./inp_files/14384.got.cif
#   From: 2010.03.12/outbox.cif.g09.slc.cpg/sg141_8_cif.got.tgz:14384.got - 2010.04.03 13:18:35.
