data_PCOD8320928
_publ_section_title
;
Structure prediction by ZEFSAII (Michael W. Deem and Ramdas Pophale) SiO2 
 PCOD8320928
Probable space group: I 41/A M D
;
_chemical_formula_sum "Si O2"
_cell_formula_units_Z 192
_cell_length_a 17.205085
_cell_length_b 17.205085
_cell_length_c 32.816024
_cell_angle_alpha 90.000000
_cell_angle_beta 90.000000
_cell_angle_gamma 90.000000
_cell_volume 9714.033699
_symmetry_space_group_name_H-M "I 41/A M D"
_symmetry_group_IT_number 141
_space_group.IT_coordinate_system_code '2'
_symmetry_cell_setting 'tetragonal'
loop_
_space_group_symop_operation_xyz
x,y,z
1/4-y,3/4+x,1/4+z
-x,1/2-y,z
1/4+y,1/4-x,3/4+z
x,-y,-z
-x,1/2+y,-z
1/4+y,3/4+x,1/4-z
1/4-y,1/4-x,3/4-z
-x,-y,-z
3/4+y,1/4-x,3/4-z
x,1/2+y,-z
3/4-y,3/4+x,1/4-z
-x,y,z
x,1/2-y,z
3/4-y,1/4-x,3/4+z
3/4+y,3/4+x,1/4+z
1/2+x,1/2+y,1/2+z
3/4-y,1/4+x,3/4+z
1/2-x,-y,1/2+z
3/4+y,3/4-x,1/4+z
1/2+x,1/2-y,1/2-z
1/2-x,y,1/2-z
3/4+y,1/4+x,3/4-z
3/4-y,3/4-x,1/4-z
1/2-x,1/2-y,1/2-z
1/4+y,3/4-x,1/4-z
1/2+x,y,1/2-z
1/4-y,1/4+x,3/4-z
1/2-x,1/2+y,1/2+z
1/2+x,-y,1/2+z
1/4-y,3/4-x,1/4+z
1/4+y,1/4+x,3/4+z
loop_
_atom_site_type_symbol
_atom_site_label
_atom_site_fract_x
_atom_site_fract_y
_atom_site_fract_z
Si Si1 0.411102 0.660998 0.992364
Si Si2 0.153896 0.098827 0.651007
Si Si3 0.682082 0.099636 0.079252
Si Si4 0.331789 0.750000 0.273649
Si Si5 0.683393 0.078859 0.937777
Si Si6 0.000000 0.838558 0.942676
Si Si7 0.853517 0.417080 0.918294
O O1 0.500000 0.631019 0.990823
O O2 0.408272 0.750000 0.006376
O O3 0.372788 0.654037 0.947761
O O4 0.361984 0.610388 0.023649
O O5 0.137514 0.107231 0.602786
O O6 0.126982 0.173876 0.674646
O O7 0.245056 0.088421 0.655715
O O8 0.115846 0.020414 0.669701
O O9 0.649566 0.100435 0.125000
O O10 0.682414 0.014013 0.059770
O O11 0.250000 0.750000 0.250000
O O12 0.401065 0.750000 0.241152
O O13 0.342552 0.673536 0.300478
O O14 0.772424 0.112263 0.938415
O O15 0.000000 0.750000 0.930233
O O16 0.874863 0.375138 0.875000
#
# Coordination Sequence:
#
# PCOD8320928 Si02
#       7
#    32  32  32  16  32  16  32
#     4  11  25  40  56  86 124 156 193 243 306 368
#     4   9  19  39  62  88 118 155 202 252 307 358
#     4   9  20  40  65  88 113 151 203 253 297 358
#     4  12  22  38  64  92 128 172 214 264 314 376
#     4   9  20  38  65  90 115 153 206 254 298 365
#     4  12  26  38  56  92 134 166 208 256 318 374
#     4   9  19  39  64  90 116 162 215 255 304 370
#
# _framework density 19.765218000000001
#
# number of rings (size 3 to 8) (size 9 to 14) (size 15 to 20)
#    0.000    2.167    1.667    2.500    3.500    3.333 
#    3.000    4.167    0.000    0.000    0.000    0.000 
#    0.000    0.000    0.000    0.000    0.000    0.000 
#
# Total GULP energy -1190171.266412 kJ/mol
# GULP energy per Si atom -12397.617358 kJ/mol
# Density = 1.972023 g / cm^3
# Si number density = 19.765218 Si / 1000 Ang^3
#
#
#
# Elastic Constant Matrix: (Units=GPa)
#
#
# Indices 1 2 3 4 5 6 
#
# 1 88.5343 34.2560 56.5691 0.0000 0.0000 0.0000
# 2 34.2560 88.5344 56.5692 0.0000 0.0000 0.0000
# 3 56.5691 56.5692 129.1948 0.0000 0.0000 0.0000
# 4 0.0000 0.0000 0.0000 27.3330 0.0000 0.0000
# 5 0.0000 0.0000 0.0000 0.0000 27.3328 0.0000
# 6 0.0000 0.0000 0.0000 0.0000 0.0000 21.0209
#
#
#
# Elastic Compliance Matrix: (Units=1/GPa)
#
#
# Indices 1 2 3 4 5 6 
#
# 1 0.016038 -0.002386 -0.005977 0.000000 0.000000 0.000000
# 2 -0.002386 0.016038 -0.005977 0.000000 0.000000 0.000000
# 3 -0.005977 -0.005977 0.012975 0.000000 0.000000 0.000000
# 4 0.000000 0.000000 0.000000 0.036586 0.000000 0.000000
# 5 0.000000 0.000000 0.000000 0.000000 0.036586 0.000000
# 6 0.000000 0.000000 0.000000 0.000000 0.000000 0.047572
#
#
# Mechanical properties :
#
#
# Convention : Reuss Voigt Hill
#
# Bulk Modulus (GPa) = 61.09446 66.78357 63.93901
# Shear Modulus (GPa) = 25.00859 25.72863 25.36861
#
# Velocity S-wave (km/s) = 3.56094 3.61184 3.58648
# Velocity P-wave (km/s) = 6.91984 7.15930 7.04059
#
# Compressibility (1/GPa) = 0.01636810
#
# Stress axis : x y z
#
# Youngs Moduli (GPa) = 62.35360 62.35362 77.07225
#
# Poissons Ratio (x) = 0.14878 0.46070
# Poissons Ratio (y) = 0.14878 0.46070
# Poissons Ratio (z) = 0.37272 0.37272
#
# Static dielectric constant tensor:
#      x y z
#    x 3.621170 0.000000 0.000000 
#    y 0.000000 3.621200 0.000000 
#    z 0.000000 0.000000 0.567370 
# 
# 
# High freq. dielectric constant tensor:
#      x y z
#    x 1.758960 0.000000 0.000000 
#    y 0.000000 1.758960 0.000000 
#    z 0.000000 0.000000 1.782790 
# 
# From -- ./inp_files/14457.got.cif
#   From: 2010.03.12/outbox.cif.g09.slc.cpg/sg141_8_cif.got.tgz:14457.got - 2010.04.03 13:18:35.
