data_PCOD8320738
_publ_section_title
;
Structure prediction by ZEFSAII (Michael W. Deem and Ramdas Pophale) SiO2 
 PCOD8320738
Probable space group: I 41/A M D
;
_chemical_formula_sum "Si O2"
_cell_formula_units_Z 160
_cell_length_a 18.462537
_cell_length_b 18.462537
_cell_length_c 24.415230
_cell_angle_alpha 90.000000
_cell_angle_beta 90.000000
_cell_angle_gamma 90.000000
_cell_volume 8322.304027
_symmetry_space_group_name_H-M "I 41/A M D"
_symmetry_group_IT_number 141
_space_group.IT_coordinate_system_code '2'
_symmetry_cell_setting 'tetragonal'
loop_
_space_group_symop_operation_xyz
x,y,z
1/4-y,3/4+x,1/4+z
-x,1/2-y,z
1/4+y,1/4-x,3/4+z
x,-y,-z
-x,1/2+y,-z
1/4+y,3/4+x,1/4-z
1/4-y,1/4-x,3/4-z
-x,-y,-z
3/4+y,1/4-x,3/4-z
x,1/2+y,-z
3/4-y,3/4+x,1/4-z
-x,y,z
x,1/2-y,z
3/4-y,1/4-x,3/4+z
3/4+y,3/4+x,1/4+z
1/2+x,1/2+y,1/2+z
3/4-y,1/4+x,3/4+z
1/2-x,-y,1/2+z
3/4+y,3/4-x,1/4+z
1/2+x,1/2-y,1/2-z
1/2-x,y,1/2-z
3/4+y,1/4+x,3/4-z
3/4-y,3/4-x,1/4-z
1/2-x,1/2-y,1/2-z
1/4+y,3/4-x,1/4-z
1/2+x,y,1/2-z
1/4-y,1/4+x,3/4-z
1/2-x,1/2+y,1/2+z
1/2+x,-y,1/2+z
1/4-y,3/4-x,1/4+z
1/4+y,1/4+x,3/4+z
loop_
_atom_site_type_symbol
_atom_site_label
_atom_site_fract_x
_atom_site_fract_y
_atom_site_fract_z
Si Si1 0.584087 0.094471 0.672905
Si Si2 0.583977 0.441430 0.365209
Si Si3 0.081178 0.917395 0.983279
Si Si4 0.416881 0.090660 0.955156
Si Si5 0.319549 0.165259 0.168144
O O1 0.500000 0.088723 0.686164
O O2 0.597143 0.152858 0.625000
O O3 0.622732 0.115789 0.728629
O O4 0.617933 0.017870 0.653453
O O5 0.500000 0.455500 0.375553
O O6 0.616258 0.413419 0.422741
O O7 0.595762 0.381216 0.319446
O O8 0.000000 0.883895 0.986240
O O9 0.078048 0.000000 0.000000
O O10 0.500000 0.107567 0.943515
O O11 0.396288 0.015902 0.923403
O O12 0.402125 0.095696 0.019895
O O13 0.362736 0.112736 0.125000
O O14 0.331178 0.250000 0.151215
#
# Coordination Sequence:
#
# PCOD8320738 Si02
#       5
#    32  32  32  32  32
#     4  11  22  37  58  86 116 149 194 243 287 340
#     4  10  22  38  57  83 115 151 190 233 286 342
#     4  10  20  38  58  78 113 153 187 233 284 333
#     4   9  20  39  58  81 116 153 190 237 288 344
#     4   9  19  37  60  85 113 147 191 239 287 342
#
# _framework density 19.225445000000001
#
# number of rings (size 3 to 8) (size 9 to 14) (size 15 to 20)
#    0.000    2.200    2.000    1.800    0.000    6.000 
#    3.600    8.000    0.000    0.000    0.000    0.000 
#    0.000    0.000    0.000    0.000    0.000    0.000 
#
# Total GULP energy -991481.699410 kJ/mol
# GULP energy per Si atom -12393.521243 kJ/mol
# Density = 1.918169 g / cm^3
# Si number density = 19.225445 Si / 1000 Ang^3
#
#
#
# Elastic Constant Matrix: (Units=GPa)
#
#
# Indices 1 2 3 4 5 6 
#
# 1 64.4707 41.4748 59.3631 0.0000 0.0000 0.0000
# 2 41.4748 64.4687 59.3628 0.0000 0.0000 0.0000
# 3 59.3631 59.3628 137.0166 0.0000 0.0000 0.0000
# 4 0.0000 0.0000 0.0000 71.6269 0.0000 0.0000
# 5 0.0000 0.0000 0.0000 0.0000 71.5939 0.0000
# 6 0.0000 0.0000 0.0000 0.0000 0.0000 26.3931
#
#
#
# Elastic Compliance Matrix: (Units=1/GPa)
#
#
# Indices 1 2 3 4 5 6 
#
# 1 0.030917 -0.012571 -0.007948 0.000000 0.000000 0.000000
# 2 -0.012571 0.030918 -0.007949 0.000000 0.000000 0.000000
# 3 -0.007948 -0.007949 0.014186 0.000000 0.000000 0.000000
# 4 0.000000 0.000000 0.000000 0.013961 0.000000 0.000000
# 5 0.000000 0.000000 0.000000 0.000000 0.013968 0.000000
# 6 0.000000 0.000000 0.000000 0.000000 0.000000 0.037889
#
#
# Mechanical properties :
#
#
# Convention : Reuss Voigt Hill
#
# Bulk Modulus (GPa) = 52.39915 65.15084 58.77499
# Shear Modulus (GPa) = 24.37410 40.97313 32.67361
#
# Velocity S-wave (km/s) = 3.56449 4.62149 4.12697
# Velocity P-wave (km/s) = 6.65244 7.90183 7.30390
#
# Compressibility (1/GPa) = 0.01908428
#
# Stress axis : x y z
#
# Youngs Moduli (GPa) = 32.34515 32.34366 70.49193
#
# Poissons Ratio (x) = 0.40658 0.56030
# Poissons Ratio (y) = 0.40660 0.56034
# Poissons Ratio (z) = 0.25709 0.25710
#
# Static dielectric constant tensor:
#      x y z
#    x 3.478190 0.000000 0.000000 
#    y 0.000000 3.478190 0.000000 
#    z 0.000000 0.000000 3.028490 
# 
# 
# High freq. dielectric constant tensor:
#      x y z
#    x 1.738570 0.000000 0.000000 
#    y 0.000000 1.738570 0.000000 
#    z 0.000000 0.000000 1.759720 
# 
# From -- ./inp_files/12666.got.cif
#   From: 2010.03.12/outbox.cif.g09.slc.cpg/sg141_7_cif.got.tgz:12666.got - 2010.04.03 13:18:35.
