data_PCOD8320037
_publ_section_title
;
Structure prediction by ZEFSAII (Michael W. Deem and Ramdas Pophale) SiO2 
 PCOD8320037
Probable space group: I 4/M C M
;
_chemical_formula_sum "Si O2"
_cell_formula_units_Z 176
_cell_length_a 18.767297
_cell_length_b 18.767297
_cell_length_c 24.645660
_cell_angle_alpha 90.000000
_cell_angle_beta 90.000000
_cell_angle_gamma 90.000000
_cell_volume 8680.483317
_symmetry_space_group_name_H-M "I 4/M C M"
_symmetry_group_IT_number 140
_symmetry_cell_setting 'tetragonal'
loop_
_space_group_symop_operation_xyz
x,y,z
-y,x,z
-x,-y,z
y,-x,z
x,-y,1/2-z
-x,y,1/2-z
y,x,1/2-z
-y,-x,1/2-z
-x,-y,-z
y,-x,-z
x,y,-z
-y,x,-z
-x,y,1/2+z
x,-y,1/2+z
-y,-x,1/2+z
y,x,1/2+z
1/2+x,1/2+y,1/2+z
1/2-y,1/2+x,1/2+z
1/2-x,1/2-y,1/2+z
1/2+y,1/2-x,1/2+z
1/2+x,1/2-y,-z
1/2-x,1/2+y,-z
1/2+y,1/2+x,-z
1/2-y,1/2-x,-z
1/2-x,1/2-y,1/2-z
1/2+y,1/2-x,1/2-z
1/2+x,1/2+y,1/2-z
1/2-y,1/2+x,1/2-z
1/2-x,1/2+y,z
1/2+x,1/2-y,z
1/2-y,1/2-x,z
1/2+y,1/2+x,z
loop_
_atom_site_type_symbol
_atom_site_label
_atom_site_fract_x
_atom_site_fract_y
_atom_site_fract_z
Si Si1 0.334490 0.388256 0.106567
Si Si2 0.537667 0.684964 0.937725
Si Si3 0.204529 0.295472 0.897854
Si Si4 0.581558 0.304742 0.229572
Si Si5 0.953011 0.657953 0.435384
Si Si6 0.805801 0.305801 0.271696
Si Si7 0.096048 0.403953 0.061983
O O1 0.417505 0.366885 0.101695
O O2 0.325345 0.453117 0.064875
O O3 0.286353 0.318793 0.089563
O O4 0.312362 0.418103 0.164854
O O5 0.556432 0.762601 0.914566
O O6 0.561936 0.674175 0.000000
O O7 0.189056 0.310945 0.835708
O O8 0.155848 0.344153 0.935480
O O9 0.500000 0.307872 0.250000
O O10 0.628062 0.371939 0.250000
O O11 0.617432 0.227617 0.247720
O O12 0.959956 0.657663 0.500000
O O13 0.885273 0.614728 0.414199
O O14 0.023925 0.623091 0.409247
O O15 0.750000 0.250000 0.250000
O O16 0.078427 0.421574 0.000000
#
# Coordination Sequence:
#
# PCOD8320037 Si02
#       7
#    32  32  16  32  32  16  16
#     4  11  23  39  59  84 115 149 192 236 288 343
#     4  11  23  38  55  80 117 159 198 234 277 333
#     4  10  20  35  58  84 113 144 183 234 279 333
#     4  10  20  38  64  90 115 144 187 241 295 349
#     4   9  18  32  51  79 112 151 197 239 279 325
#     4   8  18  36  59  86 113 144 177 225 293 356
#     4  10  17  30  54  80 114 155 191 231 281 330
#
# _framework density 20.275369999999999
#
# number of rings (size 3 to 8) (size 9 to 14) (size 15 to 20)
#    0.000    2.000    1.818    1.909    1.273    2.364 
#    0.000    2.727    2.000    0.273    0.000    0.000 
#    0.000    0.000    0.000    0.000    0.000    0.000 
#
# Total GULP energy -1090151.031895 kJ/mol
# GULP energy per Si atom -12388.079908 kJ/mol
# Density = 2.022922 g / cm^3
# Si number density = 20.275370 Si / 1000 Ang^3
#
#
#
# Elastic Constant Matrix: (Units=GPa)
#
#
# Indices 1 2 3 4 5 6 
#
# 1 119.9334 66.5236 30.9194 0.0000 0.0000 0.0000
# 2 66.5236 119.9334 30.9187 0.0000 0.0000 0.0000
# 3 30.9194 30.9187 33.5286 0.0000 0.0000 0.0000
# 4 0.0000 0.0000 0.0000 20.1914 0.0000 0.0000
# 5 0.0000 0.0000 0.0000 0.0000 20.1914 0.0000
# 6 0.0000 0.0000 0.0000 0.0000 0.0000 37.6959
#
#
#
# Elastic Compliance Matrix: (Units=1/GPa)
#
#
# Indices 1 2 3 4 5 6 
#
# 1 0.013225 -0.005499 -0.007125 0.000000 0.000000 0.000000
# 2 -0.005499 0.013225 -0.007124 0.000000 0.000000 0.000000
# 3 -0.007125 -0.007124 0.042966 0.000000 0.000000 0.000000
# 4 0.000000 0.000000 0.000000 0.049526 0.000000 0.000000
# 5 0.000000 0.000000 0.000000 0.000000 0.049526 0.000000
# 6 0.000000 0.000000 0.000000 0.000000 0.000000 0.026528
#
#
# Mechanical properties :
#
#
# Convention : Reuss Voigt Hill
#
# Bulk Modulus (GPa) = 33.42371 58.90210 46.16290
# Shear Modulus (GPa) = 20.45290 25.28465 22.86878
#
# Velocity S-wave (km/s) = 3.17954 3.53521 3.36208
# Velocity P-wave (km/s) = 5.47722 6.76592 6.15539
#
# Compressibility (1/GPa) = 0.02991888
#
# Stress axis : x y z
#
# Youngs Moduli (GPa) = 75.61599 75.61709 23.27438
#
# Poissons Ratio (x) = 0.41578 0.16583
# Poissons Ratio (y) = 0.41578 0.16582
# Poissons Ratio (z) = 0.53877 0.53873
#
# Static dielectric constant tensor:
#      x y z
#    x 3.878290 0.000000 0.000000 
#    y 0.000000 3.878290 0.000000 
#    z 0.000000 0.000000 3.367440 
# 
# 
# High freq. dielectric constant tensor:
#      x y z
#    x 1.795770 0.000000 0.000000 
#    y 0.000000 1.795770 0.000000 
#    z 0.000000 0.000000 1.758400 
# 
# From -- ./inp_files/10730.got.cif
#   From: 2010.06.25/outbox.cif.g09.slc.cpg/sg140_6_cif.got.tgz:10730.got - 2010.06.28 10:53:23.
