data_PCOD8320610
_publ_section_title
;
Structure prediction by ZEFSAII (Michael W. Deem and Ramdas Pophale) SiO2 
 PCOD8320610
Probable space group: I 41/A M D
;
_chemical_formula_sum "Si O2"
_cell_formula_units_Z 192
_cell_length_a 21.251414
_cell_length_b 21.251414
_cell_length_c 23.922346
_cell_angle_alpha 90.000000
_cell_angle_beta 90.000000
_cell_angle_gamma 90.000000
_cell_volume 10803.872027
_symmetry_space_group_name_H-M "I 41/A M D"
_symmetry_group_IT_number 141
_space_group.IT_coordinate_system_code '2'
_symmetry_cell_setting 'tetragonal'
loop_
_space_group_symop_operation_xyz
x,y,z
1/4-y,3/4+x,1/4+z
-x,1/2-y,z
1/4+y,1/4-x,3/4+z
x,-y,-z
-x,1/2+y,-z
1/4+y,3/4+x,1/4-z
1/4-y,1/4-x,3/4-z
-x,-y,-z
3/4+y,1/4-x,3/4-z
x,1/2+y,-z
3/4-y,3/4+x,1/4-z
-x,y,z
x,1/2-y,z
3/4-y,1/4-x,3/4+z
3/4+y,3/4+x,1/4+z
1/2+x,1/2+y,1/2+z
3/4-y,1/4+x,3/4+z
1/2-x,-y,1/2+z
3/4+y,3/4-x,1/4+z
1/2+x,1/2-y,1/2-z
1/2-x,y,1/2-z
3/4+y,1/4+x,3/4-z
3/4-y,3/4-x,1/4-z
1/2-x,1/2-y,1/2-z
1/4+y,3/4-x,1/4-z
1/2+x,y,1/2-z
1/4-y,1/4+x,3/4-z
1/2-x,1/2+y,1/2+z
1/2+x,-y,1/2+z
1/4-y,3/4-x,1/4+z
1/4+y,1/4+x,3/4+z
loop_
_atom_site_type_symbol
_atom_site_label
_atom_site_fract_x
_atom_site_fract_y
_atom_site_fract_z
Si Si1 0.149011 0.990019 0.909194
Si Si2 0.131639 0.178795 0.703810
Si Si3 0.071851 0.322680 0.589662
Si Si4 0.792718 0.042463 0.434040
Si Si5 0.675733 0.591320 0.045532
Si Si6 0.071558 0.885797 0.077162
O O1 0.113324 0.943538 0.950555
O O2 0.222208 0.985581 0.926079
O O3 0.135342 0.972712 0.844205
O O4 0.122724 0.059286 0.917802
O O5 0.153738 0.250000 0.694315
O O6 0.082299 0.159941 0.655234
O O7 0.102920 0.170095 0.766061
O O8 0.089655 0.250000 0.578137
O O9 0.112591 0.367364 0.549300
O O10 0.000000 0.336093 0.574797
O O11 0.819004 0.069004 0.375000
O O12 0.795511 0.096223 0.482198
O O13 0.837823 0.983019 0.447226
O O14 0.084240 0.834240 0.125000
O O15 0.000000 0.911213 0.083772
#
# Coordination Sequence:
#
# PCOD8320610 Si02
#       6
#    32  32  32  32  32  32
#     4  10  19  31  53  76 102 135 172 211 259 314
#     4   9  19  33  51  73  99 133 178 224 255 296
#     4   9  18  35  57  75  94 128 173 217 253 290
#     4   9  18  31  51  76 105 139 155 193 257 317
#     4   9  18  31  50  79 102 126 168 205 246 306
#     4  11  23  34  47  69 100 141 181 220 264 306
#
# _framework density 17.771407
#
# number of rings (size 3 to 8) (size 9 to 14) (size 15 to 20)
#    0.000    2.500    0.000    2.500    7.000    2.833 
#    0.000    3.333    0.000    5.000    0.000    1.167 
#    0.000    0.000    0.000    0.000    0.000    0.000 
#
# Total GULP energy -1189312.096166 kJ/mol
# GULP energy per Si atom -12388.667668 kJ/mol
# Density = 1.773096 g / cm^3
# Si number density = 17.771407 Si / 1000 Ang^3
#
#
#
# Elastic Constant Matrix: (Units=GPa)
#
#
# Indices 1 2 3 4 5 6 
#
# 1 71.6345 43.3583 36.7384 0.0000 0.0000 0.0000
# 2 43.3583 71.6345 36.7384 0.0000 0.0000 0.0000
# 3 36.7384 36.7384 144.8489 0.0000 0.0000 0.0000
# 4 0.0000 0.0000 0.0000 19.6342 0.0000 0.0000
# 5 0.0000 0.0000 0.0000 0.0000 19.6342 0.0000
# 6 0.0000 0.0000 0.0000 0.0000 0.0000 28.8444
#
#
#
# Elastic Compliance Matrix: (Units=1/GPa)
#
#
# Indices 1 2 3 4 5 6 
#
# 1 0.022872 -0.012494 -0.002632 0.000000 0.000000 0.000000
# 2 -0.012494 0.022872 -0.002632 0.000000 0.000000 0.000000
# 3 -0.002632 -0.002632 0.008239 0.000000 0.000000 0.000000
# 4 0.000000 0.000000 0.000000 0.050932 0.000000 0.000000
# 5 0.000000 0.000000 0.000000 0.000000 0.050932 0.000000
# 6 0.000000 0.000000 0.000000 0.000000 0.000000 0.034669
#
#
# Mechanical properties :
#
#
# Convention : Reuss Voigt Hill
#
# Bulk Modulus (GPa) = 54.15272 57.97644 56.06458
# Shear Modulus (GPa) = 21.53443 25.04140 23.28792
#
# Velocity S-wave (km/s) = 3.48479 3.75785 3.62389
# Velocity P-wave (km/s) = 6.83591 7.17794 7.00901
#
# Compressibility (1/GPa) = 0.01846629
#
# Stress axis : x y z
#
# Youngs Moduli (GPa) = 43.72199 43.72199 121.37429
#
# Poissons Ratio (x) = 0.54625 0.31948
# Poissons Ratio (y) = 0.54625 0.31948
# Poissons Ratio (z) = 0.11509 0.11509
#
# Static dielectric constant tensor:
#      x y z
#    x 3.116510 0.000000 0.000000 
#    y 0.000000 3.116510 0.000000 
#    z 0.000000 0.000000 3.774820 
# 
# 
# High freq. dielectric constant tensor:
#      x y z
#    x 1.660790 0.000000 0.000000 
#    y 0.000000 1.660790 0.000000 
#    z 0.000000 0.000000 1.700800 
# 
# From -- ./inp_files/11709.got.cif
#   From: 2010.03.12/outbox.cif.g09.slc.cpg/sg141_6_cif.got.tgz:11709.got - 2010.04.03 13:18:35.
