data_PCOD8320711
_publ_section_title
;
Structure prediction by ZEFSAII (Michael W. Deem and Ramdas Pophale) SiO2 
 PCOD8320711
Probable space group: I 41/A M D
;
_chemical_formula_sum "Si O2"
_cell_formula_units_Z 160
_cell_length_a 29.991823
_cell_length_b 29.991823
_cell_length_c 9.205170
_cell_angle_alpha 90.000000
_cell_angle_beta 90.000000
_cell_angle_gamma 90.000000
_cell_volume 8280.137375
_symmetry_space_group_name_H-M "I 41/A M D"
_symmetry_group_IT_number 141
_space_group.IT_coordinate_system_code '2'
_symmetry_cell_setting 'tetragonal'
loop_
_space_group_symop_operation_xyz
x,y,z
1/4-y,3/4+x,1/4+z
-x,1/2-y,z
1/4+y,1/4-x,3/4+z
x,-y,-z
-x,1/2+y,-z
1/4+y,3/4+x,1/4-z
1/4-y,1/4-x,3/4-z
-x,-y,-z
3/4+y,1/4-x,3/4-z
x,1/2+y,-z
3/4-y,3/4+x,1/4-z
-x,y,z
x,1/2-y,z
3/4-y,1/4-x,3/4+z
3/4+y,3/4+x,1/4+z
1/2+x,1/2+y,1/2+z
3/4-y,1/4+x,3/4+z
1/2-x,-y,1/2+z
3/4+y,3/4-x,1/4+z
1/2+x,1/2-y,1/2-z
1/2-x,y,1/2-z
3/4+y,1/4+x,3/4-z
3/4-y,3/4-x,1/4-z
1/2-x,1/2-y,1/2-z
1/4+y,3/4-x,1/4-z
1/2+x,y,1/2-z
1/4-y,1/4+x,3/4-z
1/2-x,1/2+y,1/2+z
1/2+x,-y,1/2+z
1/4-y,3/4-x,1/4+z
1/4+y,1/4+x,3/4+z
loop_
_atom_site_type_symbol
_atom_site_label
_atom_site_fract_x
_atom_site_fract_y
_atom_site_fract_z
Si Si1 0.551062 0.948443 0.458279
Si Si2 0.138848 0.300725 0.519928
Si Si3 0.187498 0.869163 0.658498
Si Si4 0.619604 0.032150 0.774387
Si Si5 0.450069 0.200069 0.125000
Si Si6 0.285764 0.535764 0.375000
O O1 0.500000 0.938471 0.416272
O O2 0.567333 0.912681 0.580826
O O3 0.581946 0.942623 0.318399
O O4 0.557519 0.000000 0.500000
O O5 0.154372 0.250000 0.495790
O O6 0.154581 0.329447 0.383006
O O7 0.084883 0.305745 0.510487
O O8 0.167955 0.917955 0.625000
O O9 0.189808 0.871494 0.830406
O O10 0.231880 0.858205 0.569395
O O11 0.665141 0.030756 0.687001
O O12 0.500000 0.194037 0.059312
O O13 0.276804 0.500000 0.500000
#
# Coordination Sequence:
#
# PCOD8320711 Si02
#       6
#    32  32  32  32  16  16
#     4  10  20  37  60  88 122 156 193 240 300 367
#     4  10  20  35  61  91 122 159 196 248 302 354
#     4  11  23  39  58  83 117 153 198 254 295 353
#     4  11  25  39  60  84 117 159 200 244 303 363
#     4   9  18  34  59  92 123 158 206 252 300 358
#     4  12  28  42  61  84 115 156 206 255 300 357
#
# _framework density 19.323350999999999
#
# number of rings (size 3 to 8) (size 9 to 14) (size 15 to 20)
#    0.000    1.500    3.000    1.800    7.000    0.800 
#    0.000    2.000    0.000    0.000    0.000    1.400 
#    0.000    6.400    0.000    0.000    0.000    0.000 
#
# Total GULP energy -991412.835495 kJ/mol
# GULP energy per Si atom -12392.660444 kJ/mol
# Density = 1.927937 g / cm^3
# Si number density = 19.323351 Si / 1000 Ang^3
#
#
#
# Elastic Constant Matrix: (Units=GPa)
#
#
# Indices 1 2 3 4 5 6 
#
# 1 92.2925 33.4955 69.2946 0.0000 0.0000 0.0000
# 2 33.4955 92.2925 69.2946 0.0000 0.0000 0.0000
# 3 69.2946 69.2946 136.8239 0.0000 0.0000 0.0000
# 4 0.0000 0.0000 0.0000 -600.6662 0.0000 0.0000
# 5 0.0000 0.0000 0.0000 0.0000 -600.6662 0.0000
# 6 0.0000 0.0000 0.0000 0.0000 0.0000 22.6545
#
#
#
# Elastic Compliance Matrix: (Units=1/GPa)
#
#
# Indices 1 2 3 4 5 6 
#
# 1 0.017497 0.000489 -0.009109 0.000000 0.000000 0.000000
# 2 0.000489 0.017497 -0.009109 0.000000 0.000000 0.000000
# 3 -0.009109 -0.009109 0.016535 0.000000 0.000000 0.000000
# 4 0.000000 0.000000 0.000000 -0.001665 0.000000 0.000000
# 5 0.000000 0.000000 0.000000 0.000000 -0.001665 0.000000
# 6 0.000000 0.000000 0.000000 0.000000 0.000000 0.044141
#
#
# Mechanical properties :
#
#
# Convention : Reuss Voigt Hill
#
# Bulk Modulus (GPa) = 62.22385 73.95314 68.08849
# Shear Modulus (GPa) = 37.55030 -225.78063 -94.11517
#
# Velocity S-wave (km/s) = 4.41302 -10.82114 -6.98650
# Velocity P-wave (km/s) = 7.63136 10.85242 5.45607
#
# Compressibility (1/GPa) = 0.01607101
#
# Stress axis : x y z
#
# Youngs Moduli (GPa) = 57.15354 57.15354 60.47737
#
# Poissons Ratio (x) = -0.02795 0.55088
# Poissons Ratio (y) = -0.02795 0.55088
# Poissons Ratio (z) = 0.52061 0.52061
#
# Static dielectric constant tensor:
#      x y z
#    x 3.693100 0.000000 0.000000 
#    y 0.000000 3.693100 0.000000 
#    z 0.000000 0.000000 3.389230 
# 
# 
# High freq. dielectric constant tensor:
#      x y z
#    x 1.761030 0.000000 0.000000 
#    y 0.000000 1.761030 0.000000 
#    z 0.000000 0.000000 1.738440 
# 
# From -- ./inp_files/3335.got.cif
#   From: 2010.03.12/outbox.cif.g09.slc.cpg/sg141_2_cif.got.tgz:3335.got - 2010.04.03 13:18:35.
