data_PCOD8320802
_publ_section_title
;
Structure prediction by ZEFSAII (Michael W. Deem and Ramdas Pophale) SiO2 
 PCOD8320802
Probable space group: I 41/A M D
;
_chemical_formula_sum "Si O2"
_cell_formula_units_Z 116
_cell_length_a 25.322557
_cell_length_b 25.322557
_cell_length_c 10.094308
_cell_angle_alpha 90.000000
_cell_angle_beta 90.000000
_cell_angle_gamma 90.000000
_cell_volume 6472.792228
_symmetry_space_group_name_H-M "I 41/A M D"
_symmetry_group_IT_number 141
_space_group.IT_coordinate_system_code '2'
_symmetry_cell_setting 'tetragonal'
loop_
_space_group_symop_operation_xyz
x,y,z
1/4-y,3/4+x,1/4+z
-x,1/2-y,z
1/4+y,1/4-x,3/4+z
x,-y,-z
-x,1/2+y,-z
1/4+y,3/4+x,1/4-z
1/4-y,1/4-x,3/4-z
-x,-y,-z
3/4+y,1/4-x,3/4-z
x,1/2+y,-z
3/4-y,3/4+x,1/4-z
-x,y,z
x,1/2-y,z
3/4-y,1/4-x,3/4+z
3/4+y,3/4+x,1/4+z
1/2+x,1/2+y,1/2+z
3/4-y,1/4+x,3/4+z
1/2-x,-y,1/2+z
3/4+y,3/4-x,1/4+z
1/2+x,1/2-y,1/2-z
1/2-x,y,1/2-z
3/4+y,1/4+x,3/4-z
3/4-y,3/4-x,1/4-z
1/2-x,1/2-y,1/2-z
1/4+y,3/4-x,1/4-z
1/2+x,y,1/2-z
1/4-y,1/4+x,3/4-z
1/2-x,1/2+y,1/2+z
1/2+x,-y,1/2+z
1/4-y,3/4-x,1/4+z
1/4+y,1/4+x,3/4+z
loop_
_atom_site_type_symbol
_atom_site_label
_atom_site_fract_x
_atom_site_fract_y
_atom_site_fract_z
Si Si1 0.382261 0.853844 0.530116
Si Si2 0.000000 0.750000 0.625000
Si Si3 0.225948 0.689731 0.888550
Si Si4 0.793007 0.310194 0.644833
Si Si5 0.000000 0.191739 0.629588
O O1 0.388443 0.861558 0.375000
O O2 0.321227 0.848749 0.569531
O O3 0.405213 0.904504 0.604009
O O4 0.412135 0.801828 0.574864
O O5 0.000000 0.802225 0.531401
O O6 0.204954 0.750000 0.877048
O O7 0.250000 0.670173 0.750000
O O8 0.271635 0.685937 0.996822
O O9 0.807576 0.250000 0.683764
O O10 0.750000 0.331816 0.750000
O O11 0.000000 0.250000 0.695619
#
# Coordination Sequence:
#
# PCOD8320802 Si02
#       5
#    32   4  32  32  16
#     4  12  23  37  66  92 124 162 213 267 312 377
#     4   8  24  44  42  80 140 172 200 230 332 416
#     4  10  22  41  61  91 123 162 218 261 308 377
#     4  10  21  38  61  89 126 166 204 255 316 375
#     4  10  24  37  57  89 130 164 201 248 325 392
#
# _framework density 17.921168000000002
#
# number of rings (size 3 to 8) (size 9 to 14) (size 15 to 20)
#    0.414    1.103    4.138    0.828    3.862    3.310 
#    0.000    0.000    0.000    4.966    0.000    0.000 
#    0.000    0.000    0.000    0.000    0.000    0.000 
#
# Total GULP energy -719310.731496 kJ/mol
# GULP energy per Si atom -12401.909164 kJ/mol
# Density = 1.788038 g / cm^3
# Si number density = 17.921168 Si / 1000 Ang^3
#
#
#
# Elastic Constant Matrix: (Units=GPa)
#
#
# Indices 1 2 3 4 5 6 
#
# 1 115.3165 63.1742 46.6273 0.0000 0.0000 0.0000
# 2 63.1742 115.3170 46.6274 0.0000 0.0000 0.0000
# 3 46.6273 46.6274 141.6794 0.0000 0.0000 0.0000
# 4 0.0000 0.0000 0.0000 30.9716 0.0000 0.0000
# 5 0.0000 0.0000 0.0000 0.0000 30.9719 0.0000
# 6 0.0000 0.0000 0.0000 0.0000 0.0000 27.4853
#
#
#
# Elastic Compliance Matrix: (Units=1/GPa)
#
#
# Indices 1 2 3 4 5 6 
#
# 1 0.012972 -0.006206 -0.002227 0.000000 0.000000 0.000000
# 2 -0.006206 0.012972 -0.002227 0.000000 0.000000 0.000000
# 3 -0.002227 -0.002227 0.008524 0.000000 0.000000 0.000000
# 4 0.000000 0.000000 0.000000 0.032288 0.000000 0.000000
# 5 0.000000 0.000000 0.000000 0.000000 0.032287 0.000000
# 6 0.000000 0.000000 0.000000 0.000000 0.000000 0.036383
#
#
# Mechanical properties :
#
#
# Convention : Reuss Voigt Hill
#
# Bulk Modulus (GPa) = 76.05231 76.13008 76.09119
# Shear Modulus (GPa) = 31.03127 32.27805 31.65466
#
# Velocity S-wave (km/s) = 4.16570 4.24856 4.20733
# Velocity P-wave (km/s) = 8.10349 8.16332 8.13346
#
# Compressibility (1/GPa) = 0.01314884
#
# Stress axis : x y z
#
# Youngs Moduli (GPa) = 77.08876 77.08908 117.31841
#
# Poissons Ratio (x) = 0.47843 0.26123
# Poissons Ratio (y) = 0.47842 0.26123
# Poissons Ratio (z) = 0.17165 0.17165
#
# Static dielectric constant tensor:
#      x y z
#    x 3.052810 0.000000 0.000000 
#    y 0.000000 3.052390 0.000000 
#    z 0.000000 0.000000 3.388980 
# 
# 
# High freq. dielectric constant tensor:
#      x y z
#    x 1.684770 0.000000 0.000000 
#    y 0.000000 1.684770 0.000000 
#    z 0.000000 0.000000 1.707500 
# 
# From -- ./inp_files/2796.got.cif
#   From: 2010.03.12/outbox.cif.g09.slc.cpg/sg141_2_cif.got.tgz:2796.got - 2010.04.03 13:18:35.
