data_PCOD8320877
_publ_section_title
;
Structure prediction by ZEFSAII (Michael W. Deem and Ramdas Pophale) SiO2 
 PCOD8320877
Probable space group: I 41/A M D
;
_chemical_formula_sum "Si O2"
_cell_formula_units_Z 176
_cell_length_a 25.514966
_cell_length_b 25.514966
_cell_length_c 12.838867
_cell_angle_alpha 90.000000
_cell_angle_beta 90.000000
_cell_angle_gamma 90.000000
_cell_volume 8358.275613
_symmetry_space_group_name_H-M "I 41/A M D"
_symmetry_group_IT_number 141
_space_group.IT_coordinate_system_code '2'
_symmetry_cell_setting 'tetragonal'
loop_
_space_group_symop_operation_xyz
x,y,z
1/4-y,3/4+x,1/4+z
-x,1/2-y,z
1/4+y,1/4-x,3/4+z
x,-y,-z
-x,1/2+y,-z
1/4+y,3/4+x,1/4-z
1/4-y,1/4-x,3/4-z
-x,-y,-z
3/4+y,1/4-x,3/4-z
x,1/2+y,-z
3/4-y,3/4+x,1/4-z
-x,y,z
x,1/2-y,z
3/4-y,1/4-x,3/4+z
3/4+y,3/4+x,1/4+z
1/2+x,1/2+y,1/2+z
3/4-y,1/4+x,3/4+z
1/2-x,-y,1/2+z
3/4+y,3/4-x,1/4+z
1/2+x,1/2-y,1/2-z
1/2-x,y,1/2-z
3/4+y,1/4+x,3/4-z
3/4-y,3/4-x,1/4-z
1/2-x,1/2-y,1/2-z
1/4+y,3/4-x,1/4-z
1/2+x,y,1/2-z
1/4-y,1/4+x,3/4-z
1/2-x,1/2+y,1/2+z
1/2+x,-y,1/2+z
1/4-y,3/4-x,1/4+z
1/4+y,1/4+x,3/4+z
loop_
_atom_site_type_symbol
_atom_site_label
_atom_site_fract_x
_atom_site_fract_y
_atom_site_fract_z
Si Si1 0.416589 0.500000 0.000000
Si Si2 0.139779 0.023444 0.887620
Si Si3 0.387912 0.310774 0.030757
Si Si4 0.129717 0.044155 0.313999
Si Si5 0.644136 0.193009 0.345829
Si Si6 0.143680 0.688912 0.086223
O O1 0.382576 0.502088 0.105589
O O2 0.446747 0.555029 0.018289
O O3 0.186144 0.063857 0.875000
O O4 0.084206 0.053788 0.888484
O O5 0.145210 0.978623 0.798591
O O6 0.147127 0.000000 0.000000
O O7 0.391047 0.250000 0.997612
O O8 0.428143 0.321858 0.125000
O O9 0.328541 0.326463 0.057874
O O10 0.401776 0.349976 0.936929
O O11 0.174494 0.075507 0.375000
O O12 0.617649 0.250000 0.338705
O O13 0.656434 0.179893 0.464958
O O14 0.137075 0.750000 0.115662
O O15 0.091609 0.658392 0.125000
#
# Coordination Sequence:
#
# PCOD8320877 Si02
#       6
#    16  32  32  32  32  32
#     4  12  21  42  68  96 134 170 226 280 335 414
#     4  11  27  46  69  97 135 176 225 282 343 408
#     4  11  24  41  64  99 140 178 221 276 342 413
#     4  11  25  42  70  99 133 173 223 276 343 414
#     4  11  23  41  66  97 132 177 223 279 346 407
#     4  10  24  45  68  95 131 174 224 279 336 396
#
# _framework density 21.056974
#
# number of rings (size 3 to 8) (size 9 to 14) (size 15 to 20)
#    0.000    1.091    5.455    0.818    7.636    4.727 
#    0.000    1.818    0.000    0.000    0.000    0.000 
#    0.000    0.000    0.000    0.000    0.000    0.000 
#
# Total GULP energy -1090290.658868 kJ/mol
# GULP energy per Si atom -12389.666578 kJ/mol
# Density = 2.100905 g / cm^3
# Si number density = 21.056974 Si / 1000 Ang^3
#
#
#
# Elastic Constant Matrix: (Units=GPa)
#
#
# Indices 1 2 3 4 5 6 
#
# 1 98.3201 67.6291 45.1859 0.0000 0.0000 0.0000
# 2 67.6291 98.3470 45.2040 0.0000 0.0000 0.0000
# 3 45.1859 45.2040 137.5740 0.0000 0.0000 0.0000
# 4 0.0000 0.0000 0.0000 841.7001 0.0000 0.0000
# 5 0.0000 0.0000 0.0000 0.0000 891.5388 0.0000
# 6 0.0000 0.0000 0.0000 0.0000 0.0000 12.7262
#
#
#
# Elastic Compliance Matrix: (Units=1/GPa)
#
#
# Indices 1 2 3 4 5 6 
#
# 1 0.019955 -0.012615 -0.002409 0.000000 0.000000 0.000000
# 2 -0.012615 0.019952 -0.002412 0.000000 0.000000 0.000000
# 3 -0.002409 -0.002412 0.008853 0.000000 0.000000 0.000000
# 4 0.000000 0.000000 0.000000 0.001188 0.000000 0.000000
# 5 0.000000 0.000000 0.000000 0.000000 0.001122 0.000000
# 6 0.000000 0.000000 0.000000 0.000000 0.000000 0.078578
#
#
# Mechanical properties :
#
#
# Convention : Reuss Voigt Hill
#
# Bulk Modulus (GPa) = 72.01213 72.25323 72.13268
# Shear Modulus (GPa) = 29.55960 360.94116 195.25038
#
# Velocity S-wave (km/s) = 3.75079 13.10663 9.63982
# Velocity P-wave (km/s) = 7.28223 16.23061 12.57902
#
# Compressibility (1/GPa) = 0.01388655
#
# Stress axis : x y z
#
# Youngs Moduli (GPa) = 50.11194 50.12098 112.95904
#
# Poissons Ratio (x) = 0.63228 0.27214
# Poissons Ratio (y) = 0.63217 0.27249
# Poissons Ratio (z) = 0.12073 0.12091
#
# Static dielectric constant tensor:
#      x y z
#    x 3.907370 0.000000 0.000000 
#    y 0.000000 3.907300 0.000000 
#    z 0.000000 0.000000 3.651460 
# 
# 
# High freq. dielectric constant tensor:
#      x y z
#    x 1.822160 0.000000 0.000000 
#    y 0.000000 1.822160 0.000000 
#    z 0.000000 0.000000 1.835480 
# 
# From -- ./inp_files/5049.got.cif
#   From: 2010.03.12/outbox.cif.g09.slc.cpg/sg141_3_cif.got.tgz:5049.got - 2010.04.03 13:18:35.
