data_PCOD8320388
_publ_section_title
;
Structure prediction by ZEFSAII (Michael W. Deem and Ramdas Pophale) SiO2 
 PCOD8320388
Probable space group: I 4/M C M
;
_chemical_formula_sum "Si O2"
_cell_formula_units_Z 160
_cell_length_a 29.298634
_cell_length_b 29.298634
_cell_length_c 9.435999
_cell_angle_alpha 90.000000
_cell_angle_beta 90.000000
_cell_angle_gamma 90.000000
_cell_volume 8099.955470
_symmetry_space_group_name_H-M "I 4/M C M"
_symmetry_group_IT_number 140
_symmetry_cell_setting 'tetragonal'
loop_
_space_group_symop_operation_xyz
x,y,z
-y,x,z
-x,-y,z
y,-x,z
x,-y,1/2-z
-x,y,1/2-z
y,x,1/2-z
-y,-x,1/2-z
-x,-y,-z
y,-x,-z
x,y,-z
-y,x,-z
-x,y,1/2+z
x,-y,1/2+z
-y,-x,1/2+z
y,x,1/2+z
1/2+x,1/2+y,1/2+z
1/2-y,1/2+x,1/2+z
1/2-x,1/2-y,1/2+z
1/2+y,1/2-x,1/2+z
1/2+x,1/2-y,-z
1/2-x,1/2+y,-z
1/2+y,1/2+x,-z
1/2-y,1/2-x,-z
1/2-x,1/2-y,1/2-z
1/2+y,1/2-x,1/2-z
1/2+x,1/2+y,1/2-z
1/2-y,1/2+x,1/2-z
1/2-x,1/2+y,z
1/2+x,1/2-y,z
1/2-y,1/2-x,z
1/2+y,1/2+x,z
loop_
_atom_site_type_symbol
_atom_site_label
_atom_site_fract_x
_atom_site_fract_y
_atom_site_fract_z
Si Si1 0.406624 0.651914 0.840635
Si Si2 0.072811 0.981478 0.500000
Si Si3 0.771347 0.835534 0.667530
Si Si4 0.000000 0.134061 0.250000
Si Si5 0.693544 0.119710 0.345503
Si Si6 0.452374 0.122563 0.832547
O O1 0.391505 0.608495 0.750000
O O2 0.377637 0.695782 0.800366
O O3 0.459946 0.664751 0.817660
O O4 0.397920 0.636736 0.000000
O O5 0.033153 0.944845 0.500000
O O6 0.102847 0.974022 0.362463
O O7 0.790519 0.790519 0.750000
O O8 0.766309 0.824162 0.500000
O O9 0.723977 0.853564 0.730223
O O10 0.718954 0.114271 0.500000
O O11 0.649343 0.149343 0.374176
O O12 0.671935 0.071373 0.293348
O O13 0.500000 0.118832 0.750000
O O14 0.419968 0.080033 0.787307
O O15 0.462114 0.121048 0.000000
#
# Coordination Sequence:
#
# PCOD8320388 Si02
#       6
#    32  16  32  16  32  32
#     4  10  22  38  55  74 100 134 172 218 271 330
#     4  11  22  34  50  72  96 124 164 218 272 324
#     4  10  21  38  59  84 112 144 188 235 285 342
#     4  12  22  35  52  72  96 130 172 214 267 328
#     4   9  19  38  61  86 118 154 191 231 282 335
#     4   9  19  36  58  86 121 162 202 244 289 338
#
# _framework density 19.753195000000002
#
# number of rings (size 3 to 8) (size 9 to 14) (size 15 to 20)
#    0.000    2.100    1.000    3.600    1.400    3.800 
#    1.800    3.000    0.000    0.000    0.000    0.000 
#    0.000    0.000    0.000    0.000    0.000    0.000 
#
# Total GULP energy -991317.215295 kJ/mol
# GULP energy per Si atom -12391.465191 kJ/mol
# Density = 1.970824 g / cm^3
# Si number density = 19.753195 Si / 1000 Ang^3
#
#
#
# Elastic Constant Matrix: (Units=GPa)
#
#
# Indices 1 2 3 4 5 6 
#
# 1 160.0507 -35.5452 38.9246 0.0000 0.0000 0.0000
# 2 -35.5452 160.0507 38.9246 0.0000 0.0000 0.0000
# 3 38.9246 38.9246 100.0091 0.0000 0.0000 0.0000
# 4 0.0000 0.0000 0.0000 30.1300 0.0000 0.0000
# 5 0.0000 0.0000 0.0000 0.0000 30.1300 0.0000
# 6 0.0000 0.0000 0.0000 0.0000 0.0000 51.4453
#
#
#
# Elastic Compliance Matrix: (Units=1/GPa)
#
#
# Indices 1 2 3 4 5 6 
#
# 1 0.007864 0.002751 -0.004132 0.000000 0.000000 0.000000
# 2 0.002751 0.007864 -0.004132 0.000000 0.000000 0.000000
# 3 -0.004132 -0.004132 0.013215 0.000000 0.000000 0.000000
# 4 0.000000 0.000000 0.000000 0.033190 0.000000 0.000000
# 5 0.000000 0.000000 0.000000 0.000000 0.033190 0.000000
# 6 0.000000 0.000000 0.000000 0.000000 0.000000 0.019438
#
#
# Mechanical properties :
#
#
# Convention : Reuss Voigt Hill
#
# Bulk Modulus (GPa) = 55.80584 56.07986 55.94285
# Shear Modulus (GPa) = 37.94877 47.52814 42.73846
#
# Velocity S-wave (km/s) = 4.38784 4.91052 4.65652
# Velocity P-wave (km/s) = 7.34737 7.78478 7.56924
#
# Compressibility (1/GPa) = 0.01791927
#
# Stress axis : x y z
#
# Youngs Moduli (GPa) = 127.16458 127.16458 75.67080
#
# Poissons Ratio (x) = -0.34986 0.31263
# Poissons Ratio (y) = -0.34986 0.31263
# Poissons Ratio (z) = 0.52538 0.52538
#
# Static dielectric constant tensor:
#      x y z
#    x 3.557710 0.000000 0.000000 
#    y 0.000000 3.557710 0.000000 
#    z 0.000000 0.000000 3.637000 
# 
# 
# High freq. dielectric constant tensor:
#      x y z
#    x 1.761200 0.000000 0.000000 
#    y 0.000000 1.761200 0.000000 
#    z 0.000000 0.000000 1.777330 
# 
# From -- ./inp_files/1801.got.cif
#   From: 2010.06.25/outbox.cif.g09.slc.cpg/sg140_1_cif.got.tgz:1801.got - 2010.06.28 10:53:23.
