data_PCOD8320932
_publ_section_title
;
Structure prediction by ZEFSAII (Michael W. Deem and Ramdas Pophale) SiO2 
 PCOD8320932
Probable space group: I 41/A M D
;
_chemical_formula_sum "Si O2"
_cell_formula_units_Z 96
_cell_length_a 30.904719
_cell_length_b 30.904719
_cell_length_c 4.965312
_cell_angle_alpha 90.000000
_cell_angle_beta 90.000000
_cell_angle_gamma 90.000000
_cell_volume 4742.377716
_symmetry_space_group_name_H-M "I 41/A M D"
_symmetry_group_IT_number 141
_space_group.IT_coordinate_system_code '2'
_symmetry_cell_setting 'tetragonal'
loop_
_space_group_symop_operation_xyz
x,y,z
1/4-y,3/4+x,1/4+z
-x,1/2-y,z
1/4+y,1/4-x,3/4+z
x,-y,-z
-x,1/2+y,-z
1/4+y,3/4+x,1/4-z
1/4-y,1/4-x,3/4-z
-x,-y,-z
3/4+y,1/4-x,3/4-z
x,1/2+y,-z
3/4-y,3/4+x,1/4-z
-x,y,z
x,1/2-y,z
3/4-y,1/4-x,3/4+z
3/4+y,3/4+x,1/4+z
1/2+x,1/2+y,1/2+z
3/4-y,1/4+x,3/4+z
1/2-x,-y,1/2+z
3/4+y,3/4-x,1/4+z
1/2+x,1/2-y,1/2-z
1/2-x,y,1/2-z
3/4+y,1/4+x,3/4-z
3/4-y,3/4-x,1/4-z
1/2-x,1/2-y,1/2-z
1/4+y,3/4-x,1/4-z
1/2+x,y,1/2-z
1/4-y,1/4+x,3/4-z
1/2-x,1/2+y,1/2+z
1/2+x,-y,1/2+z
1/4-y,3/4-x,1/4+z
1/4+y,1/4+x,3/4+z
loop_
_atom_site_type_symbol
_atom_site_label
_atom_site_fract_x
_atom_site_fract_y
_atom_site_fract_z
Si Si1 0.091248 0.841248 0.625000
Si Si2 0.822407 0.250000 0.966896
Si Si3 0.865261 0.384739 0.875000
Si Si4 0.500000 0.872868 0.798650
Si Si5 0.220819 0.340072 0.998613
O O1 0.106823 0.870905 0.381606
O O2 0.095300 0.793049 0.508211
O O3 0.866100 0.250000 0.136596
O O4 0.835265 0.250000 0.650777
O O5 0.798553 0.206827 0.068137
O O6 0.813763 0.375556 0.885335
O O7 0.250000 0.329531 0.750000
O O8 0.250000 0.357348 0.250000
#
# Coordination Sequence:
#
# PCOD8320932 Si02
#       5
#    16  16  16  16  32
#     4  12  22  41  62  90 129 180 224 257 312 375
#     4  12  22  41  62  99 131 164 209 275 326 379
#     4  12  24  44  66  89 133 170 208 267 328 395
#     4  12  22  38  64  90 129 178 225 260 308 376
#     4  12  24  41  66  98 129 167 211 263 328 393
#
# _framework density 20.243009000000001
#
# number of rings (size 3 to 8) (size 9 to 14) (size 15 to 20)
#    0.000    0.000    6.667    5.000    0.000    0.333 
#    0.000    0.000    0.000    6.000    0.000    0.000 
#    0.000    0.000    0.000    0.000    0.000    0.000 
#
# Total GULP energy -594639.986086 kJ/mol
# GULP energy per Si atom -12388.333043 kJ/mol
# Density = 2.019693 g / cm^3
# Si number density = 20.243009 Si / 1000 Ang^3
#
#
#
# Elastic Constant Matrix: (Units=GPa)
#
#
# Indices 1 2 3 4 5 6 
#
# 1 84.9472 31.4134 -1.8518 0.0000 0.0000 0.0000
# 2 31.4134 84.9524 -1.8515 0.0000 0.0000 0.0000
# 3 -1.8518 -1.8515 82.0510 0.0000 0.0000 0.0000
# 4 0.0000 0.0000 0.0000 29.9800 0.0000 0.0000
# 5 0.0000 0.0000 0.0000 0.0000 29.9800 0.0000
# 6 0.0000 0.0000 0.0000 0.0000 0.0000 17.5659
#
#
#
# Elastic Compliance Matrix: (Units=1/GPa)
#
#
# Indices 1 2 3 4 5 6 
#
# 1 0.013640 -0.005039 0.000194 0.000000 0.000000 0.000000
# 2 -0.005039 0.013639 0.000194 0.000000 0.000000 0.000000
# 3 0.000194 0.000194 0.012196 0.000000 0.000000 0.000000
# 4 0.000000 0.000000 0.000000 0.033356 0.000000 0.000000
# 5 0.000000 0.000000 0.000000 0.000000 0.033356 0.000000
# 6 0.000000 0.000000 0.000000 0.000000 0.000000 0.056929
#
#
# Mechanical properties :
#
#
# Convention : Reuss Voigt Hill
#
# Bulk Modulus (GPa) = 33.14271 34.15229 33.64750
# Shear Modulus (GPa) = 27.40101 30.45453 28.92777
#
# Velocity S-wave (km/s) = 3.68313 3.88293 3.78435
# Velocity P-wave (km/s) = 5.87326 6.08363 5.97937
#
# Compressibility (1/GPa) = 0.03017254
#
# Stress axis : x y z
#
# Youngs Moduli (GPa) = 73.31468 73.31918 81.99204
#
# Poissons Ratio (x) = 0.36949 -0.01592
# Poissons Ratio (y) = 0.36947 -0.01591
# Poissons Ratio (z) = -0.01423 -0.01423
#
# Static dielectric constant tensor:
#      x y z
#    x 3.406600 0.000000 0.000000 
#    y 0.000000 3.406590 0.000000 
#    z 0.000000 0.000000 3.614070 
# 
# 
# High freq. dielectric constant tensor:
#      x y z
#    x 1.781480 0.000000 0.000000 
#    y 0.000000 1.781480 0.000000 
#    z 0.000000 0.000000 1.812050 
# 
# From -- ./inp_files/1223.got.cif
#   From: 2010.03.12/outbox.cif.g09.slc.cpg/sg141_1_cif.got.tgz:1223.got - 2010.04.03 13:18:35.
