data_PCOD8320601
_publ_section_title
;
Structure prediction by ZEFSAII (Michael W. Deem and Ramdas Pophale) SiO2 
 PCOD8320601
Probable space group: I 41/A M D
;
_chemical_formula_sum "Si O2"
_cell_formula_units_Z 160
_cell_length_a 27.725406
_cell_length_b 27.725406
_cell_length_c 12.155454
_cell_angle_alpha 90.000000
_cell_angle_beta 90.000000
_cell_angle_gamma 90.000000
_cell_volume 9343.874855
_symmetry_space_group_name_H-M "I 41/A M D"
_symmetry_group_IT_number 141
_space_group.IT_coordinate_system_code '2'
_symmetry_cell_setting 'tetragonal'
loop_
_space_group_symop_operation_xyz
x,y,z
1/4-y,3/4+x,1/4+z
-x,1/2-y,z
1/4+y,1/4-x,3/4+z
x,-y,-z
-x,1/2+y,-z
1/4+y,3/4+x,1/4-z
1/4-y,1/4-x,3/4-z
-x,-y,-z
3/4+y,1/4-x,3/4-z
x,1/2+y,-z
3/4-y,3/4+x,1/4-z
-x,y,z
x,1/2-y,z
3/4-y,1/4-x,3/4+z
3/4+y,3/4+x,1/4+z
1/2+x,1/2+y,1/2+z
3/4-y,1/4+x,3/4+z
1/2-x,-y,1/2+z
3/4+y,3/4-x,1/4+z
1/2+x,1/2-y,1/2-z
1/2-x,y,1/2-z
3/4+y,1/4+x,3/4-z
3/4-y,3/4-x,1/4-z
1/2-x,1/2-y,1/2-z
1/4+y,3/4-x,1/4-z
1/2+x,y,1/2-z
1/4-y,1/4+x,3/4-z
1/2-x,1/2+y,1/2+z
1/2+x,-y,1/2+z
1/4-y,3/4-x,1/4+z
1/4+y,1/4+x,3/4+z
loop_
_atom_site_type_symbol
_atom_site_label
_atom_site_fract_x
_atom_site_fract_y
_atom_site_fract_z
Si Si1 0.942654 0.553512 0.000997
Si Si2 0.123584 0.193675 0.929025
Si Si3 0.553722 0.544334 0.933608
Si Si4 0.388858 0.695690 0.676821
Si Si5 0.557304 0.101425 0.274199
O O1 0.922482 0.581088 0.109245
O O2 0.000000 0.550858 0.004073
O O3 0.920306 0.500000 0.000000
O O4 0.925969 0.580822 0.891049
O O5 0.074283 0.175718 0.875000
O O6 0.123951 0.250000 0.915678
O O7 0.124335 0.177601 0.054845
O O8 0.500000 0.525652 0.902753
O O9 0.578011 0.564635 0.820251
O O10 0.580327 0.500000 0.000000
O O11 0.551339 0.588370 0.015042
O O12 0.412642 0.750000 0.677210
O O13 0.422670 0.656205 0.736753
O O14 0.500000 0.105449 0.260285
#
# Coordination Sequence:
#
# PCOD8320601 Si02
#       5
#    32  32  32  32  32
#     4   9  18  30  46  67  93 127 164 204 249 288
#     4  10  19  31  46  68  99 132 164 198 239 290
#     4   9  19  33  49  68  91 123 163 206 251 290
#     4  10  20  32  48  70 100 133 164 199 239 295
#     4  10  19  32  49  70  99 131 166 205 243 292
#
# _framework density 17.123517
#
# number of rings (size 3 to 8) (size 9 to 14) (size 15 to 20)
#    0.000    2.400    2.000    0.600    2.800    0.600 
#    0.000    2.000    0.000    3.600    0.000    0.000 
#    0.000   11.200    0.000    0.000    0.000    0.000 
#
# Total GULP energy -991052.562820 kJ/mol
# GULP energy per Si atom -12388.157035 kJ/mol
# Density = 1.708454 g / cm^3
# Si number density = 17.123517 Si / 1000 Ang^3
#
#
#
# Elastic Constant Matrix: (Units=GPa)
#
#
# Indices 1 2 3 4 5 6 
#
# 1 31.1901 52.5862 27.9324 0.0000 0.0000 0.0000
# 2 52.5862 31.1659 27.9316 0.0000 0.0000 0.0000
# 3 27.9324 27.9316 103.7232 0.0000 0.0000 0.0000
# 4 0.0000 0.0000 0.0000 22.7527 0.0000 0.0000
# 5 0.0000 0.0000 0.0000 0.0000 22.7526 0.0000
# 6 0.0000 0.0000 0.0000 0.0000 0.0000 3.4274
#
#
#
# Elastic Compliance Matrix: (Units=1/GPa)
#
#
# Indices 1 2 3 4 5 6 
#
# 1 -0.016072 0.030631 -0.003921 0.000000 0.000000 0.000000
# 2 0.030631 -0.016088 -0.003917 0.000000 0.000000 0.000000
# 3 -0.003921 -0.003917 0.011752 0.000000 0.000000 0.000000
# 4 0.000000 0.000000 0.000000 0.043951 0.000000 0.000000
# 5 0.000000 0.000000 0.000000 0.000000 0.043951 0.000000
# 6 0.000000 0.000000 0.000000 0.000000 0.000000 0.291767
#
#
# Mechanical properties :
#
#
# Convention : Reuss Voigt Hill
#
# Bulk Modulus (GPa) = 39.71360 42.55330 41.13345
# Shear Modulus (GPa) = 15.52476 13.62845 14.57661
#
# Velocity S-wave (km/s) = 3.01430 2.82421 2.92081
# Velocity P-wave (km/s) = 5.94621 5.96152 5.95387
#
# Compressibility (1/GPa) = 0.02518029
#
# Stress axis : x y z
#
# Youngs Moduli (GPa) = -62.22160 -62.15899 85.09470
#
# Poissons Ratio (x) = 1.90402 0.33363
# Poissons Ratio (y) = 1.90594 0.33329
# Poissons Ratio (z) = -0.24395 -0.24346
#
# Static dielectric constant tensor:
#      x y z
#    x 3.114780 0.000000 0.000000 
#    y 0.000000 3.114780 0.000000 
#    z 0.000000 0.000000 3.674510 
# 
# 
# High freq. dielectric constant tensor:
#      x y z
#    x 1.626100 0.000000 0.000000 
#    y 0.000000 1.626100 0.000000 
#    z 0.000000 0.000000 1.686370 
# 
# From -- ./inp_files/4821.got.cif
#   From: 2010.03.12/outbox.cif.g09.slc.cpg/sg141_3_cif.got.tgz:4821.got - 2010.04.03 13:18:35.
