data_PCOD8320039
_publ_section_title
;
Structure prediction by ZEFSAII (Michael W. Deem and Ramdas Pophale) SiO2 
 PCOD8320039
Probable space group: I 4/M C M
;
_chemical_formula_sum "Si O2"
_cell_formula_units_Z 192
_cell_length_a 27.881598
_cell_length_b 27.881598
_cell_length_c 13.840445
_cell_angle_alpha 90.000000
_cell_angle_beta 90.000000
_cell_angle_gamma 90.000000
_cell_volume 10759.333673
_symmetry_space_group_name_H-M "I 4/M C M"
_symmetry_group_IT_number 140
_symmetry_cell_setting 'tetragonal'
loop_
_space_group_symop_operation_xyz
x,y,z
-y,x,z
-x,-y,z
y,-x,z
x,-y,1/2-z
-x,y,1/2-z
y,x,1/2-z
-y,-x,1/2-z
-x,-y,-z
y,-x,-z
x,y,-z
-y,x,-z
-x,y,1/2+z
x,-y,1/2+z
-y,-x,1/2+z
y,x,1/2+z
1/2+x,1/2+y,1/2+z
1/2-y,1/2+x,1/2+z
1/2-x,1/2-y,1/2+z
1/2+y,1/2-x,1/2+z
1/2+x,1/2-y,-z
1/2-x,1/2+y,-z
1/2+y,1/2+x,-z
1/2-y,1/2-x,-z
1/2-x,1/2-y,1/2-z
1/2+y,1/2-x,1/2-z
1/2+x,1/2+y,1/2-z
1/2-y,1/2+x,1/2-z
1/2-x,1/2+y,z
1/2+x,1/2-y,z
1/2-y,1/2-x,z
1/2+y,1/2+x,z
loop_
_atom_site_type_symbol
_atom_site_label
_atom_site_fract_x
_atom_site_fract_y
_atom_site_fract_z
Si Si1 0.556865 0.741811 0.267664
Si Si2 0.690089 0.384172 0.894338
Si Si3 0.282080 0.291836 0.862856
Si Si4 0.153633 0.088933 0.385778
Si Si5 0.431229 0.472378 0.115220
Si Si6 0.628675 0.208404 0.109983
O O1 0.500000 0.751803 0.250000
O O2 0.579322 0.721641 0.168466
O O3 0.569155 0.703966 0.350246
O O4 0.584530 0.789230 0.311410
O O5 0.717464 0.333859 0.909081
O O6 0.639437 0.367967 0.845089
O O7 0.683011 0.408501 0.000000
O O8 0.285735 0.285735 0.750000
O O9 0.247442 0.252559 0.910026
O O10 0.260129 0.344228 0.886688
O O11 0.156093 0.094205 0.500000
O O12 0.118660 0.047470 0.347512
O O13 0.473891 0.438180 0.155001
O O14 0.433362 0.471777 0.000000
O O15 0.665494 0.165494 0.140097
O O16 0.609945 0.199912 0.000000
#
# Coordination Sequence:
#
# PCOD8320039 Si02
#       6
#    32  32  32  32  32  32
#     4  12  25  37  51  77 112 141 176 226 278 333
#     4  11  22  36  51  70  99 140 183 221 269 326
#     4  10  17  30  55  81 106 133 171 223 268 312
#     4  10  20  34  52  69  96 133 174 222 277 333
#     4   8  15  28  46  65  82 111 164 226 282 330
#     4  10  20  37  61  84 108 143 184 224 268 322
#
# _framework density 17.844971000000001
#
# number of rings (size 3 to 8) (size 9 to 14) (size 15 to 20)
#    0.000    1.833    3.333    2.000    2.333    2.333 
#    0.000    0.000    0.000    0.000    0.000    0.000 
#    0.000    0.333    0.000    1.833    0.000    0.000 
#
# Total GULP energy -1189277.587531 kJ/mol
# GULP energy per Si atom -12388.308203 kJ/mol
# Density = 1.780436 g / cm^3
# Si number density = 17.844971 Si / 1000 Ang^3
#
#
#
# Elastic Constant Matrix: (Units=GPa)
#
#
# Indices 1 2 3 4 5 6 
#
# 1 81.8861 35.4056 24.9946 0.0000 0.0000 0.0000
# 2 35.4056 81.8861 24.9946 0.0000 0.0000 0.0000
# 3 24.9946 24.9946 73.3086 0.0000 0.0000 0.0000
# 4 0.0000 0.0000 0.0000 18.2771 0.0000 0.0000
# 5 0.0000 0.0000 0.0000 0.0000 18.2771 0.0000
# 6 0.0000 0.0000 0.0000 0.0000 0.0000 17.4611
#
#
#
# Elastic Compliance Matrix: (Units=1/GPa)
#
#
# Indices 1 2 3 4 5 6 
#
# 1 0.015745 -0.005770 -0.003401 0.000000 0.000000 0.000000
# 2 -0.005770 0.015745 -0.003401 0.000000 0.000000 0.000000
# 3 -0.003401 -0.003401 0.015960 0.000000 0.000000 0.000000
# 4 0.000000 0.000000 0.000000 0.054713 0.000000 0.000000
# 5 0.000000 0.000000 0.000000 0.000000 0.054713 0.000000
# 6 0.000000 0.000000 0.000000 0.000000 0.000000 0.057270
#
#
# Mechanical properties :
#
#
# Convention : Reuss Voigt Hill
#
# Bulk Modulus (GPa) = 44.83016 45.31894 45.07455
# Shear Modulus (GPa) = 20.26546 20.91548 20.59047
#
# Velocity S-wave (km/s) = 3.37358 3.42726 3.40053
# Velocity P-wave (km/s) = 6.35227 6.41190 6.38215
#
# Compressibility (1/GPa) = 0.02230641
#
# Stress axis : x y z
#
# Youngs Moduli (GPa) = 63.51293 63.51293 62.65599
#
# Poissons Ratio (x) = 0.36644 0.21310
# Poissons Ratio (y) = 0.36644 0.21310
# Poissons Ratio (z) = 0.21601 0.21601
#
# Static dielectric constant tensor:
#      x y z
#    x 3.398590 0.000000 0.000000 
#    y 0.000000 3.398590 0.000000 
#    z 0.000000 0.000000 3.377200 
# 
# 
# High freq. dielectric constant tensor:
#      x y z
#    x 1.659000 0.000000 0.000000 
#    y 0.000000 1.659000 0.000000 
#    z 0.000000 0.000000 1.706640 
# 
# From -- ./inp_files/5287.got.cif
#   From: 2010.06.25/outbox.cif.g09.slc.cpg/sg140_3_cif.got.tgz:5287.got - 2010.06.28 10:53:23.
