data_PCOD8320649
_publ_section_title
;
Structure prediction by ZEFSAII (Michael W. Deem and Ramdas Pophale) SiO2 
 PCOD8320649
Probable space group: I 41/A M D
;
_chemical_formula_sum "Si O2"
_cell_formula_units_Z 240
_cell_length_a 20.607731
_cell_length_b 20.607731
_cell_length_c 29.810600
_cell_angle_alpha 90.000000
_cell_angle_beta 90.000000
_cell_angle_gamma 90.000000
_cell_volume 12659.923187
_symmetry_space_group_name_H-M "I 41/A M D"
_symmetry_group_IT_number 141
_space_group.IT_coordinate_system_code '2'
_symmetry_cell_setting 'tetragonal'
loop_
_space_group_symop_operation_xyz
x,y,z
1/4-y,3/4+x,1/4+z
-x,1/2-y,z
1/4+y,1/4-x,3/4+z
x,-y,-z
-x,1/2+y,-z
1/4+y,3/4+x,1/4-z
1/4-y,1/4-x,3/4-z
-x,-y,-z
3/4+y,1/4-x,3/4-z
x,1/2+y,-z
3/4-y,3/4+x,1/4-z
-x,y,z
x,1/2-y,z
3/4-y,1/4-x,3/4+z
3/4+y,3/4+x,1/4+z
1/2+x,1/2+y,1/2+z
3/4-y,1/4+x,3/4+z
1/2-x,-y,1/2+z
3/4+y,3/4-x,1/4+z
1/2+x,1/2-y,1/2-z
1/2-x,y,1/2-z
3/4+y,1/4+x,3/4-z
3/4-y,3/4-x,1/4-z
1/2-x,1/2-y,1/2-z
1/4+y,3/4-x,1/4-z
1/2+x,y,1/2-z
1/4-y,1/4+x,3/4-z
1/2-x,1/2+y,1/2+z
1/2+x,-y,1/2+z
1/4-y,3/4-x,1/4+z
1/4+y,1/4+x,3/4+z
loop_
_atom_site_type_symbol
_atom_site_label
_atom_site_fract_x
_atom_site_fract_y
_atom_site_fract_z
Si Si1 0.133377 0.823956 0.032166
Si Si2 0.286563 0.063830 0.323177
Si Si3 0.305792 0.676202 0.835954
Si Si4 0.197882 0.056235 0.077361
Si Si5 0.428441 0.435270 0.472045
Si Si6 0.570617 0.892734 0.819175
Si Si7 0.925802 0.824199 0.125000
Si Si8 0.384936 0.483170 0.251365
O O1 0.109888 0.750000 0.022579
O O2 0.118211 0.844437 0.083066
O O3 0.211308 0.826517 0.027818
O O4 0.096055 0.872649 0.999424
O O5 0.236741 0.121729 0.309875
O O6 0.308086 0.086367 0.372900
O O7 0.341518 0.059315 0.285535
O O8 0.258661 0.990955 0.326905
O O9 0.282521 0.750000 0.825348
O O10 0.378690 0.666260 0.817314
O O11 0.307485 0.662519 0.889695
O O12 0.122548 0.045510 0.066205
O O13 0.231955 0.097913 0.039077
O O14 0.434688 0.500000 0.500000
O O15 0.500000 0.418381 0.452248
O O16 0.500000 0.862010 0.827717
O O17 0.567850 0.932040 0.772503
O O18 0.913958 0.750000 0.139232
#
# Coordination Sequence:
#
# PCOD8320649 Si02
#       8
#    32  32  32  32  32  32  16  32
#     4  10  21  36  56  83 111 152 201 242 293 355
#     4  11  20  35  57  84 115 151 194 237 297 356
#     4  10  20  36  59  85 113 150 194 245 299 361
#     4  10  19  35  56  80 111 154 191 235 291 350
#     4  10  21  36  54  80 112 150 193 242 295 349
#     4  10  19  35  55  81 117 150 191 244 297 353
#     4   9  18  34  54  78 114 152 190 246 298 337
#     4  11  20  33  56  83 117 146 188 242 293 348
#
# _framework density 18.957460000000001
#
# number of rings (size 3 to 8) (size 9 to 14) (size 15 to 20)
#    0.000    1.800    2.667    3.600    0.000    3.200 
#    0.000    5.333    0.000    0.000    0.000    0.000 
#    0.000    4.533    0.000    0.000    0.000    0.000 
#
# Total GULP energy -1486777.396930 kJ/mol
# GULP energy per Si atom -12389.811641 kJ/mol
# Density = 1.891431 g / cm^3
# Si number density = 18.957460 Si / 1000 Ang^3
#
#
#
# Elastic Constant Matrix: (Units=GPa)
#
#
# Indices 1 2 3 4 5 6 
#
# 1 96.9976 35.8239 34.0377 0.0000 0.0000 0.0000
# 2 35.8239 96.9972 34.0378 0.0000 0.0000 0.0000
# 3 34.0377 34.0378 91.3546 0.0000 0.0000 0.0000
# 4 0.0000 0.0000 0.0000 24.5606 0.0000 0.0000
# 5 0.0000 0.0000 0.0000 0.0000 24.5605 0.0000
# 6 0.0000 0.0000 0.0000 0.0000 0.0000 -9.6994
#
#
#
# Elastic Compliance Matrix: (Units=1/GPa)
#
#
# Indices 1 2 3 4 5 6 
#
# 1 0.012826 -0.003520 -0.003467 0.000000 0.000000 0.000000
# 2 -0.003520 0.012827 -0.003467 0.000000 0.000000 0.000000
# 3 -0.003467 -0.003467 0.013530 0.000000 0.000000 0.000000
# 4 0.000000 0.000000 0.000000 0.040716 0.000000 0.000000
# 5 0.000000 0.000000 0.000000 0.000000 0.040716 0.000000
# 6 0.000000 0.000000 0.000000 0.000000 0.000000 -0.103100
#
#
# Mechanical properties :
#
#
# Convention : Reuss Voigt Hill
#
# Bulk Modulus (GPa) = 54.72590 54.79427 54.76008
# Shear Modulus (GPa) = 112.31895 19.98102 66.14999
#
# Velocity S-wave (km/s) = 7.70562 3.25005 5.91352
# Velocity P-wave (km/s) = 10.39707 6.56127 8.69337
#
# Compressibility (1/GPa) = 0.01827288
#
# Stress axis : x y z
#
# Youngs Moduli (GPa) = 77.96378 77.96342 73.90903
#
# Poissons Ratio (x) = 0.27447 0.25627
# Poissons Ratio (y) = 0.27447 0.25627
# Poissons Ratio (z) = 0.27033 0.27033
#
# Static dielectric constant tensor:
#      x y z
#    x 3.524300 0.000000 0.000000 
#    y 0.000000 3.524310 0.000000 
#    z 0.000000 0.000000 3.593800 
# 
# 
# High freq. dielectric constant tensor:
#      x y z
#    x 1.726600 0.000000 0.000000 
#    y 0.000000 1.726610 0.000000 
#    z 0.000000 0.000000 1.728090 
# 
# From -- ./inp_files/14592.got.cif
#   From: 2010.03.12/outbox.cif.g09.slc.cpg/sg141_8_cif.got.tgz:14592.got - 2010.04.03 13:18:35.
