data_PCOD8320952
_publ_section_title
;
Structure prediction by ZEFSAII (Michael W. Deem and Ramdas Pophale) SiO2 
 PCOD8320952
Probable space group: I 41/A C D
;
_chemical_formula_sum "Si O2"
_cell_formula_units_Z 184
_cell_length_a 22.372142
_cell_length_b 22.372142
_cell_length_c 18.140139
_cell_angle_alpha 90.000000
_cell_angle_beta 90.000000
_cell_angle_gamma 90.000000
_cell_volume 9079.370633
_symmetry_space_group_name_H-M "I 41/A C D"
_symmetry_group_IT_number 142
_space_group.IT_coordinate_system_code '2'
_symmetry_cell_setting 'tetragonal'
loop_
_space_group_symop_operation_xyz
x,y,z
1/4-y,3/4+x,1/4+z
-x,1/2-y,z
1/4+y,1/4-x,3/4+z
x,-y,1/2-z
1/2-x,y,-z
3/4+y,1/4+x,1/4-z
1/4-y,1/4-x,1/4-z
-x,-y,-z
3/4+y,1/4-x,3/4-z
x,1/2+y,-z
3/4-y,3/4+x,1/4-z
-x,y,1/2+z
1/2+x,-y,z
1/4-y,3/4-x,3/4+z
3/4+y,3/4+x,3/4+z
1/2+x,1/2+y,1/2+z
3/4-y,1/4+x,3/4+z
1/2-x,-y,1/2+z
3/4+y,3/4-x,1/4+z
1/2+x,1/2-y,-z
-x,1/2+y,1/2-z
1/4+y,3/4+x,3/4-z
3/4-y,3/4-x,3/4-z
1/2-x,1/2-y,1/2-z
1/4+y,3/4-x,1/4-z
1/2+x,y,1/2-z
1/4-y,1/4+x,3/4-z
1/2-x,1/2+y,z
x,1/2-y,1/2+z
3/4-y,1/4-x,1/4+z
1/4+y,1/4+x,1/4+z
loop_
_atom_site_type_symbol
_atom_site_label
_atom_site_fract_x
_atom_site_fract_y
_atom_site_fract_z
Si Si1 0.691078 0.930532 0.886853
Si Si2 0.423746 0.406312 0.528834
Si Si3 0.750000 0.481638 0.500000
Si Si4 0.502009 0.151669 0.634351
Si Si5 0.886567 0.714381 0.460545
Si Si6 0.500000 0.750000 0.625000
Si Si7 0.601600 0.048573 0.383643
O O1 0.624836 0.909404 0.905936
O O2 0.733185 0.871702 0.893771
O O3 0.691876 0.958628 0.804430
O O4 0.708208 0.978125 0.949032
O O5 0.487159 0.399115 0.571477
O O6 0.415154 0.350126 0.474565
O O7 0.420128 0.459720 0.469260
O O8 0.560619 0.193518 0.634093
O O9 0.496853 0.119434 0.713270
O O10 0.938835 0.752680 0.421964
O O11 0.826107 0.703992 0.413014
O O12 0.661651 0.088350 0.375000
#
# Coordination Sequence:
#
# PCOD8320952 Si02
#       7
#    32  32  16  32  32   8  32
#     4  11  18  31  53  80 117 141 187 229 276 325
#     4  10  18  32  50  79 111 141 178 224 282 330
#     4  10  18  28  50  84 104 142 180 234 270 310
#     4   9  18  32  51  76 105 141 186 230 275 337
#     4  10  19  28  49  80 110 138 173 227 289 330
#     4  12  16  28  54  84 108 128 174 240 280 332
#     4  10  17  29  48  84 113 138 170 228 287 330
#
# _framework density 20.265720999999999
#
# number of rings (size 3 to 8) (size 9 to 14) (size 15 to 20)
#    0.000    1.913    6.087    3.130    0.000    0.000 
#    0.000    0.000    0.000   10.435    4.522    0.000 
#    0.000    0.000    0.000    0.000    0.000    0.000 
#
# Total GULP energy -1139956.728625 kJ/mol
# GULP energy per Si atom -12390.834007 kJ/mol
# Density = 2.021960 g / cm^3
# Si number density = 20.265721 Si / 1000 Ang^3
#
#
#
# Elastic Constant Matrix: (Units=GPa)
#
#
# Indices 1 2 3 4 5 6 
#
# 1 36.2073 17.4932 27.6537 0.0000 0.0000 0.0000
# 2 17.4932 36.2075 27.6537 0.0000 0.0000 0.0000
# 3 27.6537 27.6537 135.6019 0.0000 0.0000 0.0000
# 4 0.0000 0.0000 0.0000 23.2713 0.0000 0.0000
# 5 0.0000 0.0000 0.0000 0.0000 23.2711 0.0000
# 6 0.0000 0.0000 0.0000 0.0000 0.0000 18.6609
#
#
#
# Elastic Compliance Matrix: (Units=1/GPa)
#
#
# Indices 1 2 3 4 5 6 
#
# 1 0.038504 -0.014931 -0.004807 0.000000 0.000000 0.000000
# 2 -0.014931 0.038504 -0.004807 0.000000 0.000000 0.000000
# 3 -0.004807 -0.004807 0.009335 0.000000 0.000000 0.000000
# 4 0.000000 0.000000 0.000000 0.042971 0.000000 0.000000
# 5 0.000000 0.000000 0.000000 0.000000 0.042972 0.000000
# 6 0.000000 0.000000 0.000000 0.000000 0.000000 0.053588
#
#
# Mechanical properties :
#
#
# Convention : Reuss Voigt Hill
#
# Bulk Modulus (GPa) = 26.84424 39.29085 33.06755
# Shear Modulus (GPa) = 17.39835 22.05506 19.72671
#
# Velocity S-wave (km/s) = 2.93321 3.30251 3.12332
# Velocity P-wave (km/s) = 4.97459 5.82855 5.41842
#
# Compressibility (1/GPa) = 0.03725194
#
# Stress axis : x y z
#
# Youngs Moduli (GPa) = 25.97115 25.97134 107.12074
#
# Poissons Ratio (x) = 0.38778 0.51496
# Poissons Ratio (y) = 0.38778 0.51496
# Poissons Ratio (z) = 0.12485 0.12485
#
# Static dielectric constant tensor:
#      x y z
#    x 3.449340 0.000000 0.000000 
#    y 0.000000 3.449330 0.000000 
#    z 0.000000 0.000000 4.207070 
# 
# 
# High freq. dielectric constant tensor:
#      x y z
#    x 1.753800 0.000000 0.000000 
#    y 0.000000 1.753800 0.000000 
#    z 0.000000 0.000000 1.814890 
# 
# From -- ./inp_files/7650.got.cif
#   From: 2010.03.12/outbox.cif.g09.slc.cpg/sg142_4_cif.got.tgz:7650.got - 2010.04.03 13:27:16.
