data_PCOD8320457
_publ_section_title
;
Structure prediction by ZEFSAII (Michael W. Deem and Ramdas Pophale) SiO2 
 PCOD8320457
Probable space group: I 4/M C M
;
_chemical_formula_sum "Si O2"
_cell_formula_units_Z 144
_cell_length_a 28.533465
_cell_length_b 28.533465
_cell_length_c 8.919080
_cell_angle_alpha 90.000000
_cell_angle_beta 90.000000
_cell_angle_gamma 90.000000
_cell_volume 7261.545908
_symmetry_space_group_name_H-M "I 4/M C M"
_symmetry_group_IT_number 140
_symmetry_cell_setting 'tetragonal'
loop_
_space_group_symop_operation_xyz
x,y,z
-y,x,z
-x,-y,z
y,-x,z
x,-y,1/2-z
-x,y,1/2-z
y,x,1/2-z
-y,-x,1/2-z
-x,-y,-z
y,-x,-z
x,y,-z
-y,x,-z
-x,y,1/2+z
x,-y,1/2+z
-y,-x,1/2+z
y,x,1/2+z
1/2+x,1/2+y,1/2+z
1/2-y,1/2+x,1/2+z
1/2-x,1/2-y,1/2+z
1/2+y,1/2-x,1/2+z
1/2+x,1/2-y,-z
1/2-x,1/2+y,-z
1/2+y,1/2+x,-z
1/2-y,1/2-x,-z
1/2-x,1/2-y,1/2-z
1/2+y,1/2-x,1/2-z
1/2+x,1/2+y,1/2-z
1/2-y,1/2+x,1/2-z
1/2-x,1/2+y,z
1/2+x,1/2-y,z
1/2-y,1/2-x,z
1/2+y,1/2+x,z
loop_
_atom_site_type_symbol
_atom_site_label
_atom_site_fract_x
_atom_site_fract_y
_atom_site_fract_z
Si Si1 0.969869 0.928645 0.000000
Si Si2 0.050272 0.375486 0.176196
Si Si3 0.159228 0.045760 0.333650
Si Si4 0.701051 0.633827 0.676710
Si Si5 0.798565 0.624239 0.171702
O O1 0.958252 0.897284 0.853048
O O2 0.025008 0.939294 0.000000
O O3 0.079788 0.420213 0.235753
O O4 0.078159 0.328047 0.216188
O O5 0.000000 0.374393 0.250000
O O6 0.044006 0.379695 0.000000
O O7 0.182935 0.049268 0.500000
O O8 0.170334 0.090791 0.235408
O O9 0.179436 0.000000 0.250000
O O10 0.681636 0.681636 0.750000
O O11 0.695055 0.637246 0.500000
O O12 0.755047 0.627184 0.717427
O O13 0.829866 0.670135 0.194368
O O14 0.781284 0.620915 0.000000
#
# Coordination Sequence:
#
# PCOD8320457 Si02
#       5
#    16  32  32  32  32
#     4   9  22  40  62  92 121 158 206 256 309 367
#     4   9  19  36  60  90 127 166 206 249 294 350
#     4  10  23  38  62  86 121 160 199 253 303 372
#     4  12  26  42  64  89 121 158 202 256 313 375
#     4   9  20  42  67  91 121 159 203 253 308 369
#
# _framework density 19.830489
#
# number of rings (size 3 to 8) (size 9 to 14) (size 15 to 20)
#    0.667    1.444    0.000    4.000    3.111    3.333 
#    0.000    6.667    0.000    0.000    0.000    0.000 
#    0.000    0.000    0.000    0.000    0.000    0.000 
#
# Total GULP energy -892662.788661 kJ/mol
# GULP energy per Si atom -12398.094287 kJ/mol
# Density = 1.978535 g / cm^3
# Si number density = 19.830489 Si / 1000 Ang^3
#
#
#
# Elastic Constant Matrix: (Units=GPa)
#
#
# Indices 1 2 3 4 5 6 
#
# 1 131.6533 61.3792 59.4449 0.0000 0.0000 0.0000
# 2 61.3792 131.6533 59.4449 0.0000 0.0000 0.0000
# 3 59.4449 59.4449 129.7481 0.0000 0.0000 0.0000
# 4 0.0000 0.0000 0.0000 36.2450 0.0000 0.0000
# 5 0.0000 0.0000 0.0000 0.0000 36.2450 0.0000
# 6 0.0000 0.0000 0.0000 0.0000 0.0000 15.6126
#
#
#
# Elastic Compliance Matrix: (Units=1/GPa)
#
#
# Indices 1 2 3 4 5 6 
#
# 1 0.010723 -0.003507 -0.003306 0.000000 0.000000 0.000000
# 2 -0.003507 0.010723 -0.003306 0.000000 0.000000 0.000000
# 3 -0.003306 -0.003306 0.010737 0.000000 0.000000 0.000000
# 4 0.000000 0.000000 0.000000 0.027590 0.000000 0.000000
# 5 0.000000 0.000000 0.000000 0.000000 0.027590 0.000000
# 6 0.000000 0.000000 0.000000 0.000000 0.000000 0.064051
#
#
# Mechanical properties :
#
#
# Convention : Reuss Voigt Hill
#
# Bulk Modulus (GPa) = 83.71724 83.73250 83.72487
# Shear Modulus (GPa) = 28.46801 31.80622 30.13712
#
# Velocity S-wave (km/s) = 3.79300 4.00922 3.90261
# Velocity P-wave (km/s) = 7.84159 7.98421 7.91322
#
# Compressibility (1/GPa) = 0.01194497
#
# Stress axis : x y z
#
# Youngs Moduli (GPa) = 93.25335 93.25335 93.13566
#
# Poissons Ratio (x) = 0.32699 0.30795
# Poissons Ratio (y) = 0.32699 0.30795
# Poissons Ratio (z) = 0.30834 0.30834
#
# Static dielectric constant tensor:
#      x y z
#    x 3.865550 0.000000 0.000000 
#    y 0.000000 3.865550 0.000000 
#    z 0.000000 0.000000 3.516340 
# 
# 
# High freq. dielectric constant tensor:
#      x y z
#    x 1.772750 0.000000 0.000000 
#    y 0.000000 1.772750 0.000000 
#    z 0.000000 0.000000 1.772170 
# 
# From -- ./inp_files/1681.got.cif
#   From: 2010.06.25/outbox.cif.g09.slc.cpg/sg140_1_cif.got.tgz:1681.got - 2010.06.28 10:53:23.
