data_PCOD8320956
_publ_section_title
;
Structure prediction by ZEFSAII (Michael W. Deem and Ramdas Pophale) SiO2 
 PCOD8320956
Probable space group: I 41/A C D
;
_chemical_formula_sum "Si O2"
_cell_formula_units_Z 160
_cell_length_a 23.444307
_cell_length_b 23.444307
_cell_length_c 12.980385
_cell_angle_alpha 90.000000
_cell_angle_beta 90.000000
_cell_angle_gamma 90.000000
_cell_volume 7134.480798
_symmetry_space_group_name_H-M "I 41/A C D"
_symmetry_group_IT_number 142
_space_group.IT_coordinate_system_code '2'
_symmetry_cell_setting 'tetragonal'
loop_
_space_group_symop_operation_xyz
x,y,z
1/4-y,3/4+x,1/4+z
-x,1/2-y,z
1/4+y,1/4-x,3/4+z
x,-y,1/2-z
1/2-x,y,-z
3/4+y,1/4+x,1/4-z
1/4-y,1/4-x,1/4-z
-x,-y,-z
3/4+y,1/4-x,3/4-z
x,1/2+y,-z
3/4-y,3/4+x,1/4-z
-x,y,1/2+z
1/2+x,-y,z
1/4-y,3/4-x,3/4+z
3/4+y,3/4+x,3/4+z
1/2+x,1/2+y,1/2+z
3/4-y,1/4+x,3/4+z
1/2-x,-y,1/2+z
3/4+y,3/4-x,1/4+z
1/2+x,1/2-y,-z
-x,1/2+y,1/2-z
1/4+y,3/4+x,3/4-z
3/4-y,3/4-x,3/4-z
1/2-x,1/2-y,1/2-z
1/4+y,3/4-x,1/4-z
1/2+x,y,1/2-z
1/4-y,1/4+x,3/4-z
1/2-x,1/2+y,z
x,1/2-y,1/2+z
3/4-y,1/4-x,1/4+z
1/4+y,1/4+x,1/4+z
loop_
_atom_site_type_symbol
_atom_site_label
_atom_site_fract_x
_atom_site_fract_y
_atom_site_fract_z
Si Si1 0.529903 0.422496 0.925614
Si Si2 0.384136 0.111726 0.082399
Si Si3 0.205870 0.682325 0.168986
Si Si4 0.856335 0.481807 0.601789
Si Si5 0.644584 0.679633 0.049021
O O1 0.555372 0.480861 0.878313
O O2 0.496408 0.393259 0.831521
O O3 0.580840 0.384671 0.975067
O O4 0.488429 0.434166 0.022601
O O5 0.336142 0.161589 0.076918
O O6 0.425386 0.124116 0.180253
O O7 0.355162 0.049713 0.096462
O O8 0.205219 0.627538 0.244192
O O9 0.792754 0.457247 0.625000
O O10 0.901430 0.457694 0.686862
O O11 0.601065 0.648936 0.125000
#
# Coordination Sequence:
#
# PCOD8320956 Si02
#       5
#    32  32  32  32  32
#     4   9  19  32  51  87 123 146 195 249 278 351
#     4  11  18  29  57  82 119 160 184 244 303 336
#     4   9  17  31  46  81 122 146 191 237 289 346
#     4   9  16  26  44  81 117 146 190 234 285 354
#     4  10  17  32  53  87 121 148 199 239 286 350
#
# _framework density 22.426299
#
# number of rings (size 3 to 8) (size 9 to 14) (size 15 to 20)
#    0.000    2.400    6.000    1.800    0.000    0.000 
#    0.000    0.000    0.000    1.800   20.800    1.400 
#    0.000    0.000    0.000    0.000    0.000    0.000 
#
# Total GULP energy -991279.320864 kJ/mol
# GULP energy per Si atom -12390.991511 kJ/mol
# Density = 2.237526 g / cm^3
# Si number density = 22.426299 Si / 1000 Ang^3
#
#
#
# Elastic Constant Matrix: (Units=GPa)
#
#
# Indices 1 2 3 4 5 6 
#
# 1 78.8714 59.1405 28.5572 0.0000 0.0000 0.0000
# 2 59.1405 78.8714 28.5573 0.0000 0.0000 0.0000
# 3 28.5572 28.5573 44.0729 0.0000 0.0000 0.0000
# 4 0.0000 0.0000 0.0000 28.3512 0.0000 0.0000
# 5 0.0000 0.0000 0.0000 0.0000 28.3519 0.0000
# 6 0.0000 0.0000 0.0000 0.0000 0.0000 29.7715
#
#
#
# Elastic Compliance Matrix: (Units=1/GPa)
#
#
# Indices 1 2 3 4 5 6 
#
# 1 0.030291 -0.020391 -0.006415 0.000000 0.000000 0.000000
# 2 -0.020391 0.030291 -0.006415 0.000000 0.000000 0.000000
# 3 -0.006415 -0.006415 0.031003 0.000000 0.000000 0.000000
# 4 0.000000 0.000000 0.000000 0.035272 0.000000 0.000000
# 5 0.000000 0.000000 0.000000 0.000000 0.035271 0.000000
# 6 0.000000 0.000000 0.000000 0.000000 0.000000 0.033589
#
#
# Mechanical properties :
#
#
# Convention : Reuss Voigt Hill
#
# Bulk Modulus (GPa) = 39.77129 48.25841 44.01485
# Shear Modulus (GPa) = 18.48150 22.99895 20.74023
#
# Velocity S-wave (km/s) = 2.87383 3.20587 3.04438
# Velocity P-wave (km/s) = 5.36512 5.93876 5.65922
#
# Compressibility (1/GPa) = 0.02514376
#
# Stress axis : x y z
#
# Youngs Moduli (GPa) = 33.01288 33.01282 32.25482
#
# Poissons Ratio (x) = 0.67315 0.20692
# Poissons Ratio (y) = 0.67315 0.20692
# Poissons Ratio (z) = 0.21178 0.21178
#
# Static dielectric constant tensor:
#      x y z
#    x 3.908140 0.000000 0.000000 
#    y 0.000000 3.908160 0.000000 
#    z 0.000000 0.000000 3.807970 
# 
# 
# High freq. dielectric constant tensor:
#      x y z
#    x 1.861640 0.000000 0.000000 
#    y 0.000000 1.861640 0.000000 
#    z 0.000000 0.000000 1.868190 
# 
# From -- ./inp_files/5449.got.cif
#   From: 2010.03.12/outbox.cif.g09.slc.cpg/sg142_3_cif.got.tgz:5449.got - 2010.04.03 13:27:16.
