data_PCOD8320231
_publ_section_title
;
Structure prediction by ZEFSAII (Michael W. Deem and Ramdas Pophale) SiO2 
 PCOD8320231
Probable space group: I 4/M C M
;
_chemical_formula_sum "Si O2"
_cell_formula_units_Z 160
_cell_length_a 30.252210
_cell_length_b 30.252210
_cell_length_c 9.091784
_cell_angle_alpha 90.000000
_cell_angle_beta 90.000000
_cell_angle_gamma 90.000000
_cell_volume 8320.766258
_symmetry_space_group_name_H-M "I 4/M C M"
_symmetry_group_IT_number 140
_symmetry_cell_setting 'tetragonal'
loop_
_space_group_symop_operation_xyz
x,y,z
-y,x,z
-x,-y,z
y,-x,z
x,-y,1/2-z
-x,y,1/2-z
y,x,1/2-z
-y,-x,1/2-z
-x,-y,-z
y,-x,-z
x,y,-z
-y,x,-z
-x,y,1/2+z
x,-y,1/2+z
-y,-x,1/2+z
y,x,1/2+z
1/2+x,1/2+y,1/2+z
1/2-y,1/2+x,1/2+z
1/2-x,1/2-y,1/2+z
1/2+y,1/2-x,1/2+z
1/2+x,1/2-y,-z
1/2-x,1/2+y,-z
1/2+y,1/2+x,-z
1/2-y,1/2-x,-z
1/2-x,1/2-y,1/2-z
1/2+y,1/2-x,1/2-z
1/2+x,1/2+y,1/2-z
1/2-y,1/2+x,1/2-z
1/2-x,1/2+y,z
1/2+x,1/2-y,z
1/2-y,1/2-x,z
1/2+y,1/2+x,z
loop_
_atom_site_type_symbol
_atom_site_label
_atom_site_fract_x
_atom_site_fract_y
_atom_site_fract_z
Si Si1 0.453125 0.613740 0.825782
Si Si2 0.388640 0.888640 0.830291
Si Si3 0.257904 0.312154 0.342086
Si Si4 0.953700 0.546301 0.677246
Si Si5 0.287075 0.885784 0.829151
Si Si6 0.955207 0.214603 0.670392
O O1 0.500000 0.603287 0.750000
O O2 0.416331 0.583670 0.750000
O O3 0.439182 0.664640 0.795661
O O4 0.456328 0.603779 0.000000
O O5 0.417372 0.917372 0.718312
O O6 0.337398 0.900251 0.797472
O O7 0.400044 0.900044 0.000000
O O8 0.303064 0.303064 0.250000
O O9 0.270995 0.333344 0.500000
O O10 0.234742 0.265259 0.370968
O O11 0.222649 0.341660 0.258022
O O12 0.938962 0.500000 0.750000
O O13 0.957872 0.542129 0.500000
O O14 0.251097 0.920920 0.772148
O O15 0.280600 0.875503 0.000000
O O16 0.964235 0.220931 0.500000
O O17 0.000000 0.225941 0.750000
#
# Coordination Sequence:
#
# PCOD8320231 Si02
#       6
#    32  16  32  16  32  32
#     4  10  20  36  57  82 112 145 184 231 281 335
#     4  10  21  37  59  87 121 155 189 233 288 341
#     4  10  20  33  51  75 105 141 184 228 276 327
#     4  11  23  42  67  91 119 149 186 231 284 349
#     4  10  20  36  57  82 114 151 190 235 284 334
#     4   9  20  37  56  79 109 146 188 228 274 328
#
# _framework density 19.228998000000001
#
# number of rings (size 3 to 8) (size 9 to 14) (size 15 to 20)
#    0.000    2.100    1.000    2.400    0.000    5.000 
#    0.000    5.000    0.000    0.000    0.000    0.000 
#    0.000    0.000    0.000    0.000    0.000    0.000 
#
# Total GULP energy -991680.059559 kJ/mol
# GULP energy per Si atom -12396.000744 kJ/mol
# Density = 1.918523 g / cm^3
# Si number density = 19.228998 Si / 1000 Ang^3
#
#
#
# Elastic Constant Matrix: (Units=GPa)
#
#
# Indices 1 2 3 4 5 6 
#
# 1 98.6827 75.8858 57.9171 0.0000 0.0000 0.0000
# 2 75.8858 98.6793 57.9170 0.0000 0.0000 0.0000
# 3 57.9171 57.9170 113.0893 0.0000 0.0000 0.0000
# 4 0.0000 0.0000 0.0000 28.4500 0.0000 0.0000
# 5 0.0000 0.0000 0.0000 0.0000 28.4501 0.0000
# 6 0.0000 0.0000 0.0000 0.0000 0.0000 40.1797
#
#
#
# Elastic Compliance Matrix: (Units=1/GPa)
#
#
# Indices 1 2 3 4 5 6 
#
# 1 0.026272 -0.017596 -0.004444 0.000000 0.000000 0.000000
# 2 -0.017596 0.026274 -0.004444 0.000000 0.000000 0.000000
# 3 -0.004444 -0.004444 0.013394 0.000000 0.000000 0.000000
# 4 0.000000 0.000000 0.000000 0.035149 0.000000 0.000000
# 5 0.000000 0.000000 0.000000 0.000000 0.035149 0.000000
# 6 0.000000 0.000000 0.000000 0.000000 0.000000 0.024888
#
#
# Mechanical properties :
#
#
# Convention : Reuss Voigt Hill
#
# Bulk Modulus (GPa) = 77.08235 77.09901 77.09068
# Shear Modulus (GPa) = 22.89179 27.33139 25.11159
#
# Velocity S-wave (km/s) = 3.45408 3.77419 3.61768
# Velocity P-wave (km/s) = 7.48873 7.69252 7.59131
#
# Compressibility (1/GPa) = 0.01297314
#
# Stress axis : x y z
#
# Youngs Moduli (GPa) = 38.06274 38.06094 74.65827
#
# Poissons Ratio (x) = 0.66971 0.33175
# Poissons Ratio (y) = 0.66974 0.33180
# Poissons Ratio (z) = 0.16914 0.16915
#
# Static dielectric constant tensor:
#      x y z
#    x 3.500610 0.000000 0.000000 
#    y 0.000000 3.500600 0.000000 
#    z 0.000000 0.000000 3.732090 
# 
# 
# High freq. dielectric constant tensor:
#      x y z
#    x 1.742090 0.000000 0.000000 
#    y 0.000000 1.742090 0.000000 
#    z 0.000000 0.000000 1.758450 
# 
# From -- ./inp_files/1819.got.cif
#   From: 2010.06.25/outbox.cif.g09.slc.cpg/sg140_1_cif.got.tgz:1819.got - 2010.06.28 10:53:23.
