data_PCOD8320485
_publ_section_title
;
Structure prediction by ZEFSAII (Michael W. Deem and Ramdas Pophale) SiO2 
 PCOD8320485
Probable space group: I 4/M C M
;
_chemical_formula_sum "Si O2"
_cell_formula_units_Z 176
_cell_length_a 22.155471
_cell_length_b 22.155471
_cell_length_c 17.290650
_cell_angle_alpha 90.000000
_cell_angle_beta 90.000000
_cell_angle_gamma 90.000000
_cell_volume 8487.373101
_symmetry_space_group_name_H-M "I 4/M C M"
_symmetry_group_IT_number 140
_symmetry_cell_setting 'tetragonal'
loop_
_space_group_symop_operation_xyz
x,y,z
-y,x,z
-x,-y,z
y,-x,z
x,-y,1/2-z
-x,y,1/2-z
y,x,1/2-z
-y,-x,1/2-z
-x,-y,-z
y,-x,-z
x,y,-z
-y,x,-z
-x,y,1/2+z
x,-y,1/2+z
-y,-x,1/2+z
y,x,1/2+z
1/2+x,1/2+y,1/2+z
1/2-y,1/2+x,1/2+z
1/2-x,1/2-y,1/2+z
1/2+y,1/2-x,1/2+z
1/2+x,1/2-y,-z
1/2-x,1/2+y,-z
1/2+y,1/2+x,-z
1/2-y,1/2-x,-z
1/2-x,1/2-y,1/2-z
1/2+y,1/2-x,1/2-z
1/2+x,1/2+y,1/2-z
1/2-y,1/2+x,1/2-z
1/2-x,1/2+y,z
1/2+x,1/2-y,z
1/2-y,1/2-x,z
1/2+y,1/2+x,z
loop_
_atom_site_type_symbol
_atom_site_label
_atom_site_fract_x
_atom_site_fract_y
_atom_site_fract_z
Si Si1 0.859060 0.459116 0.914965
Si Si2 0.546730 0.046730 0.907993
Si Si3 0.027713 0.857708 0.828489
Si Si4 0.063188 0.727998 0.783733
Si Si5 0.332504 0.262853 0.684090
Si Si6 0.906982 0.857838 0.090916
O O1 0.916927 0.416927 0.921827
O O2 0.885000 0.524854 0.884447
O O3 0.810684 0.426562 0.860653
O O4 0.829077 0.466825 0.000000
O O5 0.500000 0.000000 0.868773
O O6 0.542810 0.042810 0.000000
O O7 0.063502 0.798323 0.803649
O O8 0.076613 0.900251 0.869052
O O9 0.000000 0.887719 0.750000
O O10 0.975042 0.838336 0.888088
O O11 0.116545 0.719374 0.721762
O O12 0.000000 0.705861 0.750000
O O13 0.304021 0.304021 0.750000
O O14 0.281181 0.218820 0.647444
O O15 0.360258 0.306648 0.618940
O O16 0.898582 0.865128 0.000000
#
# Coordination Sequence:
#
# PCOD8320485 Si02
#       6
#    32  16  32  32  32  32
#     4   9  18  34  56  82 114 153 202 259 312 364
#     4   7  12  28  52  74 106 150 188 239 315 373
#     4  11  22  43  69  90 126 168 210 248 319 384
#     4  11  21  38  61  85 120 161 211 254 305 371
#     4  11  22  42  67  90 124 173 217 256 309 377
#     4  12  24  42  67 100 132 163 208 266 322 380
#
# _framework density 20.736688999999998
#
# number of rings (size 3 to 8) (size 9 to 14) (size 15 to 20)
#    0.000    1.545    5.455    2.727    0.000    2.182 
#    3.273    1.818    0.000    0.000    0.000    0.000 
#    0.000    0.000    0.000    0.000    0.000    0.000 
#
# Total GULP energy -1090516.631313 kJ/mol
# GULP energy per Si atom -12392.234447 kJ/mol
# Density = 2.068949 g / cm^3
# Si number density = 20.736689 Si / 1000 Ang^3
#
#
#
# Elastic Constant Matrix: (Units=GPa)
#
#
# Indices 1 2 3 4 5 6 
#
# 1 70.2661 31.8728 39.3043 0.0000 0.0000 0.0000
# 2 31.8728 70.2661 39.3043 0.0000 0.0000 0.0000
# 3 39.3043 39.3043 120.0506 0.0000 0.0000 0.0000
# 4 0.0000 0.0000 0.0000 26.7509 0.0000 0.0000
# 5 0.0000 0.0000 0.0000 0.0000 26.7509 0.0000
# 6 0.0000 0.0000 0.0000 0.0000 0.0000 26.2547
#
#
#
# Elastic Compliance Matrix: (Units=1/GPa)
#
#
# Indices 1 2 3 4 5 6 
#
# 1 0.019567 -0.006479 -0.004285 0.000000 0.000000 0.000000
# 2 -0.006479 0.019567 -0.004285 0.000000 0.000000 0.000000
# 3 -0.004285 -0.004285 0.011136 0.000000 0.000000 0.000000
# 4 0.000000 0.000000 0.000000 0.037382 0.000000 0.000000
# 5 0.000000 0.000000 0.000000 0.000000 0.037382 0.000000
# 6 0.000000 0.000000 0.000000 0.000000 0.000000 0.038088
#
#
# Mechanical properties :
#
#
# Convention : Reuss Voigt Hill
#
# Bulk Modulus (GPa) = 49.57325 53.50508 51.53916
# Shear Modulus (GPa) = 25.00688 25.95808 25.48248
#
# Velocity S-wave (km/s) = 3.47641 3.54191 3.50931
# Velocity P-wave (km/s) = 6.33023 6.52572 6.42872
#
# Compressibility (1/GPa) = 0.02017217
#
# Stress axis : x y z
#
# Youngs Moduli (GPa) = 51.10547 51.10547 89.80101
#
# Poissons Ratio (x) = 0.33110 0.38481
# Poissons Ratio (y) = 0.33110 0.38481
# Poissons Ratio (z) = 0.21900 0.21900
#
# Static dielectric constant tensor:
#      x y z
#    x 3.769000 0.000000 0.000000 
#    y 0.000000 3.769000 0.000000 
#    z 0.000000 0.000000 3.643020 
# 
# 
# High freq. dielectric constant tensor:
#      x y z
#    x 1.808000 0.000000 0.000000 
#    y 0.000000 1.808000 0.000000 
#    z 0.000000 0.000000 1.792220 
# 
# From -- ./inp_files/4894.got.cif
#   From: 2010.06.25/outbox.cif.g09.slc.cpg/sg140_3_cif.got.tgz:4894.got - 2010.06.28 10:53:23.
