data_PCOD8320926
_publ_section_title
;
Structure prediction by ZEFSAII (Michael W. Deem and Ramdas Pophale) SiO2 
 PCOD8320926
Probable space group: I 41/A M D
;
_chemical_formula_sum "Si O2"
_cell_formula_units_Z 80
_cell_length_a 28.233653
_cell_length_b 28.233653
_cell_length_c 4.811335
_cell_angle_alpha 90.000000
_cell_angle_beta 90.000000
_cell_angle_gamma 90.000000
_cell_volume 3835.303549
_symmetry_space_group_name_H-M "I 41/A M D"
_symmetry_group_IT_number 141
_space_group.IT_coordinate_system_code '2'
_symmetry_cell_setting 'tetragonal'
loop_
_space_group_symop_operation_xyz
x,y,z
1/4-y,3/4+x,1/4+z
-x,1/2-y,z
1/4+y,1/4-x,3/4+z
x,-y,-z
-x,1/2+y,-z
1/4+y,3/4+x,1/4-z
1/4-y,1/4-x,3/4-z
-x,-y,-z
3/4+y,1/4-x,3/4-z
x,1/2+y,-z
3/4-y,3/4+x,1/4-z
-x,y,z
x,1/2-y,z
3/4-y,1/4-x,3/4+z
3/4+y,3/4+x,1/4+z
1/2+x,1/2+y,1/2+z
3/4-y,1/4+x,3/4+z
1/2-x,-y,1/2+z
3/4+y,3/4-x,1/4+z
1/2+x,1/2-y,1/2-z
1/2-x,y,1/2-z
3/4+y,1/4+x,3/4-z
3/4-y,3/4-x,1/4-z
1/2-x,1/2-y,1/2-z
1/4+y,3/4-x,1/4-z
1/2+x,y,1/2-z
1/4-y,1/4+x,3/4-z
1/2-x,1/2+y,1/2+z
1/2+x,-y,1/2+z
1/4-y,3/4-x,1/4+z
1/4+y,1/4+x,3/4+z
loop_
_atom_site_type_symbol
_atom_site_label
_atom_site_fract_x
_atom_site_fract_y
_atom_site_fract_z
Si Si1 0.610111 0.416821 0.932311
Si Si2 0.553466 0.945484 0.574329
Si Si3 0.198531 0.051470 0.875000
O O1 0.584477 0.411156 0.630855
O O2 0.660497 0.441646 0.871737
O O3 0.619904 0.369904 0.125000
O O4 0.574509 0.447518 0.116552
O O5 0.500000 0.925803 0.575247
O O6 0.555691 0.000000 0.500000
O O7 0.250000 0.058619 0.750000
#
# Coordination Sequence:
#
# PCOD8320926 Si02
#       3
#    32  32  16
#     4  12  24  42  62  89 128 169 216 265 320 373
#     4  11  24  41  65  91 122 167 221 276 331 383
#     4  12  30  40  60  88 134 188 233 258 300 372
#
# _framework density 20.858844999999999
#
# number of rings (size 3 to 8) (size 9 to 14) (size 15 to 20)
#    0.000    0.400    4.000    3.600    8.400    3.200 
#    0.000    0.000    0.000    0.000    0.000    0.000 
#    0.000   56.000    0.000    0.000    0.000    0.000 
#
# Total GULP energy -495581.035799 kJ/mol
# GULP energy per Si atom -12389.525895 kJ/mol
# Density = 2.081137 g / cm^3
# Si number density = 20.858845 Si / 1000 Ang^3
#
#
#
# Elastic Constant Matrix: (Units=GPa)
#
#
# Indices 1 2 3 4 5 6 
#
# 1 125.8779 3.8599 34.5518 0.0000 0.0000 0.0000
# 2 3.8599 125.8813 34.5505 0.0000 0.0000 0.0000
# 3 34.5518 34.5505 132.7200 0.0000 0.0000 0.0000
# 4 0.0000 0.0000 0.0000 28.2380 0.0000 0.0000
# 5 0.0000 0.0000 0.0000 0.0000 28.2375 0.0000
# 6 0.0000 0.0000 0.0000 0.0000 0.0000 7.6641
#
#
#
# Elastic Compliance Matrix: (Units=1/GPa)
#
#
# Indices 1 2 3 4 5 6 
#
# 1 0.008572 0.000377 -0.002330 0.000000 0.000000 0.000000
# 2 0.000377 0.008572 -0.002330 0.000000 0.000000 0.000000
# 3 -0.002330 -0.002330 0.008748 0.000000 0.000000 0.000000
# 4 0.000000 0.000000 0.000000 0.035413 0.000000 0.000000
# 5 0.000000 0.000000 0.000000 0.000000 0.035414 0.000000
# 6 0.000000 0.000000 0.000000 0.000000 0.000000 0.130479
#
#
# Mechanical properties :
#
#
# Convention : Reuss Voigt Hill
#
# Bulk Modulus (GPa) = 57.71562 58.93374 58.32468
# Shear Modulus (GPa) = 20.70065 33.59572 27.14818
#
# Velocity S-wave (km/s) = 3.15368 4.01761 3.61157
# Velocity P-wave (km/s) = 6.40239 7.05950 6.73896
#
# Compressibility (1/GPa) = 0.01732633
#
# Stress axis : x y z
#
# Youngs Moduli (GPa) = 116.65724 116.66139 114.31725
#
# Poissons Ratio (x) = -0.04393 0.26632
# Poissons Ratio (y) = -0.04393 0.26630
# Poissons Ratio (z) = 0.27177 0.27176
#
# Static dielectric constant tensor:
#      x y z
#    x 3.882730 0.000000 0.000000 
#    y 0.000000 3.882780 0.000000 
#    z 0.000000 0.000000 4.346820 
# 
# 
# High freq. dielectric constant tensor:
#      x y z
#    x 1.788860 0.000000 0.000000 
#    y 0.000000 1.788860 0.000000 
#    z 0.000000 0.000000 1.857560 
# 
# From -- ./inp_files/1098.got.cif
#   From: 2010.03.12/outbox.cif.g09.slc.cpg/sg141_1_cif.got.tgz:1098.got - 2010.04.03 13:18:35.
