data_PCOD8320837
_publ_section_title
;
Structure prediction by ZEFSAII (Michael W. Deem and Ramdas Pophale) SiO2 
 PCOD8320837
Probable space group: I 41/A M D
;
_chemical_formula_sum "Si O2"
_cell_formula_units_Z 192
_cell_length_a 16.578011
_cell_length_b 16.578011
_cell_length_c 32.223760
_cell_angle_alpha 90.000000
_cell_angle_beta 90.000000
_cell_angle_gamma 90.000000
_cell_volume 8856.070420
_symmetry_space_group_name_H-M "I 41/A M D"
_symmetry_group_IT_number 141
_space_group.IT_coordinate_system_code '2'
_symmetry_cell_setting 'tetragonal'
loop_
_space_group_symop_operation_xyz
x,y,z
1/4-y,3/4+x,1/4+z
-x,1/2-y,z
1/4+y,1/4-x,3/4+z
x,-y,-z
-x,1/2+y,-z
1/4+y,3/4+x,1/4-z
1/4-y,1/4-x,3/4-z
-x,-y,-z
3/4+y,1/4-x,3/4-z
x,1/2+y,-z
3/4-y,3/4+x,1/4-z
-x,y,z
x,1/2-y,z
3/4-y,1/4-x,3/4+z
3/4+y,3/4+x,1/4+z
1/2+x,1/2+y,1/2+z
3/4-y,1/4+x,3/4+z
1/2-x,-y,1/2+z
3/4+y,3/4-x,1/4+z
1/2+x,1/2-y,1/2-z
1/2-x,y,1/2-z
3/4+y,1/4+x,3/4-z
3/4-y,3/4-x,1/4-z
1/2-x,1/2-y,1/2-z
1/4+y,3/4-x,1/4-z
1/2+x,y,1/2-z
1/4-y,1/4+x,3/4-z
1/2-x,1/2+y,1/2+z
1/2+x,-y,1/2+z
1/4-y,3/4-x,1/4+z
1/4+y,1/4+x,3/4+z
loop_
_atom_site_type_symbol
_atom_site_label
_atom_site_fract_x
_atom_site_fract_y
_atom_site_fract_z
Si Si1 0.822894 0.040361 0.954878
Si Si2 0.842462 0.465619 0.333155
Si Si3 0.684832 0.342496 0.937338
Si Si4 0.320058 0.250000 0.717075
Si Si5 0.365963 0.660178 0.607271
Si Si6 0.000000 0.842520 0.953044
Si Si7 0.592545 0.158008 0.230289
O O1 0.769135 0.121458 0.954064
O O2 0.915799 0.063850 0.941001
O O3 0.777752 0.981765 0.922996
O O4 0.823607 0.000000 0.000000
O O5 0.834467 0.415534 0.375000
O O6 0.918304 0.525624 0.338705
O O7 0.851911 0.401995 0.296257
O O8 0.701562 0.250000 0.926655
O O9 0.649621 0.385490 0.896542
O O10 0.615899 0.352166 0.971969
O O11 0.250000 0.250000 0.750000
O O12 0.397896 0.250000 0.747226
O O13 0.395141 0.750000 0.620363
O O14 0.421480 0.621444 0.570493
O O15 0.000000 0.750000 0.943498
O O16 0.500000 0.149665 0.215613
O O17 0.622596 0.250000 0.224581
#
# Coordination Sequence:
#
# PCOD8320837 Si02
#       7
#    32  32  32  16  32  16  32
#     4  11  22  43  63  93 128 168 219 271 329 405
#     4  12  24  40  62  91 128 166 220 275 326 390
#     4  11  22  40  65  93 129 172 217 269 326 398
#     4  10  22  40  66  90 128 170 212 270 332 402
#     4  11  22  38  62  94 132 166 211 270 336 392
#     4  10  22  38  64 100 128 162 210 276 340 396
#     4  10  23  42  64  90 126 176 225 267 323 391
#
# _framework density 21.680043000000001
#
# number of rings (size 3 to 8) (size 9 to 14) (size 15 to 20)
#    0.000    1.167    4.167    3.000    0.000    2.667 
#    0.000    1.667    0.000    0.000    0.000    0.000 
#    0.000    0.000    0.000    0.000    0.000    0.000 
#
# Total GULP energy -1189744.741605 kJ/mol
# GULP energy per Si atom -12393.174392 kJ/mol
# Density = 2.163070 g / cm^3
# Si number density = 21.680043 Si / 1000 Ang^3
#
#
#
# Elastic Constant Matrix: (Units=GPa)
#
#
# Indices 1 2 3 4 5 6 
#
# 1 117.4325 43.9743 26.2190 0.0000 0.0000 0.0000
# 2 43.9743 117.4333 26.2189 0.0000 0.0000 0.0000
# 3 26.2190 26.2189 67.8753 0.0000 0.0000 0.0000
# 4 0.0000 0.0000 0.0000 30.0904 0.0000 0.0000
# 5 0.0000 0.0000 0.0000 0.0000 30.0902 0.0000
# 6 0.0000 0.0000 0.0000 0.0000 0.0000 27.9753
#
#
#
# Elastic Compliance Matrix: (Units=1/GPa)
#
#
# Indices 1 2 3 4 5 6 
#
# 1 0.010349 -0.003264 -0.002737 0.000000 0.000000 0.000000
# 2 -0.003264 0.010349 -0.002737 0.000000 0.000000 0.000000
# 3 -0.002737 -0.002737 0.016847 0.000000 0.000000 0.000000
# 4 0.000000 0.000000 0.000000 0.033233 0.000000 0.000000
# 5 0.000000 0.000000 0.000000 0.000000 0.033233 0.000000
# 6 0.000000 0.000000 0.000000 0.000000 0.000000 0.035746
#
#
# Mechanical properties :
#
#
# Convention : Reuss Voigt Hill
#
# Bulk Modulus (GPa) = 49.82629 55.06285 52.44457
# Shear Modulus (GPa) = 30.50225 31.38642 30.94433
#
# Velocity S-wave (km/s) = 3.75497 3.80901 3.78209
# Velocity P-wave (km/s) = 6.46778 6.69311 6.58141
#
# Compressibility (1/GPa) = 0.02006973
#
# Stress axis : x y z
#
# Youngs Moduli (GPa) = 96.62866 96.62941 59.35734
#
# Poissons Ratio (x) = 0.31542 0.16244
# Poissons Ratio (y) = 0.31542 0.16244
# Poissons Ratio (z) = 0.26444 0.26444
#
# Static dielectric constant tensor:
#      x y z
#    x 4.188150 0.000000 0.000000 
#    y 0.000000 4.188150 0.000000 
#    z 0.000000 0.000000 3.461060 
# 
# 
# High freq. dielectric constant tensor:
#      x y z
#    x 1.855560 0.000000 0.000000 
#    y 0.000000 1.855560 0.000000 
#    z 0.000000 0.000000 1.836660 
# 
# From -- ./inp_files/14468.got.cif
#   From: 2010.03.12/outbox.cif.g09.slc.cpg/sg141_8_cif.got.tgz:14468.got - 2010.04.03 13:18:35.
