data_PCOD8320959
_publ_section_title
;
Structure prediction by ZEFSAII (Michael W. Deem and Ramdas Pophale) SiO2 
 PCOD8320959
Probable space group: I 41/A C D
;
_chemical_formula_sum "Si O2"
_cell_formula_units_Z 176
_cell_length_a 17.865693
_cell_length_b 17.865693
_cell_length_c 27.116744
_cell_angle_alpha 90.000000
_cell_angle_beta 90.000000
_cell_angle_gamma 90.000000
_cell_volume 8655.203331
_symmetry_space_group_name_H-M "I 41/A C D"
_symmetry_group_IT_number 142
_space_group.IT_coordinate_system_code '2'
_symmetry_cell_setting 'tetragonal'
loop_
_space_group_symop_operation_xyz
x,y,z
1/4-y,3/4+x,1/4+z
-x,1/2-y,z
1/4+y,1/4-x,3/4+z
x,-y,1/2-z
1/2-x,y,-z
3/4+y,1/4+x,1/4-z
1/4-y,1/4-x,1/4-z
-x,-y,-z
3/4+y,1/4-x,3/4-z
x,1/2+y,-z
3/4-y,3/4+x,1/4-z
-x,y,1/2+z
1/2+x,-y,z
1/4-y,3/4-x,3/4+z
3/4+y,3/4+x,3/4+z
1/2+x,1/2+y,1/2+z
3/4-y,1/4+x,3/4+z
1/2-x,-y,1/2+z
3/4+y,3/4-x,1/4+z
1/2+x,1/2-y,-z
-x,1/2+y,1/2-z
1/4+y,3/4+x,3/4-z
3/4-y,3/4-x,3/4-z
1/2-x,1/2-y,1/2-z
1/4+y,3/4-x,1/4-z
1/2+x,y,1/2-z
1/4-y,1/4+x,3/4-z
1/2-x,1/2+y,z
x,1/2-y,1/2+z
3/4-y,1/4-x,1/4+z
1/4+y,1/4+x,1/4+z
loop_
_atom_site_type_symbol
_atom_site_label
_atom_site_fract_x
_atom_site_fract_y
_atom_site_fract_z
Si Si1 0.147265 0.653005 0.222620
Si Si2 0.509900 0.362958 0.105615
Si Si3 0.699671 0.019411 0.430189
Si Si4 0.107988 0.500000 0.750000
Si Si5 0.289751 0.720887 0.438677
Si Si6 0.329436 0.099973 0.430767
O O1 0.128575 0.735941 0.201268
O O2 0.216265 0.621046 0.190404
O O3 0.163206 0.649445 0.281582
O O4 0.072677 0.606161 0.214935
O O5 0.442566 0.329872 0.140103
O O6 0.528172 0.443145 0.130078
O O7 0.697531 0.052470 0.375000
O O8 0.775399 0.971292 0.437914
O O9 0.695302 0.088372 0.468442
O O10 0.054190 0.458852 0.788978
O O11 0.211985 0.676940 0.446486
O O12 0.358199 0.108199 0.375000
#
# Coordination Sequence:
#
# PCOD8320959 Si02
#       6
#    32  32  32  16  32  32
#     4  10  17  36  52  80 116 147 189 233 287 345
#     4   9  19  34  57  82 107 140 191 244 281 326
#     4  10  19  30  50  80 113 143 183 241 293 345
#     4  12  18  30  54  80 112 144 186 224 306 338
#     4  10  19  33  56  82 110 149 190 228 288 357
#     4  10  19  35  56  79 111 155 191 227 291 351
#
# _framework density 20.334589000000001
#
# number of rings (size 3 to 8) (size 9 to 14) (size 15 to 20)
#    0.000    2.000    3.636    2.182    0.000    1.455 
#    0.000    0.909    4.000    0.000    0.000    8.909 
#    0.000    0.000    0.000    0.000    0.000    0.000 
#
# Total GULP energy -1090277.406122 kJ/mol
# GULP energy per Si atom -12389.515979 kJ/mol
# Density = 2.028831 g / cm^3
# Si number density = 20.334589 Si / 1000 Ang^3
#
#
#
# Elastic Constant Matrix: (Units=GPa)
#
#
# Indices 1 2 3 4 5 6 
#
# 1 54.2215 -1.2537 11.1439 0.0000 0.0000 0.0000
# 2 -1.2537 54.2214 11.1439 0.0000 0.0000 0.0000
# 3 11.1439 11.1439 112.3763 0.0000 0.0000 0.0000
# 4 0.0000 0.0000 0.0000 22.8847 0.0000 0.0000
# 5 0.0000 0.0000 0.0000 0.0000 22.8847 0.0000
# 6 0.0000 0.0000 0.0000 0.0000 0.0000 8.2854
#
#
#
# Elastic Compliance Matrix: (Units=1/GPa)
#
#
# Indices 1 2 3 4 5 6 
#
# 1 0.018864 0.000838 -0.001954 0.000000 0.000000 0.000000
# 2 0.000838 0.018864 -0.001954 0.000000 0.000000 0.000000
# 3 -0.001954 -0.001954 0.009286 0.000000 0.000000 0.000000
# 4 0.000000 0.000000 0.000000 0.043697 0.000000 0.000000
# 5 0.000000 0.000000 0.000000 0.000000 0.043697 0.000000
# 6 0.000000 0.000000 0.000000 0.000000 0.000000 0.120695
#
#
# Mechanical properties :
#
#
# Convention : Reuss Voigt Hill
#
# Bulk Modulus (GPa) = 24.46527 29.20971 26.83749
# Shear Modulus (GPa) = 18.19061 24.12997 21.16029
#
# Velocity S-wave (km/s) = 2.99417 3.44851 3.22934
# Velocity P-wave (km/s) = 4.90009 5.50018 5.20879
#
# Compressibility (1/GPa) = 0.04087427
#
# Stress axis : x y z
#
# Youngs Moduli (GPa) = 53.01169 53.01157 107.68720
#
# Poissons Ratio (x) = -0.04441 0.21039
# Poissons Ratio (y) = -0.04441 0.21039
# Poissons Ratio (z) = 0.10357 0.10357
#
# Static dielectric constant tensor:
#      x y z
#    x 3.527330 0.000000 0.000000 
#    y 0.000000 3.527330 0.000000 
#    z 0.000000 0.000000 3.980260 
# 
# 
# High freq. dielectric constant tensor:
#      x y z
#    x 1.766540 0.000000 0.000000 
#    y 0.000000 1.766540 0.000000 
#    z 0.000000 0.000000 1.805000 
# 
# From -- ./inp_files/12552.got.cif
#   From: 2010.03.12/outbox.cif.g09.slc.cpg/sg142_7_cif.got.tgz:12552.got - 2010.04.03 13:27:16.
