data_PCOD8320054
_publ_section_title
;
Structure prediction by ZEFSAII (Michael W. Deem and Ramdas Pophale) SiO2 
 PCOD8320054
Probable space group: I 4/M C M
;
_chemical_formula_sum "Si O2"
_cell_formula_units_Z 128
_cell_length_a 34.060803
_cell_length_b 34.060803
_cell_length_c 10.365093
_cell_angle_alpha 90.000000
_cell_angle_beta 90.000000
_cell_angle_gamma 90.000000
_cell_volume 12024.941383
_symmetry_space_group_name_H-M "I 4/M C M"
_symmetry_group_IT_number 140
_symmetry_cell_setting 'tetragonal'
loop_
_space_group_symop_operation_xyz
x,y,z
-y,x,z
-x,-y,z
y,-x,z
x,-y,1/2-z
-x,y,1/2-z
y,x,1/2-z
-y,-x,1/2-z
-x,-y,-z
y,-x,-z
x,y,-z
-y,x,-z
-x,y,1/2+z
x,-y,1/2+z
-y,-x,1/2+z
y,x,1/2+z
1/2+x,1/2+y,1/2+z
1/2-y,1/2+x,1/2+z
1/2-x,1/2-y,1/2+z
1/2+y,1/2-x,1/2+z
1/2+x,1/2-y,-z
1/2-x,1/2+y,-z
1/2+y,1/2+x,-z
1/2-y,1/2-x,-z
1/2-x,1/2-y,1/2-z
1/2+y,1/2-x,1/2-z
1/2+x,1/2+y,1/2-z
1/2-y,1/2+x,1/2-z
1/2-x,1/2+y,z
1/2+x,1/2-y,z
1/2-y,1/2-x,z
1/2+y,1/2+x,z
loop_
_atom_site_type_symbol
_atom_site_label
_atom_site_fract_x
_atom_site_fract_y
_atom_site_fract_z
Si Si1 0.387577 0.046370 0.000000
Si Si2 0.077488 0.643222 0.252694
Si Si3 0.392181 0.042502 0.500000
Si Si4 0.195284 0.238598 0.146173
Si Si5 0.800039 0.633949 0.144531
O O1 0.359294 0.052112 0.123072
O O2 0.424426 0.075575 0.000000
O O3 0.405387 0.002753 0.000000
O O4 0.111430 0.611430 0.246331
O O5 0.050356 0.634526 0.375419
O O6 0.097537 0.686522 0.265019
O O7 0.431559 0.068442 0.500000
O O8 0.204317 0.204317 0.250000
O O9 0.229824 0.270177 0.147610
O O10 0.154377 0.259375 0.189735
O O11 0.191575 0.221536 0.000000
O O12 0.833596 0.666405 0.144734
O O13 0.794964 0.617549 0.000000
#
# Coordination Sequence:
#
# PCOD8320054 Si02
#       5
#    16  32  16  32  32
#     4  10  20  29  36  52  69  71  81 119 157 181
#     4   9  16  27  39  50  61  74  94 114 135 167
#     4  10  18  29  44  50  55  77  97 109 139 193
#     4   8  13  20  29  43  62  80  97 114 129 146
#     4   8  12  21  36  47  57  78 102 114 123 152
#
# _framework density 10.644542
#
# number of rings (size 3 to 8) (size 9 to 14) (size 15 to 20)
#    0.000    3.250    1.250    2.250    0.000    0.250 
#    2.250    0.000    0.000    4.500    0.000    0.000 
#    0.000    0.000    0.000    0.000    0.000    0.000 
#
# Total GULP energy -792876.829969 kJ/mol
# GULP energy per Si atom -12388.700468 kJ/mol
# Density = 1.062031 g / cm^3
# Si number density = 10.644542 Si / 1000 Ang^3
#
#
#
# Elastic Constant Matrix: (Units=GPa)
#
#
# Indices 1 2 3 4 5 6 
#
# 1 35.3911 34.0552 31.1062 0.0000 0.0000 0.0000
# 2 34.0552 35.3921 31.1063 0.0000 0.0000 0.0000
# 3 31.1062 31.1063 83.7664 0.0000 0.0000 0.0000
# 4 0.0000 0.0000 0.0000 10.0600 0.0000 0.0000
# 5 0.0000 0.0000 0.0000 0.0000 10.0594 0.0000
# 6 0.0000 0.0000 0.0000 0.0000 0.0000 13.1640
#
#
#
# Elastic Compliance Matrix: (Units=1/GPa)
#
#
# Indices 1 2 3 4 5 6 
#
# 1 0.384931 -0.363347 -0.008015 0.000000 0.000000 0.000000
# 2 -0.363347 0.384917 -0.008011 0.000000 0.000000 0.000000
# 3 -0.008015 -0.008011 0.017889 0.000000 0.000000 0.000000
# 4 0.000000 0.000000 0.000000 0.099404 0.000000 0.000000
# 5 0.000000 0.000000 0.000000 0.000000 0.099409 0.000000
# 6 0.000000 0.000000 0.000000 0.000000 0.000000 0.075965
#
#
# Mechanical properties :
#
#
# Convention : Reuss Voigt Hill
#
# Bulk Modulus (GPa) = 34.49090 38.56500 36.52795
# Shear Modulus (GPa) = 2.73086 10.54214 6.63650
#
# Velocity S-wave (km/s) = 1.60346 3.15044 2.49964
# Velocity P-wave (km/s) = 5.99173 7.03862 6.53617
#
# Compressibility (1/GPa) = 0.02899315
#
# Stress axis : x y z
#
# Youngs Moduli (GPa) = 2.59787 2.59796 55.90048
#
# Poissons Ratio (x) = 0.94396 0.44802
# Poissons Ratio (y) = 0.94393 0.44781
# Poissons Ratio (z) = 0.02082 0.02081
#
# Static dielectric constant tensor:
#      x y z
#    x 2.181780 0.000000 0.000000 
#    y 0.000000 2.181780 0.000000 
#    z 0.000000 0.000000 2.567190 
# 
# 
# High freq. dielectric constant tensor:
#      x y z
#    x 1.363700 0.000000 0.000000 
#    y 0.000000 1.363700 0.000000 
#    z 0.000000 0.000000 1.410870 
# 
# From -- ./inp_files/3308.got.cif
#   From: 2010.06.25/outbox.cif.g09.slc.cpg/sg140_2_cif.got.tgz:3308.got - 2010.06.28 10:53:23.
