data_PCOD8320339
_publ_section_title
;
Structure prediction by ZEFSAII (Michael W. Deem and Ramdas Pophale) SiO2 
 PCOD8320339
Probable space group: I 4/M C M
;
_chemical_formula_sum "Si O2"
_cell_formula_units_Z 128
_cell_length_a 29.630387
_cell_length_b 29.630387
_cell_length_c 8.208413
_cell_angle_alpha 90.000000
_cell_angle_beta 90.000000
_cell_angle_gamma 90.000000
_cell_volume 7206.656913
_symmetry_space_group_name_H-M "I 4/M C M"
_symmetry_group_IT_number 140
_symmetry_cell_setting 'tetragonal'
loop_
_space_group_symop_operation_xyz
x,y,z
-y,x,z
-x,-y,z
y,-x,z
x,-y,1/2-z
-x,y,1/2-z
y,x,1/2-z
-y,-x,1/2-z
-x,-y,-z
y,-x,-z
x,y,-z
-y,x,-z
-x,y,1/2+z
x,-y,1/2+z
-y,-x,1/2+z
y,x,1/2+z
1/2+x,1/2+y,1/2+z
1/2-y,1/2+x,1/2+z
1/2-x,1/2-y,1/2+z
1/2+y,1/2-x,1/2+z
1/2+x,1/2-y,-z
1/2-x,1/2+y,-z
1/2+y,1/2+x,-z
1/2-y,1/2-x,-z
1/2-x,1/2-y,1/2-z
1/2+y,1/2-x,1/2-z
1/2+x,1/2+y,1/2-z
1/2-y,1/2+x,1/2-z
1/2-x,1/2+y,z
1/2+x,1/2-y,z
1/2-y,1/2-x,z
1/2+y,1/2+x,z
loop_
_atom_site_type_symbol
_atom_site_label
_atom_site_fract_x
_atom_site_fract_y
_atom_site_fract_z
Si Si1 0.365032 0.134968 0.178749
Si Si2 0.953118 0.764040 0.308011
Si Si3 0.200300 0.700300 0.682651
Si Si4 0.335010 0.953546 0.186058
Si Si5 0.144909 0.786050 0.306265
O O1 0.337914 0.162087 0.316082
O O2 0.357016 0.082489 0.196180
O O3 0.348923 0.151077 0.000000
O O4 0.955485 0.754614 0.500000
O O5 0.952349 0.718631 0.203647
O O6 0.905730 0.788517 0.267438
O O7 0.000000 0.789673 0.250000
O O8 0.213394 0.713394 0.500000
O O9 0.177288 0.745079 0.764204
O O10 0.355565 0.000000 0.250000
O O11 0.348412 0.944680 0.000000
O O12 0.167323 0.832678 0.250000
O O13 0.141233 0.781736 0.500000
#
# Coordination Sequence:
#
# PCOD8320339 Si02
#       5
#    16  32  16  32  32
#     4  12  22  33  53  77 102 133 172 214 263 316
#     4  11  21  35  54  77 103 136 176 220 266 311
#     4  10  21  35  51  72 105 144 182 220 259 305
#     4  11  21  35  53  75 101 130 168 215 266 315
#     4  11  22  36  53  76 108 146 184 221 264 314
#
# _framework density 17.761357
#
# number of rings (size 3 to 8) (size 9 to 14) (size 15 to 20)
#    0.000    1.000    2.500    8.250    0.000    1.000 
#    0.000    0.000    0.000    0.375    0.000    2.625 
#    0.000    0.500    0.000    5.000    0.000    3.000 
#
# Total GULP energy -793109.853348 kJ/mol
# GULP energy per Si atom -12392.341459 kJ/mol
# Density = 1.772093 g / cm^3
# Si number density = 17.761357 Si / 1000 Ang^3
#
#
#
# Elastic Constant Matrix: (Units=GPa)
#
#
# Indices 1 2 3 4 5 6 
#
# 1 73.7467 76.4331 12.3711 0.0000 0.0000 0.0000
# 2 76.4331 73.7338 12.3702 0.0000 0.0000 0.0000
# 3 12.3711 12.3702 83.7461 0.0000 0.0000 0.0000
# 4 0.0000 0.0000 0.0000 25.3248 0.0000 0.0000
# 5 0.0000 0.0000 0.0000 0.0000 25.3250 0.0000
# 6 0.0000 0.0000 0.0000 0.0000 0.0000 16.4766
#
#
#
# Elastic Compliance Matrix: (Units=1/GPa)
#
#
# Indices 1 2 3 4 5 6 
#
# 1 -0.182248 0.189089 -0.001009 0.000000 0.000000 0.000000
# 2 0.189089 -0.182280 -0.001008 0.000000 0.000000 0.000000
# 3 -0.001009 -0.001008 0.012239 0.000000 0.000000 0.000000
# 4 0.000000 0.000000 0.000000 0.039487 0.000000 0.000000
# 5 0.000000 0.000000 0.000000 0.000000 0.039487 0.000000
# 6 0.000000 0.000000 0.000000 0.000000 0.000000 0.060692
#
#
# Mechanical properties :
#
#
# Convention : Reuss Voigt Hill
#
# Bulk Modulus (GPa) = 45.75371 48.17504 46.96437
# Shear Modulus (GPa) = -8.62840 22.09543 6.73352
#
# Velocity S-wave (km/s) = -2.20647 3.53089 1.94919
# Velocity P-wave (km/s) = 4.39600 6.61856 5.61828
#
# Compressibility (1/GPa) = 0.02185615
#
# Stress axis : x y z
#
# Youngs Moduli (GPa) = -5.48704 -5.48608 81.70797
#
# Poissons Ratio (x) = 1.03736 0.08241
# Poissons Ratio (y) = 1.03754 0.08234
# Poissons Ratio (z) = -0.00553 -0.00553
#
# Static dielectric constant tensor:
#      x y z
#    x 3.819330 0.000000 0.000000 
#    y 0.000000 3.819330 0.000000 
#    z 0.000000 0.000000 3.251220 
# 
# 
# High freq. dielectric constant tensor:
#      x y z
#    x 1.664920 0.000000 0.000000 
#    y 0.000000 1.664920 0.000000 
#    z 0.000000 0.000000 1.701290 
# 
# From -- ./inp_files/1504.got.cif
#   From: 2010.06.25/outbox.cif.g09.slc.cpg/sg140_1_cif.got.tgz:1504.got - 2010.06.28 10:53:23.
