data_PCOD8320258
_publ_section_title
;
Structure prediction by ZEFSAII (Michael W. Deem and Ramdas Pophale) SiO2 
 PCOD8320258
Probable space group: I 4/M C M
;
_chemical_formula_sum "Si O2"
_cell_formula_units_Z 160
_cell_length_a 21.649296
_cell_length_b 21.649296
_cell_length_c 17.925639
_cell_angle_alpha 90.000000
_cell_angle_beta 90.000000
_cell_angle_gamma 90.000000
_cell_volume 8401.603904
_symmetry_space_group_name_H-M "I 4/M C M"
_symmetry_group_IT_number 140
_symmetry_cell_setting 'tetragonal'
loop_
_space_group_symop_operation_xyz
x,y,z
-y,x,z
-x,-y,z
y,-x,z
x,-y,1/2-z
-x,y,1/2-z
y,x,1/2-z
-y,-x,1/2-z
-x,-y,-z
y,-x,-z
x,y,-z
-y,x,-z
-x,y,1/2+z
x,-y,1/2+z
-y,-x,1/2+z
y,x,1/2+z
1/2+x,1/2+y,1/2+z
1/2-y,1/2+x,1/2+z
1/2-x,1/2-y,1/2+z
1/2+y,1/2-x,1/2+z
1/2+x,1/2-y,-z
1/2-x,1/2+y,-z
1/2+y,1/2+x,-z
1/2-y,1/2-x,-z
1/2-x,1/2-y,1/2-z
1/2+y,1/2-x,1/2-z
1/2+x,1/2+y,1/2-z
1/2-y,1/2+x,1/2-z
1/2-x,1/2+y,z
1/2+x,1/2-y,z
1/2-y,1/2-x,z
1/2+y,1/2+x,z
loop_
_atom_site_type_symbol
_atom_site_label
_atom_site_fract_x
_atom_site_fract_y
_atom_site_fract_z
Si Si1 0.903489 0.501913 0.587857
Si Si2 0.733126 0.666938 0.817567
Si Si3 0.843531 0.993938 0.164485
Si Si4 0.208494 0.462941 0.181430
Si Si5 0.614634 0.372946 0.911924
O O1 0.898706 0.501815 0.500000
O O2 0.952816 0.452816 0.617234
O O3 0.837682 0.477154 0.614679
O O4 0.929602 0.570399 0.613327
O O5 0.687797 0.687797 0.750000
O O6 0.775345 0.724656 0.841792
O O7 0.778150 0.609081 0.797576
O O8 0.691506 0.645931 0.887398
O O9 0.851373 0.926381 0.132391
O O10 0.867453 0.000000 0.250000
O O11 0.771451 0.004738 0.159160
O O12 0.877936 0.043093 0.111891
O O13 0.178494 0.500000 0.250000
O O14 0.621461 0.380830 0.000000
#
# Coordination Sequence:
#
# PCOD8320258 Si02
#       5
#    32  32  32  32  32
#     4   9  19  35  52  73 106 145 183 228 283 338
#     4  10  21  38  58  81 113 154 194 232 282 348
#     4  10  21  39  59  79 110 149 184 220 277 347
#     4  10  20  34  56  82 107 141 187 233 278 332
#     4  11  22  37  58  86 114 140 181 236 284 329
#
# _framework density 19.043983000000001
#
# number of rings (size 3 to 8) (size 9 to 14) (size 15 to 20)
#    0.000    2.000    0.000    6.000    0.000    6.400 
#    0.000    4.000    0.000    0.000    0.000    0.000 
#    0.000    0.000    0.000    0.000    0.000    0.000 
#
# Total GULP energy -991347.603859 kJ/mol
# GULP energy per Si atom -12391.845048 kJ/mol
# Density = 1.900064 g / cm^3
# Si number density = 19.043983 Si / 1000 Ang^3
#
#
#
# Elastic Constant Matrix: (Units=GPa)
#
#
# Indices 1 2 3 4 5 6 
#
# 1 77.7813 37.4752 34.3796 0.0000 0.0000 0.0000
# 2 37.4752 77.7813 34.3796 0.0000 0.0000 0.0000
# 3 34.3796 34.3796 102.2584 0.0000 0.0000 0.0000
# 4 0.0000 0.0000 0.0000 28.9512 0.0000 0.0000
# 5 0.0000 0.0000 0.0000 0.0000 28.9512 0.0000
# 6 0.0000 0.0000 0.0000 0.0000 0.0000 29.2887
#
#
#
# Elastic Compliance Matrix: (Units=1/GPa)
#
#
# Indices 1 2 3 4 5 6 
#
# 1 0.017832 -0.006979 -0.003649 0.000000 0.000000 0.000000
# 2 -0.006979 0.017832 -0.003649 0.000000 0.000000 0.000000
# 3 -0.003649 -0.003649 0.012233 0.000000 0.000000 0.000000
# 4 0.000000 0.000000 0.000000 0.034541 0.000000 0.000000
# 5 0.000000 0.000000 0.000000 0.000000 0.034541 0.000000
# 6 0.000000 0.000000 0.000000 0.000000 0.000000 0.034143
#
#
# Mechanical properties :
#
#
# Convention : Reuss Voigt Hill
#
# Bulk Modulus (GPa) = 51.69699 52.25441 51.97570
# Shear Modulus (GPa) = 26.86426 27.54398 27.20412
#
# Velocity S-wave (km/s) = 3.75993 3.80720 3.78364
# Velocity P-wave (km/s) = 6.78634 6.84286 6.81466
#
# Compressibility (1/GPa) = 0.01934348
#
# Stress axis : x y z
#
# Youngs Moduli (GPa) = 56.08008 56.08008 81.74839
#
# Poissons Ratio (x) = 0.39136 0.29829
# Poissons Ratio (y) = 0.39136 0.29829
# Poissons Ratio (z) = 0.20463 0.20463
#
# Static dielectric constant tensor:
#      x y z
#    x 3.635540 0.000000 0.000000 
#    y 0.000000 3.635540 0.000000 
#    z 0.000000 0.000000 3.438430 
# 
# 
# High freq. dielectric constant tensor:
#      x y z
#    x 1.746970 0.000000 0.000000 
#    y 0.000000 1.746970 0.000000 
#    z 0.000000 0.000000 1.729390 
# 
# From -- ./inp_files/6845.got.cif
#   From: 2010.06.25/outbox.cif.g09.slc.cpg/sg140_4_cif.got.tgz:6845.got - 2010.06.28 10:53:23.
