data_PCOD8320692
_publ_section_title
;
Structure prediction by ZEFSAII (Michael W. Deem and Ramdas Pophale) SiO2 
 PCOD8320692
Probable space group: I 41/A M D
;
_chemical_formula_sum "Si O2"
_cell_formula_units_Z 176
_cell_length_a 17.942767
_cell_length_b 17.942767
_cell_length_c 28.190950
_cell_angle_alpha 90.000000
_cell_angle_beta 90.000000
_cell_angle_gamma 90.000000
_cell_volume 9075.875848
_symmetry_space_group_name_H-M "I 41/A M D"
_symmetry_group_IT_number 141
_space_group.IT_coordinate_system_code '2'
_symmetry_cell_setting 'tetragonal'
loop_
_space_group_symop_operation_xyz
x,y,z
1/4-y,3/4+x,1/4+z
-x,1/2-y,z
1/4+y,1/4-x,3/4+z
x,-y,-z
-x,1/2+y,-z
1/4+y,3/4+x,1/4-z
1/4-y,1/4-x,3/4-z
-x,-y,-z
3/4+y,1/4-x,3/4-z
x,1/2+y,-z
3/4-y,3/4+x,1/4-z
-x,y,z
x,1/2-y,z
3/4-y,1/4-x,3/4+z
3/4+y,3/4+x,1/4+z
1/2+x,1/2+y,1/2+z
3/4-y,1/4+x,3/4+z
1/2-x,-y,1/2+z
3/4+y,3/4-x,1/4+z
1/2+x,1/2-y,1/2-z
1/2-x,y,1/2-z
3/4+y,1/4+x,3/4-z
3/4-y,3/4-x,1/4-z
1/2-x,1/2-y,1/2-z
1/4+y,3/4-x,1/4-z
1/2+x,y,1/2-z
1/4-y,1/4+x,3/4-z
1/2-x,1/2+y,1/2+z
1/2+x,-y,1/2+z
1/4-y,3/4-x,1/4+z
1/4+y,1/4+x,3/4+z
loop_
_atom_site_type_symbol
_atom_site_label
_atom_site_fract_x
_atom_site_fract_y
_atom_site_fract_z
Si Si1 0.836730 0.837462 0.930364
Si Si2 0.830258 0.338423 0.417458
Si Si3 0.918407 0.337581 0.158840
Si Si4 0.665044 0.086765 0.987405
Si Si5 0.086358 0.336358 0.875000
Si Si6 0.412210 0.567843 0.284398
O O1 0.832571 0.750000 0.923413
O O2 0.754637 0.868190 0.917475
O O3 0.895319 0.871289 0.892809
O O4 0.860000 0.856525 0.984618
O O5 0.875361 0.374640 0.375000
O O6 0.837866 0.250000 0.413826
O O7 0.863281 0.366342 0.467397
O O8 0.925025 0.250000 0.154861
O O9 0.854063 0.355207 0.196671
O O10 0.000000 0.371471 0.171995
O O11 0.742729 0.114732 0.965279
O O12 0.668201 0.000000 0.000000
O O13 0.101226 0.250000 0.864105
O O14 0.112932 0.381696 0.828680
O O15 0.500000 0.548714 0.286706
#
# Coordination Sequence:
#
# PCOD8320692 Si02
#       6
#    32  32  32  32  16  32
#     4   8  16  32  52  73 104 143 177 220 274 327
#     4  10  20  35  54  77 107 142 185 232 285 338
#     4  10  20  34  54  81 108 139 186 237 286 337
#     4  11  22  37  56  79 110 152 189 230 278 340
#     4   9  18  34  60  90 116 148 188 231 280 332
#     4   9  18  36  57  81 116 151 187 228 276 332
#
# _framework density 19.392067999999998
#
# number of rings (size 3 to 8) (size 9 to 14) (size 15 to 20)
#    0.000    2.455    0.000    3.818    0.000    2.000 
#    8.182    3.636    0.000    0.545    0.000    0.000 
#    0.000    0.000    0.000    0.000    0.000    0.000 
#
# Total GULP energy -1090640.777698 kJ/mol
# GULP energy per Si atom -12393.645201 kJ/mol
# Density = 1.934793 g / cm^3
# Si number density = 19.392068 Si / 1000 Ang^3
#
#
#
# Elastic Constant Matrix: (Units=GPa)
#
#
# Indices 1 2 3 4 5 6 
#
# 1 69.9569 39.1808 62.6075 0.0000 0.0000 0.0000
# 2 39.1808 69.9532 62.6090 0.0000 0.0000 0.0000
# 3 62.6075 62.6090 178.6177 0.0000 0.0000 0.0000
# 4 0.0000 0.0000 0.0000 32.4508 0.0000 0.0000
# 5 0.0000 0.0000 0.0000 0.0000 32.4507 0.0000
# 6 0.0000 0.0000 0.0000 0.0000 0.0000 22.7797
#
#
#
# Elastic Compliance Matrix: (Units=1/GPa)
#
#
# Indices 1 2 3 4 5 6 
#
# 1 0.023910 -0.008584 -0.005372 0.000000 0.000000 0.000000
# 2 -0.008584 0.023912 -0.005373 0.000000 0.000000 0.000000
# 3 -0.005372 -0.005373 0.009365 0.000000 0.000000 0.000000
# 4 0.000000 0.000000 0.000000 0.030816 0.000000 0.000000
# 5 0.000000 0.000000 0.000000 0.000000 0.030816 0.000000
# 6 0.000000 0.000000 0.000000 0.000000 0.000000 0.043899
#
#
# Mechanical properties :
#
#
# Convention : Reuss Voigt Hill
#
# Bulk Modulus (GPa) = 53.96915 71.92471 62.94693
# Shear Modulus (GPa) = 24.09057 27.81161 25.95109
#
# Velocity S-wave (km/s) = 3.52844 3.79116 3.66215
# Velocity P-wave (km/s) = 6.67014 7.50561 7.10017
#
# Compressibility (1/GPa) = 0.01852910
#
# Stress axis : x y z
#
# Youngs Moduli (GPa) = 41.82428 41.82013 106.78437
#
# Poissons Ratio (x) = 0.35898 0.57361
# Poissons Ratio (y) = 0.35902 0.57373
# Poissons Ratio (z) = 0.22467 0.22469
#
# Static dielectric constant tensor:
#      x y z
#    x 3.499200 0.000000 0.000000 
#    y 0.000000 3.499200 0.000000 
#    z 0.000000 0.000000 3.912150 
# 
# 
# High freq. dielectric constant tensor:
#      x y z
#    x 1.736510 0.000000 0.000000 
#    y 0.000000 1.736510 0.000000 
#    z 0.000000 0.000000 1.774050 
# 
# From -- ./inp_files/12891.got.cif
#   From: 2010.03.12/outbox.cif.g09.slc.cpg/sg141_7_cif.got.tgz:12891.got - 2010.04.03 13:18:35.
