data_PCOD8320032
_publ_section_title
;
Structure prediction by ZEFSAII (Michael W. Deem and Ramdas Pophale) SiO2 
 PCOD8320032
Probable space group: I 4/M C M
;
_chemical_formula_sum "Si O2"
_cell_formula_units_Z 144
_cell_length_a 20.826135
_cell_length_b 20.826135
_cell_length_c 19.046016
_cell_angle_alpha 90.000000
_cell_angle_beta 90.000000
_cell_angle_gamma 90.000000
_cell_volume 8260.788505
_symmetry_space_group_name_H-M "I 4/M C M"
_symmetry_group_IT_number 140
_symmetry_cell_setting 'tetragonal'
loop_
_space_group_symop_operation_xyz
x,y,z
-y,x,z
-x,-y,z
y,-x,z
x,-y,1/2-z
-x,y,1/2-z
y,x,1/2-z
-y,-x,1/2-z
-x,-y,-z
y,-x,-z
x,y,-z
-y,x,-z
-x,y,1/2+z
x,-y,1/2+z
-y,-x,1/2+z
y,x,1/2+z
1/2+x,1/2+y,1/2+z
1/2-y,1/2+x,1/2+z
1/2-x,1/2-y,1/2+z
1/2+y,1/2-x,1/2+z
1/2+x,1/2-y,-z
1/2-x,1/2+y,-z
1/2+y,1/2+x,-z
1/2-y,1/2-x,-z
1/2-x,1/2-y,1/2-z
1/2+y,1/2-x,1/2-z
1/2+x,1/2+y,1/2-z
1/2-y,1/2+x,1/2-z
1/2-x,1/2+y,z
1/2+x,1/2-y,z
1/2-y,1/2-x,z
1/2+y,1/2+x,z
loop_
_atom_site_type_symbol
_atom_site_label
_atom_site_fract_x
_atom_site_fract_y
_atom_site_fract_z
Si Si1 0.212519 0.112763 0.923249
Si Si2 0.302144 0.197857 0.277983
Si Si3 0.921387 0.062079 0.599436
Si Si4 0.099496 0.900505 0.750000
Si Si5 0.257206 0.570228 0.225595
Si Si6 0.739893 0.760108 0.420162
O O1 0.135408 0.106644 0.928596
O O2 0.239480 0.069094 0.859993
O O3 0.227721 0.185714 0.905205
O O4 0.241913 0.093833 0.000000
O O5 0.250000 0.250000 0.250000
O O6 0.374283 0.209922 0.251652
O O7 0.300675 0.199326 0.363322
O O8 0.923909 0.059857 0.683552
O O9 0.989317 0.089095 0.571753
O O10 0.174865 0.913566 0.761250
O O11 0.232908 0.500000 0.250000
O O12 0.720516 0.779485 0.500000
#
# Coordination Sequence:
#
# PCOD8320032 Si02
#       6
#    32  16  32  16  32  16
#     4  10  20  34  49  70 101 134 173 223 267 312
#     4  12  18  38  60  79 108 145 178 228 277 314
#     4  10  19  29  42  62  93 135 172 203 248 308
#     4  10  16  28  46  70  98 126 170 220 260 300
#     4  11  21  33  55  83 103 136 185 222 266 328
#     4  10  20  34  56  82 102 138 186 229 278 327
#
# _framework density 17.431750999999998
#
# number of rings (size 3 to 8) (size 9 to 14) (size 15 to 20)
#    0.000    1.556    3.333    4.667    0.000    1.778 
#    0.000    4.444    0.000    0.333    0.000    0.000 
#    0.000    0.000    0.000    7.222    0.000    0.000 
#
# Total GULP energy -892381.529665 kJ/mol
# GULP energy per Si atom -12394.187912 kJ/mol
# Density = 1.739208 g / cm^3
# Si number density = 17.431751 Si / 1000 Ang^3
#
#
#
# Elastic Constant Matrix: (Units=GPa)
#
#
# Indices 1 2 3 4 5 6 
#
# 1 99.6943 60.3903 26.7008 0.0000 0.0000 0.0000
# 2 60.3903 99.6937 26.7010 0.0000 0.0000 0.0000
# 3 26.7008 26.7010 142.2859 0.0000 0.0000 0.0000
# 4 0.0000 0.0000 0.0000 215.9209 0.0000 0.0000
# 5 0.0000 0.0000 0.0000 0.0000 215.9129 0.0000
# 6 0.0000 0.0000 0.0000 0.0000 0.0000 29.3213
#
#
#
# Elastic Compliance Matrix: (Units=1/GPa)
#
#
# Indices 1 2 3 4 5 6 
#
# 1 0.016053 -0.009390 -0.001250 0.000000 0.000000 0.000000
# 2 -0.009390 0.016053 -0.001251 0.000000 0.000000 0.000000
# 3 -0.001250 -0.001251 0.007497 0.000000 0.000000 0.000000
# 4 0.000000 0.000000 0.000000 0.004631 0.000000 0.000000
# 5 0.000000 0.000000 0.000000 0.000000 0.004631 0.000000
# 6 0.000000 0.000000 0.000000 0.000000 0.000000 0.034105
#
#
# Mechanical properties :
#
#
# Convention : Reuss Voigt Hill
#
# Bulk Modulus (GPa) = 63.19877 63.25090 63.22484
# Shear Modulus (GPa) = 44.63192 107.42315 76.02753
#
# Velocity S-wave (km/s) = 5.06551 7.85867 6.61128
# Velocity P-wave (km/s) = 8.39918 10.89535 9.72766
#
# Compressibility (1/GPa) = 0.01582309
#
# Stress axis : x y z
#
# Youngs Moduli (GPa) = 62.29231 62.29190 133.37890
#
# Poissons Ratio (x) = 0.58489 0.16679
# Poissons Ratio (y) = 0.58490 0.16680
# Poissons Ratio (z) = 0.07790 0.07790
#
# Static dielectric constant tensor:
#      x y z
#    x 3.116940 0.000000 0.000000 
#    y 0.000000 3.116960 0.000000 
#    z 0.000000 0.000000 3.597910 
# 
# 
# High freq. dielectric constant tensor:
#      x y z
#    x 1.645200 0.000000 0.000000 
#    y 0.000000 1.645200 0.000000 
#    z 0.000000 0.000000 1.698300 
# 
# From -- ./inp_files/6695.got.cif
#   From: 2010.06.25/outbox.cif.g09.slc.cpg/sg140_4_cif.got.tgz:6695.got - 2010.06.28 10:53:23.
