data_PCOD8320012
_publ_section_title
;
Structure prediction by ZEFSAII (Michael W. Deem and Ramdas Pophale) SiO2 
 PCOD8320012
Probable space group: I 4/M M M
;
_chemical_formula_sum "Si O2"
_cell_formula_units_Z 160
_cell_length_a 26.096709
_cell_length_b 26.096709
_cell_length_c 18.191677
_cell_angle_alpha 90.000000
_cell_angle_beta 90.000000
_cell_angle_gamma 90.000000
_cell_volume 12389.227334
_symmetry_space_group_name_H-M "I 4/M M M"
_symmetry_group_IT_number 139
_symmetry_cell_setting 'tetragonal'
loop_
_space_group_symop_operation_xyz
x,y,z
-y,x,z
-x,-y,z
y,-x,z
x,-y,-z
-x,y,-z
y,x,-z
-y,-x,-z
-x,-y,-z
y,-x,-z
x,y,-z
-y,x,-z
-x,y,z
x,-y,z
-y,-x,z
y,x,z
1/2+x,1/2+y,1/2+z
1/2-y,1/2+x,1/2+z
1/2-x,1/2-y,1/2+z
1/2+y,1/2-x,1/2+z
1/2+x,1/2-y,1/2-z
1/2-x,1/2+y,1/2-z
1/2+y,1/2+x,1/2-z
1/2-y,1/2-x,1/2-z
1/2-x,1/2-y,1/2-z
1/2+y,1/2-x,1/2-z
1/2+x,1/2+y,1/2-z
1/2-y,1/2+x,1/2-z
1/2-x,1/2+y,1/2+z
1/2+x,1/2-y,1/2+z
1/2-y,1/2-x,1/2+z
1/2+y,1/2+x,1/2+z
loop_
_atom_site_type_symbol
_atom_site_label
_atom_site_fract_x
_atom_site_fract_y
_atom_site_fract_z
Si Si1 0.678902 0.234956 0.581855
Si Si2 0.057178 0.806772 0.582050
Si Si3 0.632216 0.716425 0.288090
Si Si4 0.859837 0.057866 0.269776
Si Si5 0.758055 0.842868 0.630123
O O1 0.655131 0.234041 0.500000
O O2 0.722235 0.277766 0.589558
O O3 0.633395 0.246654 0.640266
O O4 0.705711 0.180754 0.598823
O O5 0.062465 0.830298 0.500000
O O6 0.064140 0.851394 0.642518
O O7 0.101277 0.764270 0.593337
O O8 0.000000 0.782171 0.591785
O O9 0.668990 0.668990 0.302811
O O10 0.576374 0.691857 0.272556
O O11 0.651777 0.748376 0.217847
O O12 0.909047 0.090954 0.247046
O O13 0.870820 0.000000 0.245969
O O14 0.807611 0.807611 0.611054
#
# Coordination Sequence:
#
# PCOD8320012 Si02
#       5
#    32  32  32  32  32
#     4   9  15  21  32  51  70  85 103 130 165 204
#     4   9  16  24  33  46  66  92 120 146 171 200
#     4   8  14  24  35  47  66  88 107 131 166 207
#     4   9  17  27  38  50  63  84 114 147 182 215
#     4   9  15  22  33  48  66  89 115 140 165 195
#
# _framework density 12.914445000000001
#
# number of rings (size 3 to 8) (size 9 to 14) (size 15 to 20)
#    0.000    3.200    0.000    3.000    0.000    5.000 
#    0.000    0.000    0.000    0.600    0.000    2.800 
#    0.000    0.000    0.000    7.800    0.000    1.000 
#
# Total GULP energy -991228.732474 kJ/mol
# GULP energy per Si atom -12390.359156 kJ/mol
# Density = 1.288505 g / cm^3
# Si number density = 12.914445 Si / 1000 Ang^3
#
#
#
# Elastic Constant Matrix: (Units=GPa)
#
#
# Indices 1 2 3 4 5 6 
#
# 1 48.2979 34.8428 31.2388 0.0000 0.0000 0.0000
# 2 34.8428 48.2979 31.2388 0.0000 0.0000 0.0000
# 3 31.2388 31.2388 74.3322 0.0000 0.0000 0.0000
# 4 0.0000 0.0000 0.0000 11.5845 0.0000 0.0000
# 5 0.0000 0.0000 0.0000 0.0000 11.5845 0.0000
# 6 0.0000 0.0000 0.0000 0.0000 0.0000 12.7811
#
#
#
# Elastic Compliance Matrix: (Units=1/GPa)
#
#
# Indices 1 2 3 4 5 6 
#
# 1 0.045950 -0.028371 -0.007388 0.000000 0.000000 0.000000
# 2 -0.028371 0.045950 -0.007388 0.000000 0.000000 0.000000
# 3 -0.007388 -0.007388 0.019663 0.000000 0.000000 0.000000
# 4 0.000000 0.000000 0.000000 0.086322 0.000000 0.000000
# 5 0.000000 0.000000 0.000000 0.000000 0.086322 0.000000
# 6 0.000000 0.000000 0.000000 0.000000 0.000000 0.078240
#
#
# Mechanical properties :
#
#
# Convention : Reuss Voigt Hill
#
# Bulk Modulus (GPa) = 39.57239 40.61876 40.09557
# Shear Modulus (GPa) = 10.93697 12.09721 11.51709
#
# Velocity S-wave (km/s) = 2.91328 3.06391 2.98954
# Velocity P-wave (km/s) = 6.48265 6.63605 6.55980
#
# Compressibility (1/GPa) = 0.02527014
#
# Stress axis : x y z
#
# Youngs Moduli (GPa) = 21.76257 21.76257 50.85719
#
# Poissons Ratio (x) = 0.61742 0.37573
# Poissons Ratio (y) = 0.61742 0.37573
# Poissons Ratio (z) = 0.16078 0.16078
#
# Static dielectric constant tensor:
#      x y z
#    x 2.466640 0.000000 0.000000 
#    y 0.000000 2.466640 0.000000 
#    z 0.000000 0.000000 2.796120 
# 
# 
# High freq. dielectric constant tensor:
#      x y z
#    x 1.456320 0.000000 0.000000 
#    y 0.000000 1.456320 0.000000 
#    z 0.000000 0.000000 1.495230 
# 
# From -- ./inp_files/8758.got.cif
#   From: 2010.03.12/outbox.cif.g09.slc.cpg/sg139_5_cif.got.tgz:8758.got - 2010.04.08 09:46:31.
