data_PCOD8320101
_publ_section_title
;
Structure prediction by ZEFSAII (Michael W. Deem and Ramdas Pophale) SiO2 
 PCOD8320101
Probable space group: I 4/M C M
;
_chemical_formula_sum "Si O2"
_cell_formula_units_Z 192
_cell_length_a 27.425651
_cell_length_b 27.425651
_cell_length_c 17.704651
_cell_angle_alpha 90.000000
_cell_angle_beta 90.000000
_cell_angle_gamma 90.000000
_cell_volume 13316.842416
_symmetry_space_group_name_H-M "I 4/M C M"
_symmetry_group_IT_number 140
_symmetry_cell_setting 'tetragonal'
loop_
_space_group_symop_operation_xyz
x,y,z
-y,x,z
-x,-y,z
y,-x,z
x,-y,1/2-z
-x,y,1/2-z
y,x,1/2-z
-y,-x,1/2-z
-x,-y,-z
y,-x,-z
x,y,-z
-y,x,-z
-x,y,1/2+z
x,-y,1/2+z
-y,-x,1/2+z
y,x,1/2+z
1/2+x,1/2+y,1/2+z
1/2-y,1/2+x,1/2+z
1/2-x,1/2-y,1/2+z
1/2+y,1/2-x,1/2+z
1/2+x,1/2-y,-z
1/2-x,1/2+y,-z
1/2+y,1/2+x,-z
1/2-y,1/2-x,-z
1/2-x,1/2-y,1/2-z
1/2+y,1/2-x,1/2-z
1/2+x,1/2+y,1/2-z
1/2-y,1/2+x,1/2-z
1/2-x,1/2+y,z
1/2+x,1/2-y,z
1/2-y,1/2-x,z
1/2+y,1/2+x,z
loop_
_atom_site_type_symbol
_atom_site_label
_atom_site_fract_x
_atom_site_fract_y
_atom_site_fract_z
Si Si1 0.130719 0.712979 0.084801
Si Si2 0.434177 0.853988 0.328145
Si Si3 0.022954 0.601074 0.413128
Si Si4 0.801502 0.219626 0.168434
Si Si5 0.734780 0.847514 0.416219
Si Si6 0.409847 0.168402 0.669518
O O1 0.172505 0.672505 0.083347
O O2 0.079865 0.690273 0.115538
O O3 0.147478 0.757779 0.138712
O O4 0.121414 0.732398 0.000000
O O5 0.388097 0.888097 0.320440
O O6 0.477814 0.887928 0.358350
O O7 0.444192 0.830700 0.244618
O O8 0.005622 0.600917 0.500000
O O9 0.048967 0.548967 0.393080
O O10 0.061781 0.643979 0.400414
O O11 0.806305 0.193696 0.250000
O O12 0.762569 0.262569 0.173832
O O13 0.784279 0.178404 0.109951
O O14 0.743450 0.868442 0.500000
O O15 0.690641 0.809360 0.416862
O O16 0.721521 0.892075 0.359094
O O17 0.361835 0.138165 0.690625
#
# Coordination Sequence:
#
# PCOD8320101 Si02
#       6
#    32  32  32  32  32  32
#     4   9  16  25  36  51  72  94 114 137 167 207
#     4  10  19  30  43  56  70  90 115 144 184 233
#     4  10  20  32  44  56  69  86 112 149 191 232
#     4   9  15  22  33  51  74  97 118 137 160 196
#     4   9  15  23  37  55  73  93 116 140 168 205
#     4   9  17  29  42  55  70  87 109 141 181 222
#
# _framework density 14.417832000000001
#
# number of rings (size 3 to 8) (size 9 to 14) (size 15 to 20)
#    0.000    2.667    0.000    3.000    0.000    9.333 
#    0.000    0.833    0.000    3.000    0.000    0.000 
#    0.000    0.000    0.000    0.000    0.000    0.000 
#
# Total GULP energy -1189403.107059 kJ/mol
# GULP energy per Si atom -12389.615699 kJ/mol
# Density = 1.438502 g / cm^3
# Si number density = 14.417832 Si / 1000 Ang^3
#
#
#
# Elastic Constant Matrix: (Units=GPa)
#
#
# Indices 1 2 3 4 5 6 
#
# 1 30.0932 29.7618 30.0826 0.0000 0.0000 0.0000
# 2 29.7618 30.0933 30.0825 0.0000 0.0000 0.0000
# 3 30.0826 30.0825 111.7663 0.0000 0.0000 0.0000
# 4 0.0000 0.0000 0.0000 18.1149 0.0000 0.0000
# 5 0.0000 0.0000 0.0000 0.0000 18.1149 0.0000
# 6 0.0000 0.0000 0.0000 0.0000 0.0000 28.1738
#
#
#
# Elastic Compliance Matrix: (Units=1/GPa)
#
#
# Indices 1 2 3 4 5 6 
#
# 1 1.520050 -1.497141 -0.006167 0.000000 0.000000 0.000000
# 2 -1.497141 1.520039 -0.006163 0.000000 0.000000 0.000000
# 3 -0.006167 -0.006163 0.012266 0.000000 0.000000 0.000000
# 4 0.000000 0.000000 0.000000 0.055203 0.000000 0.000000
# 5 0.000000 0.000000 0.000000 0.000000 0.055203 0.000000
# 6 0.000000 0.000000 0.000000 0.000000 0.000000 0.035494
#
#
# Mechanical properties :
#
#
# Convention : Reuss Voigt Hill
#
# Bulk Modulus (GPa) = 29.92723 39.08962 34.50842
# Shear Modulus (GPa) = 0.80278 18.34912 9.57595
#
# Velocity S-wave (km/s) = 0.74700 3.57132 2.57995
# Velocity P-wave (km/s) = 4.64178 6.64655 5.73248
#
# Compressibility (1/GPa) = 0.03341439
#
# Stress axis : x y z
#
# Youngs Moduli (GPa) = 0.65787 0.65788 81.52792
#
# Poissons Ratio (x) = 0.98494 0.50275
# Poissons Ratio (y) = 0.98493 0.50243
# Poissons Ratio (z) = 0.00406 0.00405
#
# Static dielectric constant tensor:
#      x y z
#    x 2.561710 0.000000 0.000000 
#    y 0.000000 2.561710 0.000000 
#    z 0.000000 0.000000 3.159570 
# 
# 
# High freq. dielectric constant tensor:
#      x y z
#    x 1.501540 0.000000 0.000000 
#    y 0.000000 1.501540 0.000000 
#    z 0.000000 0.000000 1.576560 
# 
# From -- ./inp_files/5316.got.cif
#   From: 2010.06.25/outbox.cif.g09.slc.cpg/sg140_3_cif.got.tgz:5316.got - 2010.06.28 10:53:23.
