data_PCOD8320648
_publ_section_title
;
Structure prediction by ZEFSAII (Michael W. Deem and Ramdas Pophale) SiO2 
 PCOD8320648
Probable space group: I 41/A M D
;
_chemical_formula_sum "Si O2"
_cell_formula_units_Z 128
_cell_length_a 26.287020
_cell_length_b 26.287020
_cell_length_c 9.763701
_cell_angle_alpha 90.000000
_cell_angle_beta 90.000000
_cell_angle_gamma 90.000000
_cell_volume 6746.789842
_symmetry_space_group_name_H-M "I 41/A M D"
_symmetry_group_IT_number 141
_space_group.IT_coordinate_system_code '2'
_symmetry_cell_setting 'tetragonal'
loop_
_space_group_symop_operation_xyz
x,y,z
1/4-y,3/4+x,1/4+z
-x,1/2-y,z
1/4+y,1/4-x,3/4+z
x,-y,-z
-x,1/2+y,-z
1/4+y,3/4+x,1/4-z
1/4-y,1/4-x,3/4-z
-x,-y,-z
3/4+y,1/4-x,3/4-z
x,1/2+y,-z
3/4-y,3/4+x,1/4-z
-x,y,z
x,1/2-y,z
3/4-y,1/4-x,3/4+z
3/4+y,3/4+x,1/4+z
1/2+x,1/2+y,1/2+z
3/4-y,1/4+x,3/4+z
1/2-x,-y,1/2+z
3/4+y,3/4-x,1/4+z
1/2+x,1/2-y,1/2-z
1/2-x,y,1/2-z
3/4+y,1/4+x,3/4-z
3/4-y,3/4-x,1/4-z
1/2-x,1/2-y,1/2-z
1/4+y,3/4-x,1/4-z
1/2+x,y,1/2-z
1/4-y,1/4+x,3/4-z
1/2-x,1/2+y,1/2+z
1/2+x,-y,1/2+z
1/4-y,3/4-x,1/4+z
1/4+y,1/4+x,3/4+z
loop_
_atom_site_type_symbol
_atom_site_label
_atom_site_fract_x
_atom_site_fract_y
_atom_site_fract_z
Si Si1 0.720388 0.192071 0.431161
Si Si2 0.707255 0.358002 0.862923
Si Si3 0.150659 0.056433 0.509801
Si Si4 0.555881 0.887267 0.415641
O O1 0.733254 0.250000 0.384820
O O2 0.770273 0.163451 0.493255
O O3 0.800203 0.159280 0.198579
O O4 0.678578 0.193068 0.547289
O O5 0.750000 0.363780 0.750000
O O6 0.663576 0.320066 0.809546
O O7 0.681996 0.413703 0.874276
O O8 0.158873 0.091128 0.375000
O O9 0.174864 0.000000 0.500000
O O10 0.500000 0.863946 0.432821
O O11 0.591986 0.841986 0.375000
#
# Coordination Sequence:
#
# PCOD8320648 Si02
#       4
#    32  32  32  32
#     4  10  21  40  62  84 114 155 199 245 288 343
#     4  10  21  39  60  84 118 155 194 236 296 358
#     4  12  24  39  55  86 119 154 201 237 286 354
#     4  10  19  34  61  89 116 148 191 242 296 354
#
# _framework density 18.971986000000001
#
# number of rings (size 3 to 8) (size 9 to 14) (size 15 to 20)
#    0.000    1.500    5.000    0.750    0.000    4.750 
#    0.000    0.000    0.000    0.000    0.000    0.000 
#    0.000    0.000    0.000    0.000    0.000    0.000 
#
# Total GULP energy -793297.688936 kJ/mol
# GULP energy per Si atom -12395.276390 kJ/mol
# Density = 1.892880 g / cm^3
# Si number density = 18.971986 Si / 1000 Ang^3
#
#
#
# Elastic Constant Matrix: (Units=GPa)
#
#
# Indices 1 2 3 4 5 6 
#
# 1 122.1293 77.6129 36.1350 0.0000 0.0000 0.0000
# 2 77.6129 122.1280 36.1344 0.0000 0.0000 0.0000
# 3 36.1350 36.1344 86.5241 0.0000 0.0000 0.0000
# 4 0.0000 0.0000 0.0000 42.3669 0.0000 0.0000
# 5 0.0000 0.0000 0.0000 0.0000 42.3683 0.0000
# 6 0.0000 0.0000 0.0000 0.0000 0.0000 23.0883
#
#
#
# Elastic Compliance Matrix: (Units=1/GPa)
#
#
# Indices 1 2 3 4 5 6 
#
# 1 0.014181 -0.008283 -0.002463 0.000000 0.000000 0.000000
# 2 -0.008283 0.014181 -0.002463 0.000000 0.000000 0.000000
# 3 -0.002463 -0.002463 0.013615 0.000000 0.000000 0.000000
# 4 0.000000 0.000000 0.000000 0.023603 0.000000 0.000000
# 5 0.000000 0.000000 0.000000 0.000000 0.023603 0.000000
# 6 0.000000 0.000000 0.000000 0.000000 0.000000 0.043312
#
#
# Mechanical properties :
#
#
# Convention : Reuss Voigt Hill
#
# Bulk Modulus (GPa) = 64.27585 70.06067 67.16826
# Shear Modulus (GPa) = 30.46949 33.62462 32.04705
#
# Velocity S-wave (km/s) = 4.01187 4.21447 4.11442
# Velocity P-wave (km/s) = 7.44399 7.79044 7.61919
#
# Compressibility (1/GPa) = 0.01555794
#
# Stress axis : x y z
#
# Youngs Moduli (GPa) = 70.51813 70.51760 73.44999
#
# Poissons Ratio (x) = 0.58411 0.18091
# Poissons Ratio (y) = 0.58411 0.18090
# Poissons Ratio (z) = 0.17369 0.17368
#
# Static dielectric constant tensor:
#      x y z
#    x 3.218140 0.000000 0.000000 
#    y 0.000000 3.218160 0.000000 
#    z 0.000000 0.000000 3.563720 
# 
# 
# High freq. dielectric constant tensor:
#      x y z
#    x 1.732500 0.000000 0.000000 
#    y 0.000000 1.732500 0.000000 
#    z 0.000000 0.000000 1.741750 
# 
# From -- ./inp_files/4584.got.cif
#   From: 2010.03.12/outbox.cif.g09.slc.cpg/sg141_3_cif.got.tgz:4584.got - 2010.04.03 13:18:35.
