data_PCOD8320783
_publ_section_title
;
Structure prediction by ZEFSAII (Michael W. Deem and Ramdas Pophale) SiO2 
 PCOD8320783
Probable space group: I 41/A M D
;
_chemical_formula_sum "Si O2"
_cell_formula_units_Z 96
_cell_length_a 15.949623
_cell_length_b 15.949623
_cell_length_c 20.862045
_cell_angle_alpha 90.000000
_cell_angle_beta 90.000000
_cell_angle_gamma 90.000000
_cell_volume 5307.105513
_symmetry_space_group_name_H-M "I 41/A M D"
_symmetry_group_IT_number 141
_space_group.IT_coordinate_system_code '2'
_symmetry_cell_setting 'tetragonal'
loop_
_space_group_symop_operation_xyz
x,y,z
1/4-y,3/4+x,1/4+z
-x,1/2-y,z
1/4+y,1/4-x,3/4+z
x,-y,-z
-x,1/2+y,-z
1/4+y,3/4+x,1/4-z
1/4-y,1/4-x,3/4-z
-x,-y,-z
3/4+y,1/4-x,3/4-z
x,1/2+y,-z
3/4-y,3/4+x,1/4-z
-x,y,z
x,1/2-y,z
3/4-y,1/4-x,3/4+z
3/4+y,3/4+x,1/4+z
1/2+x,1/2+y,1/2+z
3/4-y,1/4+x,3/4+z
1/2-x,-y,1/2+z
3/4+y,3/4-x,1/4+z
1/2+x,1/2-y,1/2-z
1/2-x,y,1/2-z
3/4+y,1/4+x,3/4-z
3/4-y,3/4-x,1/4-z
1/2-x,1/2-y,1/2-z
1/4+y,3/4-x,1/4-z
1/2+x,y,1/2-z
1/4-y,1/4+x,3/4-z
1/2-x,1/2+y,1/2+z
1/2+x,-y,1/2+z
1/4-y,3/4-x,1/4+z
1/4+y,1/4+x,3/4+z
loop_
_atom_site_type_symbol
_atom_site_label
_atom_site_fract_x
_atom_site_fract_y
_atom_site_fract_z
Si Si1 0.408035 0.400774 0.505056
Si Si2 0.745498 0.559162 0.060959
Si Si3 0.592898 0.347533 0.887153
O O1 0.415788 0.500000 0.500000
O O2 0.500000 0.365848 0.528348
O O3 0.329614 0.381962 0.552768
O O4 0.383838 0.362696 0.436753
O O5 0.754041 0.504041 0.125000
O O6 0.661333 0.613008 0.065604
O O7 0.735871 0.500000 0.000000
O O8 0.500000 0.383531 0.902580
O O9 0.595476 0.250000 0.900975
#
# Coordination Sequence:
#
# PCOD8320783 Si02
#       3
#    32  32  32
#     4   9  17  33  58  84 113 143 181 235 296 357
#     4  11  20  35  57  86 115 150 194 235 291 343
#     4  10  21  37  57  83 116 155 194 236 291 353
#
# _framework density 18.088956
#
# number of rings (size 3 to 8) (size 9 to 14) (size 15 to 20)
#    0.000    2.000    6.667    0.000    0.000    2.000 
#    0.000    0.000    0.000    0.000    0.000    2.333 
#    0.000    0.000    0.000    0.000    0.000    0.000 
#
# Total GULP energy -594644.021209 kJ/mol
# GULP energy per Si atom -12388.417109 kJ/mol
# Density = 1.804778 g / cm^3
# Si number density = 18.088956 Si / 1000 Ang^3
#
#
#
# Elastic Constant Matrix: (Units=GPa)
#
#
# Indices 1 2 3 4 5 6 
#
# 1 128.3440 36.7097 49.4972 0.0000 0.0000 0.0000
# 2 36.7097 128.3440 49.4972 0.0000 0.0000 0.0000
# 3 49.4972 49.4972 97.7369 0.0000 0.0000 0.0000
# 4 0.0000 0.0000 0.0000 31.9642 0.0000 0.0000
# 5 0.0000 0.0000 0.0000 0.0000 31.9642 0.0000
# 6 0.0000 0.0000 0.0000 0.0000 0.0000 29.4274
#
#
#
# Elastic Compliance Matrix: (Units=1/GPa)
#
#
# Indices 1 2 3 4 5 6 
#
# 1 0.009807 -0.001106 -0.004407 0.000000 0.000000 0.000000
# 2 -0.001106 0.009807 -0.004407 0.000000 0.000000 0.000000
# 3 -0.004407 -0.004407 0.014695 0.000000 0.000000 0.000000
# 4 0.000000 0.000000 0.000000 0.031285 0.000000 0.000000
# 5 0.000000 0.000000 0.000000 0.000000 0.031285 0.000000
# 6 0.000000 0.000000 0.000000 0.000000 0.000000 0.033982
#
#
# Mechanical properties :
#
#
# Convention : Reuss Voigt Hill
#
# Bulk Modulus (GPa) = 69.10289 69.53703 69.31996
# Shear Modulus (GPa) = 32.14938 33.25255 32.70097
#
# Velocity S-wave (km/s) = 4.22037 4.29217 4.25642
# Velocity P-wave (km/s) = 7.87612 7.94284 7.90955
#
# Compressibility (1/GPa) = 0.01447117
#
# Stress axis : x y z
#
# Youngs Moduli (GPa) = 101.96442 101.96442 68.04985
#
# Poissons Ratio (x) = 0.11273 0.29989
# Poissons Ratio (y) = 0.11273 0.29989
# Poissons Ratio (z) = 0.44934 0.44934
#
# Static dielectric constant tensor:
#      x y z
#    x 4.013540 0.000000 0.000000 
#    y 0.000000 4.013540 0.000000 
#    z 0.000000 0.000000 3.022090 
# 
# 
# High freq. dielectric constant tensor:
#      x y z
#    x 1.693890 0.000000 0.000000 
#    y 0.000000 1.693890 0.000000 
#    z 0.000000 0.000000 1.681600 
# 
# From -- ./inp_files/7641.got.cif
#   From: 2010.03.12/outbox.cif.g09.slc.cpg/sg141_4_cif.got.tgz:7641.got - 2010.04.03 13:18:35.
