data_PCOD8320884
_publ_section_title
;
Structure prediction by ZEFSAII (Michael W. Deem and Ramdas Pophale) SiO2 
 PCOD8320884
Probable space group: I 41/A M D
;
_chemical_formula_sum "Si O2"
_cell_formula_units_Z 160
_cell_length_a 18.758635
_cell_length_b 18.758635
_cell_length_c 31.204376
_cell_angle_alpha 90.000000
_cell_angle_beta 90.000000
_cell_angle_gamma 90.000000
_cell_volume 10980.395131
_symmetry_space_group_name_H-M "I 41/A M D"
_symmetry_group_IT_number 141
_space_group.IT_coordinate_system_code '2'
_symmetry_cell_setting 'tetragonal'
loop_
_space_group_symop_operation_xyz
x,y,z
1/4-y,3/4+x,1/4+z
-x,1/2-y,z
1/4+y,1/4-x,3/4+z
x,-y,-z
-x,1/2+y,-z
1/4+y,3/4+x,1/4-z
1/4-y,1/4-x,3/4-z
-x,-y,-z
3/4+y,1/4-x,3/4-z
x,1/2+y,-z
3/4-y,3/4+x,1/4-z
-x,y,z
x,1/2-y,z
3/4-y,1/4-x,3/4+z
3/4+y,3/4+x,1/4+z
1/2+x,1/2+y,1/2+z
3/4-y,1/4+x,3/4+z
1/2-x,-y,1/2+z
3/4+y,3/4-x,1/4+z
1/2+x,1/2-y,1/2-z
1/2-x,y,1/2-z
3/4+y,1/4+x,3/4-z
3/4-y,3/4-x,1/4-z
1/2-x,1/2-y,1/2-z
1/4+y,3/4-x,1/4-z
1/2+x,y,1/2-z
1/4-y,1/4+x,3/4-z
1/2-x,1/2+y,1/2+z
1/2+x,-y,1/2+z
1/4-y,3/4-x,1/4+z
1/4+y,1/4+x,3/4+z
loop_
_atom_site_type_symbol
_atom_site_label
_atom_site_fract_x
_atom_site_fract_y
_atom_site_fract_z
Si Si1 0.081222 0.031588 0.680494
Si Si2 0.419945 0.071230 0.101798
Si Si3 0.415315 0.327886 0.861725
Si Si4 0.323241 0.074389 0.229001
Si Si5 0.582394 0.167911 0.291865
O O1 0.109866 0.111986 0.671982
O O2 0.000000 0.030856 0.698006
O O3 0.084392 0.993734 0.634595
O O4 0.131972 0.995105 0.715314
O O5 0.392973 0.142973 0.125000
O O6 0.500000 0.085183 0.085959
O O7 0.371871 0.051510 0.061502
O O8 0.500000 0.327724 0.864327
O O9 0.387661 0.250000 0.846180
O O10 0.388101 0.343118 0.909957
O O11 0.250000 0.047455 0.250000
O O12 0.370055 0.120752 0.260932
O O13 0.500000 0.160982 0.277931
O O14 0.607364 0.250000 0.288133
#
# Coordination Sequence:
#
# PCOD8320884 Si02
#       5
#    32  32  32  32  32
#     4   9  17  30  43  55  76 102 130 163 196 233
#     4   9  18  29  39  53  75 107 142 170 194 221
#     4   8  14  26  45  63  74  91 125 166 200 229
#     4  11  20  27  38  57  82 110 135 159 193 235
#     4   9  17  28  41  58  79 102 132 169 201 224
#
# _framework density 14.571425
#
# number of rings (size 3 to 8) (size 9 to 14) (size 15 to 20)
#    0.000    2.800    0.000    3.600    0.000    4.200 
#    0.000    0.000    0.000    0.600    0.000    0.000 
#    0.000    0.000    0.000    0.000    0.000    0.400 
#
# Total GULP energy -991695.059391 kJ/mol
# GULP energy per Si atom -12396.188242 kJ/mol
# Density = 1.453826 g / cm^3
# Si number density = 14.571425 Si / 1000 Ang^3
#
#
#
# Elastic Constant Matrix: (Units=GPa)
#
#
# Indices 1 2 3 4 5 6 
#
# 1 83.3421 48.6644 42.3194 0.0000 0.0000 0.0000
# 2 48.6644 83.3421 42.3194 0.0000 0.0000 0.0000
# 3 42.3194 42.3194 55.3818 0.0000 0.0000 0.0000
# 4 0.0000 0.0000 0.0000 16.2523 0.0000 0.0000
# 5 0.0000 0.0000 0.0000 0.0000 16.2523 0.0000
# 6 0.0000 0.0000 0.0000 0.0000 0.0000 12.1401
#
#
#
# Elastic Compliance Matrix: (Units=1/GPa)
#
#
# Indices 1 2 3 4 5 6 
#
# 1 0.021845 -0.006992 -0.011349 0.000000 0.000000 0.000000
# 2 -0.006992 0.021845 -0.011349 0.000000 0.000000 0.000000
# 3 -0.011349 -0.011349 0.035401 0.000000 0.000000 0.000000
# 4 0.000000 0.000000 0.000000 0.061530 0.000000 0.000000
# 5 0.000000 0.000000 0.000000 0.000000 0.061530 0.000000
# 6 0.000000 0.000000 0.000000 0.000000 0.000000 0.082372
#
#
# Mechanical properties :
#
#
# Convention : Reuss Voigt Hill
#
# Bulk Modulus (GPa) = 50.73842 54.29693 52.51768
# Shear Modulus (GPa) = 14.26647 14.84645 14.55646
#
# Velocity S-wave (km/s) = 3.13241 3.19544 3.16408
# Velocity P-wave (km/s) = 6.92667 7.13849 7.03337
#
# Compressibility (1/GPa) = 0.01970893
#
# Stress axis : x y z
#
# Youngs Moduli (GPa) = 45.77802 45.77802 28.24780
#
# Poissons Ratio (x) = 0.32010 0.32059
# Poissons Ratio (y) = 0.32010 0.32059
# Poissons Ratio (z) = 0.51954 0.51954
#
# Static dielectric constant tensor:
#      x y z
#    x 2.914620 0.000000 0.000000 
#    y 0.000000 2.914620 0.000000 
#    z 0.000000 0.000000 2.729490 
# 
# 
# High freq. dielectric constant tensor:
#      x y z
#    x 1.541600 0.000000 0.000000 
#    y 0.000000 1.541600 0.000000 
#    z 0.000000 0.000000 1.540100 
# 
# From -- ./inp_files/12713.got.cif
#   From: 2010.03.12/outbox.cif.g09.slc.cpg/sg141_7_cif.got.tgz:12713.got - 2010.04.03 13:18:35.
