data_PCOD8320943
_publ_section_title
;
Structure prediction by ZEFSAII (Michael W. Deem and Ramdas Pophale) SiO2 
 PCOD8320943
Probable space group: I 41/A M D
;
_chemical_formula_sum "Si O2"
_cell_formula_units_Z 96
_cell_length_a 23.531775
_cell_length_b 23.531775
_cell_length_c 9.744024
_cell_angle_alpha 90.000000
_cell_angle_beta 90.000000
_cell_angle_gamma 90.000000
_cell_volume 5395.699061
_symmetry_space_group_name_H-M "I 41/A M D"
_symmetry_group_IT_number 141
_space_group.IT_coordinate_system_code '2'
_symmetry_cell_setting 'tetragonal'
loop_
_space_group_symop_operation_xyz
x,y,z
1/4-y,3/4+x,1/4+z
-x,1/2-y,z
1/4+y,1/4-x,3/4+z
x,-y,-z
-x,1/2+y,-z
1/4+y,3/4+x,1/4-z
1/4-y,1/4-x,3/4-z
-x,-y,-z
3/4+y,1/4-x,3/4-z
x,1/2+y,-z
3/4-y,3/4+x,1/4-z
-x,y,z
x,1/2-y,z
3/4-y,1/4-x,3/4+z
3/4+y,3/4+x,1/4+z
1/2+x,1/2+y,1/2+z
3/4-y,1/4+x,3/4+z
1/2-x,-y,1/2+z
3/4+y,3/4-x,1/4+z
1/2+x,1/2-y,1/2-z
1/2-x,y,1/2-z
3/4+y,1/4+x,3/4-z
3/4-y,3/4-x,1/4-z
1/2-x,1/2-y,1/2-z
1/4+y,3/4-x,1/4-z
1/2+x,y,1/2-z
1/4-y,1/4+x,3/4-z
1/2-x,1/2+y,1/2+z
1/2+x,-y,1/2+z
1/4-y,3/4-x,1/4+z
1/4+y,1/4+x,3/4+z
loop_
_atom_site_type_symbol
_atom_site_label
_atom_site_fract_x
_atom_site_fract_y
_atom_site_fract_z
Si Si1 0.619361 0.586792 0.236996
Si Si2 0.328944 0.250000 0.361141
Si Si3 0.103230 0.030349 0.139913
Si Si4 0.500000 0.948169 0.810933
O O1 0.626330 0.623671 0.375000
O O2 0.557936 0.604718 0.175345
O O3 0.626340 0.519465 0.262170
O O4 0.671895 0.599248 0.135480
O O5 0.340666 0.250000 0.197425
O O6 0.263010 0.250000 0.393843
O O7 0.053678 0.064862 0.215554
O O8 0.081269 0.000000 0.000000
#
# Coordination Sequence:
#
# PCOD8320943 Si02
#       4
#    32  16  32  16
#     4   9  18  32  54  74 103 133 175 207 258 309
#     4   9  18  32  50  74  99 133 172 219 242 304
#     4   9  17  31  53  75 101 137 171 214 255 314
#     4   9  17  30  52  72  98 130 180 209 248 294
#
# _framework density 17.79195
#
# number of rings (size 3 to 8) (size 9 to 14) (size 15 to 20)
#    0.000    3.000    0.000    0.500    0.000    5.333 
#    0.000    0.000  110.000    3.500    0.000    4.667 
#    0.000    0.000    0.000    0.000    0.000    0.000 
#
# Total GULP energy -594859.860887 kJ/mol
# GULP energy per Si atom -12392.913768 kJ/mol
# Density = 1.775145 g / cm^3
# Si number density = 17.791950 Si / 1000 Ang^3
#
#
#
# Elastic Constant Matrix: (Units=GPa)
#
#
# Indices 1 2 3 4 5 6 
#
# 1 105.8435 55.4264 58.9821 0.0000 0.0000 0.0000
# 2 55.4264 105.8428 58.9832 0.0000 0.0000 0.0000
# 3 58.9821 58.9832 94.9645 0.0000 0.0000 0.0000
# 4 0.0000 0.0000 0.0000 26.4152 0.0000 0.0000
# 5 0.0000 0.0000 0.0000 0.0000 26.4152 0.0000
# 6 0.0000 0.0000 0.0000 0.0000 0.0000 8.5610
#
#
#
# Elastic Compliance Matrix: (Units=1/GPa)
#
#
# Indices 1 2 3 4 5 6 
#
# 1 0.015599 -0.004236 -0.007058 0.000000 0.000000 0.000000
# 2 -0.004236 0.015599 -0.007058 0.000000 0.000000 0.000000
# 3 -0.007058 -0.007058 0.019298 0.000000 0.000000 0.000000
# 4 0.000000 0.000000 0.000000 0.037857 0.000000 0.000000
# 5 0.000000 0.000000 0.000000 0.000000 0.037857 0.000000
# 6 0.000000 0.000000 0.000000 0.000000 0.000000 0.116809
#
#
# Mechanical properties :
#
#
# Convention : Reuss Voigt Hill
#
# Bulk Modulus (GPa) = 72.50045 72.60382 72.55213
# Shear Modulus (GPa) = 17.58584 21.16221 19.37402
#
# Velocity S-wave (km/s) = 3.14732 3.45255 3.30346
# Velocity P-wave (km/s) = 7.35153 7.53586 7.44426
#
# Compressibility (1/GPa) = 0.01379302
#
# Stress axis : x y z
#
# Youngs Moduli (GPa) = 64.10726 64.10530 51.81987
#
# Poissons Ratio (x) = 0.27152 0.36573
# Poissons Ratio (y) = 0.27153 0.36575
# Poissons Ratio (z) = 0.45245 0.45247
#
# Static dielectric constant tensor:
#      x y z
#    x 3.192140 0.000000 0.000000 
#    y 0.000000 3.192140 0.000000 
#    z 0.000000 0.000000 3.603970 
# 
# 
# High freq. dielectric constant tensor:
#      x y z
#    x 1.664860 0.000000 0.000000 
#    y 0.000000 1.664860 0.000000 
#    z 0.000000 0.000000 1.697380 
# 
# From -- ./inp_files/2548.got.cif
#   From: 2010.03.12/outbox.cif.g09.slc.cpg/sg141_2_cif.got.tgz:2548.got - 2010.04.03 13:18:35.
