data_PCOD8320407
_publ_section_title
;
Structure prediction by ZEFSAII (Michael W. Deem and Ramdas Pophale) SiO2 
 PCOD8320407
Probable space group: I 4/M C M
;
_chemical_formula_sum "Si O2"
_cell_formula_units_Z 176
_cell_length_a 18.156194
_cell_length_b 18.156194
_cell_length_c 26.048220
_cell_angle_alpha 90.000000
_cell_angle_beta 90.000000
_cell_angle_gamma 90.000000
_cell_volume 8586.727491
_symmetry_space_group_name_H-M "I 4/M C M"
_symmetry_group_IT_number 140
_symmetry_cell_setting 'tetragonal'
loop_
_space_group_symop_operation_xyz
x,y,z
-y,x,z
-x,-y,z
y,-x,z
x,-y,1/2-z
-x,y,1/2-z
y,x,1/2-z
-y,-x,1/2-z
-x,-y,-z
y,-x,-z
x,y,-z
-y,x,-z
-x,y,1/2+z
x,-y,1/2+z
-y,-x,1/2+z
y,x,1/2+z
1/2+x,1/2+y,1/2+z
1/2-y,1/2+x,1/2+z
1/2-x,1/2-y,1/2+z
1/2+y,1/2-x,1/2+z
1/2+x,1/2-y,-z
1/2-x,1/2+y,-z
1/2+y,1/2+x,-z
1/2-y,1/2-x,-z
1/2-x,1/2-y,1/2-z
1/2+y,1/2-x,1/2-z
1/2+x,1/2+y,1/2-z
1/2-y,1/2+x,1/2-z
1/2-x,1/2+y,z
1/2+x,1/2-y,z
1/2-y,1/2-x,z
1/2+y,1/2+x,z
loop_
_atom_site_type_symbol
_atom_site_label
_atom_site_fract_x
_atom_site_fract_y
_atom_site_fract_z
Si Si1 0.393291 0.555546 0.000000
Si Si2 0.530482 0.152377 0.609194
Si Si3 0.728430 0.228430 0.941665
Si Si4 0.294977 0.326724 0.808451
Si Si5 0.324576 0.943013 0.207171
Si Si6 0.387564 0.696650 0.404176
Si Si7 0.384537 0.884537 0.942027
O O1 0.400890 0.468680 0.000000
O O2 0.355873 0.573115 0.054842
O O3 0.598929 0.098929 0.602121
O O4 0.490937 0.137847 0.663085
O O5 0.558377 0.235206 0.604116
O O6 0.469544 0.134541 0.566962
O O7 0.715212 0.312211 0.930714
O O8 0.671904 0.171904 0.911591
O O9 0.713225 0.213225 0.000000
O O10 0.322682 0.322682 0.750000
O O11 0.246886 0.253115 0.822569
O O12 0.246236 0.399973 0.814275
O O13 0.364951 0.334477 0.847249
O O14 0.384570 0.884570 0.228921
O O15 0.298335 0.000000 0.250000
O O16 0.369023 0.869023 0.000000
#
# Coordination Sequence:
#
# PCOD8320407 Si02
#       7
#    16  32  16  32  32  32  16
#     4  11  30  51  72 104 135 174 231 308 372 414
#     4  12  25  41  62 100 140 183 225 273 340 420
#     4  11  22  41  63 101 126 172 242 293 330 409
#     4  10  21  40  64  99 139 180 235 294 337 399
#     4  11  23  39  64  94 138 188 231 277 346 409
#     4  12  24  42  74  97 136 181 232 287 346 420
#     4  11  27  42  65  91 139 179 225 280 346 413
#
# _framework density 20.496751
#
# number of rings (size 3 to 8) (size 9 to 14) (size 15 to 20)
#    0.000    0.818    3.636    3.000    6.364    3.091 
#    0.000    0.000    0.000    0.000    0.000    1.273 
#    0.000    0.000    0.000    0.000    0.000    0.000 
#
# Total GULP energy -1090667.331979 kJ/mol
# GULP energy per Si atom -12393.946954 kJ/mol
# Density = 2.045010 g / cm^3
# Si number density = 20.496751 Si / 1000 Ang^3
#
#
#
# Elastic Constant Matrix: (Units=GPa)
#
#
# Indices 1 2 3 4 5 6 
#
# 1 95.7553 68.5856 36.3352 0.0000 0.0000 0.0000
# 2 68.5856 95.7553 36.3352 0.0000 0.0000 0.0000
# 3 36.3352 36.3352 99.9303 0.0000 0.0000 0.0000
# 4 0.0000 0.0000 0.0000 -8.6549 0.0000 0.0000
# 5 0.0000 0.0000 0.0000 0.0000 -8.6550 0.0000
# 6 0.0000 0.0000 0.0000 0.0000 0.0000 36.6077
#
#
#
# Elastic Compliance Matrix: (Units=1/GPa)
#
#
# Indices 1 2 3 4 5 6 
#
# 1 0.022028 -0.014778 -0.002636 0.000000 0.000000 0.000000
# 2 -0.014778 0.022028 -0.002636 0.000000 0.000000 0.000000
# 3 -0.002636 -0.002636 0.011924 0.000000 0.000000 0.000000
# 4 0.000000 0.000000 0.000000 -0.115541 0.000000 0.000000
# 5 0.000000 0.000000 0.000000 0.000000 -0.115541 0.000000
# 6 0.000000 0.000000 0.000000 0.000000 0.000000 0.027317
#
#
# Mechanical properties :
#
#
# Convention : Reuss Voigt Hill
#
# Bulk Modulus (GPa) = 62.97220 63.77254 63.37237
# Shear Modulus (GPa) = -48.83265 13.87190 -17.48038
#
# Velocity S-wave (km/s) = -4.88634 2.60433 -2.92350
# Velocity P-wave (km/s) = 1.02243 6.34227 4.42601
#
# Compressibility (1/GPa) = 0.01588002
#
# Stress axis : x y z
#
# Youngs Moduli (GPa) = 45.39633 45.39633 83.86318
#
# Poissons Ratio (x) = 0.67084 0.22110
# Poissons Ratio (y) = 0.67084 0.22110
# Poissons Ratio (z) = 0.11968 0.11968
#
# Static dielectric constant tensor:
#      x y z
#    x 3.703830 0.000000 0.000000 
#    y 0.000000 3.703830 0.000000 
#    z 0.000000 0.000000 4.017300 
# 
# 
# High freq. dielectric constant tensor:
#      x y z
#    x 1.800700 0.000000 0.000000 
#    y 0.000000 1.800700 0.000000 
#    z 0.000000 0.000000 1.817650 
# 
# From -- ./inp_files/10777.got.cif
#   From: 2010.06.25/outbox.cif.g09.slc.cpg/sg140_6_cif.got.tgz:10777.got - 2010.06.28 10:53:23.
