data_PCOD8320754
_publ_section_title
;
Structure prediction by ZEFSAII (Michael W. Deem and Ramdas Pophale) SiO2 
 PCOD8320754
Probable space group: I 41/A M D
;
_chemical_formula_sum "Si O2"
_cell_formula_units_Z 160
_cell_length_a 19.846357
_cell_length_b 19.846357
_cell_length_c 19.029207
_cell_angle_alpha 90.000000
_cell_angle_beta 90.000000
_cell_angle_gamma 90.000000
_cell_volume 7495.183829
_symmetry_space_group_name_H-M "I 41/A M D"
_symmetry_group_IT_number 141
_space_group.IT_coordinate_system_code '2'
_symmetry_cell_setting 'tetragonal'
loop_
_space_group_symop_operation_xyz
x,y,z
1/4-y,3/4+x,1/4+z
-x,1/2-y,z
1/4+y,1/4-x,3/4+z
x,-y,-z
-x,1/2+y,-z
1/4+y,3/4+x,1/4-z
1/4-y,1/4-x,3/4-z
-x,-y,-z
3/4+y,1/4-x,3/4-z
x,1/2+y,-z
3/4-y,3/4+x,1/4-z
-x,y,z
x,1/2-y,z
3/4-y,1/4-x,3/4+z
3/4+y,3/4+x,1/4+z
1/2+x,1/2+y,1/2+z
3/4-y,1/4+x,3/4+z
1/2-x,-y,1/2+z
3/4+y,3/4-x,1/4+z
1/2+x,1/2-y,1/2-z
1/2-x,y,1/2-z
3/4+y,1/4+x,3/4-z
3/4-y,3/4-x,1/4-z
1/2-x,1/2-y,1/2-z
1/4+y,3/4-x,1/4-z
1/2+x,y,1/2-z
1/4-y,1/4+x,3/4-z
1/2-x,1/2+y,1/2+z
1/2+x,-y,1/2+z
1/4-y,3/4-x,1/4+z
1/4+y,1/4+x,3/4+z
loop_
_atom_site_type_symbol
_atom_site_label
_atom_site_fract_x
_atom_site_fract_y
_atom_site_fract_z
Si Si1 0.080443 0.112572 0.687929
Si Si2 0.078611 0.496546 0.577267
Si Si3 0.145157 0.435377 0.947735
Si Si4 0.000000 0.887108 0.880362
Si Si5 0.500000 0.031251 0.575351
Si Si6 0.073643 0.750000 0.514098
Si Si7 0.392084 0.142084 0.125000
O O1 0.104777 0.066283 0.622734
O O2 0.118189 0.086561 0.758120
O O3 0.105838 0.186974 0.670932
O O4 0.000000 0.109637 0.700332
O O5 0.113520 0.500000 0.500000
O O6 0.094441 0.563574 0.619667
O O7 0.000000 0.487242 0.566730
O O8 0.189745 0.439745 0.875000
O O9 0.068689 0.426186 0.918207
O O10 0.155273 0.500000 0.000000
O O11 0.000000 0.874786 0.798396
O O12 0.000000 0.967369 0.873621
O O13 0.500000 0.000000 0.500000
O O14 0.081011 0.818267 0.557848
O O15 0.000000 0.750000 0.479818
#
# Coordination Sequence:
#
# PCOD8320754 Si02
#       7
#    32  32  32  16  16  16  16
#     4  11  23  42  67 105 133 173 234 283 347 411
#     4  10  22  42  63  93 140 181 221 283 338 392
#     4  11  24  47  73  99 140 178 223 284 346 418
#     4  12  22  41  75  98 132 178 225 292 347 403
#     4  10  20  45  72  98 132 173 218 275 354 410
#     4  12  22  36  65 104 137 180 237 280 324 403
#     4  12  21  42  62  94 140 184 230 270 333 400
#
# _framework density 21.347041999999998
#
# number of rings (size 3 to 8) (size 9 to 14) (size 15 to 20)
#    0.000    1.000    6.000    2.100    1.400    3.200 
#    5.400    0.000    0.000    0.000    0.000    0.000 
#    0.000    0.000    0.000    0.000    0.000    0.000 
#
# Total GULP energy -991587.018721 kJ/mol
# GULP energy per Si atom -12394.837734 kJ/mol
# Density = 2.129846 g / cm^3
# Si number density = 21.347042 Si / 1000 Ang^3
#
#
#
# Elastic Constant Matrix: (Units=GPa)
#
#
# Indices 1 2 3 4 5 6 
#
# 1 95.8747 16.8394 41.7874 0.0000 0.0000 0.0000
# 2 16.8394 95.8747 41.7874 0.0000 0.0000 0.0000
# 3 41.7874 41.7874 151.8611 0.0000 0.0000 0.0000
# 4 0.0000 0.0000 0.0000 36.5209 0.0000 0.0000
# 5 0.0000 0.0000 0.0000 0.0000 36.5209 0.0000
# 6 0.0000 0.0000 0.0000 0.0000 0.0000 21.2735
#
#
#
# Elastic Compliance Matrix: (Units=1/GPa)
#
#
# Indices 1 2 3 4 5 6 
#
# 1 0.011899 -0.000753 -0.003067 0.000000 0.000000 0.000000
# 2 -0.000753 0.011899 -0.003067 0.000000 0.000000 0.000000
# 3 -0.003067 -0.003067 0.008273 0.000000 0.000000 0.000000
# 4 0.000000 0.000000 0.000000 0.027382 0.000000 0.000000
# 5 0.000000 0.000000 0.000000 0.000000 0.027382 0.000000
# 6 0.000000 0.000000 0.000000 0.000000 0.000000 0.047007
#
#
# Mechanical properties :
#
#
# Convention : Reuss Voigt Hill
#
# Bulk Modulus (GPa) = 54.65400 60.49322 57.57361
# Shear Modulus (GPa) = 32.52765 35.07614 33.80189
#
# Velocity S-wave (km/s) = 3.90776 4.05796 3.98357
# Velocity P-wave (km/s) = 6.78373 7.09617 6.94171
#
# Compressibility (1/GPa) = 0.01829692
#
# Stress axis : x y z
#
# Youngs Moduli (GPa) = 84.03809 84.03809 120.87668
#
# Poissons Ratio (x) = 0.06330 0.37074
# Poissons Ratio (y) = 0.06330 0.37074
# Poissons Ratio (z) = 0.25775 0.25775
#
# Static dielectric constant tensor:
#      x y z
#    x 3.767860 0.000000 0.000000 
#    y 0.000000 3.767860 0.000000 
#    z 0.000000 0.000000 4.127710 
# 
# 
# High freq. dielectric constant tensor:
#      x y z
#    x 1.832000 0.000000 0.000000 
#    y 0.000000 1.832000 0.000000 
#    z 0.000000 0.000000 1.848120 
# 
# From -- ./inp_files/8700.got.cif
#   From: 2010.03.12/outbox.cif.g09.slc.cpg/sg141_5_cif.got.tgz:8700.got - 2010.04.03 13:18:35.
