data_PCOD8320272
_publ_section_title
;
Structure prediction by ZEFSAII (Michael W. Deem and Ramdas Pophale) SiO2 
 PCOD8320272
Probable space group: I 4/M C M
;
_chemical_formula_sum "Si O2"
_cell_formula_units_Z 160
_cell_length_a 30.515641
_cell_length_b 30.515641
_cell_length_c 9.628019
_cell_angle_alpha 90.000000
_cell_angle_beta 90.000000
_cell_angle_gamma 90.000000
_cell_volume 8965.653133
_symmetry_space_group_name_H-M "I 4/M C M"
_symmetry_group_IT_number 140
_symmetry_cell_setting 'tetragonal'
loop_
_space_group_symop_operation_xyz
x,y,z
-y,x,z
-x,-y,z
y,-x,z
x,-y,1/2-z
-x,y,1/2-z
y,x,1/2-z
-y,-x,1/2-z
-x,-y,-z
y,-x,-z
x,y,-z
-y,x,-z
-x,y,1/2+z
x,-y,1/2+z
-y,-x,1/2+z
y,x,1/2+z
1/2+x,1/2+y,1/2+z
1/2-y,1/2+x,1/2+z
1/2-x,1/2-y,1/2+z
1/2+y,1/2-x,1/2+z
1/2+x,1/2-y,-z
1/2-x,1/2+y,-z
1/2+y,1/2+x,-z
1/2-y,1/2-x,-z
1/2-x,1/2-y,1/2-z
1/2+y,1/2-x,1/2-z
1/2+x,1/2+y,1/2-z
1/2-y,1/2+x,1/2-z
1/2-x,1/2+y,z
1/2+x,1/2-y,z
1/2-y,1/2-x,z
1/2+y,1/2+x,z
loop_
_atom_site_type_symbol
_atom_site_label
_atom_site_fract_x
_atom_site_fract_y
_atom_site_fract_z
Si Si1 0.866448 0.190506 0.837582
Si Si2 0.122547 0.547418 0.500000
Si Si3 0.926087 0.681547 0.247077
Si Si4 0.878330 0.553039 0.500000
Si Si5 0.460823 0.273665 0.160167
Si Si6 0.658656 0.228440 0.841042
O O1 0.852583 0.147418 0.750000
O O2 0.918612 0.195293 0.824861
O O3 0.841798 0.231141 0.765044
O O4 0.852392 0.187807 0.000000
O O5 0.081784 0.581784 0.500000
O O6 0.154499 0.551109 0.628169
O O7 0.107008 0.497456 0.500000
O O8 0.928544 0.649888 0.375329
O O9 0.951934 0.726211 0.275646
O O10 0.876404 0.692201 0.205975
O O11 0.925630 0.574371 0.500000
O O12 0.500000 0.295221 0.250000
O O13 0.474951 0.269318 0.000000
O O14 0.706352 0.206352 0.832388
O O15 0.648809 0.243693 0.000000
#
# Coordination Sequence:
#
# PCOD8320272 Si02
#       6
#    32  16  32  16  32  32
#     4  10  22  38  54  79 113 150 184 217 262 312
#     4  12  24  39  54  70  95 129 171 217 272 346
#     4  11  22  37  55  79 103 130 168 220 279 335
#     4  12  24  37  54  74  97 127 165 219 282 338
#     4  10  21  36  58  87 113 139 179 223 265 314
#     4  10  20  35  55  77 102 137 179 221 265 319
#
# _framework density 17.845883000000001
#
# number of rings (size 3 to 8) (size 9 to 14) (size 15 to 20)
#    0.000    1.400    2.000    4.200    2.800    2.600 
#    0.000    0.000    0.000    2.400    0.000    0.000 
#    0.000    0.400    0.000    4.400    0.000    3.200 
#
# Total GULP energy -991764.486892 kJ/mol
# GULP energy per Si atom -12397.056086 kJ/mol
# Density = 1.780526 g / cm^3
# Si number density = 17.845883 Si / 1000 Ang^3
#
#
#
# Elastic Constant Matrix: (Units=GPa)
#
#
# Indices 1 2 3 4 5 6 
#
# 1 75.3735 46.4209 52.4805 0.0000 0.0000 0.0000
# 2 46.4209 75.3790 52.4815 0.0000 0.0000 0.0000
# 3 52.4805 52.4815 164.1033 0.0000 0.0000 0.0000
# 4 0.0000 0.0000 0.0000 8.6643 0.0000 0.0000
# 5 0.0000 0.0000 0.0000 0.0000 8.6541 0.0000
# 6 0.0000 0.0000 0.0000 0.0000 0.0000 23.5913
#
#
#
# Elastic Compliance Matrix: (Units=1/GPa)
#
#
# Indices 1 2 3 4 5 6 
#
# 1 0.022936 -0.011601 -0.003625 0.000000 0.000000 0.000000
# 2 -0.011601 0.022934 -0.003624 0.000000 0.000000 0.000000
# 3 -0.003625 -0.003624 0.008412 0.000000 0.000000 0.000000
# 4 0.000000 0.000000 0.000000 0.115417 0.000000 0.000000
# 5 0.000000 0.000000 0.000000 0.000000 0.115552 0.000000
# 6 0.000000 0.000000 0.000000 0.000000 0.000000 0.042389
#
#
# Mechanical properties :
#
#
# Convention : Reuss Voigt Hill
#
# Bulk Modulus (GPa) = 60.30830 68.62463 64.46646
# Shear Modulus (GPa) = 13.48193 19.08012 16.28103
#
# Velocity S-wave (km/s) = 2.75155 3.27335 3.02373
# Velocity P-wave (km/s) = 6.63039 7.26801 6.95651
#
# Compressibility (1/GPa) = 0.01658147
#
# Stress axis : x y z
#
# Youngs Moduli (GPa) = 43.59967 43.60328 118.87633
#
# Poissons Ratio (x) = 0.50584 0.43091
# Poissons Ratio (y) = 0.50580 0.43086
# Poissons Ratio (z) = 0.15804 0.15804
#
# Static dielectric constant tensor:
#      x y z
#    x 3.390830 0.000000 0.000000 
#    y 0.000000 3.390810 0.000000 
#    z 0.000000 0.000000 3.538460 
# 
# 
# High freq. dielectric constant tensor:
#      x y z
#    x 1.672960 0.000000 0.000000 
#    y 0.000000 1.672960 0.000000 
#    z 0.000000 0.000000 1.716340 
# 
# From -- ./inp_files/1785.got.cif
#   From: 2010.06.25/outbox.cif.g09.slc.cpg/sg140_1_cif.got.tgz:1785.got - 2010.06.28 10:53:23.
