data_PCOD8320123
_publ_section_title
;
Structure prediction by ZEFSAII (Michael W. Deem and Ramdas Pophale) SiO2 
 PCOD8320123
Probable space group: I 4/M C M
;
_chemical_formula_sum "Si O2"
_cell_formula_units_Z 176
_cell_length_a 17.434080
_cell_length_b 17.434080
_cell_length_c 29.172308
_cell_angle_alpha 90.000000
_cell_angle_beta 90.000000
_cell_angle_gamma 90.000000
_cell_volume 8866.839743
_symmetry_space_group_name_H-M "I 4/M C M"
_symmetry_group_IT_number 140
_symmetry_cell_setting 'tetragonal'
loop_
_space_group_symop_operation_xyz
x,y,z
-y,x,z
-x,-y,z
y,-x,z
x,-y,1/2-z
-x,y,1/2-z
y,x,1/2-z
-y,-x,1/2-z
-x,-y,-z
y,-x,-z
x,y,-z
-y,x,-z
-x,y,1/2+z
x,-y,1/2+z
-y,-x,1/2+z
y,x,1/2+z
1/2+x,1/2+y,1/2+z
1/2-y,1/2+x,1/2+z
1/2-x,1/2-y,1/2+z
1/2+y,1/2-x,1/2+z
1/2+x,1/2-y,-z
1/2-x,1/2+y,-z
1/2+y,1/2+x,-z
1/2-y,1/2-x,-z
1/2-x,1/2-y,1/2-z
1/2+y,1/2-x,1/2-z
1/2+x,1/2+y,1/2-z
1/2-y,1/2+x,1/2-z
1/2-x,1/2+y,z
1/2+x,1/2-y,z
1/2-y,1/2-x,z
1/2+y,1/2+x,z
loop_
_atom_site_type_symbol
_atom_site_label
_atom_site_fract_x
_atom_site_fract_y
_atom_site_fract_z
Si Si1 0.206396 0.823816 0.052985
Si Si2 0.101427 0.061291 0.054108
Si Si3 0.314053 0.685619 0.801577
Si Si4 0.880125 0.500000 0.250000
Si Si5 0.696537 0.071959 0.336188
Si Si6 0.784225 0.408003 0.631880
O O1 0.237449 0.737449 0.062386
O O2 0.116289 0.827098 0.067672
O O3 0.255776 0.884155 0.081583
O O4 0.216745 0.847383 0.000000
O O5 0.024652 0.104913 0.073854
O O6 0.095289 0.054876 0.000000
O O7 0.339191 0.660810 0.750000
O O8 0.248291 0.748291 0.797866
O O9 0.278564 0.613879 0.829723
O O10 0.385647 0.720352 0.829732
O O11 0.933925 0.566076 0.227638
O O12 0.826149 0.462479 0.212671
O O13 0.630900 0.130900 0.354055
O O14 0.704220 0.999686 0.370299
O O15 0.864052 0.364052 0.642897
#
# Coordination Sequence:
#
# PCOD8320123 Si02
#       6
#    32  32  32  16  32  32
#     4   9  18  32  49  69  96 132 170 207 252 308
#     4   8  14  26  46  71  95 118 150 200 258 305
#     4   9  18  32  49  71 101 134 164 197 244 302
#     4   9  16  26  44  72 100 123 156 204 246 275
#     4  10  19  31  50  74  99 129 166 205 245 294
#     4  10  20  33  50  73 101 131 166 210 255 297
#
# _framework density 19.849236000000001
#
# number of rings (size 3 to 8) (size 9 to 14) (size 15 to 20)
#    0.000    2.818    0.000    2.182    0.000    5.455 
#    0.000    0.000    0.000    1.091    0.000    3.818 
#    0.000    0.000    0.000    0.000    0.000    0.000 
#
# Total GULP energy -1090192.358674 kJ/mol
# GULP energy per Si atom -12388.549530 kJ/mol
# Density = 1.980406 g / cm^3
# Si number density = 19.849236 Si / 1000 Ang^3
#
#
#
# Elastic Constant Matrix: (Units=GPa)
#
#
# Indices 1 2 3 4 5 6 
#
# 1 73.4601 31.9149 0.5087 0.0000 0.0000 0.0000
# 2 31.9149 73.4602 0.5087 0.0000 0.0000 0.0000
# 3 0.5087 0.5087 47.4986 0.0000 0.0000 0.0000
# 4 0.0000 0.0000 0.0000 17.3545 0.0000 0.0000
# 5 0.0000 0.0000 0.0000 0.0000 17.3545 0.0000
# 6 0.0000 0.0000 0.0000 0.0000 0.0000 29.4630
#
#
#
# Elastic Compliance Matrix: (Units=1/GPa)
#
#
# Indices 1 2 3 4 5 6 
#
# 1 0.016781 -0.007290 -0.000102 0.000000 0.000000 0.000000
# 2 -0.007290 0.016780 -0.000102 0.000000 0.000000 0.000000
# 3 -0.000102 -0.000102 0.021055 0.000000 0.000000 0.000000
# 4 0.000000 0.000000 0.000000 0.057622 0.000000 0.000000
# 5 0.000000 0.000000 0.000000 0.000000 0.057622 0.000000
# 6 0.000000 0.000000 0.000000 0.000000 0.000000 0.033941
#
#
# Mechanical properties :
#
#
# Convention : Reuss Voigt Hill
#
# Bulk Modulus (GPa) = 25.23303 28.92041 27.07672
# Shear Modulus (GPa) = 21.55200 23.60019 22.57609
#
# Velocity S-wave (km/s) = 3.29870 3.45189 3.37616
# Velocity P-wave (km/s) = 5.22001 5.52169 5.37297
#
# Compressibility (1/GPa) = 0.03963059
#
# Stress axis : x y z
#
# Youngs Moduli (GPa) = 59.59295 59.59304 47.49372
#
# Poissons Ratio (x) = 0.43441 0.00483
# Poissons Ratio (y) = 0.43441 0.00483
# Poissons Ratio (z) = 0.00606 0.00606
#
# Static dielectric constant tensor:
#      x y z
#    x 3.812350 0.000000 0.000000 
#    y 0.000000 3.812350 0.000000 
#    z 0.000000 0.000000 3.412070 
# 
# 
# High freq. dielectric constant tensor:
#      x y z
#    x 1.763320 0.000000 0.000000 
#    y 0.000000 1.763320 0.000000 
#    z 0.000000 0.000000 1.752790 
# 
# From -- ./inp_files/11531.got.cif
#   From: 2010.06.25/outbox.cif.g09.slc.cpg/sg140_6_cif.got.tgz:11531.got - 2010.06.28 10:53:23.
