data_PCOD8320230
_publ_section_title
;
Structure prediction by ZEFSAII (Michael W. Deem and Ramdas Pophale) SiO2 
 PCOD8320230
Probable space group: I 4/M C M
;
_chemical_formula_sum "Si O2"
_cell_formula_units_Z 96
_cell_length_a 21.787043
_cell_length_b 21.787043
_cell_length_c 9.053302
_cell_angle_alpha 90.000000
_cell_angle_beta 90.000000
_cell_angle_gamma 90.000000
_cell_volume 4297.378324
_symmetry_space_group_name_H-M "I 4/M C M"
_symmetry_group_IT_number 140
_symmetry_cell_setting 'tetragonal'
loop_
_space_group_symop_operation_xyz
x,y,z
-y,x,z
-x,-y,z
y,-x,z
x,-y,1/2-z
-x,y,1/2-z
y,x,1/2-z
-y,-x,1/2-z
-x,-y,-z
y,-x,-z
x,y,-z
-y,x,-z
-x,y,1/2+z
x,-y,1/2+z
-y,-x,1/2+z
y,x,1/2+z
1/2+x,1/2+y,1/2+z
1/2-y,1/2+x,1/2+z
1/2-x,1/2-y,1/2+z
1/2+y,1/2-x,1/2+z
1/2+x,1/2-y,-z
1/2-x,1/2+y,-z
1/2+y,1/2+x,-z
1/2-y,1/2-x,-z
1/2-x,1/2-y,1/2-z
1/2+y,1/2-x,1/2-z
1/2+x,1/2+y,1/2-z
1/2-y,1/2+x,1/2-z
1/2-x,1/2+y,z
1/2+x,1/2-y,z
1/2-y,1/2-x,z
1/2+y,1/2+x,z
loop_
_atom_site_type_symbol
_atom_site_label
_atom_site_fract_x
_atom_site_fract_y
_atom_site_fract_z
Si Si1 0.447461 0.369221 0.659250
Si Si2 0.266736 0.350172 0.164474
Si Si3 0.334188 0.933173 0.327177
O O1 0.500000 0.333197 0.750000
O O2 0.430367 0.430367 0.750000
O O3 0.473497 0.388094 0.500000
O O4 0.389569 0.326802 0.641803
O O5 0.287800 0.287800 0.250000
O O6 0.215512 0.387348 0.255127
O O7 0.241409 0.333711 0.000000
O O8 0.317713 0.942143 0.500000
O O9 0.401033 0.901033 0.309689
O O10 0.334919 0.000000 0.250000
#
# Coordination Sequence:
#
# PCOD8320230 Si02
#       3
#    32  32  32
#     4  10  20  33  50  74 105 144 191 243 299 360
#     4  10  21  38  63  93 126 164 206 256 314 378
#     4  11  25  44  67  96 130 170 217 269 326 389
#
# _framework density 22.339200999999999
#
# number of rings (size 3 to 8) (size 9 to 14) (size 15 to 20)
#    0.000    1.667    0.000    4.000    0.000   10.667 
#    0.000    3.333    0.000    0.000    0.000    0.000 
#    0.000    0.000    0.000    0.000    0.000    0.000 
#
# Total GULP energy -594633.795084 kJ/mol
# GULP energy per Si atom -12388.204064 kJ/mol
# Density = 2.228836 g / cm^3
# Si number density = 22.339201 Si / 1000 Ang^3
#
#
#
# Elastic Constant Matrix: (Units=GPa)
#
#
# Indices 1 2 3 4 5 6 
#
# 1 -127.9840 290.4302 74.9654 0.0000 0.0000 0.0000
# 2 290.4302 -127.9840 74.9654 0.0000 0.0000 0.0000
# 3 74.9654 74.9654 237.1059 0.0000 0.0000 0.0000
# 4 0.0000 0.0000 0.0000 811.2596 0.0000 0.0000
# 5 0.0000 0.0000 0.0000 0.0000 811.2596 0.0000
# 6 0.0000 0.0000 0.0000 0.0000 0.0000 25.0970
#
#
#
# Elastic Compliance Matrix: (Units=1/GPa)
#
#
# Indices 1 2 3 4 5 6 
#
# 1 0.003151 0.005541 -0.002748 0.000000 0.000000 0.000000
# 2 0.005541 0.003151 -0.002748 0.000000 0.000000 0.000000
# 3 -0.002748 -0.002748 0.005955 0.000000 0.000000 0.000000
# 4 0.000000 0.000000 0.000000 0.001233 0.000000 0.000000
# 5 0.000000 0.000000 0.000000 0.000000 0.001233 0.000000
# 6 0.000000 0.000000 0.000000 0.000000 0.000000 0.039845
#
#
# Mechanical properties :
#
#
# Convention : Reuss Voigt Hill
#
# Bulk Modulus (GPa) = 80.99053 95.76219 88.37636
# Shear Modulus (GPa) = 85.33173 298.90835 192.12004
#
# Velocity S-wave (km/s) = 6.18717 11.57993 9.28375
# Velocity P-wave (km/s) = 9.34746 14.89139 12.43239
#
# Compressibility (1/GPa) = 0.01234712
#
# Stress axis : x y z
#
# Youngs Moduli (GPa) = 317.33722 317.33722 167.91610
#
# Poissons Ratio (x) = -1.75843 0.46148
# Poissons Ratio (y) = -1.75843 0.46148
# Poissons Ratio (z) = 0.87213 0.87213
#
# Static dielectric constant tensor:
#      x y z
#    x 3.997350 0.000000 0.000000 
#    y 0.000000 3.997350 0.000000 
#    z 0.000000 0.000000 4.911330 
# 
# 
# High freq. dielectric constant tensor:
#      x y z
#    x 1.880150 0.000000 0.000000 
#    y 0.000000 1.880150 0.000000 
#    z 0.000000 0.000000 1.907190 
# 
# From -- ./inp_files/917.got.cif
#   From: 2010.06.25/outbox.cif.g09.slc.cpg/sg140_1_cif.got.tgz:917.got - 2010.06.28 10:53:23.
