data_PCOD8320191
_publ_section_title
;
Structure prediction by ZEFSAII (Michael W. Deem and Ramdas Pophale) SiO2 
 PCOD8320191
Probable space group: I 4/M C M
;
_chemical_formula_sum "Si O2"
_cell_formula_units_Z 160
_cell_length_a 20.998154
_cell_length_b 20.998154
_cell_length_c 17.765576
_cell_angle_alpha 90.000000
_cell_angle_beta 90.000000
_cell_angle_gamma 90.000000
_cell_volume 7833.241676
_symmetry_space_group_name_H-M "I 4/M C M"
_symmetry_group_IT_number 140
_symmetry_cell_setting 'tetragonal'
loop_
_space_group_symop_operation_xyz
x,y,z
-y,x,z
-x,-y,z
y,-x,z
x,-y,1/2-z
-x,y,1/2-z
y,x,1/2-z
-y,-x,1/2-z
-x,-y,-z
y,-x,-z
x,y,-z
-y,x,-z
-x,y,1/2+z
x,-y,1/2+z
-y,-x,1/2+z
y,x,1/2+z
1/2+x,1/2+y,1/2+z
1/2-y,1/2+x,1/2+z
1/2-x,1/2-y,1/2+z
1/2+y,1/2-x,1/2+z
1/2+x,1/2-y,-z
1/2-x,1/2+y,-z
1/2+y,1/2+x,-z
1/2-y,1/2-x,-z
1/2-x,1/2-y,1/2-z
1/2+y,1/2-x,1/2-z
1/2+x,1/2+y,1/2-z
1/2-y,1/2+x,1/2-z
1/2-x,1/2+y,z
1/2+x,1/2-y,z
1/2-y,1/2-x,z
1/2+y,1/2+x,z
loop_
_atom_site_type_symbol
_atom_site_label
_atom_site_fract_x
_atom_site_fract_y
_atom_site_fract_z
Si Si1 0.935664 0.920729 0.337818
Si Si2 0.227850 0.170851 0.681085
Si Si3 0.067195 0.331312 0.346787
Si Si4 0.297155 0.621629 0.087511
Si Si5 0.173320 0.426625 0.170367
O O1 0.918486 0.918486 0.250000
O O2 0.900120 0.865933 0.382934
O O3 0.009203 0.912065 0.361175
O O4 0.176291 0.176291 0.750000
O O5 0.290532 0.209469 0.706522
O O6 0.196918 0.201805 0.606318
O O7 0.253452 0.099437 0.663209
O O8 0.113291 0.386710 0.382054
O O9 0.090610 0.261375 0.368697
O O10 0.066221 0.340019 0.258166
O O11 0.993561 0.336062 0.373713
O O12 0.288786 0.608325 0.000000
O O13 0.122497 0.377504 0.134113
#
# Coordination Sequence:
#
# PCOD8320191 Si02
#       5
#    32  32  32  32  32
#     4   9  21  41  63  86 113 152 201 249 296 355
#     4  10  19  36  59  83 113 150 196 246 294 349
#     4  10  21  37  58  88 123 156 199 256 312 368
#     4  12  25  36  56  87 123 161 194 237 301 369
#     4   9  19  36  62  90 114 151 203 259 312 359
#
# _framework density 20.425771000000001
#
# number of rings (size 3 to 8) (size 9 to 14) (size 15 to 20)
#    0.000    2.000    2.000    1.800    2.800    4.400 
#    0.000    3.000    0.000    1.800    0.000    1.400 
#    0.000    0.000    0.000    0.000    0.000    0.000 
#
# Total GULP energy -991056.432727 kJ/mol
# GULP energy per Si atom -12388.205409 kJ/mol
# Density = 2.037928 g / cm^3
# Si number density = 20.425771 Si / 1000 Ang^3
#
#
#
# Elastic Constant Matrix: (Units=GPa)
#
#
# Indices 1 2 3 4 5 6 
#
# 1 120.4678 62.5641 17.1598 0.0000 0.0000 0.0000
# 2 62.5641 120.4678 17.1598 0.0000 0.0000 0.0000
# 3 17.1598 17.1598 32.6136 0.0000 0.0000 0.0000
# 4 0.0000 0.0000 0.0000 7.7899 0.0000 0.0000
# 5 0.0000 0.0000 0.0000 0.0000 7.7899 0.0000
# 6 0.0000 0.0000 0.0000 0.0000 0.0000 33.1286
#
#
#
# Elastic Compliance Matrix: (Units=1/GPa)
#
#
# Indices 1 2 3 4 5 6 
#
# 1 0.011666 -0.005604 -0.003189 0.000000 0.000000 0.000000
# 2 -0.005604 0.011666 -0.003189 0.000000 0.000000 0.000000
# 3 -0.003189 -0.003189 0.034018 0.000000 0.000000 0.000000
# 4 0.000000 0.000000 0.000000 0.128372 0.000000 0.000000
# 5 0.000000 0.000000 0.000000 0.000000 0.128372 0.000000
# 6 0.000000 0.000000 0.000000 0.000000 0.000000 0.030185
#
#
# Mechanical properties :
#
#
# Convention : Reuss Voigt Hill
#
# Bulk Modulus (GPa) = 29.95444 51.92406 40.93925
# Shear Modulus (GPa) = 13.17964 21.51936 17.34950
#
# Velocity S-wave (km/s) = 2.54292 3.24935 2.91760
# Velocity P-wave (km/s) = 4.82896 6.28918 5.60681
#
# Compressibility (1/GPa) = 0.03338403
#
# Stress axis : x y z
#
# Youngs Moduli (GPa) = 85.72068 85.72068 29.39605
#
# Poissons Ratio (x) = 0.48040 0.09375
# Poissons Ratio (y) = 0.48040 0.09375
# Poissons Ratio (z) = 0.27339 0.27339
#
# Static dielectric constant tensor:
#      x y z
#    x 4.021430 0.000000 0.000000 
#    y 0.000000 4.021430 0.000000 
#    z 0.000000 0.000000 3.263470 
# 
# 
# High freq. dielectric constant tensor:
#      x y z
#    x 1.809640 0.000000 0.000000 
#    y 0.000000 1.809640 0.000000 
#    z 0.000000 0.000000 1.742120 
# 
# From -- ./inp_files/6875.got.cif
#   From: 2010.06.25/outbox.cif.g09.slc.cpg/sg140_4_cif.got.tgz:6875.got - 2010.06.28 10:53:23.
