data_PCOD8320608
_publ_section_title
;
Structure prediction by ZEFSAII (Michael W. Deem and Ramdas Pophale) SiO2 
 PCOD8320608
Probable space group: I 41/A M D
;
_chemical_formula_sum "Si O2"
_cell_formula_units_Z 112
_cell_length_a 14.259423
_cell_length_b 14.259423
_cell_length_c 28.373658
_cell_angle_alpha 90.000000
_cell_angle_beta 90.000000
_cell_angle_gamma 90.000000
_cell_volume 5769.248349
_symmetry_space_group_name_H-M "I 41/A M D"
_symmetry_group_IT_number 141
_space_group.IT_coordinate_system_code '2'
_symmetry_cell_setting 'tetragonal'
loop_
_space_group_symop_operation_xyz
x,y,z
1/4-y,3/4+x,1/4+z
-x,1/2-y,z
1/4+y,1/4-x,3/4+z
x,-y,-z
-x,1/2+y,-z
1/4+y,3/4+x,1/4-z
1/4-y,1/4-x,3/4-z
-x,-y,-z
3/4+y,1/4-x,3/4-z
x,1/2+y,-z
3/4-y,3/4+x,1/4-z
-x,y,z
x,1/2-y,z
3/4-y,1/4-x,3/4+z
3/4+y,3/4+x,1/4+z
1/2+x,1/2+y,1/2+z
3/4-y,1/4+x,3/4+z
1/2-x,-y,1/2+z
3/4+y,3/4-x,1/4+z
1/2+x,1/2-y,1/2-z
1/2-x,y,1/2-z
3/4+y,1/4+x,3/4-z
3/4-y,3/4-x,1/4-z
1/2-x,1/2-y,1/2-z
1/4+y,3/4-x,1/4-z
1/2+x,y,1/2-z
1/4-y,1/4+x,3/4-z
1/2-x,1/2+y,1/2+z
1/2+x,-y,1/2+z
1/4-y,3/4-x,1/4+z
1/4+y,1/4+x,3/4+z
loop_
_atom_site_type_symbol
_atom_site_label
_atom_site_fract_x
_atom_site_fract_y
_atom_site_fract_z
Si Si1 0.275529 0.970247 0.302001
Si Si2 0.109065 0.359065 0.875000
Si Si3 0.607669 0.855626 0.727289
Si Si4 0.395912 0.070347 0.170569
O O1 0.250000 0.932502 0.250000
O O2 0.329425 0.069969 0.300685
O O3 0.178768 0.985135 0.330736
O O4 0.336990 0.892779 0.328289
O O5 0.129559 0.250000 0.882533
O O6 0.500000 0.873103 0.713232
O O7 0.638683 0.750000 0.713492
O O8 0.622559 0.867224 0.783165
O O9 0.385946 0.135946 0.125000
O O10 0.500000 0.026402 0.171816
#
# Coordination Sequence:
#
# PCOD8320608 Si02
#       4
#    32  16  32  32
#     4  10  21  38  60  86 115 153 195 245 291 355
#     4  11  24  44  68  90 113 148 196 250 307 362
#     4   9  18  32  52  80 115 154 194 236 284 339
#     4  10  19  31  50  79 116 154 189 228 275 336
#
# _framework density 19.413274000000001
#
# number of rings (size 3 to 8) (size 9 to 14) (size 15 to 20)
#    0.000    2.143    1.429    1.714    0.000    9.429 
#    0.000    0.000    0.000    0.857    0.000    0.000 
#    0.000    0.000    0.000    0.000    0.000    0.000 
#
# Total GULP energy -694393.978949 kJ/mol
# GULP energy per Si atom -12399.892481 kJ/mol
# Density = 1.936909 g / cm^3
# Si number density = 19.413274 Si / 1000 Ang^3
#
#
#
# Elastic Constant Matrix: (Units=GPa)
#
#
# Indices 1 2 3 4 5 6 
#
# 1 110.8899 63.4124 39.2224 0.0000 0.0000 0.0000
# 2 63.4124 110.8899 39.2224 0.0000 0.0000 0.0000
# 3 39.2224 39.2224 80.3470 0.0000 0.0000 0.0000
# 4 0.0000 0.0000 0.0000 22.3756 0.0000 0.0000
# 5 0.0000 0.0000 0.0000 0.0000 22.3756 0.0000
# 6 0.0000 0.0000 0.0000 0.0000 0.0000 30.6026
#
#
#
# Elastic Compliance Matrix: (Units=1/GPa)
#
#
# Indices 1 2 3 4 5 6 
#
# 1 0.014208 -0.006855 -0.003589 0.000000 0.000000 0.000000
# 2 -0.006855 0.014208 -0.003589 0.000000 0.000000 0.000000
# 3 -0.003589 -0.003589 0.015950 0.000000 0.000000 0.000000
# 4 0.000000 0.000000 0.000000 0.044692 0.000000 0.000000
# 5 0.000000 0.000000 0.000000 0.000000 0.044692 0.000000
# 6 0.000000 0.000000 0.000000 0.000000 0.000000 0.032677
#
#
# Mechanical properties :
#
#
# Convention : Reuss Voigt Hill
#
# Bulk Modulus (GPa) = 61.35579 65.09349 63.22464
# Shear Modulus (GPa) = 25.00936 25.75540 25.38238
#
# Velocity S-wave (km/s) = 3.59313 3.64633 3.61983
# Velocity P-wave (km/s) = 6.99198 7.16455 7.07879
#
# Compressibility (1/GPa) = 0.01629838
#
# Stress axis : x y z
#
# Youngs Moduli (GPa) = 70.38519 70.38519 62.69491
#
# Poissons Ratio (x) = 0.48249 0.22503
# Poissons Ratio (y) = 0.48249 0.22503
# Poissons Ratio (z) = 0.25263 0.25263
#
# Static dielectric constant tensor:
#      x y z
#    x 3.564000 0.000000 0.000000 
#    y 0.000000 3.564000 0.000000 
#    z 0.000000 0.000000 3.473490 
# 
# 
# High freq. dielectric constant tensor:
#      x y z
#    x 1.747440 0.000000 0.000000 
#    y 0.000000 1.747440 0.000000 
#    z 0.000000 0.000000 1.752000 
# 
# From -- ./inp_files/12453.got.cif
#   From: 2010.03.12/outbox.cif.g09.slc.cpg/sg141_7_cif.got.tgz:12453.got - 2010.04.03 13:18:35.
