data_PCOD8320635
_publ_section_title
;
Structure prediction by ZEFSAII (Michael W. Deem and Ramdas Pophale) SiO2 
 PCOD8320635
Probable space group: I 41/A M D
;
_chemical_formula_sum "Si O2"
_cell_formula_units_Z 160
_cell_length_a 22.071280
_cell_length_b 22.071280
_cell_length_c 15.152923
_cell_angle_alpha 90.000000
_cell_angle_beta 90.000000
_cell_angle_gamma 90.000000
_cell_volume 7381.616137
_symmetry_space_group_name_H-M "I 41/A M D"
_symmetry_group_IT_number 141
_space_group.IT_coordinate_system_code '2'
_symmetry_cell_setting 'tetragonal'
loop_
_space_group_symop_operation_xyz
x,y,z
1/4-y,3/4+x,1/4+z
-x,1/2-y,z
1/4+y,1/4-x,3/4+z
x,-y,-z
-x,1/2+y,-z
1/4+y,3/4+x,1/4-z
1/4-y,1/4-x,3/4-z
-x,-y,-z
3/4+y,1/4-x,3/4-z
x,1/2+y,-z
3/4-y,3/4+x,1/4-z
-x,y,z
x,1/2-y,z
3/4-y,1/4-x,3/4+z
3/4+y,3/4+x,1/4+z
1/2+x,1/2+y,1/2+z
3/4-y,1/4+x,3/4+z
1/2-x,-y,1/2+z
3/4+y,3/4-x,1/4+z
1/2+x,1/2-y,1/2-z
1/2-x,y,1/2-z
3/4+y,1/4+x,3/4-z
3/4-y,3/4-x,1/4-z
1/2-x,1/2-y,1/2-z
1/4+y,3/4-x,1/4-z
1/2+x,y,1/2-z
1/4-y,1/4+x,3/4-z
1/2-x,1/2+y,1/2+z
1/2+x,-y,1/2+z
1/4-y,3/4-x,1/4+z
1/4+y,1/4+x,3/4+z
loop_
_atom_site_type_symbol
_atom_site_label
_atom_site_fract_x
_atom_site_fract_y
_atom_site_fract_z
Si Si1 0.220393 0.931806 0.902409
Si Si2 0.932344 0.089229 0.611168
Si Si3 0.233703 0.134527 0.558909
Si Si4 0.571703 0.363740 0.220624
Si Si5 0.855597 0.184018 0.937929
O O1 0.214683 0.867664 0.846626
O O2 0.152784 0.959947 0.893223
O O3 0.276864 0.973137 0.875000
O O4 0.231428 0.918221 0.004403
O O5 0.928113 0.143973 0.541542
O O6 0.920253 0.117093 0.708729
O O7 0.000000 0.060959 0.605529
O O8 0.183137 0.166236 0.498058
O O9 0.283470 0.184182 0.584332
O O10 0.599941 0.349941 0.125000
O O11 0.500000 0.349495 0.221305
O O12 0.881175 0.250000 0.913882
O O13 0.886145 0.136145 0.875000
#
# Coordination Sequence:
#
# PCOD8320635 Si02
#       5
#    32  32  32  32  32
#     4  10  19  33  58  85 111 149 196 243 294 354
#     4   9  21  40  59  85 123 160 196 245 305 362
#     4  10  21  38  58  84 122 158 197 251 309 363
#     4  11  23  39  61  89 121 163 212 255 297 351
#     4  10  21  39  63  89 118 156 199 246 303 366
#
# _framework density 21.675471000000002
#
# number of rings (size 3 to 8) (size 9 to 14) (size 15 to 20)
#    0.000    2.000    0.000    3.000    0.000    6.400 
#    0.000    8.000    0.000   27.600    0.000    0.000 
#    0.000    0.400    0.000    0.000    0.000    0.000 
#
# Total GULP energy -991093.213197 kJ/mol
# GULP energy per Si atom -12388.665165 kJ/mol
# Density = 2.162614 g / cm^3
# Si number density = 21.675471 Si / 1000 Ang^3
#
#
#
# Elastic Constant Matrix: (Units=GPa)
#
#
# Indices 1 2 3 4 5 6 
#
# 1 120.4688 49.3831 43.9591 0.0000 0.0000 0.0000
# 2 49.3831 120.4703 43.9581 0.0000 0.0000 0.0000
# 3 43.9591 43.9581 70.5280 0.0000 0.0000 0.0000
# 4 0.0000 0.0000 0.0000 24.8682 0.0000 0.0000
# 5 0.0000 0.0000 0.0000 0.0000 24.8675 0.0000
# 6 0.0000 0.0000 0.0000 0.0000 0.0000 21.5050
#
#
#
# Elastic Compliance Matrix: (Units=1/GPa)
#
#
# Indices 1 2 3 4 5 6 
#
# 1 0.011380 -0.002688 -0.005417 0.000000 0.000000 0.000000
# 2 -0.002688 0.011379 -0.005417 0.000000 0.000000 0.000000
# 3 -0.005417 -0.005417 0.020932 0.000000 0.000000 0.000000
# 4 0.000000 0.000000 0.000000 0.040212 0.000000 0.000000
# 5 0.000000 0.000000 0.000000 0.000000 0.040213 0.000000
# 6 0.000000 0.000000 0.000000 0.000000 0.000000 0.046501
#
#
# Mechanical properties :
#
#
# Convention : Reuss Voigt Hill
#
# Bulk Modulus (GPa) = 60.07548 65.11863 62.59706
# Shear Modulus (GPa) = 24.60514 25.85926 25.23220
#
# Velocity S-wave (km/s) = 3.37287 3.45776 3.41558
# Velocity P-wave (km/s) = 6.55320 6.78596 6.67059
#
# Compressibility (1/GPa) = 0.01664573
#
# Stress axis : x y z
#
# Youngs Moduli (GPa) = 87.87679 87.87926 47.77464
#
# Poissons Ratio (x) = 0.23622 0.25881
# Poissons Ratio (y) = 0.23621 0.25880
# Poissons Ratio (z) = 0.47606 0.47604
#
# Static dielectric constant tensor:
#      x y z
#    x 4.059530 0.000000 0.000000 
#    y 0.000000 4.059530 0.000000 
#    z 0.000000 0.000000 3.800520 
# 
# 
# High freq. dielectric constant tensor:
#      x y z
#    x 1.851560 0.000000 0.000000 
#    y 0.000000 1.851560 0.000000 
#    z 0.000000 0.000000 1.839710 
# 
# From -- ./inp_files/8597.got.cif
#   From: 2010.03.12/outbox.cif.g09.slc.cpg/sg141_5_cif.got.tgz:8597.got - 2010.04.03 13:18:35.
