data_PCOD8320141
_publ_section_title
;
Structure prediction by ZEFSAII (Michael W. Deem and Ramdas Pophale) SiO2 
 PCOD8320141
Probable space group: I 4/M C M
;
_chemical_formula_sum "Si O2"
_cell_formula_units_Z 160
_cell_length_a 21.463302
_cell_length_b 21.463302
_cell_length_c 17.298644
_cell_angle_alpha 90.000000
_cell_angle_beta 90.000000
_cell_angle_gamma 90.000000
_cell_volume 7969.023983
_symmetry_space_group_name_H-M "I 4/M C M"
_symmetry_group_IT_number 140
_symmetry_cell_setting 'tetragonal'
loop_
_space_group_symop_operation_xyz
x,y,z
-y,x,z
-x,-y,z
y,-x,z
x,-y,1/2-z
-x,y,1/2-z
y,x,1/2-z
-y,-x,1/2-z
-x,-y,-z
y,-x,-z
x,y,-z
-y,x,-z
-x,y,1/2+z
x,-y,1/2+z
-y,-x,1/2+z
y,x,1/2+z
1/2+x,1/2+y,1/2+z
1/2-y,1/2+x,1/2+z
1/2-x,1/2-y,1/2+z
1/2+y,1/2-x,1/2+z
1/2+x,1/2-y,-z
1/2-x,1/2+y,-z
1/2+y,1/2+x,-z
1/2-y,1/2-x,-z
1/2-x,1/2-y,1/2-z
1/2+y,1/2-x,1/2-z
1/2+x,1/2+y,1/2-z
1/2-y,1/2+x,1/2-z
1/2-x,1/2+y,z
1/2+x,1/2-y,z
1/2-y,1/2-x,z
1/2+y,1/2+x,z
loop_
_atom_site_type_symbol
_atom_site_label
_atom_site_fract_x
_atom_site_fract_y
_atom_site_fract_z
Si Si1 0.661689 0.423936 0.658182
Si Si2 0.936789 0.173261 0.841078
Si Si3 0.204758 0.391217 0.152297
Si Si4 0.384962 0.016551 0.587487
Si Si5 0.911066 0.313361 0.173531
O O1 0.607176 0.380611 0.623081
O O2 0.658987 0.494364 0.625817
O O3 0.663220 0.430124 0.750114
O O4 0.723501 0.389037 0.629587
O O5 0.917384 0.244259 0.864605
O O6 0.179496 0.320505 0.153588
O O7 0.168882 0.431619 0.088938
O O8 0.193594 0.424510 0.235291
O O9 0.392286 0.992289 0.500000
O O10 0.450222 0.049779 0.614661
O O11 0.364469 0.959168 0.640753
O O12 0.841547 0.341547 0.159229
#
# Coordination Sequence:
#
# PCOD8320141 Si02
#       5
#    32  32  32  32  32
#     4   9  16  28  47  72 106 132 163 206 252 305
#     4   9  17  28  46  74 103 135 163 203 256 302
#     4   9  17  31  52  74 100 134 169 207 248 297
#     4  10  20  33  51  75 102 135 172 207 249 300
#     4  10  19  32  51  74 103 134 169 209 252 300
#
# _framework density 20.077741
#
# number of rings (size 3 to 8) (size 9 to 14) (size 15 to 20)
#    0.000    2.600    2.000    0.600    0.000    2.000 
#    0.000    7.000    0.000    4.800    0.000    2.800 
#    0.000    1.600    0.000    0.000    0.000    0.000 
#
# Total GULP energy -991126.520640 kJ/mol
# GULP energy per Si atom -12389.081508 kJ/mol
# Density = 2.003204 g / cm^3
# Si number density = 20.077741 Si / 1000 Ang^3
#
#
#
# Elastic Constant Matrix: (Units=GPa)
#
#
# Indices 1 2 3 4 5 6 
#
# 1 135.6027 107.4383 14.1061 0.0000 0.0000 0.0000
# 2 107.4383 135.6027 14.1061 0.0000 0.0000 0.0000
# 3 14.1061 14.1061 23.1458 0.0000 0.0000 0.0000
# 4 0.0000 0.0000 0.0000 5.9672 0.0000 0.0000
# 5 0.0000 0.0000 0.0000 0.0000 5.9672 0.0000
# 6 0.0000 0.0000 0.0000 0.0000 0.0000 39.5171
#
#
#
# Elastic Compliance Matrix: (Units=1/GPa)
#
#
# Indices 1 2 3 4 5 6 
#
# 1 0.019967 -0.015539 -0.002698 0.000000 0.000000 0.000000
# 2 -0.015539 0.019967 -0.002698 0.000000 0.000000 0.000000
# 3 -0.002698 -0.002698 0.046494 0.000000 0.000000 0.000000
# 4 0.000000 0.000000 0.000000 0.167584 0.000000 0.000000
# 5 0.000000 0.000000 0.000000 0.000000 0.167584 0.000000
# 6 0.000000 0.000000 0.000000 0.000000 0.000000 0.025306
#
#
# Mechanical properties :
#
#
# Convention : Reuss Voigt Hill
#
# Bulk Modulus (GPa) = 22.44407 62.85025 42.64716
# Shear Modulus (GPa) = 9.92803 20.87032 15.39917
#
# Velocity S-wave (km/s) = 2.22610 3.22759 2.77244
# Velocity P-wave (km/s) = 4.22022 6.72764 5.61566
#
# Compressibility (1/GPa) = 0.04455521
#
# Stress axis : x y z
#
# Youngs Moduli (GPa) = 50.08308 50.08308 21.50832
#
# Poissons Ratio (x) = 0.77824 0.05804
# Poissons Ratio (y) = 0.77824 0.05804
# Poissons Ratio (z) = 0.13515 0.13515
#
# Static dielectric constant tensor:
#      x y z
#    x 3.856370 0.000000 0.000000 
#    y 0.000000 3.856370 0.000000 
#    z 0.000000 0.000000 3.068640 
# 
# 
# High freq. dielectric constant tensor:
#      x y z
#    x 1.786320 0.000000 0.000000 
#    y 0.000000 1.786320 0.000000 
#    z 0.000000 0.000000 1.720280 
# 
# From -- ./inp_files/6862.got.cif
#   From: 2010.06.25/outbox.cif.g09.slc.cpg/sg140_4_cif.got.tgz:6862.got - 2010.06.28 10:53:23.
