data_PCOD8320248
_publ_section_title
;
Structure prediction by ZEFSAII (Michael W. Deem and Ramdas Pophale) SiO2 
 PCOD8320248
Probable space group: I 4/M C M
;
_chemical_formula_sum "Si O2"
_cell_formula_units_Z 160
_cell_length_a 21.513374
_cell_length_b 21.513374
_cell_length_c 17.900896
_cell_angle_alpha 90.000000
_cell_angle_beta 90.000000
_cell_angle_gamma 90.000000
_cell_volume 8284.986861
_symmetry_space_group_name_H-M "I 4/M C M"
_symmetry_group_IT_number 140
_symmetry_cell_setting 'tetragonal'
loop_
_space_group_symop_operation_xyz
x,y,z
-y,x,z
-x,-y,z
y,-x,z
x,-y,1/2-z
-x,y,1/2-z
y,x,1/2-z
-y,-x,1/2-z
-x,-y,-z
y,-x,-z
x,y,-z
-y,x,-z
-x,y,1/2+z
x,-y,1/2+z
-y,-x,1/2+z
y,x,1/2+z
1/2+x,1/2+y,1/2+z
1/2-y,1/2+x,1/2+z
1/2-x,1/2-y,1/2+z
1/2+y,1/2-x,1/2+z
1/2+x,1/2-y,-z
1/2-x,1/2+y,-z
1/2+y,1/2+x,-z
1/2-y,1/2-x,-z
1/2-x,1/2-y,1/2-z
1/2+y,1/2-x,1/2-z
1/2+x,1/2+y,1/2-z
1/2-y,1/2+x,1/2-z
1/2-x,1/2+y,z
1/2+x,1/2-y,z
1/2-y,1/2-x,z
1/2+y,1/2+x,z
loop_
_atom_site_type_symbol
_atom_site_label
_atom_site_fract_x
_atom_site_fract_y
_atom_site_fract_z
Si Si1 0.666691 0.932118 0.913009
Si Si2 0.570138 0.661143 0.725853
Si Si3 0.156738 0.243175 0.328458
Si Si4 0.373825 0.703721 0.086362
Si Si5 0.930844 0.336020 0.413261
O O1 0.599854 0.900147 0.898509
O O2 0.721347 0.893995 0.876097
O O3 0.667685 0.000901 0.876226
O O4 0.682592 0.934895 0.000000
O O5 0.500000 0.674722 0.750000
O O6 0.591686 0.591686 0.750000
O O7 0.620142 0.710228 0.760538
O O8 0.575657 0.665795 0.635972
O O9 0.209138 0.290863 0.296685
O O10 0.189635 0.195130 0.384595
O O11 0.388957 0.775668 0.098184
O O12 0.380733 0.683570 0.000000
O O13 0.940847 0.349667 0.500000
O O14 0.893360 0.393360 0.376250
#
# Coordination Sequence:
#
# PCOD8320248 Si02
#       5
#    32  32  32  32  32
#     4   9  17  29  46  69  99 137 178 217 259 311
#     4  10  22  39  58  81 109 144 184 225 275 332
#     4  10  20  34  53  78 108 140 177 224 279 335
#     4  10  20  34  55  82 110 138 174 223 276 329
#     4   9  17  28  44  69 100 134 172 214 260 309
#
# _framework density 19.31204
#
# number of rings (size 3 to 8) (size 9 to 14) (size 15 to 20)
#    0.000    2.400    0.000    2.400    0.000    7.000 
#    0.000    6.000    0.000    0.000    0.000    5.600 
#    0.000    4.800    0.000    0.200    0.000    0.000 
#
# Total GULP energy -991501.003123 kJ/mol
# GULP energy per Si atom -12393.762539 kJ/mol
# Density = 1.926808 g / cm^3
# Si number density = 19.312040 Si / 1000 Ang^3
#
#
#
# Elastic Constant Matrix: (Units=GPa)
#
#
# Indices 1 2 3 4 5 6 
#
# 1 123.0437 70.1523 45.5631 0.0000 0.0000 0.0000
# 2 70.1523 123.0437 45.5631 0.0000 0.0000 0.0000
# 3 45.5631 45.5631 86.9684 0.0000 0.0000 0.0000
# 4 0.0000 0.0000 0.0000 16.7381 0.0000 0.0000
# 5 0.0000 0.0000 0.0000 0.0000 16.7381 0.0000
# 6 0.0000 0.0000 0.0000 0.0000 0.0000 21.7041
#
#
#
# Elastic Compliance Matrix: (Units=1/GPa)
#
#
# Indices 1 2 3 4 5 6 
#
# 1 0.012891 -0.006016 -0.003602 0.000000 0.000000 0.000000
# 2 -0.006016 0.012891 -0.003602 0.000000 0.000000 0.000000
# 3 -0.003602 -0.003602 0.015272 0.000000 0.000000 0.000000
# 4 0.000000 0.000000 0.000000 0.059744 0.000000 0.000000
# 5 0.000000 0.000000 0.000000 0.000000 0.059744 0.000000
# 6 0.000000 0.000000 0.000000 0.000000 0.000000 0.046074
#
#
# Mechanical properties :
#
#
# Convention : Reuss Voigt Hill
#
# Bulk Modulus (GPa) = 68.42233 72.84583 70.63408
# Shear Modulus (GPa) = 21.01485 22.48789 21.75137
#
# Velocity S-wave (km/s) = 3.30233 3.41610 3.35970
# Velocity P-wave (km/s) = 7.07441 7.30493 7.19059
#
# Compressibility (1/GPa) = 0.01461511
#
# Stress axis : x y z
#
# Youngs Moduli (GPa) = 77.57456 77.57456 65.47734
#
# Poissons Ratio (x) = 0.46668 0.23584
# Poissons Ratio (y) = 0.46668 0.23584
# Poissons Ratio (z) = 0.27941 0.27941
#
# Static dielectric constant tensor:
#      x y z
#    x 3.679420 0.000000 0.000000 
#    y 0.000000 3.679420 0.000000 
#    z 0.000000 0.000000 3.492450 
# 
# 
# High freq. dielectric constant tensor:
#      x y z
#    x 1.751910 0.000000 0.000000 
#    y 0.000000 1.751910 0.000000 
#    z 0.000000 0.000000 1.736690 
# 
# From -- ./inp_files/6860.got.cif
#   From: 2010.06.25/outbox.cif.g09.slc.cpg/sg140_4_cif.got.tgz:6860.got - 2010.06.28 10:53:23.
