data_PCOD8320422
_publ_section_title
;
Structure prediction by ZEFSAII (Michael W. Deem and Ramdas Pophale) SiO2 
 PCOD8320422
Probable space group: I 4/M C M
;
_chemical_formula_sum "Si O2"
_cell_formula_units_Z 160
_cell_length_a 20.710352
_cell_length_b 20.710352
_cell_length_c 18.618700
_cell_angle_alpha 90.000000
_cell_angle_beta 90.000000
_cell_angle_gamma 90.000000
_cell_volume 7985.908227
_symmetry_space_group_name_H-M "I 4/M C M"
_symmetry_group_IT_number 140
_symmetry_cell_setting 'tetragonal'
loop_
_space_group_symop_operation_xyz
x,y,z
-y,x,z
-x,-y,z
y,-x,z
x,-y,1/2-z
-x,y,1/2-z
y,x,1/2-z
-y,-x,1/2-z
-x,-y,-z
y,-x,-z
x,y,-z
-y,x,-z
-x,y,1/2+z
x,-y,1/2+z
-y,-x,1/2+z
y,x,1/2+z
1/2+x,1/2+y,1/2+z
1/2-y,1/2+x,1/2+z
1/2-x,1/2-y,1/2+z
1/2+y,1/2-x,1/2+z
1/2+x,1/2-y,-z
1/2-x,1/2+y,-z
1/2+y,1/2+x,-z
1/2-y,1/2-x,-z
1/2-x,1/2-y,1/2-z
1/2+y,1/2-x,1/2-z
1/2+x,1/2+y,1/2-z
1/2-y,1/2+x,1/2-z
1/2-x,1/2+y,z
1/2+x,1/2-y,z
1/2-y,1/2-x,z
1/2+y,1/2+x,z
loop_
_atom_site_type_symbol
_atom_site_label
_atom_site_fract_x
_atom_site_fract_y
_atom_site_fract_z
Si Si1 0.103089 0.989391 0.333791
Si Si2 0.231616 0.162864 0.583393
Si Si3 0.068106 0.327851 0.338106
Si Si4 0.298118 0.588115 0.083374
Si Si5 0.182663 0.421509 0.174751
O O1 0.169621 0.971920 0.373588
O O2 0.056017 0.930423 0.357056
O O3 0.116518 0.000000 0.250000
O O4 0.239643 0.145472 0.500000
O O5 0.272599 0.227402 0.602366
O O6 0.157208 0.172317 0.604305
O O7 0.255049 0.101935 0.630229
O O8 0.104664 0.395337 0.351158
O O9 0.092037 0.276883 0.396706
O O10 0.083224 0.300043 0.258848
O O11 0.992442 0.339723 0.348017
O O12 0.306303 0.573176 0.000000
O O13 0.122746 0.377255 0.153411
#
# Coordination Sequence:
#
# PCOD8320422 Si02
#       5
#    32  32  32  32  32
#     4   9  21  40  60  84 115 154 197 242 291 342
#     4   9  19  37  59  86 121 156 194 241 293 348
#     4  10  22  38  58  87 121 155 195 245 300 356
#     4  11  24  37  59  88 119 158 195 238 294 352
#     4   9  20  38  61  87 115 155 202 246 293 352
#
# _framework density 20.035291000000001
#
# number of rings (size 3 to 8) (size 9 to 14) (size 15 to 20)
#    0.000    2.400    0.000    1.200    5.600    5.600 
#    0.000    6.000    0.000    0.000    0.000    4.200 
#    0.000    0.000    0.000    0.000    0.000    0.000 
#
# Total GULP energy -991952.987764 kJ/mol
# GULP energy per Si atom -12399.412347 kJ/mol
# Density = 1.998969 g / cm^3
# Si number density = 20.035291 Si / 1000 Ang^3
#
#
#
# Elastic Constant Matrix: (Units=GPa)
#
#
# Indices 1 2 3 4 5 6 
#
# 1 99.1820 36.3319 46.8764 0.0000 0.0000 0.0000
# 2 36.3319 99.1820 46.8764 0.0000 0.0000 0.0000
# 3 46.8764 46.8764 58.4021 0.0000 0.0000 0.0000
# 4 0.0000 0.0000 0.0000 28.8156 0.0000 0.0000
# 5 0.0000 0.0000 0.0000 0.0000 28.8156 0.0000
# 6 0.0000 0.0000 0.0000 0.0000 0.0000 28.4079
#
#
#
# Elastic Compliance Matrix: (Units=1/GPa)
#
#
# Indices 1 2 3 4 5 6 
#
# 1 0.016252 0.000341 -0.013319 0.000000 0.000000 0.000000
# 2 0.000341 0.016252 -0.013319 0.000000 0.000000 0.000000
# 3 -0.013319 -0.013319 0.038504 0.000000 0.000000 0.000000
# 4 0.000000 0.000000 0.000000 0.034703 0.000000 0.000000
# 5 0.000000 0.000000 0.000000 0.000000 0.034703 0.000000
# 6 0.000000 0.000000 0.000000 0.000000 0.000000 0.035202
#
#
# Mechanical properties :
#
#
# Convention : Reuss Voigt Hill
#
# Bulk Modulus (GPa) = 54.30284 57.43729 55.87006
# Shear Modulus (GPa) = 21.33576 25.65324 23.49450
#
# Velocity S-wave (km/s) = 3.26683 3.58215 3.42812
# Velocity P-wave (km/s) = 6.43366 6.77048 6.60422
#
# Compressibility (1/GPa) = 0.01841524
#
# Stress axis : x y z
#
# Youngs Moduli (GPa) = 61.52954 61.52954 25.97153
#
# Poissons Ratio (x) = -0.02101 0.34592
# Poissons Ratio (y) = -0.02101 0.34592
# Poissons Ratio (z) = 0.81951 0.81951
#
# Static dielectric constant tensor:
#      x y z
#    x 3.620490 0.000000 0.000000 
#    y 0.000000 3.620490 0.000000 
#    z 0.000000 0.000000 3.498250 
# 
# 
# High freq. dielectric constant tensor:
#      x y z
#    x 1.783870 0.000000 0.000000 
#    y 0.000000 1.783870 0.000000 
#    z 0.000000 0.000000 1.770890 
# 
# From -- ./inp_files/6876.got.cif
#   From: 2010.06.25/outbox.cif.g09.slc.cpg/sg140_4_cif.got.tgz:6876.got - 2010.06.28 10:53:23.
