data_PCOD8320696
_publ_section_title
;
Structure prediction by ZEFSAII (Michael W. Deem and Ramdas Pophale) SiO2 
 PCOD8320696
Probable space group: I 41/A M D
;
_chemical_formula_sum "Si O2"
_cell_formula_units_Z 68
_cell_length_a 19.485228
_cell_length_b 19.485228
_cell_length_c 10.492931
_cell_angle_alpha 90.000000
_cell_angle_beta 90.000000
_cell_angle_gamma 90.000000
_cell_volume 3983.894241
_symmetry_space_group_name_H-M "I 41/A M D"
_symmetry_group_IT_number 141
_space_group.IT_coordinate_system_code '2'
_symmetry_cell_setting 'tetragonal'
loop_
_space_group_symop_operation_xyz
x,y,z
1/4-y,3/4+x,1/4+z
-x,1/2-y,z
1/4+y,1/4-x,3/4+z
x,-y,-z
-x,1/2+y,-z
1/4+y,3/4+x,1/4-z
1/4-y,1/4-x,3/4-z
-x,-y,-z
3/4+y,1/4-x,3/4-z
x,1/2+y,-z
3/4-y,3/4+x,1/4-z
-x,y,z
x,1/2-y,z
3/4-y,1/4-x,3/4+z
3/4+y,3/4+x,1/4+z
1/2+x,1/2+y,1/2+z
3/4-y,1/4+x,3/4+z
1/2-x,-y,1/2+z
3/4+y,3/4-x,1/4+z
1/2+x,1/2-y,1/2-z
1/2-x,y,1/2-z
3/4+y,1/4+x,3/4-z
3/4-y,3/4-x,1/4-z
1/2-x,1/2-y,1/2-z
1/4+y,3/4-x,1/4-z
1/2+x,y,1/2-z
1/4-y,1/4+x,3/4-z
1/2-x,1/2+y,1/2+z
1/2+x,-y,1/2+z
1/4-y,3/4-x,1/4+z
1/4+y,1/4+x,3/4+z
loop_
_atom_site_type_symbol
_atom_site_label
_atom_site_fract_x
_atom_site_fract_y
_atom_site_fract_z
Si Si1 0.076621 0.861666 0.762103
Si Si2 0.871929 0.250000 0.057388
Si Si3 0.733824 0.250000 0.898413
Si Si4 0.000000 0.250000 0.875000
O O1 0.113196 0.863196 0.625000
O O2 0.124106 0.817736 0.856043
O O3 0.000000 0.828316 0.750495
O O4 0.068160 0.939188 0.816621
O O5 0.801451 0.250000 0.982116
O O6 0.932621 0.250000 0.957859
O O7 0.750000 0.250000 0.750000
#
# Coordination Sequence:
#
# PCOD8320696 Si02
#       4
#    32  16  16   4
#     4  10  20  34  57  85 117 146 188 244 293 342
#     4  12  19  34  57  84 118 147 195 241 296 345
#     4  10  23  35  50  91 123 151 189 245 299 349
#     4  12  20  28  58  88 104 148 188 242 300 340
#
# _framework density 17.068726999999999
#
# number of rings (size 3 to 8) (size 9 to 14) (size 15 to 20)
#    1.412    0.000    4.706    2.824    0.000    3.765 
#    0.000    0.000    0.000    0.000   42.824    0.000 
#    0.000    0.000    0.000    0.000    0.000    0.000 
#
# Total GULP energy -421395.327859 kJ/mol
# GULP energy per Si atom -12393.980231 kJ/mol
# Density = 1.702988 g / cm^3
# Si number density = 17.068727 Si / 1000 Ang^3
#
#
#
# Elastic Constant Matrix: (Units=GPa)
#
#
# Indices 1 2 3 4 5 6 
#
# 1 124.0130 33.9568 75.3152 0.0000 0.0000 0.0000
# 2 33.9568 124.0130 75.3152 0.0000 0.0000 0.0000
# 3 75.3152 75.3152 183.4057 0.0000 0.0000 0.0000
# 4 0.0000 0.0000 0.0000 37.2639 0.0000 0.0000
# 5 0.0000 0.0000 0.0000 0.0000 37.2639 0.0000
# 6 0.0000 0.0000 0.0000 0.0000 0.0000 8.6412
#
#
#
# Elastic Compliance Matrix: (Units=1/GPa)
#
#
# Indices 1 2 3 4 5 6 
#
# 1 0.010754 -0.000350 -0.004273 0.000000 0.000000 0.000000
# 2 -0.000350 0.010754 -0.004273 0.000000 0.000000 0.000000
# 3 -0.004273 -0.004273 0.008961 0.000000 0.000000 0.000000
# 4 0.000000 0.000000 0.000000 0.026836 0.000000 0.000000
# 5 0.000000 0.000000 0.000000 0.000000 0.026836 0.000000
# 6 0.000000 0.000000 0.000000 0.000000 0.000000 0.115724
#
#
# Mechanical properties :
#
#
# Convention : Reuss Voigt Hill
#
# Bulk Modulus (GPa) = 78.86440 88.95623 83.91032
# Shear Modulus (GPa) = 22.53451 33.09010 27.81230
#
# Velocity S-wave (km/s) = 3.63743 4.40777 4.04100
# Velocity P-wave (km/s) = 7.99659 8.83936 8.42852
#
# Compressibility (1/GPa) = 0.01267999
#
# Stress axis : x y z
#
# Youngs Moduli (GPa) = 92.98644 92.98644 111.58970
#
# Poissons Ratio (x) = 0.03254 0.47677
# Poissons Ratio (y) = 0.03254 0.47677
# Poissons Ratio (z) = 0.39729 0.39729
#
# Static dielectric constant tensor:
#      x y z
#    x 2.982530 0.000000 0.000000 
#    y 0.000000 2.982530 0.000000 
#    z 0.000000 0.000000 3.453520 
# 
# 
# High freq. dielectric constant tensor:
#      x y z
#    x 1.633600 0.000000 0.000000 
#    y 0.000000 1.633600 0.000000 
#    z 0.000000 0.000000 1.683960 
# 
# From -- ./inp_files/2178.got.cif
#   From: 2010.03.12/outbox.cif.g09.slc.cpg/sg141_2_cif.got.tgz:2178.got - 2010.04.03 13:18:35.
