data_PCOD8320581
_publ_section_title
;
Structure prediction by ZEFSAII (Michael W. Deem and Ramdas Pophale) SiO2 
 PCOD8320581
Probable space group: I 41/A M D
;
_chemical_formula_sum "Si O2"
_cell_formula_units_Z 128
_cell_length_a 19.550950
_cell_length_b 19.550950
_cell_length_c 19.214970
_cell_angle_alpha 90.000000
_cell_angle_beta 90.000000
_cell_angle_gamma 90.000000
_cell_volume 7344.723329
_symmetry_space_group_name_H-M "I 41/A M D"
_symmetry_group_IT_number 141
_space_group.IT_coordinate_system_code '2'
_symmetry_cell_setting 'tetragonal'
loop_
_space_group_symop_operation_xyz
x,y,z
1/4-y,3/4+x,1/4+z
-x,1/2-y,z
1/4+y,1/4-x,3/4+z
x,-y,-z
-x,1/2+y,-z
1/4+y,3/4+x,1/4-z
1/4-y,1/4-x,3/4-z
-x,-y,-z
3/4+y,1/4-x,3/4-z
x,1/2+y,-z
3/4-y,3/4+x,1/4-z
-x,y,z
x,1/2-y,z
3/4-y,1/4-x,3/4+z
3/4+y,3/4+x,1/4+z
1/2+x,1/2+y,1/2+z
3/4-y,1/4+x,3/4+z
1/2-x,-y,1/2+z
3/4+y,3/4-x,1/4+z
1/2+x,1/2-y,1/2-z
1/2-x,y,1/2-z
3/4+y,1/4+x,3/4-z
3/4-y,3/4-x,1/4-z
1/2-x,1/2-y,1/2-z
1/4+y,3/4-x,1/4-z
1/2+x,y,1/2-z
1/4-y,1/4+x,3/4-z
1/2-x,1/2+y,1/2+z
1/2+x,-y,1/2+z
1/4-y,3/4-x,1/4+z
1/4+y,1/4+x,3/4+z
loop_
_atom_site_type_symbol
_atom_site_label
_atom_site_fract_x
_atom_site_fract_y
_atom_site_fract_z
Si Si1 0.075506 0.968978 0.212534
Si Si2 0.195243 0.983324 0.696606
Si Si3 0.110882 0.034902 0.070921
Si Si4 0.077121 0.674066 0.267520
O O1 0.123038 0.012084 0.264541
O O2 0.091977 0.887171 0.212528
O O3 0.000000 0.981996 0.241641
O O4 0.079571 0.993198 0.133940
O O5 0.250000 0.949926 0.750000
O O6 0.221901 0.057764 0.673832
O O7 0.189348 0.939348 0.625000
O O8 0.085215 0.114028 0.076226
O O9 0.083677 0.000000 0.000000
O O10 0.083753 0.750000 0.233159
O O11 0.000000 0.666279 0.299279
#
# Coordination Sequence:
#
# PCOD8320581 Si02
#       4
#    32  32  32  32
#     4  10  20  33  51  75 102 133 171 213 254 300
#     4  10  18  32  53  75  99 132 170 207 253 303
#     4  10  20  32  51  74 101 133 172 211 252 301
#     4   9  19  34  49  68 101 139 171 205 248 300
#
# _framework density 17.427477
#
# number of rings (size 3 to 8) (size 9 to 14) (size 15 to 20)
#    0.000    2.250    2.500    0.750    0.000    2.000 
#    0.000    3.750    0.000    8.250    0.000    0.000 
#    0.000    0.000    0.000    0.000    0.000    0.000 
#
# Total GULP energy -793060.328415 kJ/mol
# GULP energy per Si atom -12391.567631 kJ/mol
# Density = 1.738781 g / cm^3
# Si number density = 17.427477 Si / 1000 Ang^3
#
#
#
# Elastic Constant Matrix: (Units=GPa)
#
#
# Indices 1 2 3 4 5 6 
#
# 1 89.5253 33.6109 53.1530 0.0000 0.0000 0.0000
# 2 33.6109 89.5253 53.1530 0.0000 0.0000 0.0000
# 3 53.1530 53.1530 120.0394 0.0000 0.0000 0.0000
# 4 0.0000 0.0000 0.0000 17.3537 0.0000 0.0000
# 5 0.0000 0.0000 0.0000 0.0000 17.3537 0.0000
# 6 0.0000 0.0000 0.0000 0.0000 0.0000 16.6033
#
#
#
# Elastic Compliance Matrix: (Units=1/GPa)
#
#
# Indices 1 2 3 4 5 6 
#
# 1 0.015516 -0.002369 -0.005821 0.000000 0.000000 0.000000
# 2 -0.002369 0.015516 -0.005821 0.000000 0.000000 0.000000
# 3 -0.005821 -0.005821 0.013486 0.000000 0.000000 0.000000
# 4 0.000000 0.000000 0.000000 0.057625 0.000000 0.000000
# 5 0.000000 0.000000 0.000000 0.000000 0.057625 0.000000
# 6 0.000000 0.000000 0.000000 0.000000 0.000000 0.060229
#
#
# Mechanical properties :
#
#
# Convention : Reuss Voigt Hill
#
# Bulk Modulus (GPa) = 60.62771 64.32486 62.47629
# Shear Modulus (GPa) = 19.72256 20.87367 20.29811
#
# Velocity S-wave (km/s) = 3.36771 3.46460 3.41650
# Velocity P-wave (km/s) = 7.07008 7.27975 7.17568
#
# Compressibility (1/GPa) = 0.01649411
#
# Stress axis : x y z
#
# Youngs Moduli (GPa) = 64.45118 64.45118 74.15133
#
# Poissons Ratio (x) = 0.15268 0.43166
# Poissons Ratio (y) = 0.15268 0.43166
# Poissons Ratio (z) = 0.37519 0.37519
#
# Static dielectric constant tensor:
#      x y z
#    x 3.380690 0.000000 0.000000 
#    y 0.000000 3.380690 0.000000 
#    z 0.000000 0.000000 2.989340 
# 
# 
# High freq. dielectric constant tensor:
#      x y z
#    x 1.670730 0.000000 0.000000 
#    y 0.000000 1.670730 0.000000 
#    z 0.000000 0.000000 1.637330 
# 
# From -- ./inp_files/8241.got.cif
#   From: 2010.03.12/outbox.cif.g09.slc.cpg/sg141_5_cif.got.tgz:8241.got - 2010.04.03 13:18:35.
