data_PCOD8320214
_publ_section_title
;
Structure prediction by ZEFSAII (Michael W. Deem and Ramdas Pophale) SiO2 
 PCOD8320214
Probable space group: I 4/M C M
;
_chemical_formula_sum "Si O2"
_cell_formula_units_Z 128
_cell_length_a 19.719115
_cell_length_b 19.719115
_cell_length_c 17.217535
_cell_angle_alpha 90.000000
_cell_angle_beta 90.000000
_cell_angle_gamma 90.000000
_cell_volume 6694.926509
_symmetry_space_group_name_H-M "I 4/M C M"
_symmetry_group_IT_number 140
_symmetry_cell_setting 'tetragonal'
loop_
_space_group_symop_operation_xyz
x,y,z
-y,x,z
-x,-y,z
y,-x,z
x,-y,1/2-z
-x,y,1/2-z
y,x,1/2-z
-y,-x,1/2-z
-x,-y,-z
y,-x,-z
x,y,-z
-y,x,-z
-x,y,1/2+z
x,-y,1/2+z
-y,-x,1/2+z
y,x,1/2+z
1/2+x,1/2+y,1/2+z
1/2-y,1/2+x,1/2+z
1/2-x,1/2-y,1/2+z
1/2+y,1/2-x,1/2+z
1/2+x,1/2-y,-z
1/2-x,1/2+y,-z
1/2+y,1/2+x,-z
1/2-y,1/2-x,-z
1/2-x,1/2-y,1/2-z
1/2+y,1/2-x,1/2-z
1/2+x,1/2+y,1/2-z
1/2-y,1/2+x,1/2-z
1/2-x,1/2+y,z
1/2+x,1/2-y,z
1/2-y,1/2-x,z
1/2+y,1/2+x,z
loop_
_atom_site_type_symbol
_atom_site_label
_atom_site_fract_x
_atom_site_fract_y
_atom_site_fract_z
Si Si1 0.577637 0.811820 0.727733
Si Si2 0.359558 0.746674 0.913680
Si Si3 0.894026 0.970160 0.911163
Si Si4 0.189665 0.877053 0.320879
O O1 0.500000 0.825766 0.750000
O O2 0.616197 0.883804 0.722411
O O3 0.581510 0.770301 0.646062
O O4 0.615998 0.767186 0.793263
O O5 0.305991 0.805991 0.917328
O O6 0.318978 0.679882 0.886817
O O7 0.390810 0.733787 0.000000
O O8 0.832041 0.950132 0.855646
O O9 0.954056 0.916976 0.892631
O O10 0.871692 0.963970 0.000000
O O11 0.140773 0.859228 0.250000
#
# Coordination Sequence:
#
# PCOD8320214 Si02
#       4
#    32  32  32  32
#     4  10  22  39  59  85 114 147 193 244 293 348
#     4   9  18  35  58  82 110 144 181 227 288 348
#     4   9  19  33  47  70 109 152 188 222 264 324
#     4  10  20  31  53  79 109 140 182 232 280 331
#
# _framework density 19.118955
#
# number of rings (size 3 to 8) (size 9 to 14) (size 15 to 20)
#    0.000    2.500    0.000    2.250    7.000    3.250 
#    0.000    2.500    0.000    3.750    0.000    3.500 
#    0.000    0.000    0.000    0.000    0.000    0.000 
#
# Total GULP energy -793376.813002 kJ/mol
# GULP energy per Si atom -12396.512703 kJ/mol
# Density = 1.907544 g / cm^3
# Si number density = 19.118955 Si / 1000 Ang^3
#
#
#
# Elastic Constant Matrix: (Units=GPa)
#
#
# Indices 1 2 3 4 5 6 
#
# 1 79.4661 22.8131 41.2650 0.0000 0.0000 0.0000
# 2 22.8131 79.4658 41.2655 0.0000 0.0000 0.0000
# 3 41.2650 41.2655 106.6474 0.0000 0.0000 0.0000
# 4 0.0000 0.0000 0.0000 25.1345 0.0000 0.0000
# 5 0.0000 0.0000 0.0000 0.0000 25.1341 0.0000
# 6 0.0000 0.0000 0.0000 0.0000 0.0000 21.5768
#
#
#
# Elastic Compliance Matrix: (Units=1/GPa)
#
#
# Indices 1 2 3 4 5 6 
#
# 1 0.015933 -0.001718 -0.005500 0.000000 0.000000 0.000000
# 2 -0.001718 0.015934 -0.005501 0.000000 0.000000 0.000000
# 3 -0.005500 -0.005501 0.013633 0.000000 0.000000 0.000000
# 4 0.000000 0.000000 0.000000 0.039786 0.000000 0.000000
# 5 0.000000 0.000000 0.000000 0.000000 0.039787 0.000000
# 6 0.000000 0.000000 0.000000 0.000000 0.000000 0.046346
#
#
# Mechanical properties :
#
#
# Convention : Reuss Voigt Hill
#
# Bulk Modulus (GPa) = 49.84391 52.91848 51.38120
# Shear Modulus (GPa) = 24.56471 25.05146 24.80809
#
# Velocity S-wave (km/s) = 3.58835 3.62373 3.60608
# Velocity P-wave (km/s) = 6.57992 6.72660 6.65366
#
# Compressibility (1/GPa) = 0.02006263
#
# Stress axis : x y z
#
# Youngs Moduli (GPa) = 62.76131 62.76065 73.34985
#
# Poissons Ratio (x) = 0.10782 0.40345
# Poissons Ratio (y) = 0.10782 0.40346
# Poissons Ratio (z) = 0.34521 0.34522
#
# Static dielectric constant tensor:
#      x y z
#    x 3.344760 0.000000 0.000000 
#    y 0.000000 3.344760 0.000000 
#    z 0.000000 0.000000 3.938260 
# 
# 
# High freq. dielectric constant tensor:
#      x y z
#    x 1.728800 0.000000 0.000000 
#    y 0.000000 1.728800 0.000000 
#    z 0.000000 0.000000 1.750320 
# 
# From -- ./inp_files/6453.got.cif
#   From: 2010.06.25/outbox.cif.g09.slc.cpg/sg140_4_cif.got.tgz:6453.got - 2010.06.28 10:53:23.
