data_PCOD8320510
_publ_section_title
;
Structure prediction by ZEFSAII (Michael W. Deem and Ramdas Pophale) SiO2 
 PCOD8320510
Probable space group: I 4/M C M
;
_chemical_formula_sum "Si O2"
_cell_formula_units_Z 96
_cell_length_a 13.563908
_cell_length_b 13.563908
_cell_length_c 23.415442
_cell_angle_alpha 90.000000
_cell_angle_beta 90.000000
_cell_angle_gamma 90.000000
_cell_volume 4307.963658
_symmetry_space_group_name_H-M "I 4/M C M"
_symmetry_group_IT_number 140
_symmetry_cell_setting 'tetragonal'
loop_
_space_group_symop_operation_xyz
x,y,z
-y,x,z
-x,-y,z
y,-x,z
x,-y,1/2-z
-x,y,1/2-z
y,x,1/2-z
-y,-x,1/2-z
-x,-y,-z
y,-x,-z
x,y,-z
-y,x,-z
-x,y,1/2+z
x,-y,1/2+z
-y,-x,1/2+z
y,x,1/2+z
1/2+x,1/2+y,1/2+z
1/2-y,1/2+x,1/2+z
1/2-x,1/2-y,1/2+z
1/2+y,1/2-x,1/2+z
1/2+x,1/2-y,-z
1/2-x,1/2+y,-z
1/2+y,1/2+x,-z
1/2-y,1/2-x,-z
1/2-x,1/2-y,1/2-z
1/2+y,1/2-x,1/2-z
1/2+x,1/2+y,1/2-z
1/2-y,1/2+x,1/2-z
1/2-x,1/2+y,z
1/2+x,1/2-y,z
1/2-y,1/2-x,z
1/2+y,1/2+x,z
loop_
_atom_site_type_symbol
_atom_site_label
_atom_site_fract_x
_atom_site_fract_y
_atom_site_fract_z
Si Si1 0.000000 0.165042 0.250000
Si Si2 0.915898 0.137609 0.564067
Si Si3 0.048162 0.293812 0.856339
Si Si4 0.418082 0.081919 0.935692
O O1 0.001725 0.237155 0.304040
O O2 0.097595 0.097595 0.250000
O O3 0.894143 0.173593 0.500000
O O4 0.879005 0.219584 0.608836
O O5 0.033036 0.131952 0.575699
O O6 0.113581 0.386419 0.834567
O O7 0.962179 0.327237 0.899916
O O8 0.500000 0.000000 0.943611
O O9 0.384048 0.115953 0.000000
#
# Coordination Sequence:
#
# PCOD8320510 Si02
#       4
#    16  32  32  16
#     4  11  26  48  69  90 130 178 219 264 334 405
#     4   9  18  36  61  88 124 170 213 255 317 386
#     4  11  23  39  64  94 126 166 216 273 319 385
#     4   9  20  40  63  92 134 182 214 255 333 404
#
# _framework density 22.284310999999999
#
# number of rings (size 3 to 8) (size 9 to 14) (size 15 to 20)
#    0.000    2.000    0.000    4.000    2.333    5.333 
#    9.000    0.000    0.000    0.000    0.000    0.000 
#    0.000    0.000    0.000    0.000    0.000    0.000 
#
# Total GULP energy -594978.287082 kJ/mol
# GULP energy per Si atom -12395.380981 kJ/mol
# Density = 2.223359 g / cm^3
# Si number density = 22.284311 Si / 1000 Ang^3
#
#
#
# Elastic Constant Matrix: (Units=GPa)
#
#
# Indices 1 2 3 4 5 6 
#
# 1 92.3698 17.1463 53.1577 0.0000 0.0000 0.0000
# 2 17.1463 92.3695 53.1576 0.0000 0.0000 0.0000
# 3 53.1577 53.1576 163.4463 0.0000 0.0000 0.0000
# 4 0.0000 0.0000 0.0000 31.4020 0.0000 0.0000
# 5 0.0000 0.0000 0.0000 0.0000 31.4020 0.0000
# 6 0.0000 0.0000 0.0000 0.0000 0.0000 22.8250
#
#
#
# Elastic Compliance Matrix: (Units=1/GPa)
#
#
# Indices 1 2 3 4 5 6 
#
# 1 0.013319 0.000025 -0.004340 0.000000 0.000000 0.000000
# 2 0.000025 0.013319 -0.004340 0.000000 0.000000 0.000000
# 3 -0.004340 -0.004340 0.008941 0.000000 0.000000 0.000000
# 4 0.000000 0.000000 0.000000 0.031845 0.000000 0.000000
# 5 0.000000 0.000000 0.000000 0.000000 0.031845 0.000000
# 6 0.000000 0.000000 0.000000 0.000000 0.000000 0.043812
#
#
# Mechanical properties :
#
#
# Convention : Reuss Voigt Hill
#
# Bulk Modulus (GPa) = 54.73507 66.12319 60.42913
# Shear Modulus (GPa) = 30.03361 32.10740 31.07050
#
# Velocity S-wave (km/s) = 3.67515 3.79991 3.73805
# Velocity P-wave (km/s) = 6.52874 6.99924 6.76808
#
# Compressibility (1/GPa) = 0.01826982
#
# Stress axis : x y z
#
# Youngs Moduli (GPa) = 75.08098 75.08085 111.84216
#
# Poissons Ratio (x) = -0.00189 0.48539
# Poissons Ratio (y) = -0.00189 0.48539
# Poissons Ratio (z) = 0.32585 0.32585
#
# Static dielectric constant tensor:
#      x y z
#    x 3.925160 0.000000 0.000000 
#    y 0.000000 3.925160 0.000000 
#    z 0.000000 0.000000 4.208940 
# 
# 
# High freq. dielectric constant tensor:
#      x y z
#    x 1.868420 0.000000 0.000000 
#    y 0.000000 1.868420 0.000000 
#    z 0.000000 0.000000 1.884280 
# 
# From -- ./inp_files/7708.got.cif
#   From: 2010.06.25/outbox.cif.g09.slc.cpg/sg140_4_cif.got.tgz:7708.got - 2010.06.28 10:53:23.
