data_PCOD8320864
_publ_section_title
;
Structure prediction by ZEFSAII (Michael W. Deem and Ramdas Pophale) SiO2 
 PCOD8320864
Probable space group: I 41/A M D
;
_chemical_formula_sum "Si O2"
_cell_formula_units_Z 96
_cell_length_a 17.967710
_cell_length_b 17.967710
_cell_length_c 14.471880
_cell_angle_alpha 90.000000
_cell_angle_beta 90.000000
_cell_angle_gamma 90.000000
_cell_volume 4672.081517
_symmetry_space_group_name_H-M "I 41/A M D"
_symmetry_group_IT_number 141
_space_group.IT_coordinate_system_code '2'
_symmetry_cell_setting 'tetragonal'
loop_
_space_group_symop_operation_xyz
x,y,z
1/4-y,3/4+x,1/4+z
-x,1/2-y,z
1/4+y,1/4-x,3/4+z
x,-y,-z
-x,1/2+y,-z
1/4+y,3/4+x,1/4-z
1/4-y,1/4-x,3/4-z
-x,-y,-z
3/4+y,1/4-x,3/4-z
x,1/2+y,-z
3/4-y,3/4+x,1/4-z
-x,y,z
x,1/2-y,z
3/4-y,1/4-x,3/4+z
3/4+y,3/4+x,1/4+z
1/2+x,1/2+y,1/2+z
3/4-y,1/4+x,3/4+z
1/2-x,-y,1/2+z
3/4+y,3/4-x,1/4+z
1/2+x,1/2-y,1/2-z
1/2-x,y,1/2-z
3/4+y,1/4+x,3/4-z
3/4-y,3/4-x,1/4-z
1/2-x,1/2-y,1/2-z
1/4+y,3/4-x,1/4-z
1/2+x,y,1/2-z
1/4-y,1/4+x,3/4-z
1/2-x,1/2+y,1/2+z
1/2+x,-y,1/2+z
1/4-y,3/4-x,1/4+z
1/4+y,1/4+x,3/4+z
loop_
_atom_site_type_symbol
_atom_site_label
_atom_site_fract_x
_atom_site_fract_y
_atom_site_fract_z
Si Si1 0.158004 0.335456 0.961712
Si Si2 0.914913 0.166596 0.601253
Si Si3 0.696955 0.916977 0.977650
O O1 0.165582 0.250000 0.929138
O O2 0.136789 0.386789 0.875000
O O3 0.094515 0.343847 0.038933
O O4 0.234999 0.361152 0.007472
O O5 0.887531 0.250000 0.577594
O O6 0.868408 0.105397 0.546849
O O7 0.000000 0.155549 0.571185
O O8 0.663433 0.913433 0.875000
O O9 0.724656 0.000000 0.000000
#
# Coordination Sequence:
#
# PCOD8320864 Si02
#       3
#    32  32  32
#     4  11  24  42  69 100 133 176 219 274 343 407
#     4  10  23  42  64  95 132 171 222 279 333 402
#     4  12  24  43  66  93 133 173 223 276 333 397
#
# _framework density 20.547585999999999
#
# number of rings (size 3 to 8) (size 9 to 14) (size 15 to 20)
#    0.000    1.000    3.333    3.000    0.000    5.000 
#    0.000    5.000    0.000    0.000    0.000    0.000 
#    0.000    0.000    0.000    0.000    0.000    0.000 
#
# Total GULP energy -595435.086779 kJ/mol
# GULP energy per Si atom -12404.897641 kJ/mol
# Density = 2.050082 g / cm^3
# Si number density = 20.547586 Si / 1000 Ang^3
#
#
#
# Elastic Constant Matrix: (Units=GPa)
#
#
# Indices 1 2 3 4 5 6 
#
# 1 86.9077 43.8830 37.7843 0.0000 0.0000 0.0000
# 2 43.8830 86.9077 37.7843 0.0000 0.0000 0.0000
# 3 37.7843 37.7843 104.5045 0.0000 0.0000 0.0000
# 4 0.0000 0.0000 0.0000 30.4975 0.0000 0.0000
# 5 0.0000 0.0000 0.0000 0.0000 30.4975 0.0000
# 6 0.0000 0.0000 0.0000 0.0000 0.0000 31.7679
#
#
#
# Elastic Compliance Matrix: (Units=1/GPa)
#
#
# Indices 1 2 3 4 5 6 
#
# 1 0.016454 -0.006789 -0.003494 0.000000 0.000000 0.000000
# 2 -0.006789 0.016454 -0.003494 0.000000 0.000000 0.000000
# 3 -0.003494 -0.003494 0.012096 0.000000 0.000000 0.000000
# 4 0.000000 0.000000 0.000000 0.032790 0.000000 0.000000
# 5 0.000000 0.000000 0.000000 0.000000 0.032790 0.000000
# 6 0.000000 0.000000 0.000000 0.000000 0.000000 0.031478
#
#
# Mechanical properties :
#
#
# Convention : Reuss Voigt Hill
#
# Bulk Modulus (GPa) = 57.31354 57.46926 57.39140
# Shear Modulus (GPa) = 28.50114 29.14381 28.82248
#
# Velocity S-wave (km/s) = 3.72839 3.77019 3.74935
# Velocity P-wave (km/s) = 6.81822 6.85435 6.83631
#
# Compressibility (1/GPa) = 0.01744789
#
# Stress axis : x y z
#
# Youngs Moduli (GPa) = 60.77691 60.77691 82.67334
#
# Poissons Ratio (x) = 0.41260 0.28889
# Poissons Ratio (y) = 0.41260 0.28889
# Poissons Ratio (z) = 0.21238 0.21238
#
# Static dielectric constant tensor:
#      x y z
#    x 3.681730 0.000000 0.000000 
#    y 0.000000 3.681730 0.000000 
#    z 0.000000 0.000000 3.727710 
# 
# 
# High freq. dielectric constant tensor:
#      x y z
#    x 1.810050 0.000000 0.000000 
#    y 0.000000 1.810050 0.000000 
#    z 0.000000 0.000000 1.807290 
# 
# From -- ./inp_files/4173.got.cif
#   From: 2010.03.12/outbox.cif.g09.slc.cpg/sg141_3_cif.got.tgz:4173.got - 2010.04.03 13:18:35.
