data_PCOD8320675
_publ_section_title
;
Structure prediction by ZEFSAII (Michael W. Deem and Ramdas Pophale) SiO2 
 PCOD8320675
Probable space group: I 41/A M D
;
_chemical_formula_sum "Si O2"
_cell_formula_units_Z 224
_cell_length_a 23.886464
_cell_length_b 23.886464
_cell_length_c 22.460554
_cell_angle_alpha 90.000000
_cell_angle_beta 90.000000
_cell_angle_gamma 90.000000
_cell_volume 12815.164720
_symmetry_space_group_name_H-M "I 41/A M D"
_symmetry_group_IT_number 141
_space_group.IT_coordinate_system_code '2'
_symmetry_cell_setting 'tetragonal'
loop_
_space_group_symop_operation_xyz
x,y,z
1/4-y,3/4+x,1/4+z
-x,1/2-y,z
1/4+y,1/4-x,3/4+z
x,-y,-z
-x,1/2+y,-z
1/4+y,3/4+x,1/4-z
1/4-y,1/4-x,3/4-z
-x,-y,-z
3/4+y,1/4-x,3/4-z
x,1/2+y,-z
3/4-y,3/4+x,1/4-z
-x,y,z
x,1/2-y,z
3/4-y,1/4-x,3/4+z
3/4+y,3/4+x,1/4+z
1/2+x,1/2+y,1/2+z
3/4-y,1/4+x,3/4+z
1/2-x,-y,1/2+z
3/4+y,3/4-x,1/4+z
1/2+x,1/2-y,1/2-z
1/2-x,y,1/2-z
3/4+y,1/4+x,3/4-z
3/4-y,3/4-x,1/4-z
1/2-x,1/2-y,1/2-z
1/4+y,3/4-x,1/4-z
1/2+x,y,1/2-z
1/4-y,1/4+x,3/4-z
1/2-x,1/2+y,1/2+z
1/2+x,-y,1/2+z
1/4-y,3/4-x,1/4+z
1/4+y,1/4+x,3/4+z
loop_
_atom_site_type_symbol
_atom_site_label
_atom_site_fract_x
_atom_site_fract_y
_atom_site_fract_z
Si Si1 0.066486 0.408867 0.714412
Si Si2 0.064347 0.973856 0.671796
Si Si3 0.149760 0.683694 0.100759
Si Si4 0.131998 0.814991 0.667001
Si Si5 0.936735 0.375543 0.243437
Si Si6 0.064051 0.621015 0.895284
Si Si7 0.933847 0.000259 0.933440
O O1 0.091487 0.464707 0.681697
O O2 0.085668 0.410203 0.783016
O O3 0.087973 0.353027 0.682773
O O4 0.000000 0.408733 0.710657
O O5 0.090304 0.938082 0.615909
O O6 0.070640 0.939226 0.733598
O O7 0.000000 0.983119 0.656424
O O8 0.143869 0.750000 0.105340
O O9 0.092346 0.657655 0.125000
O O10 0.199968 0.660070 0.142282
O O11 0.078962 0.828962 0.625000
O O12 0.139856 0.750000 0.675205
O O13 0.115705 0.840332 0.730696
O O14 0.930020 0.367385 0.173942
O O15 0.000000 0.355500 0.262363
O O16 0.083921 0.557769 0.904029
O O17 0.000000 0.630064 0.917046
O O18 0.000000 0.007263 0.936653
O O19 0.908142 0.000000 0.000000
#
# Coordination Sequence:
#
# PCOD8320675 Si02
#       7
#    32  32  32  32  32  32  32
#     4  10  20  33  49  69  97 132 164 194 236 291
#     4   8  15  30  49  68  91 123 164 204 241 284
#     4  10  20  33  51  75 101 129 159 193 236 287
#     4   9  16  26  44  70  96 123 159 203 246 286
#     4   9  17  29  47  70  97 128 161 201 246 289
#     4  10  20  33  49  71  98 127 161 200 242 288
#     4   9  17  31  52  74  94 119 156 200 240 279
#
# _framework density 17.479291
#
# number of rings (size 3 to 8) (size 9 to 14) (size 15 to 20)
#    0.000    2.714    0.000    3.000    0.000    7.143 
#    0.000    3.571    0.000    5.143    0.000    8.000 
#    0.000    0.000    0.000    0.000    0.000    0.000 
#
# Total GULP energy -1387650.512975 kJ/mol
# GULP energy per Si atom -12389.736723 kJ/mol
# Density = 1.743951 g / cm^3
# Si number density = 17.479291 Si / 1000 Ang^3
#
#
#
# Elastic Constant Matrix: (Units=GPa)
#
#
# Indices 1 2 3 4 5 6 
#
# 1 66.9954 37.7632 46.5958 0.0000 0.0000 0.0000
# 2 37.7632 66.9915 46.5951 0.0000 0.0000 0.0000
# 3 46.5958 46.5951 113.6699 0.0000 0.0000 0.0000
# 4 0.0000 0.0000 0.0000 24.5785 0.0000 0.0000
# 5 0.0000 0.0000 0.0000 0.0000 24.5791 0.0000
# 6 0.0000 0.0000 0.0000 0.0000 0.0000 7.3752
#
#
#
# Elastic Compliance Matrix: (Units=1/GPa)
#
#
# Indices 1 2 3 4 5 6 
#
# 1 0.024617 -0.009593 -0.006159 0.000000 0.000000 0.000000
# 2 -0.009593 0.024619 -0.006159 0.000000 0.000000 0.000000
# 3 -0.006159 -0.006159 0.013847 0.000000 0.000000 0.000000
# 4 0.000000 0.000000 0.000000 0.040686 0.000000 0.000000
# 5 0.000000 0.000000 0.000000 0.000000 0.040685 0.000000
# 6 0.000000 0.000000 0.000000 0.000000 0.000000 0.135590
#
#
# Mechanical properties :
#
#
# Convention : Reuss Voigt Hill
#
# Bulk Modulus (GPa) = 51.91933 56.61834 54.26883
# Shear Modulus (GPa) = 15.13837 19.08673 17.11255
#
# Velocity S-wave (km/s) = 2.94611 3.30807 3.13232
# Velocity P-wave (km/s) = 6.42966 6.85953 6.64807
#
# Compressibility (1/GPa) = 0.01926065
#
# Stress axis : x y z
#
# Youngs Moduli (GPa) = 40.62212 40.61923 72.21889
#
# Poissons Ratio (x) = 0.38966 0.44478
# Poissons Ratio (y) = 0.38969 0.44482
# Poissons Ratio (z) = 0.25018 0.25019
#
# Static dielectric constant tensor:
#      x y z
#    x 3.195000 0.000000 0.000000 
#    y 0.000000 3.195000 0.000000 
#    z 0.000000 0.000000 3.466650 
# 
# 
# High freq. dielectric constant tensor:
#      x y z
#    x 1.652250 0.000000 0.000000 
#    y 0.000000 1.652250 0.000000 
#    z 0.000000 0.000000 1.684890 
# 
# From -- ./inp_files/11843.got.cif
#   From: 2010.03.12/outbox.cif.g09.slc.cpg/sg141_6_cif.got.tgz:11843.got - 2010.04.03 13:18:35.
