data_PCOD8320491
_publ_section_title
;
Structure prediction by ZEFSAII (Michael W. Deem and Ramdas Pophale) SiO2 
 PCOD8320491
Probable space group: I 4/M C M
;
_chemical_formula_sum "Si O2"
_cell_formula_units_Z 176
_cell_length_a 18.797228
_cell_length_b 18.797228
_cell_length_c 32.683002
_cell_angle_alpha 90.000000
_cell_angle_beta 90.000000
_cell_angle_gamma 90.000000
_cell_volume 11548.074020
_symmetry_space_group_name_H-M "I 4/M C M"
_symmetry_group_IT_number 140
_symmetry_cell_setting 'tetragonal'
loop_
_space_group_symop_operation_xyz
x,y,z
-y,x,z
-x,-y,z
y,-x,z
x,-y,1/2-z
-x,y,1/2-z
y,x,1/2-z
-y,-x,1/2-z
-x,-y,-z
y,-x,-z
x,y,-z
-y,x,-z
-x,y,1/2+z
x,-y,1/2+z
-y,-x,1/2+z
y,x,1/2+z
1/2+x,1/2+y,1/2+z
1/2-y,1/2+x,1/2+z
1/2-x,1/2-y,1/2+z
1/2+y,1/2-x,1/2+z
1/2+x,1/2-y,-z
1/2-x,1/2+y,-z
1/2+y,1/2+x,-z
1/2-y,1/2-x,-z
1/2-x,1/2-y,1/2-z
1/2+y,1/2-x,1/2-z
1/2+x,1/2+y,1/2-z
1/2-y,1/2+x,1/2-z
1/2-x,1/2+y,z
1/2+x,1/2-y,z
1/2-y,1/2-x,z
1/2+y,1/2+x,z
loop_
_atom_site_type_symbol
_atom_site_label
_atom_site_fract_x
_atom_site_fract_y
_atom_site_fract_z
Si Si1 0.276923 0.223078 0.950805
Si Si2 0.416211 0.415353 0.838663
Si Si3 0.107456 0.607456 0.048557
Si Si4 0.846167 0.543529 0.951663
Si Si5 0.348719 0.369596 0.418208
Si Si6 0.809442 0.982483 0.452917
Si Si7 0.582507 0.582507 0.750000
O O1 0.334871 0.165130 0.938036
O O2 0.303729 0.297593 0.931054
O O3 0.267888 0.232113 0.000000
O O4 0.500529 0.401254 0.844636
O O5 0.369453 0.368720 0.870193
O O6 0.388619 0.388140 0.793625
O O7 0.127997 0.531221 0.067169
O O8 0.104913 0.604913 0.000000
O O9 0.892361 0.607640 0.932421
O O10 0.764299 0.555797 0.940563
O O11 0.857062 0.541373 0.000000
O O12 0.313582 0.444859 0.428066
O O13 0.423658 0.368585 0.442833
O O14 0.812097 0.004811 0.500000
O O15 0.500000 0.598186 0.750000
#
# Coordination Sequence:
#
# PCOD8320491 Si02
#       7
#    16  32  16  32  32  32  16
#     4  11  22  35  46  60  91 134 168 197 241 287
#     4   9  16  30  49  75  98 118 147 189 236 284
#     4   9  15  28  47  62  79 107 149 201 248 276
#     4   9  17  29  45  63  80 105 153 208 245 272
#     4  12  22  34  48  65  92 123 161 202 232 281
#     4  11  22  33  44  62  88 126 164 198 235 271
#     4   7  12  24  48  73  98 118 138 179 236 289
#
# _framework density 15.240637
#
# number of rings (size 3 to 8) (size 9 to 14) (size 15 to 20)
#    0.000    2.091    3.636    3.000    1.273    1.455 
#    0.000    0.909    0.000    0.545    0.000    0.000 
#    0.000    0.000    0.000    0.000    0.000    0.000 
#
# Total GULP energy -1090282.251593 kJ/mol
# GULP energy per Si atom -12389.571041 kJ/mol
# Density = 1.520595 g / cm^3
# Si number density = 15.240637 Si / 1000 Ang^3
#
#
#
# Elastic Constant Matrix: (Units=GPa)
#
#
# Indices 1 2 3 4 5 6 
#
# 1 57.1365 19.1671 32.4789 0.0000 0.0000 0.0000
# 2 19.1671 57.1366 32.4790 0.0000 0.0000 0.0000
# 3 32.4789 32.4790 93.4543 0.0000 0.0000 0.0000
# 4 0.0000 0.0000 0.0000 14.7889 0.0000 0.0000
# 5 0.0000 0.0000 0.0000 0.0000 14.7889 0.0000
# 6 0.0000 0.0000 0.0000 0.0000 0.0000 27.1973
#
#
#
# Elastic Compliance Matrix: (Units=1/GPa)
#
#
# Indices 1 2 3 4 5 6 
#
# 1 0.022475 -0.003862 -0.006468 0.000000 0.000000 0.000000
# 2 -0.003862 0.022475 -0.006468 0.000000 0.000000 0.000000
# 3 -0.006468 -0.006468 0.015196 0.000000 0.000000 0.000000
# 4 0.000000 0.000000 0.000000 0.067618 0.000000 0.000000
# 5 0.000000 0.000000 0.000000 0.000000 0.067618 0.000000
# 6 0.000000 0.000000 0.000000 0.000000 0.000000 0.036768
#
#
# Mechanical properties :
#
#
# Convention : Reuss Voigt Hill
#
# Bulk Modulus (GPa) = 37.66897 41.77528 39.72213
# Shear Modulus (GPa) = 18.20843 19.59518 18.90180
#
# Velocity S-wave (km/s) = 3.46023 3.58958 3.52550
# Velocity P-wave (km/s) = 6.38233 6.68207 6.53392
#
# Compressibility (1/GPa) = 0.02654705
#
# Stress axis : x y z
#
# Youngs Moduli (GPa) = 44.49474 44.49476 65.80472
#
# Poissons Ratio (x) = 0.17186 0.42565
# Poissons Ratio (y) = 0.17186 0.42566
# Poissons Ratio (z) = 0.28781 0.28781
#
# Static dielectric constant tensor:
#      x y z
#    x 2.936660 0.000000 0.000000 
#    y 0.000000 2.936670 0.000000 
#    z 0.000000 0.000000 2.875790 
# 
# 
# High freq. dielectric constant tensor:
#      x y z
#    x 1.576750 0.000000 0.000000 
#    y 0.000000 1.576750 0.000000 
#    z 0.000000 0.000000 1.542740 
# 
# From -- ./inp_files/11578.got.cif
#   From: 2010.06.25/outbox.cif.g09.slc.cpg/sg140_6_cif.got.tgz:11578.got - 2010.06.28 10:53:23.
