data_PCOD8320894
_publ_section_title
;
Structure prediction by ZEFSAII (Michael W. Deem and Ramdas Pophale) SiO2 
 PCOD8320894
Probable space group: I 41/A M D
;
_chemical_formula_sum "Si O2"
_cell_formula_units_Z 112
_cell_length_a 18.999936
_cell_length_b 18.999936
_cell_length_c 15.736351
_cell_angle_alpha 90.000000
_cell_angle_beta 90.000000
_cell_angle_gamma 90.000000
_cell_volume 5680.784440
_symmetry_space_group_name_H-M "I 41/A M D"
_symmetry_group_IT_number 141
_space_group.IT_coordinate_system_code '2'
_symmetry_cell_setting 'tetragonal'
loop_
_space_group_symop_operation_xyz
x,y,z
1/4-y,3/4+x,1/4+z
-x,1/2-y,z
1/4+y,1/4-x,3/4+z
x,-y,-z
-x,1/2+y,-z
1/4+y,3/4+x,1/4-z
1/4-y,1/4-x,3/4-z
-x,-y,-z
3/4+y,1/4-x,3/4-z
x,1/2+y,-z
3/4-y,3/4+x,1/4-z
-x,y,z
x,1/2-y,z
3/4-y,1/4-x,3/4+z
3/4+y,3/4+x,1/4+z
1/2+x,1/2+y,1/2+z
3/4-y,1/4+x,3/4+z
1/2-x,-y,1/2+z
3/4+y,3/4-x,1/4+z
1/2+x,1/2-y,1/2-z
1/2-x,y,1/2-z
3/4+y,1/4+x,3/4-z
3/4-y,3/4-x,1/4-z
1/2-x,1/2-y,1/2-z
1/4+y,3/4-x,1/4-z
1/2+x,y,1/2-z
1/4-y,1/4+x,3/4-z
1/2-x,1/2+y,1/2+z
1/2+x,-y,1/2+z
1/4-y,3/4-x,1/4+z
1/4+y,1/4+x,3/4+z
loop_
_atom_site_type_symbol
_atom_site_label
_atom_site_fract_x
_atom_site_fract_y
_atom_site_fract_z
Si Si1 0.828115 0.576315 0.247008
Si Si2 0.082980 0.667021 0.125000
Si Si3 0.421538 0.832344 0.971055
Si Si4 0.674020 0.935832 0.062088
O O1 0.750000 0.610492 0.250000
O O2 0.883077 0.632654 0.209605
O O3 0.828081 0.507459 0.187385
O O4 0.850013 0.549619 0.341241
O O5 0.098500 0.750000 0.125250
O O6 0.399689 0.850312 0.875000
O O7 0.500000 0.861405 0.989510
O O8 0.419786 0.750000 0.987452
O O9 0.366174 0.866298 0.034065
O O10 0.653151 0.000000 0.000000
#
# Coordination Sequence:
#
# PCOD8320894 Si02
#       4
#    32  16  32  32
#     4  11  21  42  64  89 124 164 205 257 318 377
#     4  11  26  46  66  94 128 166 220 271 310 374
#     4   9  19  36  55  80 119 162 202 247 304 371
#     4  11  21  36  64  92 123 157 205 260 311 379
#
# _framework density 19.715585999999998
#
# number of rings (size 3 to 8) (size 9 to 14) (size 15 to 20)
#    0.000    1.571    2.857    5.143    0.000    4.571 
#    0.000    2.857    0.000    0.000    0.000    0.000 
#    0.000    0.000    0.000    0.000    0.000    0.000 
#
# Total GULP energy -694454.148437 kJ/mol
# GULP energy per Si atom -12400.966936 kJ/mol
# Density = 1.967071 g / cm^3
# Si number density = 19.715586 Si / 1000 Ang^3
#
#
#
# Elastic Constant Matrix: (Units=GPa)
#
#
# Indices 1 2 3 4 5 6 
#
# 1 81.9527 59.8772 46.7662 0.0000 0.0000 0.0000
# 2 59.8772 81.9554 46.7668 0.0000 0.0000 0.0000
# 3 46.7662 46.7668 135.1315 0.0000 0.0000 0.0000
# 4 0.0000 0.0000 0.0000 29.8300 0.0000 0.0000
# 5 0.0000 0.0000 0.0000 0.0000 29.8313 0.0000
# 6 0.0000 0.0000 0.0000 0.0000 0.0000 38.4350
#
#
#
# Elastic Compliance Matrix: (Units=1/GPa)
#
#
# Indices 1 2 3 4 5 6 
#
# 1 0.027216 -0.018080 -0.003162 0.000000 0.000000 0.000000
# 2 -0.018080 0.027215 -0.003162 0.000000 0.000000 0.000000
# 3 -0.003162 -0.003162 0.009589 0.000000 0.000000 0.000000
# 4 0.000000 0.000000 0.000000 0.033523 0.000000 0.000000
# 5 0.000000 0.000000 0.000000 0.000000 0.033522 0.000000
# 6 0.000000 0.000000 0.000000 0.000000 0.000000 0.026018
#
#
# Mechanical properties :
#
#
# Convention : Reuss Voigt Hill
#
# Bulk Modulus (GPa) = 65.73246 67.31778 66.52512
# Shear Modulus (GPa) = 23.70095 29.32788 26.51442
#
# Velocity S-wave (km/s) = 3.47095 3.86106 3.67119
# Velocity P-wave (km/s) = 7.03392 7.35497 7.19624
#
# Compressibility (1/GPa) = 0.01521318
#
# Stress axis : x y z
#
# Youngs Moduli (GPa) = 36.74252 36.74382 104.29054
#
# Poissons Ratio (x) = 0.66434 0.32974
# Poissons Ratio (y) = 0.66432 0.32973
# Poissons Ratio (z) = 0.11617 0.11617
#
# Static dielectric constant tensor:
#      x y z
#    x 3.468210 0.000000 0.000000 
#    y 0.000000 3.468170 0.000000 
#    z 0.000000 0.000000 3.808740 
# 
# 
# High freq. dielectric constant tensor:
#      x y z
#    x 1.759390 0.000000 0.000000 
#    y 0.000000 1.759380 0.000000 
#    z 0.000000 0.000000 1.780180 
# 
# From -- ./inp_files/7905.got.cif
#   From: 2010.03.12/outbox.cif.g09.slc.cpg/sg141_4_cif.got.tgz:7905.got - 2010.04.03 13:18:35.
