data_PCOD8320525
_publ_section_title
;
Structure prediction by ZEFSAII (Michael W. Deem and Ramdas Pophale) SiO2 
 PCOD8320525
Probable space group: I 4/M C M
;
_chemical_formula_sum "Si O2"
_cell_formula_units_Z 160
_cell_length_a 22.977967
_cell_length_b 22.977967
_cell_length_c 16.551344
_cell_angle_alpha 90.000000
_cell_angle_beta 90.000000
_cell_angle_gamma 90.000000
_cell_volume 8738.893926
_symmetry_space_group_name_H-M "I 4/M C M"
_symmetry_group_IT_number 140
_symmetry_cell_setting 'tetragonal'
loop_
_space_group_symop_operation_xyz
x,y,z
-y,x,z
-x,-y,z
y,-x,z
x,-y,1/2-z
-x,y,1/2-z
y,x,1/2-z
-y,-x,1/2-z
-x,-y,-z
y,-x,-z
x,y,-z
-y,x,-z
-x,y,1/2+z
x,-y,1/2+z
-y,-x,1/2+z
y,x,1/2+z
1/2+x,1/2+y,1/2+z
1/2-y,1/2+x,1/2+z
1/2-x,1/2-y,1/2+z
1/2+y,1/2-x,1/2+z
1/2+x,1/2-y,-z
1/2-x,1/2+y,-z
1/2+y,1/2+x,-z
1/2-y,1/2-x,-z
1/2-x,1/2-y,1/2-z
1/2+y,1/2-x,1/2-z
1/2+x,1/2+y,1/2-z
1/2-y,1/2+x,1/2-z
1/2-x,1/2+y,z
1/2+x,1/2-y,z
1/2-y,1/2-x,z
1/2+y,1/2+x,z
loop_
_atom_site_type_symbol
_atom_site_label
_atom_site_fract_x
_atom_site_fract_y
_atom_site_fract_z
Si Si1 0.615114 0.208768 0.759161
Si Si2 0.211470 0.461409 0.092301
Si Si3 0.796642 0.044807 0.322788
Si Si4 0.969346 0.618677 0.326115
Si Si5 0.585954 0.462792 0.905463
O O1 0.680045 0.180045 0.754558
O O2 0.596079 0.219625 0.852206
O O3 0.606540 0.268643 0.708152
O O4 0.567764 0.168465 0.717230
O O5 0.258900 0.511895 0.108696
O O6 0.146880 0.487568 0.108424
O O7 0.216415 0.441001 0.000000
O O8 0.859225 0.062318 0.357574
O O9 0.802755 0.000000 0.250000
O O10 0.928386 0.571615 0.371177
O O11 0.000000 0.587210 0.250000
O O12 0.575415 0.530018 0.881264
O O13 0.597818 0.457602 0.000000
#
# Coordination Sequence:
#
# PCOD8320525 Si02
#       5
#    32  32  32  32  32
#     4   8  15  28  43  60  86 121 162 205 244 281
#     4   9  16  25  40  62  86 116 158 205 249 293
#     4   9  17  29  46  69  96 128 166 202 237 283
#     4   8  14  24  36  51  76 112 151 192 241 296
#     4   9  18  32  50  75 107 136 157 184 231 289
#
# _framework density 18.308952999999999
#
# number of rings (size 3 to 8) (size 9 to 14) (size 15 to 20)
#    0.000    3.400    0.000    3.600    0.000    1.800 
#    0.000    1.000    0.000    1.800    0.000   16.800 
#    0.000    6.400    0.000    0.200    0.000    1.200 
#
# Total GULP energy -991087.689634 kJ/mol
# GULP energy per Si atom -12388.596120 kJ/mol
# Density = 1.826728 g / cm^3
# Si number density = 18.308953 Si / 1000 Ang^3
#
#
#
# Elastic Constant Matrix: (Units=GPa)
#
#
# Indices 1 2 3 4 5 6 
#
# 1 74.0109 37.2640 41.0811 0.0000 0.0000 0.0000
# 2 37.2640 74.0109 41.0811 0.0000 0.0000 0.0000
# 3 41.0811 41.0811 83.1428 0.0000 0.0000 0.0000
# 4 0.0000 0.0000 0.0000 22.0948 0.0000 0.0000
# 5 0.0000 0.0000 0.0000 0.0000 22.0948 0.0000
# 6 0.0000 0.0000 0.0000 0.0000 0.0000 16.1657
#
#
#
# Elastic Compliance Matrix: (Units=1/GPa)
#
#
# Indices 1 2 3 4 5 6 
#
# 1 0.020681 -0.006532 -0.006991 0.000000 0.000000 0.000000
# 2 -0.006532 0.020681 -0.006991 0.000000 0.000000 0.000000
# 3 -0.006991 -0.006991 0.018936 0.000000 0.000000 0.000000
# 4 0.000000 0.000000 0.000000 0.045260 0.000000 0.000000
# 5 0.000000 0.000000 0.000000 0.000000 0.045260 0.000000
# 6 0.000000 0.000000 0.000000 0.000000 0.000000 0.061859
#
#
# Mechanical properties :
#
#
# Convention : Reuss Voigt Hill
#
# Bulk Modulus (GPa) = 51.89505 52.22412 52.05959
# Shear Modulus (GPa) = 19.22132 19.52026 19.37079
#
# Velocity S-wave (km/s) = 3.24363 3.26875 3.25621
# Velocity P-wave (km/s) = 6.51412 6.54462 6.52939
#
# Compressibility (1/GPa) = 0.01926966
#
# Stress axis : x y z
#
# Youngs Moduli (GPa) = 48.35377 48.35377 52.80959
#
# Poissons Ratio (x) = 0.31586 0.36919
# Poissons Ratio (y) = 0.31586 0.36919
# Poissons Ratio (z) = 0.33804 0.33804
#
# Static dielectric constant tensor:
#      x y z
#    x 3.285370 0.000000 0.000000 
#    y 0.000000 3.285370 0.000000 
#    z 0.000000 0.000000 3.172190 
# 
# 
# High freq. dielectric constant tensor:
#      x y z
#    x 1.685540 0.000000 0.000000 
#    y 0.000000 1.685540 0.000000 
#    z 0.000000 0.000000 1.695430 
# 
# From -- ./inp_files/4720.got.cif
#   From: 2010.06.25/outbox.cif.g09.slc.cpg/sg140_3_cif.got.tgz:4720.got - 2010.06.28 10:53:23.
