data_PCOD8320966
_publ_section_title
;
Structure prediction by ZEFSAII (Michael W. Deem and Ramdas Pophale) SiO2 
 PCOD8320966
Probable space group: I 41/A C D
;
_chemical_formula_sum "Si O2"
_cell_formula_units_Z 192
_cell_length_a 20.985417
_cell_length_b 20.985417
_cell_length_c 23.367261
_cell_angle_alpha 90.000000
_cell_angle_beta 90.000000
_cell_angle_gamma 90.000000
_cell_volume 10290.654950
_symmetry_space_group_name_H-M "I 41/A C D"
_symmetry_group_IT_number 142
_space_group.IT_coordinate_system_code '2'
_symmetry_cell_setting 'tetragonal'
loop_
_space_group_symop_operation_xyz
x,y,z
1/4-y,3/4+x,1/4+z
-x,1/2-y,z
1/4+y,1/4-x,3/4+z
x,-y,1/2-z
1/2-x,y,-z
3/4+y,1/4+x,1/4-z
1/4-y,1/4-x,1/4-z
-x,-y,-z
3/4+y,1/4-x,3/4-z
x,1/2+y,-z
3/4-y,3/4+x,1/4-z
-x,y,1/2+z
1/2+x,-y,z
1/4-y,3/4-x,3/4+z
3/4+y,3/4+x,3/4+z
1/2+x,1/2+y,1/2+z
3/4-y,1/4+x,3/4+z
1/2-x,-y,1/2+z
3/4+y,3/4-x,1/4+z
1/2+x,1/2-y,-z
-x,1/2+y,1/2-z
1/4+y,3/4+x,3/4-z
3/4-y,3/4-x,3/4-z
1/2-x,1/2-y,1/2-z
1/4+y,3/4-x,1/4-z
1/2+x,y,1/2-z
1/4-y,1/4+x,3/4-z
1/2-x,1/2+y,z
x,1/2-y,1/2+z
3/4-y,1/4-x,1/4+z
1/4+y,1/4+x,1/4+z
loop_
_atom_site_type_symbol
_atom_site_label
_atom_site_fract_x
_atom_site_fract_y
_atom_site_fract_z
Si Si1 0.441218 0.513242 0.042957
Si Si2 0.321457 0.904166 0.507242
Si Si3 0.981192 0.818645 0.271999
Si Si4 0.374372 0.298325 0.691571
Si Si5 0.086639 0.338486 0.820171
Si Si6 0.650600 0.304521 0.898504
O O1 0.375883 0.543579 0.019433
O O2 0.418955 0.444061 0.063641
O O3 0.467345 0.553641 0.097035
O O4 0.500000 0.500000 0.000000
O O5 0.250000 0.933576 0.500000
O O6 0.345260 0.869386 0.449359
O O7 0.314524 0.853575 0.558824
O O8 0.908286 0.820754 0.250464
O O9 0.000000 0.750000 0.298979
O O10 0.022594 0.828748 0.215255
O O11 0.992035 0.875430 0.317639
O O12 0.413867 0.320906 0.636781
O O13 0.367072 0.221325 0.693443
O O14 0.587455 0.337455 0.875000
#
# Coordination Sequence:
#
# PCOD8320966 Si02
#       6
#    32  32  32  32  32  32
#     4  11  22  38  58  82 118 162 202 249 299 357
#     4  10  20  38  61  82 110 159 209 240 291 370
#     4   9  19  31  54  88 114 145 187 246 305 357
#     4  11  19  33  57  87 119 147 187 250 315 356
#     4  10  18  32  57  88 115 142 189 246 301 365
#     4   9  20  37  56  82 113 152 199 241 296 370
#
# _framework density 18.657705
#
# number of rings (size 3 to 8) (size 9 to 14) (size 15 to 20)
#    0.000    2.000    3.333    1.000    2.333    0.333 
#    0.000    0.000    3.667    2.000    0.000    0.000 
#    0.000    0.000    0.000    0.000    0.000    0.000 
#
# Total GULP energy -1189598.561100 kJ/mol
# GULP energy per Si atom -12391.651678 kJ/mol
# Density = 1.861524 g / cm^3
# Si number density = 18.657705 Si / 1000 Ang^3
#
#
#
# Elastic Constant Matrix: (Units=GPa)
#
#
# Indices 1 2 3 4 5 6 
#
# 1 107.4021 51.3843 47.1593 0.0000 0.0000 0.0000
# 2 51.3843 107.4021 47.1593 0.0000 0.0000 0.0000
# 3 47.1593 47.1593 100.7067 0.0000 0.0000 0.0000
# 4 0.0000 0.0000 0.0000 24.2849 0.0000 0.0000
# 5 0.0000 0.0000 0.0000 0.0000 24.2849 0.0000
# 6 0.0000 0.0000 0.0000 0.0000 0.0000 23.3305
#
#
#
# Elastic Compliance Matrix: (Units=1/GPa)
#
#
# Indices 1 2 3 4 5 6 
#
# 1 0.013288 -0.004563 -0.004086 0.000000 0.000000 0.000000
# 2 -0.004563 0.013288 -0.004086 0.000000 0.000000 0.000000
# 3 -0.004086 -0.004086 0.013756 0.000000 0.000000 0.000000
# 4 0.000000 0.000000 0.000000 0.041178 0.000000 0.000000
# 5 0.000000 0.000000 0.000000 0.000000 0.041178 0.000000
# 6 0.000000 0.000000 0.000000 0.000000 0.000000 0.042862
#
#
# Mechanical properties :
#
#
# Convention : Reuss Voigt Hill
#
# Bulk Modulus (GPa) = 67.28072 67.43519 67.35796
# Shear Modulus (GPa) = 25.51357 25.70057 25.60707
#
# Velocity S-wave (km/s) = 3.70192 3.71546 3.70870
# Velocity P-wave (km/s) = 7.37639 7.39108 7.38374
#
# Compressibility (1/GPa) = 0.01486310
#
# Stress axis : x y z
#
# Youngs Moduli (GPa) = 75.25561 75.25561 72.69417
#
# Poissons Ratio (x) = 0.34343 0.29700
# Poissons Ratio (y) = 0.34343 0.29700
# Poissons Ratio (z) = 0.30746 0.30746
#
# Static dielectric constant tensor:
#      x y z
#    x 3.371620 0.000000 0.000000 
#    y 0.000000 3.371620 0.000000 
#    z 0.000000 0.000000 3.611470 
# 
# 
# High freq. dielectric constant tensor:
#      x y z
#    x 1.705700 0.000000 0.000000 
#    y 0.000000 1.705700 0.000000 
#    z 0.000000 0.000000 1.732270 
# 
# From -- ./inp_files/11613.got.cif
#   From: 2010.03.12/outbox.cif.g09.slc.cpg/sg142_6_cif.got.tgz:11613.got - 2010.04.03 13:27:16.
