data_PCOD8320954
_publ_section_title
;
Structure prediction by ZEFSAII (Michael W. Deem and Ramdas Pophale) SiO2 
 PCOD8320954
Probable space group: I 41/A C D
;
_chemical_formula_sum "Si O2"
_cell_formula_units_Z 208
_cell_length_a 21.248590
_cell_length_b 21.248590
_cell_length_c 26.899485
_cell_angle_alpha 90.000000
_cell_angle_beta 90.000000
_cell_angle_gamma 90.000000
_cell_volume 12145.186797
_symmetry_space_group_name_H-M "I 41/A C D"
_symmetry_group_IT_number 142
_space_group.IT_coordinate_system_code '2'
_symmetry_cell_setting 'tetragonal'
loop_
_space_group_symop_operation_xyz
x,y,z
1/4-y,3/4+x,1/4+z
-x,1/2-y,z
1/4+y,1/4-x,3/4+z
x,-y,1/2-z
1/2-x,y,-z
3/4+y,1/4+x,1/4-z
1/4-y,1/4-x,1/4-z
-x,-y,-z
3/4+y,1/4-x,3/4-z
x,1/2+y,-z
3/4-y,3/4+x,1/4-z
-x,y,1/2+z
1/2+x,-y,z
1/4-y,3/4-x,3/4+z
3/4+y,3/4+x,3/4+z
1/2+x,1/2+y,1/2+z
3/4-y,1/4+x,3/4+z
1/2-x,-y,1/2+z
3/4+y,3/4-x,1/4+z
1/2+x,1/2-y,-z
-x,1/2+y,1/2-z
1/4+y,3/4+x,3/4-z
3/4-y,3/4-x,3/4-z
1/2-x,1/2-y,1/2-z
1/4+y,3/4-x,1/4-z
1/2+x,y,1/2-z
1/4-y,1/4+x,3/4-z
1/2-x,1/2+y,z
x,1/2-y,1/2+z
3/4-y,1/4-x,1/4+z
1/4+y,1/4+x,1/4+z
loop_
_atom_site_type_symbol
_atom_site_label
_atom_site_fract_x
_atom_site_fract_y
_atom_site_fract_z
Si Si1 0.532795 0.380371 0.807671
Si Si2 0.268492 0.074001 0.076008
Si Si3 0.739221 0.889569 0.181833
Si Si4 0.405418 0.647690 0.566979
Si Si5 0.039564 0.390798 0.574292
Si Si6 0.750000 0.172068 0.500000
Si Si7 0.200986 0.435452 0.224547
O O1 0.465672 0.351559 0.790633
O O2 0.535305 0.385889 0.866735
O O3 0.588346 0.331281 0.795497
O O4 0.537803 0.447933 0.779912
O O5 0.281198 0.096209 0.132508
O O6 0.193428 0.064861 0.066608
O O7 0.289463 0.128961 0.038766
O O8 0.304564 0.009254 0.063508
O O9 0.708753 0.820770 0.183595
O O10 0.782115 0.889361 0.230382
O O11 0.409283 0.659283 0.625000
O O12 0.470012 0.613420 0.550025
O O13 0.344496 0.605895 0.555495
O O14 0.179001 0.500000 0.250000
#
# Coordination Sequence:
#
# PCOD8320954 Si02
#       7
#    32  32  32  32  32  16  32
#     4  10  19  31  52  77 104 136 165 223 257 313
#     4  10  17  30  50  77 100 130 171 214 267 304
#     4  10  17  30  52  74  97 133 168 221 258 304
#     4  10  23  34  48  75 106 143 168 206 266 318
#     4  10  17  35  53  73 105 130 176 214 262 302
#     4  12  16  30  52  82 102 124 182 212 268 306
#     4  10  21  33  48  73 106 141 167 206 260 320
#
# _framework density 17.126125999999999
#
# number of rings (size 3 to 8) (size 9 to 14) (size 15 to 20)
#    0.000    1.846    5.385    1.385    5.385    2.462 
#    0.000    0.000    0.000    0.000    0.000    0.000 
#    0.000    0.000    0.000    0.000    0.000    0.000 
#
# Total GULP energy -1288829.775257 kJ/mol
# GULP energy per Si atom -12392.593993 kJ/mol
# Density = 1.708715 g / cm^3
# Si number density = 17.126126 Si / 1000 Ang^3
#
#
#
# Elastic Constant Matrix: (Units=GPa)
#
#
# Indices 1 2 3 4 5 6 
#
# 1 76.5933 42.4363 29.2554 0.0000 0.0000 0.0000
# 2 42.4363 76.5933 29.2554 0.0000 0.0000 0.0000
# 3 29.2554 29.2554 56.0499 0.0000 0.0000 0.0000
# 4 0.0000 0.0000 0.0000 16.3153 0.0000 0.0000
# 5 0.0000 0.0000 0.0000 0.0000 16.3153 0.0000
# 6 0.0000 0.0000 0.0000 0.0000 0.0000 26.1524
#
#
#
# Elastic Compliance Matrix: (Units=1/GPa)
#
#
# Indices 1 2 3 4 5 6 
#
# 1 0.020289 -0.008988 -0.005898 0.000000 0.000000 0.000000
# 2 -0.008988 0.020289 -0.005898 0.000000 0.000000 0.000000
# 3 -0.005898 -0.005898 0.023999 0.000000 0.000000 0.000000
# 4 0.000000 0.000000 0.000000 0.061292 0.000000 0.000000
# 5 0.000000 0.000000 0.000000 0.000000 0.061292 0.000000
# 6 0.000000 0.000000 0.000000 0.000000 0.000000 0.038237
#
#
# Mechanical properties :
#
#
# Convention : Reuss Voigt Hill
#
# Bulk Modulus (GPa) = 43.46627 45.68120 44.57374
# Shear Modulus (GPa) = 18.20588 18.97587 18.59087
#
# Velocity S-wave (km/s) = 3.26398 3.33229 3.29831
# Velocity P-wave (km/s) = 6.29602 6.44491 6.37090
#
# Compressibility (1/GPa) = 0.02300634
#
# Stress axis : x y z
#
# Youngs Moduli (GPa) = 49.28856 49.28856 41.66891
#
# Poissons Ratio (x) = 0.44300 0.24578
# Poissons Ratio (y) = 0.44300 0.24578
# Poissons Ratio (z) = 0.29073 0.29073
#
# Static dielectric constant tensor:
#      x y z
#    x 3.153480 0.000000 0.000000 
#    y 0.000000 3.153480 0.000000 
#    z 0.000000 0.000000 3.163630 
# 
# 
# High freq. dielectric constant tensor:
#      x y z
#    x 1.645850 0.000000 0.000000 
#    y 0.000000 1.645850 0.000000 
#    z 0.000000 0.000000 1.646550 
# 
# From -- ./inp_files/12693.got.cif
#   From: 2010.03.12/outbox.cif.g09.slc.cpg/sg142_7_cif.got.tgz:12693.got - 2010.04.03 13:27:16.
