data_PCOD8320099
_publ_section_title
;
Structure prediction by ZEFSAII (Michael W. Deem and Ramdas Pophale) SiO2 
 PCOD8320099
Probable space group: I 4/M C M
;
_chemical_formula_sum "Si O2"
_cell_formula_units_Z 176
_cell_length_a 17.518134
_cell_length_b 17.518134
_cell_length_c 29.708398
_cell_angle_alpha 90.000000
_cell_angle_beta 90.000000
_cell_angle_gamma 90.000000
_cell_volume 9117.062280
_symmetry_space_group_name_H-M "I 4/M C M"
_symmetry_group_IT_number 140
_symmetry_cell_setting 'tetragonal'
loop_
_space_group_symop_operation_xyz
x,y,z
-y,x,z
-x,-y,z
y,-x,z
x,-y,1/2-z
-x,y,1/2-z
y,x,1/2-z
-y,-x,1/2-z
-x,-y,-z
y,-x,-z
x,y,-z
-y,x,-z
-x,y,1/2+z
x,-y,1/2+z
-y,-x,1/2+z
y,x,1/2+z
1/2+x,1/2+y,1/2+z
1/2-y,1/2+x,1/2+z
1/2-x,1/2-y,1/2+z
1/2+y,1/2-x,1/2+z
1/2+x,1/2-y,-z
1/2-x,1/2+y,-z
1/2+y,1/2+x,-z
1/2-y,1/2-x,-z
1/2-x,1/2-y,1/2-z
1/2+y,1/2-x,1/2-z
1/2+x,1/2+y,1/2-z
1/2-y,1/2+x,1/2-z
1/2-x,1/2+y,z
1/2+x,1/2-y,z
1/2-y,1/2-x,z
1/2+y,1/2+x,z
loop_
_atom_site_type_symbol
_atom_site_label
_atom_site_fract_x
_atom_site_fract_y
_atom_site_fract_z
Si Si1 0.380568 0.997799 0.169592
Si Si2 0.681624 0.691910 0.888108
Si Si3 0.221256 0.403390 0.050475
Si Si4 0.216324 0.500000 0.250000
Si Si5 0.728739 0.350062 0.208636
Si Si6 0.689553 0.065045 0.583870
O O1 0.429591 0.929591 0.146723
O O2 0.436487 0.063514 0.188139
O O3 0.335663 0.961251 0.211556
O O4 0.322368 0.033776 0.134204
O O5 0.753767 0.746234 0.887040
O O6 0.709526 0.615767 0.914504
O O7 0.656000 0.675896 0.836330
O O8 0.613711 0.732495 0.915944
O O9 0.146012 0.353989 0.061827
O O10 0.199274 0.492758 0.051526
O O11 0.249932 0.384797 0.000000
O O12 0.266050 0.562528 0.223888
O O13 0.693021 0.306980 0.250000
O O14 0.812251 0.312251 0.197962
O O15 0.617240 0.117240 0.568540
#
# Coordination Sequence:
#
# PCOD8320099 Si02
#       6
#    32  32  32  16  32  32
#     4  10  19  29  45  75 114 152 185 222 273 333
#     4   9  19  37  56  77 112 154 196 235 277 342
#     4  10  22  38  58  85 113 146 191 242 298 356
#     4  12  20  31  50  75 110 152 196 236 274 332
#     4  10  21  34  51  79 111 149 196 239 281 330
#     4  10  20  36  57  83 115 150 187 232 292 356
#
# _framework density 19.304462999999998
#
# number of rings (size 3 to 8) (size 9 to 14) (size 15 to 20)
#    0.000    2.000    1.818    2.182    2.545    2.909 
#    0.000    2.727    0.000    0.818    0.000    3.818 
#    0.000    0.000    0.000    0.000    0.000    0.000 
#
# Total GULP energy -1090651.148019 kJ/mol
# GULP energy per Si atom -12393.763046 kJ/mol
# Density = 1.926053 g / cm^3
# Si number density = 19.304463 Si / 1000 Ang^3
#
#
#
# Elastic Constant Matrix: (Units=GPa)
#
#
# Indices 1 2 3 4 5 6 
#
# 1 78.5406 42.1181 39.4666 0.0000 0.0000 0.0000
# 2 42.1181 78.5422 39.4674 0.0000 0.0000 0.0000
# 3 39.4666 39.4674 100.0276 0.0000 0.0000 0.0000
# 4 0.0000 0.0000 0.0000 26.9186 0.0000 0.0000
# 5 0.0000 0.0000 0.0000 0.0000 26.9186 0.0000
# 6 0.0000 0.0000 0.0000 0.0000 0.0000 28.0438
#
#
#
# Elastic Compliance Matrix: (Units=1/GPa)
#
#
# Indices 1 2 3 4 5 6 
#
# 1 0.019313 -0.008142 -0.004408 0.000000 0.000000 0.000000
# 2 -0.008142 0.019313 -0.004408 0.000000 0.000000 0.000000
# 3 -0.004408 -0.004408 0.013475 0.000000 0.000000 0.000000
# 4 0.000000 0.000000 0.000000 0.037149 0.000000 0.000000
# 5 0.000000 0.000000 0.000000 0.000000 0.037149 0.000000
# 6 0.000000 0.000000 0.000000 0.000000 0.000000 0.035659
#
#
# Mechanical properties :
#
#
# Convention : Reuss Voigt Hill
#
# Bulk Modulus (GPa) = 54.98417 55.46828 55.22623
# Shear Modulus (GPa) = 24.74815 25.44676 25.09746
#
# Velocity S-wave (km/s) = 3.58437 3.63461 3.60958
# Velocity P-wave (km/s) = 6.75831 6.81246 6.78544
#
# Compressibility (1/GPa) = 0.01818705
#
# Stress axis : x y z
#
# Youngs Moduli (GPa) = 51.77787 51.77866 74.20881
#
# Poissons Ratio (x) = 0.42157 0.32709
# Poissons Ratio (y) = 0.42157 0.32710
# Poissons Ratio (z) = 0.22822 0.22823
#
# Static dielectric constant tensor:
#      x y z
#    x 3.448790 0.000000 0.000000 
#    y 0.000000 3.448810 0.000000 
#    z 0.000000 0.000000 3.628920 
# 
# 
# High freq. dielectric constant tensor:
#      x y z
#    x 1.725300 0.000000 0.000000 
#    y 0.000000 1.725300 0.000000 
#    z 0.000000 0.000000 1.756090 
# 
# From -- ./inp_files/11535.got.cif
#   From: 2010.06.25/outbox.cif.g09.slc.cpg/sg140_6_cif.got.tgz:11535.got - 2010.06.28 10:53:23.
