data_PCOD8320718
_publ_section_title
;
Structure prediction by ZEFSAII (Michael W. Deem and Ramdas Pophale) SiO2 
 PCOD8320718
Probable space group: I 41/A M D
;
_chemical_formula_sum "Si O2"
_cell_formula_units_Z 176
_cell_length_a 18.822095
_cell_length_b 18.822095
_cell_length_c 25.918257
_cell_angle_alpha 90.000000
_cell_angle_beta 90.000000
_cell_angle_gamma 90.000000
_cell_volume 9182.093569
_symmetry_space_group_name_H-M "I 41/A M D"
_symmetry_group_IT_number 141
_space_group.IT_coordinate_system_code '2'
_symmetry_cell_setting 'tetragonal'
loop_
_space_group_symop_operation_xyz
x,y,z
1/4-y,3/4+x,1/4+z
-x,1/2-y,z
1/4+y,1/4-x,3/4+z
x,-y,-z
-x,1/2+y,-z
1/4+y,3/4+x,1/4-z
1/4-y,1/4-x,3/4-z
-x,-y,-z
3/4+y,1/4-x,3/4-z
x,1/2+y,-z
3/4-y,3/4+x,1/4-z
-x,y,z
x,1/2-y,z
3/4-y,1/4-x,3/4+z
3/4+y,3/4+x,1/4+z
1/2+x,1/2+y,1/2+z
3/4-y,1/4+x,3/4+z
1/2-x,-y,1/2+z
3/4+y,3/4-x,1/4+z
1/2+x,1/2-y,1/2-z
1/2-x,y,1/2-z
3/4+y,1/4+x,3/4-z
3/4-y,3/4-x,1/4-z
1/2-x,1/2-y,1/2-z
1/4+y,3/4-x,1/4-z
1/2+x,y,1/2-z
1/4-y,1/4+x,3/4-z
1/2-x,1/2+y,1/2+z
1/2+x,-y,1/2+z
1/4-y,3/4-x,1/4+z
1/4+y,1/4+x,3/4+z
loop_
_atom_site_type_symbol
_atom_site_label
_atom_site_fract_x
_atom_site_fract_y
_atom_site_fract_z
Si Si1 0.583903 0.412045 0.919850
Si Si2 0.081442 0.933147 0.757301
Si Si3 0.418546 0.944207 0.862324
Si Si4 0.661372 0.166773 0.526889
Si Si5 0.417354 0.667354 0.375000
Si Si6 0.579391 0.334485 0.429576
O O1 0.500000 0.410112 0.931705
O O2 0.624555 0.388244 0.972419
O O3 0.606452 0.489426 0.897852
O O4 0.608130 0.355811 0.876684
O O5 0.092826 0.957257 0.698241
O O6 0.000000 0.906258 0.765556
O O7 0.097689 0.005847 0.787346
O O8 0.375989 0.874012 0.875000
O O9 0.500000 0.928183 0.874937
O O10 0.645585 0.250000 0.523788
O O11 0.619860 0.133458 0.575063
O O12 0.630354 0.133023 0.473941
O O13 0.401127 0.750000 0.369426
O O14 0.500000 0.363656 0.437942
O O15 0.581733 0.250000 0.431620
#
# Coordination Sequence:
#
# PCOD8320718 Si02
#       6
#    32  32  32  32  16  32
#     4  10  20  36  58  85 115 146 187 236 281 337
#     4  10  20  36  58  83 115 152 188 233 289 338
#     4  10  22  41  62  84 113 148 187 233 289 351
#     4   9  16  29  48  73 109 149 183 225 280 330
#     4   9  16  26  46  78 110 144 190 232 267 318
#     4   9  15  26  50  82 111 142 183 229 275 324
#
# _framework density 19.167740999999999
#
# number of rings (size 3 to 8) (size 9 to 14) (size 15 to 20)
#    0.000    2.455    1.818    1.091    0.000    4.909 
#    1.636    3.636    0.000    1.091    0.000    5.091 
#    0.000    0.000    0.000    0.000    0.000    0.000 
#
# Total GULP energy -1090636.767506 kJ/mol
# GULP energy per Si atom -12393.599631 kJ/mol
# Density = 1.912411 g / cm^3
# Si number density = 19.167741 Si / 1000 Ang^3
#
#
#
# Elastic Constant Matrix: (Units=GPa)
#
#
# Indices 1 2 3 4 5 6 
#
# 1 67.6930 41.9722 28.5873 0.0000 0.0000 0.0000
# 2 41.9722 67.6970 28.5825 0.0000 0.0000 0.0000
# 3 28.5873 28.5825 47.1408 0.0000 0.0000 0.0000
# 4 0.0000 0.0000 0.0000 23.1305 0.0000 0.0000
# 5 0.0000 0.0000 0.0000 0.0000 23.1307 0.0000
# 6 0.0000 0.0000 0.0000 0.0000 0.0000 21.0264
#
#
#
# Elastic Compliance Matrix: (Units=1/GPa)
#
#
# Indices 1 2 3 4 5 6 
#
# 1 0.026107 -0.012771 -0.008088 0.000000 0.000000 0.000000
# 2 -0.012771 0.026102 -0.008081 0.000000 0.000000 0.000000
# 3 -0.008088 -0.008081 0.031018 0.000000 0.000000 0.000000
# 4 0.000000 0.000000 0.000000 0.043233 0.000000 0.000000
# 5 0.000000 0.000000 0.000000 0.000000 0.043233 0.000000
# 6 0.000000 0.000000 0.000000 0.000000 0.000000 0.047559
#
#
# Mechanical properties :
#
#
# Convention : Reuss Voigt Hill
#
# Bulk Modulus (GPa) = 39.45584 42.31275 40.88429
# Shear Modulus (GPa) = 17.63155 19.01676 18.32415
#
# Velocity S-wave (km/s) = 3.03620 3.15322 3.09526
# Velocity P-wave (km/s) = 5.73764 5.94810 5.84382
#
# Compressibility (1/GPa) = 0.02534479
#
# Stress axis : x y z
#
# Youngs Moduli (GPa) = 38.30373 38.31116 32.23936
#
# Poissons Ratio (x) = 0.48929 0.26076
# Poissons Ratio (y) = 0.48919 0.26054
# Poissons Ratio (z) = 0.30982 0.30961
#
# Static dielectric constant tensor:
#      x y z
#    x 3.314370 0.000000 0.000000 
#    y 0.000000 3.314360 0.000000 
#    z 0.000000 0.000000 3.720550 
# 
# 
# High freq. dielectric constant tensor:
#      x y z
#    x 1.720900 0.000000 0.000000 
#    y 0.000000 1.720900 0.000000 
#    z 0.000000 0.000000 1.754340 
# 
# From -- ./inp_files/12905.got.cif
#   From: 2010.03.12/outbox.cif.g09.slc.cpg/sg141_7_cif.got.tgz:12905.got - 2010.04.03 13:18:35.
