data_PCOD8320322
_publ_section_title
;
Structure prediction by ZEFSAII (Michael W. Deem and Ramdas Pophale) SiO2 
 PCOD8320322
Probable space group: I 4/M C M
;
_chemical_formula_sum "Si O2"
_cell_formula_units_Z 128
_cell_length_a 16.121835
_cell_length_b 16.121835
_cell_length_c 23.138979
_cell_angle_alpha 90.000000
_cell_angle_beta 90.000000
_cell_angle_gamma 90.000000
_cell_volume 6014.134494
_symmetry_space_group_name_H-M "I 4/M C M"
_symmetry_group_IT_number 140
_symmetry_cell_setting 'tetragonal'
loop_
_space_group_symop_operation_xyz
x,y,z
-y,x,z
-x,-y,z
y,-x,z
x,-y,1/2-z
-x,y,1/2-z
y,x,1/2-z
-y,-x,1/2-z
-x,-y,-z
y,-x,-z
x,y,-z
-y,x,-z
-x,y,1/2+z
x,-y,1/2+z
-y,-x,1/2+z
y,x,1/2+z
1/2+x,1/2+y,1/2+z
1/2-y,1/2+x,1/2+z
1/2-x,1/2-y,1/2+z
1/2+y,1/2-x,1/2+z
1/2+x,1/2-y,-z
1/2-x,1/2+y,-z
1/2+y,1/2+x,-z
1/2-y,1/2-x,-z
1/2-x,1/2-y,1/2-z
1/2+y,1/2-x,1/2-z
1/2+x,1/2+y,1/2-z
1/2-y,1/2+x,1/2-z
1/2-x,1/2+y,z
1/2+x,1/2-y,z
1/2-y,1/2-x,z
1/2+y,1/2+x,z
loop_
_atom_site_type_symbol
_atom_site_label
_atom_site_fract_x
_atom_site_fract_y
_atom_site_fract_z
Si Si1 0.553893 0.815055 0.166083
Si Si2 0.083740 0.890938 0.358181
Si Si3 0.143077 0.223833 0.565527
Si Si4 0.888736 0.740653 0.786363
O O1 0.590898 0.909103 0.167351
O O2 0.576985 0.771348 0.105867
O O3 0.593185 0.762246 0.218368
O O4 0.455186 0.812865 0.175757
O O5 0.127179 0.850177 0.414841
O O6 0.114167 0.837443 0.303440
O O7 0.985069 0.884870 0.357160
O O8 0.110219 0.227787 0.500000
O O9 0.233219 0.266782 0.571004
O O10 0.799045 0.700956 0.799380
#
# Coordination Sequence:
#
# PCOD8320322 Si02
#       4
#    32  32  32  32
#     4   9  19  38  63  92 123 157 201 253 309 364
#     4  11  23  40  60  87 125 162 201 249 302 366
#     4  10  21  40  64  86 115 158 205 250 297 355
#     4  10  20  38  64  92 124 159 201 253 311 368
#
# _framework density 21.283194000000002
#
# number of rings (size 3 to 8) (size 9 to 14) (size 15 to 20)
#    0.000    2.000    2.500    0.750    0.000    2.500 
#    0.000    7.500    0.000    0.750    0.000    3.500 
#    0.000    0.000    0.000    0.000    0.000    0.000 
#
# Total GULP energy -793087.809344 kJ/mol
# GULP energy per Si atom -12391.997021 kJ/mol
# Density = 2.123475 g / cm^3
# Si number density = 21.283194 Si / 1000 Ang^3
#
#
#
# Elastic Constant Matrix: (Units=GPa)
#
#
# Indices 1 2 3 4 5 6 
#
# 1 109.2471 45.5930 38.7773 0.0000 0.0000 0.0000
# 2 45.5930 109.2471 38.7773 0.0000 0.0000 0.0000
# 3 38.7773 38.7773 138.4330 0.0000 0.0000 0.0000
# 4 0.0000 0.0000 0.0000 27.0667 0.0000 0.0000
# 5 0.0000 0.0000 0.0000 0.0000 27.0667 0.0000
# 6 0.0000 0.0000 0.0000 0.0000 0.0000 31.5593
#
#
#
# Elastic Compliance Matrix: (Units=1/GPa)
#
#
# Indices 1 2 3 4 5 6 
#
# 1 0.011611 -0.004099 -0.002104 0.000000 0.000000 0.000000
# 2 -0.004099 0.011611 -0.002104 0.000000 0.000000 0.000000
# 3 -0.002104 -0.002104 0.008403 0.000000 0.000000 0.000000
# 4 0.000000 0.000000 0.000000 0.036946 0.000000 0.000000
# 5 0.000000 0.000000 0.000000 0.000000 0.036946 0.000000
# 6 0.000000 0.000000 0.000000 0.000000 0.000000 0.031686
#
#
# Mechanical properties :
#
#
# Convention : Reuss Voigt Hill
#
# Bulk Modulus (GPa) = 66.62266 67.02471 66.82368
# Shear Modulus (GPa) = 31.48201 32.72385 32.10293
#
# Velocity S-wave (km/s) = 3.85020 3.92541 3.88799
# Velocity P-wave (km/s) = 7.15097 7.21840 7.18476
#
# Compressibility (1/GPa) = 0.01500991
#
# Stress axis : x y z
#
# Youngs Moduli (GPa) = 86.12470 86.12470 119.01059
#
# Poissons Ratio (x) = 0.35301 0.25043
# Poissons Ratio (y) = 0.35301 0.25043
# Poissons Ratio (z) = 0.18123 0.18123
#
# Static dielectric constant tensor:
#      x y z
#    x 4.008060 0.000000 0.000000 
#    y 0.000000 4.008060 0.000000 
#    z 0.000000 0.000000 3.799460 
# 
# 
# High freq. dielectric constant tensor:
#      x y z
#    x 1.835410 0.000000 0.000000 
#    y 0.000000 1.835410 0.000000 
#    z 0.000000 0.000000 1.819150 
# 
# From -- ./inp_files/9289.got.cif
#   From: 2010.06.25/outbox.cif.g09.slc.cpg/sg140_5_cif.got.tgz:9289.got - 2010.06.28 10:53:23.
