data_PCOD8320383
_publ_section_title
;
Structure prediction by ZEFSAII (Michael W. Deem and Ramdas Pophale) SiO2 
 PCOD8320383
Probable space group: I 4/M C M
;
_chemical_formula_sum "Si O2"
_cell_formula_units_Z 128
_cell_length_a 19.053984
_cell_length_b 19.053984
_cell_length_c 15.597396
_cell_angle_alpha 90.000000
_cell_angle_beta 90.000000
_cell_angle_gamma 90.000000
_cell_volume 5662.701784
_symmetry_space_group_name_H-M "I 4/M C M"
_symmetry_group_IT_number 140
_symmetry_cell_setting 'tetragonal'
loop_
_space_group_symop_operation_xyz
x,y,z
-y,x,z
-x,-y,z
y,-x,z
x,-y,1/2-z
-x,y,1/2-z
y,x,1/2-z
-y,-x,1/2-z
-x,-y,-z
y,-x,-z
x,y,-z
-y,x,-z
-x,y,1/2+z
x,-y,1/2+z
-y,-x,1/2+z
y,x,1/2+z
1/2+x,1/2+y,1/2+z
1/2-y,1/2+x,1/2+z
1/2-x,1/2-y,1/2+z
1/2+y,1/2-x,1/2+z
1/2+x,1/2-y,-z
1/2-x,1/2+y,-z
1/2+y,1/2+x,-z
1/2-y,1/2-x,-z
1/2-x,1/2-y,1/2-z
1/2+y,1/2-x,1/2-z
1/2+x,1/2+y,1/2-z
1/2-y,1/2+x,1/2-z
1/2-x,1/2+y,z
1/2+x,1/2-y,z
1/2-y,1/2-x,z
1/2+y,1/2+x,z
loop_
_atom_site_type_symbol
_atom_site_label
_atom_site_fract_x
_atom_site_fract_y
_atom_site_fract_z
Si Si1 0.047429 0.660309 0.000000
Si Si2 0.266971 0.978071 0.846949
Si Si3 0.164618 0.776355 0.000000
Si Si4 0.713713 0.328587 0.663699
Si Si5 0.610570 0.494820 0.851384
O O1 0.108151 0.716458 0.000000
O O2 0.002200 0.672231 0.086861
O O3 0.082047 0.582047 0.000000
O O4 0.265166 0.894063 0.846827
O O5 0.191747 0.007517 0.881573
O O6 0.286132 0.000000 0.750000
O O7 0.158894 0.824227 0.084975
O O8 0.242467 0.742467 0.000000
O O9 0.666004 0.333996 0.750000
O O10 0.757726 0.257726 0.669354
O O11 0.572368 0.566506 0.884916
O O12 0.610701 0.500000 0.750000
#
# Coordination Sequence:
#
# PCOD8320383 Si02
#       5
#    16  32  16  32  32
#     4  11  25  44  61  94 136 172 220 278 340 402
#     4  11  23  36  63  92 122 177 225 272 342 416
#     4   9  19  36  58  80 117 161 198 263 339 388
#     4  10  21  37  61  93 125 160 213 279 333 396
#     4   8  16  30  49  79 123 169 214 266 323 401
#
# _framework density 22.604051999999999
#
# number of rings (size 3 to 8) (size 9 to 14) (size 15 to 20)
#    0.000    2.250    0.000    3.000   10.500    3.000 
#    0.000    0.000    0.000    3.000    0.000    1.750 
#    0.000    0.000    0.000    0.000    0.000    0.000 
#
# Total GULP energy -793177.495486 kJ/mol
# GULP energy per Si atom -12393.398367 kJ/mol
# Density = 2.255260 g / cm^3
# Si number density = 22.604052 Si / 1000 Ang^3
#
#
#
# Elastic Constant Matrix: (Units=GPa)
#
#
# Indices 1 2 3 4 5 6 
#
# 1 66.6650 1.6658 31.5808 0.0000 0.0000 0.0000
# 2 1.6658 66.6651 31.5807 0.0000 0.0000 0.0000
# 3 31.5808 31.5807 156.3611 0.0000 0.0000 0.0000
# 4 0.0000 0.0000 0.0000 0.1170 0.0000 0.0000
# 5 0.0000 0.0000 0.0000 0.0000 0.1109 0.0000
# 6 0.0000 0.0000 0.0000 0.0000 0.0000 36.8758
#
#
#
# Elastic Compliance Matrix: (Units=1/GPa)
#
#
# Indices 1 2 3 4 5 6 
#
# 1 0.016689 0.001305 -0.003634 0.000000 0.000000 0.000000
# 2 0.001305 0.016689 -0.003634 0.000000 0.000000 0.000000
# 3 -0.003634 -0.003634 0.007864 0.000000 0.000000 0.000000
# 4 0.000000 0.000000 0.000000 8.545268 0.000000 0.000000
# 5 0.000000 0.000000 0.000000 0.000000 9.020602 0.000000
# 6 0.000000 0.000000 0.000000 0.000000 0.000000 0.027118
#
#
# Mechanical properties :
#
#
# Convention : Reuss Voigt Hill
#
# Bulk Modulus (GPa) = 34.11299 46.59400 40.35350
# Shear Modulus (GPa) = 0.28319 22.41165 11.34742
#
# Velocity S-wave (km/s) = 0.35434 3.15221 2.24298
# Velocity P-wave (km/s) = 3.91046 5.82292 4.95974
#
# Compressibility (1/GPa) = 0.02931434
#
# Stress axis : x y z
#
# Youngs Moduli (GPa) = 59.91811 59.91824 127.16946
#
# Poissons Ratio (x) = -0.07817 0.46218
# Poissons Ratio (y) = -0.07817 0.46217
# Poissons Ratio (z) = 0.21776 0.21776
#
# Static dielectric constant tensor:
#      x y z
#    x 4.108060 0.000000 0.000000 
#    y 0.000000 4.108070 0.000000 
#    z 0.000000 0.000000 4.119990 
# 
# 
# High freq. dielectric constant tensor:
#      x y z
#    x 1.873390 0.000000 0.000000 
#    y 0.000000 1.873390 0.000000 
#    z 0.000000 0.000000 1.888660 
# 
# From -- ./inp_files/4425.got.cif
#   From: 2010.06.25/outbox.cif.g09.slc.cpg/sg140_3_cif.got.tgz:4425.got - 2010.06.28 10:53:23.
