data_PCOD8320137
_publ_section_title
;
Structure prediction by ZEFSAII (Michael W. Deem and Ramdas Pophale) SiO2 
 PCOD8320137
Probable space group: I 4/M C M
;
_chemical_formula_sum "Si O2"
_cell_formula_units_Z 160
_cell_length_a 32.060524
_cell_length_b 32.060524
_cell_length_c 8.785616
_cell_angle_alpha 90.000000
_cell_angle_beta 90.000000
_cell_angle_gamma 90.000000
_cell_volume 9030.534367
_symmetry_space_group_name_H-M "I 4/M C M"
_symmetry_group_IT_number 140
_symmetry_cell_setting 'tetragonal'
loop_
_space_group_symop_operation_xyz
x,y,z
-y,x,z
-x,-y,z
y,-x,z
x,-y,1/2-z
-x,y,1/2-z
y,x,1/2-z
-y,-x,1/2-z
-x,-y,-z
y,-x,-z
x,y,-z
-y,x,-z
-x,y,1/2+z
x,-y,1/2+z
-y,-x,1/2+z
y,x,1/2+z
1/2+x,1/2+y,1/2+z
1/2-y,1/2+x,1/2+z
1/2-x,1/2-y,1/2+z
1/2+y,1/2-x,1/2+z
1/2+x,1/2-y,-z
1/2-x,1/2+y,-z
1/2+y,1/2+x,-z
1/2-y,1/2-x,-z
1/2-x,1/2-y,1/2-z
1/2+y,1/2-x,1/2-z
1/2+x,1/2+y,1/2-z
1/2-y,1/2+x,1/2-z
1/2-x,1/2+y,z
1/2+x,1/2-y,z
1/2-y,1/2-x,z
1/2+y,1/2+x,z
loop_
_atom_site_type_symbol
_atom_site_label
_atom_site_fract_x
_atom_site_fract_y
_atom_site_fract_z
Si Si1 0.826932 0.455594 0.174448
Si Si2 0.174885 0.325115 0.825603
Si Si3 0.894587 0.044281 0.677331
Si Si4 0.115705 0.615705 0.170462
Si Si5 0.263649 0.108976 0.318077
Si Si6 0.612825 0.674058 0.177788
O O1 0.831513 0.500000 0.250000
O O2 0.872443 0.433025 0.189038
O O3 0.791016 0.428960 0.255427
O O4 0.813646 0.461265 0.000000
O O5 0.139838 0.360163 0.802800
O O6 0.154179 0.282462 0.758620
O O7 0.183334 0.316667 0.000000
O O8 0.936130 0.063871 0.750000
O O9 0.902755 0.038913 0.500000
O O10 0.855029 0.073296 0.712124
O O11 0.884622 0.000000 0.750000
O O12 0.130352 0.630352 0.000000
O O13 0.264055 0.107032 0.500000
O O14 0.217547 0.103567 0.256858
O O15 0.654238 0.654238 0.250000
O O16 0.620429 0.680454 0.000000
#
# Coordination Sequence:
#
# PCOD8320137 Si02
#       6
#    32  16  32  16  32  32
#     4  10  19  32  50  75 103 132 168 210 255 303
#     4   8  16  30  49  73  99 129 167 207 251 299
#     4  10  21  37  57  79 104 132 166 205 247 294
#     4   8  16  30  48  68  96 132 167 205 251 301
#     4  10  19  33  53  76 103 134 168 210 255 302
#     4  10  21  37  55  76 103 137 173 209 251 302
#
# _framework density 17.717668
#
# number of rings (size 3 to 8) (size 9 to 14) (size 15 to 20)
#    0.000    2.400    0.000    2.400    0.000    5.000 
#    0.000    3.500    0.000    0.300    0.000    2.100 
#    0.000    0.000    0.000    0.000    0.000    0.000 
#
# Total GULP energy -991362.387506 kJ/mol
# GULP energy per Si atom -12392.029844 kJ/mol
# Density = 1.767734 g / cm^3
# Si number density = 17.717668 Si / 1000 Ang^3
#
#
#
# Elastic Constant Matrix: (Units=GPa)
#
#
# Indices 1 2 3 4 5 6 
#
# 1 92.7493 79.7056 53.1110 0.0000 0.0000 0.0000
# 2 79.7056 92.7578 53.1163 0.0000 0.0000 0.0000
# 3 53.1110 53.1163 93.1681 0.0000 0.0000 0.0000
# 4 0.0000 0.0000 0.0000 26.4813 0.0000 0.0000
# 5 0.0000 0.0000 0.0000 0.0000 26.4810 0.0000
# 6 0.0000 0.0000 0.0000 0.0000 0.0000 6.5033
#
#
#
# Elastic Compliance Matrix: (Units=1/GPa)
#
#
# Indices 1 2 3 4 5 6 
#
# 1 0.042789 -0.033852 -0.005093 0.000000 0.000000 0.000000
# 2 -0.033852 0.042788 -0.005096 0.000000 0.000000 0.000000
# 3 -0.005093 -0.005096 0.016542 0.000000 0.000000 0.000000
# 4 0.000000 0.000000 0.000000 0.037763 0.000000 0.000000
# 5 0.000000 0.000000 0.000000 0.000000 0.037763 0.000000
# 6 0.000000 0.000000 0.000000 0.000000 0.000000 0.153767
#
#
# Mechanical properties :
#
#
# Convention : Reuss Voigt Hill
#
# Bulk Modulus (GPa) = 71.24174 72.28232 71.76203
# Shear Modulus (GPa) = 11.78764 18.07594 14.93179
#
# Velocity S-wave (km/s) = 2.58215 3.19755 2.90619
# Velocity P-wave (km/s) = 7.01332 7.38362 7.20085
#
# Compressibility (1/GPa) = 0.01403671
#
# Stress axis : x y z
#
# Youngs Moduli (GPa) = 23.37028 23.37120 60.45245
#
# Poissons Ratio (x) = 0.79116 0.30788
# Poissons Ratio (y) = 0.79113 0.30808
# Poissons Ratio (z) = 0.11902 0.11911
#
# Static dielectric constant tensor:
#      x y z
#    x 3.323040 0.000000 0.000000 
#    y 0.000000 3.323030 0.000000 
#    z 0.000000 0.000000 3.474040 
# 
# 
# High freq. dielectric constant tensor:
#      x y z
#    x 1.677690 0.000000 0.000000 
#    y 0.000000 1.677680 0.000000 
#    z 0.000000 0.000000 1.699940 
# 
# From -- ./inp_files/1831.got.cif
#   From: 2010.06.25/outbox.cif.g09.slc.cpg/sg140_1_cif.got.tgz:1831.got - 2010.06.28 10:53:23.
