data_PCOD8320059
_publ_section_title
;
Structure prediction by ZEFSAII (Michael W. Deem and Ramdas Pophale) SiO2 
 PCOD8320059
Probable space group: I 4/M C M
;
_chemical_formula_sum "Si O2"
_cell_formula_units_Z 112
_cell_length_a 17.219904
_cell_length_b 17.219904
_cell_length_c 18.144202
_cell_angle_alpha 90.000000
_cell_angle_beta 90.000000
_cell_angle_gamma 90.000000
_cell_volume 5380.211199
_symmetry_space_group_name_H-M "I 4/M C M"
_symmetry_group_IT_number 140
_symmetry_cell_setting 'tetragonal'
loop_
_space_group_symop_operation_xyz
x,y,z
-y,x,z
-x,-y,z
y,-x,z
x,-y,1/2-z
-x,y,1/2-z
y,x,1/2-z
-y,-x,1/2-z
-x,-y,-z
y,-x,-z
x,y,-z
-y,x,-z
-x,y,1/2+z
x,-y,1/2+z
-y,-x,1/2+z
y,x,1/2+z
1/2+x,1/2+y,1/2+z
1/2-y,1/2+x,1/2+z
1/2-x,1/2-y,1/2+z
1/2+y,1/2-x,1/2+z
1/2+x,1/2-y,-z
1/2-x,1/2+y,-z
1/2+y,1/2+x,-z
1/2-y,1/2-x,-z
1/2-x,1/2-y,1/2-z
1/2+y,1/2-x,1/2-z
1/2+x,1/2+y,1/2-z
1/2-y,1/2+x,1/2-z
1/2-x,1/2+y,z
1/2+x,1/2-y,z
1/2-y,1/2-x,z
1/2+y,1/2+x,z
loop_
_atom_site_type_symbol
_atom_site_label
_atom_site_fract_x
_atom_site_fract_y
_atom_site_fract_z
Si Si1 0.591239 0.412759 0.335238
Si Si2 0.850238 0.226321 0.085417
Si Si3 0.962143 0.335007 0.175721
Si Si4 0.565218 0.934783 0.581247
O O1 0.607948 0.502097 0.354173
O O2 0.606385 0.393616 0.250000
O O3 0.649848 0.362110 0.385626
O O4 0.765681 0.265681 0.096950
O O5 0.913714 0.270018 0.134263
O O6 0.874466 0.230457 0.000000
O O7 0.909042 0.409042 0.196811
O O8 0.000000 0.299953 0.250000
O O9 0.032188 0.359938 0.122760
O O10 0.591675 0.908326 0.500000
O O11 0.500000 0.000000 0.575173
#
# Coordination Sequence:
#
# PCOD8320059 Si02
#       4
#    32  32  32  16
#     4   9  20  40  67  96 121 152 205 262 306 356
#     4  10  22  38  58  88 127 164 199 245 311 378
#     4  10  18  29  48  76 111 156 208 253 299 364
#     4   9  16  26  44  68 104 151 202 258 305 349
#
# _framework density 20.817025999999998
#
# number of rings (size 3 to 8) (size 9 to 14) (size 15 to 20)
#    0.000    2.429    1.429    1.714    4.000    5.143 
#    0.000    1.429    3.143    0.000    0.000    0.000 
#    0.000    0.000    0.000    0.000    0.000    0.000 
#
# Total GULP energy -694396.902486 kJ/mol
# GULP energy per Si atom -12399.944687 kJ/mol
# Density = 2.076965 g / cm^3
# Si number density = 20.817026 Si / 1000 Ang^3
#
#
#
# Elastic Constant Matrix: (Units=GPa)
#
#
# Indices 1 2 3 4 5 6 
#
# 1 80.1969 36.8340 49.1083 0.0000 0.0000 0.0000
# 2 36.8340 80.1967 49.1082 0.0000 0.0000 0.0000
# 3 49.1083 49.1082 143.5329 0.0000 0.0000 0.0000
# 4 0.0000 0.0000 0.0000 27.6629 0.0000 0.0000
# 5 0.0000 0.0000 0.0000 0.0000 27.6631 0.0000
# 6 0.0000 0.0000 0.0000 0.0000 0.0000 20.2872
#
#
#
# Elastic Compliance Matrix: (Units=1/GPa)
#
#
# Indices 1 2 3 4 5 6 
#
# 1 0.017524 -0.005537 -0.004101 0.000000 0.000000 0.000000
# 2 -0.005537 0.017524 -0.004101 0.000000 0.000000 0.000000
# 3 -0.004101 -0.004101 0.009773 0.000000 0.000000 0.000000
# 4 0.000000 0.000000 0.000000 0.036150 0.000000 0.000000
# 5 0.000000 0.000000 0.000000 0.000000 0.036149 0.000000
# 6 0.000000 0.000000 0.000000 0.000000 0.000000 0.049292
#
#
# Mechanical properties :
#
#
# Convention : Reuss Voigt Hill
#
# Bulk Modulus (GPa) = 57.66310 63.78083 60.72196
# Shear Modulus (GPa) = 25.04109 26.38102 25.71106
#
# Velocity S-wave (km/s) = 3.47207 3.56375 3.51821
# Velocity P-wave (km/s) = 6.62071 6.90211 6.76287
#
# Compressibility (1/GPa) = 0.01734211
#
# Stress axis : x y z
#
# Youngs Moduli (GPa) = 57.06501 57.06488 102.31943
#
# Poissons Ratio (x) = 0.31599 0.41962
# Poissons Ratio (y) = 0.31599 0.41962
# Poissons Ratio (z) = 0.23403 0.23403
#
# Static dielectric constant tensor:
#      x y z
#    x 3.582160 0.000000 0.000000 
#    y 0.000000 3.582170 0.000000 
#    z 0.000000 0.000000 3.813490 
# 
# 
# High freq. dielectric constant tensor:
#      x y z
#    x 1.798580 0.000000 0.000000 
#    y 0.000000 1.798580 0.000000 
#    z 0.000000 0.000000 1.819960 
# 
# From -- ./inp_files/6066.got.cif
#   From: 2010.06.25/outbox.cif.g09.slc.cpg/sg140_4_cif.got.tgz:6066.got - 2010.06.28 10:53:23.
