data_PCOD8320310
_publ_section_title
;
Structure prediction by ZEFSAII (Michael W. Deem and Ramdas Pophale) SiO2 
 PCOD8320310
Probable space group: I 4/M C M
;
_chemical_formula_sum "Si O2"
_cell_formula_units_Z 160
_cell_length_a 20.678119
_cell_length_b 20.678119
_cell_length_c 18.472025
_cell_angle_alpha 90.000000
_cell_angle_beta 90.000000
_cell_angle_gamma 90.000000
_cell_volume 7898.353520
_symmetry_space_group_name_H-M "I 4/M C M"
_symmetry_group_IT_number 140
_symmetry_cell_setting 'tetragonal'
loop_
_space_group_symop_operation_xyz
x,y,z
-y,x,z
-x,-y,z
y,-x,z
x,-y,1/2-z
-x,y,1/2-z
y,x,1/2-z
-y,-x,1/2-z
-x,-y,-z
y,-x,-z
x,y,-z
-y,x,-z
-x,y,1/2+z
x,-y,1/2+z
-y,-x,1/2+z
y,x,1/2+z
1/2+x,1/2+y,1/2+z
1/2-y,1/2+x,1/2+z
1/2-x,1/2-y,1/2+z
1/2+y,1/2-x,1/2+z
1/2+x,1/2-y,-z
1/2-x,1/2+y,-z
1/2+y,1/2+x,-z
1/2-y,1/2-x,-z
1/2-x,1/2-y,1/2-z
1/2+y,1/2-x,1/2-z
1/2+x,1/2+y,1/2-z
1/2-y,1/2+x,1/2-z
1/2-x,1/2+y,z
1/2+x,1/2-y,z
1/2-y,1/2-x,z
1/2+y,1/2+x,z
loop_
_atom_site_type_symbol
_atom_site_label
_atom_site_fract_x
_atom_site_fract_y
_atom_site_fract_z
Si Si1 0.679327 0.287398 0.330527
Si Si2 0.087487 0.203043 0.083932
Si Si3 0.419423 0.817075 0.680719
Si Si4 0.990630 0.104101 0.665699
Si Si5 0.834084 0.562504 0.848751
O O1 0.683553 0.316448 0.250000
O O2 0.739821 0.239821 0.345014
O O3 0.675871 0.344754 0.387736
O O4 0.610571 0.251704 0.342151
O O5 0.025319 0.170814 0.124288
O O6 0.089263 0.279740 0.097600
O O7 0.080967 0.187566 0.000000
O O8 0.372387 0.872387 0.653276
O O9 0.422582 0.814316 0.767074
O O10 0.485642 0.836356 0.641300
O O11 0.057238 0.069219 0.643855
O O12 0.000000 0.119480 0.750000
O O13 0.902583 0.597418 0.867297
#
# Coordination Sequence:
#
# PCOD8320310 Si02
#       5
#    32  32  32  32  32
#     4  10  20  37  60  87 121 165 213 260 315 380
#     4  12  26  37  60  95 128 166 207 259 322 384
#     4   9  19  36  62  92 117 156 217 271 309 366
#     4   9  22  42  64  90 120 164 212 250 302 376
#     4  10  21  37  59  89 126 164 204 259 325 384
#
# _framework density 20.257386
#
# number of rings (size 3 to 8) (size 9 to 14) (size 15 to 20)
#    0.000    2.000    2.000    1.200    8.400    2.800 
#    0.000    3.000    0.000    1.800    0.000    1.400 
#    0.000    0.000    0.000    0.000    0.000    0.000 
#
# Total GULP energy -991689.110678 kJ/mol
# GULP energy per Si atom -12396.113883 kJ/mol
# Density = 2.021128 g / cm^3
# Si number density = 20.257386 Si / 1000 Ang^3
#
#
#
# Elastic Constant Matrix: (Units=GPa)
#
#
# Indices 1 2 3 4 5 6 
#
# 1 124.2078 52.9384 44.5070 0.0000 0.0000 0.0000
# 2 52.9384 124.2078 44.5071 0.0000 0.0000 0.0000
# 3 44.5070 44.5071 71.6704 0.0000 0.0000 0.0000
# 4 0.0000 0.0000 0.0000 17.2177 0.0000 0.0000
# 5 0.0000 0.0000 0.0000 0.0000 17.2177 0.0000
# 6 0.0000 0.0000 0.0000 0.0000 0.0000 29.4415
#
#
#
# Elastic Compliance Matrix: (Units=1/GPa)
#
#
# Indices 1 2 3 4 5 6 
#
# 1 0.011118 -0.002913 -0.005096 0.000000 0.000000 0.000000
# 2 -0.002913 0.011118 -0.005096 0.000000 0.000000 0.000000
# 3 -0.005096 -0.005096 0.020281 0.000000 0.000000 0.000000
# 4 0.000000 0.000000 0.000000 0.058080 0.000000 0.000000
# 5 0.000000 0.000000 0.000000 0.000000 0.058080 0.000000
# 6 0.000000 0.000000 0.000000 0.000000 0.000000 0.033966
#
#
# Mechanical properties :
#
#
# Convention : Reuss Voigt Hill
#
# Bulk Modulus (GPa) = 61.31164 67.11010 64.21087
# Shear Modulus (GPa) = 22.29276 24.65097 23.47187
#
# Velocity S-wave (km/s) = 3.32094 3.49218 3.40763
# Velocity P-wave (km/s) = 6.71095 7.03285 6.87379
#
# Compressibility (1/GPa) = 0.01631012
#
# Stress axis : x y z
#
# Youngs Moduli (GPa) = 89.94103 89.94092 49.30610
#
# Poissons Ratio (x) = 0.26199 0.25124
# Poissons Ratio (y) = 0.26199 0.25125
# Poissons Ratio (z) = 0.45830 0.45831
#
# Static dielectric constant tensor:
#      x y z
#    x 3.865940 0.000000 0.000000 
#    y 0.000000 3.865940 0.000000 
#    z 0.000000 0.000000 3.182260 
# 
# 
# High freq. dielectric constant tensor:
#      x y z
#    x 1.800630 0.000000 0.000000 
#    y 0.000000 1.800630 0.000000 
#    z 0.000000 0.000000 1.742240 
# 
# From -- ./inp_files/6839.got.cif
#   From: 2010.06.25/outbox.cif.g09.slc.cpg/sg140_4_cif.got.tgz:6839.got - 2010.06.28 10:53:23.
