data_PCOD8320985
_publ_section_title
;
Structure prediction by ZEFSAII (Michael W. Deem and Ramdas Pophale) SiO2 
 PCOD8320985
Probable space group: I 41/A C D
;
_chemical_formula_sum "Si O2"
_cell_formula_units_Z 144
_cell_length_a 19.338220
_cell_length_b 19.338220
_cell_length_c 20.635202
_cell_angle_alpha 90.000000
_cell_angle_beta 90.000000
_cell_angle_gamma 90.000000
_cell_volume 7716.879485
_symmetry_space_group_name_H-M "I 41/A C D"
_symmetry_group_IT_number 142
_space_group.IT_coordinate_system_code '2'
_symmetry_cell_setting 'tetragonal'
loop_
_space_group_symop_operation_xyz
x,y,z
1/4-y,3/4+x,1/4+z
-x,1/2-y,z
1/4+y,1/4-x,3/4+z
x,-y,1/2-z
1/2-x,y,-z
3/4+y,1/4+x,1/4-z
1/4-y,1/4-x,1/4-z
-x,-y,-z
3/4+y,1/4-x,3/4-z
x,1/2+y,-z
3/4-y,3/4+x,1/4-z
-x,y,1/2+z
1/2+x,-y,z
1/4-y,3/4-x,3/4+z
3/4+y,3/4+x,3/4+z
1/2+x,1/2+y,1/2+z
3/4-y,1/4+x,3/4+z
1/2-x,-y,1/2+z
3/4+y,3/4-x,1/4+z
1/2+x,1/2-y,-z
-x,1/2+y,1/2-z
1/4+y,3/4+x,3/4-z
3/4-y,3/4-x,3/4-z
1/2-x,1/2-y,1/2-z
1/4+y,3/4-x,1/4-z
1/2+x,y,1/2-z
1/4-y,1/4+x,3/4-z
1/2-x,1/2+y,z
x,1/2-y,1/2+z
3/4-y,1/4-x,1/4+z
1/4+y,1/4+x,1/4+z
loop_
_atom_site_type_symbol
_atom_site_label
_atom_site_fract_x
_atom_site_fract_y
_atom_site_fract_z
Si Si1 0.029134 0.872784 0.336563
Si Si2 0.175779 0.853455 0.532214
Si Si3 0.254143 0.146811 0.710028
Si Si4 0.265096 0.794919 0.344881
Si Si5 0.123760 0.626241 0.375000
O O1 0.054846 0.804846 0.375000
O O2 0.061919 0.872621 0.264337
O O3 0.946039 0.874300 0.332030
O O4 0.054882 0.938411 0.377277
O O5 0.250000 0.850025 0.500000
O O6 0.177777 0.815643 0.601861
O O7 0.156363 0.932921 0.543130
O O8 0.280982 0.217571 0.678222
O O9 0.229084 0.154681 0.783707
O O10 0.188290 0.118248 0.672283
#
# Coordination Sequence:
#
# PCOD8320985 Si02
#       5
#    32  32  32  32  16
#     4  10  18  37  59  84 109 152 197 230 279 355
#     4  10  21  35  61  85 112 154 196 234 288 358
#     4  10  20  38  55  82 120 151 187 245 293 340
#     4   9  20  36  57  79 115 156 186 231 298 344
#     4  10  23  34  58  88 114 148 194 239 288 336
#
# _framework density 18.660392999999999
#
# number of rings (size 3 to 8) (size 9 to 14) (size 15 to 20)
#    0.000    2.222    2.222    0.333    0.000    3.556 
#    0.000    5.556    0.000    0.000    0.000    0.000 
#    0.000    0.000    0.000    0.000    0.000    0.000 
#
# Total GULP energy -892862.208129 kJ/mol
# GULP energy per Si atom -12400.864002 kJ/mol
# Density = 1.861792 g / cm^3
# Si number density = 18.660393 Si / 1000 Ang^3
#
#
#
# Elastic Constant Matrix: (Units=GPa)
#
#
# Indices 1 2 3 4 5 6 
#
# 1 68.1056 30.9431 51.7543 0.0000 0.0000 0.0000
# 2 30.9431 68.1063 51.7541 0.0000 0.0000 0.0000
# 3 51.7543 51.7541 148.1853 0.0000 0.0000 0.0000
# 4 0.0000 0.0000 0.0000 22.7573 0.0000 0.0000
# 5 0.0000 0.0000 0.0000 0.0000 22.7575 0.0000
# 6 0.0000 0.0000 0.0000 0.0000 0.0000 21.8098
#
#
#
# Elastic Compliance Matrix: (Units=1/GPa)
#
#
# Indices 1 2 3 4 5 6 
#
# 1 0.021404 -0.005505 -0.005553 0.000000 0.000000 0.000000
# 2 -0.005505 0.021403 -0.005553 0.000000 0.000000 0.000000
# 3 -0.005553 -0.005553 0.010627 0.000000 0.000000 0.000000
# 4 0.000000 0.000000 0.000000 0.043942 0.000000 0.000000
# 5 0.000000 0.000000 0.000000 0.000000 0.043942 0.000000
# 6 0.000000 0.000000 0.000000 0.000000 0.000000 0.045851
#
#
# Mechanical properties :
#
#
# Convention : Reuss Voigt Hill
#
# Bulk Modulus (GPa) = 49.47174 61.47781 55.47478
# Shear Modulus (GPa) = 22.01413 23.46131 22.73772
#
# Velocity S-wave (km/s) = 3.43844 3.54966 3.49449
# Velocity P-wave (km/s) = 6.50638 7.05813 6.78787
#
# Compressibility (1/GPa) = 0.02021356
#
# Stress axis : x y z
#
# Youngs Moduli (GPa) = 46.72067 46.72148 94.10101
#
# Poissons Ratio (x) = 0.25720 0.52252
# Poissons Ratio (y) = 0.25719 0.52250
# Poissons Ratio (z) = 0.25943 0.25942
#
# Static dielectric constant tensor:
#      x y z
#    x 3.304870 0.000000 0.000000 
#    y 0.000000 3.304860 0.000000 
#    z 0.000000 0.000000 3.724560 
# 
# 
# High freq. dielectric constant tensor:
#      x y z
#    x 1.716570 0.000000 0.000000 
#    y 0.000000 1.716570 0.000000 
#    z 0.000000 0.000000 1.731910 
# 
# From -- ./inp_files/9001.got.cif
#   From: 2010.03.12/outbox.cif.g09.slc.cpg/sg142_5_cif.got.tgz:9001.got - 2010.04.03 13:27:16.
