data_PCOD8320512
_publ_section_title
;
Structure prediction by ZEFSAII (Michael W. Deem and Ramdas Pophale) SiO2 
 PCOD8320512
Probable space group: I 4/M C M
;
_chemical_formula_sum "Si O2"
_cell_formula_units_Z 64
_cell_length_a 10.113030
_cell_length_b 10.113030
_cell_length_c 30.478159
_cell_angle_alpha 90.000000
_cell_angle_beta 90.000000
_cell_angle_gamma 90.000000
_cell_volume 3117.104209
_symmetry_space_group_name_H-M "I 4/M C M"
_symmetry_group_IT_number 140
_symmetry_cell_setting 'tetragonal'
loop_
_space_group_symop_operation_xyz
x,y,z
-y,x,z
-x,-y,z
y,-x,z
x,-y,1/2-z
-x,y,1/2-z
y,x,1/2-z
-y,-x,1/2-z
-x,-y,-z
y,-x,-z
x,y,-z
-y,x,-z
-x,y,1/2+z
x,-y,1/2+z
-y,-x,1/2+z
y,x,1/2+z
1/2+x,1/2+y,1/2+z
1/2-y,1/2+x,1/2+z
1/2-x,1/2-y,1/2+z
1/2+y,1/2-x,1/2+z
1/2+x,1/2-y,-z
1/2-x,1/2+y,-z
1/2+y,1/2+x,-z
1/2-y,1/2-x,-z
1/2-x,1/2-y,1/2-z
1/2+y,1/2-x,1/2-z
1/2+x,1/2+y,1/2-z
1/2-y,1/2+x,1/2-z
1/2-x,1/2+y,z
1/2+x,1/2-y,z
1/2-y,1/2-x,z
1/2+y,1/2+x,z
loop_
_atom_site_type_symbol
_atom_site_label
_atom_site_fract_x
_atom_site_fract_y
_atom_site_fract_z
Si Si1 0.639015 0.860986 0.948668
Si Si2 0.600821 0.100821 0.823206
Si Si3 0.651468 0.151468 0.083688
Si Si4 0.000000 0.783379 0.750000
O O1 0.499209 0.813064 0.928878
O O2 0.749356 0.750645 0.940178
O O3 0.618857 0.881144 0.000000
O O4 0.673176 0.173176 0.863654
O O5 0.697001 0.011375 0.793588
O O6 0.500000 0.000000 0.846772
O O7 0.132028 0.867973 0.750000
#
# Coordination Sequence:
#
# PCOD8320512 Si02
#       4
#    16  16  16  16
#     4  11  23  47  68  96 131 174 216 274 339 394
#     4  12  23  41  64  94 128 169 215 260 324 372
#     4  11  26  40  70 100 132 171 220 277 320 403
#     4  11  25  40  64  90 129 173 212 262 310 381
#
# _framework density 20.531876
#
# number of rings (size 3 to 8) (size 9 to 14) (size 15 to 20)
#    0.000    0.750    5.000    3.750    7.000    1.000 
#    0.000    2.500    0.000    0.000    0.000    0.000 
#    0.000    0.000    0.000    0.000    0.000    0.000 
#
# Total GULP energy -396770.198654 kJ/mol
# GULP energy per Si atom -12399.068708 kJ/mol
# Density = 2.048514 g / cm^3
# Si number density = 20.531876 Si / 1000 Ang^3
#
#
#
# Elastic Constant Matrix: (Units=GPa)
#
#
# Indices 1 2 3 4 5 6 
#
# 1 112.5253 65.5030 29.1282 0.0000 0.0000 0.0000
# 2 65.5030 112.5268 29.1285 0.0000 0.0000 0.0000
# 3 29.1282 29.1285 156.6865 0.0000 0.0000 0.0000
# 4 0.0000 0.0000 0.0000 23.4367 0.0000 0.0000
# 5 0.0000 0.0000 0.0000 0.0000 23.4340 0.0000
# 6 0.0000 0.0000 0.0000 0.0000 0.0000 46.4330
#
#
#
# Elastic Compliance Matrix: (Units=1/GPa)
#
#
# Indices 1 2 3 4 5 6 
#
# 1 0.013624 -0.007643 -0.001112 0.000000 0.000000 0.000000
# 2 -0.007643 0.013623 -0.001112 0.000000 0.000000 0.000000
# 3 -0.001112 -0.001112 0.006796 0.000000 0.000000 0.000000
# 4 0.000000 0.000000 0.000000 0.042668 0.000000 0.000000
# 5 0.000000 0.000000 0.000000 0.000000 0.042673 0.000000
# 6 0.000000 0.000000 0.000000 0.000000 0.000000 0.021536
#
#
# Mechanical properties :
#
#
# Convention : Reuss Voigt Hill
#
# Bulk Modulus (GPa) = 69.88164 69.91757 69.89960
# Shear Modulus (GPa) = 30.22558 35.85934 33.04246
#
# Velocity S-wave (km/s) = 3.84100 4.18367 4.01599
# Velocity P-wave (km/s) = 7.33352 7.58054 7.45806
#
# Compressibility (1/GPa) = 0.01430991
#
# Stress axis : x y z
#
# Youngs Moduli (GPa) = 73.40188 73.40288 147.15473
#
# Poissons Ratio (x) = 0.56099 0.16362
# Poissons Ratio (y) = 0.56098 0.16362
# Poissons Ratio (z) = 0.08161 0.08161
#
# Static dielectric constant tensor:
#      x y z
#    x 3.485320 0.000000 0.000000 
#    y 0.000000 3.485290 0.000000 
#    z 0.000000 0.000000 3.749380 
# 
# 
# High freq. dielectric constant tensor:
#      x y z
#    x 1.806400 0.000000 0.000000 
#    y 0.000000 1.806400 0.000000 
#    z 0.000000 0.000000 1.818820 
# 
# From -- ./inp_files/10127.got.cif
#   From: 2010.06.25/outbox.cif.g09.slc.cpg/sg140_6_cif.got.tgz:10127.got - 2010.06.28 10:53:23.
