data_PCOD8320681
_publ_section_title
;
Structure prediction by ZEFSAII (Michael W. Deem and Ramdas Pophale) SiO2 
 PCOD8320681
Probable space group: I 41/A M D
;
_chemical_formula_sum "Si O2"
_cell_formula_units_Z 192
_cell_length_a 27.575367
_cell_length_b 27.575367
_cell_length_c 14.908415
_cell_angle_alpha 90.000000
_cell_angle_beta 90.000000
_cell_angle_gamma 90.000000
_cell_volume 11336.371665
_symmetry_space_group_name_H-M "I 41/A M D"
_symmetry_group_IT_number 141
_space_group.IT_coordinate_system_code '2'
_symmetry_cell_setting 'tetragonal'
loop_
_space_group_symop_operation_xyz
x,y,z
1/4-y,3/4+x,1/4+z
-x,1/2-y,z
1/4+y,1/4-x,3/4+z
x,-y,-z
-x,1/2+y,-z
1/4+y,3/4+x,1/4-z
1/4-y,1/4-x,3/4-z
-x,-y,-z
3/4+y,1/4-x,3/4-z
x,1/2+y,-z
3/4-y,3/4+x,1/4-z
-x,y,z
x,1/2-y,z
3/4-y,1/4-x,3/4+z
3/4+y,3/4+x,1/4+z
1/2+x,1/2+y,1/2+z
3/4-y,1/4+x,3/4+z
1/2-x,-y,1/2+z
3/4+y,3/4-x,1/4+z
1/2+x,1/2-y,1/2-z
1/2-x,y,1/2-z
3/4+y,1/4+x,3/4-z
3/4-y,3/4-x,1/4-z
1/2-x,1/2-y,1/2-z
1/4+y,3/4-x,1/4-z
1/2+x,y,1/2-z
1/4-y,1/4+x,3/4-z
1/2-x,1/2+y,1/2+z
1/2+x,-y,1/2+z
1/4-y,3/4-x,1/4+z
1/4+y,1/4+x,3/4+z
loop_
_atom_site_type_symbol
_atom_site_label
_atom_site_fract_x
_atom_site_fract_y
_atom_site_fract_z
Si Si1 0.126899 0.307663 0.424314
Si Si2 0.269633 0.692492 0.844247
Si Si3 0.442487 0.961144 0.260777
Si Si4 0.442999 0.366593 0.380954
Si Si5 0.942355 0.647002 0.214280
Si Si6 0.442237 0.527683 0.584206
O O1 0.123158 0.250000 0.415021
O O2 0.081757 0.331757 0.375000
O O3 0.177706 0.326281 0.379724
O O4 0.119846 0.323806 0.527665
O O5 0.273555 0.750000 0.837637
O O6 0.250000 0.670710 0.750000
O O7 0.227591 0.675844 0.912424
O O8 0.500000 0.960563 0.267255
O O9 0.422912 0.908090 0.285603
O O10 0.421065 0.001382 0.328142
O O11 0.500000 0.359049 0.385798
O O12 0.420095 0.324178 0.441066
O O13 0.425726 0.417013 0.424510
O O14 0.922748 0.672748 0.125000
O O15 0.000000 0.650372 0.211617
O O16 0.420124 0.500000 0.500000
O O17 0.500000 0.525187 0.586742
#
# Coordination Sequence:
#
# PCOD8320681 Si02
#       6
#    32  32  32  32  32  32
#     4  10  21  35  51  73 104 138 173 209 248 304
#     4   9  17  31  52  74  96 124 162 215 272 310
#     4   9  17  31  49  71  95 124 165 216 266 304
#     4  10  20  34  49  69 100 138 174 208 246 294
#     4  11  23  35  49  72 105 143 182 216 248 297
#     4   9  15  27  49  70  90 120 159 206 260 302
#
# _framework density 16.936636
#
# number of rings (size 3 to 8) (size 9 to 14) (size 15 to 20)
#    0.000    2.333    1.667    1.500    2.333    4.667 
#    0.000    1.667    0.000    0.000    0.000    0.000 
#    0.000   12.000    0.000    0.000    0.000    0.000 
#
# Total GULP energy -1189569.013588 kJ/mol
# GULP energy per Si atom -12391.343892 kJ/mol
# Density = 1.689809 g / cm^3
# Si number density = 16.936636 Si / 1000 Ang^3
#
#
#
# Elastic Constant Matrix: (Units=GPa)
#
#
# Indices 1 2 3 4 5 6 
#
# 1 56.3445 19.2863 33.0295 0.0000 0.0000 0.0000
# 2 19.2863 56.3445 33.0295 0.0000 0.0000 0.0000
# 3 33.0295 33.0295 125.8708 0.0000 0.0000 0.0000
# 4 0.0000 0.0000 0.0000 26.4160 0.0000 0.0000
# 5 0.0000 0.0000 0.0000 0.0000 26.4160 0.0000
# 6 0.0000 0.0000 0.0000 0.0000 0.0000 0.9054
#
#
#
# Elastic Compliance Matrix: (Units=1/GPa)
#
#
# Indices 1 2 3 4 5 6 
#
# 1 0.022069 -0.004915 -0.004501 0.000000 0.000000 0.000000
# 2 -0.004915 0.022069 -0.004501 0.000000 0.000000 0.000000
# 3 -0.004501 -0.004501 0.010307 0.000000 0.000000 0.000000
# 4 0.000000 0.000000 0.000000 0.037856 0.000000 0.000000
# 5 0.000000 0.000000 0.000000 0.000000 0.037856 0.000000
# 6 0.000000 0.000000 0.000000 0.000000 0.000000 1.104448
#
#
# Mechanical properties :
#
#
# Convention : Reuss Voigt Hill
#
# Bulk Modulus (GPa) = 37.58078 45.47226 41.52652
# Shear Modulus (GPa) = 3.93295 20.96181 12.44738
#
# Velocity S-wave (km/s) = 1.52552 3.52186 2.71392
# Velocity P-wave (km/s) = 5.03390 6.59126 5.86451
#
# Compressibility (1/GPa) = 0.02660935
#
# Stress axis : x y z
#
# Youngs Moduli (GPa) = 45.31219 45.31219 97.02156
#
# Poissons Ratio (x) = 0.22273 0.43672
# Poissons Ratio (y) = 0.22273 0.43672
# Poissons Ratio (z) = 0.20396 0.20396
#
# Static dielectric constant tensor:
#      x y z
#    x 3.004940 0.000000 0.000000 
#    y 0.000000 3.004940 0.000000 
#    z 0.000000 0.000000 3.508110 
# 
# 
# High freq. dielectric constant tensor:
#      x y z
#    x 1.622090 0.000000 0.000000 
#    y 0.000000 1.622090 0.000000 
#    z 0.000000 0.000000 1.676880 
# 
# From -- ./inp_files/6941.got.cif
#   From: 2010.03.12/outbox.cif.g09.slc.cpg/sg141_4_cif.got.tgz:6941.got - 2010.04.03 13:18:35.
