data_PCOD8320755
_publ_section_title
;
Structure prediction by ZEFSAII (Michael W. Deem and Ramdas Pophale) SiO2 
 PCOD8320755
Probable space group: I 41/A M D
;
_chemical_formula_sum "Si O2"
_cell_formula_units_Z 104
_cell_length_a 17.124006
_cell_length_b 17.124006
_cell_length_c 17.152587
_cell_angle_alpha 90.000000
_cell_angle_beta 90.000000
_cell_angle_gamma 90.000000
_cell_volume 5029.680213
_symmetry_space_group_name_H-M "I 41/A M D"
_symmetry_group_IT_number 141
_space_group.IT_coordinate_system_code '2'
_symmetry_cell_setting 'tetragonal'
loop_
_space_group_symop_operation_xyz
x,y,z
1/4-y,3/4+x,1/4+z
-x,1/2-y,z
1/4+y,1/4-x,3/4+z
x,-y,-z
-x,1/2+y,-z
1/4+y,3/4+x,1/4-z
1/4-y,1/4-x,3/4-z
-x,-y,-z
3/4+y,1/4-x,3/4-z
x,1/2+y,-z
3/4-y,3/4+x,1/4-z
-x,y,z
x,1/2-y,z
3/4-y,1/4-x,3/4+z
3/4+y,3/4+x,1/4+z
1/2+x,1/2+y,1/2+z
3/4-y,1/4+x,3/4+z
1/2-x,-y,1/2+z
3/4+y,3/4-x,1/4+z
1/2+x,1/2-y,1/2-z
1/2-x,y,1/2-z
3/4+y,1/4+x,3/4-z
3/4-y,3/4-x,1/4-z
1/2-x,1/2-y,1/2-z
1/4+y,3/4-x,1/4-z
1/2+x,y,1/2-z
1/4-y,1/4+x,3/4-z
1/2-x,1/2+y,1/2+z
1/2+x,-y,1/2+z
1/4-y,3/4-x,1/4+z
1/4+y,1/4+x,3/4+z
loop_
_atom_site_type_symbol
_atom_site_label
_atom_site_fract_x
_atom_site_fract_y
_atom_site_fract_z
Si Si1 0.333702 0.090815 0.387865
Si Si2 0.750000 0.529281 0.750000
Si Si3 0.173526 0.250000 0.593110
Si Si4 0.000000 0.483974 0.678257
Si Si5 0.000000 0.750000 0.795371
Si Si6 0.000000 0.363948 0.412111
O O1 0.422028 0.056451 0.392487
O O2 0.325006 0.177824 0.421189
O O3 0.309780 0.085614 0.296170
O O4 0.276357 0.039417 0.438045
O O5 0.216779 0.250000 0.509048
O O6 0.079655 0.250000 0.592116
O O7 0.000000 0.543700 0.604301
O O8 0.083731 0.750000 0.750449
O O9 0.078675 0.328675 0.375000
#
# Coordination Sequence:
#
# PCOD8320755 Si02
#       6
#    32  16  16  16   8  16
#     4  11  25  42  65  94 133 167 222 269 335 395
#     4  10  24  42  64  98 126 168 220 278 322 402
#     4  12  23  42  62  92 135 173 218 270 328 401
#     4  12  23  37  63  97 133 178 208 270 337 395
#     4  10  21  32  54  94 126 175 210 254 310 393
#     4   9  18  31  52  81 131 171 207 242 304 392
#
# _framework density 20.677257999999998
#
# number of rings (size 3 to 8) (size 9 to 14) (size 15 to 20)
#    0.000    1.385    6.154    0.923    8.615    1.231 
#    0.000    0.000    0.000    0.000    0.000    0.000 
#    0.000    0.000    0.000    0.000    0.000    0.000 
#
# Total GULP energy -644278.305453 kJ/mol
# GULP energy per Si atom -12389.967413 kJ/mol
# Density = 2.063020 g / cm^3
# Si number density = 20.677258 Si / 1000 Ang^3
#
#
#
# Elastic Constant Matrix: (Units=GPa)
#
#
# Indices 1 2 3 4 5 6 
#
# 1 103.3279 8.1959 20.4855 0.0000 0.0000 0.0000
# 2 8.1959 103.3279 20.4855 0.0000 0.0000 0.0000
# 3 20.4855 20.4855 54.0970 0.0000 0.0000 0.0000
# 4 0.0000 0.0000 0.0000 18.6531 0.0000 0.0000
# 5 0.0000 0.0000 0.0000 0.0000 18.6531 0.0000
# 6 0.0000 0.0000 0.0000 0.0000 0.0000 13.1302
#
#
#
# Elastic Compliance Matrix: (Units=1/GPa)
#
#
# Indices 1 2 3 4 5 6 
#
# 1 0.010464 -0.000048 -0.003944 0.000000 0.000000 0.000000
# 2 -0.000048 0.010464 -0.003944 0.000000 0.000000 0.000000
# 3 -0.003944 -0.003944 0.021473 0.000000 0.000000 0.000000
# 4 0.000000 0.000000 0.000000 0.053610 0.000000 0.000000
# 5 0.000000 0.000000 0.000000 0.000000 0.053610 0.000000
# 6 0.000000 0.000000 0.000000 0.000000 0.000000 0.076160
#
#
# Mechanical properties :
#
#
# Convention : Reuss Voigt Hill
#
# Bulk Modulus (GPa) = 37.69742 39.89852 38.79797
# Shear Modulus (GPa) = 19.96036 24.19299 22.07667
#
# Velocity S-wave (km/s) = 3.11034 3.42428 3.27108
# Velocity P-wave (km/s) = 5.58300 5.91371 5.75074
#
# Compressibility (1/GPa) = 0.02652701
#
# Stress axis : x y z
#
# Youngs Moduli (GPa) = 95.56838 95.56838 46.57109
#
# Poissons Ratio (x) = 0.00459 0.18369
# Poissons Ratio (y) = 0.00459 0.18369
# Poissons Ratio (z) = 0.37694 0.37694
#
# Static dielectric constant tensor:
#      x y z
#    x 4.136050 0.000000 0.000000 
#    y 0.000000 4.136050 0.000000 
#    z 0.000000 0.000000 3.879830 
# 
# 
# High freq. dielectric constant tensor:
#      x y z
#    x 1.808300 0.000000 0.000000 
#    y 0.000000 1.808300 0.000000 
#    z 0.000000 0.000000 1.781960 
# 
# From -- ./inp_files/7880.got.cif
#   From: 2010.03.12/outbox.cif.g09.slc.cpg/sg141_4_cif.got.tgz:7880.got - 2010.04.03 13:18:35.
