data_PCOD8320827
_publ_section_title
;
Structure prediction by ZEFSAII (Michael W. Deem and Ramdas Pophale) SiO2 
 PCOD8320827
Probable space group: I 41/A M D
;
_chemical_formula_sum "Si O2"
_cell_formula_units_Z 176
_cell_length_a 17.686626
_cell_length_b 17.686626
_cell_length_c 28.540502
_cell_angle_alpha 90.000000
_cell_angle_beta 90.000000
_cell_angle_gamma 90.000000
_cell_volume 8927.946773
_symmetry_space_group_name_H-M "I 41/A M D"
_symmetry_group_IT_number 141
_space_group.IT_coordinate_system_code '2'
_symmetry_cell_setting 'tetragonal'
loop_
_space_group_symop_operation_xyz
x,y,z
1/4-y,3/4+x,1/4+z
-x,1/2-y,z
1/4+y,1/4-x,3/4+z
x,-y,-z
-x,1/2+y,-z
1/4+y,3/4+x,1/4-z
1/4-y,1/4-x,3/4-z
-x,-y,-z
3/4+y,1/4-x,3/4-z
x,1/2+y,-z
3/4-y,3/4+x,1/4-z
-x,y,z
x,1/2-y,z
3/4-y,1/4-x,3/4+z
3/4+y,3/4+x,1/4+z
1/2+x,1/2+y,1/2+z
3/4-y,1/4+x,3/4+z
1/2-x,-y,1/2+z
3/4+y,3/4-x,1/4+z
1/2+x,1/2-y,1/2-z
1/2-x,y,1/2-z
3/4+y,1/4+x,3/4-z
3/4-y,3/4-x,1/4-z
1/2-x,1/2-y,1/2-z
1/4+y,3/4-x,1/4-z
1/2+x,y,1/2-z
1/4-y,1/4+x,3/4-z
1/2-x,1/2+y,1/2+z
1/2+x,-y,1/2+z
1/4-y,3/4-x,1/4+z
1/4+y,1/4+x,3/4+z
loop_
_atom_site_type_symbol
_atom_site_label
_atom_site_fract_x
_atom_site_fract_y
_atom_site_fract_z
Si Si1 0.790536 0.834438 0.002269
Si Si2 0.206683 0.338735 0.890095
Si Si3 0.659112 0.903313 0.587566
Si Si4 0.000000 0.839344 0.474510
Si Si5 0.415989 0.377987 0.208801
Si Si6 0.500000 0.339652 0.871689
Si Si7 0.174638 0.424638 0.375000
O O1 0.829210 0.750000 0.001278
O O2 0.832326 0.898095 0.969618
O O3 0.709148 0.825127 0.980669
O O4 0.780389 0.862833 0.055728
O O5 0.193023 0.250000 0.885206
O O6 0.130629 0.380629 0.875000
O O7 0.276256 0.359809 0.855728
O O8 0.618753 0.824852 0.597317
O O9 0.737872 0.908963 0.615110
O O10 0.926178 0.867142 0.501497
O O11 0.000000 0.875405 0.423411
O O12 0.000000 0.750000 0.468739
O O13 0.500000 0.351806 0.191239
O O14 0.353732 0.374613 0.168286
O O15 0.500000 0.250000 0.870499
#
# Coordination Sequence:
#
# PCOD8320827 Si02
#       7
#    32  32  32  16  32  16  16
#     4   9  19  39  63  86 125 169 203 249 322 376
#     4  11  24  44  68  93 123 162 206 259 322 390
#     4  11  21  41  62  94 125 165 209 258 317 378
#     4   9  18  33  49  83 121 159 215 255 308 350
#     4   9  18  32  53  79 119 171 209 248 293 354
#     4  11  22  37  65  91 120 155 207 274 313 372
#     4  10  22  34  53  84 123 162 214 252 306 368
#
# _framework density 19.713380000000001
#
# number of rings (size 3 to 8) (size 9 to 14) (size 15 to 20)
#    0.000    2.000    1.818    1.636    2.545    3.818 
#    0.000    6.364    0.000    0.000    0.000    0.000 
#    0.000    0.000    0.000    0.000    0.000    0.000 
#
# Total GULP energy -1090395.529485 kJ/mol
# GULP energy per Si atom -12390.858290 kJ/mol
# Density = 1.966851 g / cm^3
# Si number density = 19.713380 Si / 1000 Ang^3
#
#
#
# Elastic Constant Matrix: (Units=GPa)
#
#
# Indices 1 2 3 4 5 6 
#
# 1 67.1815 45.0824 29.6057 0.0000 0.0000 0.0000
# 2 45.0824 67.1815 29.6057 0.0000 0.0000 0.0000
# 3 29.6057 29.6057 101.4060 0.0000 0.0000 0.0000
# 4 0.0000 0.0000 0.0000 22.0448 0.0000 0.0000
# 5 0.0000 0.0000 0.0000 0.0000 22.0448 0.0000
# 6 0.0000 0.0000 0.0000 0.0000 0.0000 82.1346
#
#
#
# Elastic Compliance Matrix: (Units=1/GPa)
#
#
# Indices 1 2 3 4 5 6 
#
# 1 0.027890 -0.017361 -0.003074 0.000000 0.000000 0.000000
# 2 -0.017361 0.027890 -0.003074 0.000000 0.000000 0.000000
# 3 -0.003074 -0.003074 0.011656 0.000000 0.000000 0.000000
# 4 0.000000 0.000000 0.000000 0.045362 0.000000 0.000000
# 5 0.000000 0.000000 0.000000 0.000000 0.045362 0.000000
# 6 0.000000 0.000000 0.000000 0.000000 0.000000 0.012175
#
#
# Mechanical properties :
#
#
# Convention : Reuss Voigt Hill
#
# Bulk Modulus (GPa) = 48.97579 49.37297 49.17438
# Shear Modulus (GPa) = 22.30558 34.00985 28.15771
#
# Velocity S-wave (km/s) = 3.36742 4.15808 3.78346
# Velocity P-wave (km/s) = 6.32592 6.93921 6.63965
#
# Compressibility (1/GPa) = 0.02041825
#
# Stress axis : x y z
#
# Youngs Moduli (GPa) = 35.85533 35.85533 85.79101
#
# Poissons Ratio (x) = 0.62248 0.26372
# Poissons Ratio (y) = 0.62248 0.26372
# Poissons Ratio (z) = 0.11022 0.11022
#
# Static dielectric constant tensor:
#      x y z
#    x 3.555870 0.000000 0.000000 
#    y 0.000000 3.555870 0.000000 
#    z 0.000000 0.000000 4.050690 
# 
# 
# High freq. dielectric constant tensor:
#      x y z
#    x 1.759320 0.000000 0.000000 
#    y 0.000000 1.759320 0.000000 
#    z 0.000000 0.000000 1.776060 
# 
# From -- ./inp_files/12982.got.cif
#   From: 2010.03.12/outbox.cif.g09.slc.cpg/sg141_7_cif.got.tgz:12982.got - 2010.04.03 13:18:35.
