data_PCOD8320460
_publ_section_title
;
Structure prediction by ZEFSAII (Michael W. Deem and Ramdas Pophale) SiO2 
 PCOD8320460
Probable space group: I 4/M C M
;
_chemical_formula_sum "Si O2"
_cell_formula_units_Z 176
_cell_length_a 18.607810
_cell_length_b 18.607810
_cell_length_c 26.112771
_cell_angle_alpha 90.000000
_cell_angle_beta 90.000000
_cell_angle_gamma 90.000000
_cell_volume 9041.562444
_symmetry_space_group_name_H-M "I 4/M C M"
_symmetry_group_IT_number 140
_symmetry_cell_setting 'tetragonal'
loop_
_space_group_symop_operation_xyz
x,y,z
-y,x,z
-x,-y,z
y,-x,z
x,-y,1/2-z
-x,y,1/2-z
y,x,1/2-z
-y,-x,1/2-z
-x,-y,-z
y,-x,-z
x,y,-z
-y,x,-z
-x,y,1/2+z
x,-y,1/2+z
-y,-x,1/2+z
y,x,1/2+z
1/2+x,1/2+y,1/2+z
1/2-y,1/2+x,1/2+z
1/2-x,1/2-y,1/2+z
1/2+y,1/2-x,1/2+z
1/2+x,1/2-y,-z
1/2-x,1/2+y,-z
1/2+y,1/2+x,-z
1/2-y,1/2-x,-z
1/2-x,1/2-y,1/2-z
1/2+y,1/2-x,1/2-z
1/2+x,1/2+y,1/2-z
1/2-y,1/2+x,1/2-z
1/2-x,1/2+y,z
1/2+x,1/2-y,z
1/2-y,1/2-x,z
1/2+y,1/2+x,z
loop_
_atom_site_type_symbol
_atom_site_label
_atom_site_fract_x
_atom_site_fract_y
_atom_site_fract_z
Si Si1 0.147018 0.767617 0.373677
Si Si2 0.506624 0.798895 0.601106
Si Si3 0.941954 0.673234 0.708280
Si Si4 0.058089 0.558089 0.555288
Si Si5 0.194695 0.083719 0.735094
Si Si6 0.754867 0.862105 0.941737
O O1 0.204329 0.704329 0.362167
O O2 0.082950 0.739174 0.409828
O O3 0.105759 0.793776 0.323388
O O4 0.184460 0.833999 0.402700
O O5 0.484553 0.794522 0.660461
O O6 0.517885 0.881219 0.587265
O O7 0.445878 0.760598 0.567166
O O8 0.892975 0.607026 0.690933
O O9 0.890635 0.735756 0.732072
O O10 0.000000 0.646895 0.750000
O O11 0.087230 0.587230 0.500000
O O12 0.000000 0.500000 0.542577
O O13 0.121182 0.121182 0.750000
O O14 0.186911 0.000000 0.750000
O O15 0.681403 0.818598 0.931708
O O16 0.781586 0.851091 0.000000
#
# Coordination Sequence:
#
# PCOD8320460 Si02
#       6
#    32  32  32  16  32  32
#     4  11  23  41  64  92 127 164 214 263 311 379
#     4  12  22  40  62  92 128 167 210 261 321 380
#     4  11  23  37  57  89 128 171 211 251 304 375
#     4  11  24  38  60  92 129 172 214 257 318 385
#     4  11  23  40  63  90 123 163 209 257 312 372
#     4  10  23  42  65  92 123 163 215 268 322 378
#
# _framework density 19.465661999999998
#
# number of rings (size 3 to 8) (size 9 to 14) (size 15 to 20)
#    0.000    1.000    4.545    3.818    1.273    6.182 
#    0.000    0.000    0.000    0.545    0.000    1.273 
#    0.000    0.000    0.000    0.000    0.000    0.000 
#
# Total GULP energy -1090814.832567 kJ/mol
# GULP energy per Si atom -12395.623097 kJ/mol
# Density = 1.942136 g / cm^3
# Si number density = 19.465662 Si / 1000 Ang^3
#
#
#
# Elastic Constant Matrix: (Units=GPa)
#
#
# Indices 1 2 3 4 5 6 
#
# 1 105.4551 65.0263 38.6250 0.0000 0.0000 0.0000
# 2 65.0263 105.4551 38.6250 0.0000 0.0000 0.0000
# 3 38.6250 38.6250 107.3231 0.0000 0.0000 0.0000
# 4 0.0000 0.0000 0.0000 26.9588 0.0000 0.0000
# 5 0.0000 0.0000 0.0000 0.0000 26.9588 0.0000
# 6 0.0000 0.0000 0.0000 0.0000 0.0000 44.4486
#
#
#
# Elastic Compliance Matrix: (Units=1/GPa)
#
#
# Indices 1 2 3 4 5 6 
#
# 1 0.015872 -0.008863 -0.002522 0.000000 0.000000 0.000000
# 2 -0.008863 0.015872 -0.002522 0.000000 0.000000 0.000000
# 3 -0.002522 -0.002522 0.011133 0.000000 0.000000 0.000000
# 4 0.000000 0.000000 0.000000 0.037094 0.000000 0.000000
# 5 0.000000 0.000000 0.000000 0.000000 0.037094 0.000000
# 6 0.000000 0.000000 0.000000 0.000000 0.000000 0.022498
#
#
# Mechanical properties :
#
#
# Convention : Reuss Voigt Hill
#
# Bulk Modulus (GPa) = 66.39628 66.97623 66.68625
# Shear Modulus (GPa) = 29.00262 31.40368 30.20315
#
# Velocity S-wave (km/s) = 3.86416 4.02093 3.94332
# Velocity P-wave (km/s) = 7.35476 7.48594 7.42064
#
# Compressibility (1/GPa) = 0.01506108
#
# Stress axis : x y z
#
# Youngs Moduli (GPa) = 63.00486 63.00486 89.82100
#
# Poissons Ratio (x) = 0.55842 0.22656
# Poissons Ratio (y) = 0.55842 0.22656
# Poissons Ratio (z) = 0.15892 0.15892
#
# Static dielectric constant tensor:
#      x y z
#    x 3.651510 0.000000 0.000000 
#    y 0.000000 3.651510 0.000000 
#    z 0.000000 0.000000 3.777870 
# 
# 
# High freq. dielectric constant tensor:
#      x y z
#    x 1.753570 0.000000 0.000000 
#    y 0.000000 1.753570 0.000000 
#    z 0.000000 0.000000 1.768770 
# 
# From -- ./inp_files/10692.got.cif
#   From: 2010.06.25/outbox.cif.g09.slc.cpg/sg140_6_cif.got.tgz:10692.got - 2010.06.28 10:53:23.
