data_PCOD8320229
_publ_section_title
;
Structure prediction by ZEFSAII (Michael W. Deem and Ramdas Pophale) SiO2 
 PCOD8320229
Probable space group: I 4/M C M
;
_chemical_formula_sum "Si O2"
_cell_formula_units_Z 240
_cell_length_a 20.452269
_cell_length_b 20.452269
_cell_length_c 30.861717
_cell_angle_alpha 90.000000
_cell_angle_beta 90.000000
_cell_angle_gamma 90.000000
_cell_volume 12909.311395
_symmetry_space_group_name_H-M "I 4/M C M"
_symmetry_group_IT_number 140
_symmetry_cell_setting 'tetragonal'
loop_
_space_group_symop_operation_xyz
x,y,z
-y,x,z
-x,-y,z
y,-x,z
x,-y,1/2-z
-x,y,1/2-z
y,x,1/2-z
-y,-x,1/2-z
-x,-y,-z
y,-x,-z
x,y,-z
-y,x,-z
-x,y,1/2+z
x,-y,1/2+z
-y,-x,1/2+z
y,x,1/2+z
1/2+x,1/2+y,1/2+z
1/2-y,1/2+x,1/2+z
1/2-x,1/2-y,1/2+z
1/2+y,1/2-x,1/2+z
1/2+x,1/2-y,-z
1/2-x,1/2+y,-z
1/2+y,1/2+x,-z
1/2-y,1/2-x,-z
1/2-x,1/2-y,1/2-z
1/2+y,1/2-x,1/2-z
1/2+x,1/2+y,1/2-z
1/2-y,1/2+x,1/2-z
1/2-x,1/2+y,z
1/2+x,1/2-y,z
1/2-y,1/2-x,z
1/2+y,1/2+x,z
loop_
_atom_site_type_symbol
_atom_site_label
_atom_site_fract_x
_atom_site_fract_y
_atom_site_fract_z
Si Si1 0.058100 0.339462 0.950001
Si Si2 0.816654 0.416911 0.949965
Si Si3 0.330439 0.577816 0.827331
Si Si4 0.326296 0.385435 0.423679
Si Si5 0.748540 0.143886 0.890256
Si Si6 0.645900 0.248616 0.263009
Si Si7 0.430772 0.416460 0.000000
Si Si8 0.812326 0.072234 0.810566
O O1 0.088109 0.411892 0.944244
O O2 0.101819 0.286765 0.926227
O O3 0.985897 0.338850 0.929183
O O4 0.056972 0.317777 0.000000
O O5 0.858669 0.358669 0.927690
O O6 0.740259 0.407103 0.945461
O O7 0.834514 0.419391 0.000000
O O8 0.335819 0.575089 0.879081
O O9 0.265762 0.617536 0.810948
O O10 0.328309 0.504231 0.810177
O O11 0.391859 0.617233 0.806830
O O12 0.321530 0.308728 0.414123
O O13 0.384873 0.401740 0.456408
O O14 0.700105 0.200105 0.871293
O O15 0.774222 0.096001 0.853134
O O16 0.705367 0.294634 0.250000
O O17 0.673717 0.173717 0.262783
O O18 0.587586 0.262964 0.229049
O O19 0.508596 0.408566 0.000000
#
# Coordination Sequence:
#
# PCOD8320229 Si02
#       8
#    32  32  32  32  32  32  16  32
#     4   9  19  33  51  73 100 138 179 228 290 355
#     4  10  20  33  50  74 102 134 176 229 293 351
#     4  10  22  34  55  84 113 149 196 238 294 351
#     4  11  23  37  58  79 111 150 194 253 298 348
#     4  10  21  35  54  81 110 145 195 243 296 357
#     4   9  18  35  58  81 111 146 182 231 292 355
#     4  11  28  44  59  82 114 163 214 249 295 363
#     4  10  20  36  55  82 114 155 190 238 291 352
#
# _framework density 18.591232000000002
#
# number of rings (size 3 to 8) (size 9 to 14) (size 15 to 20)
#    0.000    2.067    0.667    2.000    6.533    4.267 
#    0.000    1.333    0.000    2.400    0.000    0.000 
#    0.000    8.533    0.000    0.000    0.000    0.133 
#
# Total GULP energy -1487542.178439 kJ/mol
# GULP energy per Si atom -12396.184820 kJ/mol
# Density = 1.854892 g / cm^3
# Si number density = 18.591232 Si / 1000 Ang^3
#
#
#
# Elastic Constant Matrix: (Units=GPa)
#
#
# Indices 1 2 3 4 5 6 
#
# 1 97.5470 38.6279 19.0742 0.0000 0.0000 0.0000
# 2 38.6279 97.5456 19.0739 0.0000 0.0000 0.0000
# 3 19.0742 19.0739 78.4195 0.0000 0.0000 0.0000
# 4 0.0000 0.0000 0.0000 21.7156 0.0000 0.0000
# 5 0.0000 0.0000 0.0000 0.0000 21.7155 0.0000
# 6 0.0000 0.0000 0.0000 0.0000 0.0000 20.7767
#
#
#
# Elastic Compliance Matrix: (Units=1/GPa)
#
#
# Indices 1 2 3 4 5 6 
#
# 1 0.012426 -0.004546 -0.001917 0.000000 0.000000 0.000000
# 2 -0.004546 0.012427 -0.001917 0.000000 0.000000 0.000000
# 3 -0.001917 -0.001917 0.013684 0.000000 0.000000 0.000000
# 4 0.000000 0.000000 0.000000 0.046050 0.000000 0.000000
# 5 0.000000 0.000000 0.000000 0.000000 0.046050 0.000000
# 6 0.000000 0.000000 0.000000 0.000000 0.000000 0.048131
#
#
# Mechanical properties :
#
#
# Convention : Reuss Voigt Hill
#
# Bulk Modulus (GPa) = 45.91735 47.45156 46.68445
# Shear Modulus (GPa) = 24.65644 25.95731 25.30688
#
# Velocity S-wave (km/s) = 3.64571 3.74065 3.69348
# Velocity P-wave (km/s) = 6.51718 6.65099 6.58442
#
# Compressibility (1/GPa) = 0.02177826
#
# Stress axis : x y z
#
# Youngs Moduli (GPa) = 80.47329 80.47219 73.07603
#
# Poissons Ratio (x) = 0.36583 0.14007
# Poissons Ratio (y) = 0.36584 0.14007
# Poissons Ratio (z) = 0.15425 0.15425
#
# Static dielectric constant tensor:
#      x y z
#    x 3.515950 0.000000 0.000000 
#    y 0.000000 3.515950 0.000000 
#    z 0.000000 0.000000 3.424210 
# 
# 
# High freq. dielectric constant tensor:
#      x y z
#    x 1.718440 0.000000 0.000000 
#    y 0.000000 1.718440 0.000000 
#    z 0.000000 0.000000 1.717530 
# 
# From -- ./inp_files/11793.got.cif
#   From: 2010.06.25/outbox.cif.g09.slc.cpg/sg140_6_cif.got.tgz:11793.got - 2010.06.28 10:53:23.
