data_PCOD8320863
_publ_section_title
;
Structure prediction by ZEFSAII (Michael W. Deem and Ramdas Pophale) SiO2 
 PCOD8320863
Probable space group: I 41/A M D
;
_chemical_formula_sum "Si O2"
_cell_formula_units_Z 160
_cell_length_a 22.881743
_cell_length_b 22.881743
_cell_length_c 14.442282
_cell_angle_alpha 90.000000
_cell_angle_beta 90.000000
_cell_angle_gamma 90.000000
_cell_volume 7561.605706
_symmetry_space_group_name_H-M "I 41/A M D"
_symmetry_group_IT_number 141
_space_group.IT_coordinate_system_code '2'
_symmetry_cell_setting 'tetragonal'
loop_
_space_group_symop_operation_xyz
x,y,z
1/4-y,3/4+x,1/4+z
-x,1/2-y,z
1/4+y,1/4-x,3/4+z
x,-y,-z
-x,1/2+y,-z
1/4+y,3/4+x,1/4-z
1/4-y,1/4-x,3/4-z
-x,-y,-z
3/4+y,1/4-x,3/4-z
x,1/2+y,-z
3/4-y,3/4+x,1/4-z
-x,y,z
x,1/2-y,z
3/4-y,1/4-x,3/4+z
3/4+y,3/4+x,1/4+z
1/2+x,1/2+y,1/2+z
3/4-y,1/4+x,3/4+z
1/2-x,-y,1/2+z
3/4+y,3/4-x,1/4+z
1/2+x,1/2-y,1/2-z
1/2-x,y,1/2-z
3/4+y,1/4+x,3/4-z
3/4-y,3/4-x,1/4-z
1/2-x,1/2-y,1/2-z
1/4+y,3/4-x,1/4-z
1/2+x,y,1/2-z
1/4-y,1/4+x,3/4-z
1/2-x,1/2+y,1/2+z
1/2+x,-y,1/2+z
1/4-y,3/4-x,1/4+z
1/4+y,1/4+x,3/4+z
loop_
_atom_site_type_symbol
_atom_site_label
_atom_site_fract_x
_atom_site_fract_y
_atom_site_fract_z
Si Si1 0.151089 0.134197 0.120088
Si Si2 0.248047 0.593750 0.356799
Si Si3 0.385243 0.317090 0.032178
Si Si4 0.565947 0.500698 0.763127
Si Si5 0.566327 0.816087 0.266928
O O1 0.172264 0.068072 0.134263
O O2 0.113165 0.158620 0.206033
O O3 0.209136 0.172123 0.101667
O O4 0.108681 0.137661 0.031287
O O5 0.250000 0.614013 0.250000
O O6 0.286493 0.536493 0.375000
O O7 0.268942 0.645427 0.424878
O O8 0.397255 0.250000 0.001109
O O9 0.420579 0.329422 0.125000
O O10 0.316391 0.327940 0.046920
O O11 0.500000 0.492783 0.729227
O O12 0.500000 0.832315 0.237836
O O13 0.580534 0.750000 0.237255
O O14 0.574492 0.824492 0.375000
#
# Coordination Sequence:
#
# PCOD8320863 Si02
#       5
#    32  32  32  32  32
#     4  11  22  39  65  94 132 167 215 274 327 388
#     4  11  23  42  64  94 133 172 223 269 318 389
#     4  10  24  45  66  92 125 166 219 272 327 387
#     4  10  23  42  63  95 130 166 213 265 332 395
#     4   9  19  35  57  91 133 174 215 259 320 398
#
# _framework density 21.159528000000002
#
# number of rings (size 3 to 8) (size 9 to 14) (size 15 to 20)
#    0.000    1.800    2.000    1.800    2.800    4.600 
#    0.000    2.000    0.000    0.000    0.000    0.000 
#    0.000    0.000    0.000    0.000    0.000    0.000 
#
# Total GULP energy -992012.484261 kJ/mol
# GULP energy per Si atom -12400.156053 kJ/mol
# Density = 2.111137 g / cm^3
# Si number density = 21.159528 Si / 1000 Ang^3
#
#
#
# Elastic Constant Matrix: (Units=GPa)
#
#
# Indices 1 2 3 4 5 6 
#
# 1 87.3540 47.3002 35.6387 0.0000 0.0000 0.0000
# 2 47.3002 87.3562 35.6410 0.0000 0.0000 0.0000
# 3 35.6387 35.6410 91.3586 0.0000 0.0000 0.0000
# 4 0.0000 0.0000 0.0000 32.0960 0.0000 0.0000
# 5 0.0000 0.0000 0.0000 0.0000 32.0961 0.0000
# 6 0.0000 0.0000 0.0000 0.0000 0.0000 34.0603
#
#
#
# Elastic Compliance Matrix: (Units=1/GPa)
#
#
# Indices 1 2 3 4 5 6 
#
# 1 0.017162 -0.007803 -0.003651 0.000000 0.000000 0.000000
# 2 -0.007803 0.017162 -0.003651 0.000000 0.000000 0.000000
# 3 -0.003651 -0.003651 0.013794 0.000000 0.000000 0.000000
# 4 0.000000 0.000000 0.000000 0.031157 0.000000 0.000000
# 5 0.000000 0.000000 0.000000 0.000000 0.031156 0.000000
# 6 0.000000 0.000000 0.000000 0.000000 0.000000 0.029360
#
#
# Mechanical properties :
#
#
# Convention : Reuss Voigt Hill
#
# Bulk Modulus (GPa) = 55.83976 55.91428 55.87702
# Shear Modulus (GPa) = 28.41357 29.48308 28.94832
#
# Velocity S-wave (km/s) = 3.66843 3.73684 3.70279
# Velocity P-wave (km/s) = 6.66261 6.71573 6.68923
#
# Compressibility (1/GPa) = 0.01790839
#
# Stress axis : x y z
#
# Youngs Moduli (GPa) = 58.26676 58.26713 72.49269
#
# Poissons Ratio (x) = 0.45468 0.26465
# Poissons Ratio (y) = 0.45467 0.26470
# Poissons Ratio (z) = 0.21272 0.21275
#
# Static dielectric constant tensor:
#      x y z
#    x 3.873740 0.000000 0.000000 
#    y 0.000000 3.873740 0.000000 
#    z 0.000000 0.000000 3.747230 
# 
# 
# High freq. dielectric constant tensor:
#      x y z
#    x 1.832200 0.000000 0.000000 
#    y 0.000000 1.832200 0.000000 
#    z 0.000000 0.000000 1.818490 
# 
# From -- ./inp_files/6590.got.cif
#   From: 2010.03.12/outbox.cif.g09.slc.cpg/sg141_4_cif.got.tgz:6590.got - 2010.04.03 13:18:35.
