data_PCOD8320280
_publ_section_title
;
Structure prediction by ZEFSAII (Michael W. Deem and Ramdas Pophale) SiO2 
 PCOD8320280
Probable space group: I 4/M C M
;
_chemical_formula_sum "Si O2"
_cell_formula_units_Z 176
_cell_length_a 17.400189
_cell_length_b 17.400189
_cell_length_c 29.005965
_cell_angle_alpha 90.000000
_cell_angle_beta 90.000000
_cell_angle_gamma 90.000000
_cell_volume 8782.036742
_symmetry_space_group_name_H-M "I 4/M C M"
_symmetry_group_IT_number 140
_symmetry_cell_setting 'tetragonal'
loop_
_space_group_symop_operation_xyz
x,y,z
-y,x,z
-x,-y,z
y,-x,z
x,-y,1/2-z
-x,y,1/2-z
y,x,1/2-z
-y,-x,1/2-z
-x,-y,-z
y,-x,-z
x,y,-z
-y,x,-z
-x,y,1/2+z
x,-y,1/2+z
-y,-x,1/2+z
y,x,1/2+z
1/2+x,1/2+y,1/2+z
1/2-y,1/2+x,1/2+z
1/2-x,1/2-y,1/2+z
1/2+y,1/2-x,1/2+z
1/2+x,1/2-y,-z
1/2-x,1/2+y,-z
1/2+y,1/2+x,-z
1/2-y,1/2-x,-z
1/2-x,1/2-y,1/2-z
1/2+y,1/2-x,1/2-z
1/2+x,1/2+y,1/2-z
1/2-y,1/2+x,1/2-z
1/2-x,1/2+y,z
1/2+x,1/2-y,z
1/2-y,1/2-x,z
1/2+y,1/2+x,z
loop_
_atom_site_type_symbol
_atom_site_label
_atom_site_fract_x
_atom_site_fract_y
_atom_site_fract_z
Si Si1 0.643759 0.731061 0.211897
Si Si2 0.049648 0.677602 0.050961
Si Si3 0.064127 0.564127 0.692172
Si Si4 0.156833 0.216896 0.606060
Si Si5 0.906304 0.081961 0.053851
Si Si6 0.563639 0.063639 0.085220
Si Si7 0.697381 0.000000 0.250000
O O1 0.670243 0.670243 0.250000
O O2 0.689773 0.810228 0.217170
O O3 0.652832 0.699089 0.160323
O O4 0.555548 0.747960 0.221334
O O5 0.106079 0.606079 0.049847
O O6 0.080836 0.737753 0.088611
O O7 0.964959 0.644954 0.064036
O O8 0.045554 0.716480 0.000000
O O9 0.075862 0.575862 0.638783
O O10 0.145919 0.542157 0.712387
O O11 0.000000 0.500000 0.704068
O O12 0.233886 0.266115 0.594080
O O13 0.156146 0.134385 0.580694
O O14 0.993120 0.106935 0.067320
O O15 0.892490 0.093779 0.000000
O O16 0.500000 0.000000 0.075116
#
# Coordination Sequence:
#
# PCOD8320280 Si02
#       7
#    32  32  16  32  32  16  16
#     4  10  22  38  54  78 114 152 190 236 293 345
#     4   9  16  27  45  72 104 143 179 214 267 338
#     4  11  18  29  49  80 103 131 181 241 290 325
#     4  10  20  35  57  84 113 148 192 238 287 348
#     4   9  19  37  62  88 113 145 188 238 287 338
#     4   9  17  26  41  67 107 141 174 220 272 341
#     4  12  19  34  56  77 104 142 192 242 284 341
#
# _framework density 20.040908999999999
#
# number of rings (size 3 to 8) (size 9 to 14) (size 15 to 20)
#    0.000    2.182    1.818    2.455    0.000    6.545 
#    0.000    0.000    2.000    0.273    0.000    0.000 
#    0.000    0.000    0.000    0.000    0.000    0.000 
#
# Total GULP energy -1090945.715435 kJ/mol
# GULP energy per Si atom -12397.110403 kJ/mol
# Density = 1.999530 g / cm^3
# Si number density = 20.040909 Si / 1000 Ang^3
#
#
#
# Elastic Constant Matrix: (Units=GPa)
#
#
# Indices 1 2 3 4 5 6 
#
# 1 -88.1429 182.6536 37.8527 0.0000 0.0000 0.0000
# 2 182.6536 -88.1429 37.8527 0.0000 0.0000 0.0000
# 3 37.8527 37.8527 117.9400 0.0000 0.0000 0.0000
# 4 0.0000 0.0000 0.0000 7.6850 0.0000 0.0000
# 5 0.0000 0.0000 0.0000 0.0000 7.6850 0.0000
# 6 0.0000 0.0000 0.0000 0.0000 0.0000 27.4646
#
#
#
# Elastic Compliance Matrix: (Units=1/GPa)
#
#
# Indices 1 2 3 4 5 6 
#
# 1 0.005275 0.008968 -0.004571 0.000000 0.000000 0.000000
# 2 0.008968 0.005275 -0.004571 0.000000 0.000000 0.000000
# 3 -0.004571 -0.004571 0.011413 0.000000 0.000000 0.000000
# 4 0.000000 0.000000 0.000000 0.130124 0.000000 0.000000
# 5 0.000000 0.000000 0.000000 0.000000 0.130124 0.000000
# 6 0.000000 0.000000 0.000000 0.000000 0.000000 0.036411
#
#
# Mechanical properties :
#
#
# Convention : Reuss Voigt Hill
#
# Bulk Modulus (GPa) = 46.26743 50.93026 48.59885
# Shear Modulus (GPa) = 15.32925 -12.54674 1.39125
#
# Velocity S-wave (km/s) = 2.76868 -2.50483 0.83409
# Velocity P-wave (km/s) = 5.77559 4.13555 5.02296
#
# Compressibility (1/GPa) = 0.02161347
#
# Stress axis : x y z
#
# Youngs Moduli (GPa) = 189.58169 189.58169 87.61901
#
# Poissons Ratio (x) = -1.70009 0.40051
# Poissons Ratio (y) = -1.70009 0.40051
# Poissons Ratio (z) = 0.86659 0.86659
#
# Static dielectric constant tensor:
#      x y z
#    x 3.459530 0.000000 0.000000 
#    y 0.000000 3.459530 0.000000 
#    z 0.000000 0.000000 3.675400 
# 
# 
# High freq. dielectric constant tensor:
#      x y z
#    x 1.761530 0.000000 0.000000 
#    y 0.000000 1.761530 0.000000 
#    z 0.000000 0.000000 1.788250 
# 
# From -- ./inp_files/10748.got.cif
#   From: 2010.06.25/outbox.cif.g09.slc.cpg/sg140_6_cif.got.tgz:10748.got - 2010.06.28 10:53:23.
