data_PCOD8320549
_publ_section_title
;
Structure prediction by ZEFSAII (Michael W. Deem and Ramdas Pophale) SiO2 
 PCOD8320549
Probable space group: I 41/A M D
;
_chemical_formula_sum "Si O2"
_cell_formula_units_Z 88
_cell_length_a 14.500710
_cell_length_b 14.500710
_cell_length_c 24.786385
_cell_angle_alpha 90.000000
_cell_angle_beta 90.000000
_cell_angle_gamma 90.000000
_cell_volume 5211.847810
_symmetry_space_group_name_H-M "I 41/A M D"
_symmetry_group_IT_number 141
_space_group.IT_coordinate_system_code '2'
_symmetry_cell_setting 'tetragonal'
loop_
_space_group_symop_operation_xyz
x,y,z
1/4-y,3/4+x,1/4+z
-x,1/2-y,z
1/4+y,1/4-x,3/4+z
x,-y,-z
-x,1/2+y,-z
1/4+y,3/4+x,1/4-z
1/4-y,1/4-x,3/4-z
-x,-y,-z
3/4+y,1/4-x,3/4-z
x,1/2+y,-z
3/4-y,3/4+x,1/4-z
-x,y,z
x,1/2-y,z
3/4-y,1/4-x,3/4+z
3/4+y,3/4+x,1/4+z
1/2+x,1/2+y,1/2+z
3/4-y,1/4+x,3/4+z
1/2-x,-y,1/2+z
3/4+y,3/4-x,1/4+z
1/2+x,1/2-y,1/2-z
1/2-x,y,1/2-z
3/4+y,1/4+x,3/4-z
3/4-y,3/4-x,1/4-z
1/2-x,1/2-y,1/2-z
1/4+y,3/4-x,1/4-z
1/2+x,y,1/2-z
1/4-y,1/4+x,3/4-z
1/2-x,1/2+y,1/2+z
1/2+x,-y,1/2+z
1/4-y,3/4-x,1/4+z
1/4+y,1/4+x,3/4+z
loop_
_atom_site_type_symbol
_atom_site_label
_atom_site_fract_x
_atom_site_fract_y
_atom_site_fract_z
Si Si1 0.898073 0.750000 0.449953
Si Si2 0.500000 0.750000 0.597841
Si Si3 0.290812 0.750000 0.810242
Si Si4 0.000000 0.050077 0.672753
Si Si5 0.318286 0.600894 0.979204
O O1 0.844611 0.841987 0.467459
O O2 0.000000 0.750000 0.477410
O O3 0.907648 0.750000 0.385191
O O4 0.408101 0.750000 0.562075
O O5 0.250000 0.750000 0.750000
O O6 0.214476 0.750000 0.857776
O O7 0.348531 0.845036 0.812750
O O8 0.094212 0.010527 0.697609
O O9 0.285508 0.500000 0.000000
#
# Coordination Sequence:
#
# PCOD8320549 Si02
#       5
#    16   8  16  16  32
#     4   9  17  30  50  63  98 140 149 180 240 292
#     4  10  18  34  46  68  97 128 169 194 244 294
#     4  10  17  30  48  71 104 125 144 193 244 298
#     4  11  22  30  49  72  93 134 170 201 238 291
#     4  10  19  32  48  72  99 129 163 197 237 286
#
# _framework density 16.884606000000002
#
# number of rings (size 3 to 8) (size 9 to 14) (size 15 to 20)
#    0.545    1.455    1.818    5.455    0.000    0.000 
#    0.000    2.727    0.000    0.000    0.000    0.000 
#    0.000    0.000    0.000    0.000    0.000    0.000 
#
# Total GULP energy -545135.730237 kJ/mol
# GULP energy per Si atom -12389.448414 kJ/mol
# Density = 1.684618 g / cm^3
# Si number density = 16.884606 Si / 1000 Ang^3
#
#
#
# Elastic Constant Matrix: (Units=GPa)
#
#
# Indices 1 2 3 4 5 6 
#
# 1 133.0332 50.3406 37.9179 0.0000 0.0000 0.0000
# 2 50.3406 133.0332 37.9179 0.0000 0.0000 0.0000
# 3 37.9179 37.9179 57.7110 0.0000 0.0000 0.0000
# 4 0.0000 0.0000 0.0000 17.8526 0.0000 0.0000
# 5 0.0000 0.0000 0.0000 0.0000 17.8526 0.0000
# 6 0.0000 0.0000 0.0000 0.0000 0.0000 13.0451
#
#
#
# Elastic Compliance Matrix: (Units=1/GPa)
#
#
# Indices 1 2 3 4 5 6 
#
# 1 0.009790 -0.002303 -0.004920 0.000000 0.000000 0.000000
# 2 -0.002303 0.009790 -0.004920 0.000000 0.000000 0.000000
# 3 -0.004920 -0.004920 0.023793 0.000000 0.000000 0.000000
# 4 0.000000 0.000000 0.000000 0.056014 0.000000 0.000000
# 5 0.000000 0.000000 0.000000 0.000000 0.056014 0.000000
# 6 0.000000 0.000000 0.000000 0.000000 0.000000 0.076657
#
#
# Mechanical properties :
#
#
# Convention : Reuss Voigt Hill
#
# Bulk Modulus (GPa) = 52.38533 64.01448 58.19991
# Shear Modulus (GPa) = 19.03260 22.92344 20.97802
#
# Velocity S-wave (km/s) = 3.36105 3.68863 3.52864
# Velocity P-wave (km/s) = 6.79375 7.49243 7.15163
#
# Compressibility (1/GPa) = 0.01908931
#
# Stress axis : x y z
#
# Youngs Moduli (GPa) = 102.13998 102.13998 42.02967
#
# Poissons Ratio (x) = 0.23518 0.20678
# Poissons Ratio (y) = 0.23518 0.20678
# Poissons Ratio (z) = 0.50251 0.50251
#
# Static dielectric constant tensor:
#      x y z
#    x 3.187540 0.000000 0.000000 
#    y 0.000000 3.187540 0.000000 
#    z 0.000000 0.000000 2.842780 
# 
# 
# High freq. dielectric constant tensor:
#      x y z
#    x 1.637170 0.000000 0.000000 
#    y 0.000000 1.637170 0.000000 
#    z 0.000000 0.000000 1.623590 
# 
# From -- ./inp_files/10987.got.cif
#   From: 2010.03.12/outbox.cif.g09.slc.cpg/sg141_6_cif.got.tgz:10987.got - 2010.04.03 13:18:35.
