data_PCOD8320516
_publ_section_title
;
Structure prediction by ZEFSAII (Michael W. Deem and Ramdas Pophale) SiO2 
 PCOD8320516
Probable space group: I 4/M C M
;
_chemical_formula_sum "Si O2"
_cell_formula_units_Z 128
_cell_length_a 19.537934
_cell_length_b 19.537934
_cell_length_c 15.630322
_cell_angle_alpha 90.000000
_cell_angle_beta 90.000000
_cell_angle_gamma 90.000000
_cell_volume 5966.576337
_symmetry_space_group_name_H-M "I 4/M C M"
_symmetry_group_IT_number 140
_symmetry_cell_setting 'tetragonal'
loop_
_space_group_symop_operation_xyz
x,y,z
-y,x,z
-x,-y,z
y,-x,z
x,-y,1/2-z
-x,y,1/2-z
y,x,1/2-z
-y,-x,1/2-z
-x,-y,-z
y,-x,-z
x,y,-z
-y,x,-z
-x,y,1/2+z
x,-y,1/2+z
-y,-x,1/2+z
y,x,1/2+z
1/2+x,1/2+y,1/2+z
1/2-y,1/2+x,1/2+z
1/2-x,1/2-y,1/2+z
1/2+y,1/2-x,1/2+z
1/2+x,1/2-y,-z
1/2-x,1/2+y,-z
1/2+y,1/2+x,-z
1/2-y,1/2-x,-z
1/2-x,1/2-y,1/2-z
1/2+y,1/2-x,1/2-z
1/2+x,1/2+y,1/2-z
1/2-y,1/2+x,1/2-z
1/2-x,1/2+y,z
1/2+x,1/2-y,z
1/2-y,1/2-x,z
1/2+y,1/2+x,z
loop_
_atom_site_type_symbol
_atom_site_label
_atom_site_fract_x
_atom_site_fract_y
_atom_site_fract_z
Si Si1 0.713646 0.003252 0.657496
Si Si2 0.750369 0.358190 0.400326
Si Si3 0.431452 0.412525 0.000000
Si Si4 0.333113 0.385187 0.335482
Si Si5 0.498533 0.112176 0.500000
O O1 0.767589 0.065445 0.665868
O O2 0.657934 0.012412 0.583373
O O3 0.675976 0.000000 0.750000
O O4 0.753945 0.932921 0.641803
O O5 0.735140 0.366163 0.500000
O O6 0.824291 0.324291 0.384107
O O7 0.693077 0.310027 0.356026
O O8 0.511625 0.404209 0.000000
O O9 0.404766 0.380522 0.913552
O O10 0.380736 0.380736 0.250000
O O11 0.552265 0.052265 0.500000
O O12 0.421758 0.078243 0.500000
#
# Coordination Sequence:
#
# PCOD8320516 Si02
#       5
#    32  32  16  32  16
#     4  12  25  45  73 105 140 194 240 297 367 444
#     4  11  24  44  70  99 139 188 238 299 366 435
#     4  11  25  40  63  94 133 186 242 294 348 422
#     4  12  25  43  68 101 141 182 235 296 361 429
#     4  11  27  50  74 104 143 186 243 310 368 437
#
# _framework density 21.452839999999998
#
# number of rings (size 3 to 8) (size 9 to 14) (size 15 to 20)
#    0.000    0.500    5.000    3.000    0.000    3.500 
#    0.000    2.500    0.000    0.000    0.000    0.000 
#    0.000    0.000    0.000    0.000    0.000    0.000 
#
# Total GULP energy -793102.439522 kJ/mol
# GULP energy per Si atom -12392.225618 kJ/mol
# Density = 2.140401 g / cm^3
# Si number density = 21.452840 Si / 1000 Ang^3
#
#
#
# Elastic Constant Matrix: (Units=GPa)
#
#
# Indices 1 2 3 4 5 6 
#
# 1 111.8995 46.1890 58.8030 0.0000 0.0000 0.0000
# 2 46.1890 111.8958 58.8019 0.0000 0.0000 0.0000
# 3 58.8030 58.8019 210.9136 0.0000 0.0000 0.0000
# 4 0.0000 0.0000 0.0000 28.9027 0.0000 0.0000
# 5 0.0000 0.0000 0.0000 0.0000 28.9027 0.0000
# 6 0.0000 0.0000 0.0000 0.0000 0.0000 37.2080
#
#
#
# Elastic Compliance Matrix: (Units=1/GPa)
#
#
# Indices 1 2 3 4 5 6 
#
# 1 0.011600 -0.003619 -0.002225 0.000000 0.000000 0.000000
# 2 -0.003619 0.011600 -0.002225 0.000000 0.000000 0.000000
# 3 -0.002225 -0.002225 0.005982 0.000000 0.000000 0.000000
# 4 0.000000 0.000000 0.000000 0.034599 0.000000 0.000000
# 5 0.000000 0.000000 0.000000 0.000000 0.034599 0.000000
# 6 0.000000 0.000000 0.000000 0.000000 0.000000 0.026876
#
#
# Mechanical properties :
#
#
# Convention : Reuss Voigt Hill
#
# Bulk Modulus (GPa) = 76.66626 84.69964 80.68295
# Shear Modulus (GPa) = 34.30741 37.06369 35.68555
#
# Velocity S-wave (km/s) = 4.00334 4.16105 4.08296
# Velocity P-wave (km/s) = 7.56199 7.91538 7.74070
#
# Compressibility (1/GPa) = 0.01304355
#
# Stress axis : x y z
#
# Youngs Moduli (GPa) = 86.20962 86.20689 167.16887
#
# Poissons Ratio (x) = 0.31197 0.37196
# Poissons Ratio (y) = 0.31198 0.37197
# Poissons Ratio (z) = 0.19182 0.19182
#
# Static dielectric constant tensor:
#      x y z
#    x 4.043380 0.000000 0.000000 
#    y 0.000000 4.043390 0.000000 
#    z 0.000000 0.000000 4.313770 
# 
# 
# High freq. dielectric constant tensor:
#      x y z
#    x 1.841260 0.000000 0.000000 
#    y 0.000000 1.841260 0.000000 
#    z 0.000000 0.000000 1.872320 
# 
# From -- ./inp_files/4401.got.cif
#   From: 2010.06.25/outbox.cif.g09.slc.cpg/sg140_3_cif.got.tgz:4401.got - 2010.06.28 10:53:23.
