data_PCOD8320196
_publ_section_title
;
Structure prediction by ZEFSAII (Michael W. Deem and Ramdas Pophale) SiO2 
 PCOD8320196
Probable space group: I 4/M C M
;
_chemical_formula_sum "Si O2"
_cell_formula_units_Z 160
_cell_length_a 19.045062
_cell_length_b 19.045062
_cell_length_c 21.737079
_cell_angle_alpha 90.000000
_cell_angle_beta 90.000000
_cell_angle_gamma 90.000000
_cell_volume 7884.351276
_symmetry_space_group_name_H-M "I 4/M C M"
_symmetry_group_IT_number 140
_symmetry_cell_setting 'tetragonal'
loop_
_space_group_symop_operation_xyz
x,y,z
-y,x,z
-x,-y,z
y,-x,z
x,-y,1/2-z
-x,y,1/2-z
y,x,1/2-z
-y,-x,1/2-z
-x,-y,-z
y,-x,-z
x,y,-z
-y,x,-z
-x,y,1/2+z
x,-y,1/2+z
-y,-x,1/2+z
y,x,1/2+z
1/2+x,1/2+y,1/2+z
1/2-y,1/2+x,1/2+z
1/2-x,1/2-y,1/2+z
1/2+y,1/2-x,1/2+z
1/2+x,1/2-y,-z
1/2-x,1/2+y,-z
1/2+y,1/2+x,-z
1/2-y,1/2-x,-z
1/2-x,1/2-y,1/2-z
1/2+y,1/2-x,1/2-z
1/2+x,1/2+y,1/2-z
1/2-y,1/2+x,1/2-z
1/2-x,1/2+y,z
1/2+x,1/2-y,z
1/2-y,1/2-x,z
1/2+y,1/2+x,z
loop_
_atom_site_type_symbol
_atom_site_label
_atom_site_fract_x
_atom_site_fract_y
_atom_site_fract_z
Si Si1 0.750726 0.366235 0.876136
Si Si2 0.887228 0.503729 0.684642
Si Si3 0.301927 0.417794 0.750494
Si Si4 0.747378 0.636504 0.877461
Si Si5 0.207499 0.495898 0.068087
O O1 0.821991 0.321991 0.882326
O O2 0.746156 0.397527 0.807668
O O3 0.684143 0.319399 0.892855
O O4 0.750915 0.431300 0.923379
O O5 0.842826 0.500000 0.750000
O O6 0.918421 0.581579 0.674102
O O7 0.846877 0.483989 0.623132
O O8 0.949257 0.449257 0.694717
O O9 0.320842 0.500000 0.750000
O O10 0.375351 0.375351 0.750000
O O11 0.256266 0.395595 0.809248
O O12 0.818914 0.681087 0.883277
O O13 0.743389 0.573039 0.926771
O O14 0.172740 0.496761 0.000000
#
# Coordination Sequence:
#
# PCOD8320196 Si02
#       5
#    32  32  32  32  32
#     4  10  22  40  62  89 122 161 205 252 304 365
#     4   9  20  38  58  82 115 157 199 238 290 357
#     4  10  19  36  63  96 128 158 201 258 312 364
#     4  10  22  40  62  89 122 161 205 252 304 365
#     4  12  25  39  59  89 121 156 200 252 309 364
#
# _framework density 20.293362999999999
#
# number of rings (size 3 to 8) (size 9 to 14) (size 15 to 20)
#    0.000    1.800    2.000    2.400    2.800    6.600 
#    0.000    3.000    0.000    0.600    0.000    1.400 
#    0.000    0.000    0.000    0.000    0.000    0.000 
#
# Total GULP energy -991668.528037 kJ/mol
# GULP energy per Si atom -12395.856600 kJ/mol
# Density = 2.024717 g / cm^3
# Si number density = 20.293363 Si / 1000 Ang^3
#
#
#
# Elastic Constant Matrix: (Units=GPa)
#
#
# Indices 1 2 3 4 5 6 
#
# 1 108.5647 39.9329 49.6602 0.0000 0.0000 0.0000
# 2 39.9329 108.5647 49.6602 0.0000 0.0000 0.0000
# 3 49.6602 49.6602 155.0384 0.0000 0.0000 0.0000
# 4 0.0000 0.0000 0.0000 12.3518 0.0000 0.0000
# 5 0.0000 0.0000 0.0000 0.0000 12.3518 0.0000
# 6 0.0000 0.0000 0.0000 0.0000 0.0000 17.4188
#
#
#
# Elastic Compliance Matrix: (Units=1/GPa)
#
#
# Indices 1 2 3 4 5 6 
#
# 1 0.011570 -0.003000 -0.002745 0.000000 0.000000 0.000000
# 2 -0.003000 0.011570 -0.002745 0.000000 0.000000 0.000000
# 3 -0.002745 -0.002745 0.008209 0.000000 0.000000 0.000000
# 4 0.000000 0.000000 0.000000 0.080960 0.000000 0.000000
# 5 0.000000 0.000000 0.000000 0.000000 0.080960 0.000000
# 6 0.000000 0.000000 0.000000 0.000000 0.000000 0.057409
#
#
# Mechanical properties :
#
#
# Convention : Reuss Voigt Hill
#
# Bulk Modulus (GPa) = 69.59685 72.29714 70.94699
# Shear Modulus (GPa) = 18.35214 23.95213 21.15213
#
# Velocity S-wave (km/s) = 3.01049 3.43927 3.23200
# Velocity P-wave (km/s) = 6.81571 7.17459 6.99745
#
# Compressibility (1/GPa) = 0.01436847
#
# Stress axis : x y z
#
# Youngs Moduli (GPa) = 86.42803 86.42803 121.82395
#
# Poissons Ratio (x) = 0.25930 0.33442
# Poissons Ratio (y) = 0.25930 0.33442
# Poissons Ratio (z) = 0.23725 0.23725
#
# Static dielectric constant tensor:
#      x y z
#    x 3.802650 0.000000 0.000000 
#    y 0.000000 3.802650 0.000000 
#    z 0.000000 0.000000 3.611490 
# 
# 
# High freq. dielectric constant tensor:
#      x y z
#    x 1.795600 0.000000 0.000000 
#    y 0.000000 1.795600 0.000000 
#    z 0.000000 0.000000 1.786480 
# 
# From -- ./inp_files/6874.got.cif
#   From: 2010.06.25/outbox.cif.g09.slc.cpg/sg140_4_cif.got.tgz:6874.got - 2010.06.28 10:53:23.
