data_PCOD8320138
_publ_section_title
;
Structure prediction by ZEFSAII (Michael W. Deem and Ramdas Pophale) SiO2 
 PCOD8320138
Probable space group: I 4/M C M
;
_chemical_formula_sum "Si O2"
_cell_formula_units_Z 160
_cell_length_a 31.960874
_cell_length_b 31.960874
_cell_length_c 8.725614
_cell_angle_alpha 90.000000
_cell_angle_beta 90.000000
_cell_angle_gamma 90.000000
_cell_volume 8913.192598
_symmetry_space_group_name_H-M "I 4/M C M"
_symmetry_group_IT_number 140
_symmetry_cell_setting 'tetragonal'
loop_
_space_group_symop_operation_xyz
x,y,z
-y,x,z
-x,-y,z
y,-x,z
x,-y,1/2-z
-x,y,1/2-z
y,x,1/2-z
-y,-x,1/2-z
-x,-y,-z
y,-x,-z
x,y,-z
-y,x,-z
-x,y,1/2+z
x,-y,1/2+z
-y,-x,1/2+z
y,x,1/2+z
1/2+x,1/2+y,1/2+z
1/2-y,1/2+x,1/2+z
1/2-x,1/2-y,1/2+z
1/2+y,1/2-x,1/2+z
1/2+x,1/2-y,-z
1/2-x,1/2+y,-z
1/2+y,1/2+x,-z
1/2-y,1/2-x,-z
1/2-x,1/2-y,1/2-z
1/2+y,1/2-x,1/2-z
1/2+x,1/2+y,1/2-z
1/2-y,1/2+x,1/2-z
1/2-x,1/2+y,z
1/2+x,1/2-y,z
1/2-y,1/2-x,z
1/2+y,1/2+x,z
loop_
_atom_site_type_symbol
_atom_site_label
_atom_site_fract_x
_atom_site_fract_y
_atom_site_fract_z
Si Si1 0.166343 0.454804 0.681231
Si Si2 0.324988 0.175013 0.671558
Si Si3 0.391473 0.454249 0.817168
Si Si4 0.104723 0.604723 0.673633
Si Si5 0.386391 0.767404 0.320539
Si Si6 0.328385 0.390124 0.317692
O O1 0.174819 0.500000 0.750000
O O2 0.164027 0.457849 0.500000
O O3 0.122218 0.436547 0.742129
O O4 0.204776 0.425525 0.737107
O O5 0.313046 0.186955 0.500000
O O6 0.360154 0.139847 0.682117
O O7 0.342539 0.216695 0.751160
O O8 0.387770 0.500000 0.750000
O O9 0.433239 0.433239 0.750000
O O10 0.350925 0.429151 0.761327
O O11 0.393520 0.454942 0.000000
O O12 0.092989 0.592989 0.500000
O O13 0.381823 0.771832 0.500000
O O14 0.393468 0.719867 0.269959
O O15 0.347155 0.347155 0.250000
O O16 0.335223 0.391639 0.500000
#
# Coordination Sequence:
#
# PCOD8320138 Si02
#       6
#    32  16  32  16  32  32
#     4  10  19  32  50  75 103 133 167 208 252 299
#     4   9  17  29  50  76 100 128 170 215 258 303
#     4  11  22  38  58  81 107 137 172 212 256 306
#     4   9  17  31  49  71  99 133 167 205 250 301
#     4   9  19  34  52  73 103 137 171 211 259 307
#     4  10  20  36  55  77 104 139 176 212 257 310
#
# _framework density 17.95092
#
# number of rings (size 3 to 8) (size 9 to 14) (size 15 to 20)
#    0.000    2.200    0.000    4.800    0.000    5.800 
#    0.000    3.500    0.000    0.300    0.000    2.100 
#    0.000    0.000    0.000    0.000    0.000    0.000 
#
# Total GULP energy -992052.817137 kJ/mol
# GULP energy per Si atom -12400.660214 kJ/mol
# Density = 1.791006 g / cm^3
# Si number density = 17.950920 Si / 1000 Ang^3
#
#
#
# Elastic Constant Matrix: (Units=GPa)
#
#
# Indices 1 2 3 4 5 6 
#
# 1 89.2639 97.7222 55.5368 0.0000 0.0000 0.0000
# 2 97.7222 89.2649 55.5371 0.0000 0.0000 0.0000
# 3 55.5368 55.5371 103.3340 0.0000 0.0000 0.0000
# 4 0.0000 0.0000 0.0000 31.7553 0.0000 0.0000
# 5 0.0000 0.0000 0.0000 0.0000 31.7553 0.0000
# 6 0.0000 0.0000 0.0000 0.0000 0.0000 13.8616
#
#
#
# Elastic Compliance Matrix: (Units=1/GPa)
#
#
# Indices 1 2 3 4 5 6 
#
# 1 -0.055189 0.063045 -0.004222 0.000000 0.000000 0.000000
# 2 0.063045 -0.055189 -0.004222 0.000000 0.000000 0.000000
# 3 -0.004222 -0.004222 0.014216 0.000000 0.000000 0.000000
# 4 0.000000 0.000000 0.000000 0.031491 0.000000 0.000000
# 5 0.000000 0.000000 0.000000 0.000000 0.031491 0.000000
# 6 0.000000 0.000000 0.000000 0.000000 0.000000 0.072142
#
#
# Mechanical properties :
#
#
# Convention : Reuss Voigt Hill
#
# Bulk Modulus (GPa) = 76.69297 77.71722 77.20510
# Shear Modulus (GPa) = -75.88012 20.34557 -27.76727
#
# Velocity S-wave (km/s) = -6.50866 3.37025 -3.93726
# Velocity P-wave (km/s) = 3.69690 7.65069 4.73635
#
# Compressibility (1/GPa) = 0.01303900
#
# Stress axis : x y z
#
# Youngs Moduli (GPa) = -18.11947 -18.11967 70.34399
#
# Poissons Ratio (x) = 1.14235 0.29701
# Poissons Ratio (y) = 1.14234 0.29701
# Poissons Ratio (z) = -0.07651 -0.07651
#
# Static dielectric constant tensor:
#      x y z
#    x 3.344960 0.000000 0.000000 
#    y 0.000000 3.344950 0.000000 
#    z 0.000000 0.000000 3.445070 
# 
# 
# High freq. dielectric constant tensor:
#      x y z
#    x 1.687530 0.000000 0.000000 
#    y 0.000000 1.687530 0.000000 
#    z 0.000000 0.000000 1.710190 
# 
# From -- ./inp_files/1859.got.cif
#   From: 2010.06.25/outbox.cif.g09.slc.cpg/sg140_1_cif.got.tgz:1859.got - 2010.06.28 10:53:23.
