data_PCOD8320153
_publ_section_title
;
Structure prediction by ZEFSAII (Michael W. Deem and Ramdas Pophale) SiO2 
 PCOD8320153
Probable space group: I 4/M C M
;
_chemical_formula_sum "Si O2"
_cell_formula_units_Z 192
_cell_length_a 21.697102
_cell_length_b 21.697102
_cell_length_c 24.610452
_cell_angle_alpha 90.000000
_cell_angle_beta 90.000000
_cell_angle_gamma 90.000000
_cell_volume 11585.720614
_symmetry_space_group_name_H-M "I 4/M C M"
_symmetry_group_IT_number 140
_symmetry_cell_setting 'tetragonal'
loop_
_space_group_symop_operation_xyz
x,y,z
-y,x,z
-x,-y,z
y,-x,z
x,-y,1/2-z
-x,y,1/2-z
y,x,1/2-z
-y,-x,1/2-z
-x,-y,-z
y,-x,-z
x,y,-z
-y,x,-z
-x,y,1/2+z
x,-y,1/2+z
-y,-x,1/2+z
y,x,1/2+z
1/2+x,1/2+y,1/2+z
1/2-y,1/2+x,1/2+z
1/2-x,1/2-y,1/2+z
1/2+y,1/2-x,1/2+z
1/2+x,1/2-y,-z
1/2-x,1/2+y,-z
1/2+y,1/2+x,-z
1/2-y,1/2-x,-z
1/2-x,1/2-y,1/2-z
1/2+y,1/2-x,1/2-z
1/2+x,1/2+y,1/2-z
1/2-y,1/2+x,1/2-z
1/2-x,1/2+y,z
1/2+x,1/2-y,z
1/2-y,1/2-x,z
1/2+y,1/2+x,z
loop_
_atom_site_type_symbol
_atom_site_label
_atom_site_fract_x
_atom_site_fract_y
_atom_site_fract_z
Si Si1 0.604678 0.799666 0.500000
Si Si2 0.739740 0.658353 0.713076
Si Si3 0.070828 0.071584 0.061320
Si Si4 0.789406 0.607377 0.884288
Si Si5 0.170190 0.568329 0.728055
Si Si6 0.163475 0.157358 0.888804
Si Si7 0.195836 0.791904 0.000000
O O1 0.631039 0.868962 0.500000
O O2 0.568968 0.789577 0.557800
O O3 0.658779 0.750116 0.500000
O O4 0.684732 0.684732 0.750000
O O5 0.787996 0.712005 0.699890
O O6 0.773005 0.600666 0.741398
O O7 0.710523 0.634183 0.657097
O O8 0.107518 0.109627 0.106307
O O9 0.999498 0.085712 0.070469
O O10 0.089288 0.091832 0.000000
O O11 0.833927 0.666074 0.890450
O O12 0.812179 0.563538 0.835784
O O13 0.722969 0.635598 0.871312
O O14 0.158363 0.500000 0.750000
O O15 0.107897 0.607897 0.736045
O O16 0.200232 0.156106 0.945585
O O17 0.223251 0.723251 0.000000
#
# Coordination Sequence:
#
# PCOD8320153 Si02
#       7
#    16  32  32  32  32  32  16
#     4   7  12  22  40  68  98 125 150 193 251 296
#     4  10  19  33  52  74 102 134 162 198 259 316
#     4   9  19  35  49  64  95 137 177 212 243 284
#     4   9  16  28  48  75 106 130 159 206 258 308
#     4  10  21  36  54  76 104 139 177 214 253 303
#     4  11  17  28  51  75  96 131 166 207 256 311
#     4   9  16  24  40  73 103 120 152 196 250 307
#
# _framework density 16.572125
#
# number of rings (size 3 to 8) (size 9 to 14) (size 15 to 20)
#    0.000    2.500    2.500    3.000    0.000    1.500 
#    0.000    0.000    0.000    0.000    0.000    2.917 
#    0.000    3.333    0.000    0.000    0.000    0.000 
#
# Total GULP energy -1189800.470391 kJ/mol
# GULP energy per Si atom -12393.754900 kJ/mol
# Density = 1.653441 g / cm^3
# Si number density = 16.572125 Si / 1000 Ang^3
#
#
#
# Elastic Constant Matrix: (Units=GPa)
#
#
# Indices 1 2 3 4 5 6 
#
# 1 66.7745 35.0797 48.3923 0.0000 0.0000 0.0000
# 2 35.0797 66.7742 48.3923 0.0000 0.0000 0.0000
# 3 48.3923 48.3923 140.9262 0.0000 0.0000 0.0000
# 4 0.0000 0.0000 0.0000 24.3043 0.0000 0.0000
# 5 0.0000 0.0000 0.0000 0.0000 24.3043 0.0000
# 6 0.0000 0.0000 0.0000 0.0000 0.0000 18.5435
#
#
#
# Elastic Compliance Matrix: (Units=1/GPa)
#
#
# Indices 1 2 3 4 5 6 
#
# 1 0.023062 -0.008489 -0.005004 0.000000 0.000000 0.000000
# 2 -0.008489 0.023062 -0.005004 0.000000 0.000000 0.000000
# 3 -0.005004 -0.005004 0.010533 0.000000 0.000000 0.000000
# 4 0.000000 0.000000 0.000000 0.041145 0.000000 0.000000
# 5 0.000000 0.000000 0.000000 0.000000 0.041145 0.000000
# 6 0.000000 0.000000 0.000000 0.000000 0.000000 0.053927
#
#
# Mechanical properties :
#
#
# Convention : Reuss Voigt Hill
#
# Bulk Modulus (GPa) = 50.85943 59.80038 55.32990
# Shear Modulus (GPa) = 21.14853 22.93779 22.04316
#
# Velocity S-wave (km/s) = 3.57620 3.72441 3.65106
# Velocity P-wave (km/s) = 6.91438 7.39312 7.15775
#
# Compressibility (1/GPa) = 0.01966204
#
# Stress axis : x y z
#
# Youngs Moduli (GPa) = 43.36132 43.36108 94.94244
#
# Poissons Ratio (x) = 0.36809 0.47511
# Poissons Ratio (y) = 0.36809 0.47512
# Poissons Ratio (z) = 0.21699 0.21699
#
# Static dielectric constant tensor:
#      x y z
#    x 2.831370 0.000000 0.000000 
#    y 0.000000 2.831370 0.000000 
#    z 0.000000 0.000000 3.498070 
# 
# 
# High freq. dielectric constant tensor:
#      x y z
#    x 1.608330 0.000000 0.000000 
#    y 0.000000 1.608330 0.000000 
#    z 0.000000 0.000000 1.652630 
# 
# From -- ./inp_files/9912.got.cif
#   From: 2010.06.25/outbox.cif.g09.slc.cpg/sg140_5_cif.got.tgz:9912.got - 2010.06.28 10:53:23.
