data_PCOD8320521
_publ_section_title
;
Structure prediction by ZEFSAII (Michael W. Deem and Ramdas Pophale) SiO2 
 PCOD8320521
Probable space group: I 4/M C M
;
_chemical_formula_sum "Si O2"
_cell_formula_units_Z 160
_cell_length_a 21.779655
_cell_length_b 21.779655
_cell_length_c 17.946740
_cell_angle_alpha 90.000000
_cell_angle_beta 90.000000
_cell_angle_gamma 90.000000
_cell_volume 8513.096634
_symmetry_space_group_name_H-M "I 4/M C M"
_symmetry_group_IT_number 140
_symmetry_cell_setting 'tetragonal'
loop_
_space_group_symop_operation_xyz
x,y,z
-y,x,z
-x,-y,z
y,-x,z
x,-y,1/2-z
-x,y,1/2-z
y,x,1/2-z
-y,-x,1/2-z
-x,-y,-z
y,-x,-z
x,y,-z
-y,x,-z
-x,y,1/2+z
x,-y,1/2+z
-y,-x,1/2+z
y,x,1/2+z
1/2+x,1/2+y,1/2+z
1/2-y,1/2+x,1/2+z
1/2-x,1/2-y,1/2+z
1/2+y,1/2-x,1/2+z
1/2+x,1/2-y,-z
1/2-x,1/2+y,-z
1/2+y,1/2+x,-z
1/2-y,1/2-x,-z
1/2-x,1/2-y,1/2-z
1/2+y,1/2-x,1/2-z
1/2+x,1/2+y,1/2-z
1/2-y,1/2+x,1/2-z
1/2-x,1/2+y,z
1/2+x,1/2-y,z
1/2-y,1/2-x,z
1/2+y,1/2+x,z
loop_
_atom_site_type_symbol
_atom_site_label
_atom_site_fract_x
_atom_site_fract_y
_atom_site_fract_z
Si Si1 0.829505 0.429394 0.084857
Si Si2 0.067762 0.157705 0.778306
Si Si3 0.461379 0.865563 0.181366
Si Si4 0.777408 0.624653 0.728038
Si Si5 0.459808 0.592109 0.084010
O O1 0.894569 0.394569 0.087941
O O2 0.840187 0.498548 0.113012
O O3 0.782444 0.395773 0.141221
O O4 0.803281 0.429733 0.000000
O O5 0.091035 0.091035 0.750000
O O6 0.119498 0.206879 0.753168
O O7 0.000000 0.175290 0.750000
O O8 0.063396 0.149807 0.867440
O O9 0.500000 0.893691 0.250000
O O10 0.418547 0.918547 0.147679
O O11 0.421794 0.811218 0.216751
O O12 0.806803 0.693198 0.737041
O O13 0.420652 0.531145 0.100866
O O14 0.450185 0.613395 0.000000
#
# Coordination Sequence:
#
# PCOD8320521 Si02
#       5
#    32  32  32  32  32
#     4   9  17  30  49  73 102 137 182 237 291 344
#     4  12  22  34  58  89 117 146 186 238 286 343
#     4   9  16  28  46  67  98 137 179 229 285 342
#     4   9  20  38  54  72 104 150 199 234 269 325
#     4   9  18  35  57  84 122 156 177 215 282 353
#
# _framework density 18.794571000000001
#
# number of rings (size 3 to 8) (size 9 to 14) (size 15 to 20)
#    0.000    2.400    2.000    4.200    0.000    2.400 
#    0.000    6.000    0.000    1.800    0.000    0.000 
#    0.000    0.000    0.000    0.000    0.000    0.000 
#
# Total GULP energy -991360.550454 kJ/mol
# GULP energy per Si atom -12392.006881 kJ/mol
# Density = 1.875179 g / cm^3
# Si number density = 18.794571 Si / 1000 Ang^3
#
#
#
# Elastic Constant Matrix: (Units=GPa)
#
#
# Indices 1 2 3 4 5 6 
#
# 1 74.7403 23.8049 45.1180 0.0000 0.0000 0.0000
# 2 23.8049 74.7403 45.1180 0.0000 0.0000 0.0000
# 3 45.1180 45.1180 144.2577 0.0000 0.0000 0.0000
# 4 0.0000 0.0000 0.0000 24.0765 0.0000 0.0000
# 5 0.0000 0.0000 0.0000 0.0000 24.0765 0.0000
# 6 0.0000 0.0000 0.0000 0.0000 0.0000 20.3063
#
#
#
# Elastic Compliance Matrix: (Units=1/GPa)
#
#
# Indices 1 2 3 4 5 6 
#
# 1 0.016926 -0.002706 -0.004447 0.000000 0.000000 0.000000
# 2 -0.002706 0.016926 -0.004447 0.000000 0.000000 0.000000
# 3 -0.004447 -0.004447 0.009714 0.000000 0.000000 0.000000
# 4 0.000000 0.000000 0.000000 0.041534 0.000000 0.000000
# 5 0.000000 0.000000 0.000000 0.000000 0.041534 0.000000
# 6 0.000000 0.000000 0.000000 0.000000 0.000000 0.049246
#
#
# Mechanical properties :
#
#
# Convention : Reuss Voigt Hill
#
# Bulk Modulus (GPa) = 49.10551 57.98003 53.54277
# Shear Modulus (GPa) = 24.28696 25.67168 24.97932
#
# Velocity S-wave (km/s) = 3.59866 3.69983 3.64960
# Velocity P-wave (km/s) = 6.59177 7.01199 6.80512
#
# Compressibility (1/GPa) = 0.02036431
#
# Stress axis : x y z
#
# Youngs Moduli (GPa) = 59.07926 59.07926 102.94395
#
# Poissons Ratio (x) = 0.15989 0.45784
# Poissons Ratio (y) = 0.15989 0.45784
# Poissons Ratio (z) = 0.26275 0.26275
#
# Static dielectric constant tensor:
#      x y z
#    x 3.252530 0.000000 0.000000 
#    y 0.000000 3.252530 0.000000 
#    z 0.000000 0.000000 3.493490 
# 
# 
# High freq. dielectric constant tensor:
#      x y z
#    x 1.711610 0.000000 0.000000 
#    y 0.000000 1.711610 0.000000 
#    z 0.000000 0.000000 1.725670 
# 
# From -- ./inp_files/6872.got.cif
#   From: 2010.06.25/outbox.cif.g09.slc.cpg/sg140_4_cif.got.tgz:6872.got - 2010.06.28 10:53:23.
