data_PCOD8320297
_publ_section_title
;
Structure prediction by ZEFSAII (Michael W. Deem and Ramdas Pophale) SiO2 
 PCOD8320297
Probable space group: I 4/M C M
;
_chemical_formula_sum "Si O2"
_cell_formula_units_Z 160
_cell_length_a 30.482290
_cell_length_b 30.482290
_cell_length_c 8.982566
_cell_angle_alpha 90.000000
_cell_angle_beta 90.000000
_cell_angle_gamma 90.000000
_cell_volume 8346.330883
_symmetry_space_group_name_H-M "I 4/M C M"
_symmetry_group_IT_number 140
_symmetry_cell_setting 'tetragonal'
loop_
_space_group_symop_operation_xyz
x,y,z
-y,x,z
-x,-y,z
y,-x,z
x,-y,1/2-z
-x,y,1/2-z
y,x,1/2-z
-y,-x,1/2-z
-x,-y,-z
y,-x,-z
x,y,-z
-y,x,-z
-x,y,1/2+z
x,-y,1/2+z
-y,-x,1/2+z
y,x,1/2+z
1/2+x,1/2+y,1/2+z
1/2-y,1/2+x,1/2+z
1/2-x,1/2-y,1/2+z
1/2+y,1/2-x,1/2+z
1/2+x,1/2-y,-z
1/2-x,1/2+y,-z
1/2+y,1/2+x,-z
1/2-y,1/2-x,-z
1/2-x,1/2-y,1/2-z
1/2+y,1/2-x,1/2-z
1/2+x,1/2+y,1/2-z
1/2-y,1/2+x,1/2-z
1/2-x,1/2+y,z
1/2+x,1/2-y,z
1/2-y,1/2-x,z
1/2+y,1/2+x,z
loop_
_atom_site_type_symbol
_atom_site_label
_atom_site_fract_x
_atom_site_fract_y
_atom_site_fract_z
Si Si1 0.547784 0.615341 0.675581
Si Si2 0.388267 0.888267 0.676121
Si Si3 0.258425 0.312814 0.340409
Si Si4 0.954005 0.454005 0.678360
Si Si5 0.287752 0.896836 0.676062
Si Si6 0.045898 0.214133 0.827278
O O1 0.500000 0.609055 0.750000
O O2 0.582193 0.582193 0.750000
O O3 0.543468 0.605121 0.500000
O O4 0.566123 0.665324 0.699436
O O5 0.395898 0.895898 0.500000
O O6 0.418339 0.918339 0.777906
O O7 0.338591 0.901164 0.721159
O O8 0.302824 0.302824 0.250000
O O9 0.274412 0.330443 0.500000
O O10 0.231814 0.268187 0.360355
O O11 0.227516 0.349067 0.266445
O O12 0.939237 0.500000 0.750000
O O13 0.958114 0.458114 0.500000
O O14 0.283332 0.902671 0.500000
O O15 0.255238 0.929389 0.757382
O O16 0.000000 0.213618 0.750000
O O17 0.040561 0.224112 0.000000
#
# Coordination Sequence:
#
# PCOD8320297 Si02
#       6
#    32  16  32  16  32  32
#     4  10  21  38  60  86 117 152 192 240 292 347
#     4  10  21  39  61  87 118 153 192 237 286 339
#     4   9  17  31  50  74 104 141 181 222 270 319
#     4  11  23  42  67  93 119 149 183 225 279 343
#     4  10  20  36  58  81 112 151 192 236 284 335
#     4  10  22  39  58  81 111 148 191 235 282 335
#
# _framework density 19.170100000000001
#
# number of rings (size 3 to 8) (size 9 to 14) (size 15 to 20)
#    0.000    2.100    1.000    2.400    0.000    5.800 
#    0.000    5.000    0.000    0.000    0.000    0.000 
#    0.000    0.000    0.000    0.000    0.000    0.000 
#
# Total GULP energy -991186.412461 kJ/mol
# GULP energy per Si atom -12389.830156 kJ/mol
# Density = 1.912647 g / cm^3
# Si number density = 19.170100 Si / 1000 Ang^3
#
#
#
# Elastic Constant Matrix: (Units=GPa)
#
#
# Indices 1 2 3 4 5 6 
#
# 1 100.5025 74.0021 55.4059 0.0000 0.0000 0.0000
# 2 74.0021 100.5025 55.4059 0.0000 0.0000 0.0000
# 3 55.4059 55.4059 85.0416 0.0000 0.0000 0.0000
# 4 0.0000 0.0000 0.0000 33.1687 0.0000 0.0000
# 5 0.0000 0.0000 0.0000 0.0000 33.1687 0.0000
# 6 0.0000 0.0000 0.0000 0.0000 0.0000 40.3394
#
#
#
# Elastic Compliance Matrix: (Units=1/GPa)
#
#
# Indices 1 2 3 4 5 6 
#
# 1 0.023755 -0.013980 -0.006368 0.000000 0.000000 0.000000
# 2 -0.013980 0.023755 -0.006368 0.000000 0.000000 0.000000
# 3 -0.006368 -0.006368 0.020057 0.000000 0.000000 0.000000
# 4 0.000000 0.000000 0.000000 0.030149 0.000000 0.000000
# 5 0.000000 0.000000 0.000000 0.000000 0.030149 0.000000
# 6 0.000000 0.000000 0.000000 0.000000 0.000000 0.024790
#
#
# Mechanical properties :
#
#
# Convention : Reuss Voigt Hill
#
# Bulk Modulus (GPa) = 70.75656 72.85271 71.80463
# Shear Modulus (GPa) = 23.71937 28.08420 25.90178
#
# Velocity S-wave (km/s) = 3.52136 3.83168 3.67979
# Velocity P-wave (km/s) = 7.31596 7.59352 7.45603
#
# Compressibility (1/GPa) = 0.01413297
#
# Stress axis : x y z
#
# Youngs Moduli (GPa) = 42.09682 42.09682 49.85844
#
# Poissons Ratio (x) = 0.58853 0.31750
# Poissons Ratio (y) = 0.58853 0.31750
# Poissons Ratio (z) = 0.26808 0.26808
#
# Static dielectric constant tensor:
#      x y z
#    x 4.036910 0.000000 0.000000 
#    y 0.000000 4.036910 0.000000 
#    z 0.000000 0.000000 3.815370 
# 
# 
# High freq. dielectric constant tensor:
#      x y z
#    x 1.745220 0.000000 0.000000 
#    y 0.000000 1.745220 0.000000 
#    z 0.000000 0.000000 1.749580 
# 
# From -- ./inp_files/1823.got.cif
#   From: 2010.06.25/outbox.cif.g09.slc.cpg/sg140_1_cif.got.tgz:1823.got - 2010.06.28 10:53:23.
