data_PCOD8320254
_publ_section_title
;
Structure prediction by ZEFSAII (Michael W. Deem and Ramdas Pophale) SiO2 
 PCOD8320254
Probable space group: I 4/M C M
;
_chemical_formula_sum "Si O2"
_cell_formula_units_Z 240
_cell_length_a 22.003790
_cell_length_b 22.003790
_cell_length_c 25.875619
_cell_angle_alpha 90.000000
_cell_angle_beta 90.000000
_cell_angle_gamma 90.000000
_cell_volume 12528.114986
_symmetry_space_group_name_H-M "I 4/M C M"
_symmetry_group_IT_number 140
_symmetry_cell_setting 'tetragonal'
loop_
_space_group_symop_operation_xyz
x,y,z
-y,x,z
-x,-y,z
y,-x,z
x,-y,1/2-z
-x,y,1/2-z
y,x,1/2-z
-y,-x,1/2-z
-x,-y,-z
y,-x,-z
x,y,-z
-y,x,-z
-x,y,1/2+z
x,-y,1/2+z
-y,-x,1/2+z
y,x,1/2+z
1/2+x,1/2+y,1/2+z
1/2-y,1/2+x,1/2+z
1/2-x,1/2-y,1/2+z
1/2+y,1/2-x,1/2+z
1/2+x,1/2-y,-z
1/2-x,1/2+y,-z
1/2+y,1/2+x,-z
1/2-y,1/2-x,-z
1/2-x,1/2-y,1/2-z
1/2+y,1/2-x,1/2-z
1/2+x,1/2+y,1/2-z
1/2-y,1/2+x,1/2-z
1/2-x,1/2+y,z
1/2+x,1/2-y,z
1/2-y,1/2-x,z
1/2+y,1/2+x,z
loop_
_atom_site_type_symbol
_atom_site_label
_atom_site_fract_x
_atom_site_fract_y
_atom_site_fract_z
Si Si1 0.620024 0.219158 0.177279
Si Si2 0.423143 0.436503 0.308449
Si Si3 0.579153 0.334297 0.599618
Si Si4 0.688742 0.283995 0.358157
Si Si5 0.495764 0.782579 0.625508
Si Si6 0.001166 0.597496 0.560796
Si Si7 0.603381 0.799388 0.792981
Si Si8 0.910545 0.954498 0.000000
O O1 0.658079 0.158079 0.166440
O O2 0.661530 0.278196 0.171324
O O3 0.566590 0.225331 0.136178
O O4 0.590785 0.218000 0.233971
O O5 0.491792 0.416314 0.318794
O O6 0.412078 0.412078 0.250000
O O7 0.374707 0.410070 0.348523
O O8 0.646109 0.304555 0.593829
O O9 0.528750 0.281563 0.603765
O O10 0.564259 0.375049 0.550960
O O11 0.737563 0.237563 0.382279
O O12 0.647084 0.251978 0.315567
O O13 0.490048 0.836394 0.584392
O O14 0.460321 0.801605 0.677320
O O15 0.004767 0.606408 0.500000
O O16 0.943888 0.556113 0.576265
O O17 0.063155 0.563155 0.579832
O O18 0.634712 0.865289 0.797432
O O19 0.973720 0.919292 0.000000
#
# Coordination Sequence:
#
# PCOD8320254 Si02
#       8
#    32  32  32  32  32  32  32  16
#     4  10  20  34  55  81 117 159 189 228 282 343
#     4   9  19  37  59  86 119 152 193 252 309 349
#     4  11  24  38  61  90 115 158 197 246 293 360
#     4   9  20  38  57  79 113 157 198 237 281 338
#     4  11  22  33  54  87 120 147 188 244 292 349
#     4   9  19  38  63  85 107 144 195 251 308 358
#     4   9  18  35  54  78 114 154 196 231 278 341
#     4  11  26  46  67  86 116 157 199 244 298 360
#
# _framework density 19.156912999999999
#
# number of rings (size 3 to 8) (size 9 to 14) (size 15 to 20)
#    0.000    2.200    0.000    3.200    4.667    5.333 
#    4.800    0.333    0.000    0.000    0.000    5.600 
#    0.000    0.000    0.000    0.000    0.000    0.000 
#
# Total GULP energy -1487477.264262 kJ/mol
# GULP energy per Si atom -12395.643869 kJ/mol
# Density = 1.911331 g / cm^3
# Si number density = 19.156913 Si / 1000 Ang^3
#
#
#
# Elastic Constant Matrix: (Units=GPa)
#
#
# Indices 1 2 3 4 5 6 
#
# 1 101.2071 39.7912 51.3050 0.0000 0.0000 0.0000
# 2 39.7912 101.2071 51.3050 0.0000 0.0000 0.0000
# 3 51.3050 51.3050 91.4867 0.0000 0.0000 0.0000
# 4 0.0000 0.0000 0.0000 12.0721 0.0000 0.0000
# 5 0.0000 0.0000 0.0000 0.0000 12.0721 0.0000
# 6 0.0000 0.0000 0.0000 0.0000 0.0000 15.1716
#
#
#
# Elastic Compliance Matrix: (Units=1/GPa)
#
#
# Indices 1 2 3 4 5 6 
#
# 1 0.014132 -0.002150 -0.006720 0.000000 0.000000 0.000000
# 2 -0.002150 0.014132 -0.006720 0.000000 0.000000 0.000000
# 3 -0.006720 -0.006720 0.018467 0.000000 0.000000 0.000000
# 4 0.000000 0.000000 0.000000 0.082835 0.000000 0.000000
# 5 0.000000 0.000000 0.000000 0.000000 0.082835 0.000000
# 6 0.000000 0.000000 0.000000 0.000000 0.000000 0.065913
#
#
# Mechanical properties :
#
#
# Convention : Reuss Voigt Hill
#
# Bulk Modulus (GPa) = 64.29434 64.30036 64.29735
# Shear Modulus (GPa) = 15.88923 17.96315 16.92619
#
# Velocity S-wave (km/s) = 2.88310 3.06549 2.97569
# Velocity P-wave (km/s) = 6.68714 6.79467 6.74112
#
# Compressibility (1/GPa) = 0.01555347
#
# Stress axis : x y z
#
# Youngs Moduli (GPa) = 70.75918 70.75918 54.15000
#
# Poissons Ratio (x) = 0.15213 0.36387
# Poissons Ratio (y) = 0.15213 0.36387
# Poissons Ratio (z) = 0.47548 0.47548
#
# Static dielectric constant tensor:
#      x y z
#    x 3.722740 0.000000 0.000000 
#    y 0.000000 3.722740 0.000000 
#    z 0.000000 0.000000 3.476670 
# 
# 
# High freq. dielectric constant tensor:
#      x y z
#    x 1.754930 0.000000 0.000000 
#    y 0.000000 1.754930 0.000000 
#    z 0.000000 0.000000 1.721330 
# 
# From -- ./inp_files/10959.got.cif
#   From: 2010.06.25/outbox.cif.g09.slc.cpg/sg140_6_cif.got.tgz:10959.got - 2010.06.28 10:53:23.
