data_PCOD8320737
_publ_section_title
;
Structure prediction by ZEFSAII (Michael W. Deem and Ramdas Pophale) SiO2 
 PCOD8320737
Probable space group: I 41/A M D
;
_chemical_formula_sum "Si O2"
_cell_formula_units_Z 176
_cell_length_a 17.222327
_cell_length_b 17.222327
_cell_length_c 32.236029
_cell_angle_alpha 90.000000
_cell_angle_beta 90.000000
_cell_angle_gamma 90.000000
_cell_volume 9561.481732
_symmetry_space_group_name_H-M "I 41/A M D"
_symmetry_group_IT_number 141
_space_group.IT_coordinate_system_code '2'
_symmetry_cell_setting 'tetragonal'
loop_
_space_group_symop_operation_xyz
x,y,z
1/4-y,3/4+x,1/4+z
-x,1/2-y,z
1/4+y,1/4-x,3/4+z
x,-y,-z
-x,1/2+y,-z
1/4+y,3/4+x,1/4-z
1/4-y,1/4-x,3/4-z
-x,-y,-z
3/4+y,1/4-x,3/4-z
x,1/2+y,-z
3/4-y,3/4+x,1/4-z
-x,y,z
x,1/2-y,z
3/4-y,1/4-x,3/4+z
3/4+y,3/4+x,1/4+z
1/2+x,1/2+y,1/2+z
3/4-y,1/4+x,3/4+z
1/2-x,-y,1/2+z
3/4+y,3/4-x,1/4+z
1/2+x,1/2-y,1/2-z
1/2-x,y,1/2-z
3/4+y,1/4+x,3/4-z
3/4-y,3/4-x,1/4-z
1/2-x,1/2-y,1/2-z
1/4+y,3/4-x,1/4-z
1/2+x,y,1/2-z
1/4-y,1/4+x,3/4-z
1/2-x,1/2+y,1/2+z
1/2+x,-y,1/2+z
1/4-y,3/4-x,1/4+z
1/4+y,1/4+x,3/4+z
loop_
_atom_site_type_symbol
_atom_site_label
_atom_site_fract_x
_atom_site_fract_y
_atom_site_fract_z
Si Si1 0.802951 0.836215 0.644590
Si Si2 0.171614 0.120606 0.086327
Si Si3 0.589105 0.968857 0.651465
Si Si4 0.000000 0.156812 0.716638
Si Si5 0.778803 0.007910 0.549001
Si Si6 0.120186 0.129815 0.875000
Si Si7 0.415343 0.250000 0.556490
O O1 0.815988 0.750000 0.662671
O O2 0.883255 0.866745 0.625000
O O3 0.741358 0.832180 0.607178
O O4 0.774086 0.891680 0.681454
O O5 0.109423 0.104591 0.123117
O O6 0.127433 0.171858 0.052951
O O7 0.205809 0.041003 0.066489
O O8 0.500000 0.965165 0.668582
O O9 0.650652 0.979959 0.689135
O O10 0.599944 0.039931 0.619389
O O11 0.000000 0.118991 0.763193
O O12 0.000000 0.250000 0.711891
O O13 0.783728 0.000000 0.500000
O O14 0.076863 0.155531 0.833420
O O15 0.500000 0.250000 0.537795
#
# Coordination Sequence:
#
# PCOD8320737 Si02
#       7
#    32  32  32  16  32  16  16
#     4   9  18  36  60  84 113 154 192 233 297 355
#     4  10  20  38  57  81 118 150 191 245 291 352
#     4  11  21  36  60  82 110 155 201 238 294 355
#     4  11  24  36  56  86 114 147 192 247 300 344
#     4  10  22  37  57  88 119 153 198 245 298 362
#     4  12  19  34  54  74 104 152 191 226 278 342
#     4  11  22  36  52  80 111 149 192 233 287 342
#
# _framework density 18.407188000000001
#
# number of rings (size 3 to 8) (size 9 to 14) (size 15 to 20)
#    0.000    1.636    4.545    1.636    2.545    0.545 
#    0.000    0.000    0.000    4.364    0.000    0.000 
#    0.000    0.000    0.000    0.000    0.000    0.000 
#
# Total GULP energy -1090381.906772 kJ/mol
# GULP energy per Si atom -12390.703486 kJ/mol
# Density = 1.836529 g / cm^3
# Si number density = 18.407188 Si / 1000 Ang^3
#
#
#
# Elastic Constant Matrix: (Units=GPa)
#
#
# Indices 1 2 3 4 5 6 
#
# 1 120.0403 44.9506 46.4855 0.0000 0.0000 0.0000
# 2 44.9506 120.0409 46.4860 0.0000 0.0000 0.0000
# 3 46.4855 46.4860 133.5098 0.0000 0.0000 0.0000
# 4 0.0000 0.0000 0.0000 23.9837 0.0000 0.0000
# 5 0.0000 0.0000 0.0000 0.0000 23.9830 0.0000
# 6 0.0000 0.0000 0.0000 0.0000 0.0000 19.2811
#
#
#
# Elastic Compliance Matrix: (Units=1/GPa)
#
#
# Indices 1 2 3 4 5 6 
#
# 1 0.010429 -0.002889 -0.002625 0.000000 0.000000 0.000000
# 2 -0.002889 0.010429 -0.002625 0.000000 0.000000 0.000000
# 3 -0.002625 -0.002625 0.009318 0.000000 0.000000 0.000000
# 4 0.000000 0.000000 0.000000 0.041695 0.000000 0.000000
# 5 0.000000 0.000000 0.000000 0.000000 0.041696 0.000000
# 6 0.000000 0.000000 0.000000 0.000000 0.000000 0.051864
#
#
# Mechanical properties :
#
#
# Convention : Reuss Voigt Hill
#
# Bulk Modulus (GPa) = 71.95615 72.15947 72.05781
# Shear Modulus (GPa) = 26.83232 29.16083 27.99658
#
# Velocity S-wave (km/s) = 3.82214 3.98453 3.90418
# Velocity P-wave (km/s) = 7.65862 7.77532 7.71719
#
# Compressibility (1/GPa) = 0.01389735
#
# Stress axis : x y z
#
# Youngs Moduli (GPa) = 95.88783 95.88805 107.31535
#
# Poissons Ratio (x) = 0.27697 0.28174
# Poissons Ratio (y) = 0.27697 0.28175
# Poissons Ratio (z) = 0.25174 0.25175
#
# Static dielectric constant tensor:
#      x y z
#    x 3.446640 0.000000 0.000000 
#    y 0.000000 3.446640 0.000000 
#    z 0.000000 0.000000 3.197810 
# 
# 
# High freq. dielectric constant tensor:
#      x y z
#    x 1.714620 0.000000 0.000000 
#    y 0.000000 1.714620 0.000000 
#    z 0.000000 0.000000 1.700300 
# 
# From -- ./inp_files/14418.got.cif
#   From: 2010.03.12/outbox.cif.g09.slc.cpg/sg141_8_cif.got.tgz:14418.got - 2010.04.03 13:18:35.
