data_PCOD8320523
_publ_section_title
;
Structure prediction by ZEFSAII (Michael W. Deem and Ramdas Pophale) SiO2 
 PCOD8320523
Probable space group: I 4/M C M
;
_chemical_formula_sum "Si O2"
_cell_formula_units_Z 128
_cell_length_a 30.312195
_cell_length_b 30.312195
_cell_length_c 9.919524
_cell_angle_alpha 90.000000
_cell_angle_beta 90.000000
_cell_angle_gamma 90.000000
_cell_volume 9114.347961
_symmetry_space_group_name_H-M "I 4/M C M"
_symmetry_group_IT_number 140
_symmetry_cell_setting 'tetragonal'
loop_
_space_group_symop_operation_xyz
x,y,z
-y,x,z
-x,-y,z
y,-x,z
x,-y,1/2-z
-x,y,1/2-z
y,x,1/2-z
-y,-x,1/2-z
-x,-y,-z
y,-x,-z
x,y,-z
-y,x,-z
-x,y,1/2+z
x,-y,1/2+z
-y,-x,1/2+z
y,x,1/2+z
1/2+x,1/2+y,1/2+z
1/2-y,1/2+x,1/2+z
1/2-x,1/2-y,1/2+z
1/2+y,1/2-x,1/2+z
1/2+x,1/2-y,-z
1/2-x,1/2+y,-z
1/2+y,1/2+x,-z
1/2-y,1/2-x,-z
1/2-x,1/2-y,1/2-z
1/2+y,1/2-x,1/2-z
1/2+x,1/2+y,1/2-z
1/2-y,1/2+x,1/2-z
1/2-x,1/2+y,z
1/2+x,1/2-y,z
1/2-y,1/2-x,z
1/2+y,1/2+x,z
loop_
_atom_site_type_symbol
_atom_site_label
_atom_site_fract_x
_atom_site_fract_y
_atom_site_fract_z
Si Si1 0.800887 0.536735 0.849566
Si Si2 0.464069 0.303889 0.648112
Si Si3 0.135785 0.196339 0.158834
Si Si4 0.365998 0.796314 0.839754
O O1 0.821472 0.500000 0.750000
O O2 0.748541 0.532226 0.856085
O O3 0.812298 0.585466 0.791831
O O4 0.820525 0.529751 0.000000
O O5 0.500000 0.324426 0.750000
O O6 0.474750 0.322949 0.500000
O O7 0.414618 0.317353 0.690394
O O8 0.166375 0.166375 0.250000
O O9 0.144360 0.246584 0.206812
O O10 0.146375 0.190396 0.000000
O O11 0.329151 0.829151 0.778711
O O12 0.366012 0.797245 0.000000
#
# Coordination Sequence:
#
# PCOD8320523 Si02
#       4
#    32  32  32  32
#     4   8  13  22  37  54  70  90 117 151 190 225
#     4   8  14  24  37  53  71  91 118 152 188 222
#     4   9  17  27  38  54  76 101 129 158 184 213
#     4   8  14  25  39  53  72 101 133 158 180 214
#
# _framework density 14.043792
#
# number of rings (size 3 to 8) (size 9 to 14) (size 15 to 20)
#    0.000    3.750    0.000    3.000    0.000    1.500 
#    0.000    3.750    0.000    2.250    0.000    0.000 
#    0.000    1.000    0.000   11.750    0.000    5.000 
#
# Total GULP energy -792986.299932 kJ/mol
# GULP energy per Si atom -12390.410936 kJ/mol
# Density = 1.401183 g / cm^3
# Si number density = 14.043792 Si / 1000 Ang^3
#
#
#
# Elastic Constant Matrix: (Units=GPa)
#
#
# Indices 1 2 3 4 5 6 
#
# 1 83.2429 52.7592 47.9854 0.0000 0.0000 0.0000
# 2 52.7592 83.2429 47.9854 0.0000 0.0000 0.0000
# 3 47.9854 47.9854 63.3512 0.0000 0.0000 0.0000
# 4 0.0000 0.0000 0.0000 16.6145 0.0000 0.0000
# 5 0.0000 0.0000 0.0000 0.0000 16.6145 0.0000
# 6 0.0000 0.0000 0.0000 0.0000 0.0000 0.0222
#
#
#
# Elastic Compliance Matrix: (Units=1/GPa)
#
#
# Indices 1 2 3 4 5 6 
#
# 1 0.024300 -0.008504 -0.011964 0.000000 0.000000 0.000000
# 2 -0.008504 0.024300 -0.011964 0.000000 0.000000 0.000000
# 3 -0.011964 -0.011964 0.033910 0.000000 0.000000 0.000000
# 4 0.000000 0.000000 0.000000 0.060188 0.000000 0.000000
# 5 0.000000 0.000000 0.000000 0.000000 0.060188 0.000000
# 6 0.000000 0.000000 0.000000 0.000000 0.000000 45.143261
#
#
# Mechanical properties :
#
#
# Convention : Reuss Voigt Hill
#
# Bulk Modulus (GPa) = 56.67796 58.58852 57.63324
# Shear Modulus (GPa) = 0.11009 12.05736 6.08373
#
# Velocity S-wave (km/s) = 0.28029 2.93329 2.08360
# Velocity P-wave (km/s) = 6.36792 7.29940 6.84951
#
# Compressibility (1/GPa) = 0.01764354
#
# Stress axis : x y z
#
# Youngs Moduli (GPa) = 41.15229 41.15229 29.49002
#
# Poissons Ratio (x) = 0.34998 0.35283
# Poissons Ratio (y) = 0.34998 0.35283
# Poissons Ratio (z) = 0.49236 0.49236
#
# Static dielectric constant tensor:
#      x y z
#    x 2.757150 0.000000 0.000000 
#    y 0.000000 2.757150 0.000000 
#    z 0.000000 0.000000 2.856680 
# 
# 
# High freq. dielectric constant tensor:
#      x y z
#    x 1.510880 0.000000 0.000000 
#    y 0.000000 1.510880 0.000000 
#    z 0.000000 0.000000 1.521680 
# 
# From -- ./inp_files/2888.got.cif
#   From: 2010.06.25/outbox.cif.g09.slc.cpg/sg140_2_cif.got.tgz:2888.got - 2010.06.28 10:53:23.
