data_PCOD8320935
_publ_section_title
;
Structure prediction by ZEFSAII (Michael W. Deem and Ramdas Pophale) SiO2 
 PCOD8320935
Probable space group: I 41/A M D
;
_chemical_formula_sum "Si O2"
_cell_formula_units_Z 104
_cell_length_a 14.119011
_cell_length_b 14.119011
_cell_length_c 22.044719
_cell_angle_alpha 90.000000
_cell_angle_beta 90.000000
_cell_angle_gamma 90.000000
_cell_volume 4394.536950
_symmetry_space_group_name_H-M "I 41/A M D"
_symmetry_group_IT_number 141
_space_group.IT_coordinate_system_code '2'
_symmetry_cell_setting 'tetragonal'
loop_
_space_group_symop_operation_xyz
x,y,z
1/4-y,3/4+x,1/4+z
-x,1/2-y,z
1/4+y,1/4-x,3/4+z
x,-y,-z
-x,1/2+y,-z
1/4+y,3/4+x,1/4-z
1/4-y,1/4-x,3/4-z
-x,-y,-z
3/4+y,1/4-x,3/4-z
x,1/2+y,-z
3/4-y,3/4+x,1/4-z
-x,y,z
x,1/2-y,z
3/4-y,1/4-x,3/4+z
3/4+y,3/4+x,1/4+z
1/2+x,1/2+y,1/2+z
3/4-y,1/4+x,3/4+z
1/2-x,-y,1/2+z
3/4+y,3/4-x,1/4+z
1/2+x,1/2-y,1/2-z
1/2-x,y,1/2-z
3/4+y,1/4+x,3/4-z
3/4-y,3/4-x,1/4-z
1/2-x,1/2-y,1/2-z
1/4+y,3/4-x,1/4-z
1/2+x,y,1/2-z
1/4-y,1/4+x,3/4-z
1/2-x,1/2+y,1/2+z
1/2+x,-y,1/2+z
1/4-y,3/4-x,1/4+z
1/4+y,1/4+x,3/4+z
loop_
_atom_site_type_symbol
_atom_site_label
_atom_site_fract_x
_atom_site_fract_y
_atom_site_fract_z
Si Si1 0.608925 0.750000 0.472306
Si Si2 0.000000 0.250000 0.572335
Si Si3 0.716358 0.250000 0.876746
Si Si4 0.343923 0.593923 0.875000
Si Si5 0.349947 0.250000 0.221448
Si Si6 0.676940 0.916843 0.201620
O O1 0.500000 0.750000 0.443869
O O2 0.700977 0.750000 0.427860
O O3 0.616696 0.659421 0.515153
O O4 0.897446 0.250000 0.606832
O O5 0.000000 0.159929 0.531069
O O6 0.737879 0.159228 0.835707
O O7 0.369498 0.659075 0.818781
O O8 0.239817 0.610952 0.901397
O O9 0.250000 0.250000 0.250000
O O10 0.750000 0.964496 0.250000
#
# Coordination Sequence:
#
# PCOD8320935 Si02
#       6
#    16   8  16  16  16  32
#     4  12  26  47  73 101 151 185 242 301 362 436
#     4  12  24  45  72 102 142 175 238 292 346 434
#     4  12  25  45  72 104 135 194 233 292 366 416
#     4  12  24  43  72  98 143 178 230 290 356 422
#     4  12  24  42  67 104 131 180 223 279 352 419
#     4  12  25  48  67 104 138 187 237 296 352 428
#
# _framework density 23.665748000000001
#
# number of rings (size 3 to 8) (size 9 to 14) (size 15 to 20)
#    0.000    0.000    1.538    9.692    0.000    0.000 
#    2.769    0.000    0.000    0.000    0.000    0.000 
#    0.000    0.000    0.000    0.000    0.000    0.000 
#
# Total GULP energy -644427.993300 kJ/mol
# GULP energy per Si atom -12392.846025 kJ/mol
# Density = 2.361188 g / cm^3
# Si number density = 23.665748 Si / 1000 Ang^3
#
#
#
# Elastic Constant Matrix: (Units=GPa)
#
#
# Indices 1 2 3 4 5 6 
#
# 1 129.7172 -2.5127 28.8238 0.0000 0.0000 0.0000
# 2 -2.5127 129.7172 28.8238 0.0000 0.0000 0.0000
# 3 28.8238 28.8238 99.3224 0.0000 0.0000 0.0000
# 4 0.0000 0.0000 0.0000 7.7379 0.0000 0.0000
# 5 0.0000 0.0000 0.0000 0.0000 7.7379 0.0000
# 6 0.0000 0.0000 0.0000 0.0000 0.0000 29.1607
#
#
#
# Elastic Compliance Matrix: (Units=1/GPa)
#
#
# Indices 1 2 3 4 5 6 
#
# 1 0.008307 0.000745 -0.002627 0.000000 0.000000 0.000000
# 2 0.000745 0.008307 -0.002627 0.000000 0.000000 0.000000
# 3 -0.002627 -0.002627 0.011593 0.000000 0.000000 0.000000
# 4 0.000000 0.000000 0.000000 0.129233 0.000000 0.000000
# 5 0.000000 0.000000 0.000000 0.000000 0.129233 0.000000
# 6 0.000000 0.000000 0.000000 0.000000 0.000000 0.034293
#
#
# Mechanical properties :
#
#
# Convention : Reuss Voigt Hill
#
# Bulk Modulus (GPa) = 52.11312 52.11405 52.11359
# Shear Modulus (GPa) = 14.86408 29.16877 22.01642
#
# Velocity S-wave (km/s) = 2.50888 3.51455 3.05340
# Velocity P-wave (km/s) = 5.51914 6.20791 5.87363
#
# Compressibility (1/GPa) = 0.01918903
#
# Stress axis : x y z
#
# Youngs Moduli (GPa) = 120.37740 120.37740 86.25976
#
# Poissons Ratio (x) = -0.08964 0.22659
# Poissons Ratio (y) = -0.08964 0.22659
# Poissons Ratio (z) = 0.31622 0.31622
#
# Static dielectric constant tensor:
#      x y z
#    x 4.715720 0.000000 0.000000 
#    y 0.000000 4.715720 0.000000 
#    z 0.000000 0.000000 4.326820 
# 
# 
# High freq. dielectric constant tensor:
#      x y z
#    x 1.950480 0.000000 0.000000 
#    y 0.000000 1.950480 0.000000 
#    z 0.000000 0.000000 1.954280 
# 
# From -- ./inp_files/11196.got.cif
#   From: 2010.03.12/outbox.cif.g09.slc.cpg/sg141_6_cif.got.tgz:11196.got - 2010.04.03 13:18:35.
