data_PCOD8320615
_publ_section_title
;
Structure prediction by ZEFSAII (Michael W. Deem and Ramdas Pophale) SiO2 
 PCOD8320615
Probable space group: I 41/A M D
;
_chemical_formula_sum "Si O2"
_cell_formula_units_Z 160
_cell_length_a 20.118377
_cell_length_b 20.118377
_cell_length_c 19.247789
_cell_angle_alpha 90.000000
_cell_angle_beta 90.000000
_cell_angle_gamma 90.000000
_cell_volume 7790.525142
_symmetry_space_group_name_H-M "I 41/A M D"
_symmetry_group_IT_number 141
_space_group.IT_coordinate_system_code '2'
_symmetry_cell_setting 'tetragonal'
loop_
_space_group_symop_operation_xyz
x,y,z
1/4-y,3/4+x,1/4+z
-x,1/2-y,z
1/4+y,1/4-x,3/4+z
x,-y,-z
-x,1/2+y,-z
1/4+y,3/4+x,1/4-z
1/4-y,1/4-x,3/4-z
-x,-y,-z
3/4+y,1/4-x,3/4-z
x,1/2+y,-z
3/4-y,3/4+x,1/4-z
-x,y,z
x,1/2-y,z
3/4-y,1/4-x,3/4+z
3/4+y,3/4+x,1/4+z
1/2+x,1/2+y,1/2+z
3/4-y,1/4+x,3/4+z
1/2-x,-y,1/2+z
3/4+y,3/4-x,1/4+z
1/2+x,1/2-y,1/2-z
1/2-x,y,1/2-z
3/4+y,1/4+x,3/4-z
3/4-y,3/4-x,1/4-z
1/2-x,1/2-y,1/2-z
1/4+y,3/4-x,1/4-z
1/2+x,y,1/2-z
1/4-y,1/4+x,3/4-z
1/2-x,1/2+y,1/2+z
1/2+x,-y,1/2+z
1/4-y,3/4-x,1/4+z
1/4+y,1/4+x,3/4+z
loop_
_atom_site_type_symbol
_atom_site_label
_atom_site_fract_x
_atom_site_fract_y
_atom_site_fract_z
Si Si1 0.389967 0.409214 0.822184
Si Si2 0.255159 0.392722 0.637991
Si Si3 0.380924 0.175559 0.695938
Si Si4 0.076776 0.323699 0.205671
Si Si5 0.786300 0.826342 0.502658
O O1 0.311356 0.398790 0.818378
O O2 0.416478 0.371346 0.753478
O O3 0.421767 0.376597 0.890393
O O4 0.406084 0.488883 0.818773
O O5 0.284083 0.465917 0.625000
O O6 0.305762 0.346792 0.680135
O O7 0.242405 0.364579 0.562260
O O8 0.422862 0.172862 0.625000
O O9 0.380253 0.250000 0.725609
O O10 0.087336 0.250000 0.239734
O O11 0.093195 0.383909 0.260489
O O12 0.000000 0.330771 0.180423
O O13 0.778686 0.750000 0.485865
#
# Coordination Sequence:
#
# PCOD8320615 Si02
#       5
#    32  32  32  32  32
#     4  11  20  32  51  72  97 132 173 212 259 304
#     4  10  20  33  48  69  96 128 169 210 258 300
#     4  11  22  33  45  67 102 137 176 216 251 295
#     4   9  19  34  51  73 102 136 173 213 255 302
#     4  10  19  32  50  72  99 130 168 215 255 302
#
# _framework density 20.537768
#
# number of rings (size 3 to 8) (size 9 to 14) (size 15 to 20)
#    0.000    1.800    4.000    2.400    0.000    4.200 
#    0.000    0.000    0.000    0.000    0.000   12.600 
#    0.000    0.000    0.000    0.000    0.000    0.000 
#
# Total GULP energy -991205.024325 kJ/mol
# GULP energy per Si atom -12390.062804 kJ/mol
# Density = 2.049102 g / cm^3
# Si number density = 20.537768 Si / 1000 Ang^3
#
#
#
# Elastic Constant Matrix: (Units=GPa)
#
#
# Indices 1 2 3 4 5 6 
#
# 1 116.6812 26.0856 12.2043 0.0000 0.0000 0.0000
# 2 26.0856 116.6765 12.2037 0.0000 0.0000 0.0000
# 3 12.2043 12.2037 23.1042 0.0000 0.0000 0.0000
# 4 0.0000 0.0000 0.0000 9.3835 0.0000 0.0000
# 5 0.0000 0.0000 0.0000 0.0000 9.3848 0.0000
# 6 0.0000 0.0000 0.0000 0.0000 0.0000 22.6153
#
#
#
# Elastic Compliance Matrix: (Units=1/GPa)
#
#
# Indices 1 2 3 4 5 6 
#
# 1 0.009369 -0.001669 -0.004067 0.000000 0.000000 0.000000
# 2 -0.001669 0.009369 -0.004067 0.000000 0.000000 0.000000
# 3 -0.004067 -0.004067 0.047579 0.000000 0.000000 0.000000
# 4 0.000000 0.000000 0.000000 0.106570 0.000000 0.000000
# 5 0.000000 0.000000 0.000000 0.000000 0.106555 0.000000
# 6 0.000000 0.000000 0.000000 0.000000 0.000000 0.044218
#
#
# Mechanical properties :
#
#
# Convention : Reuss Voigt Hill
#
# Bulk Modulus (GPa) = 21.40875 39.71655 30.56265
# Shear Modulus (GPa) = 13.93387 22.00794 17.97090
#
# Velocity S-wave (km/s) = 2.60753 3.27706 2.96128
# Velocity P-wave (km/s) = 4.41728 5.80509 5.15807
#
# Compressibility (1/GPa) = 0.04670988
#
# Stress axis : x y z
#
# Youngs Moduli (GPa) = 106.73551 106.73159 21.01773
#
# Poissons Ratio (x) = 0.17816 0.08548
# Poissons Ratio (y) = 0.17817 0.08548
# Poissons Ratio (z) = 0.43412 0.43409
#
# Static dielectric constant tensor:
#      x y z
#    x 3.967420 0.000000 0.000000 
#    y 0.000000 3.967420 0.000000 
#    z 0.000000 0.000000 3.295710 
# 
# 
# High freq. dielectric constant tensor:
#      x y z
#    x 1.807070 0.000000 0.000000 
#    y 0.000000 1.807070 0.000000 
#    z 0.000000 0.000000 1.752720 
# 
# From -- ./inp_files/8609.got.cif
#   From: 2010.03.12/outbox.cif.g09.slc.cpg/sg141_5_cif.got.tgz:8609.got - 2010.04.03 13:18:35.
