data_PCOD8320663
_publ_section_title
;
Structure prediction by ZEFSAII (Michael W. Deem and Ramdas Pophale) SiO2 
 PCOD8320663
Probable space group: I 41/A M D
;
_chemical_formula_sum "Si O2"
_cell_formula_units_Z 160
_cell_length_a 26.575946
_cell_length_b 26.575946
_cell_length_c 12.469243
_cell_angle_alpha 90.000000
_cell_angle_beta 90.000000
_cell_angle_gamma 90.000000
_cell_volume 8806.788241
_symmetry_space_group_name_H-M "I 41/A M D"
_symmetry_group_IT_number 141
_space_group.IT_coordinate_system_code '2'
_symmetry_cell_setting 'tetragonal'
loop_
_space_group_symop_operation_xyz
x,y,z
1/4-y,3/4+x,1/4+z
-x,1/2-y,z
1/4+y,1/4-x,3/4+z
x,-y,-z
-x,1/2+y,-z
1/4+y,3/4+x,1/4-z
1/4-y,1/4-x,3/4-z
-x,-y,-z
3/4+y,1/4-x,3/4-z
x,1/2+y,-z
3/4-y,3/4+x,1/4-z
-x,y,z
x,1/2-y,z
3/4-y,1/4-x,3/4+z
3/4+y,3/4+x,1/4+z
1/2+x,1/2+y,1/2+z
3/4-y,1/4+x,3/4+z
1/2-x,-y,1/2+z
3/4+y,3/4-x,1/4+z
1/2+x,1/2-y,1/2-z
1/2-x,y,1/2-z
3/4+y,1/4+x,3/4-z
3/4-y,3/4-x,1/4-z
1/2-x,1/2-y,1/2-z
1/4+y,3/4-x,1/4-z
1/2+x,y,1/2-z
1/4-y,1/4+x,3/4-z
1/2-x,1/2+y,1/2+z
1/2+x,-y,1/2+z
1/4-y,3/4-x,1/4+z
1/4+y,1/4+x,3/4+z
loop_
_atom_site_type_symbol
_atom_site_label
_atom_site_fract_x
_atom_site_fract_y
_atom_site_fract_z
Si Si1 0.236152 0.933012 0.865127
Si Si2 0.857366 0.193232 0.638796
Si Si3 0.801118 0.193526 0.863157
Si Si4 0.943093 0.348967 0.769090
Si Si5 0.371131 0.467732 0.314386
O O1 0.250000 0.908662 0.750000
O O2 0.177128 0.945675 0.878125
O O3 0.263443 0.986558 0.875000
O O4 0.256911 0.894054 0.952398
O O5 0.864409 0.250000 0.595947
O O6 0.824454 0.191819 0.745997
O O7 0.911023 0.168951 0.667081
O O8 0.829284 0.159546 0.548264
O O9 0.778796 0.250000 0.883243
O O10 0.843059 0.181020 0.952491
O O11 0.759080 0.150723 0.866599
O O12 0.934473 0.315528 0.875000
O O13 0.000000 0.342346 0.732142
#
# Coordination Sequence:
#
# PCOD8320663 Si02
#       5
#    32  32  32  32  32
#     4   9  21  36  50  72  94 120 160 203 250 295
#     4  10  20  30  44  71 102 134 167 199 246 296
#     4   9  18  30  45  70 103 135 165 196 237 294
#     4   9  17  29  45  67  98 137 176 210 251 304
#     4  11  19  32  51  68  96 132 163 200 242 296
#
# _framework density 18.167802999999999
#
# number of rings (size 3 to 8) (size 9 to 14) (size 15 to 20)
#    0.000    2.400    0.000    4.200    0.000   10.200 
#    0.000    0.000    0.000    2.400    0.000   22.400 
#    0.000    0.000    0.000    0.600    0.000    0.200 
#
# Total GULP energy -991588.844925 kJ/mol
# GULP energy per Si atom -12394.860562 kJ/mol
# Density = 1.812645 g / cm^3
# Si number density = 18.167803 Si / 1000 Ang^3
#
#
#
# Elastic Constant Matrix: (Units=GPa)
#
#
# Indices 1 2 3 4 5 6 
#
# 1 114.2557 66.0361 31.2426 0.0000 0.0000 0.0000
# 2 66.0361 114.2566 31.2421 0.0000 0.0000 0.0000
# 3 31.2426 31.2421 48.8750 0.0000 0.0000 0.0000
# 4 0.0000 0.0000 0.0000 21.2081 0.0000 0.0000
# 5 0.0000 0.0000 0.0000 0.0000 21.2086 0.0000
# 6 0.0000 0.0000 0.0000 0.0000 0.0000 26.2075
#
#
#
# Elastic Compliance Matrix: (Units=1/GPa)
#
#
# Indices 1 2 3 4 5 6 
#
# 1 0.013932 -0.006807 -0.004555 0.000000 0.000000 0.000000
# 2 -0.006807 0.013932 -0.004554 0.000000 0.000000 0.000000
# 3 -0.004555 -0.004554 0.026283 0.000000 0.000000 0.000000
# 4 0.000000 0.000000 0.000000 0.047152 0.000000 0.000000
# 5 0.000000 0.000000 0.000000 0.000000 0.047151 0.000000
# 6 0.000000 0.000000 0.000000 0.000000 0.000000 0.038157
#
#
# Mechanical properties :
#
#
# Convention : Reuss Voigt Hill
#
# Bulk Modulus (GPa) = 44.81274 59.38099 52.09686
# Shear Modulus (GPa) = 22.13606 23.64926 22.89266
#
# Velocity S-wave (km/s) = 3.49438 3.61184 3.55359
# Velocity P-wave (km/s) = 6.40316 7.08163 6.75093
#
# Compressibility (1/GPa) = 0.02231508
#
# Stress axis : x y z
#
# Youngs Moduli (GPa) = 71.77846 71.77958 38.04718
#
# Poissons Ratio (x) = 0.48858 0.17329
# Poissons Ratio (y) = 0.48857 0.17328
# Poissons Ratio (z) = 0.32693 0.32691
#
# Static dielectric constant tensor:
#      x y z
#    x 3.606880 0.000000 0.000000 
#    y 0.000000 3.606890 0.000000 
#    z 0.000000 0.000000 3.219190 
# 
# 
# High freq. dielectric constant tensor:
#      x y z
#    x 1.711900 0.000000 0.000000 
#    y 0.000000 1.711900 0.000000 
#    z 0.000000 0.000000 1.647920 
# 
# From -- ./inp_files/4828.got.cif
#   From: 2010.03.12/outbox.cif.g09.slc.cpg/sg141_3_cif.got.tgz:4828.got - 2010.04.03 13:18:35.
