data_PCOD8320988
_publ_section_title
;
Structure prediction by ZEFSAII (Michael W. Deem and Ramdas Pophale) SiO2 
 PCOD8320988
Probable space group: I 41/A C D
;
_chemical_formula_sum "Si O2"
_cell_formula_units_Z 112
_cell_length_a 15.309692
_cell_length_b 15.309692
_cell_length_c 22.336940
_cell_angle_alpha 90.000000
_cell_angle_beta 90.000000
_cell_angle_gamma 90.000000
_cell_volume 5235.480965
_symmetry_space_group_name_H-M "I 41/A C D"
_symmetry_group_IT_number 142
_space_group.IT_coordinate_system_code '2'
_symmetry_cell_setting 'tetragonal'
loop_
_space_group_symop_operation_xyz
x,y,z
1/4-y,3/4+x,1/4+z
-x,1/2-y,z
1/4+y,1/4-x,3/4+z
x,-y,1/2-z
1/2-x,y,-z
3/4+y,1/4+x,1/4-z
1/4-y,1/4-x,1/4-z
-x,-y,-z
3/4+y,1/4-x,3/4-z
x,1/2+y,-z
3/4-y,3/4+x,1/4-z
-x,y,1/2+z
1/2+x,-y,z
1/4-y,3/4-x,3/4+z
3/4+y,3/4+x,3/4+z
1/2+x,1/2+y,1/2+z
3/4-y,1/4+x,3/4+z
1/2-x,-y,1/2+z
3/4+y,3/4-x,1/4+z
1/2+x,1/2-y,-z
-x,1/2+y,1/2-z
1/4+y,3/4+x,3/4-z
3/4-y,3/4-x,3/4-z
1/2-x,1/2-y,1/2-z
1/4+y,3/4-x,1/4-z
1/2+x,y,1/2-z
1/4-y,1/4+x,3/4-z
1/2-x,1/2+y,z
x,1/2-y,1/2+z
3/4-y,1/4-x,1/4+z
1/4+y,1/4+x,1/4+z
loop_
_atom_site_type_symbol
_atom_site_label
_atom_site_fract_x
_atom_site_fract_y
_atom_site_fract_z
Si Si1 0.692336 0.617663 0.943332
Si Si2 0.804091 0.253293 0.617533
Si Si3 0.944322 0.167361 0.028673
Si Si4 0.305024 0.444977 0.375000
O O1 0.715808 0.687949 0.890451
O O2 0.710812 0.518038 0.925294
O O3 0.750000 0.642065 0.000000
O O4 0.592735 0.628219 0.966256
O O5 0.840589 0.253617 0.685938
O O6 0.872728 0.297560 0.574138
O O7 0.789776 0.152339 0.598528
O O8 0.000000 0.250000 0.008973
#
# Coordination Sequence:
#
# PCOD8320988 Si02
#       4
#    32  32  32  16
#     4  10  23  38  59  91 125 157 213 267 312 386
#     4  10  20  40  63  88 123 167 214 257 332 386
#     4  10  18  39  63  86 119 166 215 262 313 397
#     4  12  22  41  64  91 126 172 204 270 326 386
#
# _framework density 21.392496000000001
#
# number of rings (size 3 to 8) (size 9 to 14) (size 15 to 20)
#    0.000    1.714    2.857    4.286    0.000    4.571 
#    5.143    0.000    0.000    0.000    0.000    0.000 
#    0.000    0.000    0.000    0.000    0.000    0.000 
#
# Total GULP energy -693890.520452 kJ/mol
# GULP energy per Si atom -12390.902151 kJ/mol
# Density = 2.134381 g / cm^3
# Si number density = 21.392496 Si / 1000 Ang^3
#
#
#
# Elastic Constant Matrix: (Units=GPa)
#
#
# Indices 1 2 3 4 5 6 
#
# 1 121.2398 42.9800 48.6619 0.0000 0.0000 0.0000
# 2 42.9800 121.2389 48.6618 0.0000 0.0000 0.0000
# 3 48.6619 48.6618 66.7076 0.0000 0.0000 0.0000
# 4 0.0000 0.0000 0.0000 54.1589 0.0000 0.0000
# 5 0.0000 0.0000 0.0000 0.0000 54.1582 0.0000
# 6 0.0000 0.0000 0.0000 0.0000 0.0000 38.1439
#
#
#
# Elastic Compliance Matrix: (Units=1/GPa)
#
#
# Indices 1 2 3 4 5 6 
#
# 1 0.011752 -0.001026 -0.007825 0.000000 0.000000 0.000000
# 2 -0.001026 0.011753 -0.007825 0.000000 0.000000 0.000000
# 3 -0.007825 -0.007825 0.026407 0.000000 0.000000 0.000000
# 4 0.000000 0.000000 0.000000 0.018464 0.000000 0.000000
# 5 0.000000 0.000000 0.000000 0.000000 0.018464 0.000000
# 6 0.000000 0.000000 0.000000 0.000000 0.000000 0.026217
#
#
# Mechanical properties :
#
#
# Convention : Reuss Voigt Hill
#
# Bulk Modulus (GPa) = 60.38355 65.53266 62.95811
# Shear Modulus (GPa) = 32.91013 40.55103 36.73058
#
# Velocity S-wave (km/s) = 3.92649 4.35854 4.14815
# Velocity P-wave (km/s) = 6.98887 7.48526 7.24132
#
# Compressibility (1/GPa) = 0.01656080
#
# Stress axis : x y z
#
# Youngs Moduli (GPa) = 85.08889 85.08823 37.86843
#
# Poissons Ratio (x) = 0.08726 0.29632
# Poissons Ratio (y) = 0.08726 0.29632
# Poissons Ratio (z) = 0.66582 0.66582
#
# Static dielectric constant tensor:
#      x y z
#    x 4.161700 0.000000 0.000000 
#    y 0.000000 4.161730 0.000000 
#    z 0.000000 0.000000 4.061990 
# 
# 
# High freq. dielectric constant tensor:
#      x y z
#    x 1.839340 0.000000 0.000000 
#    y 0.000000 1.839340 0.000000 
#    z 0.000000 0.000000 1.808330 
# 
# From -- ./inp_files/6859.got.cif
#   From: 2010.03.12/outbox.cif.g09.slc.cpg/sg142_4_cif.got.tgz:6859.got - 2010.04.03 13:27:16.
