data_PCOD8320468
_publ_section_title
;
Structure prediction by ZEFSAII (Michael W. Deem and Ramdas Pophale) SiO2 
 PCOD8320468
Probable space group: I 4/M C M
;
_chemical_formula_sum "Si O2"
_cell_formula_units_Z 192
_cell_length_a 25.234109
_cell_length_b 25.234109
_cell_length_c 14.366957
_cell_angle_alpha 90.000000
_cell_angle_beta 90.000000
_cell_angle_gamma 90.000000
_cell_volume 9148.307232
_symmetry_space_group_name_H-M "I 4/M C M"
_symmetry_group_IT_number 140
_symmetry_cell_setting 'tetragonal'
loop_
_space_group_symop_operation_xyz
x,y,z
-y,x,z
-x,-y,z
y,-x,z
x,-y,1/2-z
-x,y,1/2-z
y,x,1/2-z
-y,-x,1/2-z
-x,-y,-z
y,-x,-z
x,y,-z
-y,x,-z
-x,y,1/2+z
x,-y,1/2+z
-y,-x,1/2+z
y,x,1/2+z
1/2+x,1/2+y,1/2+z
1/2-y,1/2+x,1/2+z
1/2-x,1/2-y,1/2+z
1/2+y,1/2-x,1/2+z
1/2+x,1/2-y,-z
1/2-x,1/2+y,-z
1/2+y,1/2+x,-z
1/2-y,1/2-x,-z
1/2-x,1/2-y,1/2-z
1/2+y,1/2-x,1/2-z
1/2+x,1/2+y,1/2-z
1/2-y,1/2+x,1/2-z
1/2-x,1/2+y,z
1/2+x,1/2-y,z
1/2-y,1/2-x,z
1/2+y,1/2+x,z
loop_
_atom_site_type_symbol
_atom_site_label
_atom_site_fract_x
_atom_site_fract_y
_atom_site_fract_z
Si Si1 0.941132 0.192428 0.396998
Si Si2 0.558067 0.201017 0.222760
Si Si3 0.216210 0.283791 0.103514
Si Si4 0.172133 0.824199 0.648120
Si Si5 0.632384 0.781557 0.103221
Si Si6 0.082201 0.983544 0.889345
Si Si7 0.628430 0.128430 0.103218
O O1 0.962920 0.208179 0.500000
O O2 0.944082 0.242097 0.328113
O O3 0.880500 0.173721 0.413651
O O4 0.973543 0.142356 0.354082
O O5 0.500000 0.182857 0.250000
O O6 0.590981 0.203439 0.317880
O O7 0.579249 0.154161 0.157330
O O8 0.190973 0.236327 0.161260
O O9 0.172409 0.327592 0.091938
O O10 0.235163 0.264838 0.000000
O O11 0.155664 0.844337 0.750000
O O12 0.218450 0.858614 0.602534
O O13 0.687584 0.812417 0.123164
O O14 0.610579 0.796637 0.000000
O O15 0.040981 0.938086 0.853374
O O16 0.082155 0.981102 0.000000
O O17 0.609929 0.109929 0.000000
#
# Coordination Sequence:
#
# PCOD8320468 Si02
#       7
#    32  32  16  32  32  32  16
#     4  11  22  37  59  92 130 169 217 275 336 392
#     4  12  26  43  65  99 132 168 208 263 321 391
#     4  11  19  31  57  90 122 161 212 251 291 381
#     4  12  21  33  56  89 126 169 213 264 316 385
#     4  11  23  40  62  90 127 169 210 257 320 385
#     4   8  16  34  59  83 114 168 234 289 331 373
#     4  11  22  43  72  99 133 176 215 253 317 394
#
# _framework density 20.987489
#
# number of rings (size 3 to 8) (size 9 to 14) (size 15 to 20)
#    0.000    1.167    5.000    2.750    0.000    2.667 
#    0.000    1.667    0.000    0.250    0.000    0.583 
#    0.000    0.000    0.000    1.833    0.000    0.167 
#
# Total GULP energy -1190134.242690 kJ/mol
# GULP energy per Si atom -12397.231695 kJ/mol
# Density = 2.093972 g / cm^3
# Si number density = 20.987489 Si / 1000 Ang^3
#
#
#
# Elastic Constant Matrix: (Units=GPa)
#
#
# Indices 1 2 3 4 5 6 
#
# 1 82.2161 51.6232 45.2268 0.0000 0.0000 0.0000
# 2 51.6232 82.2159 45.2272 0.0000 0.0000 0.0000
# 3 45.2268 45.2272 121.0639 0.0000 0.0000 0.0000
# 4 0.0000 0.0000 0.0000 20.3893 0.0000 0.0000
# 5 0.0000 0.0000 0.0000 0.0000 20.3889 0.0000
# 6 0.0000 0.0000 0.0000 0.0000 0.0000 27.5419
#
#
#
# Elastic Compliance Matrix: (Units=1/GPa)
#
#
# Indices 1 2 3 4 5 6 
#
# 1 0.021341 -0.011346 -0.003734 0.000000 0.000000 0.000000
# 2 -0.011346 0.021341 -0.003734 0.000000 0.000000 0.000000
# 3 -0.003734 -0.003734 0.011050 0.000000 0.000000 0.000000
# 4 0.000000 0.000000 0.000000 0.049045 0.000000 0.000000
# 5 0.000000 0.000000 0.000000 0.000000 0.049046 0.000000
# 6 0.000000 0.000000 0.000000 0.000000 0.000000 0.036308
#
#
# Mechanical properties :
#
#
# Convention : Reuss Voigt Hill
#
# Bulk Modulus (GPa) = 62.09473 63.29449 62.69461
# Shear Modulus (GPa) = 21.63293 23.22527 22.42910
#
# Velocity S-wave (km/s) = 3.21402 3.33021 3.27263
# Velocity P-wave (km/s) = 6.58969 6.70900 6.64961
#
# Compressibility (1/GPa) = 0.01610443
#
# Stress axis : x y z
#
# Youngs Moduli (GPa) = 46.85758 46.85718 90.49767
#
# Poissons Ratio (x) = 0.53165 0.33791
# Poissons Ratio (y) = 0.53165 0.33793
# Poissons Ratio (z) = 0.17496 0.17497
#
# Static dielectric constant tensor:
#      x y z
#    x 3.737110 0.000000 0.000000 
#    y 0.000000 3.737110 0.000000 
#    z 0.000000 0.000000 3.990550 
# 
# 
# High freq. dielectric constant tensor:
#      x y z
#    x 1.798030 0.000000 0.000000 
#    y 0.000000 1.798030 0.000000 
#    z 0.000000 0.000000 1.837240 
# 
# From -- ./inp_files/5202.got.cif
#   From: 2010.06.25/outbox.cif.g09.slc.cpg/sg140_3_cif.got.tgz:5202.got - 2010.06.28 10:53:23.
