data_PCOD8320256
_publ_section_title
;
Structure prediction by ZEFSAII (Michael W. Deem and Ramdas Pophale) SiO2 
 PCOD8320256
Probable space group: I 4/M C M
;
_chemical_formula_sum "Si O2"
_cell_formula_units_Z 240
_cell_length_a 29.006627
_cell_length_b 29.006627
_cell_length_c 15.074289
_cell_angle_alpha 90.000000
_cell_angle_beta 90.000000
_cell_angle_gamma 90.000000
_cell_volume 12683.271755
_symmetry_space_group_name_H-M "I 4/M C M"
_symmetry_group_IT_number 140
_symmetry_cell_setting 'tetragonal'
loop_
_space_group_symop_operation_xyz
x,y,z
-y,x,z
-x,-y,z
y,-x,z
x,-y,1/2-z
-x,y,1/2-z
y,x,1/2-z
-y,-x,1/2-z
-x,-y,-z
y,-x,-z
x,y,-z
-y,x,-z
-x,y,1/2+z
x,-y,1/2+z
-y,-x,1/2+z
y,x,1/2+z
1/2+x,1/2+y,1/2+z
1/2-y,1/2+x,1/2+z
1/2-x,1/2-y,1/2+z
1/2+y,1/2-x,1/2+z
1/2+x,1/2-y,-z
1/2-x,1/2+y,-z
1/2+y,1/2+x,-z
1/2-y,1/2-x,-z
1/2-x,1/2-y,1/2-z
1/2+y,1/2-x,1/2-z
1/2+x,1/2+y,1/2-z
1/2-y,1/2+x,1/2-z
1/2-x,1/2+y,z
1/2+x,1/2-y,z
1/2-y,1/2-x,z
1/2+y,1/2+x,z
loop_
_atom_site_type_symbol
_atom_site_label
_atom_site_fract_x
_atom_site_fract_y
_atom_site_fract_z
Si Si1 0.046420 0.791990 0.597055
Si Si2 0.177070 0.604284 0.599479
Si Si3 0.137042 0.975650 0.341341
Si Si4 0.338249 0.910302 0.598787
Si Si5 0.195715 0.507130 0.647809
Si Si6 0.429278 0.528052 0.000000
Si Si7 0.352928 0.779648 0.734900
Si Si8 0.890967 0.815507 0.743035
O O1 0.069105 0.792426 0.500000
O O2 0.088321 0.796574 0.665291
O O3 0.013017 0.835091 0.603982
O O4 0.015501 0.746096 0.606629
O O5 0.198165 0.606338 0.500000
O O6 0.127650 0.627650 0.604310
O O7 0.165876 0.552528 0.629518
O O8 0.213034 0.629614 0.664423
O O9 0.171624 0.933129 0.321686
O O10 0.118438 0.000000 0.250000
O O11 0.096788 0.959072 0.407867
O O12 0.322048 0.896400 0.500000
O O13 0.390538 0.890538 0.614561
O O14 0.333909 0.965327 0.607223
O O15 0.304791 0.887587 0.669286
O O16 0.204545 0.500000 0.750000
O O17 0.440540 0.474230 0.000000
O O18 0.300998 0.800998 0.723954
O O19 0.356910 0.725550 0.709035
O O20 0.861848 0.861848 0.750000
#
# Coordination Sequence:
#
# PCOD8320256 Si02
#       8
#    32  32  32  32  32  16  32  32
#     4  11  21  37  59  87 115 151 197 250 301 350
#     4  10  20  34  55  82 112 153 201 249 300 354
#     4  10  23  40  62  85 120 153 191 243 293 352
#     4  10  20  34  55  84 116 151 189 234 293 356
#     4  12  20  32  57  84 121 150 193 249 300 359
#     4  11  26  44  66  92 117 154 202 240 291 365
#     4  10  20  38  59  82 116 154 196 244 292 355
#     4  11  24  39  58  87 119 155 194 244 305 362
#
# _framework density 18.922561999999999
#
# number of rings (size 3 to 8) (size 9 to 14) (size 15 to 20)
#    0.000    1.400    3.333    3.200    3.733    0.267 
#    1.200    0.667    0.000    0.400    0.000    6.533 
#    0.000    0.000    0.000    0.000    0.000    0.000 
#
# Total GULP energy -1487082.420745 kJ/mol
# GULP energy per Si atom -12392.353506 kJ/mol
# Density = 1.887949 g / cm^3
# Si number density = 18.922562 Si / 1000 Ang^3
#
#
#
# Elastic Constant Matrix: (Units=GPa)
#
#
# Indices 1 2 3 4 5 6 
#
# 1 76.6925 26.4272 22.6026 0.0000 0.0000 0.0000
# 2 26.4272 76.6925 22.6026 0.0000 0.0000 0.0000
# 3 22.6026 22.6026 108.2345 0.0000 0.0000 0.0000
# 4 0.0000 0.0000 0.0000 6.8869 0.0000 0.0000
# 5 0.0000 0.0000 0.0000 0.0000 6.8869 0.0000
# 6 0.0000 0.0000 0.0000 0.0000 0.0000 30.3146
#
#
#
# Elastic Compliance Matrix: (Units=1/GPa)
#
#
# Indices 1 2 3 4 5 6 
#
# 1 0.015285 -0.004610 -0.002229 0.000000 0.000000 0.000000
# 2 -0.004610 0.015285 -0.002229 0.000000 0.000000 0.000000
# 3 -0.002229 -0.002229 0.010170 0.000000 0.000000 0.000000
# 4 0.000000 0.000000 0.000000 0.145203 0.000000 0.000000
# 5 0.000000 0.000000 0.000000 0.000000 0.145203 0.000000
# 6 0.000000 0.000000 0.000000 0.000000 0.000000 0.032987
#
#
# Mechanical properties :
#
#
# Convention : Reuss Voigt Hill
#
# Bulk Modulus (GPa) = 44.24223 44.98717 44.61470
# Shear Modulus (GPa) = 12.82698 21.48348 17.15523
#
# Velocity S-wave (km/s) = 2.60641 3.37313 3.01425
# Velocity P-wave (km/s) = 5.69994 6.24473 5.97854
#
# Compressibility (1/GPa) = 0.02260284
#
# Stress axis : x y z
#
# Youngs Moduli (GPa) = 65.42545 65.42545 98.32609
#
# Poissons Ratio (x) = 0.30160 0.21919
# Poissons Ratio (y) = 0.30160 0.21919
# Poissons Ratio (z) = 0.14585 0.14585
#
# Static dielectric constant tensor:
#      x y z
#    x 3.502760 0.000000 0.000000 
#    y 0.000000 3.502760 0.000000 
#    z 0.000000 0.000000 3.684640 
# 
# 
# High freq. dielectric constant tensor:
#      x y z
#    x 1.725710 0.000000 0.000000 
#    y 0.000000 1.725710 0.000000 
#    z 0.000000 0.000000 1.749480 
# 
# From -- ./inp_files/5376.got.cif
#   From: 2010.06.25/outbox.cif.g09.slc.cpg/sg140_3_cif.got.tgz:5376.got - 2010.06.28 10:53:23.
