data_PCOD8320063
_publ_section_title
;
Structure prediction by ZEFSAII (Michael W. Deem and Ramdas Pophale) SiO2 
 PCOD8320063
Probable space group: I 4/M C M
;
_chemical_formula_sum "Si O2"
_cell_formula_units_Z 112
_cell_length_a 28.628136
_cell_length_b 28.628136
_cell_length_c 8.783674
_cell_angle_alpha 90.000000
_cell_angle_beta 90.000000
_cell_angle_gamma 90.000000
_cell_volume 7198.837201
_symmetry_space_group_name_H-M "I 4/M C M"
_symmetry_group_IT_number 140
_symmetry_cell_setting 'tetragonal'
loop_
_space_group_symop_operation_xyz
x,y,z
-y,x,z
-x,-y,z
y,-x,z
x,-y,1/2-z
-x,y,1/2-z
y,x,1/2-z
-y,-x,1/2-z
-x,-y,-z
y,-x,-z
x,y,-z
-y,x,-z
-x,y,1/2+z
x,-y,1/2+z
-y,-x,1/2+z
y,x,1/2+z
1/2+x,1/2+y,1/2+z
1/2-y,1/2+x,1/2+z
1/2-x,1/2-y,1/2+z
1/2+y,1/2-x,1/2+z
1/2+x,1/2-y,-z
1/2-x,1/2+y,-z
1/2+y,1/2+x,-z
1/2-y,1/2-x,-z
1/2-x,1/2-y,1/2-z
1/2+y,1/2-x,1/2-z
1/2+x,1/2+y,1/2-z
1/2-y,1/2+x,1/2-z
1/2-x,1/2+y,z
1/2+x,1/2-y,z
1/2-y,1/2-x,z
1/2+y,1/2+x,z
loop_
_atom_site_type_symbol
_atom_site_label
_atom_site_fract_x
_atom_site_fract_y
_atom_site_fract_z
Si Si1 0.546391 0.713907 0.670041
Si Si2 0.713739 0.213739 0.817439
Si Si3 0.455942 0.394977 0.664679
Si Si4 0.780615 0.853808 0.818385
O O1 0.500000 0.736174 0.750000
O O2 0.553083 0.735820 0.500000
O O3 0.537569 0.659649 0.651231
O O4 0.591929 0.719815 0.774384
O O5 0.750000 0.250000 0.750000
O O6 0.731130 0.164317 0.750654
O O7 0.713124 0.213124 0.000000
O O8 0.500000 0.417613 0.750000
O O9 0.407862 0.407862 0.750000
O O10 0.453111 0.418188 0.500000
O O11 0.824891 0.824891 0.750000
O O12 0.782136 0.848163 0.000000
#
# Coordination Sequence:
#
# PCOD8320063 Si02
#       4
#    32  16  32  32
#     4  10  20  33  47  64  84 109 139 173 211 254
#     4  10  18  30  46  66  90 114 142 177 216 261
#     4  10  20  32  45  58  74  94 123 161 204 250
#     4  11  20  31  47  67  90 116 145 180 220 263
#
# _framework density 15.558068
#
# number of rings (size 3 to 8) (size 9 to 14) (size 15 to 20)
#    0.000    1.714    0.000    8.143    0.000    6.000 
#    0.000    1.429    0.000    0.000    0.000    0.000 
#    0.000    0.000    0.000    0.000    0.000    0.714 
#
# Total GULP energy -693860.173294 kJ/mol
# GULP energy per Si atom -12390.360237 kJ/mol
# Density = 1.552266 g / cm^3
# Si number density = 15.558068 Si / 1000 Ang^3
#
#
#
# Elastic Constant Matrix: (Units=GPa)
#
#
# Indices 1 2 3 4 5 6 
#
# 1 52.1211 34.9689 37.1572 0.0000 0.0000 0.0000
# 2 34.9689 52.1211 37.1572 0.0000 0.0000 0.0000
# 3 37.1572 37.1572 164.0548 0.0000 0.0000 0.0000
# 4 0.0000 0.0000 0.0000 15.9098 0.0000 0.0000
# 5 0.0000 0.0000 0.0000 0.0000 15.9098 0.0000
# 6 0.0000 0.0000 0.0000 0.0000 0.0000 19.9185
#
#
#
# Elastic Compliance Matrix: (Units=1/GPa)
#
#
# Indices 1 2 3 4 5 6 
#
# 1 0.036267 -0.022034 -0.003224 0.000000 0.000000 0.000000
# 2 -0.022034 0.036267 -0.003224 0.000000 0.000000 0.000000
# 3 -0.003224 -0.003224 0.007556 0.000000 0.000000 0.000000
# 4 0.000000 0.000000 0.000000 0.062854 0.000000 0.000000
# 5 0.000000 0.000000 0.000000 0.000000 0.062854 0.000000
# 6 0.000000 0.000000 0.000000 0.000000 0.000000 0.050204
#
#
# Mechanical properties :
#
#
# Convention : Reuss Voigt Hill
#
# Bulk Modulus (GPa) = 43.23886 54.09596 48.66741
# Shear Modulus (GPa) = 15.59209 20.94856 18.27032
#
# Velocity S-wave (km/s) = 3.16917 3.67342 3.43057
# Velocity P-wave (km/s) = 6.42213 7.26896 6.85863
#
# Compressibility (1/GPa) = 0.02312735
#
# Stress axis : x y z
#
# Youngs Moduli (GPa) = 27.57306 27.57306 132.34834
#
# Poissons Ratio (x) = 0.60755 0.42665
# Poissons Ratio (y) = 0.60755 0.42665
# Poissons Ratio (z) = 0.08889 0.08889
#
# Static dielectric constant tensor:
#      x y z
#    x 3.096100 0.000000 0.000000 
#    y 0.000000 3.096100 0.000000 
#    z 0.000000 0.000000 3.490720 
# 
# 
# High freq. dielectric constant tensor:
#      x y z
#    x 1.560950 0.000000 0.000000 
#    y 0.000000 1.560950 0.000000 
#    z 0.000000 0.000000 1.628760 
# 
# From -- ./inp_files/1352.got.cif
#   From: 2010.06.25/outbox.cif.g09.slc.cpg/sg140_1_cif.got.tgz:1352.got - 2010.06.28 10:53:23.
