data_PCOD8320093
_publ_section_title
;
Structure prediction by ZEFSAII (Michael W. Deem and Ramdas Pophale) SiO2 
 PCOD8320093
Probable space group: I 4/M C M
;
_chemical_formula_sum "Si O2"
_cell_formula_units_Z 160
_cell_length_a 19.854646
_cell_length_b 19.854646
_cell_length_c 26.580692
_cell_angle_alpha 90.000000
_cell_angle_beta 90.000000
_cell_angle_gamma 90.000000
_cell_volume 10478.293995
_symmetry_space_group_name_H-M "I 4/M C M"
_symmetry_group_IT_number 140
_symmetry_cell_setting 'tetragonal'
loop_
_space_group_symop_operation_xyz
x,y,z
-y,x,z
-x,-y,z
y,-x,z
x,-y,1/2-z
-x,y,1/2-z
y,x,1/2-z
-y,-x,1/2-z
-x,-y,-z
y,-x,-z
x,y,-z
-y,x,-z
-x,y,1/2+z
x,-y,1/2+z
-y,-x,1/2+z
y,x,1/2+z
1/2+x,1/2+y,1/2+z
1/2-y,1/2+x,1/2+z
1/2-x,1/2-y,1/2+z
1/2+y,1/2-x,1/2+z
1/2+x,1/2-y,-z
1/2-x,1/2+y,-z
1/2+y,1/2+x,-z
1/2-y,1/2-x,-z
1/2-x,1/2-y,1/2-z
1/2+y,1/2-x,1/2-z
1/2+x,1/2+y,1/2-z
1/2-y,1/2+x,1/2-z
1/2-x,1/2+y,z
1/2+x,1/2-y,z
1/2-y,1/2-x,z
1/2+y,1/2+x,z
loop_
_atom_site_type_symbol
_atom_site_label
_atom_site_fract_x
_atom_site_fract_y
_atom_site_fract_z
Si Si1 0.492065 0.389199 0.305697
Si Si2 0.424263 0.814955 0.940630
Si Si3 0.919161 0.169052 0.057170
Si Si4 0.819474 0.424384 0.059421
Si Si5 0.941643 0.173207 0.598855
O O1 0.560720 0.429628 0.313630
O O2 0.500000 0.357065 0.250000
O O3 0.478062 0.330496 0.346339
O O4 0.371640 0.871640 0.923010
O O5 0.499295 0.839530 0.926063
O O6 0.408742 0.746351 0.910371
O O7 0.418003 0.800605 0.000000
O O8 0.905025 0.244517 0.078006
O O9 0.881735 0.116824 0.093209
O O10 0.999786 0.157644 0.058292
O O11 0.893873 0.159902 0.000000
O O12 0.873510 0.373510 0.084333
O O13 0.820683 0.417105 0.000000
#
# Coordination Sequence:
#
# PCOD8320093 Si02
#       5
#    32  32  32  32  32
#     4   9  17  30  46  66  88 113 153 197 235 267
#     4   9  18  30  43  64  94 122 150 189 234 283
#     4  10  19  27  38  60  91 124 155 186 218 265
#     4   8  15  28  43  59  82 116 157 192 222 262
#     4  11  18  29  43  62  89 125 157 188 226 274
#
# _framework density 15.269662
#
# number of rings (size 3 to 8) (size 9 to 14) (size 15 to 20)
#    0.000    2.600    2.000    3.600    0.000    1.600 
#    0.000    5.000    0.000    0.000    0.000    8.400 
#    0.000    0.000    0.000    0.000    0.000    0.000 
#
# Total GULP energy -991398.792740 kJ/mol
# GULP energy per Si atom -12392.484909 kJ/mol
# Density = 1.523491 g / cm^3
# Si number density = 15.269662 Si / 1000 Ang^3
#
#
#
# Elastic Constant Matrix: (Units=GPa)
#
#
# Indices 1 2 3 4 5 6 
#
# 1 87.2152 59.8491 22.5533 0.0000 0.0000 0.0000
# 2 59.8491 87.2152 22.5533 0.0000 0.0000 0.0000
# 3 22.5533 22.5533 63.1730 0.0000 0.0000 0.0000
# 4 0.0000 0.0000 0.0000 13.5424 0.0000 0.0000
# 5 0.0000 0.0000 0.0000 0.0000 13.5424 0.0000
# 6 0.0000 0.0000 0.0000 0.0000 0.0000 28.9243
#
#
#
# Elastic Compliance Matrix: (Units=1/GPa)
#
#
# Indices 1 2 3 4 5 6 
#
# 1 0.022089 -0.014453 -0.002726 0.000000 0.000000 0.000000
# 2 -0.014453 0.022089 -0.002726 0.000000 0.000000 0.000000
# 3 -0.002726 -0.002726 0.017776 0.000000 0.000000 0.000000
# 4 0.000000 0.000000 0.000000 0.073842 0.000000 0.000000
# 5 0.000000 0.000000 0.000000 0.000000 0.073842 0.000000
# 6 0.000000 0.000000 0.000000 0.000000 0.000000 0.034573
#
#
# Mechanical properties :
#
#
# Convention : Reuss Voigt Hill
#
# Bulk Modulus (GPa) = 45.16005 49.72386 47.44195
# Shear Modulus (GPa) = 17.15846 20.04502 18.60174
#
# Velocity S-wave (km/s) = 3.35579 3.62710 3.49408
# Velocity P-wave (km/s) = 6.68239 7.08348 6.88586
#
# Compressibility (1/GPa) = 0.02214347
#
# Stress axis : x y z
#
# Youngs Moduli (GPa) = 45.27197 45.27197 56.25559
#
# Poissons Ratio (x) = 0.65431 0.15336
# Poissons Ratio (y) = 0.65431 0.15336
# Poissons Ratio (z) = 0.12341 0.12341
#
# Static dielectric constant tensor:
#      x y z
#    x 2.993820 0.000000 0.000000 
#    y 0.000000 2.993820 0.000000 
#    z 0.000000 0.000000 2.697070 
# 
# 
# High freq. dielectric constant tensor:
#      x y z
#    x 1.578320 0.000000 0.000000 
#    y 0.000000 1.578320 0.000000 
#    z 0.000000 0.000000 1.543990 
# 
# From -- ./inp_files/11426.got.cif
#   From: 2010.06.25/outbox.cif.g09.slc.cpg/sg140_6_cif.got.tgz:11426.got - 2010.06.28 10:53:23.
