data_PCOD8320246
_publ_section_title
;
Structure prediction by ZEFSAII (Michael W. Deem and Ramdas Pophale) SiO2 
 PCOD8320246
Probable space group: I 4/M C M
;
_chemical_formula_sum "Si O2"
_cell_formula_units_Z 128
_cell_length_a 29.171383
_cell_length_b 29.171383
_cell_length_c 8.589119
_cell_angle_alpha 90.000000
_cell_angle_beta 90.000000
_cell_angle_gamma 90.000000
_cell_volume 7309.079041
_symmetry_space_group_name_H-M "I 4/M C M"
_symmetry_group_IT_number 140
_symmetry_cell_setting 'tetragonal'
loop_
_space_group_symop_operation_xyz
x,y,z
-y,x,z
-x,-y,z
y,-x,z
x,-y,1/2-z
-x,y,1/2-z
y,x,1/2-z
-y,-x,1/2-z
-x,-y,-z
y,-x,-z
x,y,-z
-y,x,-z
-x,y,1/2+z
x,-y,1/2+z
-y,-x,1/2+z
y,x,1/2+z
1/2+x,1/2+y,1/2+z
1/2-y,1/2+x,1/2+z
1/2-x,1/2-y,1/2+z
1/2+y,1/2-x,1/2+z
1/2+x,1/2-y,-z
1/2-x,1/2+y,-z
1/2+y,1/2+x,-z
1/2-y,1/2-x,-z
1/2-x,1/2-y,1/2-z
1/2+y,1/2-x,1/2-z
1/2+x,1/2+y,1/2-z
1/2-y,1/2+x,1/2-z
1/2-x,1/2+y,z
1/2+x,1/2-y,z
1/2-y,1/2-x,z
1/2+y,1/2+x,z
loop_
_atom_site_type_symbol
_atom_site_label
_atom_site_fract_x
_atom_site_fract_y
_atom_site_fract_z
Si Si1 0.298330 0.201671 0.320489
Si Si2 0.952791 0.230368 0.673811
Si Si3 0.364606 0.864606 0.323853
Si Si4 0.161239 0.545516 0.674146
Si Si5 0.146408 0.786625 0.816133
O O1 0.287923 0.212078 0.500000
O O2 0.336842 0.163159 0.305808
O O3 0.252817 0.181192 0.242601
O O4 0.948956 0.209829 0.500000
O O5 0.956491 0.284480 0.666227
O O6 0.906509 0.217957 0.766138
O O7 0.000000 0.210618 0.750000
O O8 0.350604 0.850604 0.500000
O O9 0.417275 0.854709 0.297381
O O10 0.140747 0.500000 0.750000
O O11 0.141362 0.553366 0.500000
O O12 0.165227 0.834774 0.750000
O O13 0.147954 0.786257 0.000000
#
# Coordination Sequence:
#
# PCOD8320246 Si02
#       5
#    16  32  16  32  32
#     4  12  23  37  52  74 106 143 183 222 263 311
#     4  10  20  35  55  78 106 138 176 220 265 310
#     4  12  22  33  53  77 103 134 172 214 263 316
#     4  10  20  34  53  75 102 131 168 215 265 314
#     4  12  24  38  55  77 108 146 184 222 265 316
#
# _framework density 17.512464999999999
#
# number of rings (size 3 to 8) (size 9 to 14) (size 15 to 20)
#    0.000    1.000    2.500    6.375    0.000    2.000 
#    0.000    0.000    0.000    0.375    0.000    2.625 
#    0.000    0.500    0.000    5.000    0.000    3.000 
#
# Total GULP energy -793355.865189 kJ/mol
# GULP energy per Si atom -12396.185394 kJ/mol
# Density = 1.747261 g / cm^3
# Si number density = 17.512465 Si / 1000 Ang^3
#
#
#
# Elastic Constant Matrix: (Units=GPa)
#
#
# Indices 1 2 3 4 5 6 
#
# 1 75.3877 33.0775 39.6635 0.0000 0.0000 0.0000
# 2 33.0775 75.3744 39.6604 0.0000 0.0000 0.0000
# 3 39.6635 39.6604 160.6596 0.0000 0.0000 0.0000
# 4 0.0000 0.0000 0.0000 26.9069 0.0000 0.0000
# 5 0.0000 0.0000 0.0000 0.0000 26.9072 0.0000
# 6 0.0000 0.0000 0.0000 0.0000 0.0000 14.1566
#
#
#
# Elastic Compliance Matrix: (Units=1/GPa)
#
#
# Indices 1 2 3 4 5 6 
#
# 1 0.017444 -0.006194 -0.002778 0.000000 0.000000 0.000000
# 2 -0.006194 0.017447 -0.002778 0.000000 0.000000 0.000000
# 3 -0.002778 -0.002778 0.007596 0.000000 0.000000 0.000000
# 4 0.000000 0.000000 0.000000 0.037165 0.000000 0.000000
# 5 0.000000 0.000000 0.000000 0.000000 0.037165 0.000000
# 6 0.000000 0.000000 0.000000 0.000000 0.000000 0.070638
#
#
# Mechanical properties :
#
#
# Convention : Reuss Voigt Hill
#
# Bulk Modulus (GPa) = 52.66394 59.58052 56.12223
# Shear Modulus (GPa) = 23.01162 26.86217 24.93689
#
# Velocity S-wave (km/s) = 3.62887 3.92074 3.77762
# Velocity P-wave (km/s) = 6.90621 7.38863 7.15149
#
# Compressibility (1/GPa) = 0.01898832
#
# Stress axis : x y z
#
# Youngs Moduli (GPa) = 57.32761 57.31733 131.65187
#
# Poissons Ratio (x) = 0.35500 0.36567
# Poissons Ratio (y) = 0.35506 0.36571
# Poissons Ratio (z) = 0.15923 0.15922
#
# Static dielectric constant tensor:
#      x y z
#    x 3.218650 0.000000 0.000000 
#    y 0.000000 3.218650 0.000000 
#    z 0.000000 0.000000 3.563630 
# 
# 
# High freq. dielectric constant tensor:
#      x y z
#    x 1.655130 0.000000 0.000000 
#    y 0.000000 1.655130 0.000000 
#    z 0.000000 0.000000 1.702050 
# 
# From -- ./inp_files/1521.got.cif
#   From: 2010.06.25/outbox.cif.g09.slc.cpg/sg140_1_cif.got.tgz:1521.got - 2010.06.28 10:53:23.
