data_PCOD8320697
_publ_section_title
;
Structure prediction by ZEFSAII (Michael W. Deem and Ramdas Pophale) SiO2 
 PCOD8320697
Probable space group: I 41/A M D
;
_chemical_formula_sum "Si O2"
_cell_formula_units_Z 176
_cell_length_a 18.462995
_cell_length_b 18.462995
_cell_length_c 25.502715
_cell_angle_alpha 90.000000
_cell_angle_beta 90.000000
_cell_angle_gamma 90.000000
_cell_volume 8693.421197
_symmetry_space_group_name_H-M "I 41/A M D"
_symmetry_group_IT_number 141
_space_group.IT_coordinate_system_code '2'
_symmetry_cell_setting 'tetragonal'
loop_
_space_group_symop_operation_xyz
x,y,z
1/4-y,3/4+x,1/4+z
-x,1/2-y,z
1/4+y,1/4-x,3/4+z
x,-y,-z
-x,1/2+y,-z
1/4+y,3/4+x,1/4-z
1/4-y,1/4-x,3/4-z
-x,-y,-z
3/4+y,1/4-x,3/4-z
x,1/2+y,-z
3/4-y,3/4+x,1/4-z
-x,y,z
x,1/2-y,z
3/4-y,1/4-x,3/4+z
3/4+y,3/4+x,1/4+z
1/2+x,1/2+y,1/2+z
3/4-y,1/4+x,3/4+z
1/2-x,-y,1/2+z
3/4+y,3/4-x,1/4+z
1/2+x,1/2-y,1/2-z
1/2-x,y,1/2-z
3/4+y,1/4+x,3/4-z
3/4-y,3/4-x,1/4-z
1/2-x,1/2-y,1/2-z
1/4+y,3/4-x,1/4-z
1/2+x,y,1/2-z
1/4-y,1/4+x,3/4-z
1/2-x,1/2+y,1/2+z
1/2+x,-y,1/2+z
1/4-y,3/4-x,1/4+z
1/4+y,1/4+x,3/4+z
loop_
_atom_site_type_symbol
_atom_site_label
_atom_site_fract_x
_atom_site_fract_y
_atom_site_fract_z
Si Si1 0.690774 0.829911 0.089097
Si Si2 0.581278 0.073609 0.586590
Si Si3 0.729208 0.877063 0.976340
Si Si4 0.301552 0.829076 0.621577
Si Si5 0.250000 0.924438 0.250000
Si Si6 0.310498 0.668479 0.794134
O O1 0.656364 0.750000 0.079845
O O2 0.747914 0.825344 0.134892
O O3 0.630901 0.884575 0.110109
O O4 0.733577 0.854362 0.036953
O O5 0.500000 0.101102 0.571799
O O6 0.617848 0.132153 0.625000
O O7 0.626534 0.056793 0.533711
O O8 0.776973 0.825145 0.939285
O O9 0.769649 0.953401 0.964986
O O10 0.643123 0.878538 0.962947
O O11 0.329662 0.750000 0.638139
O O12 0.227395 0.848696 0.650943
O O13 0.344597 0.750000 0.792615
O O14 0.250000 0.660215 0.750000
#
# Coordination Sequence:
#
# PCOD8320697 Si02
#       6
#    32  32  32  32  16  32
#     4  11  23  39  60  88 123 163 207 257 311 374
#     4  11  24  42  64  91 125 163 209 259 314 378
#     4  12  21  36  63  93 122 159 210 264 308 375
#     4  11  23  39  59  88 125 163 209 259 315 376
#     4  12  21  36  65  96 122 160 212 264 315 364
#     4  10  20  34  57  88 120 156 200 257 315 370
#
# _framework density 20.245194999999999
#
# number of rings (size 3 to 8) (size 9 to 14) (size 15 to 20)
#    0.000    0.909    6.364    1.364    0.000    0.545 
#    0.000    0.000    0.000    1.636    0.000    5.091 
#    0.000    0.000    0.000    0.000    0.000    0.000 
#
# Total GULP energy -1090414.783410 kJ/mol
# GULP energy per Si atom -12391.077084 kJ/mol
# Density = 2.019912 g / cm^3
# Si number density = 20.245195 Si / 1000 Ang^3
#
#
#
# Elastic Constant Matrix: (Units=GPa)
#
#
# Indices 1 2 3 4 5 6 
#
# 1 85.8945 38.2940 21.6507 0.0000 0.0000 0.0000
# 2 38.2940 85.8948 21.6508 0.0000 0.0000 0.0000
# 3 21.6507 21.6508 82.3324 0.0000 0.0000 0.0000
# 4 0.0000 0.0000 0.0000 23.2758 0.0000 0.0000
# 5 0.0000 0.0000 0.0000 0.0000 23.2757 0.0000
# 6 0.0000 0.0000 0.0000 0.0000 0.0000 9.5573
#
#
#
# Elastic Compliance Matrix: (Units=1/GPa)
#
#
# Indices 1 2 3 4 5 6 
#
# 1 0.014937 -0.006072 -0.002331 0.000000 0.000000 0.000000
# 2 -0.006072 0.014937 -0.002331 0.000000 0.000000 0.000000
# 3 -0.002331 -0.002331 0.013372 0.000000 0.000000 0.000000
# 4 0.000000 0.000000 0.000000 0.042963 0.000000 0.000000
# 5 0.000000 0.000000 0.000000 0.000000 0.042963 0.000000
# 6 0.000000 0.000000 0.000000 0.000000 0.000000 0.104632
#
#
# Mechanical properties :
#
#
# Convention : Reuss Voigt Hill
#
# Bulk Modulus (GPa) = 45.91951 46.36809 46.14380
# Shear Modulus (GPa) = 19.04540 22.72350 20.88445
#
# Velocity S-wave (km/s) = 3.07047 3.35388 3.21530
# Velocity P-wave (km/s) = 5.94149 6.16044 6.05195
#
# Compressibility (1/GPa) = 0.02177724
#
# Stress axis : x y z
#
# Youngs Moduli (GPa) = 66.94950 66.94964 74.78333
#
# Poissons Ratio (x) = 0.40649 0.17434
# Poissons Ratio (y) = 0.40648 0.17434
# Poissons Ratio (z) = 0.15607 0.15608
#
# Static dielectric constant tensor:
#      x y z
#    x 3.735030 0.000000 0.000000 
#    y 0.000000 3.735030 0.000000 
#    z 0.000000 0.000000 3.866330 
# 
# 
# High freq. dielectric constant tensor:
#      x y z
#    x 1.780430 0.000000 0.000000 
#    y 0.000000 1.780430 0.000000 
#    z 0.000000 0.000000 1.799740 
# 
# From -- ./inp_files/12910.got.cif
#   From: 2010.03.12/outbox.cif.g09.slc.cpg/sg141_7_cif.got.tgz:12910.got - 2010.04.03 13:18:35.
