data_PCOD8320348
_publ_section_title
;
Structure prediction by ZEFSAII (Michael W. Deem and Ramdas Pophale) SiO2 
 PCOD8320348
Probable space group: I 4/M C M
;
_chemical_formula_sum "Si O2"
_cell_formula_units_Z 160
_cell_length_a 29.110181
_cell_length_b 29.110181
_cell_length_c 9.432092
_cell_angle_alpha 90.000000
_cell_angle_beta 90.000000
_cell_angle_gamma 90.000000
_cell_volume 7992.779641
_symmetry_space_group_name_H-M "I 4/M C M"
_symmetry_group_IT_number 140
_symmetry_cell_setting 'tetragonal'
loop_
_space_group_symop_operation_xyz
x,y,z
-y,x,z
-x,-y,z
y,-x,z
x,-y,1/2-z
-x,y,1/2-z
y,x,1/2-z
-y,-x,1/2-z
-x,-y,-z
y,-x,-z
x,y,-z
-y,x,-z
-x,y,1/2+z
x,-y,1/2+z
-y,-x,1/2+z
y,x,1/2+z
1/2+x,1/2+y,1/2+z
1/2-y,1/2+x,1/2+z
1/2-x,1/2-y,1/2+z
1/2+y,1/2-x,1/2+z
1/2+x,1/2-y,-z
1/2-x,1/2+y,-z
1/2+y,1/2+x,-z
1/2-y,1/2-x,-z
1/2-x,1/2-y,1/2-z
1/2+y,1/2-x,1/2-z
1/2+x,1/2+y,1/2-z
1/2-y,1/2+x,1/2-z
1/2-x,1/2+y,z
1/2+x,1/2-y,z
1/2-y,1/2-x,z
1/2+y,1/2+x,z
loop_
_atom_site_type_symbol
_atom_site_label
_atom_site_fract_x
_atom_site_fract_y
_atom_site_fract_z
Si Si1 0.405925 0.652862 0.839684
Si Si2 0.073345 0.981513 0.500000
Si Si3 0.771051 0.833973 0.665855
Si Si4 0.000000 0.135122 0.250000
Si Si5 0.683763 0.110187 0.156761
Si Si6 0.452911 0.124431 0.833655
O O1 0.391455 0.608545 0.750000
O O2 0.376202 0.696288 0.794474
O O3 0.459618 0.665973 0.817707
O O4 0.396652 0.638900 0.000000
O O5 0.033492 0.944543 0.500000
O O6 0.103655 0.973998 0.362632
O O7 0.788243 0.788243 0.750000
O O8 0.770543 0.821080 0.500000
O O9 0.721571 0.853269 0.715658
O O10 0.636715 0.136715 0.135194
O O11 0.671428 0.069348 0.267054
O O12 0.699534 0.091301 0.000000
O O13 0.500000 0.113471 0.750000
O O14 0.419269 0.080732 0.816216
O O15 0.462965 0.133549 0.000000
#
# Coordination Sequence:
#
# PCOD8320348 Si02
#       6
#    32  16  32  16  32  32
#     4  10  21  36  53  70  95 129 165 210 261 321
#     4  11  22  34  48  68  90 114 152 204 258 312
#     4   9  19  36  56  80 110 143 184 230 281 336
#     4  12  22  33  50  68  88 122 160 202 255 316
#     4   9  18  35  59  85 117 154 189 230 283 336
#     4  10  21  37  59  88 121 160 201 243 287 338
#
# _framework density 20.018066000000001
#
# number of rings (size 3 to 8) (size 9 to 14) (size 15 to 20)
#    0.000    2.100    1.000    2.400    1.400    3.400 
#    1.800    1.000    0.000    0.000    0.000    0.000 
#    0.000    0.000    0.000    0.000    0.000    0.000 
#
# Total GULP energy -991363.331570 kJ/mol
# GULP energy per Si atom -12392.041645 kJ/mol
# Density = 1.997250 g / cm^3
# Si number density = 20.018066 Si / 1000 Ang^3
#
#
#
# Elastic Constant Matrix: (Units=GPa)
#
#
# Indices 1 2 3 4 5 6 
#
# 1 54.9098 49.3936 41.1132 0.0000 0.0000 0.0000
# 2 49.3936 54.9098 41.1132 0.0000 0.0000 0.0000
# 3 41.1132 41.1132 114.3280 0.0000 0.0000 0.0000
# 4 0.0000 0.0000 0.0000 28.1010 0.0000 0.0000
# 5 0.0000 0.0000 0.0000 0.0000 28.1010 0.0000
# 6 0.0000 0.0000 0.0000 0.0000 0.0000 -21.0792
#
#
#
# Elastic Compliance Matrix: (Units=1/GPa)
#
#
# Indices 1 2 3 4 5 6 
#
# 1 0.097333 -0.083952 -0.004812 0.000000 0.000000 0.000000
# 2 -0.083952 0.097333 -0.004812 0.000000 0.000000 0.000000
# 3 -0.004812 -0.004812 0.012207 0.000000 0.000000 0.000000
# 4 0.000000 0.000000 0.000000 0.035586 0.000000 0.000000
# 5 0.000000 0.000000 0.000000 0.000000 0.035586 0.000000
# 6 0.000000 0.000000 0.000000 0.000000 0.000000 -0.047440
#
#
# Mechanical properties :
#
#
# Convention : Reuss Voigt Hill
#
# Bulk Modulus (GPa) = 50.70548 54.15418 52.42983
# Shear Modulus (GPa) = 11.78330 13.19305 12.48818
#
# Velocity S-wave (km/s) = 2.42881 2.57000 2.50040
# Velocity P-wave (km/s) = 5.76631 5.99315 5.88083
#
# Compressibility (1/GPa) = 0.01972173
#
# Stress axis : x y z
#
# Youngs Moduli (GPa) = 10.27405 10.27405 81.91686
#
# Poissons Ratio (x) = 0.86253 0.39417
# Poissons Ratio (y) = 0.86253 0.39417
# Poissons Ratio (z) = 0.04944 0.04944
#
# Static dielectric constant tensor:
#      x y z
#    x 3.580290 0.000000 0.000000 
#    y 0.000000 3.580290 0.000000 
#    z 0.000000 0.000000 3.816490 
# 
# 
# High freq. dielectric constant tensor:
#      x y z
#    x 1.770140 0.000000 0.000000 
#    y 0.000000 1.770140 0.000000 
#    z 0.000000 0.000000 1.784770 
# 
# From -- ./inp_files/1803.got.cif
#   From: 2010.06.25/outbox.cif.g09.slc.cpg/sg140_1_cif.got.tgz:1803.got - 2010.06.28 10:53:23.
