data_PCOD8320573
_publ_section_title
;
Structure prediction by ZEFSAII (Michael W. Deem and Ramdas Pophale) SiO2 
 PCOD8320573
Probable space group: I 41/A M D
;
_chemical_formula_sum "Si O2"
_cell_formula_units_Z 192
_cell_length_a 29.374268
_cell_length_b 29.374268
_cell_length_c 13.406813
_cell_angle_alpha 90.000000
_cell_angle_beta 90.000000
_cell_angle_gamma 90.000000
_cell_volume 11568.036696
_symmetry_space_group_name_H-M "I 41/A M D"
_symmetry_group_IT_number 141
_space_group.IT_coordinate_system_code '2'
_symmetry_cell_setting 'tetragonal'
loop_
_space_group_symop_operation_xyz
x,y,z
1/4-y,3/4+x,1/4+z
-x,1/2-y,z
1/4+y,1/4-x,3/4+z
x,-y,-z
-x,1/2+y,-z
1/4+y,3/4+x,1/4-z
1/4-y,1/4-x,3/4-z
-x,-y,-z
3/4+y,1/4-x,3/4-z
x,1/2+y,-z
3/4-y,3/4+x,1/4-z
-x,y,z
x,1/2-y,z
3/4-y,1/4-x,3/4+z
3/4+y,3/4+x,1/4+z
1/2+x,1/2+y,1/2+z
3/4-y,1/4+x,3/4+z
1/2-x,-y,1/2+z
3/4+y,3/4-x,1/4+z
1/2+x,1/2-y,1/2-z
1/2-x,y,1/2-z
3/4+y,1/4+x,3/4-z
3/4-y,3/4-x,1/4-z
1/2-x,1/2-y,1/2-z
1/4+y,3/4-x,1/4-z
1/2+x,y,1/2-z
1/4-y,1/4+x,3/4-z
1/2-x,1/2+y,1/2+z
1/2+x,-y,1/2+z
1/4-y,3/4-x,1/4+z
1/4+y,1/4+x,3/4+z
loop_
_atom_site_type_symbol
_atom_site_label
_atom_site_fract_x
_atom_site_fract_y
_atom_site_fract_z
Si Si1 0.450403 0.047978 0.781444
Si Si2 0.174972 0.896163 0.016633
Si Si3 0.138834 0.915408 0.819996
Si Si4 0.236586 0.551410 0.528713
Si Si5 0.449926 0.942669 0.787397
Si Si6 0.084248 0.448499 0.504336
O O1 0.500000 0.066694 0.745222
O O2 0.408548 0.071353 0.722695
O O3 0.448205 0.056549 0.900007
O O4 0.447032 0.995047 0.757227
O O5 0.167926 0.917926 0.125000
O O6 0.134018 0.906901 0.939452
O O7 0.218023 0.918349 0.957820
O O8 0.169795 0.960189 0.804505
O O9 0.088226 0.917197 0.776326
O O10 0.163571 0.875149 0.762152
O O11 0.250598 0.500000 0.500000
O O12 0.203594 0.546407 0.625000
O O13 0.500000 0.923116 0.760210
O O14 0.443474 0.936261 0.905484
O O15 0.104013 0.500000 0.500000
#
# Coordination Sequence:
#
# PCOD8320573 Si02
#       6
#    32  32  32  32  32  32
#     4   9  18  34  52  71  96 133 177 217 257 303
#     4  11  24  37  50  71 100 138 182 218 257 299
#     4  11  21  32  48  72 103 132 176 214 248 302
#     4  12  21  32  48  70  99 140 172 205 247 293
#     4  10  18  30  48  73 104 136 168 208 259 309
#     4   9  17  29  49  76 102 131 164 208 259 304
#
# _framework density 16.597456999999999
#
# number of rings (size 3 to 8) (size 9 to 14) (size 15 to 20)
#    0.000    1.667    3.333    3.000    2.333    2.000 
#    0.000    0.833    0.000    2.000    0.000    0.000 
#    0.000   43.000    0.000    0.000    0.000    0.000 
#
# Total GULP energy -1189640.088455 kJ/mol
# GULP energy per Si atom -12392.084255 kJ/mol
# Density = 1.655968 g / cm^3
# Si number density = 16.597457 Si / 1000 Ang^3
#
#
#
# Elastic Constant Matrix: (Units=GPa)
#
#
# Indices 1 2 3 4 5 6 
#
# 1 95.4783 39.1846 30.4144 0.0000 0.0000 0.0000
# 2 39.1846 95.4781 30.4145 0.0000 0.0000 0.0000
# 3 30.4144 30.4145 77.9599 0.0000 0.0000 0.0000
# 4 0.0000 0.0000 0.0000 16.2909 0.0000 0.0000
# 5 0.0000 0.0000 0.0000 0.0000 16.2911 0.0000
# 6 0.0000 0.0000 0.0000 0.0000 0.0000 11.7323
#
#
#
# Elastic Compliance Matrix: (Units=1/GPa)
#
#
# Indices 1 2 3 4 5 6 
#
# 1 0.013389 -0.004375 -0.003517 0.000000 0.000000 0.000000
# 2 -0.004375 0.013389 -0.003517 0.000000 0.000000 0.000000
# 3 -0.003517 -0.003517 0.015571 0.000000 0.000000 0.000000
# 4 0.000000 0.000000 0.000000 0.061384 0.000000 0.000000
# 5 0.000000 0.000000 0.000000 0.000000 0.061383 0.000000
# 6 0.000000 0.000000 0.000000 0.000000 0.000000 0.085235
#
#
# Mechanical properties :
#
#
# Convention : Reuss Voigt Hill
#
# Bulk Modulus (GPa) = 51.19569 52.10481 51.65025
# Shear Modulus (GPa) = 17.87759 20.12304 19.00032
#
# Velocity S-wave (km/s) = 3.28552 3.48576 3.38712
# Velocity P-wave (km/s) = 6.73093 6.90377 6.81790
#
# Compressibility (1/GPa) = 0.01953290
#
# Stress axis : x y z
#
# Youngs Moduli (GPa) = 74.68673 74.68653 64.22124
#
# Poissons Ratio (x) = 0.32673 0.22586
# Poissons Ratio (y) = 0.32673 0.22586
# Poissons Ratio (z) = 0.26266 0.26266
#
# Static dielectric constant tensor:
#      x y z
#    x 3.100000 0.000000 0.000000 
#    y 0.000000 3.099990 0.000000 
#    z 0.000000 0.000000 3.094000 
# 
# 
# High freq. dielectric constant tensor:
#      x y z
#    x 1.616740 0.000000 0.000000 
#    y 0.000000 1.616740 0.000000 
#    z 0.000000 0.000000 1.631820 
# 
# From -- ./inp_files/6926.got.cif
#   From: 2010.03.12/outbox.cif.g09.slc.cpg/sg141_4_cif.got.tgz:6926.got - 2010.04.03 13:18:35.
