data_PCOD8320706
_publ_section_title
;
Structure prediction by ZEFSAII (Michael W. Deem and Ramdas Pophale) SiO2 
 PCOD8320706
Probable space group: I 41/A M D
;
_chemical_formula_sum "Si O2"
_cell_formula_units_Z 160
_cell_length_a 18.224585
_cell_length_b 18.224585
_cell_length_c 24.311935
_cell_angle_alpha 90.000000
_cell_angle_beta 90.000000
_cell_angle_gamma 90.000000
_cell_volume 8074.856649
_symmetry_space_group_name_H-M "I 41/A M D"
_symmetry_group_IT_number 141
_space_group.IT_coordinate_system_code '2'
_symmetry_cell_setting 'tetragonal'
loop_
_space_group_symop_operation_xyz
x,y,z
1/4-y,3/4+x,1/4+z
-x,1/2-y,z
1/4+y,1/4-x,3/4+z
x,-y,-z
-x,1/2+y,-z
1/4+y,3/4+x,1/4-z
1/4-y,1/4-x,3/4-z
-x,-y,-z
3/4+y,1/4-x,3/4-z
x,1/2+y,-z
3/4-y,3/4+x,1/4-z
-x,y,z
x,1/2-y,z
3/4-y,1/4-x,3/4+z
3/4+y,3/4+x,1/4+z
1/2+x,1/2+y,1/2+z
3/4-y,1/4+x,3/4+z
1/2-x,-y,1/2+z
3/4+y,3/4-x,1/4+z
1/2+x,1/2-y,1/2-z
1/2-x,y,1/2-z
3/4+y,1/4+x,3/4-z
3/4-y,3/4-x,1/4-z
1/2-x,1/2-y,1/2-z
1/4+y,3/4-x,1/4-z
1/2+x,y,1/2-z
1/4-y,1/4+x,3/4-z
1/2-x,1/2+y,1/2+z
1/2+x,-y,1/2+z
1/4-y,3/4-x,1/4+z
1/4+y,1/4+x,3/4+z
loop_
_atom_site_type_symbol
_atom_site_label
_atom_site_fract_x
_atom_site_fract_y
_atom_site_fract_z
Si Si1 0.157426 0.018479 0.650452
Si Si2 0.420366 0.546077 0.554525
Si Si3 0.293563 0.337411 0.996005
Si Si4 0.084268 0.562089 0.457160
Si Si5 0.687798 0.828813 0.402747
O O1 0.159549 0.096412 0.682503
O O2 0.098712 0.028424 0.602589
O O3 0.234650 0.984650 0.625000
O O4 0.124102 0.961468 0.694059
O O5 0.404484 0.500000 0.500000
O O6 0.500000 0.589173 0.546476
O O7 0.433564 0.498786 0.607886
O O8 0.296864 0.250000 0.000334
O O9 0.368017 0.365220 0.967547
O O10 0.225098 0.363341 0.957433
O O11 0.107475 0.500000 0.500000
O O12 0.000000 0.585133 0.463022
O O13 0.653000 0.750000 0.418724
O O14 0.626557 0.876557 0.375000
#
# Coordination Sequence:
#
# PCOD8320706 Si02
#       5
#    32  32  32  32  32
#     4  12  23  37  66  95 125 165 212 265 314 368
#     4  10  21  34  55  89 126 159 204 257 307 364
#     4  11  24  42  63  92 126 163 206 259 317 375
#     4  11  24  42  63  91 124 162 207 258 314 377
#     4  10  20  35  56  84 120 161 204 249 302 370
#
# _framework density 19.814592000000001
#
# number of rings (size 3 to 8) (size 9 to 14) (size 15 to 20)
#    0.000    1.200    4.000    2.400    2.800    0.600 
#    0.000    0.000    0.000    3.000    0.000    0.000 
#    0.000    0.000    0.000    0.000    0.000    0.000 
#
# Total GULP energy -991075.719413 kJ/mol
# GULP energy per Si atom -12388.446493 kJ/mol
# Density = 1.976949 g / cm^3
# Si number density = 19.814592 Si / 1000 Ang^3
#
#
#
# Elastic Constant Matrix: (Units=GPa)
#
#
# Indices 1 2 3 4 5 6 
#
# 1 88.6533 47.2910 32.5608 0.0000 0.0000 0.0000
# 2 47.2910 88.6533 32.5608 0.0000 0.0000 0.0000
# 3 32.5608 32.5608 131.3884 0.0000 0.0000 0.0000
# 4 0.0000 0.0000 0.0000 29.2723 0.0000 0.0000
# 5 0.0000 0.0000 0.0000 0.0000 29.2723 0.0000
# 6 0.0000 0.0000 0.0000 0.0000 0.0000 13.2141
#
#
#
# Elastic Compliance Matrix: (Units=1/GPa)
#
#
# Indices 1 2 3 4 5 6 
#
# 1 0.016262 -0.007915 -0.002069 0.000000 0.000000 0.000000
# 2 -0.007915 0.016262 -0.002069 0.000000 0.000000 0.000000
# 3 -0.002069 -0.002069 0.008636 0.000000 0.000000 0.000000
# 4 0.000000 0.000000 0.000000 0.034162 0.000000 0.000000
# 5 0.000000 0.000000 0.000000 0.000000 0.034162 0.000000
# 6 0.000000 0.000000 0.000000 0.000000 0.000000 0.075677
#
#
# Mechanical properties :
#
#
# Convention : Reuss Voigt Hill
#
# Bulk Modulus (GPa) = 58.63085 59.28000 58.95543
# Shear Modulus (GPa) = 23.26126 27.43724 25.34925
#
# Velocity S-wave (km/s) = 3.43001 3.72519 3.58064
# Velocity P-wave (km/s) = 6.73354 6.96312 6.84929
#
# Compressibility (1/GPa) = 0.01705587
#
# Stress axis : x y z
#
# Youngs Moduli (GPa) = 61.49409 61.49409 115.79071
#
# Poissons Ratio (x) = 0.48672 0.23952
# Poissons Ratio (y) = 0.48672 0.23952
# Poissons Ratio (z) = 0.12720 0.12720
#
# Static dielectric constant tensor:
#      x y z
#    x 3.754280 0.000000 0.000000 
#    y 0.000000 3.754280 0.000000 
#    z 0.000000 0.000000 3.987160 
# 
# 
# High freq. dielectric constant tensor:
#      x y z
#    x 1.757810 0.000000 0.000000 
#    y 0.000000 1.757810 0.000000 
#    z 0.000000 0.000000 1.799700 
# 
# From -- ./inp_files/12674.got.cif
#   From: 2010.03.12/outbox.cif.g09.slc.cpg/sg141_7_cif.got.tgz:12674.got - 2010.04.03 13:18:35.
