data_PCOD8320228
_publ_section_title
;
Structure prediction by ZEFSAII (Michael W. Deem and Ramdas Pophale) SiO2 
 PCOD8320228
Probable space group: I 4/M C M
;
_chemical_formula_sum "Si O2"
_cell_formula_units_Z 128
_cell_length_a 28.940211
_cell_length_b 28.940211
_cell_length_c 8.976242
_cell_angle_alpha 90.000000
_cell_angle_beta 90.000000
_cell_angle_gamma 90.000000
_cell_volume 7517.924139
_symmetry_space_group_name_H-M "I 4/M C M"
_symmetry_group_IT_number 140
_symmetry_cell_setting 'tetragonal'
loop_
_space_group_symop_operation_xyz
x,y,z
-y,x,z
-x,-y,z
y,-x,z
x,-y,1/2-z
-x,y,1/2-z
y,x,1/2-z
-y,-x,1/2-z
-x,-y,-z
y,-x,-z
x,y,-z
-y,x,-z
-x,y,1/2+z
x,-y,1/2+z
-y,-x,1/2+z
y,x,1/2+z
1/2+x,1/2+y,1/2+z
1/2-y,1/2+x,1/2+z
1/2-x,1/2-y,1/2+z
1/2+y,1/2-x,1/2+z
1/2+x,1/2-y,-z
1/2-x,1/2+y,-z
1/2+y,1/2+x,-z
1/2-y,1/2-x,-z
1/2-x,1/2-y,1/2-z
1/2+y,1/2-x,1/2-z
1/2+x,1/2+y,1/2-z
1/2-y,1/2+x,1/2-z
1/2-x,1/2+y,z
1/2+x,1/2-y,z
1/2-y,1/2-x,z
1/2+y,1/2+x,z
loop_
_atom_site_type_symbol
_atom_site_label
_atom_site_fract_x
_atom_site_fract_y
_atom_site_fract_z
Si Si1 0.371605 0.128396 0.338804
Si Si2 0.954131 0.773792 0.331927
Si Si3 0.204170 0.704170 0.660918
Si Si4 0.335003 0.043195 0.163931
Si Si5 0.144419 0.788704 0.320122
O O1 0.389321 0.110680 0.500000
O O2 0.333738 0.166263 0.365806
O O3 0.348184 0.088470 0.248955
O O4 0.950272 0.794588 0.500000
O O5 0.961053 0.719550 0.344707
O O6 0.907821 0.783912 0.238393
O O7 0.000000 0.794646 0.250000
O O8 0.222010 0.722010 0.500000
O O9 0.178880 0.747675 0.741807
O O10 0.356871 0.000000 0.250000
O O11 0.356888 0.044478 0.000000
O O12 0.163954 0.836047 0.250000
O O13 0.143180 0.789340 0.500000
#
# Coordination Sequence:
#
# PCOD8320228 Si02
#       5
#    16  32  16  32  32
#     4  11  19  32  52  73  98 128 165 210 256 303
#     4  10  20  34  52  74  99 131 169 213 257 300
#     4   9  19  32  48  70 100 138 176 211 250 294
#     4  10  20  33  50  73  97 125 163 208 257 307
#     4  11  21  35  51  73 104 141 178 214 254 303
#
# _framework density 17.025974999999999
#
# number of rings (size 3 to 8) (size 9 to 14) (size 15 to 20)
#    0.000    1.750    2.500    3.000    0.000    2.000 
#    0.000    1.875    0.000    0.375    0.000    2.625 
#    0.000    0.500    0.000    5.000    0.000    3.000 
#
# Total GULP energy -793008.240842 kJ/mol
# GULP energy per Si atom -12390.753763 kJ/mol
# Density = 1.698722 g / cm^3
# Si number density = 17.025975 Si / 1000 Ang^3
#
#
#
# Elastic Constant Matrix: (Units=GPa)
#
#
# Indices 1 2 3 4 5 6 
#
# 1 64.8892 30.2655 36.2365 0.0000 0.0000 0.0000
# 2 30.2655 64.8780 36.2333 0.0000 0.0000 0.0000
# 3 36.2365 36.2333 136.1739 0.0000 0.0000 0.0000
# 4 0.0000 0.0000 0.0000 30.2502 0.0000 0.0000
# 5 0.0000 0.0000 0.0000 0.0000 30.2505 0.0000
# 6 0.0000 0.0000 0.0000 0.0000 0.0000 13.9795
#
#
#
# Elastic Compliance Matrix: (Units=1/GPa)
#
#
# Indices 1 2 3 4 5 6 
#
# 1 0.021032 -0.007853 -0.003507 0.000000 0.000000 0.000000
# 2 -0.007853 0.021036 -0.003508 0.000000 0.000000 0.000000
# 3 -0.003507 -0.003508 0.009210 0.000000 0.000000 0.000000
# 4 0.000000 0.000000 0.000000 0.033058 0.000000 0.000000
# 5 0.000000 0.000000 0.000000 0.000000 0.033057 0.000000
# 6 0.000000 0.000000 0.000000 0.000000 0.000000 0.071534
#
#
# Mechanical properties :
#
#
# Convention : Reuss Voigt Hill
#
# Bulk Modulus (GPa) = 46.41902 52.37909 49.39906
# Shear Modulus (GPa) = 22.13932 25.77643 23.95787
#
# Velocity S-wave (km/s) = 3.60992 3.89517 3.75525
# Velocity P-wave (km/s) = 6.68567 7.14568 6.91950
#
# Compressibility (1/GPa) = 0.02154289
#
# Stress axis : x y z
#
# Youngs Moduli (GPa) = 47.54635 47.53811 108.57581
#
# Poissons Ratio (x) = 0.37330 0.38081
# Poissons Ratio (y) = 0.37337 0.38084
# Poissons Ratio (z) = 0.16676 0.16674
#
# Static dielectric constant tensor:
#      x y z
#    x 3.009760 0.000000 0.000000 
#    y 0.000000 3.009770 0.000000 
#    z 0.000000 0.000000 3.537680 
# 
# 
# High freq. dielectric constant tensor:
#      x y z
#    x 1.633270 0.000000 0.000000 
#    y 0.000000 1.633270 0.000000 
#    z 0.000000 0.000000 1.673330 
# 
# From -- ./inp_files/1487.got.cif
#   From: 2010.06.25/outbox.cif.g09.slc.cpg/sg140_1_cif.got.tgz:1487.got - 2010.06.28 10:53:23.
