data_PCOD8320488
_publ_section_title
;
Structure prediction by ZEFSAII (Michael W. Deem and Ramdas Pophale) SiO2 
 PCOD8320488
Probable space group: I 4/M C M
;
_chemical_formula_sum "Si O2"
_cell_formula_units_Z 192
_cell_length_a 21.177545
_cell_length_b 21.177545
_cell_length_c 27.224291
_cell_angle_alpha 90.000000
_cell_angle_beta 90.000000
_cell_angle_gamma 90.000000
_cell_volume 12209.779045
_symmetry_space_group_name_H-M "I 4/M C M"
_symmetry_group_IT_number 140
_symmetry_cell_setting 'tetragonal'
loop_
_space_group_symop_operation_xyz
x,y,z
-y,x,z
-x,-y,z
y,-x,z
x,-y,1/2-z
-x,y,1/2-z
y,x,1/2-z
-y,-x,1/2-z
-x,-y,-z
y,-x,-z
x,y,-z
-y,x,-z
-x,y,1/2+z
x,-y,1/2+z
-y,-x,1/2+z
y,x,1/2+z
1/2+x,1/2+y,1/2+z
1/2-y,1/2+x,1/2+z
1/2-x,1/2-y,1/2+z
1/2+y,1/2-x,1/2+z
1/2+x,1/2-y,-z
1/2-x,1/2+y,-z
1/2+y,1/2+x,-z
1/2-y,1/2-x,-z
1/2-x,1/2-y,1/2-z
1/2+y,1/2-x,1/2-z
1/2+x,1/2+y,1/2-z
1/2-y,1/2+x,1/2-z
1/2-x,1/2+y,z
1/2+x,1/2-y,z
1/2-y,1/2-x,z
1/2+y,1/2+x,z
loop_
_atom_site_type_symbol
_atom_site_label
_atom_site_fract_x
_atom_site_fract_y
_atom_site_fract_z
Si Si1 0.543124 0.324997 0.556860
Si Si2 0.534305 0.869090 0.558294
Si Si3 0.866158 0.734636 0.943884
Si Si4 0.591699 0.355857 0.900649
Si Si5 0.092205 0.690197 0.941583
Si Si6 0.430100 0.577015 0.804585
O O1 0.524675 0.316800 0.500000
O O2 0.479978 0.336986 0.587660
O O3 0.588063 0.385418 0.563563
O O4 0.579541 0.261814 0.576790
O O5 0.534551 0.872254 0.500000
O O6 0.564998 0.935003 0.578520
O O7 0.578455 0.811115 0.574763
O O8 0.463980 0.855984 0.578015
O O9 0.798503 0.701498 0.939607
O O10 0.863997 0.795465 0.909124
O O11 0.878833 0.755868 0.000000
O O12 0.602890 0.378349 0.844627
O O13 0.158655 0.658655 0.923060
O O14 0.091900 0.691016 0.000000
O O15 0.412852 0.504328 0.812384
O O16 0.405426 0.594575 0.750000
#
# Coordination Sequence:
#
# PCOD8320488 Si02
#       6
#    32  32  32  32  32  32
#     4  11  22  31  42  65  96 129 161 197 236 282
#     4   8  13  23  40  60  82 113 155 200 239 271
#     4   9  17  29  45  65  94 132 167 194 226 282
#     4  12  20  32  49  68  93 125 161 200 241 288
#     4   9  17  29  42  58  86 123 162 200 233 269
#     4   9  18  34  52  71  93 116 152 203 250 293
#
# _framework density 15.725099999999999
#
# number of rings (size 3 to 8) (size 9 to 14) (size 15 to 20)
#    0.000    2.333    3.333    3.000    0.000    1.333 
#    0.000    4.167    0.000    0.500    0.000    0.000 
#    0.000    0.000    0.000    0.000    0.000    0.167 
#
# Total GULP energy -1189520.912684 kJ/mol
# GULP energy per Si atom -12390.842840 kJ/mol
# Density = 1.568931 g / cm^3
# Si number density = 15.725100 Si / 1000 Ang^3
#
#
#
# Elastic Constant Matrix: (Units=GPa)
#
#
# Indices 1 2 3 4 5 6 
#
# 1 77.6187 38.3640 25.9255 0.0000 0.0000 0.0000
# 2 38.3640 77.6180 25.9254 0.0000 0.0000 0.0000
# 3 25.9255 25.9254 58.2155 0.0000 0.0000 0.0000
# 4 0.0000 0.0000 0.0000 12.4733 0.0000 0.0000
# 5 0.0000 0.0000 0.0000 0.0000 12.4734 0.0000
# 6 0.0000 0.0000 0.0000 0.0000 0.0000 24.0027
#
#
#
# Elastic Compliance Matrix: (Units=1/GPa)
#
#
# Indices 1 2 3 4 5 6 
#
# 1 0.018120 -0.007355 -0.004794 0.000000 0.000000 0.000000
# 2 -0.007355 0.018120 -0.004794 0.000000 0.000000 0.000000
# 3 -0.004794 -0.004794 0.021448 0.000000 0.000000 0.000000
# 4 0.000000 0.000000 0.000000 0.080171 0.000000 0.000000
# 5 0.000000 0.000000 0.000000 0.000000 0.080171 0.000000
# 6 0.000000 0.000000 0.000000 0.000000 0.000000 0.041662
#
#
# Mechanical properties :
#
#
# Convention : Reuss Voigt Hill
#
# Bulk Modulus (GPa) = 42.01419 43.76467 42.88943
# Shear Modulus (GPa) = 16.58310 18.00570 17.29440
#
# Velocity S-wave (km/s) = 3.25093 3.38750 3.31991
# Velocity P-wave (km/s) = 6.39275 6.57204 6.48302
#
# Compressibility (1/GPa) = 0.02380148
#
# Stress axis : x y z
#
# Youngs Moduli (GPa) = 55.18762 55.18711 46.62530
#
# Poissons Ratio (x) = 0.40589 0.22353
# Poissons Ratio (y) = 0.40590 0.22353
# Poissons Ratio (z) = 0.26458 0.26458
#
# Static dielectric constant tensor:
#      x y z
#    x 3.188800 0.000000 0.000000 
#    y 0.000000 3.188800 0.000000 
#    z 0.000000 0.000000 2.564980 
# 
# 
# High freq. dielectric constant tensor:
#      x y z
#    x 1.607530 0.000000 0.000000 
#    y 0.000000 1.607530 0.000000 
#    z 0.000000 0.000000 1.531930 
# 
# From -- ./inp_files/10835.got.cif
#   From: 2010.06.25/outbox.cif.g09.slc.cpg/sg140_6_cif.got.tgz:10835.got - 2010.06.28 10:53:23.
