data_PCOD8320034
_publ_section_title
;
Structure prediction by ZEFSAII (Michael W. Deem and Ramdas Pophale) SiO2 
 PCOD8320034
Probable space group: I 4/M C M
;
_chemical_formula_sum "Si O2"
_cell_formula_units_Z 128
_cell_length_a 17.345146
_cell_length_b 17.345146
_cell_length_c 21.445916
_cell_angle_alpha 90.000000
_cell_angle_beta 90.000000
_cell_angle_gamma 90.000000
_cell_volume 6452.091537
_symmetry_space_group_name_H-M "I 4/M C M"
_symmetry_group_IT_number 140
_symmetry_cell_setting 'tetragonal'
loop_
_space_group_symop_operation_xyz
x,y,z
-y,x,z
-x,-y,z
y,-x,z
x,-y,1/2-z
-x,y,1/2-z
y,x,1/2-z
-y,-x,1/2-z
-x,-y,-z
y,-x,-z
x,y,-z
-y,x,-z
-x,y,1/2+z
x,-y,1/2+z
-y,-x,1/2+z
y,x,1/2+z
1/2+x,1/2+y,1/2+z
1/2-y,1/2+x,1/2+z
1/2-x,1/2-y,1/2+z
1/2+y,1/2-x,1/2+z
1/2+x,1/2-y,-z
1/2-x,1/2+y,-z
1/2+y,1/2+x,-z
1/2-y,1/2-x,-z
1/2-x,1/2-y,1/2-z
1/2+y,1/2-x,1/2-z
1/2+x,1/2+y,1/2-z
1/2-y,1/2+x,1/2-z
1/2-x,1/2+y,z
1/2+x,1/2-y,z
1/2-y,1/2-x,z
1/2+y,1/2+x,z
loop_
_atom_site_type_symbol
_atom_site_label
_atom_site_fract_x
_atom_site_fract_y
_atom_site_fract_z
Si Si1 0.612584 0.766741 0.274253
Si Si2 0.212206 0.529297 0.851833
Si Si3 0.597380 0.402621 0.250000
Si Si4 0.118005 0.980577 0.625210
Si Si5 0.562461 0.937540 0.073724
O O1 0.697294 0.802707 0.287915
O O2 0.594011 0.783041 0.201665
O O3 0.551886 0.807850 0.319607
O O4 0.605356 0.676178 0.291451
O O5 0.292801 0.530656 0.890858
O O6 0.146851 0.542585 0.902055
O O7 0.604046 0.476842 0.201931
O O8 0.062983 0.912233 0.598909
O O9 0.500000 0.000000 0.097731
O O10 0.564353 0.935648 0.000000
#
# Coordination Sequence:
#
# PCOD8320034 Si02
#       5
#    32  32  16  32  16
#     4  10  18  30  47  78 122 156 185 231 289 347
#     4  10  20  35  52  84 114 149 196 237 291 347
#     4  10  17  27  44  78 120 166 194 218 270 352
#     4  10  18  30  50  80 120 161 189 224 277 348
#     4  11  24  44  68  83 104 150 202 256 301 347
#
# _framework density 19.838528
#
# number of rings (size 3 to 8) (size 9 to 14) (size 15 to 20)
#    0.000    1.875    3.750    1.875    0.000    1.000 
#    0.000    0.000    0.000    1.500    0.000    1.750 
#    0.000    0.000    0.000    0.000    0.000    0.000 
#
# Total GULP energy -793167.132968 kJ/mol
# GULP energy per Si atom -12393.236453 kJ/mol
# Density = 1.979337 g / cm^3
# Si number density = 19.838528 Si / 1000 Ang^3
#
#
#
# Elastic Constant Matrix: (Units=GPa)
#
#
# Indices 1 2 3 4 5 6 
#
# 1 125.9239 71.0926 23.2964 0.0000 0.0000 0.0000
# 2 71.0926 125.9237 23.2961 0.0000 0.0000 0.0000
# 3 23.2964 23.2961 36.6270 0.0000 0.0000 0.0000
# 4 0.0000 0.0000 0.0000 13.3791 0.0000 0.0000
# 5 0.0000 0.0000 0.0000 0.0000 13.3789 0.0000
# 6 0.0000 0.0000 0.0000 0.0000 0.0000 35.4040
#
#
#
# Elastic Compliance Matrix: (Units=1/GPa)
#
#
# Indices 1 2 3 4 5 6 
#
# 1 0.012106 -0.006132 -0.003800 0.000000 0.000000 0.000000
# 2 -0.006132 0.012106 -0.003800 0.000000 0.000000 0.000000
# 3 -0.003800 -0.003800 0.032136 0.000000 0.000000 0.000000
# 4 0.000000 0.000000 0.000000 0.074744 0.000000 0.000000
# 5 0.000000 0.000000 0.000000 0.000000 0.074745 0.000000
# 6 0.000000 0.000000 0.000000 0.000000 0.000000 0.028245
#
#
# Mechanical properties :
#
#
# Convention : Reuss Voigt Hill
#
# Bulk Modulus (GPa) = 34.61994 58.20498 46.41246
# Shear Modulus (GPa) = 18.43838 23.81835 21.12836
#
# Velocity S-wave (km/s) = 3.05195 3.46874 3.26700
# Velocity P-wave (km/s) = 5.46882 6.74136 6.13816
#
# Compressibility (1/GPa) = 0.02888509
#
# Stress axis : x y z
#
# Youngs Moduli (GPa) = 82.60310 82.60321 31.11761
#
# Poissons Ratio (x) = 0.50650 0.11825
# Poissons Ratio (y) = 0.50650 0.11824
# Poissons Ratio (z) = 0.31389 0.31388
#
# Static dielectric constant tensor:
#      x y z
#    x 3.744900 0.000000 0.000000 
#    y 0.000000 3.744910 0.000000 
#    z 0.000000 0.000000 2.871250 
# 
# 
# High freq. dielectric constant tensor:
#      x y z
#    x 1.790530 0.000000 0.000000 
#    y 0.000000 1.790540 0.000000 
#    z 0.000000 0.000000 1.695100 
# 
# From -- ./inp_files/9322.got.cif
#   From: 2010.06.25/outbox.cif.g09.slc.cpg/sg140_5_cif.got.tgz:9322.got - 2010.06.28 10:53:23.
