data_PCOD8320557
_publ_section_title
;
Structure prediction by ZEFSAII (Michael W. Deem and Ramdas Pophale) SiO2 
 PCOD8320557
Probable space group: I 41/A M D
;
_chemical_formula_sum "Si O2"
_cell_formula_units_Z 128
_cell_length_a 18.311393
_cell_length_b 18.311393
_cell_length_c 25.356537
_cell_angle_alpha 90.000000
_cell_angle_beta 90.000000
_cell_angle_gamma 90.000000
_cell_volume 8502.227232
_symmetry_space_group_name_H-M "I 41/A M D"
_symmetry_group_IT_number 141
_space_group.IT_coordinate_system_code '2'
_symmetry_cell_setting 'tetragonal'
loop_
_space_group_symop_operation_xyz
x,y,z
1/4-y,3/4+x,1/4+z
-x,1/2-y,z
1/4+y,1/4-x,3/4+z
x,-y,-z
-x,1/2+y,-z
1/4+y,3/4+x,1/4-z
1/4-y,1/4-x,3/4-z
-x,-y,-z
3/4+y,1/4-x,3/4-z
x,1/2+y,-z
3/4-y,3/4+x,1/4-z
-x,y,z
x,1/2-y,z
3/4-y,1/4-x,3/4+z
3/4+y,3/4+x,1/4+z
1/2+x,1/2+y,1/2+z
3/4-y,1/4+x,3/4+z
1/2-x,-y,1/2+z
3/4+y,3/4-x,1/4+z
1/2+x,1/2-y,1/2-z
1/2-x,y,1/2-z
3/4+y,1/4+x,3/4-z
3/4-y,3/4-x,1/4-z
1/2-x,1/2-y,1/2-z
1/4+y,3/4-x,1/4-z
1/2+x,y,1/2-z
1/4-y,1/4+x,3/4-z
1/2-x,1/2+y,1/2+z
1/2+x,-y,1/2+z
1/4-y,3/4-x,1/4+z
1/4+y,1/4+x,3/4+z
loop_
_atom_site_type_symbol
_atom_site_label
_atom_site_fract_x
_atom_site_fract_y
_atom_site_fract_z
Si Si1 0.000000 0.987418 0.063416
Si Si2 0.304225 0.498655 0.292920
Si Si3 0.083008 0.095064 0.730378
Si Si4 0.500000 0.169023 0.534708
Si Si5 0.145914 0.553653 0.897125
O O1 0.934768 0.025641 0.093358
O O2 0.000000 0.899429 0.075317
O O3 0.000000 0.000000 0.000000
O O4 0.250000 0.460519 0.250000
O O5 0.372660 0.540857 0.268079
O O6 0.335232 0.440049 0.334860
O O7 0.255963 0.556337 0.323542
O O8 0.088853 0.178485 0.748903
O O9 0.116351 0.091517 0.671610
O O10 0.000000 0.067514 0.728402
O O11 0.500000 0.250000 0.562390
#
# Coordination Sequence:
#
# PCOD8320557 Si02
#       5
#    16  32  32  16  32
#     4  12  16  28  44  62  90 120 152 184 209 264
#     4   9  18  31  44  61  83 113 150 186 217 257
#     4  10  18  29  43  62  87 114 146 183 215 262
#     4  10  18  28  42  56  90 122 146 180 218 246
#     4  10  18  28  45  62  83 118 150 178 225 261
#
# _framework density 15.054879
#
# number of rings (size 3 to 8) (size 9 to 14) (size 15 to 20)
#    0.000    2.000    5.000    0.750    1.750    0.000 
#    0.000    0.000    2.750    0.750    0.000    0.000 
#    0.000    0.000    0.000    0.000    0.000    0.000 
#
# Total GULP energy -792984.401731 kJ/mol
# GULP energy per Si atom -12390.381277 kJ/mol
# Density = 1.502061 g / cm^3
# Si number density = 15.054879 Si / 1000 Ang^3
#
#
#
# Elastic Constant Matrix: (Units=GPa)
#
#
# Indices 1 2 3 4 5 6 
#
# 1 70.3539 13.6777 37.5595 0.0000 0.0000 0.0000
# 2 13.6777 70.3539 37.5595 0.0000 0.0000 0.0000
# 3 37.5595 37.5595 97.5791 0.0000 0.0000 0.0000
# 4 0.0000 0.0000 0.0000 23.1503 0.0000 0.0000
# 5 0.0000 0.0000 0.0000 0.0000 23.1503 0.0000
# 6 0.0000 0.0000 0.0000 0.0000 0.0000 12.7552
#
#
#
# Elastic Compliance Matrix: (Units=1/GPa)
#
#
# Indices 1 2 3 4 5 6 
#
# 1 0.017894 0.000250 -0.006984 0.000000 0.000000 0.000000
# 2 0.000250 0.017894 -0.006984 0.000000 0.000000 0.000000
# 3 -0.006984 -0.006984 0.015624 0.000000 0.000000 0.000000
# 4 0.000000 0.000000 0.000000 0.043196 0.000000 0.000000
# 5 0.000000 0.000000 0.000000 0.000000 0.043196 0.000000
# 6 0.000000 0.000000 0.000000 0.000000 0.000000 0.078399
#
#
# Mechanical properties :
#
#
# Convention : Reuss Voigt Hill
#
# Bulk Modulus (GPa) = 41.70780 46.20894 43.95837
# Shear Modulus (GPa) = 19.87046 21.77720 20.82383
#
# Velocity S-wave (km/s) = 3.63694 3.80744 3.72317
# Velocity P-wave (km/s) = 6.73798 7.07737 6.90976
#
# Compressibility (1/GPa) = 0.02397633
#
# Stress axis : x y z
#
# Youngs Moduli (GPa) = 55.88589 55.88589 64.00323
#
# Poissons Ratio (x) = -0.01395 0.44697
# Poissons Ratio (y) = -0.01395 0.44697
# Poissons Ratio (z) = 0.39028 0.39028
#
# Static dielectric constant tensor:
#      x y z
#    x 3.031940 0.000000 0.000000 
#    y 0.000000 3.031940 0.000000 
#    z 0.000000 0.000000 3.302070 
# 
# 
# High freq. dielectric constant tensor:
#      x y z
#    x 1.560440 0.000000 0.000000 
#    y 0.000000 1.560440 0.000000 
#    z 0.000000 0.000000 1.560760 
# 
# From -- ./inp_files/11379.got.cif
#   From: 2010.03.12/outbox.cif.g09.slc.cpg/sg141_6_cif.got.tgz:11379.got - 2010.04.03 13:18:35.
