data_PCOD8320176
_publ_section_title
;
Structure prediction by ZEFSAII (Michael W. Deem and Ramdas Pophale) SiO2 
 PCOD8320176
Probable space group: I 4/M C M
;
_chemical_formula_sum "Si O2"
_cell_formula_units_Z 120
_cell_length_a 14.603234
_cell_length_b 14.603234
_cell_length_c 29.024971
_cell_angle_alpha 90.000000
_cell_angle_beta 90.000000
_cell_angle_gamma 90.000000
_cell_volume 6189.704031
_symmetry_space_group_name_H-M "I 4/M C M"
_symmetry_group_IT_number 140
_symmetry_cell_setting 'tetragonal'
loop_
_space_group_symop_operation_xyz
x,y,z
-y,x,z
-x,-y,z
y,-x,z
x,-y,1/2-z
-x,y,1/2-z
y,x,1/2-z
-y,-x,1/2-z
-x,-y,-z
y,-x,-z
x,y,-z
-y,x,-z
-x,y,1/2+z
x,-y,1/2+z
-y,-x,1/2+z
y,x,1/2+z
1/2+x,1/2+y,1/2+z
1/2-y,1/2+x,1/2+z
1/2-x,1/2-y,1/2+z
1/2+y,1/2-x,1/2+z
1/2+x,1/2-y,-z
1/2-x,1/2+y,-z
1/2+y,1/2+x,-z
1/2-y,1/2-x,-z
1/2-x,1/2-y,1/2-z
1/2+y,1/2-x,1/2-z
1/2+x,1/2+y,1/2-z
1/2-y,1/2+x,1/2-z
1/2-x,1/2+y,z
1/2+x,1/2-y,z
1/2-y,1/2-x,z
1/2+y,1/2+x,z
loop_
_atom_site_type_symbol
_atom_site_label
_atom_site_fract_x
_atom_site_fract_y
_atom_site_fract_z
Si Si1 0.141042 0.054284 0.411588
Si Si2 0.339761 0.839761 0.500000
Si Si3 0.700024 0.048000 0.152545
Si Si4 0.714312 0.357479 0.500000
Si Si5 0.349771 0.000000 0.250000
Si Si6 0.575760 0.924241 0.908323
O O1 0.200261 0.075673 0.366191
O O2 0.201496 0.078180 0.455994
O O3 0.052058 0.116828 0.411903
O O4 0.355864 0.729274 0.500000
O O5 0.383967 0.883967 0.544899
O O6 0.636438 0.136438 0.151008
O O7 0.712941 0.014787 0.205127
O O8 0.657559 0.967492 0.121472
O O9 0.818957 0.318957 0.500000
O O10 0.412577 0.912577 0.259955
O O11 0.500000 0.000000 0.920430
#
# Coordination Sequence:
#
# PCOD8320176 Si02
#       6
#    32   8  32  16  16  16
#     4  11  23  40  60  85 123 170 211 248 304 373
#     4  10  21  34  58  84 122 149 198 242 300 350
#     4  10  20  36  62  92 124 157 208 257 311 372
#     4  10  22  38  61  86 110 156 202 255 290 353
#     4   9  16  34  62  93 124 162 200 255 324 380
#     4  10  19  34  56  93 126 159 186 251 313 369
#
# _framework density 19.387034
#
# number of rings (size 3 to 8) (size 9 to 14) (size 15 to 20)
#    0.400    1.467    1.333    3.400    0.000    2.133 
#    2.400    2.667    0.000    4.800    0.000    0.000 
#    0.000    0.000    0.000    0.000    0.000    0.000 
#
# Total GULP energy -744006.973428 kJ/mol
# GULP energy per Si atom -12400.116224 kJ/mol
# Density = 1.934291 g / cm^3
# Si number density = 19.387034 Si / 1000 Ang^3
#
#
#
# Elastic Constant Matrix: (Units=GPa)
#
#
# Indices 1 2 3 4 5 6 
#
# 1 101.2825 32.2113 70.4126 0.0000 0.0000 0.0000
# 2 32.2113 101.2825 70.4126 0.0000 0.0000 0.0000
# 3 70.4126 70.4126 185.7088 0.0000 0.0000 0.0000
# 4 0.0000 0.0000 0.0000 23.1631 0.0000 0.0000
# 5 0.0000 0.0000 0.0000 0.0000 23.1631 0.0000
# 6 0.0000 0.0000 0.0000 0.0000 0.0000 18.8333
#
#
#
# Elastic Compliance Matrix: (Units=1/GPa)
#
#
# Indices 1 2 3 4 5 6 
#
# 1 0.013481 -0.000997 -0.004734 0.000000 0.000000 0.000000
# 2 -0.000997 0.013481 -0.004734 0.000000 0.000000 0.000000
# 3 -0.004734 -0.004734 0.008974 0.000000 0.000000 0.000000
# 4 0.000000 0.000000 0.000000 0.043172 0.000000 0.000000
# 5 0.000000 0.000000 0.000000 0.000000 0.043172 0.000000
# 6 0.000000 0.000000 0.000000 0.000000 0.000000 0.053098
#
#
# Mechanical properties :
#
#
# Convention : Reuss Voigt Hill
#
# Bulk Modulus (GPa) = 66.62650 81.59406 74.11028
# Shear Modulus (GPa) = 24.83741 27.38103 26.10922
#
# Velocity S-wave (km/s) = 3.58318 3.76218 3.67377
# Velocity P-wave (km/s) = 7.18053 7.81347 7.50368
#
# Compressibility (1/GPa) = 0.01500904
#
# Stress axis : x y z
#
# Youngs Moduli (GPa) = 74.17752 74.17752 111.42924
#
# Poissons Ratio (x) = 0.07393 0.52746
# Poissons Ratio (y) = 0.07393 0.52746
# Poissons Ratio (z) = 0.35113 0.35113
#
# Static dielectric constant tensor:
#      x y z
#    x 3.436740 0.000000 0.000000 
#    y 0.000000 3.436740 0.000000 
#    z 0.000000 0.000000 3.900390 
# 
# 
# High freq. dielectric constant tensor:
#      x y z
#    x 1.745620 0.000000 0.000000 
#    y 0.000000 1.745620 0.000000 
#    z 0.000000 0.000000 1.759170 
# 
# From -- ./inp_files/11350.got.cif
#   From: 2010.06.25/outbox.cif.g09.slc.cpg/sg140_6_cif.got.tgz:11350.got - 2010.06.28 10:53:23.
