data_PCOD8320270
_publ_section_title
;
Structure prediction by ZEFSAII (Michael W. Deem and Ramdas Pophale) SiO2 
 PCOD8320270
Probable space group: I 4/M C M
;
_chemical_formula_sum "Si O2"
_cell_formula_units_Z 144
_cell_length_a 29.079087
_cell_length_b 29.079087
_cell_length_c 8.967767
_cell_angle_alpha 90.000000
_cell_angle_beta 90.000000
_cell_angle_gamma 90.000000
_cell_volume 7583.083698
_symmetry_space_group_name_H-M "I 4/M C M"
_symmetry_group_IT_number 140
_symmetry_cell_setting 'tetragonal'
loop_
_space_group_symop_operation_xyz
x,y,z
-y,x,z
-x,-y,z
y,-x,z
x,-y,1/2-z
-x,y,1/2-z
y,x,1/2-z
-y,-x,1/2-z
-x,-y,-z
y,-x,-z
x,y,-z
-y,x,-z
-x,y,1/2+z
x,-y,1/2+z
-y,-x,1/2+z
y,x,1/2+z
1/2+x,1/2+y,1/2+z
1/2-y,1/2+x,1/2+z
1/2-x,1/2-y,1/2+z
1/2+y,1/2-x,1/2+z
1/2+x,1/2-y,-z
1/2-x,1/2+y,-z
1/2+y,1/2+x,-z
1/2-y,1/2-x,-z
1/2-x,1/2-y,1/2-z
1/2+y,1/2-x,1/2-z
1/2+x,1/2+y,1/2-z
1/2-y,1/2+x,1/2-z
1/2-x,1/2+y,z
1/2+x,1/2-y,z
1/2-y,1/2-x,z
1/2+y,1/2+x,z
loop_
_atom_site_type_symbol
_atom_site_label
_atom_site_fract_x
_atom_site_fract_y
_atom_site_fract_z
Si Si1 0.874488 0.550884 0.675406
Si Si2 0.545871 0.387396 0.176672
Si Si3 0.957262 0.784049 0.169391
Si Si4 0.294415 0.889602 0.827428
Si Si5 0.214088 0.285913 0.824413
O O1 0.874330 0.500000 0.750000
O O2 0.865891 0.543904 0.500000
O O3 0.923543 0.576458 0.704224
O O4 0.834696 0.584843 0.736865
O O5 0.500000 0.408617 0.250000
O O6 0.589192 0.410809 0.250000
O O7 0.551693 0.334969 0.229910
O O8 0.545014 0.394364 0.000000
O O9 0.913338 0.753859 0.199382
O O10 0.000000 0.759915 0.250000
O O11 0.971786 0.786818 0.000000
O O12 0.279761 0.838831 0.773776
O O13 0.310305 0.889511 0.000000
O O14 0.250000 0.250000 0.750000
O O15 0.220767 0.279234 0.000000
#
# Coordination Sequence:
#
# PCOD8320270 Si02
#       5
#    32  32  32  32  16
#     4  11  24  40  61  90 122 159 203 251 304 362
#     4  10  20  35  53  76 106 140 179 226 277 335
#     4   9  19  34  54  80 109 140 181 227 277 332
#     4  10  20  38  61  85 116 156 198 243 295 350
#     4  10  22  38  58  84 117 156 195 240 292 347
#
# _framework density 18.989636000000001
#
# number of rings (size 3 to 8) (size 9 to 14) (size 15 to 20)
#    0.000    2.000    1.111    2.000    0.000    7.111 
#    0.000    2.222    0.000    0.000    0.000    0.000 
#    0.000    0.000    0.000    0.000    0.000    0.000 
#
# Total GULP energy -892162.764011 kJ/mol
# GULP energy per Si atom -12391.149500 kJ/mol
# Density = 1.894641 g / cm^3
# Si number density = 18.989636 Si / 1000 Ang^3
#
#
#
# Elastic Constant Matrix: (Units=GPa)
#
#
# Indices 1 2 3 4 5 6 
#
# 1 120.4922 79.2198 62.9903 0.0000 0.0000 0.0000
# 2 79.2198 120.5002 62.9908 0.0000 0.0000 0.0000
# 3 62.9903 62.9908 86.3522 0.0000 0.0000 0.0000
# 4 0.0000 0.0000 0.0000 29.6458 0.0000 0.0000
# 5 0.0000 0.0000 0.0000 0.0000 29.6456 0.0000
# 6 0.0000 0.0000 0.0000 0.0000 0.0000 -23.1350
#
#
#
# Elastic Compliance Matrix: (Units=1/GPa)
#
#
# Indices 1 2 3 4 5 6 
#
# 1 0.016752 -0.007476 -0.006766 0.000000 0.000000 0.000000
# 2 -0.007476 0.016750 -0.006765 0.000000 0.000000 0.000000
# 3 -0.006766 -0.006765 0.021451 0.000000 0.000000 0.000000
# 4 0.000000 0.000000 0.000000 0.033732 0.000000 0.000000
# 5 0.000000 0.000000 0.000000 0.000000 0.033732 0.000000
# 6 0.000000 0.000000 0.000000 0.000000 0.000000 -0.043225
#
#
# Mechanical properties :
#
#
# Convention : Reuss Voigt Hill
#
# Bulk Modulus (GPa) = 77.29071 81.97182 79.63126
# Shear Modulus (GPa) = 39.83456 15.37420 27.60438
#
# Velocity S-wave (km/s) = 4.58503 2.84845 3.81682
# Velocity P-wave (km/s) = 8.29578 7.35381 7.83896
#
# Compressibility (1/GPa) = 0.01293817
#
# Stress axis : x y z
#
# Youngs Moduli (GPa) = 59.69534 59.70118 46.61772
#
# Poissons Ratio (x) = 0.44633 0.31543
# Poissons Ratio (y) = 0.44628 0.31538
# Poissons Ratio (z) = 0.40391 0.40389
#
# Static dielectric constant tensor:
#      x y z
#    x 3.745350 0.000000 0.000000 
#    y 0.000000 3.745360 0.000000 
#    z 0.000000 0.000000 3.585460 
# 
# 
# High freq. dielectric constant tensor:
#      x y z
#    x 1.746250 0.000000 0.000000 
#    y 0.000000 1.746250 0.000000 
#    z 0.000000 0.000000 1.737970 
# 
# From -- ./inp_files/1643.got.cif
#   From: 2010.06.25/outbox.cif.g09.slc.cpg/sg140_1_cif.got.tgz:1643.got - 2010.06.28 10:53:23.
