data_PCOD8320027
_publ_section_title
;
Structure prediction by ZEFSAII (Michael W. Deem and Ramdas Pophale) SiO2 
 PCOD8320027
Probable space group: I 4/M M M
;
_chemical_formula_sum "Si O2"
_cell_formula_units_Z 128
_cell_length_a 27.995816
_cell_length_b 27.995816
_cell_length_c 9.651675
_cell_angle_alpha 90.000000
_cell_angle_beta 90.000000
_cell_angle_gamma 90.000000
_cell_volume 7564.651943
_symmetry_space_group_name_H-M "I 4/M M M"
_symmetry_group_IT_number 139
_symmetry_cell_setting 'tetragonal'
loop_
_space_group_symop_operation_xyz
x,y,z
-y,x,z
-x,-y,z
y,-x,z
x,-y,-z
-x,y,-z
y,x,-z
-y,-x,-z
-x,-y,-z
y,-x,-z
x,y,-z
-y,x,-z
-x,y,z
x,-y,z
-y,-x,z
y,x,z
1/2+x,1/2+y,1/2+z
1/2-y,1/2+x,1/2+z
1/2-x,1/2-y,1/2+z
1/2+y,1/2-x,1/2+z
1/2+x,1/2-y,1/2-z
1/2-x,1/2+y,1/2-z
1/2+y,1/2+x,1/2-z
1/2-y,1/2-x,1/2-z
1/2-x,1/2-y,1/2-z
1/2+y,1/2-x,1/2-z
1/2+x,1/2+y,1/2-z
1/2-y,1/2+x,1/2-z
1/2-x,1/2+y,1/2+z
1/2+x,1/2-y,1/2+z
1/2-y,1/2-x,1/2+z
1/2+y,1/2+x,1/2+z
loop_
_atom_site_type_symbol
_atom_site_label
_atom_site_fract_x
_atom_site_fract_y
_atom_site_fract_z
Si Si1 0.445269 0.881291 0.160003
Si Si2 0.617587 0.304655 0.160329
Si Si3 0.696163 0.132164 0.339461
Si Si4 0.868453 0.054496 0.159730
O O1 0.500000 0.872050 0.201650
O O2 0.424801 0.924801 0.250000
O O3 0.416587 0.832606 0.191372
O O4 0.440318 0.896074 0.000000
O O5 0.665983 0.334018 0.190698
O O6 0.625243 0.250464 0.207489
O O7 0.573812 0.324997 0.248654
O O8 0.602977 0.307789 0.000000
O O9 0.692644 0.146661 0.500000
O O10 0.675344 0.175344 0.250000
O O11 0.916727 0.083274 0.193456
O O12 0.878612 0.000000 0.199609
O O13 0.853602 0.060180 0.000000
#
# Coordination Sequence:
#
# PCOD8320027 Si02
#       4
#    32  32  32  32
#     4   9  18  32  48  66  89 117 149 184 223 268
#     4   9  18  32  49  70  96 125 157 192 231 277
#     4   9  18  32  49  69  94 123 155 191 230 273
#     4   9  18  32  49  70  96 125 158 196 237 281
#
# _framework density 16.920805999999999
#
# number of rings (size 3 to 8) (size 9 to 14) (size 15 to 20)
#    0.000    3.000    0.000    0.000    0.000    4.000 
#    0.000    5.000    0.000    0.000    0.000    3.500 
#    0.000    0.000    0.000    0.000    0.000    0.000 
#
# Total GULP energy -793736.641767 kJ/mol
# GULP energy per Si atom -12402.135028 kJ/mol
# Density = 1.688229 g / cm^3
# Si number density = 16.920806 Si / 1000 Ang^3
#
#
#
# Elastic Constant Matrix: (Units=GPa)
#
#
# Indices 1 2 3 4 5 6 
#
# 1 141.6451 64.3385 59.7560 0.0000 0.0000 0.0000
# 2 64.3385 141.6451 59.7560 0.0000 0.0000 0.0000
# 3 59.7560 59.7560 60.8363 0.0000 0.0000 0.0000
# 4 0.0000 0.0000 0.0000 28.7604 0.0000 0.0000
# 5 0.0000 0.0000 0.0000 0.0000 28.7604 0.0000
# 6 0.0000 0.0000 0.0000 0.0000 0.0000 13.6080
#
#
#
# Elastic Compliance Matrix: (Units=1/GPa)
#
#
# Indices 1 2 3 4 5 6 
#
# 1 0.012111 -0.000824 -0.011087 0.000000 0.000000 0.000000
# 2 -0.000824 0.012111 -0.011087 0.000000 0.000000 0.000000
# 3 -0.011087 -0.011087 0.038218 0.000000 0.000000 0.000000
# 4 0.000000 0.000000 0.000000 0.034770 0.000000 0.000000
# 5 0.000000 0.000000 0.000000 0.000000 0.034770 0.000000
# 6 0.000000 0.000000 0.000000 0.000000 0.000000 0.073486
#
#
# Mechanical properties :
#
#
# Convention : Reuss Voigt Hill
#
# Bulk Modulus (GPa) = 60.80999 79.09193 69.95096
# Shear Modulus (GPa) = 19.45946 24.91084 22.18515
#
# Velocity S-wave (km/s) = 3.39489 3.84109 3.62486
# Velocity P-wave (km/s) = 7.16820 8.15573 7.67785
#
# Compressibility (1/GPa) = 0.01644467
#
# Stress axis : x y z
#
# Youngs Moduli (GPa) = 82.56633 82.56633 26.16584
#
# Poissons Ratio (x) = 0.06804 0.29010
# Poissons Ratio (y) = 0.06804 0.29010
# Poissons Ratio (z) = 0.91541 0.91541
#
# Static dielectric constant tensor:
#      x y z
#    x 3.180540 0.000000 0.000000 
#    y 0.000000 3.180540 0.000000 
#    z 0.000000 0.000000 3.180690 
# 
# 
# High freq. dielectric constant tensor:
#      x y z
#    x 1.651040 0.000000 0.000000 
#    y 0.000000 1.651040 0.000000 
#    z 0.000000 0.000000 1.652150 
# 
# From -- ./inp_files/3391.got.cif
#   From: 2010.03.12/outbox.cif.g09.slc.cpg/sg139_2_cif.got.tgz:3391.got - 2010.04.08 09:46:31.
