data_PCOD8320981
_publ_section_title
;
Structure prediction by ZEFSAII (Michael W. Deem and Ramdas Pophale) SiO2 
 PCOD8320981
Probable space group: I 41/A C D
;
_chemical_formula_sum "Si O2"
_cell_formula_units_Z 160
_cell_length_a 18.056265
_cell_length_b 18.056265
_cell_length_c 24.011271
_cell_angle_alpha 90.000000
_cell_angle_beta 90.000000
_cell_angle_gamma 90.000000
_cell_volume 7828.363608
_symmetry_space_group_name_H-M "I 41/A C D"
_symmetry_group_IT_number 142
_space_group.IT_coordinate_system_code '2'
_symmetry_cell_setting 'tetragonal'
loop_
_space_group_symop_operation_xyz
x,y,z
1/4-y,3/4+x,1/4+z
-x,1/2-y,z
1/4+y,1/4-x,3/4+z
x,-y,1/2-z
1/2-x,y,-z
3/4+y,1/4+x,1/4-z
1/4-y,1/4-x,1/4-z
-x,-y,-z
3/4+y,1/4-x,3/4-z
x,1/2+y,-z
3/4-y,3/4+x,1/4-z
-x,y,1/2+z
1/2+x,-y,z
1/4-y,3/4-x,3/4+z
3/4+y,3/4+x,3/4+z
1/2+x,1/2+y,1/2+z
3/4-y,1/4+x,3/4+z
1/2-x,-y,1/2+z
3/4+y,3/4-x,1/4+z
1/2+x,1/2-y,-z
-x,1/2+y,1/2-z
1/4+y,3/4+x,3/4-z
3/4-y,3/4-x,3/4-z
1/2-x,1/2-y,1/2-z
1/4+y,3/4-x,1/4-z
1/2+x,y,1/2-z
1/4-y,1/4+x,3/4-z
1/2-x,1/2+y,z
x,1/2-y,1/2+z
3/4-y,1/4-x,1/4+z
1/4+y,1/4+x,1/4+z
loop_
_atom_site_type_symbol
_atom_site_label
_atom_site_fract_x
_atom_site_fract_y
_atom_site_fract_z
Si Si1 0.805419 0.808119 0.551300
Si Si2 0.224309 0.203336 0.326928
Si Si3 0.101848 0.099952 0.292885
Si Si4 0.296190 0.359228 0.722282
Si Si5 0.194362 0.411917 0.565747
O O1 0.750000 0.800878 0.500000
O O2 0.759550 0.819761 0.608934
O O3 0.851683 0.732969 0.561396
O O4 0.865679 0.870642 0.539122
O O5 0.141746 0.175437 0.310729
O O6 0.225482 0.291868 0.318877
O O7 0.285691 0.165771 0.286701
O O8 0.101746 0.091427 0.225659
O O9 0.148211 0.032198 0.320785
O O10 0.243519 0.429286 0.709571
O O11 0.154436 0.404436 0.625000
#
# Coordination Sequence:
#
# PCOD8320981 Si02
#       5
#    32  32  32  32  32
#     4  12  23  37  62  94 121 154 208 257 298 356
#     4  10  22  43  60  86 127 161 200 247 311 367
#     4  10  22  38  59  91 117 161 201 241 306 366
#     4  10  24  38  62  90 119 162 201 251 309 357
#     4  10  18  36  60  84 116 154 196 239 296 361
#
# _framework density 20.438499
#
# number of rings (size 3 to 8) (size 9 to 14) (size 15 to 20)
#    0.000    1.600    2.000    3.600    5.600    1.600 
#    0.000    2.000    0.000    0.000    0.000    0.000 
#    0.000    0.000    0.000    0.000    0.000    0.000 
#
# Total GULP energy -991859.718335 kJ/mol
# GULP energy per Si atom -12398.246479 kJ/mol
# Density = 2.039198 g / cm^3
# Si number density = 20.438499 Si / 1000 Ang^3
#
#
#
# Elastic Constant Matrix: (Units=GPa)
#
#
# Indices 1 2 3 4 5 6 
#
# 1 89.8574 49.2620 22.4173 0.0000 0.0000 0.0000
# 2 49.2620 89.8574 22.4173 0.0000 0.0000 0.0000
# 3 22.4173 22.4173 162.2290 0.0000 0.0000 0.0000
# 4 0.0000 0.0000 0.0000 19.3432 0.0000 0.0000
# 5 0.0000 0.0000 0.0000 0.0000 19.3432 0.0000
# 6 0.0000 0.0000 0.0000 0.0000 0.0000 23.6054
#
#
#
# Elastic Compliance Matrix: (Units=1/GPa)
#
#
# Indices 1 2 3 4 5 6 
#
# 1 0.016078 -0.008555 -0.001040 0.000000 0.000000 0.000000
# 2 -0.008555 0.016078 -0.001040 0.000000 0.000000 0.000000
# 3 -0.001040 -0.001040 0.006451 0.000000 0.000000 0.000000
# 4 0.000000 0.000000 0.000000 0.051698 0.000000 0.000000
# 5 0.000000 0.000000 0.000000 0.000000 0.051698 0.000000
# 6 0.000000 0.000000 0.000000 0.000000 0.000000 0.042363
#
#
# Mechanical properties :
#
#
# Convention : Reuss Voigt Hill
#
# Bulk Modulus (GPa) = 57.67229 58.90414 58.28821
# Shear Modulus (GPa) = 23.65015 28.98148 26.31581
#
# Velocity S-wave (km/s) = 3.40536 3.76970 3.59215
# Velocity P-wave (km/s) = 6.61368 6.91594 6.76650
#
# Compressibility (1/GPa) = 0.01733935
#
# Stress axis : x y z
#
# Youngs Moduli (GPa) = 62.19590 62.19590 155.00448
#
# Poissons Ratio (x) = 0.53209 0.16114
# Poissons Ratio (y) = 0.53209 0.16114
# Poissons Ratio (z) = 0.06466 0.06466
#
# Static dielectric constant tensor:
#      x y z
#    x 3.594830 0.000000 0.000000 
#    y 0.000000 3.594830 0.000000 
#    z 0.000000 0.000000 4.072060 
# 
# 
# High freq. dielectric constant tensor:
#      x y z
#    x 1.780260 0.000000 0.000000 
#    y 0.000000 1.780260 0.000000 
#    z 0.000000 0.000000 1.820870 
# 
# From -- ./inp_files/11320.got.cif
#   From: 2010.03.12/outbox.cif.g09.slc.cpg/sg142_6_cif.got.tgz:11320.got - 2010.04.03 13:27:16.
