data_PCOD8320387
_publ_section_title
;
Structure prediction by ZEFSAII (Michael W. Deem and Ramdas Pophale) SiO2 
 PCOD8320387
Probable space group: I 4/M C M
;
_chemical_formula_sum "Si O2"
_cell_formula_units_Z 160
_cell_length_a 21.622182
_cell_length_b 21.622182
_cell_length_c 17.180167
_cell_angle_alpha 90.000000
_cell_angle_beta 90.000000
_cell_angle_gamma 90.000000
_cell_volume 8032.050277
_symmetry_space_group_name_H-M "I 4/M C M"
_symmetry_group_IT_number 140
_symmetry_cell_setting 'tetragonal'
loop_
_space_group_symop_operation_xyz
x,y,z
-y,x,z
-x,-y,z
y,-x,z
x,-y,1/2-z
-x,y,1/2-z
y,x,1/2-z
-y,-x,1/2-z
-x,-y,-z
y,-x,-z
x,y,-z
-y,x,-z
-x,y,1/2+z
x,-y,1/2+z
-y,-x,1/2+z
y,x,1/2+z
1/2+x,1/2+y,1/2+z
1/2-y,1/2+x,1/2+z
1/2-x,1/2-y,1/2+z
1/2+y,1/2-x,1/2+z
1/2+x,1/2-y,-z
1/2-x,1/2+y,-z
1/2+y,1/2+x,-z
1/2-y,1/2-x,-z
1/2-x,1/2-y,1/2-z
1/2+y,1/2-x,1/2-z
1/2+x,1/2+y,1/2-z
1/2-y,1/2+x,1/2-z
1/2-x,1/2+y,z
1/2+x,1/2-y,z
1/2-y,1/2-x,z
1/2+y,1/2+x,z
loop_
_atom_site_type_symbol
_atom_site_label
_atom_site_fract_x
_atom_site_fract_y
_atom_site_fract_z
Si Si1 0.261730 0.503239 0.587231
Si Si2 0.282129 0.119813 0.142984
Si Si3 0.212033 0.187525 0.585790
Si Si4 0.794949 0.603763 0.177072
Si Si5 0.498417 0.399496 0.341856
O O1 0.262738 0.530393 0.500000
O O2 0.233287 0.434795 0.584235
O O3 0.207872 0.536252 0.638993
O O4 0.331923 0.503432 0.619300
O O5 0.343957 0.156044 0.115425
O O6 0.223392 0.164246 0.139536
O O7 0.288431 0.097320 0.231161
O O8 0.185473 0.168711 0.500000
O O9 0.272438 0.227563 0.571329
O O10 0.231906 0.129649 0.637850
O O11 0.856421 0.643580 0.155842
O O12 0.560317 0.437807 0.366621
O O13 0.500000 0.389504 0.250000
#
# Coordination Sequence:
#
# PCOD8320387 Si02
#       5
#    32  32  32  32  32
#     4  12  25  37  57  87 119 154 191 239 295 348
#     4  10  21  38  59  82 111 149 193 238 286 343
#     4   9  17  31  53  81 112 143 178 227 287 341
#     4  10  21  38  59  82 111 149 193 238 286 343
#     4   9  20  40  62  82 111 155 203 245 284 333
#
# _framework density 19.920193999999999
#
# number of rings (size 3 to 8) (size 9 to 14) (size 15 to 20)
#    0.000    2.000    0.000    4.200    2.800    5.600 
#    0.000    1.000    0.000    0.600    0.000    4.200 
#    0.000    0.000    0.000    0.000    0.000    0.000 
#
# Total GULP energy -991167.777356 kJ/mol
# GULP energy per Si atom -12389.597217 kJ/mol
# Density = 1.987485 g / cm^3
# Si number density = 19.920194 Si / 1000 Ang^3
#
#
#
# Elastic Constant Matrix: (Units=GPa)
#
#
# Indices 1 2 3 4 5 6 
#
# 1 65.8011 34.0645 18.5532 0.0000 0.0000 0.0000
# 2 34.0645 65.8011 18.5532 0.0000 0.0000 0.0000
# 3 18.5532 18.5532 67.4679 0.0000 0.0000 0.0000
# 4 0.0000 0.0000 0.0000 21.1471 0.0000 0.0000
# 5 0.0000 0.0000 0.0000 0.0000 21.1471 0.0000
# 6 0.0000 0.0000 0.0000 0.0000 0.0000 24.0065
#
#
#
# Elastic Compliance Matrix: (Units=1/GPa)
#
#
# Indices 1 2 3 4 5 6 
#
# 1 0.021331 -0.010178 -0.003067 0.000000 0.000000 0.000000
# 2 -0.010178 0.021331 -0.003067 0.000000 0.000000 0.000000
# 3 -0.003067 -0.003067 0.016509 0.000000 0.000000 0.000000
# 4 0.000000 0.000000 0.000000 0.047288 0.000000 0.000000
# 5 0.000000 0.000000 0.000000 0.000000 0.047288 0.000000
# 6 0.000000 0.000000 0.000000 0.000000 0.000000 0.041655
#
#
# Mechanical properties :
#
#
# Convention : Reuss Voigt Hill
#
# Bulk Modulus (GPa) = 37.66939 37.93463 37.80201
# Shear Modulus (GPa) = 21.10815 21.78676 21.44745
#
# Velocity S-wave (km/s) = 3.25874 3.31070 3.28482
# Velocity P-wave (km/s) = 5.75416 5.80508 5.77968
#
# Compressibility (1/GPa) = 0.02654675
#
# Stress axis : x y z
#
# Youngs Moduli (GPa) = 46.87961 46.87961 60.57423
#
# Poissons Ratio (x) = 0.47715 0.18578
# Poissons Ratio (y) = 0.47715 0.18578
# Poissons Ratio (z) = 0.14378 0.14378
#
# Static dielectric constant tensor:
#      x y z
#    x 3.637470 0.000000 0.000000 
#    y 0.000000 3.637470 0.000000 
#    z 0.000000 0.000000 3.674560 
# 
# 
# High freq. dielectric constant tensor:
#      x y z
#    x 1.765070 0.000000 0.000000 
#    y 0.000000 1.765070 0.000000 
#    z 0.000000 0.000000 1.783080 
# 
# From -- ./inp_files/6787.got.cif
#   From: 2010.06.25/outbox.cif.g09.slc.cpg/sg140_4_cif.got.tgz:6787.got - 2010.06.28 10:53:23.
