data_PCOD8320132
_publ_section_title
;
Structure prediction by ZEFSAII (Michael W. Deem and Ramdas Pophale) SiO2 
 PCOD8320132
Probable space group: I 4/M C M
;
_chemical_formula_sum "Si O2"
_cell_formula_units_Z 144
_cell_length_a 22.780328
_cell_length_b 22.780328
_cell_length_c 17.344967
_cell_angle_alpha 90.000000
_cell_angle_beta 90.000000
_cell_angle_gamma 90.000000
_cell_volume 9001.055173
_symmetry_space_group_name_H-M "I 4/M C M"
_symmetry_group_IT_number 140
_symmetry_cell_setting 'tetragonal'
loop_
_space_group_symop_operation_xyz
x,y,z
-y,x,z
-x,-y,z
y,-x,z
x,-y,1/2-z
-x,y,1/2-z
y,x,1/2-z
-y,-x,1/2-z
-x,-y,-z
y,-x,-z
x,y,-z
-y,x,-z
-x,y,1/2+z
x,-y,1/2+z
-y,-x,1/2+z
y,x,1/2+z
1/2+x,1/2+y,1/2+z
1/2-y,1/2+x,1/2+z
1/2-x,1/2-y,1/2+z
1/2+y,1/2-x,1/2+z
1/2+x,1/2-y,-z
1/2-x,1/2+y,-z
1/2+y,1/2+x,-z
1/2-y,1/2-x,-z
1/2-x,1/2-y,1/2-z
1/2+y,1/2-x,1/2-z
1/2+x,1/2+y,1/2-z
1/2-y,1/2+x,1/2-z
1/2-x,1/2+y,z
1/2+x,1/2-y,z
1/2-y,1/2-x,z
1/2+y,1/2+x,z
loop_
_atom_site_type_symbol
_atom_site_label
_atom_site_fract_x
_atom_site_fract_y
_atom_site_fract_z
Si Si1 0.876246 0.280206 0.652060
Si Si2 0.826116 0.490775 0.589630
Si Si3 0.453539 0.046462 0.408367
Si Si4 0.709221 0.692282 0.586729
Si Si5 0.889402 0.706718 0.332017
O O1 0.833163 0.333163 0.626842
O O2 0.935643 0.283287 0.602352
O O3 0.846411 0.217725 0.633153
O O4 0.891365 0.283313 0.741402
O O5 0.828229 0.508303 0.500000
O O6 0.889740 0.471883 0.622392
O O7 0.803931 0.545536 0.638160
O O8 0.452962 0.047039 0.500000
O O9 0.500000 0.000000 0.375364
O O10 0.690209 0.675875 0.500000
O O11 0.759728 0.740273 0.586580
O O12 0.733761 0.634611 0.628985
O O13 0.848933 0.651068 0.354069
#
# Coordination Sequence:
#
# PCOD8320132 Si02
#       5
#    32  32  16  32  32
#     4  10  19  32  48  66  93 122 158 196 243 289
#     4  11  20  31  47  66  92 125 164 203 238 282
#     4   9  18  30  44  62  85 120 165 207 242 272
#     4   9  17  30  49  70  89 115 153 196 242 293
#     4  10  20  32  47  67  95 124 156 197 249 294
#
# _framework density 15.998124000000001
#
# number of rings (size 3 to 8) (size 9 to 14) (size 15 to 20)
#    0.000    2.111    1.111    3.333    0.000    5.778 
#    0.000    0.000    0.000    0.000    0.000    0.000 
#    0.000    0.889    0.000    8.889    0.000    5.333 
#
# Total GULP energy -892938.161895 kJ/mol
# GULP energy per Si atom -12401.918915 kJ/mol
# Density = 1.596171 g / cm^3
# Si number density = 15.998124 Si / 1000 Ang^3
#
#
#
# Elastic Constant Matrix: (Units=GPa)
#
#
# Indices 1 2 3 4 5 6 
#
# 1 79.8013 55.7461 23.8263 0.0000 0.0000 0.0000
# 2 55.7461 79.8014 23.8263 0.0000 0.0000 0.0000
# 3 23.8263 23.8263 59.3883 0.0000 0.0000 0.0000
# 4 0.0000 0.0000 0.0000 25.5518 0.0000 0.0000
# 5 0.0000 0.0000 0.0000 0.0000 25.5518 0.0000
# 6 0.0000 0.0000 0.0000 0.0000 0.0000 28.7868
#
#
#
# Elastic Compliance Matrix: (Units=1/GPa)
#
#
# Indices 1 2 3 4 5 6 
#
# 1 0.025080 -0.016491 -0.003446 0.000000 0.000000 0.000000
# 2 -0.016491 0.025080 -0.003446 0.000000 0.000000 0.000000
# 3 -0.003446 -0.003446 0.019603 0.000000 0.000000 0.000000
# 4 0.000000 0.000000 0.000000 0.039136 0.000000 0.000000
# 5 0.000000 0.000000 0.000000 0.000000 0.039136 0.000000
# 6 0.000000 0.000000 0.000000 0.000000 0.000000 0.034738
#
#
# Mechanical properties :
#
#
# Convention : Reuss Voigt Hill
#
# Bulk Modulus (GPa) = 43.48258 47.30983 45.39620
# Shear Modulus (GPa) = 21.07882 23.68423 22.38153
#
# Velocity S-wave (km/s) = 3.63379 3.85182 3.74439
# Velocity P-wave (km/s) = 6.69662 7.02982 6.86524
#
# Compressibility (1/GPa) = 0.02299771
#
# Stress axis : x y z
#
# Youngs Moduli (GPa) = 39.87251 39.87254 51.01204
#
# Poissons Ratio (x) = 0.65754 0.17578
# Poissons Ratio (y) = 0.65754 0.17578
# Poissons Ratio (z) = 0.13739 0.13739
#
# Static dielectric constant tensor:
#      x y z
#    x 2.951320 0.000000 0.000000 
#    y 0.000000 2.951320 0.000000 
#    z 0.000000 0.000000 3.043750 
# 
# 
# High freq. dielectric constant tensor:
#      x y z
#    x 1.592380 0.000000 0.000000 
#    y 0.000000 1.592380 0.000000 
#    z 0.000000 0.000000 1.624390 
# 
# From -- ./inp_files/6641.got.cif
#   From: 2010.06.25/outbox.cif.g09.slc.cpg/sg140_4_cif.got.tgz:6641.got - 2010.06.28 10:53:23.
