data_PCOD8320170
_publ_section_title
;
Structure prediction by ZEFSAII (Michael W. Deem and Ramdas Pophale) SiO2 
 PCOD8320170
Probable space group: I 4/M C M
;
_chemical_formula_sum "Si O2"
_cell_formula_units_Z 144
_cell_length_a 18.563094
_cell_length_b 18.563094
_cell_length_c 24.763392
_cell_angle_alpha 90.000000
_cell_angle_beta 90.000000
_cell_angle_gamma 90.000000
_cell_volume 8533.179085
_symmetry_space_group_name_H-M "I 4/M C M"
_symmetry_group_IT_number 140
_symmetry_cell_setting 'tetragonal'
loop_
_space_group_symop_operation_xyz
x,y,z
-y,x,z
-x,-y,z
y,-x,z
x,-y,1/2-z
-x,y,1/2-z
y,x,1/2-z
-y,-x,1/2-z
-x,-y,-z
y,-x,-z
x,y,-z
-y,x,-z
-x,y,1/2+z
x,-y,1/2+z
-y,-x,1/2+z
y,x,1/2+z
1/2+x,1/2+y,1/2+z
1/2-y,1/2+x,1/2+z
1/2-x,1/2-y,1/2+z
1/2+y,1/2-x,1/2+z
1/2+x,1/2-y,-z
1/2-x,1/2+y,-z
1/2+y,1/2+x,-z
1/2-y,1/2-x,-z
1/2-x,1/2-y,1/2-z
1/2+y,1/2-x,1/2-z
1/2+x,1/2+y,1/2-z
1/2-y,1/2+x,1/2-z
1/2-x,1/2+y,z
1/2+x,1/2-y,z
1/2-y,1/2-x,z
1/2+y,1/2+x,z
loop_
_atom_site_type_symbol
_atom_site_label
_atom_site_fract_x
_atom_site_fract_y
_atom_site_fract_z
Si Si1 0.112129 0.387872 0.435989
Si Si2 0.603873 0.556179 0.000000
Si Si3 0.543518 0.163472 0.937196
Si Si4 0.727544 0.772457 0.063891
Si Si5 0.887017 0.805682 0.901938
Si Si6 0.910312 0.074588 0.187653
O O1 0.109133 0.390868 0.500000
O O2 0.135710 0.466638 0.414962
O O3 0.169805 0.330196 0.414677
O O4 0.528878 0.596996 0.000000
O O5 0.644391 0.577548 0.946311
O O6 0.598529 0.098529 0.930297
O O7 0.569347 0.230442 0.900604
O O8 0.539621 0.188208 0.000000
O O9 0.804716 0.792939 0.085316
O O10 0.729300 0.770701 0.000000
O O11 0.886231 0.846879 0.844804
O O12 0.903433 0.096568 0.250000
O O13 0.990660 0.099164 0.172360
#
# Coordination Sequence:
#
# PCOD8320170 Si02
#       6
#    16  16  32  16  32  32
#     4   9  21  32  51  71 106 148 200 225 263 332
#     4  11  24  33  48  80 113 144 181 220 266 346
#     4  10  19  34  51  75 106 152 192 233 273 318
#     4  11  22  35  47  81 119 153 176 220 290 344
#     4  12  21  33  56  78 114 149 181 229 283 338
#     4   9  20  39  60  81 107 144 188 231 277 335
#
# _framework density 16.875305000000001
#
# number of rings (size 3 to 8) (size 9 to 14) (size 15 to 20)
#    0.000    1.667    3.333    2.333    6.222    3.111 
#    0.000    0.556    0.000    0.000    0.000    0.000 
#    0.000    0.000    0.000    0.000    0.000    0.000 
#
# Total GULP energy -892705.814989 kJ/mol
# GULP energy per Si atom -12398.691875 kJ/mol
# Density = 1.683690 g / cm^3
# Si number density = 16.875305 Si / 1000 Ang^3
#
#
#
# Elastic Constant Matrix: (Units=GPa)
#
#
# Indices 1 2 3 4 5 6 
#
# 1 172.6702 27.1734 39.9228 0.0000 0.0000 0.0000
# 2 27.1734 172.6549 39.9202 0.0000 0.0000 0.0000
# 3 39.9228 39.9202 52.8757 0.0000 0.0000 0.0000
# 4 0.0000 0.0000 0.0000 24.8816 0.0000 0.0000
# 5 0.0000 0.0000 0.0000 0.0000 24.8817 0.0000
# 6 0.0000 0.0000 0.0000 0.0000 0.0000 35.5171
#
#
#
# Elastic Compliance Matrix: (Units=1/GPa)
#
#
# Indices 1 2 3 4 5 6 
#
# 1 0.007019 0.000146 -0.005410 0.000000 0.000000 0.000000
# 2 0.000146 0.007020 -0.005410 0.000000 0.000000 0.000000
# 3 -0.005410 -0.005410 0.027082 0.000000 0.000000 0.000000
# 4 0.000000 0.000000 0.000000 0.040190 0.000000 0.000000
# 5 0.000000 0.000000 0.000000 0.000000 0.040190 0.000000
# 6 0.000000 0.000000 0.000000 0.000000 0.000000 0.028155
#
#
# Mechanical properties :
#
#
# Convention : Reuss Voigt Hill
#
# Bulk Modulus (GPa) = 50.57537 68.02597 59.30067
# Shear Modulus (GPa) = 28.15384 36.46838 32.31111
#
# Velocity S-wave (km/s) = 4.08897 4.65375 4.38047
# Velocity P-wave (km/s) = 7.23381 8.32316 7.79753
#
# Compressibility (1/GPa) = 0.01977247
#
# Stress axis : x y z
#
# Youngs Moduli (GPa) = 142.46540 142.45414 36.92536
#
# Poissons Ratio (x) = -0.02082 0.19977
# Poissons Ratio (y) = -0.02082 0.19977
# Poissons Ratio (z) = 0.77075 0.77070
#
# Static dielectric constant tensor:
#      x y z
#    x 3.336860 0.000000 0.000000 
#    y 0.000000 3.336850 0.000000 
#    z 0.000000 0.000000 2.888770 
# 
# 
# High freq. dielectric constant tensor:
#      x y z
#    x 1.664390 0.000000 0.000000 
#    y 0.000000 1.664390 0.000000 
#    z 0.000000 0.000000 1.604800 
# 
# From -- ./inp_files/9480.got.cif
#   From: 2010.06.25/outbox.cif.g09.slc.cpg/sg140_5_cif.got.tgz:9480.got - 2010.06.28 10:53:23.
