data_PCOD8320377
_publ_section_title
;
Structure prediction by ZEFSAII (Michael W. Deem and Ramdas Pophale) SiO2 
 PCOD8320377
Probable space group: I 4/M C M
;
_chemical_formula_sum "Si O2"
_cell_formula_units_Z 192
_cell_length_a 18.034890
_cell_length_b 18.034890
_cell_length_c 30.351086
_cell_angle_alpha 90.000000
_cell_angle_beta 90.000000
_cell_angle_gamma 90.000000
_cell_volume 9871.910989
_symmetry_space_group_name_H-M "I 4/M C M"
_symmetry_group_IT_number 140
_symmetry_cell_setting 'tetragonal'
loop_
_space_group_symop_operation_xyz
x,y,z
-y,x,z
-x,-y,z
y,-x,z
x,-y,1/2-z
-x,y,1/2-z
y,x,1/2-z
-y,-x,1/2-z
-x,-y,-z
y,-x,-z
x,y,-z
-y,x,-z
-x,y,1/2+z
x,-y,1/2+z
-y,-x,1/2+z
y,x,1/2+z
1/2+x,1/2+y,1/2+z
1/2-y,1/2+x,1/2+z
1/2-x,1/2-y,1/2+z
1/2+y,1/2-x,1/2+z
1/2+x,1/2-y,-z
1/2-x,1/2+y,-z
1/2+y,1/2+x,-z
1/2-y,1/2-x,-z
1/2-x,1/2-y,1/2-z
1/2+y,1/2-x,1/2-z
1/2+x,1/2+y,1/2-z
1/2-y,1/2+x,1/2-z
1/2-x,1/2+y,z
1/2+x,1/2-y,z
1/2-y,1/2-x,z
1/2+y,1/2+x,z
loop_
_atom_site_type_symbol
_atom_site_label
_atom_site_fract_x
_atom_site_fract_y
_atom_site_fract_z
Si Si1 0.030293 0.881773 0.383581
Si Si2 0.649747 0.966778 0.601769
Si Si3 0.112658 0.612658 0.947690
Si Si4 0.626853 0.749737 0.757202
Si Si5 0.246374 0.988454 0.818677
Si Si6 0.222490 0.895579 0.947857
Si Si7 0.770867 0.270867 0.051952
O O1 0.038944 0.829728 0.341098
O O2 0.046453 0.837157 0.428563
O O3 0.947073 0.910631 0.382589
O O4 0.573647 0.926354 0.615376
O O5 0.688350 0.996072 0.645944
O O6 0.698593 0.909962 0.573900
O O7 0.634359 0.032874 0.568911
O O8 0.171334 0.671334 0.927715
O O9 0.112904 0.612904 0.000000
O O10 0.675901 0.675901 0.750000
O O11 0.680109 0.819892 0.766961
O O12 0.576743 0.768045 0.714864
O O13 0.569694 0.736122 0.797252
O O14 0.204107 0.811387 0.933307
O O15 0.225730 0.906622 0.000000
O O16 0.773215 0.273215 0.000000
#
# Coordination Sequence:
#
# PCOD8320377 Si02
#       7
#    32  32  16  32  32  32  16
#     4  10  22  38  57  87 123 159 200 249 303 364
#     4  11  23  40  60  88 123 162 204 255 307 366
#     4  11  25  40  61  90 123 163 213 263 305 360
#     4  10  21  40  65  92 119 153 198 249 298 366
#     4  10  22  39  62  89 123 157 195 245 309 370
#     4  10  21  37  59  83 117 163 209 253 303 361
#     4   9  20  39  58  82 113 155 208 254 305 356
#
# _framework density 19.449121999999999
#
# number of rings (size 3 to 8) (size 9 to 14) (size 15 to 20)
#    0.000    1.833    0.833    2.250    5.833    2.000 
#    0.000    0.833    0.000    5.000    0.000    0.000 
#    0.000    0.000    0.000    0.000    0.000    0.000 
#
# Total GULP energy -1190328.551959 kJ/mol
# GULP energy per Si atom -12399.255750 kJ/mol
# Density = 1.940486 g / cm^3
# Si number density = 19.449122 Si / 1000 Ang^3
#
#
#
# Elastic Constant Matrix: (Units=GPa)
#
#
# Indices 1 2 3 4 5 6 
#
# 1 118.8085 54.5838 44.4034 0.0000 0.0000 0.0000
# 2 54.5838 118.8085 44.4034 0.0000 0.0000 0.0000
# 3 44.4034 44.4034 107.3216 0.0000 0.0000 0.0000
# 4 0.0000 0.0000 0.0000 27.8691 0.0000 0.0000
# 5 0.0000 0.0000 0.0000 0.0000 27.8691 0.0000
# 6 0.0000 0.0000 0.0000 0.0000 0.0000 34.7284
#
#
#
# Elastic Compliance Matrix: (Units=1/GPa)
#
#
# Indices 1 2 3 4 5 6 
#
# 1 0.011444 -0.004126 -0.003028 0.000000 0.000000 0.000000
# 2 -0.004126 0.011444 -0.003028 0.000000 0.000000 0.000000
# 3 -0.003028 -0.003028 0.011823 0.000000 0.000000 0.000000
# 4 0.000000 0.000000 0.000000 0.035882 0.000000 0.000000
# 5 0.000000 0.000000 0.000000 0.000000 0.035882 0.000000
# 6 0.000000 0.000000 0.000000 0.000000 0.000000 0.028795
#
#
# Mechanical properties :
#
#
# Convention : Reuss Voigt Hill
#
# Bulk Modulus (GPa) = 69.69530 70.19110 69.94320
# Shear Modulus (GPa) = 31.16882 31.52984 31.34933
#
# Velocity S-wave (km/s) = 4.00757 4.03071 4.01916
# Velocity P-wave (km/s) = 7.57143 7.60461 7.58804
#
# Compressibility (1/GPa) = 0.01434817
#
# Stress axis : x y z
#
# Youngs Moduli (GPa) = 87.38075 87.38075 84.57945
#
# Poissons Ratio (x) = 0.36055 0.25609
# Poissons Ratio (y) = 0.36055 0.25609
# Poissons Ratio (z) = 0.26457 0.26457
#
# Static dielectric constant tensor:
#      x y z
#    x 3.620830 0.000000 0.000000 
#    y 0.000000 3.620830 0.000000 
#    z 0.000000 0.000000 3.472970 
# 
# 
# High freq. dielectric constant tensor:
#      x y z
#    x 1.767830 0.000000 0.000000 
#    y 0.000000 1.767830 0.000000 
#    z 0.000000 0.000000 1.753600 
# 
# From -- ./inp_files/11649.got.cif
#   From: 2010.06.25/outbox.cif.g09.slc.cpg/sg140_6_cif.got.tgz:11649.got - 2010.06.28 10:53:23.
