data_PCOD8320042
_publ_section_title
;
Structure prediction by ZEFSAII (Michael W. Deem and Ramdas Pophale) SiO2 
 PCOD8320042
Probable space group: I 4/M C M
;
_chemical_formula_sum "Si O2"
_cell_formula_units_Z 176
_cell_length_a 26.052434
_cell_length_b 26.052434
_cell_length_c 14.337281
_cell_angle_alpha 90.000000
_cell_angle_beta 90.000000
_cell_angle_gamma 90.000000
_cell_volume 9731.132945
_symmetry_space_group_name_H-M "I 4/M C M"
_symmetry_group_IT_number 140
_symmetry_cell_setting 'tetragonal'
loop_
_space_group_symop_operation_xyz
x,y,z
-y,x,z
-x,-y,z
y,-x,z
x,-y,1/2-z
-x,y,1/2-z
y,x,1/2-z
-y,-x,1/2-z
-x,-y,-z
y,-x,-z
x,y,-z
-y,x,-z
-x,y,1/2+z
x,-y,1/2+z
-y,-x,1/2+z
y,x,1/2+z
1/2+x,1/2+y,1/2+z
1/2-y,1/2+x,1/2+z
1/2-x,1/2-y,1/2+z
1/2+y,1/2-x,1/2+z
1/2+x,1/2-y,-z
1/2-x,1/2+y,-z
1/2+y,1/2+x,-z
1/2-y,1/2-x,-z
1/2-x,1/2-y,1/2-z
1/2+y,1/2-x,1/2-z
1/2+x,1/2+y,1/2-z
1/2-y,1/2+x,1/2-z
1/2-x,1/2+y,z
1/2+x,1/2-y,z
1/2-y,1/2-x,z
1/2+y,1/2+x,z
loop_
_atom_site_type_symbol
_atom_site_label
_atom_site_fract_x
_atom_site_fract_y
_atom_site_fract_z
Si Si1 0.579786 0.279783 0.244489
Si Si2 0.304551 0.000000 0.750000
Si Si3 0.353658 0.772216 0.103750
Si Si4 0.038795 0.145015 0.893832
Si Si5 0.938952 0.359154 0.396447
Si Si6 0.923277 0.865624 0.392939
O O1 0.549938 0.229074 0.279771
O O2 0.632249 0.268000 0.186199
O O3 0.540112 0.305382 0.171564
O O4 0.593781 0.317130 0.330295
O O5 0.342619 0.012819 0.665285
O O6 0.299448 0.799448 0.127638
O O7 0.398421 0.813465 0.100607
O O8 0.350100 0.746140 0.000000
O O9 0.083244 0.106238 0.860762
O O10 0.983049 0.119832 0.880548
O O11 0.047391 0.162589 0.000000
O O12 0.959920 0.369915 0.500000
O O13 0.910329 0.410329 0.357728
O O14 0.910939 0.851211 0.500000
#
# Coordination Sequence:
#
# PCOD8320042 Si02
#       6
#    32  16  32  32  32  32
#     4  11  18  30  48  74 102 124 156 203 253 293
#     4  10  18  26  48  77  95 124 160 196 246 294
#     4   8  15  28  48  74 100 127 161 202 246 291
#     4  10  20  34  50  70  95 127 164 205 249 295
#     4   8  15  28  45  69 101 131 161 200 241 280
#     4  10  21  34  49  69  96 130 168 205 245 293
#
# _framework density 18.086279999999999
#
# number of rings (size 3 to 8) (size 9 to 14) (size 15 to 20)
#    0.000    2.545    1.818    2.182    0.000    1.818 
#    0.000    1.818    0.000    5.727    0.000    8.909 
#    0.000    0.000    0.000    0.000    0.000    0.000 
#
# Total GULP energy -1090681.098211 kJ/mol
# GULP energy per Si atom -12394.103389 kJ/mol
# Density = 1.804512 g / cm^3
# Si number density = 18.086280 Si / 1000 Ang^3
#
#
#
# Elastic Constant Matrix: (Units=GPa)
#
#
# Indices 1 2 3 4 5 6 
#
# 1 63.0042 47.6648 52.0777 0.0000 0.0000 0.0000
# 2 47.6648 63.0042 52.0777 0.0000 0.0000 0.0000
# 3 52.0777 52.0777 101.5913 0.0000 0.0000 0.0000
# 4 0.0000 0.0000 0.0000 27.0813 0.0000 0.0000
# 5 0.0000 0.0000 0.0000 0.0000 27.0813 0.0000
# 6 0.0000 0.0000 0.0000 0.0000 0.0000 34.6330
#
#
#
# Elastic Compliance Matrix: (Units=1/GPa)
#
#
# Indices 1 2 3 4 5 6 
#
# 1 0.041325 -0.023866 -0.008950 0.000000 0.000000 0.000000
# 2 -0.023866 0.041325 -0.008950 0.000000 0.000000 0.000000
# 3 -0.008950 -0.008950 0.019019 0.000000 0.000000 0.000000
# 4 0.000000 0.000000 0.000000 0.036926 0.000000 0.000000
# 5 0.000000 0.000000 0.000000 0.000000 0.036926 0.000000
# 6 0.000000 0.000000 0.000000 0.000000 0.000000 0.028874
#
#
# Mechanical properties :
#
#
# Convention : Reuss Voigt Hill
#
# Bulk Modulus (GPa) = 55.13351 59.02667 57.08009
# Shear Modulus (GPa) = 17.00832 22.81109 19.90970
#
# Velocity S-wave (km/s) = 3.06992 3.55524 3.32146
# Velocity P-wave (km/s) = 6.56625 7.03989 6.80719
#
# Compressibility (1/GPa) = 0.01813779
#
# Stress axis : x y z
#
# Youngs Moduli (GPa) = 24.19820 24.19820 52.57877
#
# Poissons Ratio (x) = 0.57752 0.47057
# Poissons Ratio (y) = 0.57752 0.47057
# Poissons Ratio (z) = 0.21657 0.21657
#
# Static dielectric constant tensor:
#      x y z
#    x 3.251670 0.000000 0.000000 
#    y 0.000000 3.251670 0.000000 
#    z 0.000000 0.000000 3.639120 
# 
# 
# High freq. dielectric constant tensor:
#      x y z
#    x 1.675460 0.000000 0.000000 
#    y 0.000000 1.675460 0.000000 
#    z 0.000000 0.000000 1.705480 
# 
# From -- ./inp_files/5127.got.cif
#   From: 2010.06.25/outbox.cif.g09.slc.cpg/sg140_3_cif.got.tgz:5127.got - 2010.06.28 10:53:23.
