data_PCOD8320238
_publ_section_title
;
Structure prediction by ZEFSAII (Michael W. Deem and Ramdas Pophale) SiO2 
 PCOD8320238
Probable space group: I 4/M C M
;
_chemical_formula_sum "Si O2"
_cell_formula_units_Z 128
_cell_length_a 28.369741
_cell_length_b 28.369741
_cell_length_c 9.038011
_cell_angle_alpha 90.000000
_cell_angle_beta 90.000000
_cell_angle_gamma 90.000000
_cell_volume 7274.172697
_symmetry_space_group_name_H-M "I 4/M C M"
_symmetry_group_IT_number 140
_symmetry_cell_setting 'tetragonal'
loop_
_space_group_symop_operation_xyz
x,y,z
-y,x,z
-x,-y,z
y,-x,z
x,-y,1/2-z
-x,y,1/2-z
y,x,1/2-z
-y,-x,1/2-z
-x,-y,-z
y,-x,-z
x,y,-z
-y,x,-z
-x,y,1/2+z
x,-y,1/2+z
-y,-x,1/2+z
y,x,1/2+z
1/2+x,1/2+y,1/2+z
1/2-y,1/2+x,1/2+z
1/2-x,1/2-y,1/2+z
1/2+y,1/2-x,1/2+z
1/2+x,1/2-y,-z
1/2-x,1/2+y,-z
1/2+y,1/2+x,-z
1/2-y,1/2-x,-z
1/2-x,1/2-y,1/2-z
1/2+y,1/2-x,1/2-z
1/2+x,1/2+y,1/2-z
1/2-y,1/2+x,1/2-z
1/2-x,1/2+y,z
1/2+x,1/2-y,z
1/2-y,1/2-x,z
1/2+y,1/2+x,z
loop_
_atom_site_type_symbol
_atom_site_label
_atom_site_fract_x
_atom_site_fract_y
_atom_site_fract_z
Si Si1 0.301022 0.124919 0.676033
Si Si2 0.049896 0.119313 0.174536
Si Si3 0.372574 0.304629 0.672871
Si Si4 0.374485 0.049568 0.327456
O O1 0.300738 0.123837 0.500000
O O2 0.327103 0.172898 0.729994
O O3 0.247986 0.122059 0.738641
O O4 0.330108 0.079658 0.733829
O O5 0.074208 0.074208 0.250000
O O6 0.080162 0.166129 0.207388
O O7 0.000000 0.127858 0.250000
O O8 0.044379 0.109844 0.000000
O O9 0.327769 0.327769 0.750000
O O10 0.361911 0.303544 0.500000
O O11 0.368526 0.040807 0.500000
O O12 0.422531 0.077470 0.292872
O O13 0.376417 0.000000 0.250000
#
# Coordination Sequence:
#
# PCOD8320238 Si02
#       4
#    32  32  32  32
#     4   8  15  30  50  70  95 128 162 194 233 282
#     4  10  20  34  51  72  98 126 158 195 236 281
#     4   9  18  32  50  72  98 127 158 194 235 279
#     4   9  18  32  49  69  94 125 160 197 238 284
#
# _framework density 17.596502999999998
#
# number of rings (size 3 to 8) (size 9 to 14) (size 15 to 20)
#    0.000    3.000    0.000    2.250    0.000    3.500 
#    0.000    3.750    0.000    1.500    0.000    0.000 
#    0.000    0.000    0.000    0.000    0.000    0.000 
#
# Total GULP energy -793436.956973 kJ/mol
# GULP energy per Si atom -12397.452453 kJ/mol
# Density = 1.755645 g / cm^3
# Si number density = 17.596503 Si / 1000 Ang^3
#
#
#
# Elastic Constant Matrix: (Units=GPa)
#
#
# Indices 1 2 3 4 5 6 
#
# 1 159.1023 75.5486 49.0630 0.0000 0.0000 0.0000
# 2 75.5486 159.1023 49.0630 0.0000 0.0000 0.0000
# 3 49.0630 49.0630 47.5252 0.0000 0.0000 0.0000
# 4 0.0000 0.0000 0.0000 25.3480 0.0000 0.0000
# 5 0.0000 0.0000 0.0000 0.0000 25.3480 0.0000
# 6 0.0000 0.0000 0.0000 0.0000 0.0000 15.8390
#
#
#
# Elastic Compliance Matrix: (Units=1/GPa)
#
#
# Indices 1 2 3 4 5 6 
#
# 1 0.009734 -0.002235 -0.007742 0.000000 0.000000 0.000000
# 2 -0.002235 0.009734 -0.007742 0.000000 0.000000 0.000000
# 3 -0.007742 -0.007742 0.037026 0.000000 0.000000 0.000000
# 4 0.000000 0.000000 0.000000 0.039451 0.000000 0.000000
# 5 0.000000 0.000000 0.000000 0.000000 0.039451 0.000000
# 6 0.000000 0.000000 0.000000 0.000000 0.000000 0.063135
#
#
# Mechanical properties :
#
#
# Convention : Reuss Voigt Hill
#
# Bulk Modulus (GPa) = 47.48976 79.23101 63.36038
# Shear Modulus (GPa) = 20.74815 26.11070 23.42943
#
# Velocity S-wave (km/s) = 3.43754 3.85627 3.65291
# Velocity P-wave (km/s) = 6.54235 8.05928 7.34011
#
# Compressibility (1/GPa) = 0.02105717
#
# Stress axis : x y z
#
# Youngs Moduli (GPa) = 102.73568 102.73568 27.00809
#
# Poissons Ratio (x) = 0.22958 0.20909
# Poissons Ratio (y) = 0.22958 0.20909
# Poissons Ratio (z) = 0.79535 0.79535
#
# Static dielectric constant tensor:
#      x y z
#    x 3.625720 0.000000 0.000000 
#    y 0.000000 3.625720 0.000000 
#    z 0.000000 0.000000 3.045220 
# 
# 
# High freq. dielectric constant tensor:
#      x y z
#    x 1.685570 0.000000 0.000000 
#    y 0.000000 1.685570 0.000000 
#    z 0.000000 0.000000 1.656420 
# 
# From -- ./inp_files/2897.got.cif
#   From: 2010.06.25/outbox.cif.g09.slc.cpg/sg140_2_cif.got.tgz:2897.got - 2010.06.28 10:53:23.
