data_PCOD8320426
_publ_section_title
;
Structure prediction by ZEFSAII (Michael W. Deem and Ramdas Pophale) SiO2 
 PCOD8320426
Probable space group: I 4/M C M
;
_chemical_formula_sum "Si O2"
_cell_formula_units_Z 192
_cell_length_a 20.231295
_cell_length_b 20.231295
_cell_length_c 25.286227
_cell_angle_alpha 90.000000
_cell_angle_beta 90.000000
_cell_angle_gamma 90.000000
_cell_volume 10349.786662
_symmetry_space_group_name_H-M "I 4/M C M"
_symmetry_group_IT_number 140
_symmetry_cell_setting 'tetragonal'
loop_
_space_group_symop_operation_xyz
x,y,z
-y,x,z
-x,-y,z
y,-x,z
x,-y,1/2-z
-x,y,1/2-z
y,x,1/2-z
-y,-x,1/2-z
-x,-y,-z
y,-x,-z
x,y,-z
-y,x,-z
-x,y,1/2+z
x,-y,1/2+z
-y,-x,1/2+z
y,x,1/2+z
1/2+x,1/2+y,1/2+z
1/2-y,1/2+x,1/2+z
1/2-x,1/2-y,1/2+z
1/2+y,1/2-x,1/2+z
1/2+x,1/2-y,-z
1/2-x,1/2+y,-z
1/2+y,1/2+x,-z
1/2-y,1/2-x,-z
1/2-x,1/2-y,1/2-z
1/2+y,1/2-x,1/2-z
1/2+x,1/2+y,1/2-z
1/2-y,1/2+x,1/2-z
1/2-x,1/2+y,z
1/2+x,1/2-y,z
1/2-y,1/2-x,z
1/2+y,1/2+x,z
loop_
_atom_site_type_symbol
_atom_site_label
_atom_site_fract_x
_atom_site_fract_y
_atom_site_fract_z
Si Si1 0.331033 0.942722 0.500000
Si Si2 0.599186 0.536434 0.937985
Si Si3 0.659448 0.269689 0.792586
Si Si4 0.444041 0.165565 0.707697
Si Si5 0.053595 0.339583 0.087293
Si Si6 0.627229 0.706130 0.592333
Si Si7 0.777060 0.167061 0.500000
O O1 0.392874 0.892874 0.500000
O O2 0.261643 0.902949 0.500000
O O3 0.333962 0.988836 0.448475
O O4 0.538312 0.583632 0.922040
O O5 0.663203 0.560086 0.906016
O O6 0.613178 0.542051 0.000000
O O7 0.672262 0.327739 0.750000
O O8 0.713879 0.213879 0.786058
O O9 0.587513 0.237853 0.782541
O O10 0.663524 0.298457 0.851527
O O11 0.500000 0.152406 0.750000
O O12 0.389770 0.110231 0.716632
O O13 0.471565 0.161734 0.647865
O O14 0.092346 0.407655 0.074530
O O15 0.106251 0.280579 0.077080
O O16 0.677411 0.673075 0.551317
O O17 0.726005 0.226005 0.500000
#
# Coordination Sequence:
#
# PCOD8320426 Si02
#       7
#    16  32  32  32  32  32  16
#     4  11  26  40  53  81 121 154 187 228 276 337
#     4   9  19  34  52  80 114 147 179 217 270 332
#     4   9  19  37  56  77 106 144 183 221 274 334
#     4   9  19  36  57  83 109 137 183 236 276 323
#     4  10  22  39  59  81 110 154 197 226 274 343
#     4  11  20  34  61  81 111 141 183 231 279 323
#     4  11  23  35  52  85 115 136 177 232 283 320
#
# _framework density 18.551107999999999
#
# number of rings (size 3 to 8) (size 9 to 14) (size 15 to 20)
#    0.000    2.167    0.833    3.750    2.333    2.833 
#    3.000    5.000    0.000    0.000    0.000    1.167 
#    0.000    0.000    0.000    0.000    0.000    0.000 
#
# Total GULP energy -1190315.055639 kJ/mol
# GULP energy per Si atom -12399.115163 kJ/mol
# Density = 1.850888 g / cm^3
# Si number density = 18.551108 Si / 1000 Ang^3
#
#
#
# Elastic Constant Matrix: (Units=GPa)
#
#
# Indices 1 2 3 4 5 6 
#
# 1 75.0528 27.8937 52.0952 0.0000 0.0000 0.0000
# 2 27.8937 75.0525 52.0950 0.0000 0.0000 0.0000
# 3 52.0952 52.0950 122.5439 0.0000 0.0000 0.0000
# 4 0.0000 0.0000 0.0000 30.0769 0.0000 0.0000
# 5 0.0000 0.0000 0.0000 0.0000 30.0764 0.0000
# 6 0.0000 0.0000 0.0000 0.0000 0.0000 20.4112
#
#
#
# Elastic Compliance Matrix: (Units=1/GPa)
#
#
# Indices 1 2 3 4 5 6 
#
# 1 0.019127 -0.002078 -0.007248 0.000000 0.000000 0.000000
# 2 -0.002078 0.019127 -0.007248 0.000000 0.000000 0.000000
# 3 -0.007248 -0.007248 0.014323 0.000000 0.000000 0.000000
# 4 0.000000 0.000000 0.000000 0.033248 0.000000 0.000000
# 5 0.000000 0.000000 0.000000 0.000000 0.033249 0.000000
# 6 0.000000 0.000000 0.000000 0.000000 0.000000 0.048993
#
#
# Mechanical properties :
#
#
# Convention : Reuss Voigt Hill
#
# Bulk Modulus (GPa) = 51.46763 59.64634 55.55698
# Shear Modulus (GPa) = 24.07433 25.48390 24.77911
#
# Velocity S-wave (km/s) = 3.60631 3.71038 3.65872
# Velocity P-wave (km/s) = 6.71897 7.11183 6.91819
#
# Compressibility (1/GPa) = 0.01942969
#
# Stress axis : x y z
#
# Youngs Moduli (GPa) = 52.28198 52.28183 69.81926
#
# Poissons Ratio (x) = 0.10863 0.50604
# Poissons Ratio (y) = 0.10863 0.50604
# Poissons Ratio (z) = 0.37893 0.37893
#
# Static dielectric constant tensor:
#      x y z
#    x 3.497630 0.000000 0.000000 
#    y 0.000000 3.497630 0.000000 
#    z 0.000000 0.000000 3.372160 
# 
# 
# High freq. dielectric constant tensor:
#      x y z
#    x 1.718770 0.000000 0.000000 
#    y 0.000000 1.718770 0.000000 
#    z 0.000000 0.000000 1.711830 
# 
# From -- ./inp_files/9844.got.cif
#   From: 2010.06.25/outbox.cif.g09.slc.cpg/sg140_5_cif.got.tgz:9844.got - 2010.06.28 10:53:23.
