data_PCOD8320038
_publ_section_title
;
Structure prediction by ZEFSAII (Michael W. Deem and Ramdas Pophale) SiO2 
 PCOD8320038
Probable space group: I 4/M C M
;
_chemical_formula_sum "Si O2"
_cell_formula_units_Z 120
_cell_length_a 14.414359
_cell_length_b 14.414359
_cell_length_c 29.289895
_cell_angle_alpha 90.000000
_cell_angle_beta 90.000000
_cell_angle_gamma 90.000000
_cell_volume 6085.671186
_symmetry_space_group_name_H-M "I 4/M C M"
_symmetry_group_IT_number 140
_symmetry_cell_setting 'tetragonal'
loop_
_space_group_symop_operation_xyz
x,y,z
-y,x,z
-x,-y,z
y,-x,z
x,-y,1/2-z
-x,y,1/2-z
y,x,1/2-z
-y,-x,1/2-z
-x,-y,-z
y,-x,-z
x,y,-z
-y,x,-z
-x,y,1/2+z
x,-y,1/2+z
-y,-x,1/2+z
y,x,1/2+z
1/2+x,1/2+y,1/2+z
1/2-y,1/2+x,1/2+z
1/2-x,1/2-y,1/2+z
1/2+y,1/2-x,1/2+z
1/2+x,1/2-y,-z
1/2-x,1/2+y,-z
1/2+y,1/2+x,-z
1/2-y,1/2-x,-z
1/2-x,1/2-y,1/2-z
1/2+y,1/2-x,1/2-z
1/2+x,1/2+y,1/2-z
1/2-y,1/2+x,1/2-z
1/2-x,1/2+y,z
1/2+x,1/2-y,z
1/2-y,1/2-x,z
1/2+y,1/2+x,z
loop_
_atom_site_type_symbol
_atom_site_label
_atom_site_fract_x
_atom_site_fract_y
_atom_site_fract_z
Si Si1 0.718923 0.076965 0.500000
Si Si2 0.500000 0.151012 0.250000
Si Si3 0.577128 0.077128 0.097027
Si Si4 0.092235 0.592235 0.500000
Si Si5 0.552388 0.205089 0.653852
Si Si6 0.353731 0.544199 0.083644
O O1 0.682993 0.182993 0.500000
O O2 0.779331 0.061640 0.544637
O O3 0.625973 0.014417 0.500000
O O4 0.586351 0.086351 0.236127
O O5 0.525333 0.215409 0.293002
O O6 0.531099 0.156428 0.127038
O O7 0.500000 0.000000 0.081948
O O8 0.624411 0.124411 0.051202
O O9 0.646656 0.146656 0.648625
O O10 0.564940 0.307138 0.632791
O O11 0.386125 0.438714 0.078764
#
# Coordination Sequence:
#
# PCOD8320038 Si02
#       6
#    16  16  16   8  32  32
#     4  12  23  41  64  93 120 148 196 249 297 357
#     4   9  16  30  58  93 126 156 184 247 332 372
#     4  10  17  30  54  86 124 154 181 240 313 360
#     4  12  21  32  60  94 128 150 172 241 316 357
#     4  10  19  36  60  91 121 150 200 252 301 363
#     4  11  25  45  60  78 121 171 203 237 295 362
#
# _framework density 19.718449
#
# number of rings (size 3 to 8) (size 9 to 14) (size 15 to 20)
#    0.000    1.467    4.000    2.800    0.000    1.067 
#   12.000    1.333    0.000    4.800    0.000    0.000 
#    0.000    0.000    0.000    0.000    0.000    0.000 
#
# Total GULP energy -743393.931524 kJ/mol
# GULP energy per Si atom -12389.898859 kJ/mol
# Density = 1.967357 g / cm^3
# Si number density = 19.718449 Si / 1000 Ang^3
#
#
#
# Elastic Constant Matrix: (Units=GPa)
#
#
# Indices 1 2 3 4 5 6 
#
# 1 88.8539 66.2887 58.4299 0.0000 0.0000 0.0000
# 2 66.2887 88.8539 58.4299 0.0000 0.0000 0.0000
# 3 58.4299 58.4299 151.2155 0.0000 0.0000 0.0000
# 4 0.0000 0.0000 0.0000 6.9982 0.0000 0.0000
# 5 0.0000 0.0000 0.0000 0.0000 6.9982 0.0000
# 6 0.0000 0.0000 0.0000 0.0000 0.0000 16.0178
#
#
#
# Elastic Compliance Matrix: (Units=1/GPa)
#
#
# Indices 1 2 3 4 5 6 
#
# 1 0.026704 -0.017612 -0.003513 0.000000 0.000000 0.000000
# 2 -0.017612 0.026704 -0.003513 0.000000 0.000000 0.000000
# 3 -0.003513 -0.003513 0.009328 0.000000 0.000000 0.000000
# 4 0.000000 0.000000 0.000000 0.142894 0.000000 0.000000
# 5 0.000000 0.000000 0.000000 0.000000 0.142894 0.000000
# 6 0.000000 0.000000 0.000000 0.000000 0.000000 0.062431
#
#
# Mechanical properties :
#
#
# Convention : Reuss Voigt Hill
#
# Bulk Modulus (GPa) = 74.29779 77.24669 75.77224
# Shear Modulus (GPa) = 10.75921 15.72115 13.24018
#
# Velocity S-wave (km/s) = 2.33843 2.82668 2.59407
# Velocity P-wave (km/s) = 6.71209 7.06494 6.89077
#
# Compressibility (1/GPa) = 0.01345935
#
# Stress axis : x y z
#
# Youngs Moduli (GPa) = 37.44758 37.44758 107.20378
#
# Poissons Ratio (x) = 0.65953 0.37662
# Poissons Ratio (y) = 0.65953 0.37662
# Poissons Ratio (z) = 0.13156 0.13156
#
# Static dielectric constant tensor:
#      x y z
#    x 3.440390 0.000000 0.000000 
#    y 0.000000 3.440390 0.000000 
#    z 0.000000 0.000000 3.932270 
# 
# 
# High freq. dielectric constant tensor:
#      x y z
#    x 1.747150 0.000000 0.000000 
#    y 0.000000 1.747150 0.000000 
#    z 0.000000 0.000000 1.785520 
# 
# From -- ./inp_files/11346.got.cif
#   From: 2010.06.25/outbox.cif.g09.slc.cpg/sg140_6_cif.got.tgz:11346.got - 2010.06.28 10:53:23.
