data_PCOD8320423
_publ_section_title
;
Structure prediction by ZEFSAII (Michael W. Deem and Ramdas Pophale) SiO2 
 PCOD8320423
Probable space group: I 4/M C M
;
_chemical_formula_sum "Si O2"
_cell_formula_units_Z 96
_cell_length_a 13.504459
_cell_length_b 13.504459
_cell_length_c 26.304765
_cell_angle_alpha 90.000000
_cell_angle_beta 90.000000
_cell_angle_gamma 90.000000
_cell_volume 4797.210854
_symmetry_space_group_name_H-M "I 4/M C M"
_symmetry_group_IT_number 140
_symmetry_cell_setting 'tetragonal'
loop_
_space_group_symop_operation_xyz
x,y,z
-y,x,z
-x,-y,z
y,-x,z
x,-y,1/2-z
-x,y,1/2-z
y,x,1/2-z
-y,-x,1/2-z
-x,-y,-z
y,-x,-z
x,y,-z
-y,x,-z
-x,y,1/2+z
x,-y,1/2+z
-y,-x,1/2+z
y,x,1/2+z
1/2+x,1/2+y,1/2+z
1/2-y,1/2+x,1/2+z
1/2-x,1/2-y,1/2+z
1/2+y,1/2-x,1/2+z
1/2+x,1/2-y,-z
1/2-x,1/2+y,-z
1/2+y,1/2+x,-z
1/2-y,1/2-x,-z
1/2-x,1/2-y,1/2-z
1/2+y,1/2-x,1/2-z
1/2+x,1/2+y,1/2-z
1/2-y,1/2+x,1/2-z
1/2-x,1/2+y,z
1/2+x,1/2-y,z
1/2-y,1/2-x,z
1/2+y,1/2+x,z
loop_
_atom_site_type_symbol
_atom_site_label
_atom_site_fract_x
_atom_site_fract_y
_atom_site_fract_z
Si Si1 0.884522 0.884522 0.750000
Si Si2 0.923987 0.262297 0.897999
Si Si3 0.124039 0.220652 0.852195
Si Si4 0.996730 0.338390 0.500000
O O1 0.841932 0.831590 0.799958
O O2 0.000000 0.861945 0.750000
O O3 0.864034 0.364034 0.885476
O O4 0.847673 0.169838 0.897638
O O5 0.982893 0.270164 0.951091
O O6 0.006814 0.236987 0.855939
O O7 0.170718 0.329283 0.854849
O O8 0.072060 0.427941 0.500000
O O9 0.884945 0.384945 0.500000
#
# Coordination Sequence:
#
# PCOD8320423 Si02
#       4
#    16  32  32  16
#     4  11  21  38  62  84 115 161 198 250 306 366
#     4  10  22  38  59  91 122 159 205 246 300 364
#     4  11  22  38  62  87 120 158 200 254 305 362
#     4   9  18  36  60  85 121 161 196 241 295 351
#
# _framework density 20.011628999999999
#
# number of rings (size 3 to 8) (size 9 to 14) (size 15 to 20)
#    0.000    1.667    3.333    1.500    0.000    4.000 
#    0.000    3.333    0.000    2.000    0.000    0.000 
#    0.000    0.000    0.000    0.000    0.000    0.000 
#
# Total GULP energy -594950.921669 kJ/mol
# GULP energy per Si atom -12394.810868 kJ/mol
# Density = 1.996608 g / cm^3
# Si number density = 20.011629 Si / 1000 Ang^3
#
#
#
# Elastic Constant Matrix: (Units=GPa)
#
#
# Indices 1 2 3 4 5 6 
#
# 1 145.2463 -2.3029 26.3527 0.0000 0.0000 0.0000
# 2 -2.3029 145.2487 26.3529 0.0000 0.0000 0.0000
# 3 26.3527 26.3529 89.7608 0.0000 0.0000 0.0000
# 4 0.0000 0.0000 0.0000 27.5675 0.0000 0.0000
# 5 0.0000 0.0000 0.0000 0.0000 27.5678 0.0000
# 6 0.0000 0.0000 0.0000 0.0000 0.0000 27.3402
#
#
#
# Elastic Compliance Matrix: (Units=1/GPa)
#
#
# Indices 1 2 3 4 5 6 
#
# 1 0.007311 0.000534 -0.002303 0.000000 0.000000 0.000000
# 2 0.000534 0.007311 -0.002303 0.000000 0.000000 0.000000
# 3 -0.002303 -0.002303 0.012493 0.000000 0.000000 0.000000
# 4 0.000000 0.000000 0.000000 0.036275 0.000000 0.000000
# 5 0.000000 0.000000 0.000000 0.000000 0.036274 0.000000
# 6 0.000000 0.000000 0.000000 0.000000 0.000000 0.036576
#
#
# Mechanical properties :
#
#
# Convention : Reuss Voigt Hill
#
# Bulk Modulus (GPa) = 52.71421 53.45125 53.08273
# Shear Modulus (GPa) = 33.17654 38.48531 35.83093
#
# Velocity S-wave (km/s) = 4.07610 4.39013 4.23603
# Velocity P-wave (km/s) = 6.96791 7.24332 7.10695
#
# Compressibility (1/GPa) = 0.01897022
#
# Stress axis : x y z
#
# Youngs Moduli (GPa) = 136.77647 136.77874 80.04415
#
# Poissons Ratio (x) = -0.07301 0.18436
# Poissons Ratio (y) = -0.07301 0.18436
# Poissons Ratio (z) = 0.31502 0.31503
#
# Static dielectric constant tensor:
#      x y z
#    x 3.534100 0.000000 0.000000 
#    y 0.000000 3.534100 0.000000 
#    z 0.000000 0.000000 3.687670 
# 
# 
# High freq. dielectric constant tensor:
#      x y z
#    x 1.778760 0.000000 0.000000 
#    y 0.000000 1.778760 0.000000 
#    z 0.000000 0.000000 1.772150 
# 
# From -- ./inp_files/10208.got.cif
#   From: 2010.06.25/outbox.cif.g09.slc.cpg/sg140_6_cif.got.tgz:10208.got - 2010.06.28 10:53:23.
