data_PCOD8320508
_publ_section_title
;
Structure prediction by ZEFSAII (Michael W. Deem and Ramdas Pophale) SiO2 
 PCOD8320508
Probable space group: I 4/M C M
;
_chemical_formula_sum "Si O2"
_cell_formula_units_Z 96
_cell_length_a 13.160950
_cell_length_b 13.160950
_cell_length_c 28.847168
_cell_angle_alpha 90.000000
_cell_angle_beta 90.000000
_cell_angle_gamma 90.000000
_cell_volume 4996.635419
_symmetry_space_group_name_H-M "I 4/M C M"
_symmetry_group_IT_number 140
_symmetry_cell_setting 'tetragonal'
loop_
_space_group_symop_operation_xyz
x,y,z
-y,x,z
-x,-y,z
y,-x,z
x,-y,1/2-z
-x,y,1/2-z
y,x,1/2-z
-y,-x,1/2-z
-x,-y,-z
y,-x,-z
x,y,-z
-y,x,-z
-x,y,1/2+z
x,-y,1/2+z
-y,-x,1/2+z
y,x,1/2+z
1/2+x,1/2+y,1/2+z
1/2-y,1/2+x,1/2+z
1/2-x,1/2-y,1/2+z
1/2+y,1/2-x,1/2+z
1/2+x,1/2-y,-z
1/2-x,1/2+y,-z
1/2+y,1/2+x,-z
1/2-y,1/2-x,-z
1/2-x,1/2-y,1/2-z
1/2+y,1/2-x,1/2-z
1/2+x,1/2+y,1/2-z
1/2-y,1/2+x,1/2-z
1/2-x,1/2+y,z
1/2+x,1/2-y,z
1/2-y,1/2-x,z
1/2+y,1/2+x,z
loop_
_atom_site_type_symbol
_atom_site_label
_atom_site_fract_x
_atom_site_fract_y
_atom_site_fract_z
Si Si1 0.505187 0.163891 0.051378
Si Si2 0.029111 0.162672 0.622300
Si Si3 0.262296 0.594053 0.221339
O O1 0.613106 0.113106 0.067131
O O2 0.461807 0.244840 0.087215
O O3 0.423845 0.076156 0.048528
O O4 0.518114 0.212886 0.000000
O O5 0.043451 0.198484 0.674557
O O6 0.918590 0.116544 0.612814
O O7 0.216158 0.500000 0.250000
O O8 0.354058 0.645943 0.250000
O O9 0.174547 0.674547 0.210382
#
# Coordination Sequence:
#
# PCOD8320508 Si02
#       3
#    32  32  32
#     4   9  20  40  63  87 120 161 202 249 305 363
#     4  11  23  38  61  89 120 159 200 248 304 362
#     4  11  23  40  63  88 119 161 204 249 305 367
#
# _framework density 19.21293
#
# number of rings (size 3 to 8) (size 9 to 14) (size 15 to 20)
#    0.000    1.667    3.333    2.000    0.000    6.000 
#    0.000    5.000    0.000    0.000    0.000    0.000 
#    0.000    0.000    0.000    0.000    0.000    0.000 
#
# Total GULP energy -595052.083207 kJ/mol
# GULP energy per Si atom -12396.918400 kJ/mol
# Density = 1.916920 g / cm^3
# Si number density = 19.212930 Si / 1000 Ang^3
#
#
#
# Elastic Constant Matrix: (Units=GPa)
#
#
# Indices 1 2 3 4 5 6 
#
# 1 88.3044 30.6356 46.0570 0.0000 0.0000 0.0000
# 2 30.6356 88.3042 46.0561 0.0000 0.0000 0.0000
# 3 46.0570 46.0561 116.2614 0.0000 0.0000 0.0000
# 4 0.0000 0.0000 0.0000 33.3885 0.0000 0.0000
# 5 0.0000 0.0000 0.0000 0.0000 33.3895 0.0000
# 6 0.0000 0.0000 0.0000 0.0000 0.0000 -0.2299
#
#
#
# Elastic Compliance Matrix: (Units=1/GPa)
#
#
# Indices 1 2 3 4 5 6 
#
# 1 0.014735 -0.002606 -0.004805 0.000000 0.000000 0.000000
# 2 -0.002606 0.014734 -0.004805 0.000000 0.000000 0.000000
# 3 -0.004805 -0.004805 0.012408 0.000000 0.000000 0.000000
# 4 0.000000 0.000000 0.000000 0.029950 0.000000 0.000000
# 5 0.000000 0.000000 0.000000 0.000000 0.029950 0.000000
# 6 0.000000 0.000000 0.000000 0.000000 0.000000 -4.349848
#
#
# Mechanical properties :
#
#
# Convention : Reuss Voigt Hill
#
# Bulk Modulus (GPa) = 57.31828 59.81861 58.56844
# Shear Modulus (GPa) = -1.18545 24.65103 11.73279
#
# Velocity S-wave (km/s) = -0.78635 3.58585 2.47386
# Velocity P-wave (km/s) = 5.39198 6.95317 6.22174
#
# Compressibility (1/GPa) = 0.01744644
#
# Stress axis : x y z
#
# Youngs Moduli (GPa) = 67.86759 67.86807 80.59284
#
# Poissons Ratio (x) = 0.17686 0.38723
# Poissons Ratio (y) = 0.17686 0.38722
# Poissons Ratio (z) = 0.32609 0.32608
#
# Static dielectric constant tensor:
#      x y z
#    x 3.544350 0.000000 0.000000 
#    y 0.000000 3.544340 0.000000 
#    z 0.000000 0.000000 3.574480 
# 
# 
# High freq. dielectric constant tensor:
#      x y z
#    x 1.747750 0.000000 0.000000 
#    y 0.000000 1.747750 0.000000 
#    z 0.000000 0.000000 1.755920 
# 
# From -- ./inp_files/7665.got.cif
#   From: 2010.06.25/outbox.cif.g09.slc.cpg/sg140_4_cif.got.tgz:7665.got - 2010.06.28 10:53:23.
