data_PCOD8320688
_publ_section_title
;
Structure prediction by ZEFSAII (Michael W. Deem and Ramdas Pophale) SiO2 
 PCOD8320688
Probable space group: I 41/A M D
;
_chemical_formula_sum "Si O2"
_cell_formula_units_Z 160
_cell_length_a 18.658432
_cell_length_b 18.658432
_cell_length_c 24.325246
_cell_angle_alpha 90.000000
_cell_angle_beta 90.000000
_cell_angle_gamma 90.000000
_cell_volume 8468.520227
_symmetry_space_group_name_H-M "I 41/A M D"
_symmetry_group_IT_number 141
_space_group.IT_coordinate_system_code '2'
_symmetry_cell_setting 'tetragonal'
loop_
_space_group_symop_operation_xyz
x,y,z
1/4-y,3/4+x,1/4+z
-x,1/2-y,z
1/4+y,1/4-x,3/4+z
x,-y,-z
-x,1/2+y,-z
1/4+y,3/4+x,1/4-z
1/4-y,1/4-x,3/4-z
-x,-y,-z
3/4+y,1/4-x,3/4-z
x,1/2+y,-z
3/4-y,3/4+x,1/4-z
-x,y,z
x,1/2-y,z
3/4-y,1/4-x,3/4+z
3/4+y,3/4+x,1/4+z
1/2+x,1/2+y,1/2+z
3/4-y,1/4+x,3/4+z
1/2-x,-y,1/2+z
3/4+y,3/4-x,1/4+z
1/2+x,1/2-y,1/2-z
1/2-x,y,1/2-z
3/4+y,1/4+x,3/4-z
3/4-y,3/4-x,1/4-z
1/2-x,1/2-y,1/2-z
1/4+y,3/4-x,1/4-z
1/2+x,y,1/2-z
1/4-y,1/4+x,3/4-z
1/2-x,1/2+y,1/2+z
1/2+x,-y,1/2+z
1/4-y,3/4-x,1/4+z
1/4+y,1/4+x,3/4+z
loop_
_atom_site_type_symbol
_atom_site_label
_atom_site_fract_x
_atom_site_fract_y
_atom_site_fract_z
Si Si1 0.290418 0.332452 0.993511
Si Si2 0.313194 0.667988 0.586458
Si Si3 0.300631 0.669214 0.202111
Si Si4 0.806471 0.669324 0.103767
Si Si5 0.681156 0.832238 0.712930
O O1 0.304682 0.250000 0.979282
O O2 0.262811 0.343977 0.055794
O O3 0.227385 0.360979 0.952915
O O4 0.366337 0.370210 0.986095
O O5 0.338422 0.750000 0.580626
O O6 0.373364 0.621936 0.555806
O O7 0.301429 0.647089 0.649941
O O8 0.323881 0.750000 0.218484
O O9 0.250000 0.636836 0.250000
O O10 0.258625 0.668194 0.145644
O O11 0.871129 0.621129 0.125000
O O12 0.836523 0.750000 0.096274
O O13 0.654721 0.750000 0.717518
O O14 0.750000 0.845476 0.750000
#
# Coordination Sequence:
#
# PCOD8320688 Si02
#       5
#    32  32  32  32  32
#     4  10  21  38  58  84 115 147 189 237 283 339
#     4  10  21  38  59  84 115 151 191 236 288 344
#     4  10  20  35  55  83 116 149 189 236 280 330
#     4  10  20  34  52  77 112 151 190 232 276 330
#     4  10  22  40  60  85 115 147 189 241 294 347
#
# _framework density 18.893502000000002
#
# number of rings (size 3 to 8) (size 9 to 14) (size 15 to 20)
#    0.000    2.000    2.000    1.200    0.000    4.200 
#    0.000    2.000    0.000    7.200    0.000    5.600 
#    0.000    0.000    0.000    0.000    0.000    0.000 
#
# Total GULP energy -991966.173612 kJ/mol
# GULP energy per Si atom -12399.577170 kJ/mol
# Density = 1.885050 g / cm^3
# Si number density = 18.893502 Si / 1000 Ang^3
#
#
#
# Elastic Constant Matrix: (Units=GPa)
#
#
# Indices 1 2 3 4 5 6 
#
# 1 96.9905 70.7452 47.8426 0.0000 0.0000 0.0000
# 2 70.7452 96.9905 47.8426 0.0000 0.0000 0.0000
# 3 47.8426 47.8426 108.0776 0.0000 0.0000 0.0000
# 4 0.0000 0.0000 0.0000 26.8369 0.0000 0.0000
# 5 0.0000 0.0000 0.0000 0.0000 26.8369 0.0000
# 6 0.0000 0.0000 0.0000 0.0000 0.0000 34.3900
#
#
#
# Elastic Compliance Matrix: (Units=1/GPa)
#
#
# Indices 1 2 3 4 5 6 
#
# 1 0.023039 -0.015063 -0.003531 0.000000 0.000000 0.000000
# 2 -0.015063 0.023039 -0.003531 0.000000 0.000000 0.000000
# 3 -0.003531 -0.003531 0.012378 0.000000 0.000000 0.000000
# 4 0.000000 0.000000 0.000000 0.037262 0.000000 0.000000
# 5 0.000000 0.000000 0.000000 0.000000 0.037262 0.000000
# 6 0.000000 0.000000 0.000000 0.000000 0.000000 0.029078
#
#
# Mechanical properties :
#
#
# Convention : Reuss Voigt Hill
#
# Bulk Modulus (GPa) = 70.38547 70.54661 70.46604
# Shear Modulus (GPa) = 23.69181 26.65463 25.17322
#
# Velocity S-wave (km/s) = 3.54498 3.76011 3.65413
# Velocity P-wave (km/s) = 7.35463 7.50143 7.42839
#
# Compressibility (1/GPa) = 0.01420748
#
# Stress axis : x y z
#
# Youngs Moduli (GPa) = 43.40484 43.40484 80.78558
#
# Poissons Ratio (x) = 0.65381 0.28523
# Poissons Ratio (y) = 0.65381 0.28523
# Poissons Ratio (z) = 0.15325 0.15325
#
# Static dielectric constant tensor:
#      x y z
#    x 3.370950 0.000000 0.000000 
#    y 0.000000 3.370950 0.000000 
#    z 0.000000 0.000000 3.778500 
# 
# 
# High freq. dielectric constant tensor:
#      x y z
#    x 1.724970 0.000000 0.000000 
#    y 0.000000 1.724970 0.000000 
#    z 0.000000 0.000000 1.752060 
# 
# From -- ./inp_files/12675.got.cif
#   From: 2010.03.12/outbox.cif.g09.slc.cpg/sg141_7_cif.got.tgz:12675.got - 2010.04.03 13:18:35.
