data_PCOD8320128
_publ_section_title
;
Structure prediction by ZEFSAII (Michael W. Deem and Ramdas Pophale) SiO2 
 PCOD8320128
Probable space group: I 4/M C M
;
_chemical_formula_sum "Si O2"
_cell_formula_units_Z 160
_cell_length_a 29.267319
_cell_length_b 29.267319
_cell_length_c 10.117891
_cell_angle_alpha 90.000000
_cell_angle_beta 90.000000
_cell_angle_gamma 90.000000
_cell_volume 8666.742211
_symmetry_space_group_name_H-M "I 4/M C M"
_symmetry_group_IT_number 140
_symmetry_cell_setting 'tetragonal'
loop_
_space_group_symop_operation_xyz
x,y,z
-y,x,z
-x,-y,z
y,-x,z
x,-y,1/2-z
-x,y,1/2-z
y,x,1/2-z
-y,-x,1/2-z
-x,-y,-z
y,-x,-z
x,y,-z
-y,x,-z
-x,y,1/2+z
x,-y,1/2+z
-y,-x,1/2+z
y,x,1/2+z
1/2+x,1/2+y,1/2+z
1/2-y,1/2+x,1/2+z
1/2-x,1/2-y,1/2+z
1/2+y,1/2-x,1/2+z
1/2+x,1/2-y,-z
1/2-x,1/2+y,-z
1/2+y,1/2+x,-z
1/2-y,1/2-x,-z
1/2-x,1/2-y,1/2-z
1/2+y,1/2-x,1/2-z
1/2+x,1/2+y,1/2-z
1/2-y,1/2+x,1/2-z
1/2-x,1/2+y,z
1/2+x,1/2-y,z
1/2-y,1/2-x,z
1/2+y,1/2+x,z
loop_
_atom_site_type_symbol
_atom_site_label
_atom_site_fract_x
_atom_site_fract_y
_atom_site_fract_z
Si Si1 0.297903 0.448932 0.252680
Si Si2 0.662845 0.742483 0.500000
Si Si3 0.589296 0.663046 0.500000
Si Si4 0.626229 0.220947 0.259582
Si Si5 0.765266 0.830370 0.000000
Si Si6 0.045044 0.545044 0.165554
Si Si7 0.339468 0.590771 0.000000
Si Si8 0.621348 0.878653 0.844388
O O1 0.278629 0.500000 0.250000
O O2 0.253640 0.417336 0.258936
O O3 0.331784 0.440796 0.373978
O O4 0.329945 0.441605 0.127211
O O5 0.628995 0.700169 0.500000
O O6 0.654728 0.774969 0.374988
O O7 0.713778 0.720819 0.500000
O O8 0.609709 0.611867 0.500000
O O9 0.662549 0.233807 0.372365
O O10 0.607002 0.169917 0.280957
O O11 0.805081 0.867168 0.000000
O O12 0.060904 0.500000 0.250000
O O13 0.083377 0.583377 0.188741
O O14 0.037810 0.537810 0.000000
O O15 0.626824 0.873177 0.000000
#
# Coordination Sequence:
#
# PCOD8320128 Si02
#       8
#    32  16  16  32  16  16  16  16
#     4  10  19  31  51  77 108 139 176 226 274 326
#     4   9  18  32  51  79 102 146 195 242 271 295
#     4   9  17  31  48  72 108 136 180 225 269 320
#     4  10  20  35  52  76 112 148 190 230 277 330
#     4   9  16  32  55  71 104 150 197 230 267 319
#     4  10  22  45  74  99 116 137 181 232 281 339
#     4   9  17  29  50  74 100 146 176 217 273 318
#     4  11  23  41  61  83 119 155 182 217 273 342
#
# _framework density 18.461376999999999
#
# number of rings (size 3 to 8) (size 9 to 14) (size 15 to 20)
#    0.000    2.300    1.000    2.400    0.000    6.000 
#    3.600    3.000    0.000    0.000    0.000    0.000 
#    0.000   28.000    0.000    0.000    0.000    0.000 
#
# Total GULP energy -991347.898607 kJ/mol
# GULP energy per Si atom -12391.848733 kJ/mol
# Density = 1.841936 g / cm^3
# Si number density = 18.461377 Si / 1000 Ang^3
#
#
#
# Elastic Constant Matrix: (Units=GPa)
#
#
# Indices 1 2 3 4 5 6 
#
# 1 74.5720 95.9932 55.8157 0.0000 0.0000 0.0000
# 2 95.9932 74.5724 55.8157 0.0000 0.0000 0.0000
# 3 55.8157 55.8157 173.9342 0.0000 0.0000 0.0000
# 4 0.0000 0.0000 0.0000 13.2425 0.0000 0.0000
# 5 0.0000 0.0000 0.0000 0.0000 13.2426 0.0000
# 6 0.0000 0.0000 0.0000 0.0000 0.0000 36.1989
#
#
#
# Elastic Compliance Matrix: (Units=1/GPa)
#
#
# Indices 1 2 3 4 5 6 
#
# 1 -0.019631 0.027052 -0.002382 0.000000 0.000000 0.000000
# 2 0.027052 -0.019631 -0.002382 0.000000 0.000000 0.000000
# 3 -0.002382 -0.002382 0.007278 0.000000 0.000000 0.000000
# 4 0.000000 0.000000 0.000000 0.075514 0.000000 0.000000
# 5 0.000000 0.000000 0.000000 0.000000 0.075514 0.000000
# 6 0.000000 0.000000 0.000000 0.000000 0.000000 0.027625
#
#
# Mechanical properties :
#
#
# Convention : Reuss Voigt Hill
#
# Bulk Modulus (GPa) = 79.39930 82.03643 80.71786
# Shear Modulus (GPa) = 47.04128 20.23372 33.63750
#
# Velocity S-wave (km/s) = 5.05334 3.31418 4.27318
# Velocity P-wave (km/s) = 8.78351 7.69275 8.25616
#
# Compressibility (1/GPa) = 0.01259457
#
# Stress axis : x y z
#
# Youngs Moduli (GPa) = -50.94022 -50.94060 137.40402
#
# Poissons Ratio (x) = 1.37806 0.32724
# Poissons Ratio (y) = 1.37805 0.32724
# Poissons Ratio (z) = -0.12132 -0.12132
#
# Static dielectric constant tensor:
#      x y z
#    x 3.287040 0.000000 0.000000 
#    y 0.000000 3.287040 0.000000 
#    z 0.000000 0.000000 3.836680 
# 
# 
# High freq. dielectric constant tensor:
#      x y z
#    x 1.701100 0.000000 0.000000 
#    y 0.000000 1.701100 0.000000 
#    z 0.000000 0.000000 1.735550 
# 
# From -- ./inp_files/1935.got.cif
#   From: 2010.06.25/outbox.cif.g09.slc.cpg/sg140_1_cif.got.tgz:1935.got - 2010.06.28 10:53:23.
