data_PCOD8320145
_publ_section_title
;
Structure prediction by ZEFSAII (Michael W. Deem and Ramdas Pophale) SiO2 
 PCOD8320145
Probable space group: I 4/M C M
;
_chemical_formula_sum "Si O2"
_cell_formula_units_Z 160
_cell_length_a 31.193989
_cell_length_b 31.193989
_cell_length_c 9.312823
_cell_angle_alpha 90.000000
_cell_angle_beta 90.000000
_cell_angle_gamma 90.000000
_cell_volume 9061.981644
_symmetry_space_group_name_H-M "I 4/M C M"
_symmetry_group_IT_number 140
_symmetry_cell_setting 'tetragonal'
loop_
_space_group_symop_operation_xyz
x,y,z
-y,x,z
-x,-y,z
y,-x,z
x,-y,1/2-z
-x,y,1/2-z
y,x,1/2-z
-y,-x,1/2-z
-x,-y,-z
y,-x,-z
x,y,-z
-y,x,-z
-x,y,1/2+z
x,-y,1/2+z
-y,-x,1/2+z
y,x,1/2+z
1/2+x,1/2+y,1/2+z
1/2-y,1/2+x,1/2+z
1/2-x,1/2-y,1/2+z
1/2+y,1/2-x,1/2+z
1/2+x,1/2-y,-z
1/2-x,1/2+y,-z
1/2+y,1/2+x,-z
1/2-y,1/2-x,-z
1/2-x,1/2-y,1/2-z
1/2+y,1/2-x,1/2-z
1/2+x,1/2+y,1/2-z
1/2-y,1/2+x,1/2-z
1/2-x,1/2+y,z
1/2+x,1/2-y,z
1/2-y,1/2-x,z
1/2+y,1/2+x,z
loop_
_atom_site_type_symbol
_atom_site_label
_atom_site_fract_x
_atom_site_fract_y
_atom_site_fract_z
Si Si1 0.788777 0.458022 0.332490
Si Si2 0.517301 0.568779 0.000000
Si Si3 0.124580 0.694890 0.834327
Si Si4 0.127451 0.000000 0.750000
Si Si5 0.306338 0.569274 0.339196
Si Si6 0.790465 0.849755 0.167546
O O1 0.805771 0.500000 0.250000
O O2 0.800378 0.461593 0.500000
O O3 0.812201 0.416648 0.265701
O O4 0.738099 0.454451 0.304970
O O5 0.468947 0.551463 0.000000
O O6 0.525263 0.597667 0.138769
O O7 0.157643 0.657643 0.796458
O O8 0.147696 0.739924 0.800998
O O9 0.109899 0.693520 0.000000
O O10 0.155989 0.965013 0.830041
O O11 0.305400 0.588528 0.500000
O O12 0.313927 0.607742 0.227633
O O13 0.808132 0.808132 0.250000
O O14 0.800888 0.845820 0.000000
#
# Coordination Sequence:
#
# PCOD8320145 Si02
#       6
#    32  16  32  16  32  32
#     4  10  19  32  54  79 111 143 174 218 269 313
#     4  11  26  44  56  70  92 122 162 208 266 330
#     4   9  19  36  55  77 107 147 189 225 267 319
#     4  12  22  39  62  76  94 126 162 212 269 332
#     4  10  21  36  53  79 104 128 165 210 263 328
#     4  10  21  35  53  76 107 141 176 222 269 317
#
# _framework density 17.656182999999999
#
# number of rings (size 3 to 8) (size 9 to 14) (size 15 to 20)
#    0.000    1.900    2.000    1.800    1.400    4.800 
#    0.000    0.000    0.000    0.000    0.000    0.000 
#    0.000    0.400    0.000    4.200    0.000    1.800 
#
# Total GULP energy -992311.962947 kJ/mol
# GULP energy per Si atom -12403.899537 kJ/mol
# Density = 1.761600 g / cm^3
# Si number density = 17.656183 Si / 1000 Ang^3
#
#
#
# Elastic Constant Matrix: (Units=GPa)
#
#
# Indices 1 2 3 4 5 6 
#
# 1 81.5657 46.9935 47.5998 0.0000 0.0000 0.0000
# 2 46.9935 81.5657 47.5998 0.0000 0.0000 0.0000
# 3 47.5998 47.5998 119.0878 0.0000 0.0000 0.0000
# 4 0.0000 0.0000 0.0000 28.3586 0.0000 0.0000
# 5 0.0000 0.0000 0.0000 0.0000 28.3586 0.0000
# 6 0.0000 0.0000 0.0000 0.0000 0.0000 23.8166
#
#
#
# Elastic Compliance Matrix: (Units=1/GPa)
#
#
# Indices 1 2 3 4 5 6 
#
# 1 0.019987 -0.008938 -0.004416 0.000000 0.000000 0.000000
# 2 -0.008938 0.019987 -0.004416 0.000000 0.000000 0.000000
# 3 -0.004416 -0.004416 0.011928 0.000000 0.000000 0.000000
# 4 0.000000 0.000000 0.000000 0.035263 0.000000 0.000000
# 5 0.000000 0.000000 0.000000 0.000000 0.035263 0.000000
# 6 0.000000 0.000000 0.000000 0.000000 0.000000 0.041988
#
#
# Mechanical properties :
#
#
# Convention : Reuss Voigt Hill
#
# Bulk Modulus (GPa) = 61.12404 62.95612 62.04008
# Shear Modulus (GPa) = 24.34171 25.44183 24.89177
#
# Velocity S-wave (km/s) = 3.71705 3.80011 3.75881
# Velocity P-wave (km/s) = 7.28808 7.41543 7.35203
#
# Compressibility (1/GPa) = 0.01636017
#
# Stress axis : x y z
#
# Youngs Moduli (GPa) = 50.03281 50.03281 83.83959
#
# Poissons Ratio (x) = 0.44720 0.37026
# Poissons Ratio (y) = 0.44720 0.37026
# Poissons Ratio (z) = 0.22096 0.22096
#
# Static dielectric constant tensor:
#      x y z
#    x 3.084410 0.000000 0.000000 
#    y 0.000000 3.084410 0.000000 
#    z 0.000000 0.000000 3.195150 
# 
# 
# High freq. dielectric constant tensor:
#      x y z
#    x 1.662740 0.000000 0.000000 
#    y 0.000000 1.662740 0.000000 
#    z 0.000000 0.000000 1.699220 
# 
# From -- ./inp_files/1833.got.cif
#   From: 2010.06.25/outbox.cif.g09.slc.cpg/sg140_1_cif.got.tgz:1833.got - 2010.06.28 10:53:23.
