data_PCOD8320803
_publ_section_title
;
Structure prediction by ZEFSAII (Michael W. Deem and Ramdas Pophale) SiO2 
 PCOD8320803
Probable space group: I 41/A M D
;
_chemical_formula_sum "Si O2"
_cell_formula_units_Z 176
_cell_length_a 17.476326
_cell_length_b 17.476326
_cell_length_c 24.197097
_cell_angle_alpha 90.000000
_cell_angle_beta 90.000000
_cell_angle_gamma 90.000000
_cell_volume 7390.325045
_symmetry_space_group_name_H-M "I 41/A M D"
_symmetry_group_IT_number 141
_space_group.IT_coordinate_system_code '2'
_symmetry_cell_setting 'tetragonal'
loop_
_space_group_symop_operation_xyz
x,y,z
1/4-y,3/4+x,1/4+z
-x,1/2-y,z
1/4+y,1/4-x,3/4+z
x,-y,-z
-x,1/2+y,-z
1/4+y,3/4+x,1/4-z
1/4-y,1/4-x,3/4-z
-x,-y,-z
3/4+y,1/4-x,3/4-z
x,1/2+y,-z
3/4-y,3/4+x,1/4-z
-x,y,z
x,1/2-y,z
3/4-y,1/4-x,3/4+z
3/4+y,3/4+x,1/4+z
1/2+x,1/2+y,1/2+z
3/4-y,1/4+x,3/4+z
1/2-x,-y,1/2+z
3/4+y,3/4-x,1/4+z
1/2+x,1/2-y,1/2-z
1/2-x,y,1/2-z
3/4+y,1/4+x,3/4-z
3/4-y,3/4-x,1/4-z
1/2-x,1/2-y,1/2-z
1/4+y,3/4-x,1/4-z
1/2+x,y,1/2-z
1/4-y,1/4+x,3/4-z
1/2-x,1/2+y,1/2+z
1/2+x,-y,1/2+z
1/4-y,3/4-x,1/4+z
1/4+y,1/4+x,3/4+z
loop_
_atom_site_type_symbol
_atom_site_label
_atom_site_fract_x
_atom_site_fract_y
_atom_site_fract_z
Si Si1 0.143221 0.888940 0.819983
Si Si2 0.415859 0.583459 0.187427
Si Si3 0.296579 0.460688 0.186685
Si Si4 0.126578 0.250000 0.723505
Si Si5 0.586630 0.164852 0.210625
Si Si6 0.000000 0.530264 0.870477
Si Si7 0.616819 0.750000 0.354102
O O1 0.175698 0.840013 0.870906
O O2 0.211866 0.937510 0.787325
O O3 0.106330 0.832179 0.775695
O O4 0.076908 0.942902 0.841860
O O5 0.500000 0.550646 0.204406
O O6 0.344723 0.533162 0.212918
O O7 0.416560 0.672120 0.206037
O O8 0.268236 0.481765 0.125000
O O9 0.354211 0.389921 0.180175
O O10 0.203939 0.250000 0.686939
O O11 0.135161 0.250000 0.789088
O O12 0.500000 0.135623 0.201792
O O13 0.595900 0.250000 0.186115
O O14 0.000000 0.441669 0.860070
O O15 0.574420 0.675581 0.375000
#
# Coordination Sequence:
#
# PCOD8320803 Si02
#       7
#    32  32  32  16  32  16  16
#     4  10  21  41  64  95 124 166 219 278 335 382
#     4  10  21  38  66  94 127 168 221 272 328 393
#     4  10  23  40  60  93 135 173 218 268 329 401
#     4  10  23  43  68  98 128 174 224 280 336 401
#     4  11  23  39  63  94 130 169 217 267 330 395
#     4  10  22  44  72  95 126 175 228 286 337 399
#     4  11  27  44  63  94 136 176 215 270 354 426
#
# _framework density 23.814920000000001
#
# number of rings (size 3 to 8) (size 9 to 14) (size 15 to 20)
#    0.000    1.727    0.909    2.182    2.545   10.182 
#    0.000    6.364    0.000    0.000    0.000    0.000 
#    0.000    0.000    0.000    0.000    0.000    0.000 
#
# Total GULP energy -1090191.654891 kJ/mol
# GULP energy per Si atom -12388.541533 kJ/mol
# Density = 2.376072 g / cm^3
# Si number density = 23.814920 Si / 1000 Ang^3
#
#
#
# Elastic Constant Matrix: (Units=GPa)
#
#
# Indices 1 2 3 4 5 6 
#
# 1 158.5179 69.7309 14.7499 0.0000 0.0000 0.0000
# 2 69.7309 158.5184 14.7520 0.0000 0.0000 0.0000
# 3 14.7499 14.7520 61.5453 0.0000 0.0000 0.0000
# 4 0.0000 0.0000 0.0000 -70.0888 0.0000 0.0000
# 5 0.0000 0.0000 0.0000 0.0000 -69.4232 0.0000
# 6 0.0000 0.0000 0.0000 0.0000 0.0000 31.6977
#
#
#
# Elastic Compliance Matrix: (Units=1/GPa)
#
#
# Indices 1 2 3 4 5 6 
#
# 1 0.007892 -0.003371 -0.001083 0.000000 0.000000 0.000000
# 2 -0.003371 0.007892 -0.001084 0.000000 0.000000 0.000000
# 3 -0.001083 -0.001084 0.016768 0.000000 0.000000 0.000000
# 4 0.000000 0.000000 0.000000 -0.014268 0.000000 0.000000
# 5 0.000000 0.000000 0.000000 0.000000 -0.014404 0.000000
# 6 0.000000 0.000000 0.000000 0.000000 0.000000 0.031548
#
#
# Mechanical properties :
#
#
# Convention : Reuss Voigt Hill
#
# Bulk Modulus (GPa) = 46.56451 64.11637 55.34044
# Shear Modulus (GPa) = 93.17487 -2.93963 45.11762
#
# Velocity S-wave (km/s) = 6.26175 -1.11223 4.35732
# Velocity P-wave (km/s) = 8.47788 5.03307 6.97160
#
# Compressibility (1/GPa) = 0.02147558
#
# Stress axis : x y z
#
# Youngs Moduli (GPa) = 126.70978 126.70940 59.63866
#
# Poissons Ratio (x) = 0.42711 0.06461
# Poissons Ratio (y) = 0.42712 0.06464
# Poissons Ratio (z) = 0.13728 0.13733
#
# Static dielectric constant tensor:
#      x y z
#    x 4.334690 0.000000 0.000000 
#    y 0.000000 4.334690 0.000000 
#    z 0.000000 0.000000 4.411410 
# 
# 
# High freq. dielectric constant tensor:
#      x y z
#    x 1.945170 0.000000 0.000000 
#    y 0.000000 1.945170 0.000000 
#    z 0.000000 0.000000 1.951580 
# 
# From -- ./inp_files/12984.got.cif
#   From: 2010.03.12/outbox.cif.g09.slc.cpg/sg141_7_cif.got.tgz:12984.got - 2010.04.03 13:18:35.
