data_PCOD8320744
_publ_section_title
;
Structure prediction by ZEFSAII (Michael W. Deem and Ramdas Pophale) SiO2 
 PCOD8320744
Probable space group: I 41/A M D
;
_chemical_formula_sum "Si O2"
_cell_formula_units_Z 112
_cell_length_a 17.659579
_cell_length_b 17.659579
_cell_length_c 17.766639
_cell_angle_alpha 90.000000
_cell_angle_beta 90.000000
_cell_angle_gamma 90.000000
_cell_volume 5540.717016
_symmetry_space_group_name_H-M "I 41/A M D"
_symmetry_group_IT_number 141
_space_group.IT_coordinate_system_code '2'
_symmetry_cell_setting 'tetragonal'
loop_
_space_group_symop_operation_xyz
x,y,z
1/4-y,3/4+x,1/4+z
-x,1/2-y,z
1/4+y,1/4-x,3/4+z
x,-y,-z
-x,1/2+y,-z
1/4+y,3/4+x,1/4-z
1/4-y,1/4-x,3/4-z
-x,-y,-z
3/4+y,1/4-x,3/4-z
x,1/2+y,-z
3/4-y,3/4+x,1/4-z
-x,y,z
x,1/2-y,z
3/4-y,1/4-x,3/4+z
3/4+y,3/4+x,1/4+z
1/2+x,1/2+y,1/2+z
3/4-y,1/4+x,3/4+z
1/2-x,-y,1/2+z
3/4+y,3/4-x,1/4+z
1/2+x,1/2-y,1/2-z
1/2-x,y,1/2-z
3/4+y,1/4+x,3/4-z
3/4-y,3/4-x,1/4-z
1/2-x,1/2-y,1/2-z
1/4+y,3/4-x,1/4-z
1/2+x,y,1/2-z
1/4-y,1/4+x,3/4-z
1/2-x,1/2+y,1/2+z
1/2+x,-y,1/2+z
1/4-y,3/4-x,1/4+z
1/4+y,1/4+x,3/4+z
loop_
_atom_site_type_symbol
_atom_site_label
_atom_site_fract_x
_atom_site_fract_y
_atom_site_fract_z
Si Si1 0.913609 0.567674 0.683094
Si Si2 0.163103 0.086898 0.875000
Si Si3 0.144225 0.163205 0.028917
Si Si4 0.184469 0.334963 0.599293
O O1 0.856096 0.606096 0.625000
O O2 0.898831 0.478043 0.688288
O O3 0.896833 0.599913 0.766825
O O4 0.000000 0.584936 0.657745
O O5 0.128497 0.122650 0.799557
O O6 0.252672 0.103875 0.875772
O O7 0.127157 0.250000 0.014668
O O8 0.085995 0.132955 0.091012
O O9 0.220767 0.250000 0.596191
#
# Coordination Sequence:
#
# PCOD8320744 Si02
#       4
#    32  16  32  32
#     4   9  20  38  58  82 116 153 194 239 288 348
#     4  10  20  38  62  81 112 156 195 240 284 346
#     4  10  22  38  57  86 119 152 193 241 292 346
#     4  10  22  39  59  86 117 150 193 242 289 344
#
# _framework density 20.213991
#
# number of rings (size 3 to 8) (size 9 to 14) (size 15 to 20)
#    0.000    2.286    0.000    3.429    2.000    6.571 
#    0.000    5.714    0.000    3.857    0.000    0.000 
#    0.000    0.000    0.000    0.000    0.000    0.000 
#
# Total GULP energy -694265.834220 kJ/mol
# GULP energy per Si atom -12397.604183 kJ/mol
# Density = 2.016798 g / cm^3
# Si number density = 20.213991 Si / 1000 Ang^3
#
#
#
# Elastic Constant Matrix: (Units=GPa)
#
#
# Indices 1 2 3 4 5 6 
#
# 1 52.5175 51.2106 57.1361 0.0000 0.0000 0.0000
# 2 51.2106 52.5192 57.1359 0.0000 0.0000 0.0000
# 3 57.1361 57.1359 159.2468 0.0000 0.0000 0.0000
# 4 0.0000 0.0000 0.0000 26.2466 0.0000 0.0000
# 5 0.0000 0.0000 0.0000 0.0000 26.2465 0.0000
# 6 0.0000 0.0000 0.0000 0.0000 0.0000 24.3899
#
#
#
# Elastic Compliance Matrix: (Units=1/GPa)
#
#
# Indices 1 2 3 4 5 6 
#
# 1 0.390303 -0.374350 -0.005724 0.000000 0.000000 0.000000
# 2 -0.374350 0.390281 -0.005715 0.000000 0.000000 0.000000
# 3 -0.005724 -0.005715 0.010384 0.000000 0.000000 0.000000
# 4 0.000000 0.000000 0.000000 0.038100 0.000000 0.000000
# 5 0.000000 0.000000 0.000000 0.000000 0.038100 0.000000
# 6 0.000000 0.000000 0.000000 0.000000 0.000000 0.041001
#
#
# Mechanical properties :
#
#
# Convention : Reuss Voigt Hill
#
# Bulk Modulus (GPa) = 51.57753 66.13874 58.85814
# Shear Modulus (GPa) = 2.96523 21.96333 12.46428
#
# Velocity S-wave (km/s) = 1.21248 3.29985 2.48587
# Velocity P-wave (km/s) = 5.24703 6.87815 6.11720
#
# Compressibility (1/GPa) = 0.01938829
#
# Stress axis : x y z
#
# Youngs Moduli (GPa) = 2.56211 2.56226 96.30353
#
# Poissons Ratio (x) = 0.95918 0.55124
# Poissons Ratio (y) = 0.95913 0.55040
# Poissons Ratio (z) = 0.01467 0.01464
#
# Static dielectric constant tensor:
#      x y z
#    x 3.482800 0.000000 0.000000 
#    y 0.000000 3.482820 0.000000 
#    z 0.000000 0.000000 3.815560 
# 
# 
# High freq. dielectric constant tensor:
#      x y z
#    x 1.778280 0.000000 0.000000 
#    y 0.000000 1.778280 0.000000 
#    z 0.000000 0.000000 1.805670 
# 
# From -- ./inp_files/7952.got.cif
#   From: 2010.03.12/outbox.cif.g09.slc.cpg/sg141_4_cif.got.tgz:7952.got - 2010.04.03 13:18:35.
