data_PCOD8320666
_publ_section_title
;
Structure prediction by ZEFSAII (Michael W. Deem and Ramdas Pophale) SiO2 
 PCOD8320666
Probable space group: I 41/A M D
;
_chemical_formula_sum "Si O2"
_cell_formula_units_Z 160
_cell_length_a 28.085427
_cell_length_b 28.085427
_cell_length_c 12.101130
_cell_angle_alpha 90.000000
_cell_angle_beta 90.000000
_cell_angle_gamma 90.000000
_cell_volume 9545.264972
_symmetry_space_group_name_H-M "I 41/A M D"
_symmetry_group_IT_number 141
_space_group.IT_coordinate_system_code '2'
_symmetry_cell_setting 'tetragonal'
loop_
_space_group_symop_operation_xyz
x,y,z
1/4-y,3/4+x,1/4+z
-x,1/2-y,z
1/4+y,1/4-x,3/4+z
x,-y,-z
-x,1/2+y,-z
1/4+y,3/4+x,1/4-z
1/4-y,1/4-x,3/4-z
-x,-y,-z
3/4+y,1/4-x,3/4-z
x,1/2+y,-z
3/4-y,3/4+x,1/4-z
-x,y,z
x,1/2-y,z
3/4-y,1/4-x,3/4+z
3/4+y,3/4+x,1/4+z
1/2+x,1/2+y,1/2+z
3/4-y,1/4+x,3/4+z
1/2-x,-y,1/2+z
3/4+y,3/4-x,1/4+z
1/2+x,1/2-y,1/2-z
1/2-x,y,1/2-z
3/4+y,1/4+x,3/4-z
3/4-y,3/4-x,1/4-z
1/2-x,1/2-y,1/2-z
1/4+y,3/4-x,1/4-z
1/2+x,y,1/2-z
1/4-y,1/4+x,3/4-z
1/2-x,1/2+y,1/2+z
1/2+x,-y,1/2+z
1/4-y,3/4-x,1/4+z
1/4+y,1/4+x,3/4+z
loop_
_atom_site_type_symbol
_atom_site_label
_atom_site_fract_x
_atom_site_fract_y
_atom_site_fract_z
Si Si1 0.055397 0.073930 0.653115
Si Si2 0.130004 0.804963 0.135966
Si Si3 0.944396 0.029305 0.303700
Si Si4 0.203737 0.193200 0.688427
Si Si5 0.373253 0.305908 0.187901
O O1 0.065762 0.089625 0.777199
O O2 0.074444 0.113291 0.563825
O O3 0.000000 0.070781 0.624621
O O4 0.077215 0.020063 0.646028
O O5 0.079376 0.829376 0.125000
O O6 0.118752 0.750000 0.149397
O O7 0.157818 0.825170 0.243307
O O8 0.922194 0.044708 0.185366
O O9 0.934216 0.072103 0.385182
O O10 0.000000 0.020084 0.283880
O O11 0.202714 0.250000 0.689699
O O12 0.250000 0.173659 0.750000
O O13 0.387977 0.250000 0.180128
O O14 0.414139 0.335862 0.125000
#
# Coordination Sequence:
#
# PCOD8320666 Si02
#       5
#    32  32  32  32  32
#     4   9  17  32  49  67  90 120 159 208 254 280
#     4  10  20  31  46  68 100 135 164 194 231 285
#     4   9  16  29  50  69  89 117 154 204 255 289
#     4   9  15  27  47  70  91 116 152 198 250 287
#     4  10  21  33  47  68  96 130 166 197 232 285
#
# _framework density 16.762238
#
# number of rings (size 3 to 8) (size 9 to 14) (size 15 to 20)
#    0.000    2.600    2.000    0.600    2.800    2.800 
#    0.000    0.000    0.000    3.600    0.000    0.000 
#    0.000   11.200    0.000    0.000    0.000    0.000 
#
# Total GULP energy -991077.300983 kJ/mol
# GULP energy per Si atom -12388.466262 kJ/mol
# Density = 1.672409 g / cm^3
# Si number density = 16.762238 Si / 1000 Ang^3
#
#
#
# Elastic Constant Matrix: (Units=GPa)
#
#
# Indices 1 2 3 4 5 6 
#
# 1 51.3376 45.5336 23.8626 0.0000 0.0000 0.0000
# 2 45.5336 51.3381 23.8619 0.0000 0.0000 0.0000
# 3 23.8626 23.8619 89.7873 0.0000 0.0000 0.0000
# 4 0.0000 0.0000 0.0000 19.0432 0.0000 0.0000
# 5 0.0000 0.0000 0.0000 0.0000 19.0442 0.0000
# 6 0.0000 0.0000 0.0000 0.0000 0.0000 2.3800
#
#
#
# Elastic Compliance Matrix: (Units=1/GPa)
#
#
# Indices 1 2 3 4 5 6 
#
# 1 0.092084 -0.080205 -0.003158 0.000000 0.000000 0.000000
# 2 -0.080205 0.092082 -0.003156 0.000000 0.000000 0.000000
# 3 -0.003158 -0.003156 0.012815 0.000000 0.000000 0.000000
# 4 0.000000 0.000000 0.000000 0.052512 0.000000 0.000000
# 5 0.000000 0.000000 0.000000 0.000000 0.052509 0.000000
# 6 0.000000 0.000000 0.000000 0.000000 0.000000 0.420171
#
#
# Mechanical properties :
#
#
# Convention : Reuss Voigt Hill
#
# Bulk Modulus (GPa) = 41.76318 42.10881 41.93600
# Shear Modulus (GPa) = 5.53592 14.70713 10.12152
#
# Velocity S-wave (km/s) = 1.81928 2.96530 2.45996
# Velocity P-wave (km/s) = 5.42053 6.07452 5.75682
#
# Compressibility (1/GPa) = 0.02394453
#
# Stress axis : x y z
#
# Youngs Moduli (GPa) = 10.85965 10.85986 78.03139
#
# Poissons Ratio (x) = 0.87101 0.24640
# Poissons Ratio (y) = 0.87100 0.24626
# Poissons Ratio (z) = 0.03429 0.03427
#
# Static dielectric constant tensor:
#      x y z
#    x 2.912590 0.000000 0.000000 
#    y 0.000000 2.912600 0.000000 
#    z 0.000000 0.000000 3.623260 
# 
# 
# High freq. dielectric constant tensor:
#      x y z
#    x 1.606670 0.000000 0.000000 
#    y 0.000000 1.606670 0.000000 
#    z 0.000000 0.000000 1.672500 
# 
# From -- ./inp_files/4852.got.cif
#   From: 2010.03.12/outbox.cif.g09.slc.cpg/sg141_3_cif.got.tgz:4852.got - 2010.04.03 13:18:35.
