data_PCOD8320574
_publ_section_title
;
Structure prediction by ZEFSAII (Michael W. Deem and Ramdas Pophale) SiO2 
 PCOD8320574
Probable space group: I 41/A M D
;
_chemical_formula_sum "Si O2"
_cell_formula_units_Z 160
_cell_length_a 17.539629
_cell_length_b 17.539629
_cell_length_c 26.449291
_cell_angle_alpha 90.000000
_cell_angle_beta 90.000000
_cell_angle_gamma 90.000000
_cell_volume 8136.822470
_symmetry_space_group_name_H-M "I 41/A M D"
_symmetry_group_IT_number 141
_space_group.IT_coordinate_system_code '2'
_symmetry_cell_setting 'tetragonal'
loop_
_space_group_symop_operation_xyz
x,y,z
1/4-y,3/4+x,1/4+z
-x,1/2-y,z
1/4+y,1/4-x,3/4+z
x,-y,-z
-x,1/2+y,-z
1/4+y,3/4+x,1/4-z
1/4-y,1/4-x,3/4-z
-x,-y,-z
3/4+y,1/4-x,3/4-z
x,1/2+y,-z
3/4-y,3/4+x,1/4-z
-x,y,z
x,1/2-y,z
3/4-y,1/4-x,3/4+z
3/4+y,3/4+x,1/4+z
1/2+x,1/2+y,1/2+z
3/4-y,1/4+x,3/4+z
1/2-x,-y,1/2+z
3/4+y,3/4-x,1/4+z
1/2+x,1/2-y,1/2-z
1/2-x,y,1/2-z
3/4+y,1/4+x,3/4-z
3/4-y,3/4-x,1/4-z
1/2-x,1/2-y,1/2-z
1/4+y,3/4-x,1/4-z
1/2+x,y,1/2-z
1/4-y,1/4+x,3/4-z
1/2-x,1/2+y,1/2+z
1/2+x,-y,1/2+z
1/4-y,3/4-x,1/4+z
1/4+y,1/4+x,3/4+z
loop_
_atom_site_type_symbol
_atom_site_label
_atom_site_fract_x
_atom_site_fract_y
_atom_site_fract_z
Si Si1 0.588720 0.044451 0.145606
Si Si2 0.410318 0.107497 0.676802
Si Si3 0.000000 0.840343 0.896386
Si Si4 0.089396 0.395039 0.583287
Si Si5 0.500000 0.159607 0.508394
Si Si6 0.088779 0.456550 0.238707
O O1 0.500000 0.063410 0.140667
O O2 0.632522 0.117479 0.125000
O O3 0.611050 0.026466 0.203473
O O4 0.611077 0.971687 0.112345
O O5 0.362690 0.112690 0.625000
O O6 0.500000 0.116189 0.664771
O O7 0.381426 0.174991 0.712914
O O8 0.390996 0.029165 0.704622
O O9 0.924897 0.868570 0.867604
O O10 0.000000 0.750000 0.899838
O O11 0.000000 0.876518 0.952308
O O12 0.135218 0.389308 0.530617
O O13 0.000000 0.390141 0.570925
O O14 0.500000 0.250000 0.503820
O O15 0.000000 0.435433 0.234594
#
# Coordination Sequence:
#
# PCOD8320574 Si02
#       6
#    32  32  16  32  16  32
#     4  10  23  42  62  87 118 151 192 240 296 359
#     4  10  18  30  51  81 120 157 200 237 276 333
#     4   9  16  30  55  87 113 144 193 242 290 329
#     4  10  20  37  62  88 115 147 195 245 287 354
#     4   9  16  26  49  79 113 155 196 242 273 326
#     4  10  21  37  58  86 118 154 190 240 301 342
#
# _framework density 19.663695000000001
#
# number of rings (size 3 to 8) (size 9 to 14) (size 15 to 20)
#    0.000    2.200    2.000    1.200    0.000    7.400 
#    0.000    4.000    0.000    4.800    0.000    0.000 
#    0.000    0.000    0.000    0.000    0.000    0.000 
#
# Total GULP energy -992181.670456 kJ/mol
# GULP energy per Si atom -12402.270881 kJ/mol
# Density = 1.961894 g / cm^3
# Si number density = 19.663695 Si / 1000 Ang^3
#
#
#
# Elastic Constant Matrix: (Units=GPa)
#
#
# Indices 1 2 3 4 5 6 
#
# 1 79.5115 41.7520 42.1500 0.0000 0.0000 0.0000
# 2 41.7520 79.5049 42.1508 0.0000 0.0000 0.0000
# 3 42.1500 42.1508 86.5605 0.0000 0.0000 0.0000
# 4 0.0000 0.0000 0.0000 28.4315 0.0000 0.0000
# 5 0.0000 0.0000 0.0000 0.0000 28.4316 0.0000
# 6 0.0000 0.0000 0.0000 0.0000 0.0000 24.1988
#
#
#
# Elastic Compliance Matrix: (Units=1/GPa)
#
#
# Indices 1 2 3 4 5 6 
#
# 1 0.019475 -0.007009 -0.006070 0.000000 0.000000 0.000000
# 2 -0.007009 0.019478 -0.006072 0.000000 0.000000 0.000000
# 3 -0.006070 -0.006072 0.017465 0.000000 0.000000 0.000000
# 4 0.000000 0.000000 0.000000 0.035172 0.000000 0.000000
# 5 0.000000 0.000000 0.000000 0.000000 0.035172 0.000000
# 6 0.000000 0.000000 0.000000 0.000000 0.000000 0.041324
#
#
# Mechanical properties :
#
#
# Convention : Reuss Voigt Hill
#
# Bulk Modulus (GPa) = 55.19997 55.29806 55.24901
# Shear Modulus (GPa) = 23.53745 24.18065 23.85905
#
# Velocity S-wave (km/s) = 3.46352 3.51053 3.48710
# Velocity P-wave (km/s) = 6.64286 6.67942 6.66117
#
# Compressibility (1/GPa) = 0.01811595
#
# Stress axis : x y z
#
# Youngs Moduli (GPa) = 51.34718 51.34073 57.25729
#
# Poissons Ratio (x) = 0.35986 0.34756
# Poissons Ratio (y) = 0.35990 0.34764
# Poissons Ratio (z) = 0.31169 0.31172
#
# Static dielectric constant tensor:
#      x y z
#    x 3.378470 0.000000 0.000000 
#    y 0.000000 3.378470 0.000000 
#    z 0.000000 0.000000 3.751760 
# 
# 
# High freq. dielectric constant tensor:
#      x y z
#    x 1.750730 0.000000 0.000000 
#    y 0.000000 1.750730 0.000000 
#    z 0.000000 0.000000 1.777280 
# 
# From -- ./inp_files/12774.got.cif
#   From: 2010.03.12/outbox.cif.g09.slc.cpg/sg141_7_cif.got.tgz:12774.got - 2010.04.03 13:18:35.
