data_PCOD8320945
_publ_section_title
;
Structure prediction by ZEFSAII (Michael W. Deem and Ramdas Pophale) SiO2 
 PCOD8320945
Probable space group: I 41/A M D
;
_chemical_formula_sum "Si O2"
_cell_formula_units_Z 160
_cell_length_a 19.324146
_cell_length_b 19.324146
_cell_length_c 20.714519
_cell_angle_alpha 90.000000
_cell_angle_beta 90.000000
_cell_angle_gamma 90.000000
_cell_volume 7735.269929
_symmetry_space_group_name_H-M "I 41/A M D"
_symmetry_group_IT_number 141
_space_group.IT_coordinate_system_code '2'
_symmetry_cell_setting 'tetragonal'
loop_
_space_group_symop_operation_xyz
x,y,z
1/4-y,3/4+x,1/4+z
-x,1/2-y,z
1/4+y,1/4-x,3/4+z
x,-y,-z
-x,1/2+y,-z
1/4+y,3/4+x,1/4-z
1/4-y,1/4-x,3/4-z
-x,-y,-z
3/4+y,1/4-x,3/4-z
x,1/2+y,-z
3/4-y,3/4+x,1/4-z
-x,y,z
x,1/2-y,z
3/4-y,1/4-x,3/4+z
3/4+y,3/4+x,1/4+z
1/2+x,1/2+y,1/2+z
3/4-y,1/4+x,3/4+z
1/2-x,-y,1/2+z
3/4+y,3/4-x,1/4+z
1/2+x,1/2-y,1/2-z
1/2-x,y,1/2-z
3/4+y,1/4+x,3/4-z
3/4-y,3/4-x,1/4-z
1/2-x,1/2-y,1/2-z
1/4+y,3/4-x,1/4-z
1/2+x,y,1/2-z
1/4-y,1/4+x,3/4-z
1/2-x,1/2+y,1/2+z
1/2+x,-y,1/2+z
1/4-y,3/4-x,1/4+z
1/4+y,1/4+x,3/4+z
loop_
_atom_site_type_symbol
_atom_site_label
_atom_site_fract_x
_atom_site_fract_y
_atom_site_fract_z
Si Si1 0.308992 0.670259 0.945720
Si Si2 0.422058 0.327946 0.757164
Si Si3 0.919447 0.536939 0.191194
Si Si4 0.217902 0.169844 0.685117
Si Si5 0.307958 0.170324 0.200417
O O1 0.327671 0.750000 0.958256
O O2 0.281178 0.659303 0.872885
O O3 0.378636 0.628495 0.960709
O O4 0.249294 0.642137 0.993402
O O5 0.500000 0.341185 0.784679
O O6 0.415294 0.250000 0.728972
O O7 0.405591 0.380571 0.698156
O O8 0.365875 0.339114 0.814360
O O9 0.883556 0.502944 0.127667
O O10 0.000000 0.521143 0.185850
O O11 0.238943 0.250000 0.684801
O O12 0.250000 0.135523 0.750000
O O13 0.325522 0.250000 0.214652
O O14 0.250000 0.142962 0.250000
#
# Coordination Sequence:
#
# PCOD8320945 Si02
#       5
#    32  32  32  32  32
#     4   9  18  33  53  77 107 144 181 219 271 331
#     4   9  18  34  57  83 108 140 189 240 277 323
#     4   9  18  33  52  76 109 145 178 220 277 330
#     4   9  18  33  51  73 106 143 175 216 275 331
#     4   9  18  33  54  80 109 141 179 224 272 324
#
# _framework density 20.684476
#
# number of rings (size 3 to 8) (size 9 to 14) (size 15 to 20)
#    0.000    3.000    0.000    0.000    0.000    2.800 
#    0.000    9.000    0.000   12.000    0.000    0.000 
#    0.000    0.000    0.000    0.000    0.000    0.000 
#
# Total GULP energy -991357.945821 kJ/mol
# GULP energy per Si atom -12391.974323 kJ/mol
# Density = 2.063740 g / cm^3
# Si number density = 20.684476 Si / 1000 Ang^3
#
#
#
# Elastic Constant Matrix: (Units=GPa)
#
#
# Indices 1 2 3 4 5 6 
#
# 1 99.4424 43.2350 62.9415 0.0000 0.0000 0.0000
# 2 43.2350 99.4424 62.9415 0.0000 0.0000 0.0000
# 3 62.9415 62.9415 148.9637 0.0000 0.0000 0.0000
# 4 0.0000 0.0000 0.0000 23.4394 0.0000 0.0000
# 5 0.0000 0.0000 0.0000 0.0000 23.4394 0.0000
# 6 0.0000 0.0000 0.0000 0.0000 0.0000 14.1524
#
#
#
# Elastic Compliance Matrix: (Units=1/GPa)
#
#
# Indices 1 2 3 4 5 6 
#
# 1 0.014483 -0.003308 -0.004722 0.000000 0.000000 0.000000
# 2 -0.003308 0.014483 -0.004722 0.000000 0.000000 0.000000
# 3 -0.004722 -0.004722 0.010703 0.000000 0.000000 0.000000
# 4 0.000000 0.000000 0.000000 0.042663 0.000000 0.000000
# 5 0.000000 0.000000 0.000000 0.000000 0.042663 0.000000
# 6 0.000000 0.000000 0.000000 0.000000 0.000000 0.070659
#
#
# Mechanical properties :
#
#
# Convention : Reuss Voigt Hill
#
# Bulk Modulus (GPa) = 70.59191 76.23161 73.41176
# Shear Modulus (GPa) = 22.13566 24.12160 23.12863
#
# Velocity S-wave (km/s) = 3.27488 3.41863 3.34752
# Velocity P-wave (km/s) = 6.96432 7.24687 7.10700
#
# Compressibility (1/GPa) = 0.01416593
#
# Stress axis : x y z
#
# Youngs Moduli (GPa) = 69.04667 69.04667 93.43097
#
# Poissons Ratio (x) = 0.22843 0.44115
# Poissons Ratio (y) = 0.22843 0.44115
# Poissons Ratio (z) = 0.32601 0.32601
#
# Static dielectric constant tensor:
#      x y z
#    x 3.628700 0.000000 0.000000 
#    y 0.000000 3.628700 0.000000 
#    z 0.000000 0.000000 3.978970 
# 
# 
# High freq. dielectric constant tensor:
#      x y z
#    x 1.794630 0.000000 0.000000 
#    y 0.000000 1.794630 0.000000 
#    z 0.000000 0.000000 1.798550 
# 
# From -- ./inp_files/8556.got.cif
#   From: 2010.03.12/outbox.cif.g09.slc.cpg/sg141_5_cif.got.tgz:8556.got - 2010.04.03 13:18:35.
