data_PCOD8320597
_publ_section_title
;
Structure prediction by ZEFSAII (Michael W. Deem and Ramdas Pophale) SiO2 
 PCOD8320597
Probable space group: I 41/A M D
;
_chemical_formula_sum "Si O2"
_cell_formula_units_Z 160
_cell_length_a 28.109430
_cell_length_b 28.109430
_cell_length_c 12.400254
_cell_angle_alpha 90.000000
_cell_angle_beta 90.000000
_cell_angle_gamma 90.000000
_cell_volume 9797.937377
_symmetry_space_group_name_H-M "I 41/A M D"
_symmetry_group_IT_number 141
_space_group.IT_coordinate_system_code '2'
_symmetry_cell_setting 'tetragonal'
loop_
_space_group_symop_operation_xyz
x,y,z
1/4-y,3/4+x,1/4+z
-x,1/2-y,z
1/4+y,1/4-x,3/4+z
x,-y,-z
-x,1/2+y,-z
1/4+y,3/4+x,1/4-z
1/4-y,1/4-x,3/4-z
-x,-y,-z
3/4+y,1/4-x,3/4-z
x,1/2+y,-z
3/4-y,3/4+x,1/4-z
-x,y,z
x,1/2-y,z
3/4-y,1/4-x,3/4+z
3/4+y,3/4+x,1/4+z
1/2+x,1/2+y,1/2+z
3/4-y,1/4+x,3/4+z
1/2-x,-y,1/2+z
3/4+y,3/4-x,1/4+z
1/2+x,1/2-y,1/2-z
1/2-x,y,1/2-z
3/4+y,1/4+x,3/4-z
3/4-y,3/4-x,1/4-z
1/2-x,1/2-y,1/2-z
1/4+y,3/4-x,1/4-z
1/2+x,y,1/2-z
1/4-y,1/4+x,3/4-z
1/2-x,1/2+y,1/2+z
1/2+x,-y,1/2+z
1/4-y,3/4-x,1/4+z
1/4+y,1/4+x,3/4+z
loop_
_atom_site_type_symbol
_atom_site_label
_atom_site_fract_x
_atom_site_fract_y
_atom_site_fract_z
Si Si1 0.053921 0.934099 0.157518
Si Si2 0.799359 0.806650 0.702415
Si Si3 0.944129 0.535564 0.786042
Si Si4 0.444370 0.381948 0.450256
Si Si5 0.445932 0.123611 0.873922
O O1 0.056289 0.911996 0.274612
O O2 0.000000 0.941455 0.116939
O O3 0.078570 0.986150 0.168634
O O4 0.076615 0.899218 0.066516
O O5 0.799702 0.750000 0.709285
O O6 0.750000 0.826649 0.750000
O O7 0.802189 0.826122 0.580076
O O8 0.844947 0.824476 0.772062
O O9 0.931778 0.575989 0.869664
O O10 0.000000 0.526662 0.771357
O O11 0.500000 0.369520 0.455147
O O12 0.419502 0.334939 0.404924
O O13 0.500000 0.141115 0.893787
#
# Coordination Sequence:
#
# PCOD8320597 Si02
#       5
#    32  32  32  32  32
#     4   9  16  29  47  65  87 118 156 201 244 272
#     4   9  15  27  47  67  84 110 151 198 243 274
#     4   9  16  28  47  67  88 113 148 199 251 281
#     4  10  20  30  42  66  99 130 157 185 225 280
#     4  10  19  30  46  66  92 128 164 192 221 269
#
# _framework density 16.329968000000001
#
# number of rings (size 3 to 8) (size 9 to 14) (size 15 to 20)
#    0.000    2.600    2.000    1.200    0.000    3.600 
#    0.000    0.000    0.000    3.600    0.000    5.600 
#    0.000    9.600    0.000    0.000    0.000    0.000 
#
# Total GULP energy -991365.118981 kJ/mol
# GULP energy per Si atom -12392.063987 kJ/mol
# Density = 1.629280 g / cm^3
# Si number density = 16.329968 Si / 1000 Ang^3
#
#
#
# Elastic Constant Matrix: (Units=GPa)
#
#
# Indices 1 2 3 4 5 6 
#
# 1 62.2855 38.8258 26.4796 0.0000 0.0000 0.0000
# 2 38.8258 62.2855 26.4796 0.0000 0.0000 0.0000
# 3 26.4796 26.4796 86.7196 0.0000 0.0000 0.0000
# 4 0.0000 0.0000 0.0000 20.1902 0.0000 0.0000
# 5 0.0000 0.0000 0.0000 0.0000 20.1902 0.0000
# 6 0.0000 0.0000 0.0000 0.0000 0.0000 1.5839
#
#
#
# Elastic Compliance Matrix: (Units=1/GPa)
#
#
# Indices 1 2 3 4 5 6 
#
# 1 0.027200 -0.015427 -0.003595 0.000000 0.000000 0.000000
# 2 -0.015427 0.027200 -0.003595 0.000000 0.000000 0.000000
# 3 -0.003595 -0.003595 0.013727 0.000000 0.000000 0.000000
# 4 0.000000 0.000000 0.000000 0.049529 0.000000 0.000000
# 5 0.000000 0.000000 0.000000 0.000000 0.049529 0.000000
# 6 0.000000 0.000000 0.000000 0.000000 0.000000 0.631370
#
#
# Mechanical properties :
#
#
# Convention : Reuss Voigt Hill
#
# Bulk Modulus (GPa) = 43.68083 43.87338 43.77711
# Shear Modulus (GPa) = 5.87256 16.35990 11.11623
#
# Velocity S-wave (km/s) = 1.89842 3.16861 2.61190
# Velocity P-wave (km/s) = 5.62248 6.34916 5.99684
#
# Compressibility (1/GPa) = 0.02289334
#
# Stress axis : x y z
#
# Youngs Moduli (GPa) = 36.76529 36.76529 72.85041
#
# Poissons Ratio (x) = 0.56716 0.26189
# Poissons Ratio (y) = 0.56716 0.26189
# Poissons Ratio (z) = 0.13217 0.13217
#
# Static dielectric constant tensor:
#      x y z
#    x 2.860620 0.000000 0.000000 
#    y 0.000000 2.860620 0.000000 
#    z 0.000000 0.000000 3.380690 
# 
# 
# High freq. dielectric constant tensor:
#      x y z
#    x 1.590120 0.000000 0.000000 
#    y 0.000000 1.590120 0.000000 
#    z 0.000000 0.000000 1.652510 
# 
# From -- ./inp_files/4844.got.cif
#   From: 2010.03.12/outbox.cif.g09.slc.cpg/sg141_3_cif.got.tgz:4844.got - 2010.04.03 13:18:35.
