data_PCOD8320872
_publ_section_title
;
Structure prediction by ZEFSAII (Michael W. Deem and Ramdas Pophale) SiO2 
 PCOD8320872
Probable space group: I 41/A M D
;
_chemical_formula_sum "Si O2"
_cell_formula_units_Z 192
_cell_length_a 16.800694
_cell_length_b 16.800694
_cell_length_c 32.150294
_cell_angle_alpha 90.000000
_cell_angle_beta 90.000000
_cell_angle_gamma 90.000000
_cell_volume 9074.848687
_symmetry_space_group_name_H-M "I 41/A M D"
_symmetry_group_IT_number 141
_space_group.IT_coordinate_system_code '2'
_symmetry_cell_setting 'tetragonal'
loop_
_space_group_symop_operation_xyz
x,y,z
1/4-y,3/4+x,1/4+z
-x,1/2-y,z
1/4+y,1/4-x,3/4+z
x,-y,-z
-x,1/2+y,-z
1/4+y,3/4+x,1/4-z
1/4-y,1/4-x,3/4-z
-x,-y,-z
3/4+y,1/4-x,3/4-z
x,1/2+y,-z
3/4-y,3/4+x,1/4-z
-x,y,z
x,1/2-y,z
3/4-y,1/4-x,3/4+z
3/4+y,3/4+x,1/4+z
1/2+x,1/2+y,1/2+z
3/4-y,1/4+x,3/4+z
1/2-x,-y,1/2+z
3/4+y,3/4-x,1/4+z
1/2+x,1/2-y,1/2-z
1/2-x,y,1/2-z
3/4+y,1/4+x,3/4-z
3/4-y,3/4-x,1/4-z
1/2-x,1/2-y,1/2-z
1/4+y,3/4-x,1/4-z
1/2+x,y,1/2-z
1/4-y,1/4+x,3/4-z
1/2-x,1/2+y,1/2+z
1/2+x,-y,1/2+z
1/4-y,3/4-x,1/4+z
1/4+y,1/4+x,3/4+z
loop_
_atom_site_type_symbol
_atom_site_label
_atom_site_fract_x
_atom_site_fract_y
_atom_site_fract_z
Si Si1 0.828603 0.066114 0.923738
Si Si2 0.834081 0.470813 0.331007
Si Si3 0.680326 0.341248 0.935766
Si Si4 0.321394 0.250000 0.717778
Si Si5 0.363816 0.660805 0.606197
Si Si6 0.000000 0.841781 0.952013
Si Si7 0.658732 0.159451 0.237851
O O1 0.833663 0.083663 0.875000
O O2 0.771760 0.133285 0.944791
O O3 0.919154 0.069725 0.940715
O O4 0.782284 0.984433 0.934502
O O5 0.816077 0.433924 0.375000
O O6 0.912197 0.526133 0.335779
O O7 0.853867 0.398387 0.300882
O O8 0.677092 0.250000 0.923396
O O9 0.646787 0.390030 0.896257
O O10 0.623356 0.355759 0.974719
O O11 0.250000 0.250000 0.750000
O O12 0.397182 0.250000 0.748299
O O13 0.387794 0.750000 0.619960
O O14 0.423230 0.622792 0.571827
O O15 0.000000 0.750000 0.943341
O O16 0.632077 0.250000 0.227097
O O17 0.750000 0.157960 0.250000
#
# Coordination Sequence:
#
# PCOD8320872 Si02
#       7
#    32  32  32  16  32  16  32
#     4  11  25  45  68 100 134 180 237 287 346 425
#     4  11  22  41  67  97 135 175 229 276 333 420
#     4  12  25  42  72 100 134 177 230 293 348 410
#     4  12  28  42  74  98 142 184 234 294 362 420
#     4  11  22  40  68  98 136 175 225 284 349 408
#     4  10  24  42  64  98 136 174 224 286 346 414
#     4  11  24  42  67 100 138 176 222 278 346 412
#
# _framework density 21.157375999999999
#
# number of rings (size 3 to 8) (size 9 to 14) (size 15 to 20)
#    0.000    0.833    5.833    1.500    5.833    4.333 
#    0.000    0.000    0.000    0.000    0.000    1.167 
#    0.000    0.000    0.000    0.000    0.000    0.000 
#
# Total GULP energy -1189893.393213 kJ/mol
# GULP energy per Si atom -12394.722846 kJ/mol
# Density = 2.110922 g / cm^3
# Si number density = 21.157376 Si / 1000 Ang^3
#
#
#
# Elastic Constant Matrix: (Units=GPa)
#
#
# Indices 1 2 3 4 5 6 
#
# 1 138.2208 27.9121 56.0919 0.0000 0.0000 0.0000
# 2 27.9121 138.2217 56.0920 0.0000 0.0000 0.0000
# 3 56.0919 56.0920 116.2885 0.0000 0.0000 0.0000
# 4 0.0000 0.0000 0.0000 -40.6855 0.0000 0.0000
# 5 0.0000 0.0000 0.0000 0.0000 -42.3065 0.0000
# 6 0.0000 0.0000 0.0000 0.0000 0.0000 28.1748
#
#
#
# Elastic Compliance Matrix: (Units=1/GPa)
#
#
# Indices 1 2 3 4 5 6 
#
# 1 0.008996 -0.000069 -0.004306 0.000000 0.000000 0.000000
# 2 -0.000069 0.008996 -0.004306 0.000000 0.000000 0.000000
# 3 -0.004306 -0.004306 0.012753 0.000000 0.000000 0.000000
# 4 0.000000 0.000000 0.000000 -0.024579 0.000000 0.000000
# 5 0.000000 0.000000 0.000000 0.000000 -0.023637 0.000000
# 6 0.000000 0.000000 0.000000 0.000000 0.000000 0.035493
#
#
# Mechanical properties :
#
#
# Convention : Reuss Voigt Hill
#
# Bulk Modulus (GPa) = 74.71948 74.76922 74.74435
# Shear Modulus (GPa) = 125.48407 5.87890 65.68149
#
# Velocity S-wave (km/s) = 7.70964 1.66874 5.57778
# Velocity P-wave (km/s) = 10.70720 6.25533 8.76851
#
# Compressibility (1/GPa) = 0.01338339
#
# Stress axis : x y z
#
# Youngs Moduli (GPa) = 111.15824 111.15894 78.41155
#
# Poissons Ratio (x) = 0.00770 0.33763
# Poissons Ratio (y) = 0.00770 0.33763
# Poissons Ratio (z) = 0.47864 0.47864
#
# Static dielectric constant tensor:
#      x y z
#    x 4.069960 0.000000 0.000000 
#    y 0.000000 4.069950 0.000000 
#    z 0.000000 0.000000 3.175160 
# 
# 
# High freq. dielectric constant tensor:
#      x y z
#    x 1.832390 0.000000 0.000000 
#    y 0.000000 1.832390 0.000000 
#    z 0.000000 0.000000 1.825840 
# 
# From -- ./inp_files/14467.got.cif
#   From: 2010.03.12/outbox.cif.g09.slc.cpg/sg141_8_cif.got.tgz:14467.got - 2010.04.03 13:18:35.
