data_PCOD8320158
_publ_section_title
;
Structure prediction by ZEFSAII (Michael W. Deem and Ramdas Pophale) SiO2 
 PCOD8320158
Probable space group: I 4/M C M
;
_chemical_formula_sum "Si O2"
_cell_formula_units_Z 192
_cell_length_a 20.132165
_cell_length_b 20.132165
_cell_length_c 25.799739
_cell_angle_alpha 90.000000
_cell_angle_beta 90.000000
_cell_angle_gamma 90.000000
_cell_volume 10456.739159
_symmetry_space_group_name_H-M "I 4/M C M"
_symmetry_group_IT_number 140
_symmetry_cell_setting 'tetragonal'
loop_
_space_group_symop_operation_xyz
x,y,z
-y,x,z
-x,-y,z
y,-x,z
x,-y,1/2-z
-x,y,1/2-z
y,x,1/2-z
-y,-x,1/2-z
-x,-y,-z
y,-x,-z
x,y,-z
-y,x,-z
-x,y,1/2+z
x,-y,1/2+z
-y,-x,1/2+z
y,x,1/2+z
1/2+x,1/2+y,1/2+z
1/2-y,1/2+x,1/2+z
1/2-x,1/2-y,1/2+z
1/2+y,1/2-x,1/2+z
1/2+x,1/2-y,-z
1/2-x,1/2+y,-z
1/2+y,1/2+x,-z
1/2-y,1/2-x,-z
1/2-x,1/2-y,1/2-z
1/2+y,1/2-x,1/2-z
1/2+x,1/2+y,1/2-z
1/2-y,1/2+x,1/2-z
1/2-x,1/2+y,z
1/2+x,1/2-y,z
1/2-y,1/2-x,z
1/2+y,1/2+x,z
loop_
_atom_site_type_symbol
_atom_site_label
_atom_site_fract_x
_atom_site_fract_y
_atom_site_fract_z
Si Si1 0.584375 0.672967 0.057629
Si Si2 0.357811 0.751809 0.155471
Si Si3 0.248625 0.143565 0.150511
Si Si4 0.667417 0.446798 0.405995
Si Si5 0.077210 0.311923 0.745531
Si Si6 0.609219 0.503908 0.805732
O O1 0.609042 0.729844 0.096450
O O2 0.605925 0.599617 0.077334
O O3 0.504168 0.677178 0.051686
O O4 0.613916 0.685281 0.000000
O O5 0.314196 0.814196 0.137552
O O6 0.311802 0.689192 0.171414
O O7 0.401692 0.732391 0.104959
O O8 0.402417 0.768626 0.204792
O O9 0.312456 0.187545 0.138025
O O10 0.266684 0.089919 0.194667
O O11 0.659066 0.489705 0.353020
O O12 0.120642 0.379359 0.743034
O O13 0.000000 0.331697 0.750000
O O14 0.562836 0.567787 0.809922
O O15 0.647004 0.500000 0.750000
#
# Coordination Sequence:
#
# PCOD8320158 Si02
#       6
#    32  32  32  32  32  32
#     4  11  23  35  50  72  99 135 177 219 255 299
#     4   9  19  34  53  76 103 132 166 207 249 302
#     4   9  19  36  55  74  99 133 172 213 253 293
#     4  11  20  34  51  71 102 135 171 205 260 308
#     4  10  19  33  53  79 108 135 162 196 247 309
#     4   9  17  30  45  67 100 132 163 199 239 290
#
# _framework density 18.361366
#
# number of rings (size 3 to 8) (size 9 to 14) (size 15 to 20)
#    0.000    2.167    1.667    2.500    0.000    4.833 
#    3.000    0.833    0.000    1.500    0.000    0.000 
#    0.000    0.000    0.000   14.333    0.000    0.000 
#
# Total GULP energy -1189878.226588 kJ/mol
# GULP energy per Si atom -12394.564860 kJ/mol
# Density = 1.831957 g / cm^3
# Si number density = 18.361366 Si / 1000 Ang^3
#
#
#
# Elastic Constant Matrix: (Units=GPa)
#
#
# Indices 1 2 3 4 5 6 
#
# 1 85.7513 33.3845 39.5508 0.0000 0.0000 0.0000
# 2 33.3845 85.7513 39.5508 0.0000 0.0000 0.0000
# 3 39.5508 39.5508 103.7313 0.0000 0.0000 0.0000
# 4 0.0000 0.0000 0.0000 20.2967 0.0000 0.0000
# 5 0.0000 0.0000 0.0000 0.0000 20.2967 0.0000
# 6 0.0000 0.0000 0.0000 0.0000 0.0000 18.0355
#
#
#
# Elastic Compliance Matrix: (Units=1/GPa)
#
#
# Indices 1 2 3 4 5 6 
#
# 1 0.015168 -0.003929 -0.004285 0.000000 0.000000 0.000000
# 2 -0.003929 0.015168 -0.004285 0.000000 0.000000 0.000000
# 3 -0.004285 -0.004285 0.012908 0.000000 0.000000 0.000000
# 4 0.000000 0.000000 0.000000 0.049269 0.000000 0.000000
# 5 0.000000 0.000000 0.000000 0.000000 0.049269 0.000000
# 6 0.000000 0.000000 0.000000 0.000000 0.000000 0.055446
#
#
# Mechanical properties :
#
#
# Convention : Reuss Voigt Hill
#
# Bulk Modulus (GPa) = 54.80906 55.57847 55.19377
# Shear Modulus (GPa) = 21.90030 22.57561 22.23795
#
# Velocity S-wave (km/s) = 3.45735 3.51025 3.48390
# Velocity P-wave (km/s) = 6.77146 6.83843 6.80503
#
# Compressibility (1/GPa) = 0.01824516
#
# Stress axis : x y z
#
# Youngs Moduli (GPa) = 65.93031 65.93031 77.47100
#
# Poissons Ratio (x) = 0.25901 0.33198
# Poissons Ratio (y) = 0.25901 0.33198
# Poissons Ratio (z) = 0.28253 0.28253
#
# Static dielectric constant tensor:
#      x y z
#    x 3.352230 0.000000 0.000000 
#    y 0.000000 3.352230 0.000000 
#    z 0.000000 0.000000 3.402570 
# 
# 
# High freq. dielectric constant tensor:
#      x y z
#    x 1.700920 0.000000 0.000000 
#    y 0.000000 1.700920 0.000000 
#    z 0.000000 0.000000 1.704060 
# 
# From -- ./inp_files/9810.got.cif
#   From: 2010.06.25/outbox.cif.g09.slc.cpg/sg140_5_cif.got.tgz:9810.got - 2010.06.28 10:53:23.
