data_PCOD8320503
_publ_section_title
;
Structure prediction by ZEFSAII (Michael W. Deem and Ramdas Pophale) SiO2 
 PCOD8320503
Probable space group: I 4/M C M
;
_chemical_formula_sum "Si O2"
_cell_formula_units_Z 128
_cell_length_a 20.841675
_cell_length_b 20.841675
_cell_length_c 14.069720
_cell_angle_alpha 90.000000
_cell_angle_beta 90.000000
_cell_angle_gamma 90.000000
_cell_volume 6111.540489
_symmetry_space_group_name_H-M "I 4/M C M"
_symmetry_group_IT_number 140
_symmetry_cell_setting 'tetragonal'
loop_
_space_group_symop_operation_xyz
x,y,z
-y,x,z
-x,-y,z
y,-x,z
x,-y,1/2-z
-x,y,1/2-z
y,x,1/2-z
-y,-x,1/2-z
-x,-y,-z
y,-x,-z
x,y,-z
-y,x,-z
-x,y,1/2+z
x,-y,1/2+z
-y,-x,1/2+z
y,x,1/2+z
1/2+x,1/2+y,1/2+z
1/2-y,1/2+x,1/2+z
1/2-x,1/2-y,1/2+z
1/2+y,1/2-x,1/2+z
1/2+x,1/2-y,-z
1/2-x,1/2+y,-z
1/2+y,1/2+x,-z
1/2-y,1/2-x,-z
1/2-x,1/2-y,1/2-z
1/2+y,1/2-x,1/2-z
1/2+x,1/2+y,1/2-z
1/2-y,1/2+x,1/2-z
1/2-x,1/2+y,z
1/2+x,1/2-y,z
1/2-y,1/2-x,z
1/2+y,1/2+x,z
loop_
_atom_site_type_symbol
_atom_site_label
_atom_site_fract_x
_atom_site_fract_y
_atom_site_fract_z
Si Si1 0.707876 0.899754 0.500000
Si Si2 0.173975 0.432991 0.796629
Si Si3 0.297244 0.691243 0.000000
Si Si4 0.614409 0.702718 0.188064
Si Si5 0.598869 0.530176 0.388283
O O1 0.658187 0.841814 0.500000
O O2 0.697062 0.942973 0.405948
O O3 0.780288 0.870222 0.500000
O O4 0.153783 0.500000 0.750000
O O5 0.112494 0.387507 0.791542
O O6 0.231289 0.401805 0.738151
O O7 0.282534 0.647081 0.088806
O O8 0.250867 0.750867 0.000000
O O9 0.665310 0.665310 0.250000
O O10 0.549512 0.661724 0.170613
O O11 0.541754 0.579286 0.360112
O O12 0.612332 0.535741 0.500000
#
# Coordination Sequence:
#
# PCOD8320503 Si02
#       5
#    16  32  16  32  32
#     4   9  20  43  69  96 134 178 218 269 345 418
#     4  11  26  47  73 104 135 176 230 286 348 418
#     4  11  22  39  62  92 136 178 215 275 341 399
#     4  12  24  37  64  98 132 171 226 279 333 400
#     4   9  20  39  61  88 129 179 227 270 322 393
#
# _framework density 20.943981999999998
#
# number of rings (size 3 to 8) (size 9 to 14) (size 15 to 20)
#    0.000    1.500    3.750    1.500    3.500    2.250 
#    0.000    3.125    0.000    2.250    0.000    0.000 
#    0.000    0.000    0.000    0.000    0.000    0.000 
#
# Total GULP energy -793773.839628 kJ/mol
# GULP energy per Si atom -12402.716244 kJ/mol
# Density = 2.089631 g / cm^3
# Si number density = 20.943982 Si / 1000 Ang^3
#
#
#
# Elastic Constant Matrix: (Units=GPa)
#
#
# Indices 1 2 3 4 5 6 
#
# 1 96.7242 28.8750 54.6022 0.0000 0.0000 0.0000
# 2 28.8750 96.7237 54.6024 0.0000 0.0000 0.0000
# 3 54.6022 54.6024 156.5782 0.0000 0.0000 0.0000
# 4 0.0000 0.0000 0.0000 35.6745 0.0000 0.0000
# 5 0.0000 0.0000 0.0000 0.0000 35.6740 0.0000
# 6 0.0000 0.0000 0.0000 0.0000 0.0000 30.3374
#
#
#
# Elastic Compliance Matrix: (Units=1/GPa)
#
#
# Indices 1 2 3 4 5 6 
#
# 1 0.013082 -0.001656 -0.003985 0.000000 0.000000 0.000000
# 2 -0.001656 0.013083 -0.003985 0.000000 0.000000 0.000000
# 3 -0.003985 -0.003985 0.009166 0.000000 0.000000 0.000000
# 4 0.000000 0.000000 0.000000 0.028031 0.000000 0.000000
# 5 0.000000 0.000000 0.000000 0.000000 0.028032 0.000000
# 6 0.000000 0.000000 0.000000 0.000000 0.000000 0.032963
#
#
# Mechanical properties :
#
#
# Convention : Reuss Voigt Hill
#
# Bulk Modulus (GPa) = 62.18958 69.57614 65.88286
# Shear Modulus (GPa) = 33.56453 34.46695 34.01574
#
# Velocity S-wave (km/s) = 4.00757 4.06109 4.03442
# Velocity P-wave (km/s) = 7.15346 7.43520 7.29569
#
# Compressibility (1/GPa) = 0.01607986
#
# Stress axis : x y z
#
# Youngs Moduli (GPa) = 76.43834 76.43775 109.10309
#
# Poissons Ratio (x) = 0.12659 0.43473
# Poissons Ratio (y) = 0.12659 0.43474
# Poissons Ratio (z) = 0.30458 0.30458
#
# Static dielectric constant tensor:
#      x y z
#    x 3.011140 0.000000 0.000000 
#    y 0.000000 3.011210 0.000000 
#    z 0.000000 0.000000 4.052240 
# 
# 
# High freq. dielectric constant tensor:
#      x y z
#    x 1.809770 0.000000 0.000000 
#    y 0.000000 1.809770 0.000000 
#    z 0.000000 0.000000 1.844560 
# 
# From -- ./inp_files/4407.got.cif
#   From: 2010.06.25/outbox.cif.g09.slc.cpg/sg140_3_cif.got.tgz:4407.got - 2010.06.28 10:53:23.
