data_PCOD8320603
_publ_section_title
;
Structure prediction by ZEFSAII (Michael W. Deem and Ramdas Pophale) SiO2 
 PCOD8320603
Probable space group: I 41/A M D
;
_chemical_formula_sum "Si O2"
_cell_formula_units_Z 128
_cell_length_a 26.387971
_cell_length_b 26.387971
_cell_length_c 10.719664
_cell_angle_alpha 90.000000
_cell_angle_beta 90.000000
_cell_angle_gamma 90.000000
_cell_volume 7464.370179
_symmetry_space_group_name_H-M "I 41/A M D"
_symmetry_group_IT_number 141
_space_group.IT_coordinate_system_code '2'
_symmetry_cell_setting 'tetragonal'
loop_
_space_group_symop_operation_xyz
x,y,z
1/4-y,3/4+x,1/4+z
-x,1/2-y,z
1/4+y,1/4-x,3/4+z
x,-y,-z
-x,1/2+y,-z
1/4+y,3/4+x,1/4-z
1/4-y,1/4-x,3/4-z
-x,-y,-z
3/4+y,1/4-x,3/4-z
x,1/2+y,-z
3/4-y,3/4+x,1/4-z
-x,y,z
x,1/2-y,z
3/4-y,1/4-x,3/4+z
3/4+y,3/4+x,1/4+z
1/2+x,1/2+y,1/2+z
3/4-y,1/4+x,3/4+z
1/2-x,-y,1/2+z
3/4+y,3/4-x,1/4+z
1/2+x,1/2-y,1/2-z
1/2-x,y,1/2-z
3/4+y,1/4+x,3/4-z
3/4-y,3/4-x,1/4-z
1/2-x,1/2-y,1/2-z
1/4+y,3/4-x,1/4-z
1/2+x,y,1/2-z
1/4-y,1/4+x,3/4-z
1/2-x,1/2+y,1/2+z
1/2+x,-y,1/2+z
1/4-y,3/4-x,1/4+z
1/4+y,1/4+x,3/4+z
loop_
_atom_site_type_symbol
_atom_site_label
_atom_site_fract_x
_atom_site_fract_y
_atom_site_fract_z
Si Si1 0.650124 0.900124 0.875000
Si Si2 0.750000 0.130071 0.250000
Si Si3 0.665574 0.307716 0.944536
Si Si4 0.277764 0.307150 0.488285
Si Si5 0.559504 0.885610 0.418415
O O1 0.702438 0.903074 0.797025
O O2 0.598791 0.896609 0.794342
O O3 0.726504 0.163686 0.359122
O O4 0.647930 0.250000 0.980644
O O5 0.644778 0.324700 0.811086
O O6 0.725992 0.309007 0.934437
O O7 0.292700 0.250000 0.452859
O O8 0.320052 0.331365 0.579048
O O9 0.500000 0.882047 0.403762
O O10 0.582690 0.832690 0.375000
#
# Coordination Sequence:
#
# PCOD8320603 Si02
#       5
#    16  16  32  32  32
#     4  10  20  34  54  73 102 134 164 208 250 304
#     4  10  19  32  52  72 102 132 163 200 248 304
#     4   9  18  33  53  76  99 126 164 212 257 293
#     4   9  17  30  51  76  96 121 161 211 254 288
#     4  10  19  31  48  70 100 131 164 202 245 299
#
# _framework density 17.148129999999998
#
# number of rings (size 3 to 8) (size 9 to 14) (size 15 to 20)
#    0.000    2.500    0.000    2.625    0.000    4.250 
#    0.000    1.250   22.000    1.875    0.000    0.000 
#    0.000    0.000    0.000    0.000    0.000    0.000 
#
# Total GULP energy -793353.920362 kJ/mol
# GULP energy per Si atom -12396.155006 kJ/mol
# Density = 1.710910 g / cm^3
# Si number density = 17.148130 Si / 1000 Ang^3
#
#
#
# Elastic Constant Matrix: (Units=GPa)
#
#
# Indices 1 2 3 4 5 6 
#
# 1 67.4948 49.0885 51.9819 0.0000 0.0000 0.0000
# 2 49.0885 67.4948 51.9819 0.0000 0.0000 0.0000
# 3 51.9819 51.9819 110.7009 0.0000 0.0000 0.0000
# 4 0.0000 0.0000 0.0000 25.6435 0.0000 0.0000
# 5 0.0000 0.0000 0.0000 0.0000 25.6435 0.0000
# 6 0.0000 0.0000 0.0000 0.0000 0.0000 28.5839
#
#
#
# Elastic Compliance Matrix: (Units=1/GPa)
#
#
# Indices 1 2 3 4 5 6 
#
# 1 0.034543 -0.019786 -0.006929 0.000000 0.000000 0.000000
# 2 -0.019786 0.034543 -0.006929 0.000000 0.000000 0.000000
# 3 -0.006929 -0.006929 0.015541 0.000000 0.000000 0.000000
# 4 0.000000 0.000000 0.000000 0.038996 0.000000 0.000000
# 5 0.000000 0.000000 0.000000 0.000000 0.038996 0.000000
# 6 0.000000 0.000000 0.000000 0.000000 0.000000 0.034985
#
#
# Mechanical properties :
#
#
# Convention : Reuss Voigt Hill
#
# Bulk Modulus (GPa) = 57.67943 61.31056 59.49500
# Shear Modulus (GPa) = 18.47247 22.15007 20.31127
#
# Velocity S-wave (km/s) = 3.28568 3.59791 3.44533
# Velocity P-wave (km/s) = 6.93565 7.28636 7.11317
#
# Compressibility (1/GPa) = 0.01733720
#
# Stress axis : x y z
#
# Youngs Moduli (GPa) = 28.94943 28.94943 64.34585
#
# Poissons Ratio (x) = 0.57280 0.44588
# Poissons Ratio (y) = 0.57280 0.44588
# Poissons Ratio (z) = 0.20060 0.20060
#
# Static dielectric constant tensor:
#      x y z
#    x 3.184530 0.000000 0.000000 
#    y 0.000000 3.184530 0.000000 
#    z 0.000000 0.000000 3.310930 
# 
# 
# High freq. dielectric constant tensor:
#      x y z
#    x 1.654050 0.000000 0.000000 
#    y 0.000000 1.654050 0.000000 
#    z 0.000000 0.000000 1.673820 
# 
# From -- ./inp_files/4630.got.cif
#   From: 2010.03.12/outbox.cif.g09.slc.cpg/sg141_3_cif.got.tgz:4630.got - 2010.04.03 13:18:35.
