data_PCOD8320298
_publ_section_title
;
Structure prediction by ZEFSAII (Michael W. Deem and Ramdas Pophale) SiO2 
 PCOD8320298
Probable space group: I 4/M C M
;
_chemical_formula_sum "Si O2"
_cell_formula_units_Z 144
_cell_length_a 21.141849
_cell_length_b 21.141849
_cell_length_c 16.482079
_cell_angle_alpha 90.000000
_cell_angle_beta 90.000000
_cell_angle_gamma 90.000000
_cell_volume 7367.123067
_symmetry_space_group_name_H-M "I 4/M C M"
_symmetry_group_IT_number 140
_symmetry_cell_setting 'tetragonal'
loop_
_space_group_symop_operation_xyz
x,y,z
-y,x,z
-x,-y,z
y,-x,z
x,-y,1/2-z
-x,y,1/2-z
y,x,1/2-z
-y,-x,1/2-z
-x,-y,-z
y,-x,-z
x,y,-z
-y,x,-z
-x,y,1/2+z
x,-y,1/2+z
-y,-x,1/2+z
y,x,1/2+z
1/2+x,1/2+y,1/2+z
1/2-y,1/2+x,1/2+z
1/2-x,1/2-y,1/2+z
1/2+y,1/2-x,1/2+z
1/2+x,1/2-y,-z
1/2-x,1/2+y,-z
1/2+y,1/2+x,-z
1/2-y,1/2-x,-z
1/2-x,1/2-y,1/2-z
1/2+y,1/2-x,1/2-z
1/2+x,1/2+y,1/2-z
1/2-y,1/2+x,1/2-z
1/2-x,1/2+y,z
1/2+x,1/2-y,z
1/2-y,1/2-x,z
1/2+y,1/2+x,z
loop_
_atom_site_type_symbol
_atom_site_label
_atom_site_fract_x
_atom_site_fract_y
_atom_site_fract_z
Si Si1 0.774750 0.628241 0.596085
Si Si2 0.137333 0.895689 0.406775
Si Si3 0.177828 0.975520 0.840842
Si Si4 0.189614 0.490670 0.903686
Si Si5 0.948423 0.551578 0.096712
O O1 0.780216 0.627869 0.500000
O O2 0.814739 0.685262 0.634905
O O3 0.702295 0.637774 0.621771
O O4 0.804027 0.562554 0.627702
O O5 0.120327 0.880281 0.500000
O O6 0.083891 0.868852 0.347784
O O7 0.148256 0.970765 0.398833
O O8 0.248986 0.954459 0.867302
O O9 0.177989 0.000000 0.750000
O O10 0.122346 0.464414 0.871337
O O11 0.192567 0.484537 0.000000
O O12 0.000000 0.500000 0.129218
O O13 0.950044 0.549957 0.000000
#
# Coordination Sequence:
#
# PCOD8320298 Si02
#       5
#    32  32  32  32  16
#     4   8  14  27  50  79 106 134 173 222 275 322
#     4  10  20  36  58  82 107 139 183 232 277 323
#     4  11  22  37  56  77 113 147 182 219 278 335
#     4   9  17  31  53  79 109 144 184 233 279 318
#     4   9  16  28  54  88 111 138 191 245 282 318
#
# _framework density 19.546301
#
# number of rings (size 3 to 8) (size 9 to 14) (size 15 to 20)
#    0.000    2.556    0.000    4.667    0.000    3.111 
#    2.000    2.222   12.222    5.333    0.000    0.000 
#    0.000    0.000    0.000    0.000    0.000    0.000 
#
# Total GULP energy -892457.261574 kJ/mol
# GULP energy per Si atom -12395.239744 kJ/mol
# Density = 1.950181 g / cm^3
# Si number density = 19.546301 Si / 1000 Ang^3
#
#
#
# Elastic Constant Matrix: (Units=GPa)
#
#
# Indices 1 2 3 4 5 6 
#
# 1 116.0610 77.6318 23.6264 0.0000 0.0000 0.0000
# 2 77.6318 116.0610 23.6263 0.0000 0.0000 0.0000
# 3 23.6264 23.6263 48.4046 0.0000 0.0000 0.0000
# 4 0.0000 0.0000 0.0000 14.1192 0.0000 0.0000
# 5 0.0000 0.0000 0.0000 0.0000 14.1192 0.0000
# 6 0.0000 0.0000 0.0000 0.0000 0.0000 36.6427
#
#
#
# Elastic Compliance Matrix: (Units=1/GPa)
#
#
# Indices 1 2 3 4 5 6 
#
# 1 0.015941 -0.010081 -0.002861 0.000000 0.000000 0.000000
# 2 -0.010081 0.015941 -0.002861 0.000000 0.000000 0.000000
# 3 -0.002861 -0.002861 0.023452 0.000000 0.000000 0.000000
# 4 0.000000 0.000000 0.000000 0.070826 0.000000 0.000000
# 5 0.000000 0.000000 0.000000 0.000000 0.070825 0.000000
# 6 0.000000 0.000000 0.000000 0.000000 0.000000 0.027291
#
#
# Mechanical properties :
#
#
# Convention : Reuss Voigt Hill
#
# Bulk Modulus (GPa) = 42.13958 58.92173 50.53065
# Shear Modulus (GPa) = 18.95450 23.35236 21.15343
#
# Velocity S-wave (km/s) = 3.11742 3.46022 3.29328
# Velocity P-wave (km/s) = 5.87906 6.79517 6.35365
#
# Compressibility (1/GPa) = 0.02373066
#
# Stress axis : x y z
#
# Youngs Moduli (GPa) = 62.73023 62.73026 42.64077
#
# Poissons Ratio (x) = 0.63236 0.12198
# Poissons Ratio (y) = 0.63236 0.12198
# Poissons Ratio (z) = 0.17945 0.17944
#
# Static dielectric constant tensor:
#      x y z
#    x 3.771950 0.000000 0.000000 
#    y 0.000000 3.771950 0.000000 
#    z 0.000000 0.000000 3.161400 
# 
# 
# High freq. dielectric constant tensor:
#      x y z
#    x 1.760590 0.000000 0.000000 
#    y 0.000000 1.760590 0.000000 
#    z 0.000000 0.000000 1.727170 
# 
# From -- ./inp_files/6618.got.cif
#   From: 2010.06.25/outbox.cif.g09.slc.cpg/sg140_4_cif.got.tgz:6618.got - 2010.06.28 10:53:23.
