data_PCOD8320290
_publ_section_title
;
Structure prediction by ZEFSAII (Michael W. Deem and Ramdas Pophale) SiO2 
 PCOD8320290
Probable space group: I 4/M C M
;
_chemical_formula_sum "Si O2"
_cell_formula_units_Z 136
_cell_length_a 26.966235
_cell_length_b 26.966235
_cell_length_c 10.933368
_cell_angle_alpha 90.000000
_cell_angle_beta 90.000000
_cell_angle_gamma 90.000000
_cell_volume 7950.502818
_symmetry_space_group_name_H-M "I 4/M C M"
_symmetry_group_IT_number 140
_symmetry_cell_setting 'tetragonal'
loop_
_space_group_symop_operation_xyz
x,y,z
-y,x,z
-x,-y,z
y,-x,z
x,-y,1/2-z
-x,y,1/2-z
y,x,1/2-z
-y,-x,1/2-z
-x,-y,-z
y,-x,-z
x,y,-z
-y,x,-z
-x,y,1/2+z
x,-y,1/2+z
-y,-x,1/2+z
y,x,1/2+z
1/2+x,1/2+y,1/2+z
1/2-y,1/2+x,1/2+z
1/2-x,1/2-y,1/2+z
1/2+y,1/2-x,1/2+z
1/2+x,1/2-y,-z
1/2-x,1/2+y,-z
1/2+y,1/2+x,-z
1/2-y,1/2-x,-z
1/2-x,1/2-y,1/2-z
1/2+y,1/2-x,1/2-z
1/2+x,1/2+y,1/2-z
1/2-y,1/2+x,1/2-z
1/2-x,1/2+y,z
1/2+x,1/2-y,z
1/2-y,1/2-x,z
1/2+y,1/2+x,z
loop_
_atom_site_type_symbol
_atom_site_label
_atom_site_fract_x
_atom_site_fract_y
_atom_site_fract_z
Si Si1 0.892272 0.898155 0.500000
Si Si2 0.288238 0.500000 0.750000
Si Si3 0.147456 0.852544 0.750000
Si Si4 0.825829 0.674172 0.368995
Si Si5 0.894249 0.748051 0.246412
Si Si6 0.149350 0.000228 0.000000
Si Si7 0.742099 0.757901 0.000000
Si Si8 0.770419 0.348698 0.500000
O O1 0.865162 0.883131 0.626868
O O2 0.947439 0.877676 0.500000
O O3 0.892553 0.957816 0.500000
O O4 0.253575 0.547636 0.772807
O O5 0.319721 0.506066 0.625679
O O6 0.203939 0.863266 0.710232
O O7 0.844435 0.655565 0.500000
O O8 0.873616 0.697784 0.306240
O O9 0.782954 0.717047 0.380228
O O10 0.886535 0.740491 0.105256
O O11 0.801617 0.767612 0.000000
O O12 0.826547 0.326547 0.500000
#
# Coordination Sequence:
#
# PCOD8320290 Si02
#       8
#    16  16  16  16  32  16   8  16
#     4  12  23  42  60  81 115 142 208 260 314 344
#     4  12  26  40  64  81 120 153 210 236 302 356
#     4  12  24  35  62  83 110 158 184 250 296 359
#     4  10  23  35  52  86 120 147 188 232 287 344
#     4  12  22  39  58  83 115 156 193 242 284 353
#     4  12  23  45  56  90 104 154 200 265 306 360
#     4   8  18  34  52  86 114 154 180 228 276 366
#     4  10  20  36  53  81 116 147 186 233 275 345
#
# _framework density 17.105836
#
# number of rings (size 3 to 8) (size 9 to 14) (size 15 to 20)
#    0.706    0.000    5.882    2.824    3.294    1.647 
#    0.000    0.000    0.000    2.824    0.000    0.000 
#    0.000    0.471    0.000    2.118    0.000    0.000 
#
# Total GULP energy -842397.358391 kJ/mol
# GULP energy per Si atom -12388.196447 kJ/mol
# Density = 1.706690 g / cm^3
# Si number density = 17.105836 Si / 1000 Ang^3
#
#
#
# Elastic Constant Matrix: (Units=GPa)
#
#
# Indices 1 2 3 4 5 6 
#
# 1 98.3074 44.3464 23.3955 0.0000 0.0000 0.0000
# 2 44.3464 98.3079 23.3947 0.0000 0.0000 0.0000
# 3 23.3955 23.3947 114.5661 0.0000 0.0000 0.0000
# 4 0.0000 0.0000 0.0000 9.9019 0.0000 0.0000
# 5 0.0000 0.0000 0.0000 0.0000 9.9029 0.0000
# 6 0.0000 0.0000 0.0000 0.0000 0.0000 32.7692
#
#
#
# Elastic Compliance Matrix: (Units=1/GPa)
#
#
# Indices 1 2 3 4 5 6 
#
# 1 0.013023 -0.005509 -0.001534 0.000000 0.000000 0.000000
# 2 -0.005509 0.013022 -0.001534 0.000000 0.000000 0.000000
# 3 -0.001534 -0.001534 0.009355 0.000000 0.000000 0.000000
# 4 0.000000 0.000000 0.000000 0.100990 0.000000 0.000000
# 5 0.000000 0.000000 0.000000 0.000000 0.100980 0.000000
# 6 0.000000 0.000000 0.000000 0.000000 0.000000 0.030517
#
#
# Mechanical properties :
#
#
# Convention : Reuss Voigt Hill
#
# Bulk Modulus (GPa) = 54.81071 54.82830 54.81950
# Shear Modulus (GPa) = 17.17480 25.18447 21.17964
#
# Velocity S-wave (km/s) = 3.17208 3.84118 3.52256
# Velocity P-wave (km/s) = 6.74743 7.19687 6.97577
#
# Compressibility (1/GPa) = 0.01824461
#
# Stress axis : x y z
#
# Youngs Moduli (GPa) = 76.78989 76.79051 106.89260
#
# Poissons Ratio (x) = 0.42306 0.16401
# Poissons Ratio (y) = 0.42306 0.16399
# Poissons Ratio (z) = 0.11782 0.11781
#
# Static dielectric constant tensor:
#      x y z
#    x 3.180100 0.000000 0.000000 
#    y 0.000000 3.180110 0.000000 
#    z 0.000000 0.000000 3.404640 
# 
# 
# High freq. dielectric constant tensor:
#      x y z
#    x 1.635240 0.000000 0.000000 
#    y 0.000000 1.635240 0.000000 
#    z 0.000000 0.000000 1.685400 
# 
# From -- ./inp_files/3141.got.cif
#   From: 2010.06.25/outbox.cif.g09.slc.cpg/sg140_2_cif.got.tgz:3141.got - 2010.06.28 10:53:23.
