data_PCOD8320234
_publ_section_title
;
Structure prediction by ZEFSAII (Michael W. Deem and Ramdas Pophale) SiO2 
 PCOD8320234
Probable space group: I 4/M C M
;
_chemical_formula_sum "Si O2"
_cell_formula_units_Z 160
_cell_length_a 17.061393
_cell_length_b 17.061393
_cell_length_c 27.657201
_cell_angle_alpha 90.000000
_cell_angle_beta 90.000000
_cell_angle_gamma 90.000000
_cell_volume 8050.765922
_symmetry_space_group_name_H-M "I 4/M C M"
_symmetry_group_IT_number 140
_symmetry_cell_setting 'tetragonal'
loop_
_space_group_symop_operation_xyz
x,y,z
-y,x,z
-x,-y,z
y,-x,z
x,-y,1/2-z
-x,y,1/2-z
y,x,1/2-z
-y,-x,1/2-z
-x,-y,-z
y,-x,-z
x,y,-z
-y,x,-z
-x,y,1/2+z
x,-y,1/2+z
-y,-x,1/2+z
y,x,1/2+z
1/2+x,1/2+y,1/2+z
1/2-y,1/2+x,1/2+z
1/2-x,1/2-y,1/2+z
1/2+y,1/2-x,1/2+z
1/2+x,1/2-y,-z
1/2-x,1/2+y,-z
1/2+y,1/2+x,-z
1/2-y,1/2-x,-z
1/2-x,1/2-y,1/2-z
1/2+y,1/2-x,1/2-z
1/2+x,1/2+y,1/2-z
1/2-y,1/2+x,1/2-z
1/2-x,1/2+y,z
1/2+x,1/2-y,z
1/2-y,1/2-x,z
1/2+y,1/2+x,z
loop_
_atom_site_type_symbol
_atom_site_label
_atom_site_fract_x
_atom_site_fract_y
_atom_site_fract_z
Si Si1 0.894060 0.932373 0.608629
Si Si2 0.494359 0.125051 0.900578
Si Si3 0.238991 0.389993 0.056368
Si Si4 0.835045 0.539685 0.200897
Si Si5 0.069307 0.155835 0.215542
O O1 0.821618 0.885788 0.584452
O O2 0.892979 0.923450 0.666437
O O3 0.976212 0.892738 0.592417
O O4 0.556515 0.056515 0.905359
O O5 0.526127 0.197820 0.932054
O O6 0.482996 0.149615 0.844562
O O7 0.409880 0.090121 0.918555
O O8 0.182658 0.317343 0.072518
O O9 0.256855 0.385461 0.000000
O O10 0.865159 0.500000 0.250000
O O11 0.879041 0.620959 0.192467
O O12 0.744816 0.558994 0.201566
O O13 0.145925 0.145925 0.250000
O O14 0.000000 0.123732 0.250000
#
# Coordination Sequence:
#
# PCOD8320234 Si02
#       5
#    32  32  32  32  32
#     4  11  23  40  66  94 121 159 204 253 302 362
#     4   9  17  31  55  85 116 157 208 253 297 360
#     4  10  22  42  65  88 122 163 202 257 322 371
#     4  10  20  33  51  80 120 161 200 243 300 363
#     4  11  21  34  57  86 117 155 196 243 297 360
#
# _framework density 19.873887
#
# number of rings (size 3 to 8) (size 9 to 14) (size 15 to 20)
#    0.000    1.800    4.000    0.600    0.000    2.800 
#    0.000    4.000    0.000    0.000    0.000    0.000 
#    0.000    0.000    0.000    0.000    0.000    0.000 
#
# Total GULP energy -991504.730039 kJ/mol
# GULP energy per Si atom -12393.809125 kJ/mol
# Density = 1.982865 g / cm^3
# Si number density = 19.873887 Si / 1000 Ang^3
#
#
#
# Elastic Constant Matrix: (Units=GPa)
#
#
# Indices 1 2 3 4 5 6 
#
# 1 68.2231 27.3229 19.3065 0.0000 0.0000 0.0000
# 2 27.3229 68.2231 19.3065 0.0000 0.0000 0.0000
# 3 19.3065 19.3065 82.2665 0.0000 0.0000 0.0000
# 4 0.0000 0.0000 0.0000 30.4435 0.0000 0.0000
# 5 0.0000 0.0000 0.0000 0.0000 30.4435 0.0000
# 6 0.0000 0.0000 0.0000 0.0000 0.0000 24.0968
#
#
#
# Elastic Compliance Matrix: (Units=1/GPa)
#
#
# Indices 1 2 3 4 5 6 
#
# 1 0.018006 -0.006443 -0.002714 0.000000 0.000000 0.000000
# 2 -0.006443 0.018006 -0.002714 0.000000 0.000000 0.000000
# 3 -0.002714 -0.002714 0.013429 0.000000 0.000000 0.000000
# 4 0.000000 0.000000 0.000000 0.032848 0.000000 0.000000
# 5 0.000000 0.000000 0.000000 0.000000 0.032848 0.000000
# 6 0.000000 0.000000 0.000000 0.000000 0.000000 0.041499
#
#
# Mechanical properties :
#
#
# Convention : Reuss Voigt Hill
#
# Bulk Modulus (GPa) = 38.90968 38.95383 38.93176
# Shear Modulus (GPa) = 26.46279 27.18191 26.82235
#
# Velocity S-wave (km/s) = 3.65298 3.70228 3.67771
# Velocity P-wave (km/s) = 6.11663 6.15783 6.13727
#
# Compressibility (1/GPa) = 0.02570054
#
# Stress axis : x y z
#
# Youngs Moduli (GPa) = 55.53620 55.53620 74.46415
#
# Poissons Ratio (x) = 0.35785 0.20206
# Poissons Ratio (y) = 0.35785 0.20206
# Poissons Ratio (z) = 0.15070 0.15070
#
# Static dielectric constant tensor:
#      x y z
#    x 3.561890 0.000000 0.000000 
#    y 0.000000 3.561890 0.000000 
#    z 0.000000 0.000000 8.615240 
# 
# 
# High freq. dielectric constant tensor:
#      x y z
#    x 1.762500 0.000000 0.000000 
#    y 0.000000 1.762500 0.000000 
#    z 0.000000 0.000000 1.776320 
# 
# From -- ./inp_files/10515.got.cif
#   From: 2010.06.25/outbox.cif.g09.slc.cpg/sg140_6_cif.got.tgz:10515.got - 2010.06.28 10:53:23.
