data_PCOD8320709
_publ_section_title
;
Structure prediction by ZEFSAII (Michael W. Deem and Ramdas Pophale) SiO2 
 PCOD8320709
Probable space group: I 41/A M D
;
_chemical_formula_sum "Si O2"
_cell_formula_units_Z 192
_cell_length_a 18.458567
_cell_length_b 18.458567
_cell_length_c 27.779777
_cell_angle_alpha 90.000000
_cell_angle_beta 90.000000
_cell_angle_gamma 90.000000
_cell_volume 9465.089386
_symmetry_space_group_name_H-M "I 41/A M D"
_symmetry_group_IT_number 141
_space_group.IT_coordinate_system_code '2'
_symmetry_cell_setting 'tetragonal'
loop_
_space_group_symop_operation_xyz
x,y,z
1/4-y,3/4+x,1/4+z
-x,1/2-y,z
1/4+y,1/4-x,3/4+z
x,-y,-z
-x,1/2+y,-z
1/4+y,3/4+x,1/4-z
1/4-y,1/4-x,3/4-z
-x,-y,-z
3/4+y,1/4-x,3/4-z
x,1/2+y,-z
3/4-y,3/4+x,1/4-z
-x,y,z
x,1/2-y,z
3/4-y,1/4-x,3/4+z
3/4+y,3/4+x,1/4+z
1/2+x,1/2+y,1/2+z
3/4-y,1/4+x,3/4+z
1/2-x,-y,1/2+z
3/4+y,3/4-x,1/4+z
1/2+x,1/2-y,1/2-z
1/2-x,y,1/2-z
3/4+y,1/4+x,3/4-z
3/4-y,3/4-x,1/4-z
1/2-x,1/2-y,1/2-z
1/4+y,3/4-x,1/4-z
1/2+x,y,1/2-z
1/4-y,1/4+x,3/4-z
1/2-x,1/2+y,1/2+z
1/2+x,-y,1/2+z
1/4-y,3/4-x,1/4+z
1/4+y,1/4+x,3/4+z
loop_
_atom_site_type_symbol
_atom_site_label
_atom_site_fract_x
_atom_site_fract_y
_atom_site_fract_z
Si Si1 0.654066 0.618173 0.948331
Si Si2 0.084740 0.089614 0.110323
Si Si3 0.000000 0.452073 0.452658
Si Si4 0.738908 0.967907 0.175846
Si Si5 0.500000 0.926814 0.240672
Si Si6 0.000000 0.536382 0.652254
Si Si7 0.000000 0.666718 0.341117
Si Si8 0.883597 0.489354 0.210121
O O1 0.571329 0.596144 0.952740
O O2 0.709403 0.556931 0.931416
O O3 0.661523 0.681074 0.908926
O O4 0.676193 0.646036 0.001156
O O5 0.141370 0.054740 0.071230
O O6 0.110352 0.173932 0.115294
O O7 0.094320 0.046931 0.160070
O O8 0.000000 0.082889 0.093469
O O9 0.000000 0.500000 0.500000
O O10 0.000000 0.496588 0.402102
O O11 0.779496 0.970505 0.125000
O O12 0.803614 0.975525 0.214585
O O13 0.500000 0.846881 0.217390
O O14 0.500000 0.970901 0.189800
O O15 0.432189 0.942242 0.274779
O O16 0.000000 0.750000 0.350127
#
# Coordination Sequence:
#
# PCOD8320709 Si02
#       8
#    32  32  16  32  16  16  16  32
#     4  11  23  37  56  82 114 156 200 240 302 363
#     4  10  20  37  59  87 118 153 200 248 302 359
#     4  12  24  37  57  86 114 148 202 260 295 347
#     4  10  20  35  57  84 114 151 195 247 299 356
#     4  10  20  38  61  82 114 161 193 235 308 373
#     4  10  22  39  58  75 112 160 198 238 305 364
#     4  10  22  36  56  85 119 158 192 241 310 368
#     4  10  20  36  59  84 115 150 197 249 297 357
#
# _framework density 20.285069
#
# number of rings (size 3 to 8) (size 9 to 14) (size 15 to 20)
#    0.000    1.667    0.833    5.000    0.000    5.000 
#    0.000    1.667    0.000    4.000    0.000    0.000 
#    0.000    0.000    0.000    0.000    0.000    0.000 
#
# Total GULP energy -1189272.800450 kJ/mol
# GULP energy per Si atom -12388.258338 kJ/mol
# Density = 2.023890 g / cm^3
# Si number density = 20.285069 Si / 1000 Ang^3
#
#
#
# Elastic Constant Matrix: (Units=GPa)
#
#
# Indices 1 2 3 4 5 6 
#
# 1 91.6932 39.7668 21.3208 0.0000 0.0000 0.0000
# 2 39.7668 91.6931 21.3208 0.0000 0.0000 0.0000
# 3 21.3208 21.3208 74.6337 0.0000 0.0000 0.0000
# 4 0.0000 0.0000 0.0000 133.8310 0.0000 0.0000
# 5 0.0000 0.0000 0.0000 0.0000 133.8271 0.0000
# 6 0.0000 0.0000 0.0000 0.0000 0.0000 30.0086
#
#
#
# Elastic Compliance Matrix: (Units=1/GPa)
#
#
# Indices 1 2 3 4 5 6 
#
# 1 0.013821 -0.005437 -0.002395 0.000000 0.000000 0.000000
# 2 -0.005437 0.013821 -0.002395 0.000000 0.000000 0.000000
# 3 -0.002395 -0.002395 0.014767 0.000000 0.000000 0.000000
# 4 0.000000 0.000000 0.000000 0.007472 0.000000 0.000000
# 5 0.000000 0.000000 0.000000 0.000000 0.007472 0.000000
# 6 0.000000 0.000000 0.000000 0.000000 0.000000 0.033324
#
#
# Mechanical properties :
#
#
# Convention : Reuss Voigt Hill
#
# Bulk Modulus (GPa) = 45.54850 46.98187 46.26518
# Shear Modulus (GPa) = 42.21201 71.24078 56.72640
#
# Velocity S-wave (km/s) = 4.56668 5.93263 5.29389
# Velocity P-wave (km/s) = 7.09289 8.37491 7.76042
#
# Compressibility (1/GPa) = 0.02195462
#
# Stress axis : x y z
#
# Youngs Moduli (GPa) = 72.35420 72.35418 67.71786
#
# Poissons Ratio (x) = 0.39340 0.16218
# Poissons Ratio (y) = 0.39340 0.16218
# Poissons Ratio (z) = 0.17329 0.17329
#
# Static dielectric constant tensor:
#      x y z
#    x 3.872490 0.000000 0.000000 
#    y 0.000000 3.872490 0.000000 
#    z 0.000000 0.000000 3.924190 
# 
# 
# High freq. dielectric constant tensor:
#      x y z
#    x 1.791620 0.000000 0.000000 
#    y 0.000000 1.791610 0.000000 
#    z 0.000000 0.000000 1.790210 
# 
# From -- ./inp_files/14510.got.cif
#   From: 2010.03.12/outbox.cif.g09.slc.cpg/sg141_8_cif.got.tgz:14510.got - 2010.04.03 13:18:35.
