data_PCOD8320416
_publ_section_title
;
Structure prediction by ZEFSAII (Michael W. Deem and Ramdas Pophale) SiO2 
 PCOD8320416
Probable space group: I 4/M C M
;
_chemical_formula_sum "Si O2"
_cell_formula_units_Z 160
_cell_length_a 21.128462
_cell_length_b 21.128462
_cell_length_c 17.058828
_cell_angle_alpha 90.000000
_cell_angle_beta 90.000000
_cell_angle_gamma 90.000000
_cell_volume 7615.263930
_symmetry_space_group_name_H-M "I 4/M C M"
_symmetry_group_IT_number 140
_symmetry_cell_setting 'tetragonal'
loop_
_space_group_symop_operation_xyz
x,y,z
-y,x,z
-x,-y,z
y,-x,z
x,-y,1/2-z
-x,y,1/2-z
y,x,1/2-z
-y,-x,1/2-z
-x,-y,-z
y,-x,-z
x,y,-z
-y,x,-z
-x,y,1/2+z
x,-y,1/2+z
-y,-x,1/2+z
y,x,1/2+z
1/2+x,1/2+y,1/2+z
1/2-y,1/2+x,1/2+z
1/2-x,1/2-y,1/2+z
1/2+y,1/2-x,1/2+z
1/2+x,1/2-y,-z
1/2-x,1/2+y,-z
1/2+y,1/2+x,-z
1/2-y,1/2-x,-z
1/2-x,1/2-y,1/2-z
1/2+y,1/2-x,1/2-z
1/2+x,1/2+y,1/2-z
1/2-y,1/2+x,1/2-z
1/2-x,1/2+y,z
1/2+x,1/2-y,z
1/2-y,1/2-x,z
1/2+y,1/2+x,z
loop_
_atom_site_type_symbol
_atom_site_label
_atom_site_fract_x
_atom_site_fract_y
_atom_site_fract_z
Si Si1 0.303070 0.541826 0.678113
Si Si2 0.751156 0.353008 0.769443
Si Si3 0.555403 0.225758 0.409463
Si Si4 0.584371 0.558105 0.910885
Si Si5 0.102481 0.497478 0.161424
O O1 0.328252 0.500000 0.750000
O O2 0.248255 0.588501 0.708851
O O3 0.277776 0.498200 0.607935
O O4 0.361012 0.585280 0.645341
O O5 0.689076 0.310925 0.750000
O O6 0.813470 0.313470 0.751278
O O7 0.757931 0.381999 0.857492
O O8 0.576435 0.230260 0.500000
O O9 0.521789 0.158189 0.394880
O O10 0.516758 0.586422 0.891772
O O11 0.602055 0.572073 0.000000
O O12 0.129476 0.500000 0.250000
O O13 0.045682 0.545682 0.152973
O O14 0.072685 0.427316 0.141239
#
# Coordination Sequence:
#
# PCOD8320416 Si02
#       5
#    32  32  32  32  32
#     4  10  22  36  58  86 116 152 197 248 302 359
#     4  10  23  43  64  86 117 165 222 267 301 356
#     4  11  23  38  59  90 123 157 200 258 319 371
#     4   9  19  35  56  85 119 151 184 233 299 363
#     4   9  18  34  58  87 119 157 198 242 299 369
#
# _framework density 21.010435000000001
#
# number of rings (size 3 to 8) (size 9 to 14) (size 15 to 20)
#    0.000    2.200    0.000    4.200    5.600    4.400 
#    0.000    3.000    0.000    4.200    0.000    0.000 
#    0.000    0.000    0.000    0.000    0.000    0.000 
#
# Total GULP energy -991292.991396 kJ/mol
# GULP energy per Si atom -12391.162392 kJ/mol
# Density = 2.096261 g / cm^3
# Si number density = 21.010435 Si / 1000 Ang^3
#
#
#
# Elastic Constant Matrix: (Units=GPa)
#
#
# Indices 1 2 3 4 5 6 
#
# 1 75.8775 -0.0486 41.6042 0.0000 0.0000 0.0000
# 2 -0.0486 75.8776 41.6035 0.0000 0.0000 0.0000
# 3 41.6042 41.6035 116.2215 0.0000 0.0000 0.0000
# 4 0.0000 0.0000 0.0000 16.6361 0.0000 0.0000
# 5 0.0000 0.0000 0.0000 0.0000 16.6352 0.0000
# 6 0.0000 0.0000 0.0000 0.0000 0.0000 30.3745
#
#
#
# Elastic Compliance Matrix: (Units=1/GPa)
#
#
# Indices 1 2 3 4 5 6 
#
# 1 0.017445 0.004274 -0.007775 0.000000 0.000000 0.000000
# 2 0.004274 0.017445 -0.007775 0.000000 0.000000 0.000000
# 3 -0.007775 -0.007775 0.014170 0.000000 0.000000 0.000000
# 4 0.000000 0.000000 0.000000 0.060110 0.000000 0.000000
# 5 0.000000 0.000000 0.000000 0.000000 0.060114 0.000000
# 6 0.000000 0.000000 0.000000 0.000000 0.000000 0.032922
#
#
# Mechanical properties :
#
#
# Convention : Reuss Voigt Hill
#
# Bulk Modulus (GPa) = 37.72259 48.25499 42.98879
# Shear Modulus (GPa) = 21.40475 25.05034 23.22754
#
# Velocity S-wave (km/s) = 3.19528 3.45669 3.32855
# Velocity P-wave (km/s) = 5.62194 6.24088 5.93948
#
# Compressibility (1/GPa) = 0.02650931
#
# Stress axis : x y z
#
# Youngs Moduli (GPa) = 57.32359 57.32414 70.56927
#
# Poissons Ratio (x) = -0.24501 0.54866
# Poissons Ratio (y) = -0.24500 0.54865
# Poissons Ratio (z) = 0.44568 0.44567
#
# Static dielectric constant tensor:
#      x y z
#    x 2.924750 0.000000 0.000000 
#    y 0.000000 2.924810 0.000000 
#    z 0.000000 0.000000 3.633660 
# 
# 
# High freq. dielectric constant tensor:
#      x y z
#    x 1.825070 0.000000 0.000000 
#    y 0.000000 1.825070 0.000000 
#    z 0.000000 0.000000 1.805620 
# 
# From -- ./inp_files/6825.got.cif
#   From: 2010.06.25/outbox.cif.g09.slc.cpg/sg140_4_cif.got.tgz:6825.got - 2010.06.28 10:53:23.
