data_PCOD8320659
_publ_section_title
;
Structure prediction by ZEFSAII (Michael W. Deem and Ramdas Pophale) SiO2 
 PCOD8320659
Probable space group: I 41/A M D
;
_chemical_formula_sum "Si O2"
_cell_formula_units_Z 144
_cell_length_a 19.895859
_cell_length_b 19.895859
_cell_length_c 17.980773
_cell_angle_alpha 90.000000
_cell_angle_beta 90.000000
_cell_angle_gamma 90.000000
_cell_volume 7117.602780
_symmetry_space_group_name_H-M "I 41/A M D"
_symmetry_group_IT_number 141
_space_group.IT_coordinate_system_code '2'
_symmetry_cell_setting 'tetragonal'
loop_
_space_group_symop_operation_xyz
x,y,z
1/4-y,3/4+x,1/4+z
-x,1/2-y,z
1/4+y,1/4-x,3/4+z
x,-y,-z
-x,1/2+y,-z
1/4+y,3/4+x,1/4-z
1/4-y,1/4-x,3/4-z
-x,-y,-z
3/4+y,1/4-x,3/4-z
x,1/2+y,-z
3/4-y,3/4+x,1/4-z
-x,y,z
x,1/2-y,z
3/4-y,1/4-x,3/4+z
3/4+y,3/4+x,1/4+z
1/2+x,1/2+y,1/2+z
3/4-y,1/4+x,3/4+z
1/2-x,-y,1/2+z
3/4+y,3/4-x,1/4+z
1/2+x,1/2-y,1/2-z
1/2-x,y,1/2-z
3/4+y,1/4+x,3/4-z
3/4-y,3/4-x,1/4-z
1/2-x,1/2-y,1/2-z
1/4+y,3/4-x,1/4-z
1/2+x,y,1/2-z
1/4-y,1/4+x,3/4-z
1/2-x,1/2+y,1/2+z
1/2+x,-y,1/2+z
1/4-y,3/4-x,1/4+z
1/4+y,1/4+x,3/4+z
loop_
_atom_site_type_symbol
_atom_site_label
_atom_site_fract_x
_atom_site_fract_y
_atom_site_fract_z
Si Si1 0.614375 0.138978 0.366885
Si Si2 0.240603 0.888651 0.163718
Si Si3 0.500000 0.569691 0.035935
Si Si4 0.163337 0.250000 0.517460
Si Si5 0.392220 0.750000 0.864142
Si Si6 0.076010 0.750000 0.983957
Si Si7 0.698366 0.250000 0.597188
O O1 0.674852 0.183645 0.335921
O O2 0.561721 0.128132 0.301012
O O3 0.583761 0.181081 0.436310
O O4 0.643398 0.066606 0.386046
O O5 0.196624 0.946624 0.125000
O O6 0.250000 0.902434 0.250000
O O7 0.205584 0.816227 0.148820
O O8 0.500000 0.500000 0.000000
O O9 0.500000 0.622687 0.970733
O O10 0.165303 0.250000 0.427710
O O11 0.241571 0.250000 0.538094
O O12 0.433120 0.816881 0.875000
O O13 0.000000 0.750000 0.016140
O O14 0.127820 0.750000 0.053253
#
# Coordination Sequence:
#
# PCOD8320659 Si02
#       7
#    32  32  16  16  16  16  16
#     4  10  22  40  65  93 132 170 221 273 340 398
#     4  11  24  47  73  97 133 180 230 278 339 411
#     4  11  24  39  56  95 134 175 212 278 332 396
#     4  10  19  38  61  91 124 170 212 273 333 391
#     4  11  21  34  60  90 125 165 219 261 325 403
#     4  11  21  39  71 102 133 180 225 284 345 410
#     4  10  24  42  67 101 135 167 222 285 341 395
#
# _framework density 20.231529999999999
#
# number of rings (size 3 to 8) (size 9 to 14) (size 15 to 20)
#    0.000    1.444    3.333    1.667    3.111    0.889 
#    6.000    1.111    0.000    0.000    0.000    0.000 
#    0.000    0.000    0.000    0.000    0.000    0.000 
#
# Total GULP energy -892286.816898 kJ/mol
# GULP energy per Si atom -12392.872457 kJ/mol
# Density = 2.018548 g / cm^3
# Si number density = 20.231530 Si / 1000 Ang^3
#
#
#
# Elastic Constant Matrix: (Units=GPa)
#
#
# Indices 1 2 3 4 5 6 
#
# 1 145.4368 62.5585 49.2288 0.0000 0.0000 0.0000
# 2 62.5585 145.4352 49.2283 0.0000 0.0000 0.0000
# 3 49.2288 49.2283 115.3276 0.0000 0.0000 0.0000
# 4 0.0000 0.0000 0.0000 37.1708 0.0000 0.0000
# 5 0.0000 0.0000 0.0000 0.0000 37.1648 0.0000
# 6 0.0000 0.0000 0.0000 0.0000 0.0000 16.4516
#
#
#
# Elastic Compliance Matrix: (Units=1/GPa)
#
#
# Indices 1 2 3 4 5 6 
#
# 1 0.009046 -0.003020 -0.002572 0.000000 0.000000 0.000000
# 2 -0.003020 0.009046 -0.002572 0.000000 0.000000 0.000000
# 3 -0.002572 -0.002572 0.010867 0.000000 0.000000 0.000000
# 4 0.000000 0.000000 0.000000 0.026903 0.000000 0.000000
# 5 0.000000 0.000000 0.000000 0.000000 0.026907 0.000000
# 6 0.000000 0.000000 0.000000 0.000000 0.000000 0.060784
#
#
# Mechanical properties :
#
#
# Convention : Reuss Voigt Hill
#
# Bulk Modulus (GPa) = 79.17996 80.91454 80.04725
# Shear Modulus (GPa) = 30.47096 34.50304 32.48700
#
# Velocity S-wave (km/s) = 3.88508 4.13414 4.01154
# Velocity P-wave (km/s) = 7.70370 7.92901 7.81717
#
# Compressibility (1/GPa) = 0.01262946
#
# Stress axis : x y z
#
# Youngs Moduli (GPa) = 110.55092 110.54996 92.02461
#
# Poissons Ratio (x) = 0.33390 0.23668
# Poissons Ratio (y) = 0.33390 0.23668
# Poissons Ratio (z) = 0.28433 0.28433
#
# Static dielectric constant tensor:
#      x y z
#    x 3.685860 0.000000 0.000000 
#    y 0.000000 3.685860 0.000000 
#    z 0.000000 0.000000 3.625900 
# 
# 
# High freq. dielectric constant tensor:
#      x y z
#    x 1.792400 0.000000 0.000000 
#    y 0.000000 1.792400 0.000000 
#    z 0.000000 0.000000 1.798480 
# 
# From -- ./inp_files/8515.got.cif
#   From: 2010.03.12/outbox.cif.g09.slc.cpg/sg141_5_cif.got.tgz:8515.got - 2010.04.03 13:18:35.
