data_PCOD8320559
_publ_section_title
;
Structure prediction by ZEFSAII (Michael W. Deem and Ramdas Pophale) SiO2 
 PCOD8320559
Probable space group: I 41/A M D
;
_chemical_formula_sum "Si O2"
_cell_formula_units_Z 208
_cell_length_a 26.751221
_cell_length_b 26.751221
_cell_length_c 18.287500
_cell_angle_alpha 90.000000
_cell_angle_beta 90.000000
_cell_angle_gamma 90.000000
_cell_volume 13087.043850
_symmetry_space_group_name_H-M "I 41/A M D"
_symmetry_group_IT_number 141
_space_group.IT_coordinate_system_code '2'
_symmetry_cell_setting 'tetragonal'
loop_
_space_group_symop_operation_xyz
x,y,z
1/4-y,3/4+x,1/4+z
-x,1/2-y,z
1/4+y,1/4-x,3/4+z
x,-y,-z
-x,1/2+y,-z
1/4+y,3/4+x,1/4-z
1/4-y,1/4-x,3/4-z
-x,-y,-z
3/4+y,1/4-x,3/4-z
x,1/2+y,-z
3/4-y,3/4+x,1/4-z
-x,y,z
x,1/2-y,z
3/4-y,1/4-x,3/4+z
3/4+y,3/4+x,1/4+z
1/2+x,1/2+y,1/2+z
3/4-y,1/4+x,3/4+z
1/2-x,-y,1/2+z
3/4+y,3/4-x,1/4+z
1/2+x,1/2-y,1/2-z
1/2-x,y,1/2-z
3/4+y,1/4+x,3/4-z
3/4-y,3/4-x,1/4-z
1/2-x,1/2-y,1/2-z
1/4+y,3/4-x,1/4-z
1/2+x,y,1/2-z
1/4-y,1/4+x,3/4-z
1/2-x,1/2+y,1/2+z
1/2+x,-y,1/2+z
1/4-y,3/4-x,1/4+z
1/4+y,1/4+x,3/4+z
loop_
_atom_site_type_symbol
_atom_site_label
_atom_site_fract_x
_atom_site_fract_y
_atom_site_fract_z
Si Si1 0.353143 0.575420 0.797787
Si Si2 0.556102 0.423992 0.303960
Si Si3 0.445689 0.958524 0.284709
Si Si4 0.700085 0.878718 0.342747
Si Si5 0.380885 0.969008 0.153569
Si Si6 0.183091 0.624806 0.320592
Si Si7 0.750000 0.617623 0.750000
O O1 0.354355 0.604355 0.875000
O O2 0.401809 0.595901 0.753365
O O3 0.355481 0.515610 0.805211
O O4 0.299597 0.584240 0.759943
O O5 0.500000 0.400083 0.293153
O O6 0.550830 0.482675 0.295563
O O7 0.576830 0.412230 0.385610
O O8 0.500000 0.933570 0.289772
O O9 0.413290 0.933598 0.348932
O O10 0.425685 0.947625 0.202912
O O11 0.681367 0.931367 0.375000
O O12 0.758735 0.882194 0.335169
O O13 0.673259 0.866975 0.265339
O O14 0.340815 0.925094 0.146175
O O15 0.400111 0.988089 0.073296
#
# Coordination Sequence:
#
# PCOD8320559 Si02
#       7
#    32  32  32  32  32  32  16
#     4   9  18  28  43  68  93 130 160 189 231 283
#     4   9  17  31  46  63  92 129 164 195 231 275
#     4   9  18  32  46  60  88 128 162 192 237 281
#     4  10  19  29  43  66  94 125 155 197 233 277
#     4  10  18  29  43  65  95 127 156 191 232 284
#     4  10  19  28  43  67  94 124 159 194 233 279
#     4  10  18  28  43  66  98 124 157 194 232 288
#
# _framework density 15.893582
#
# number of rings (size 3 to 8) (size 9 to 14) (size 15 to 20)
#    0.000    2.462    3.077    0.000    0.000    3.692 
#    0.000    3.462    0.000    0.923    0.000    0.000 
#    0.000    3.692    0.000    0.000    0.000    0.000 
#
# Total GULP energy -1288400.104426 kJ/mol
# GULP energy per Si atom -12388.462543 kJ/mol
# Density = 1.585741 g / cm^3
# Si number density = 15.893582 Si / 1000 Ang^3
#
#
#
# Elastic Constant Matrix: (Units=GPa)
#
#
# Indices 1 2 3 4 5 6 
#
# 1 66.1147 19.9737 40.8629 0.0000 0.0000 0.0000
# 2 19.9737 66.1147 40.8629 0.0000 0.0000 0.0000
# 3 40.8629 40.8629 135.5792 0.0000 0.0000 0.0000
# 4 0.0000 0.0000 0.0000 16.1851 0.0000 0.0000
# 5 0.0000 0.0000 0.0000 0.0000 16.1851 0.0000
# 6 0.0000 0.0000 0.0000 0.0000 0.0000 2.8941
#
#
#
# Elastic Compliance Matrix: (Units=1/GPa)
#
#
# Indices 1 2 3 4 5 6 
#
# 1 0.018972 -0.002701 -0.004904 0.000000 0.000000 0.000000
# 2 -0.002701 0.018972 -0.004904 0.000000 0.000000 0.000000
# 3 -0.004904 -0.004904 0.010332 0.000000 0.000000 0.000000
# 4 0.000000 0.000000 0.000000 0.061785 0.000000 0.000000
# 5 0.000000 0.000000 0.000000 0.000000 0.061785 0.000000
# 6 0.000000 0.000000 0.000000 0.000000 0.000000 0.345529
#
#
# Mechanical properties :
#
#
# Convention : Reuss Voigt Hill
#
# Bulk Modulus (GPa) = 42.99512 52.35641 47.67576
# Shear Modulus (GPa) = 9.08850 18.12681 13.60766
#
# Velocity S-wave (km/s) = 2.39390 3.38081 2.92922
# Velocity P-wave (km/s) = 5.89505 6.94645 6.44224
#
# Compressibility (1/GPa) = 0.02325846
#
# Stress axis : x y z
#
# Youngs Moduli (GPa) = 52.70881 52.70881 96.78710
#
# Poissons Ratio (x) = 0.14234 0.47466
# Poissons Ratio (y) = 0.14234 0.47466
# Poissons Ratio (z) = 0.25849 0.25849
#
# Static dielectric constant tensor:
#      x y z
#    x 2.907520 0.000000 0.000000 
#    y 0.000000 2.907520 0.000000 
#    z 0.000000 0.000000 3.487320 
# 
# 
# High freq. dielectric constant tensor:
#      x y z
#    x 1.572070 0.000000 0.000000 
#    y 0.000000 1.572070 0.000000 
#    z 0.000000 0.000000 1.635760 
# 
# From -- ./inp_files/9012.got.cif
#   From: 2010.03.12/outbox.cif.g09.slc.cpg/sg141_5_cif.got.tgz:9012.got - 2010.04.03 13:18:35.
