data_PCOD8320572
_publ_section_title
;
Structure prediction by ZEFSAII (Michael W. Deem and Ramdas Pophale) SiO2 
 PCOD8320572
Probable space group: I 41/A M D
;
_chemical_formula_sum "Si O2"
_cell_formula_units_Z 160
_cell_length_a 19.387259
_cell_length_b 19.387259
_cell_length_c 24.481441
_cell_angle_alpha 90.000000
_cell_angle_beta 90.000000
_cell_angle_gamma 90.000000
_cell_volume 9201.736689
_symmetry_space_group_name_H-M "I 41/A M D"
_symmetry_group_IT_number 141
_space_group.IT_coordinate_system_code '2'
_symmetry_cell_setting 'tetragonal'
loop_
_space_group_symop_operation_xyz
x,y,z
1/4-y,3/4+x,1/4+z
-x,1/2-y,z
1/4+y,1/4-x,3/4+z
x,-y,-z
-x,1/2+y,-z
1/4+y,3/4+x,1/4-z
1/4-y,1/4-x,3/4-z
-x,-y,-z
3/4+y,1/4-x,3/4-z
x,1/2+y,-z
3/4-y,3/4+x,1/4-z
-x,y,z
x,1/2-y,z
3/4-y,1/4-x,3/4+z
3/4+y,3/4+x,1/4+z
1/2+x,1/2+y,1/2+z
3/4-y,1/4+x,3/4+z
1/2-x,-y,1/2+z
3/4+y,3/4-x,1/4+z
1/2+x,1/2-y,1/2-z
1/2-x,y,1/2-z
3/4+y,1/4+x,3/4-z
3/4-y,3/4-x,1/4-z
1/2-x,1/2-y,1/2-z
1/4+y,3/4-x,1/4-z
1/2+x,y,1/2-z
1/4-y,1/4+x,3/4-z
1/2-x,1/2+y,1/2+z
1/2+x,-y,1/2+z
1/4-y,3/4-x,1/4+z
1/4+y,1/4+x,3/4+z
loop_
_atom_site_type_symbol
_atom_site_label
_atom_site_fract_x
_atom_site_fract_y
_atom_site_fract_z
Si Si1 0.075774 0.331598 0.434651
Si Si2 0.301117 0.331347 0.990151
Si Si3 0.202676 0.328695 0.635685
Si Si4 0.142866 0.173978 0.827406
Si Si5 0.673463 0.920746 0.517030
O O1 0.068900 0.250000 0.433440
O O2 0.104495 0.354495 0.375000
O O3 0.127939 0.354748 0.481680
O O4 0.000000 0.363973 0.446873
O O5 0.284344 0.250000 0.997948
O O6 0.310871 0.350052 0.926692
O O7 0.243504 0.377528 0.020006
O O8 0.177730 0.250000 0.647385
O O9 0.283392 0.335695 0.645068
O O10 0.164521 0.382682 0.675556
O O11 0.087335 0.162665 0.875000
O O12 0.133873 0.250000 0.802873
O O13 0.132029 0.122167 0.777944
O O14 0.687395 0.000000 0.500000
#
# Coordination Sequence:
#
# PCOD8320572 Si02
#       5
#    32  32  32  32  32
#     4   8  15  31  55  78  97 124 167 208 247 308
#     4  10  19  34  55  78 105 138 170 213 266 314
#     4   9  18  33  52  73 101 137 176 214 259 313
#     4  10  18  30  48  70 100 136 179 223 256 297
#     4  10  20  33  51  75 104 136 178 213 259 312
#
# _framework density 17.388021999999999
#
# number of rings (size 3 to 8) (size 9 to 14) (size 15 to 20)
#    0.000    2.600    2.000    1.200    0.000    2.600 
#    3.600    1.000    0.000    3.600    0.000    0.000 
#    0.000    0.000    0.000    0.000    0.000    0.000 
#
# Total GULP energy -991654.885850 kJ/mol
# GULP energy per Si atom -12395.686073 kJ/mol
# Density = 1.734845 g / cm^3
# Si number density = 17.388022 Si / 1000 Ang^3
#
#
#
# Elastic Constant Matrix: (Units=GPa)
#
#
# Indices 1 2 3 4 5 6 
#
# 1 70.8757 37.6115 46.5851 0.0000 0.0000 0.0000
# 2 37.6115 70.8757 46.5851 0.0000 0.0000 0.0000
# 3 46.5851 46.5851 113.7837 0.0000 0.0000 0.0000
# 4 0.0000 0.0000 0.0000 23.5593 0.0000 0.0000
# 5 0.0000 0.0000 0.0000 0.0000 23.5593 0.0000
# 6 0.0000 0.0000 0.0000 0.0000 0.0000 25.1779
#
#
#
# Elastic Compliance Matrix: (Units=1/GPa)
#
#
# Indices 1 2 3 4 5 6 
#
# 1 0.022139 -0.007923 -0.005820 0.000000 0.000000 0.000000
# 2 -0.007923 0.022139 -0.005820 0.000000 0.000000 0.000000
# 3 -0.005820 -0.005820 0.013555 0.000000 0.000000 0.000000
# 4 0.000000 0.000000 0.000000 0.042446 0.000000 0.000000
# 5 0.000000 0.000000 0.000000 0.000000 0.042446 0.000000
# 6 0.000000 0.000000 0.000000 0.000000 0.000000 0.039717
#
#
# Mechanical properties :
#
#
# Convention : Reuss Voigt Hill
#
# Bulk Modulus (GPa) = 53.46009 57.45540 55.45774
# Shear Modulus (GPa) = 21.94854 22.77620 22.36237
#
# Velocity S-wave (km/s) = 3.55671 3.62315 3.59008
# Velocity P-wave (km/s) = 6.90500 7.11462 7.01059
#
# Compressibility (1/GPa) = 0.01870554
#
# Stress axis : x y z
#
# Youngs Moduli (GPa) = 45.16849 45.16849 73.77576
#
# Poissons Ratio (x) = 0.35787 0.42941
# Poissons Ratio (y) = 0.35787 0.42941
# Poissons Ratio (z) = 0.26290 0.26290
#
# Static dielectric constant tensor:
#      x y z
#    x 3.178070 0.000000 0.000000 
#    y 0.000000 3.178070 0.000000 
#    z 0.000000 0.000000 3.397490 
# 
# 
# High freq. dielectric constant tensor:
#      x y z
#    x 1.652780 0.000000 0.000000 
#    y 0.000000 1.652780 0.000000 
#    z 0.000000 0.000000 1.677630 
# 
# From -- ./inp_files/12694.got.cif
#   From: 2010.03.12/outbox.cif.g09.slc.cpg/sg141_7_cif.got.tgz:12694.got - 2010.04.03 13:18:35.
