data_PCOD8320311
_publ_section_title
;
Structure prediction by ZEFSAII (Michael W. Deem and Ramdas Pophale) SiO2 
 PCOD8320311
Probable space group: I 4/M C M
;
_chemical_formula_sum "Si O2"
_cell_formula_units_Z 176
_cell_length_a 22.732154
_cell_length_b 22.732154
_cell_length_c 15.537738
_cell_angle_alpha 90.000000
_cell_angle_beta 90.000000
_cell_angle_gamma 90.000000
_cell_volume 8029.138938
_symmetry_space_group_name_H-M "I 4/M C M"
_symmetry_group_IT_number 140
_symmetry_cell_setting 'tetragonal'
loop_
_space_group_symop_operation_xyz
x,y,z
-y,x,z
-x,-y,z
y,-x,z
x,-y,1/2-z
-x,y,1/2-z
y,x,1/2-z
-y,-x,1/2-z
-x,-y,-z
y,-x,-z
x,y,-z
-y,x,-z
-x,y,1/2+z
x,-y,1/2+z
-y,-x,1/2+z
y,x,1/2+z
1/2+x,1/2+y,1/2+z
1/2-y,1/2+x,1/2+z
1/2-x,1/2-y,1/2+z
1/2+y,1/2-x,1/2+z
1/2+x,1/2-y,-z
1/2-x,1/2+y,-z
1/2+y,1/2+x,-z
1/2-y,1/2-x,-z
1/2-x,1/2-y,1/2-z
1/2+y,1/2-x,1/2-z
1/2+x,1/2+y,1/2-z
1/2-y,1/2+x,1/2-z
1/2-x,1/2+y,z
1/2+x,1/2-y,z
1/2-y,1/2-x,z
1/2+y,1/2+x,z
loop_
_atom_site_type_symbol
_atom_site_label
_atom_site_fract_x
_atom_site_fract_y
_atom_site_fract_z
Si Si1 0.451076 0.860180 0.500000
Si Si2 0.015856 0.317512 0.161757
Si Si3 0.821369 0.232468 0.500000
Si Si4 0.790852 0.931126 0.171040
Si Si5 0.636588 0.766159 0.326149
Si Si6 0.529298 0.591948 0.900546
Si Si7 0.875800 0.751985 0.500000
O O1 0.425582 0.925582 0.500000
O O2 0.491253 0.853771 0.582789
O O3 0.395796 0.815596 0.500000
O O4 0.085688 0.312916 0.152262
O O5 0.000000 0.352131 0.250000
O O6 0.986942 0.252630 0.169857
O O7 0.800460 0.300460 0.500000
O O8 0.857477 0.224251 0.589183
O O9 0.762037 0.193801 0.500000
O O10 0.775468 0.884374 0.247194
O O11 0.857502 0.955400 0.169795
O O12 0.785530 0.897379 0.082876
O O13 0.696763 0.803238 0.304056
O O14 0.462314 0.572813 0.883607
O O15 0.535563 0.613554 0.000000
#
# Coordination Sequence:
#
# PCOD8320311 Si02
#       7
#    16  32  16  32  32  32  16
#     4  10  20  37  62  90 122 157 196 252 317 384
#     4   9  20  36  58  89 120 158 210 256 309 387
#     4  10  22  39  57  82 112 154 208 261 319 379
#     4  10  20  37  60  94 126 163 215 262 321 381
#     4  10  22  41  63  85 117 163 213 263 319 387
#     4   9  18  35  61  95 134 176 222 269 316 372
#     4  10  21  34  54  86 122 159 196 253 315 376
#
# _framework density 21.920159000000002
#
# number of rings (size 3 to 8) (size 9 to 14) (size 15 to 20)
#    0.000    2.364    0.909    1.364    0.000    9.455 
#    0.000    9.091    0.000    1.091    0.000   15.273 
#    0.000    1.455    0.000    0.000    0.000    0.000 
#
# Total GULP energy -1090354.702524 kJ/mol
# GULP energy per Si atom -12390.394347 kJ/mol
# Density = 2.187027 g / cm^3
# Si number density = 21.920159 Si / 1000 Ang^3
#
#
#
# Elastic Constant Matrix: (Units=GPa)
#
#
# Indices 1 2 3 4 5 6 
#
# 1 69.2717 34.8312 50.8989 0.0000 0.0000 0.0000
# 2 34.8312 69.2717 50.8989 0.0000 0.0000 0.0000
# 3 50.8989 50.8989 176.1316 0.0000 0.0000 0.0000
# 4 0.0000 0.0000 0.0000 349.4856 0.0000 0.0000
# 5 0.0000 0.0000 0.0000 0.0000 349.4856 0.0000
# 6 0.0000 0.0000 0.0000 0.0000 0.0000 20.7156
#
#
#
# Elastic Compliance Matrix: (Units=1/GPa)
#
#
# Indices 1 2 3 4 5 6 
#
# 1 0.021213 -0.007823 -0.003869 0.000000 0.000000 0.000000
# 2 -0.007823 0.021213 -0.003869 0.000000 0.000000 0.000000
# 3 -0.003869 -0.003869 0.007914 0.000000 0.000000 0.000000
# 4 0.000000 0.000000 0.000000 0.002861 0.000000 0.000000
# 5 0.000000 0.000000 0.000000 0.000000 0.002861 0.000000
# 6 0.000000 0.000000 0.000000 0.000000 0.000000 0.048273
#
#
# Mechanical properties :
#
#
# Convention : Reuss Voigt Hill
#
# Bulk Modulus (GPa) = 52.04090 65.32585 58.68338
# Shear Modulus (GPa) = 35.24523 155.80709 95.52616
#
# Velocity S-wave (km/s) = 4.01420 8.44000 6.60861
# Velocity P-wave (km/s) = 6.72887 11.17339 9.22286
#
# Compressibility (1/GPa) = 0.01921566
#
# Stress axis : x y z
#
# Youngs Moduli (GPa) = 47.14187 47.14187 126.35972
#
# Poissons Ratio (x) = 0.36879 0.48893
# Poissons Ratio (y) = 0.36879 0.48893
# Poissons Ratio (z) = 0.18241 0.18241
#
# Static dielectric constant tensor:
#      x y z
#    x 3.727880 0.000000 0.000000 
#    y 0.000000 3.727880 0.000000 
#    z 0.000000 0.000000 3.560110 
# 
# 
# High freq. dielectric constant tensor:
#      x y z
#    x 1.845040 0.000000 0.000000 
#    y 0.000000 1.845040 0.000000 
#    z 0.000000 0.000000 1.878990 
# 
# From -- ./inp_files/4977.got.cif
#   From: 2010.06.25/outbox.cif.g09.slc.cpg/sg140_3_cif.got.tgz:4977.got - 2010.06.28 10:53:23.
