data_PCOD8320849
_publ_section_title
;
Structure prediction by ZEFSAII (Michael W. Deem and Ramdas Pophale) SiO2 
 PCOD8320849
Probable space group: I 41/A M D
;
_chemical_formula_sum "Si O2"
_cell_formula_units_Z 160
_cell_length_a 24.205589
_cell_length_b 24.205589
_cell_length_c 13.995118
_cell_angle_alpha 90.000000
_cell_angle_beta 90.000000
_cell_angle_gamma 90.000000
_cell_volume 8199.887128
_symmetry_space_group_name_H-M "I 41/A M D"
_symmetry_group_IT_number 141
_space_group.IT_coordinate_system_code '2'
_symmetry_cell_setting 'tetragonal'
loop_
_space_group_symop_operation_xyz
x,y,z
1/4-y,3/4+x,1/4+z
-x,1/2-y,z
1/4+y,1/4-x,3/4+z
x,-y,-z
-x,1/2+y,-z
1/4+y,3/4+x,1/4-z
1/4-y,1/4-x,3/4-z
-x,-y,-z
3/4+y,1/4-x,3/4-z
x,1/2+y,-z
3/4-y,3/4+x,1/4-z
-x,y,z
x,1/2-y,z
3/4-y,1/4-x,3/4+z
3/4+y,3/4+x,1/4+z
1/2+x,1/2+y,1/2+z
3/4-y,1/4+x,3/4+z
1/2-x,-y,1/2+z
3/4+y,3/4-x,1/4+z
1/2+x,1/2-y,1/2-z
1/2-x,y,1/2-z
3/4+y,1/4+x,3/4-z
3/4-y,3/4-x,1/4-z
1/2-x,1/2-y,1/2-z
1/4+y,3/4-x,1/4-z
1/2+x,y,1/2-z
1/4-y,1/4+x,3/4-z
1/2-x,1/2+y,1/2+z
1/2+x,-y,1/2+z
1/4-y,3/4-x,1/4+z
1/4+y,1/4+x,3/4+z
loop_
_atom_site_type_symbol
_atom_site_label
_atom_site_fract_x
_atom_site_fract_y
_atom_site_fract_z
Si Si1 0.562319 0.537398 0.091627
Si Si2 0.935411 0.607993 0.076771
Si Si3 0.936844 0.310151 0.273902
Si Si4 0.889729 0.890431 0.868249
Si Si5 0.062567 0.000805 0.198001
O O1 0.500000 0.562909 0.084107
O O2 0.611077 0.581956 0.095428
O O3 0.565852 0.502820 0.188325
O O4 0.574581 0.500000 0.000000
O O5 0.914420 0.664420 0.125000
O O6 0.921363 0.556201 0.145155
O O7 0.000000 0.613179 0.056799
O O8 0.902155 0.603356 0.979166
O O9 0.913791 0.336210 0.375000
O O10 0.909417 0.250000 0.249000
O O11 0.933485 0.352005 0.185848
O O12 0.000000 0.300329 0.296075
O O13 0.892934 0.952770 0.829343
O O14 0.000000 0.017462 0.166407
#
# Coordination Sequence:
#
# PCOD8320849 Si02
#       5
#    32  32  32  32  32
#     4  10  23  41  62  91 127 164 204 262 324 370
#     4  11  23  41  63  93 130 165 209 264 320 381
#     4   9  19  33  50  83 124 152 185 243 309 371
#     4  12  22  37  66  88 117 162 218 256 303 378
#     4  10  22  41  64  91 123 164 211 258 312 380
#
# _framework density 19.512463
#
# number of rings (size 3 to 8) (size 9 to 14) (size 15 to 20)
#    0.000    1.600    2.000    3.600    2.800    2.600 
#    0.000    0.000    4.400    0.000    0.000    0.000 
#    0.000    0.000    0.000    0.000    0.000    0.000 
#
# Total GULP energy -991260.948349 kJ/mol
# GULP energy per Si atom -12390.761854 kJ/mol
# Density = 1.946805 g / cm^3
# Si number density = 19.512463 Si / 1000 Ang^3
#
#
#
# Elastic Constant Matrix: (Units=GPa)
#
#
# Indices 1 2 3 4 5 6 
#
# 1 88.4277 60.6894 41.1329 0.0000 0.0000 0.0000
# 2 60.6894 88.4274 41.1330 0.0000 0.0000 0.0000
# 3 41.1329 41.1330 146.5450 0.0000 0.0000 0.0000
# 4 0.0000 0.0000 0.0000 27.3538 0.0000 0.0000
# 5 0.0000 0.0000 0.0000 0.0000 27.3534 0.0000
# 6 0.0000 0.0000 0.0000 0.0000 0.0000 34.5479
#
#
#
# Elastic Compliance Matrix: (Units=1/GPa)
#
#
# Indices 1 2 3 4 5 6 
#
# 1 0.021993 -0.014058 -0.002227 0.000000 0.000000 0.000000
# 2 -0.014058 0.021993 -0.002227 0.000000 0.000000 0.000000
# 3 -0.002227 -0.002227 0.008074 0.000000 0.000000 0.000000
# 4 0.000000 0.000000 0.000000 0.036558 0.000000 0.000000
# 5 0.000000 0.000000 0.000000 0.000000 0.036559 0.000000
# 6 0.000000 0.000000 0.000000 0.000000 0.000000 0.028945
#
#
# Mechanical properties :
#
#
# Convention : Reuss Voigt Hill
#
# Bulk Modulus (GPa) = 66.51118 67.70118 67.10618
# Shear Modulus (GPa) = 25.48950 29.88067 27.68509
#
# Velocity S-wave (km/s) = 3.61822 3.91751 3.77084
# Velocity P-wave (km/s) = 7.18442 7.43197 7.30924
#
# Compressibility (1/GPa) = 0.01503507
#
# Stress axis : x y z
#
# Youngs Moduli (GPa) = 45.46891 45.46869 123.85254
#
# Poissons Ratio (x) = 0.63921 0.27584
# Poissons Ratio (y) = 0.63921 0.27585
# Poissons Ratio (z) = 0.10127 0.10127
#
# Static dielectric constant tensor:
#      x y z
#    x 3.506860 0.000000 0.000000 
#    y 0.000000 3.506860 0.000000 
#    z 0.000000 0.000000 3.907810 
# 
# 
# High freq. dielectric constant tensor:
#      x y z
#    x 1.745150 0.000000 0.000000 
#    y 0.000000 1.745150 0.000000 
#    z 0.000000 0.000000 1.785260 
# 
# From -- ./inp_files/4884.got.cif
#   From: 2010.03.12/outbox.cif.g09.slc.cpg/sg141_3_cif.got.tgz:4884.got - 2010.04.03 13:18:35.
