data_PCOD8321993
_publ_section_title
;
Structure prediction by ZEFSAII (Michael W. Deem and Ramdas Pophale) SiO2 
 PCOD8321993
Probable space group: P 31 1 2
;
_chemical_formula_sum "Si O2"
_cell_formula_units_Z 42
_cell_length_a 8.265821
_cell_length_b 8.265821
_cell_length_c 30.637730
_cell_angle_alpha 90.000000
_cell_angle_beta 90.000000
_cell_angle_gamma 120.000000
_cell_volume 1812.838887
_symmetry_space_group_name_H-M "P 31 1 2"
_symmetry_group_IT_number 151
_symmetry_cell_setting 'hexagonal'
loop_
_space_group_symop_operation_xyz
x,y,z
-y,x-y,1/3+z
-x+y,-x,2/3+z
-y,-x,2/3-z
-x+y,y,1/3-z
x,x-y,-z
loop_
_atom_site_type_symbol
_atom_site_label
_atom_site_fract_x
_atom_site_fract_y
_atom_site_fract_z
Si Si1 0.786888 0.891646 0.424489
Si Si2 0.160397 0.460198 0.842813
Si Si3 0.127444 0.854054 0.595694
Si Si4 0.577518 0.429192 0.727765
Si Si5 0.337066 0.244750 0.807879
Si Si6 0.355773 0.286728 0.325412
Si Si7 0.880661 0.375729 0.211883
O O1 0.782357 0.754802 0.462070
O O2 0.742485 0.790267 0.378507
O O3 0.626565 0.938389 0.436307
O O4 0.986357 0.079315 0.427194
O O5 0.331818 0.668183 0.833334
O O6 0.137837 0.420667 0.895103
O O7 0.187912 0.299129 0.822670
O O8 0.963546 0.409527 0.819788
O O9 0.999723 0.645849 0.617488
O O10 0.233117 0.019199 0.630942
O O11 0.430837 0.374485 0.766433
O O12 0.476779 0.291846 0.686384
O O13 0.748428 0.397490 0.745972
O O14 0.464116 0.266453 0.849641
O O15 0.494396 0.505605 0.333334
#
# Coordination Sequence:
#
# PCOD8321993 Si02
#       7
#     6   6   6   6   6   6   6
#     4  10  23  43  69  94 144 185 229 293 354 420
#     4  12  23  38  73 112 146 180 232 296 368 432
#     4  11  24  46  70 103 143 191 239 292 357 436
#     4  10  23  46  70  94 147 190 229 299 359 423
#     4  11  20  42  64 107 142 178 223 295 358 437
#     4  11  27  44  69  98 137 191 253 290 347 429
#     4  11  23  39  70 103 144 182 233 287 375 426
#
# _framework density 23.168084
#
# number of rings (size 3 to 8) (size 9 to 14) (size 15 to 20)
#    0.000    1.143    4.286    2.143    6.000    3.429 
#    2.571    2.857    0.000    0.000    0.000    0.000 
#    0.000    0.000    0.000    0.000    0.000    0.000 
#
# Total GULP energy -520390.440926 kJ/mol
# GULP energy per Si atom -12390.248593 kJ/mol
# Density = 2.311535 g / cm^3
# Si number density = 23.168084 Si / 1000 Ang^3
#
#
#
# Elastic Constant Matrix: (Units=GPa)
#
#
# Indices 1 2 3 4 5 6 
#
# 1 89.4663 25.1615 40.7423 0.0001 -4.2732 0.0000
# 2 25.1615 89.4663 40.7423 -0.0001 4.2732 0.0000
# 3 40.7423 40.7423 106.7292 0.0000 0.0000 0.0000
# 4 0.0001 -0.0001 0.0000 42.8704 0.0000 4.2732
# 5 -4.2732 4.2732 0.0000 0.0000 42.8704 0.0001
# 6 0.0000 0.0000 0.0000 4.2732 0.0001 32.1524
#
#
#
# Elastic Compliance Matrix: (Units=1/GPa)
#
#
# Indices 1 2 3 4 5 6 
#
# 1 0.013866 -0.001893 -0.004570 0.000000 0.001571 0.000000
# 2 -0.001893 0.013866 -0.004570 0.000000 -0.001571 0.000000
# 3 -0.004570 -0.004570 0.012859 0.000000 0.000000 0.000000
# 4 0.000000 0.000000 0.000000 0.023639 0.000000 -0.003142
# 5 0.001571 -0.001571 0.000000 0.000000 0.023639 0.000000
# 6 0.000000 0.000000 0.000000 -0.003142 0.000000 0.031519
#
#
# Mechanical properties :
#
#
# Convention : Reuss Voigt Hill
#
# Bulk Modulus (GPa) = 53.98755 55.43933 54.71344
# Shear Modulus (GPa) = 33.86788 35.51301 34.69044
#
# Velocity S-wave (km/s) = 3.82754 3.91940 3.87374
# Velocity P-wave (km/s) = 6.54878 6.66809 6.60870
#
# Compressibility (1/GPa) = 0.01852279
#
# Stress axis : x y z
#
# Youngs Moduli (GPa) = 72.11731 72.11731 77.76700
#
# Poissons Ratio (x) = 0.13655 0.35543
# Poissons Ratio (y) = 0.13655 0.35543
# Poissons Ratio (z) = 0.32961 0.32961
#
# Static dielectric constant tensor:
#      x y z
#    x 4.168830 0.000000 0.000000 
#    y 0.000000 4.168830 0.000000 
#    z 0.000000 0.000000 4.269740 
# 
# 
# High freq. dielectric constant tensor:
#      x y z
#    x 1.911960 0.000000 0.000000 
#    y 0.000000 1.911960 0.000000 
#    z 0.000000 0.000000 1.918590 
# 
# From -- ./inp_files/5047.got.cif
#   From: 2010.03.12/outbox.cif.g09.slc.cpg/sg151_3_cif.got.tgz:5047.got - 2010.04.03 13:42:29.
