data_PCOD8321794
_publ_section_title
;
Structure prediction by ZEFSAII (Michael W. Deem and Ramdas Pophale) SiO2 
 PCOD8321794
Probable space group: R -3
;
_chemical_formula_sum "Si O2"
_cell_formula_units_Z 114
_cell_length_a 21.420520
_cell_length_b 21.420520
_cell_length_c 13.091602
_cell_angle_alpha 90.000000
_cell_angle_beta 90.000000
_cell_angle_gamma 120.000000
_cell_volume 5202.156873
_symmetry_space_group_name_H-M "R -3"
_symmetry_group_IT_number 148
_symmetry_cell_setting 'hexagonal'
loop_
_space_group_symop_operation_xyz
x,y,z
-y,x-y,z
-x+y,-x,z
-x,-y,-z
y,-x+y,-z
x-y,x,-z
2/3+x,1/3+y,1/3+z
2/3-y,1/3+x-y,1/3+z
2/3-x+y,1/3-x,1/3+z
2/3-x,1/3-y,1/3-z
2/3+y,1/3-x+y,1/3-z
2/3+x-y,1/3+x,1/3-z
1/3+x,2/3+y,2/3+z
1/3-y,2/3+x-y,2/3+z
1/3-x+y,2/3-x,2/3+z
1/3-x,2/3-y,2/3-z
1/3+y,2/3-x+y,2/3-z
1/3+x-y,2/3+x,2/3-z
loop_
_atom_site_type_symbol
_atom_site_label
_atom_site_fract_x
_atom_site_fract_y
_atom_site_fract_z
Si Si1 0.333334 0.666667 0.543998
Si Si2 0.573593 0.187497 0.790979
Si Si3 0.101720 0.284369 0.758131
Si Si4 0.365009 0.160025 0.861552
Si Si5 0.611739 0.890833 0.467412
Si Si6 0.445343 0.813380 0.435944
Si Si7 0.645340 0.005083 0.924953
O O1 0.333335 0.666668 0.666667
O O2 0.395391 0.744049 0.504098
O O3 0.551885 0.226035 0.877394
O O4 0.532872 0.103486 0.817982
O O5 0.552130 0.206737 0.681991
O O6 0.166667 0.333334 0.833334
O O7 0.130581 0.318796 0.647323
O O8 0.081668 0.201814 0.770412
O O9 0.025682 0.281042 0.774765
O O10 0.301315 0.163000 0.798954
O O11 0.374416 0.097141 0.812262
O O12 0.526350 0.852650 0.477995
O O13 0.645815 0.947488 0.374744
O O14 0.647346 0.935841 0.570913
#
# Coordination Sequence:
#
# PCOD8321794 Si02
#       7
#     6  18  18  18  18  18  18
#     4  12  30  54  70 101 142 198 258 300 352 443
#     4  11  22  41  71 103 137 180 227 288 368 434
#     4  11  24  46  69 104 143 192 236 296 363 435
#     4  11  25  41  70 103 142 183 234 296 359 428
#     4  12  25  45  71 106 143 186 240 301 362 433
#     4  11  26  46  70 100 143 183 244 298 359 430
#     4  12  24  44  70 106 145 185 239 297 359 435
#
# _framework density 21.913986999999999
#
# number of rings (size 3 to 8) (size 9 to 14) (size 15 to 20)
#    0.000    0.632    3.158    5.368    4.421    1.263 
#    0.000    0.000    0.000    0.000    0.000    0.000 
#    0.000    0.000    0.000    0.000    0.000    0.000 
#
# Total GULP energy -471270.623738 kJ/mol
# GULP energy per Si atom -12401.858519 kJ/mol
# Density = 2.186411 g / cm^3
# Si number density = 21.913987 Si / 1000 Ang^3
#
#
#
# Elastic Constant Matrix: (Units=GPa)
#
#
# Indices 1 2 3 4 5 6 
#
# 1 96.5576 17.9836 29.0913 2.0960 0.0319 -0.0002
# 2 17.9836 96.5582 29.0916 -2.0963 -0.0320 0.0000
# 3 29.0913 29.0916 84.5906 0.0000 0.0000 0.0000
# 4 2.0960 -2.0963 0.0000 36.7024 0.0000 -0.0321
# 5 0.0319 -0.0320 0.0000 0.0000 36.7023 2.0961
# 6 -0.0002 0.0000 0.0000 -0.0321 2.0961 39.2870
#
#
#
# Elastic Compliance Matrix: (Units=1/GPa)
#
#
# Indices 1 2 3 4 5 6 
#
# 1 0.011672 -0.001094 -0.003638 -0.000729 -0.000011 0.000000
# 2 -0.001094 0.011672 -0.003638 0.000729 0.000011 0.000000
# 3 -0.003638 -0.003638 0.014324 0.000000 0.000000 0.000000
# 4 -0.000729 0.000729 0.000000 0.027329 0.000000 0.000022
# 5 -0.000011 0.000011 0.000000 0.000000 0.027330 -0.001458
# 6 0.000000 0.000000 0.000000 0.000022 -0.001458 0.025532
#
#
# Mechanical properties :
#
#
# Convention : Reuss Voigt Hill
#
# Bulk Modulus (GPa) = 47.78117 47.78215 47.78166
# Shear Modulus (GPa) = 35.31716 35.97434 35.64575
#
# Velocity S-wave (km/s) = 4.01886 4.05608 4.03751
# Velocity P-wave (km/s) = 6.58683 6.61721 6.60204
#
# Compressibility (1/GPa) = 0.02092875
#
# Stress axis : x y z
#
# Youngs Moduli (GPa) = 85.67432 85.67471 69.81316
#
# Poissons Ratio (x) = 0.09370 0.25398
# Poissons Ratio (y) = 0.09370 0.25398
# Poissons Ratio (z) = 0.31168 0.31169
#
# Static dielectric constant tensor:
#      x y z
#    x 4.030590 0.000000 0.000000 
#    y 0.000000 4.030570 0.000010 
#    z 0.000000 0.000010 3.982550 
# 
# 
# High freq. dielectric constant tensor:
#      x y z
#    x 1.871740 0.000000 0.000000 
#    y 0.000000 1.871740 0.000000 
#    z 0.000000 0.000000 1.858390 
# 
# From -- ./inp_files/2109.got.cif
#   From: 2010.03.12/outbox.cif.g09.slc.cpg/sg148_2_cif.got.tgz:2109.got - 2010.04.03 13:38:46.
