data_PCOD8321453
_publ_section_title
;
Structure prediction by ZEFSAII (Michael W. Deem and Ramdas Pophale) SiO2 
 PCOD8321453
Probable space group: P 31
;
_chemical_formula_sum "Si O2"
_cell_formula_units_Z 18
_cell_length_a 8.368385
_cell_length_b 8.368385
_cell_length_c 10.977176
_cell_angle_alpha 90.000000
_cell_angle_beta 90.000000
_cell_angle_gamma 120.000000
_cell_volume 665.739865
_symmetry_space_group_name_H-M "P 31"
_symmetry_group_IT_number 144
_symmetry_cell_setting 'hexagonal'
loop_
_space_group_symop_operation_xyz
x,y,z
-y,x-y,1/3+z
-x+y,-x,2/3+z
loop_
_atom_site_type_symbol
_atom_site_label
_atom_site_fract_x
_atom_site_fract_y
_atom_site_fract_z
Si Si1 0.292783 0.422484 0.421410
Si Si2 0.422481 0.292776 0.075718
Si Si3 0.337241 0.774199 0.327957
Si Si4 0.083247 0.083248 0.248566
Si Si5 0.774196 0.337237 0.169172
Si Si6 0.760256 0.999995 0.081900
O O1 0.353927 0.589079 0.324106
O O2 0.192078 0.461346 0.532198
O O3 0.154436 0.228694 0.358920
O O4 0.468944 0.418350 0.472236
O O5 0.418364 0.468943 0.024885
O O6 0.228685 0.154441 0.138207
O O7 0.589071 0.353913 0.173026
O O8 0.461344 0.192067 0.964932
O O9 0.183969 0.744312 0.432167
O O10 0.043252 0.885622 0.295318
O O11 0.885611 0.043233 0.201818
O O12 0.744314 0.183962 0.064966
#
# Coordination Sequence:
#
# PCOD8321453 Si02
#       6
#     3   3   3   3   3   3
#     4  12  27  50  77 111 154 201 253 311 378 450
#     4  12  27  50  77 111 154 201 253 311 378 450
#     4  12  26  46  75 111 152 202 252 311 376 450
#     4  12  28  50  76 108 150 200 252 312 378 448
#     4  12  26  46  75 111 152 202 252 311 376 450
#     4  12  26  44  72 106 146 194 250 310 374 442
#
# _framework density 27.037590999999999
#
# number of rings (size 3 to 8) (size 9 to 14) (size 15 to 20)
#    0.000    0.000    0.000   10.000    0.000    8.000 
#    0.000    0.000    0.000    0.000    0.000    0.000 
#    0.000    0.000    0.000    0.000    0.000    0.000 
#
# Total GULP energy -223262.696706 kJ/mol
# GULP energy per Si atom -12403.483150 kJ/mol
# Density = 2.697605 g / cm^3
# Si number density = 27.037591 Si / 1000 Ang^3
#
#
#
# Elastic Constant Matrix: (Units=GPa)
#
#
# Indices 1 2 3 4 5 6 
#
# 1 112.9518 25.0967 11.5518 9.3967 -0.0030 0.0000
# 2 25.0967 112.9518 11.5518 -9.3967 0.0030 0.0000
# 3 11.5518 11.5518 97.2508 0.0000 0.0000 0.0000
# 4 9.3967 -9.3967 0.0000 38.3873 0.0000 0.0030
# 5 -0.0030 0.0030 0.0000 0.0000 38.3873 9.3967
# 6 0.0000 0.0000 0.0000 0.0030 9.3967 43.9276
#
#
#
# Elastic Compliance Matrix: (Units=1/GPa)
#
#
# Indices 1 2 3 4 5 6 
#
# 1 0.009701 -0.002310 -0.000878 -0.002940 0.000001 0.000000
# 2 -0.002310 0.009701 -0.000878 0.002940 -0.000001 0.000000
# 3 -0.000878 -0.000878 0.010491 0.000000 0.000000 0.000000
# 4 -0.002940 0.002940 0.000000 0.027490 0.000000 -0.000002
# 5 0.000001 -0.000001 0.000000 0.000000 0.027490 -0.005880
# 6 0.000000 0.000000 0.000000 -0.000002 -0.005880 0.024023
#
#
# Mechanical properties :
#
#
# Convention : Reuss Voigt Hill
#
# Bulk Modulus (GPa) = 45.95342 46.61721 46.28531
# Shear Modulus (GPa) = 40.23128 42.47070 41.35099
#
# Velocity S-wave (km/s) = 3.86161 3.96763 3.91498
# Velocity P-wave (km/s) = 6.07583 6.18616 6.13124
#
# Compressibility (1/GPa) = 0.02176117
#
# Stress axis : x y z
#
# Youngs Moduli (GPa) = 103.08168 103.08168 95.31746
#
# Poissons Ratio (x) = 0.23815 0.08368
# Poissons Ratio (y) = 0.23815 0.08368
# Poissons Ratio (z) = 0.09050 0.09050
#
# Static dielectric constant tensor:
#      x y z
#    x 5.267570 0.000000 0.000000 
#    y 0.000000 5.267570 0.000000 
#    z 0.000000 0.000000 5.178180 
# 
# 
# High freq. dielectric constant tensor:
#      x y z
#    x 2.107200 0.000000 0.000000 
#    y 0.000000 2.107200 0.000000 
#    z 0.000000 0.000000 2.100270 
# 
# From -- ./inp_files/553.got.cif
#   From: 2010.03.12/outbox.cif.g09.slc.cpg/sg144_cif.got.tgz:553.got - 2010.04.03 13:34:42.
