data_PCOD8321757
_publ_section_title
;
Structure prediction by ZEFSAII (Michael W. Deem and Ramdas Pophale) SiO2 
 PCOD8321757
Probable space group: R -3
;
_chemical_formula_sum "Si O2"
_cell_formula_units_Z 84
_cell_length_a 13.514743
_cell_length_b 13.514743
_cell_length_c 23.159536
_cell_angle_alpha 90.000000
_cell_angle_beta 90.000000
_cell_angle_gamma 120.000000
_cell_volume 3663.330221
_symmetry_space_group_name_H-M "R -3"
_symmetry_group_IT_number 148
_symmetry_cell_setting 'hexagonal'
loop_
_space_group_symop_operation_xyz
x,y,z
-y,x-y,z
-x+y,-x,z
-x,-y,-z
y,-x+y,-z
x-y,x,-z
2/3+x,1/3+y,1/3+z
2/3-y,1/3+x-y,1/3+z
2/3-x+y,1/3-x,1/3+z
2/3-x,1/3-y,1/3-z
2/3+y,1/3-x+y,1/3-z
2/3+x-y,1/3+x,1/3-z
1/3+x,2/3+y,2/3+z
1/3-y,2/3+x-y,2/3+z
1/3-x+y,2/3-x,2/3+z
1/3-x,2/3-y,2/3-z
1/3+y,2/3-x+y,2/3-z
1/3+x-y,2/3+x,2/3-z
loop_
_atom_site_type_symbol
_atom_site_label
_atom_site_fract_x
_atom_site_fract_y
_atom_site_fract_z
Si Si1 0.646267 0.001084 0.955992
Si Si2 0.575686 0.453395 0.370351
Si Si3 0.000000 0.000000 0.243842
Si Si4 0.419997 0.140437 0.596164
Si Si5 0.466286 0.077981 0.824508
Si Si6 0.000000 0.000000 0.110121
O O1 0.663716 0.889089 0.946699
O O2 0.721429 0.094603 0.907757
O O3 0.516121 0.959821 0.947044
O O4 0.677360 0.052194 0.022055
O O5 0.708224 0.537526 0.348838
O O6 0.582032 0.378493 0.422386
O O7 0.890366 0.882269 0.263149
O O8 0.000000 0.000000 0.176398
O O9 0.361436 0.083254 0.534690
O O10 0.450425 0.184613 0.840468
#
# Coordination Sequence:
#
# PCOD8321757 Si02
#       6
#    18  18   6  18  18   6
#     4  10  22  41  61  90 129 157 211 257 303 370
#     4   9  19  34  61  89 116 158 204 246 308 359
#     4  12  24  43  61  84 136 169 201 256 323 352
#     4  10  25  40  60  92 124 165 212 254 304 381
#     4  10  22  42  66  94 125 161 208 258 313 369
#     4   9  19  40  57  93 123 154 208 253 290 388
#
# _framework density 22.929956000000001
#
# number of rings (size 3 to 8) (size 9 to 14) (size 15 to 20)
#    0.000    2.143    0.000    2.357    6.000    3.429 
#    3.857    5.357    0.000    0.000    0.000    0.000 
#    0.000    0.000    0.000    0.000    0.000    0.000 
#
# Total GULP energy -346891.840050 kJ/mol
# GULP energy per Si atom -12388.994288 kJ/mol
# Density = 2.287777 g / cm^3
# Si number density = 22.929956 Si / 1000 Ang^3
#
#
#
# Elastic Constant Matrix: (Units=GPa)
#
#
# Indices 1 2 3 4 5 6 
#
# 1 63.5777 -18.5177 13.8913 0.0341 -1.1145 0.0000
# 2 -18.5177 63.5777 13.8913 -0.0341 1.1145 0.0000
# 3 13.8913 13.8913 124.6060 0.0000 0.0000 0.0000
# 4 0.0341 -0.0341 0.0000 30.9739 0.0000 1.1145
# 5 -1.1145 1.1145 0.0000 0.0000 30.9739 0.0341
# 6 0.0000 0.0000 0.0000 1.1145 0.0341 41.0477
#
#
#
# Elastic Compliance Matrix: (Units=1/GPa)
#
#
# Indices 1 2 3 4 5 6 
#
# 1 0.018012 0.005819 -0.002657 -0.000013 0.000439 0.000000
# 2 0.005819 0.018012 -0.002657 0.000013 -0.000439 0.000000
# 3 -0.002657 -0.002657 0.008618 0.000000 0.000000 0.000000
# 4 -0.000013 0.000013 0.000000 0.032317 0.000000 -0.000877
# 5 0.000439 -0.000439 0.000000 0.000000 0.032317 -0.000027
# 6 0.000000 0.000000 0.000000 -0.000877 -0.000027 0.024386
#
#
# Mechanical properties :
#
#
# Convention : Reuss Voigt Hill
#
# Bulk Modulus (GPa) = 21.90475 30.03235 25.96855
# Shear Modulus (GPa) = 33.81419 36.76554 35.28987
#
# Velocity S-wave (km/s) = 3.84431 4.00857 3.92730
# Velocity P-wave (km/s) = 5.41097 5.87799 5.64931
#
# Compressibility (1/GPa) = 0.04565219
#
# Stress axis : x y z
#
# Youngs Moduli (GPa) = 55.51932 55.51932 116.04108
#
# Poissons Ratio (x) = -0.32306 0.30828
# Poissons Ratio (y) = -0.32306 0.30828
# Poissons Ratio (z) = 0.14750 0.14750
#
# Static dielectric constant tensor:
#      x y z
#    x 1.265980 0.000000 0.000000 
#    y 0.000000 1.265980 0.000000 
#    z 0.000000 0.000000 4.288170 
# 
# 
# High freq. dielectric constant tensor:
#      x y z
#    x 1.918130 0.000000 0.000000 
#    y 0.000000 1.918130 0.000000 
#    z 0.000000 0.000000 1.900020 
# 
# From -- ./inp_files/3339.got.cif
#   From: 2010.03.12/outbox.cif.g09.slc.cpg/sg148_2_cif.got.tgz:3339.got - 2010.04.03 13:38:46.
