data_PCOD8321586
_publ_section_title
;
Structure prediction by ZEFSAII (Michael W. Deem and Ramdas Pophale) SiO2 
 PCOD8321586
Probable space group: P -3
;
_chemical_formula_sum "Si O2"
_cell_formula_units_Z 48
_cell_length_a 18.057540
_cell_length_b 18.057540
_cell_length_c 12.024085
_cell_angle_alpha 90.000000
_cell_angle_beta 90.000000
_cell_angle_gamma 120.000000
_cell_volume 3395.469553
_symmetry_space_group_name_H-M "P -3"
_symmetry_group_IT_number 147
_symmetry_cell_setting 'hexagonal'
loop_
_space_group_symop_operation_xyz
x,y,z
-y,x-y,z
-x+y,-x,z
-x,-y,-z
y,-x+y,-z
x-y,x,-z
loop_
_atom_site_type_symbol
_atom_site_label
_atom_site_fract_x
_atom_site_fract_y
_atom_site_fract_z
Si Si1 0.493664 0.162832 0.236150
Si Si2 1.000000 0.412039 0.374896
Si Si3 0.669168 0.162832 0.763850
Si Si4 0.330832 0.837168 0.763850
Si Si5 0.506336 0.837168 0.236150
Si Si6 0.459991 0.364982 1.000000
Si Si7 1.000000 0.587961 0.374896
Si Si8 0.904991 0.364982 1.000000
O O1 0.587776 0.175551 0.246187
O O2 0.496941 0.248470 0.279231
O O3 0.460369 0.145902 0.109346
O O4 0.426087 0.084456 0.311660
O O5 0.084456 0.426087 0.311660
O O6 1.000000 0.500000 0.374801
O O7 0.000000 0.380288 0.500000
O O8 0.587776 0.175551 0.753813
O O9 0.751530 0.248470 0.720769
O O10 0.685532 0.145902 0.890654
O O11 0.314468 0.854098 0.890654
O O12 0.341631 0.915544 0.688340
O O13 0.573913 0.915544 0.311660
O O14 0.539631 0.854098 0.109346
O O15 0.542407 0.457593 1.000000
O O16 0.377094 0.377094 1.000000
#
# Coordination Sequence:
#
# PCOD8321586 Si02
#       8
#     6   6   6   6   6   6   6   6
#     4  10  18  28  43  62  83 107 139 177 212 245
#     4   9  18  31  43  55  77 110 142 171 208 250
#     4  10  18  28  43  62  83 107 139 177 212 245
#     4  10  18  28  43  62  83 107 139 177 212 245
#     4  10  18  28  43  62  83 107 139 177 212 245
#     4   9  15  26  42  59  80 108 137 166 207 255
#     4   9  18  31  43  55  77 110 142 171 208 250
#     4   9  15  26  42  59  80 108 137 166 207 255
#
# _framework density 14.136483
#
# number of rings (size 3 to 8) (size 9 to 14) (size 15 to 20)
#    0.000    2.500    2.500    1.250    0.000    1.000 
#    0.000    2.500    0.000    3.000    0.000    0.000 
#    0.000    0.000    0.000    0.750    0.000    6.500 
#
# Total GULP energy -595072.199177 kJ/mol
# GULP energy per Si atom -12397.337483 kJ/mol
# Density = 1.410431 g / cm^3
# Si number density = 14.136483 Si / 1000 Ang^3
#
#
#
# Elastic Constant Matrix: (Units=GPa)
#
#
# Indices 1 2 3 4 5 6 
#
# 1 73.8654 36.8955 36.5898 0.0000 0.0000 0.0000
# 2 36.8955 73.8654 36.5898 0.0000 0.0000 0.0000
# 3 36.5898 36.5898 114.8273 0.0000 0.0000 0.0000
# 4 0.0000 0.0000 0.0000 10.1814 0.0000 0.0000
# 5 0.0000 0.0000 0.0000 0.0000 10.1814 0.0000
# 6 0.0000 0.0000 0.0000 0.0000 0.0000 18.4849
#
#
#
# Elastic Compliance Matrix: (Units=1/GPa)
#
#
# Indices 1 2 3 4 5 6 
#
# 1 0.019243 -0.007806 -0.003644 0.000000 0.000000 0.000000
# 2 -0.007806 0.019243 -0.003644 0.000000 0.000000 0.000000
# 3 -0.003644 -0.003644 0.011031 0.000000 0.000000 0.000000
# 4 0.000000 0.000000 0.000000 0.098218 0.000000 0.000000
# 5 0.000000 0.000000 0.000000 0.000000 0.098218 0.000000
# 6 0.000000 0.000000 0.000000 0.000000 0.000000 0.054098
#
#
# Mechanical properties :
#
#
# Convention : Reuss Voigt Hill
#
# Bulk Modulus (GPa) = 51.74144 53.63426 52.68785
# Shear Modulus (GPa) = 14.85078 17.93509 16.39294
#
# Velocity S-wave (km/s) = 3.24470 3.56576 3.40901
# Velocity P-wave (km/s) = 7.12168 7.41455 7.26959
#
# Compressibility (1/GPa) = 0.01932687
#
# Stress axis : x y z
#
# Youngs Moduli (GPa) = 51.96810 51.96810 90.65251
#
# Poissons Ratio (x) = 0.40569 0.33035
# Poissons Ratio (y) = 0.40569 0.33035
# Poissons Ratio (z) = 0.18938 0.18938
#
# Static dielectric constant tensor:
#      x y z
#    x 2.529270 0.000000 0.000000 
#    y 0.000000 2.529270 0.000000 
#    z 0.000000 0.000000 3.009000 
# 
# 
# High freq. dielectric constant tensor:
#      x y z
#    x 1.506970 0.000000 0.000000 
#    y 0.000000 1.506970 0.000000 
#    z 0.000000 0.000000 1.551930 
# 
# From -- ./inp_files/884.got.cif
#   From: 2010.03.12/outbox.cif.g09.slc.cpg/sg147_cif.got.tgz:884.got - 2010.04.03 13:37:56.
