data_PCOD8321961
_publ_section_title
;
Structure prediction by ZEFSAII (Michael W. Deem and Ramdas Pophale) SiO2 
 PCOD8321961
Probable space group: P 31 1 2
;
_chemical_formula_sum "Si O2"
_cell_formula_units_Z 24
_cell_length_a 7.592227
_cell_length_b 7.592227
_cell_length_c 27.473415
_cell_angle_alpha 90.000000
_cell_angle_beta 90.000000
_cell_angle_gamma 120.000000
_cell_volume 1371.455269
_symmetry_space_group_name_H-M "P 31 1 2"
_symmetry_group_IT_number 151
_symmetry_cell_setting 'hexagonal'
loop_
_space_group_symop_operation_xyz
x,y,z
-y,x-y,1/3+z
-x+y,-x,2/3+z
-y,-x,2/3-z
-x+y,y,1/3-z
x,x-y,-z
loop_
_atom_site_type_symbol
_atom_site_label
_atom_site_fract_x
_atom_site_fract_y
_atom_site_fract_z
Si Si1 0.396218 0.006729 0.215283
Si Si2 0.412591 0.008579 0.788164
Si Si3 0.449409 0.894684 0.893486
Si Si4 0.692151 0.344077 0.723379
O O1 0.478386 0.956771 0.166667
O O2 0.307663 0.158659 0.203993
O O3 0.578773 0.118268 0.254780
O O4 0.223905 0.795222 0.237353
O O5 0.502959 0.988620 0.839402
O O6 0.250497 0.791665 0.766676
O O7 0.600246 0.124011 0.750332
O O8 0.521389 0.068677 0.933757
O O9 0.653051 0.306102 0.666667
#
# Coordination Sequence:
#
# PCOD8321961 Si02
#       4
#     6   6   6   6
#     4  10  19  38  58  87 113 143 201 242 272 339
#     4   9  20  38  58  86 112 143 203 233 280 340
#     4  11  19  39  63  83 111 153 193 249 283 320
#     4  10  22  42  53  85 130 148 184 238 288 360
#
# _framework density 17.499659999999999
#
# number of rings (size 3 to 8) (size 9 to 14) (size 15 to 20)
#    1.500    0.500    5.000    0.750    0.000    1.000 
#   18.000    0.000    0.000    0.000    0.000    0.000 
#    0.000    0.000    0.000    0.000    0.000    0.000 
#
# Total GULP energy -297434.901956 kJ/mol
# GULP energy per Si atom -12393.120915 kJ/mol
# Density = 1.745983 g / cm^3
# Si number density = 17.499660 Si / 1000 Ang^3
#
#
#
# Elastic Constant Matrix: (Units=GPa)
#
#
# Indices 1 2 3 4 5 6 
#
# 1 101.4265 36.6055 19.4797 0.0005 2.4649 0.0000
# 2 36.6055 101.4265 19.4797 -0.0005 -2.4649 0.0000
# 3 19.4797 19.4797 80.9300 0.0000 0.0000 0.0000
# 4 0.0005 -0.0005 0.0000 8.7371 0.0000 -2.4649
# 5 2.4649 -2.4649 0.0000 0.0000 8.7371 0.0005
# 6 0.0000 0.0000 0.0000 -2.4649 0.0005 32.4105
#
#
#
# Elastic Compliance Matrix: (Units=1/GPa)
#
#
# Indices 1 2 3 4 5 6 
#
# 1 0.011769 -0.003996 -0.001871 -0.000001 -0.004448 0.000000
# 2 -0.003996 0.011769 -0.001871 0.000001 0.004448 0.000000
# 3 -0.001871 -0.001871 0.013257 0.000000 0.000000 0.000000
# 4 -0.000001 0.000001 0.000000 0.116964 0.000000 0.008895
# 5 -0.004448 0.004448 0.000000 0.000000 0.116964 -0.000002
# 6 0.000000 0.000000 0.000000 0.008895 -0.000002 0.031531
#
#
# Mechanical properties :
#
#
# Convention : Reuss Voigt Hill
#
# Bulk Modulus (GPa) = 46.90663 48.32366 47.61515
# Shear Modulus (GPa) = 15.39233 23.85813 19.62523
#
# Velocity S-wave (km/s) = 2.96899 3.69636 3.35246
# Velocity P-wave (km/s) = 6.21415 6.77432 6.50027
#
# Compressibility (1/GPa) = 0.02131895
#
# Stress axis : x y z
#
# Youngs Moduli (GPa) = 84.96857 84.96857 75.43188
#
# Poissons Ratio (x) = 0.33956 0.14112
# Poissons Ratio (y) = 0.33956 0.14112
# Poissons Ratio (z) = 0.15897 0.15897
#
# Static dielectric constant tensor:
#      x y z
#    x 3.197830 0.000000 0.000000 
#    y 0.000000 3.197830 0.000000 
#    z 0.000000 0.000000 2.983210 
# 
# 
# High freq. dielectric constant tensor:
#      x y z
#    x 1.670020 0.000000 0.000000 
#    y 0.000000 1.670020 0.000000 
#    z 0.000000 0.000000 1.658960 
# 
# From -- ./inp_files/4082.got.cif
#   From: 2010.03.12/outbox.cif.g09.slc.cpg/sg151_3_cif.got.tgz:4082.got - 2010.04.03 13:42:29.
