data_PCOD8321885
_publ_section_title
;
Structure prediction by ZEFSAII (Michael W. Deem and Ramdas Pophale) SiO2 
 PCOD8321885
Probable space group: P 3 2 1
;
_chemical_formula_sum "Si O2"
_cell_formula_units_Z 48
_cell_length_a 12.638229
_cell_length_b 12.638229
_cell_length_c 20.460488
_cell_angle_alpha 90.000000
_cell_angle_beta 90.000000
_cell_angle_gamma 120.000000
_cell_volume 2830.212601
_symmetry_space_group_name_H-M "P 3 2 1"
_symmetry_group_IT_number 150
_symmetry_cell_setting 'hexagonal'
loop_
_space_group_symop_operation_xyz
x,y,z
-y,x-y,z
-x+y,-x,z
x-y,-y,-z
-x,-x+y,-z
y,x,-z
loop_
_atom_site_type_symbol
_atom_site_label
_atom_site_fract_x
_atom_site_fract_y
_atom_site_fract_z
Si Si1 0.334633 0.914240 0.317588
Si Si2 0.420393 0.334633 0.682412
Si Si3 0.335096 0.915727 0.560833
Si Si4 0.580631 0.915727 0.560833
Si Si5 0.578677 0.666523 0.798803
Si Si6 0.667496 0.088656 0.054187
Si Si7 0.578677 0.912154 0.798803
Si Si8 0.578841 0.667496 0.945813
O O1 0.204342 0.795658 0.327608
O O2 0.437342 0.874684 0.320622
O O3 0.356323 0.011269 0.373530
O O4 0.336942 0.975953 0.248474
O O5 0.345054 0.356323 0.626470
O O6 0.360989 0.336942 0.751526
O O7 0.438895 0.877791 0.557855
O O8 0.205193 0.794807 0.558668
O O9 0.346036 0.000000 0.500000
O O10 0.653964 0.000000 0.500000
O O11 0.589400 0.794700 0.779977
O O12 0.437007 0.562993 0.791216
O O13 0.626266 0.668337 0.872356
O O14 0.668337 0.042070 0.127644
O O15 0.779098 0.220902 0.042700
O O16 0.549756 0.099513 0.041228
O O17 0.675030 0.000000 0.000000
O O18 0.675030 0.675030 0.000000
#
# Coordination Sequence:
#
# PCOD8321885 Si02
#       8
#     6   6   6   6   6   6   6   6
#     4  10  20  33  50  72  99 129 159 194 237 285
#     4  10  20  33  50  72  99 129 159 194 237 285
#     4  10  20  34  54  78 102 128 159 197 238 280
#     4  10  20  34  54  78 102 128 159 197 238 280
#     4   9  17  30  49  71  94 121 155 197 241 284
#     4   9  17  29  46  69  95 123 155 192 237 285
#     4   9  17  30  49  71  94 121 155 197 241 284
#     4   9  17  29  46  69  95 123 155 192 237 285
#
# _framework density 16.959858000000001
#
# number of rings (size 3 to 8) (size 9 to 14) (size 15 to 20)
#    0.000    2.500    0.000    2.500    0.000    3.000 
#    0.000    5.000    0.000   12.750    0.000    0.000 
#    0.000    0.000    0.000    0.000    0.000    0.000 
#
# Total GULP energy -595196.991465 kJ/mol
# GULP energy per Si atom -12399.937322 kJ/mol
# Density = 1.692126 g / cm^3
# Si number density = 16.959858 Si / 1000 Ang^3
#
#
#
# Elastic Constant Matrix: (Units=GPa)
#
#
# Indices 1 2 3 4 5 6 
#
# 1 98.5577 53.6343 54.8648 -0.7752 0.0000 0.0000
# 2 53.6343 98.5577 54.8648 0.7752 0.0000 0.0000
# 3 54.8648 54.8648 119.7452 0.0000 0.0000 0.0000
# 4 -0.7752 0.7752 0.0000 22.7454 0.0000 0.0000
# 5 0.0000 0.0000 0.0000 0.0000 22.7454 -0.7752
# 6 0.0000 0.0000 0.0000 0.0000 -0.7752 22.4617
#
#
#
# Elastic Compliance Matrix: (Units=1/GPa)
#
#
# Indices 1 2 3 4 5 6 
#
# 1 0.016049 -0.006237 -0.004496 0.000760 0.000000 0.000000
# 2 -0.006237 0.016049 -0.004496 -0.000760 0.000000 0.000000
# 3 -0.004496 -0.004496 0.012471 0.000000 0.000000 0.000000
# 4 0.000760 -0.000760 0.000000 0.044017 0.000000 0.000000
# 5 0.000000 0.000000 0.000000 0.000000 0.044017 0.001519
# 6 0.000000 0.000000 0.000000 0.000000 0.001519 0.044573
#
#
# Mechanical properties :
#
#
# Convention : Reuss Voigt Hill
#
# Bulk Modulus (GPa) = 70.86134 71.50981 71.18558
# Shear Modulus (GPa) = 23.54759 23.82363 23.68561
#
# Velocity S-wave (km/s) = 3.73021 3.75201 3.74112
# Velocity P-wave (km/s) = 7.77336 7.81190 7.79265
#
# Compressibility (1/GPa) = 0.01411207
#
# Stress axis : x y z
#
# Youngs Moduli (GPa) = 62.30865 62.30865 80.18808
#
# Poissons Ratio (x) = 0.38863 0.36050
# Poissons Ratio (y) = 0.38863 0.36050
# Poissons Ratio (z) = 0.28012 0.28012
#
# Static dielectric constant tensor:
#      x y z
#    x 3.004150 0.000000 0.000000 
#    y 0.000000 3.004150 0.000000 
#    z 0.000000 0.000000 3.571810 
# 
# 
# High freq. dielectric constant tensor:
#      x y z
#    x 1.639510 0.000000 0.000000 
#    y 0.000000 1.639510 0.000000 
#    z 0.000000 0.000000 1.675630 
# 
# From -- ./inp_files/1143.got.cif
#   From: 2010.03.12/outbox.cif.g09.slc.cpg/sg150_cif.got.tgz:1143.got - 2010.04.03 13:41:37.
