data_PCOD8321164
_publ_section_title
;
Structure prediction by ZEFSAII (Michael W. Deem and Ramdas Pophale) SiO2 
 PCOD8321164
Probable space group: I 41/A C D
;
_chemical_formula_sum "Si O2"
_cell_formula_units_Z 160
_cell_length_a 30.763579
_cell_length_b 30.763579
_cell_length_c 8.095278
_cell_angle_alpha 90.000000
_cell_angle_beta 90.000000
_cell_angle_gamma 90.000000
_cell_volume 7661.353232
_symmetry_space_group_name_H-M "I 41/A C D"
_symmetry_group_IT_number 142
_space_group.IT_coordinate_system_code '2'
_symmetry_cell_setting 'tetragonal'
loop_
_space_group_symop_operation_xyz
x,y,z
1/4-y,3/4+x,1/4+z
-x,1/2-y,z
1/4+y,1/4-x,3/4+z
x,-y,1/2-z
1/2-x,y,-z
3/4+y,1/4+x,1/4-z
1/4-y,1/4-x,1/4-z
-x,-y,-z
3/4+y,1/4-x,3/4-z
x,1/2+y,-z
3/4-y,3/4+x,1/4-z
-x,y,1/2+z
1/2+x,-y,z
1/4-y,3/4-x,3/4+z
3/4+y,3/4+x,3/4+z
1/2+x,1/2+y,1/2+z
3/4-y,1/4+x,3/4+z
1/2-x,-y,1/2+z
3/4+y,3/4-x,1/4+z
1/2+x,1/2-y,-z
-x,1/2+y,1/2-z
1/4+y,3/4+x,3/4-z
3/4-y,3/4-x,3/4-z
1/2-x,1/2-y,1/2-z
1/4+y,3/4-x,1/4-z
1/2+x,y,1/2-z
1/4-y,1/4+x,3/4-z
1/2-x,1/2+y,z
x,1/2-y,1/2+z
3/4-y,1/4-x,1/4+z
1/4+y,1/4+x,1/4+z
loop_
_atom_site_type_symbol
_atom_site_label
_atom_site_fract_x
_atom_site_fract_y
_atom_site_fract_z
Si Si1 0.804330 0.000000 0.750000
Si Si2 0.121690 0.371690 0.125000
Si Si3 0.200941 0.289332 0.460462
Si Si4 0.555724 0.739845 0.278842
Si Si5 0.027114 0.102168 0.588185
Si Si6 0.865375 0.424751 0.289683
O O1 0.773065 0.023065 0.625000
O O2 0.834590 0.035303 0.839940
O O3 0.130544 0.321500 0.078906
O O4 0.146198 0.384441 0.293871
O O5 0.250000 0.274238 0.500000
O O6 0.163782 0.257901 0.531423
O O7 0.191411 0.287397 0.265917
O O8 0.192906 0.338194 0.519549
O O9 0.539202 0.712693 0.443266
O O10 0.607811 0.741619 0.270766
O O11 0.534559 0.715442 0.125000
O O12 0.849305 0.400696 0.125000
#
# Coordination Sequence:
#
# PCOD8321164 Si02
#       6
#    16  16  32  32  32  32
#     4  10  22  42  70 108 132 172 218 280 352 426
#     4  10  24  44  62 101 132 178 228 276 328 406
#     4  11  24  43  65  94 130 170 219 282 334 404
#     4  11  22  38  60  91 131 169 215 270 327 387
#     4  11  24  40  66  91 131 173 231 268 333 407
#     4  10  23  44  71  96 139 172 222 277 343 409
#
# _framework density 20.884039999999999
#
# number of rings (size 3 to 8) (size 9 to 14) (size 15 to 20)
#    0.000    1.400    2.000    3.000    4.200    1.600 
#    0.000    0.000    0.000    0.000    0.000    0.000 
#    0.000    0.000    0.000    0.000    0.000    0.000 
#
# Total GULP energy -991201.439987 kJ/mol
# GULP energy per Si atom -12390.018000 kJ/mol
# Density = 2.083651 g / cm^3
# Si number density = 20.884040 Si / 1000 Ang^3
#
#
#
# Elastic Constant Matrix: (Units=GPa)
#
#
# Indices 1 2 3 4 5 6 
#
# 1 149.8003 63.9574 44.1417 0.0000 0.0000 0.0000
# 2 63.9574 149.8015 44.1427 0.0000 0.0000 0.0000
# 3 44.1417 44.1427 78.7072 0.0000 0.0000 0.0000
# 4 0.0000 0.0000 0.0000 150.3242 0.0000 0.0000
# 5 0.0000 0.0000 0.0000 0.0000 150.6335 0.0000
# 6 0.0000 0.0000 0.0000 0.0000 0.0000 54.1822
#
#
#
# Elastic Compliance Matrix: (Units=1/GPa)
#
#
# Indices 1 2 3 4 5 6 
#
# 1 0.008869 -0.002780 -0.003415 0.000000 0.000000 0.000000
# 2 -0.002780 0.008869 -0.003415 0.000000 0.000000 0.000000
# 3 -0.003415 -0.003415 0.016535 0.000000 0.000000 0.000000
# 4 0.000000 0.000000 0.000000 0.006652 0.000000 0.000000
# 5 0.000000 0.000000 0.000000 0.000000 0.006639 0.000000
# 6 0.000000 0.000000 0.000000 0.000000 0.000000 0.018456
#
#
# Mechanical properties :
#
#
# Convention : Reuss Voigt Hill
#
# Bulk Modulus (GPa) = 66.42853 75.86585 71.14719
# Shear Modulus (GPa) = 55.39712 86.09914 70.74813
#
# Velocity S-wave (km/s) = 5.15593 6.42781 5.82668
# Velocity P-wave (km/s) = 8.20501 9.56530 8.91115
#
# Compressibility (1/GPa) = 0.01505377
#
# Stress axis : x y z
#
# Youngs Moduli (GPa) = 112.75493 112.75503 60.47607
#
# Poissons Ratio (x) = 0.31350 0.20650
# Poissons Ratio (y) = 0.31349 0.20651
# Poissons Ratio (z) = 0.38501 0.38503
#
# Static dielectric constant tensor:
#      x y z
#    x 3.519520 0.000000 0.000000 
#    y 0.000000 3.518710 0.000000 
#    z 0.000000 0.000000 3.811800 
# 
# 
# High freq. dielectric constant tensor:
#      x y z
#    x 1.825920 0.000000 0.000000 
#    y 0.000000 1.825920 0.000000 
#    z 0.000000 0.000000 1.813850 
# 
# From -- ./inp_files/2243.got.cif
#   From: 2010.03.12/outbox.cif.g09.slc.cpg/sg142_2_cif.got.tgz:2243.got - 2010.04.03 13:27:16.
