data_PCOD8321237
_publ_section_title
;
Structure prediction by ZEFSAII (Michael W. Deem and Ramdas Pophale) SiO2 
 PCOD8321237
Probable space group: I 41/A C D
;
_chemical_formula_sum "Si O2"
_cell_formula_units_Z 96
_cell_length_a 15.939543
_cell_length_b 15.939543
_cell_length_c 18.332035
_cell_angle_alpha 90.000000
_cell_angle_beta 90.000000
_cell_angle_gamma 90.000000
_cell_volume 4657.602370
_symmetry_space_group_name_H-M "I 41/A C D"
_symmetry_group_IT_number 142
_space_group.IT_coordinate_system_code '2'
_symmetry_cell_setting 'tetragonal'
loop_
_space_group_symop_operation_xyz
x,y,z
1/4-y,3/4+x,1/4+z
-x,1/2-y,z
1/4+y,1/4-x,3/4+z
x,-y,1/2-z
1/2-x,y,-z
3/4+y,1/4+x,1/4-z
1/4-y,1/4-x,1/4-z
-x,-y,-z
3/4+y,1/4-x,3/4-z
x,1/2+y,-z
3/4-y,3/4+x,1/4-z
-x,y,1/2+z
1/2+x,-y,z
1/4-y,3/4-x,3/4+z
3/4+y,3/4+x,3/4+z
1/2+x,1/2+y,1/2+z
3/4-y,1/4+x,3/4+z
1/2-x,-y,1/2+z
3/4+y,3/4-x,1/4+z
1/2+x,1/2-y,-z
-x,1/2+y,1/2-z
1/4+y,3/4+x,3/4-z
3/4-y,3/4-x,3/4-z
1/2-x,1/2-y,1/2-z
1/4+y,3/4-x,1/4-z
1/2+x,y,1/2-z
1/4-y,1/4+x,3/4-z
1/2-x,1/2+y,z
x,1/2-y,1/2+z
3/4-y,1/4-x,1/4+z
1/4+y,1/4+x,1/4+z
loop_
_atom_site_type_symbol
_atom_site_label
_atom_site_fract_x
_atom_site_fract_y
_atom_site_fract_z
Si Si1 0.909610 0.707776 0.948587
Si Si2 0.443748 0.862258 0.901441
Si Si3 0.604460 0.969025 0.174479
O O1 0.901918 0.651918 0.875000
O O2 0.836892 0.776207 0.949524
O O3 0.000000 0.750000 0.950322
O O4 0.901517 0.648321 0.019092
O O5 0.544361 0.846211 0.904819
O O6 0.427280 0.954928 0.874425
O O7 0.669072 0.919072 0.125000
O O8 0.647749 0.000000 0.250000
#
# Coordination Sequence:
#
# PCOD8321237 Si02
#       3
#    32  32  32
#     4  11  21  43  71  97 131 191 236 273 355 437
#     4  11  22  44  73  98 140 190 237 291 357 430
#     4  12  25  46  71 104 146 182 241 305 352 425
#
# _framework density 20.611463000000001
#
# number of rings (size 3 to 8) (size 9 to 14) (size 15 to 20)
#    0.000    0.667   10.000    0.000    0.000    1.333 
#    6.000    0.000    0.000    0.000    0.000    0.000 
#    0.000    0.000    0.000    0.000    0.000    0.000 
#
# Total GULP energy -595146.523069 kJ/mol
# GULP energy per Si atom -12398.885897 kJ/mol
# Density = 2.056455 g / cm^3
# Si number density = 20.611463 Si / 1000 Ang^3
#
#
#
# Elastic Constant Matrix: (Units=GPa)
#
#
# Indices 1 2 3 4 5 6 
#
# 1 112.3103 57.6383 53.3958 0.0000 0.0000 0.0000
# 2 57.6383 112.3103 53.3958 0.0000 0.0000 0.0000
# 3 53.3958 53.3958 188.2604 0.0000 0.0000 0.0000
# 4 0.0000 0.0000 0.0000 41.8710 0.0000 0.0000
# 5 0.0000 0.0000 0.0000 0.0000 41.8710 0.0000
# 6 0.0000 0.0000 0.0000 0.0000 0.0000 14.5198
#
#
#
# Elastic Compliance Matrix: (Units=1/GPa)
#
#
# Indices 1 2 3 4 5 6 
#
# 1 0.012726 -0.005565 -0.002031 0.000000 0.000000 0.000000
# 2 -0.005565 0.012726 -0.002031 0.000000 0.000000 0.000000
# 3 -0.002031 -0.002031 0.006464 0.000000 0.000000 0.000000
# 4 0.000000 0.000000 0.000000 0.023883 0.000000 0.000000
# 5 0.000000 0.000000 0.000000 0.000000 0.023883 0.000000
# 6 0.000000 0.000000 0.000000 0.000000 0.000000 0.068871
#
#
# Mechanical properties :
#
#
# Convention : Reuss Voigt Hill
#
# Bulk Modulus (GPa) = 78.98307 82.41566 80.69936
# Shear Modulus (GPa) = 29.06528 36.21576 32.64052
#
# Velocity S-wave (km/s) = 3.75927 4.19629 3.98378
# Velocity P-wave (km/s) = 7.56611 7.97186 7.77163
#
# Compressibility (1/GPa) = 0.01266094
#
# Stress axis : x y z
#
# Youngs Moduli (GPa) = 78.58184 78.58183 154.70777
#
# Poissons Ratio (x) = 0.43733 0.31419
# Poissons Ratio (y) = 0.43733 0.31419
# Poissons Ratio (z) = 0.15959 0.15959
#
# Static dielectric constant tensor:
#      x y z
#    x 3.668210 0.000000 0.000000 
#    y 0.000000 3.668210 0.000000 
#    z 0.000000 0.000000 4.739960 
# 
# 
# High freq. dielectric constant tensor:
#      x y z
#    x 1.788060 0.000000 0.000000 
#    y 0.000000 1.788060 0.000000 
#    z 0.000000 0.000000 1.837490 
# 
# From -- ./inp_files/8350.got.cif
#   From: 2010.03.12/outbox.cif.g09.slc.cpg/sg142_5_cif.got.tgz:8350.got - 2010.04.03 13:27:16.
