data_PCOD8321156
_publ_section_title
;
Structure prediction by ZEFSAII (Michael W. Deem and Ramdas Pophale) SiO2 
 PCOD8321156
Probable space group: I 41/A C D
;
_chemical_formula_sum "Si O2"
_cell_formula_units_Z 144
_cell_length_a 20.131016
_cell_length_b 20.131016
_cell_length_c 17.426791
_cell_angle_alpha 90.000000
_cell_angle_beta 90.000000
_cell_angle_gamma 90.000000
_cell_volume 7062.343072
_symmetry_space_group_name_H-M "I 41/A C D"
_symmetry_group_IT_number 142
_space_group.IT_coordinate_system_code '2'
_symmetry_cell_setting 'tetragonal'
loop_
_space_group_symop_operation_xyz
x,y,z
1/4-y,3/4+x,1/4+z
-x,1/2-y,z
1/4+y,1/4-x,3/4+z
x,-y,1/2-z
1/2-x,y,-z
3/4+y,1/4+x,1/4-z
1/4-y,1/4-x,1/4-z
-x,-y,-z
3/4+y,1/4-x,3/4-z
x,1/2+y,-z
3/4-y,3/4+x,1/4-z
-x,y,1/2+z
1/2+x,-y,z
1/4-y,3/4-x,3/4+z
3/4+y,3/4+x,3/4+z
1/2+x,1/2+y,1/2+z
3/4-y,1/4+x,3/4+z
1/2-x,-y,1/2+z
3/4+y,3/4-x,1/4+z
1/2+x,1/2-y,-z
-x,1/2+y,1/2-z
1/4+y,3/4+x,3/4-z
3/4-y,3/4-x,3/4-z
1/2-x,1/2-y,1/2-z
1/4+y,3/4-x,1/4-z
1/2+x,y,1/2-z
1/4-y,1/4+x,3/4-z
1/2-x,1/2+y,z
x,1/2-y,1/2+z
3/4-y,1/4-x,1/4+z
1/4+y,1/4+x,1/4+z
loop_
_atom_site_type_symbol
_atom_site_label
_atom_site_fract_x
_atom_site_fract_y
_atom_site_fract_z
Si Si1 0.250000 0.026553 0.000000
Si Si2 0.946508 0.069977 0.292794
Si Si3 0.003314 0.355215 0.151252
Si Si4 0.161759 0.444921 0.891007
Si Si5 0.024211 0.003530 0.084892
O O1 0.302255 0.072243 0.048938
O O2 0.220212 0.977589 0.061866
O O3 0.985809 0.125394 0.241410
O O4 0.878990 0.101185 0.327308
O O5 0.932025 0.000000 0.250000
O O6 0.992524 0.055164 0.365136
O O7 0.071483 0.321483 0.125000
O O8 0.941714 0.308287 0.125000
O O9 0.996372 0.423860 0.109430
O O10 0.102002 0.494454 0.908403
O O11 0.000000 0.000000 0.000000
#
# Coordination Sequence:
#
# PCOD8321156 Si02
#       5
#    16  32  32  32  32
#     4  10  24  36  62  98 130 176 204 288 342 404
#     4  10  22  41  63  90 128 175 221 271 335 414
#     4  10  23  42  65  90 127 177 225 273 334 402
#     4  11  22  40  63  94 134 168 223 271 346 399
#     4  11  24  39  65  96 125 172 219 277 336 405
#
# _framework density 20.389834
#
# number of rings (size 3 to 8) (size 9 to 14) (size 15 to 20)
#    0.000    1.556    1.111    2.667    7.778    3.556 
#    0.000    0.000    0.000    2.667    0.000    0.000 
#    0.000    0.000    0.000    0.000    0.000    0.000 
#
# Total GULP energy -892078.992975 kJ/mol
# GULP energy per Si atom -12389.986014 kJ/mol
# Density = 2.034343 g / cm^3
# Si number density = 20.389834 Si / 1000 Ang^3
#
#
#
# Elastic Constant Matrix: (Units=GPa)
#
#
# Indices 1 2 3 4 5 6 
#
# 1 94.1950 46.4049 51.8971 0.0000 0.0000 0.0000
# 2 46.4049 94.1936 51.8975 0.0000 0.0000 0.0000
# 3 51.8971 51.8975 163.9576 0.0000 0.0000 0.0000
# 4 0.0000 0.0000 0.0000 24.1573 0.0000 0.0000
# 5 0.0000 0.0000 0.0000 0.0000 24.1587 0.0000
# 6 0.0000 0.0000 0.0000 0.0000 0.0000 32.8642
#
#
#
# Elastic Compliance Matrix: (Units=1/GPa)
#
#
# Indices 1 2 3 4 5 6 
#
# 1 0.015103 -0.005822 -0.002938 0.000000 0.000000 0.000000
# 2 -0.005822 0.015103 -0.002938 0.000000 0.000000 0.000000
# 3 -0.002938 -0.002938 0.007959 0.000000 0.000000 0.000000
# 4 0.000000 0.000000 0.000000 0.041395 0.000000 0.000000
# 5 0.000000 0.000000 0.000000 0.000000 0.041393 0.000000
# 6 0.000000 0.000000 0.000000 0.000000 0.000000 0.030428
#
#
# Mechanical properties :
#
#
# Convention : Reuss Voigt Hill
#
# Bulk Modulus (GPa) = 67.70387 72.52725 70.11556
# Shear Modulus (GPa) = 27.82411 29.71247 28.76829
#
# Velocity S-wave (km/s) = 3.69807 3.82150 3.76029
# Velocity P-wave (km/s) = 7.17712 7.42424 7.30172
#
# Compressibility (1/GPa) = 0.01477020
#
# Stress axis : x y z
#
# Youngs Moduli (GPa) = 66.21204 66.21066 125.64544
#
# Poissons Ratio (x) = 0.38548 0.36911
# Poissons Ratio (y) = 0.38549 0.36912
# Poissons Ratio (z) = 0.19451 0.19452
#
# Static dielectric constant tensor:
#      x y z
#    x 3.810830 0.000000 0.000000 
#    y 0.000000 3.810830 0.000000 
#    z 0.000000 0.000000 4.294850 
# 
# 
# High freq. dielectric constant tensor:
#      x y z
#    x 1.795670 0.000000 0.000000 
#    y 0.000000 1.795670 0.000000 
#    z 0.000000 0.000000 1.812730 
# 
# From -- ./inp_files/7285.got.cif
#   From: 2010.03.12/outbox.cif.g09.slc.cpg/sg142_4_cif.got.tgz:7285.got - 2010.04.03 13:27:16.
