data_PCOD8321034
_publ_section_title
;
Structure prediction by ZEFSAII (Michael W. Deem and Ramdas Pophale) SiO2 
 PCOD8321034
Probable space group: I 41/A C D
;
_chemical_formula_sum "Si O2"
_cell_formula_units_Z 176
_cell_length_a 17.485817
_cell_length_b 17.485817
_cell_length_c 28.842875
_cell_angle_alpha 90.000000
_cell_angle_beta 90.000000
_cell_angle_gamma 90.000000
_cell_volume 8818.818523
_symmetry_space_group_name_H-M "I 41/A C D"
_symmetry_group_IT_number 142
_space_group.IT_coordinate_system_code '2'
_symmetry_cell_setting 'tetragonal'
loop_
_space_group_symop_operation_xyz
x,y,z
1/4-y,3/4+x,1/4+z
-x,1/2-y,z
1/4+y,1/4-x,3/4+z
x,-y,1/2-z
1/2-x,y,-z
3/4+y,1/4+x,1/4-z
1/4-y,1/4-x,1/4-z
-x,-y,-z
3/4+y,1/4-x,3/4-z
x,1/2+y,-z
3/4-y,3/4+x,1/4-z
-x,y,1/2+z
1/2+x,-y,z
1/4-y,3/4-x,3/4+z
3/4+y,3/4+x,3/4+z
1/2+x,1/2+y,1/2+z
3/4-y,1/4+x,3/4+z
1/2-x,-y,1/2+z
3/4+y,3/4-x,1/4+z
1/2+x,1/2-y,-z
-x,1/2+y,1/2-z
1/4+y,3/4+x,3/4-z
3/4-y,3/4-x,3/4-z
1/2-x,1/2-y,1/2-z
1/4+y,3/4-x,1/4-z
1/2+x,y,1/2-z
1/4-y,1/4+x,3/4-z
1/2-x,1/2+y,z
x,1/2-y,1/2+z
3/4-y,1/4-x,1/4+z
1/4+y,1/4+x,1/4+z
loop_
_atom_site_type_symbol
_atom_site_label
_atom_site_fract_x
_atom_site_fract_y
_atom_site_fract_z
Si Si1 0.115149 0.015319 0.977681
Si Si2 0.016780 0.013187 0.331284
Si Si3 0.606987 0.429264 0.283744
Si Si4 0.750000 0.374093 0.000000
Si Si5 0.459372 0.168006 0.206587
Si Si6 0.203614 0.209935 0.817711
O O1 0.048510 0.051024 0.946706
O O2 0.144582 0.938725 0.951866
O O3 0.181228 0.076607 0.980494
O O4 0.087805 0.000536 0.030066
O O5 0.071909 0.974029 0.293263
O O6 0.049648 0.004264 0.382933
O O7 0.007979 0.103799 0.320424
O O8 0.937946 0.964008 0.327945
O O9 0.622601 0.500000 0.250000
O O10 0.558292 0.362508 0.258403
O O11 0.500000 0.250000 0.210036
O O12 0.381501 0.177620 0.177794
#
# Coordination Sequence:
#
# PCOD8321034 Si02
#       6
#    32  32  32  16  32  32
#     4  10  22  42  61  86 119 160 196 247 292 356
#     4  11  23  38  59  92 117 158 196 245 296 359
#     4   9  18  40  59  83 118 155 193 232 291 355
#     4  12  22  38  66  86 118 158 206 240 300 344
#     4  10  20  35  57  85 120 151 192 242 291 345
#     4  10  24  38  59  90 122 151 200 242 302 348
#
# _framework density 19.957322000000001
#
# number of rings (size 3 to 8) (size 9 to 14) (size 15 to 20)
#    0.000    1.818    3.636    1.091    5.091    1.455 
#    0.000    1.818    0.000    0.000    0.000    0.000 
#    0.000    0.000    0.000    0.000    0.000    0.000 
#
# Total GULP energy -1091062.196171 kJ/mol
# GULP energy per Si atom -12398.434047 kJ/mol
# Density = 1.991190 g / cm^3
# Si number density = 19.957322 Si / 1000 Ang^3
#
#
#
# Elastic Constant Matrix: (Units=GPa)
#
#
# Indices 1 2 3 4 5 6 
#
# 1 68.8591 18.5739 18.9791 0.0000 0.0000 0.0000
# 2 18.5739 68.8591 18.9791 0.0000 0.0000 0.0000
# 3 18.9791 18.9791 86.0784 0.0000 0.0000 0.0000
# 4 0.0000 0.0000 0.0000 16.2488 0.0000 0.0000
# 5 0.0000 0.0000 0.0000 0.0000 16.2488 0.0000
# 6 0.0000 0.0000 0.0000 0.0000 0.0000 32.9350
#
#
#
# Elastic Compliance Matrix: (Units=1/GPa)
#
#
# Indices 1 2 3 4 5 6 
#
# 1 0.016267 -0.003619 -0.002789 0.000000 0.000000 0.000000
# 2 -0.003619 0.016267 -0.002789 0.000000 0.000000 0.000000
# 3 -0.002789 -0.002789 0.012847 0.000000 0.000000 0.000000
# 4 0.000000 0.000000 0.000000 0.061543 0.000000 0.000000
# 5 0.000000 0.000000 0.000000 0.000000 0.061543 0.000000
# 6 0.000000 0.000000 0.000000 0.000000 0.000000 0.030363
#
#
# Mechanical properties :
#
#
# Convention : Reuss Voigt Hill
#
# Bulk Modulus (GPa) = 37.05316 37.42898 37.24107
# Shear Modulus (GPa) = 22.10238 24.23750 23.16994
#
# Velocity S-wave (km/s) = 3.33150 3.48870 3.41100
# Velocity P-wave (km/s) = 5.77971 5.91805 5.84928
#
# Compressibility (1/GPa) = 0.02698825
#
# Stress axis : x y z
#
# Youngs Moduli (GPa) = 61.47308 61.47308 77.83886
#
# Poissons Ratio (x) = 0.22249 0.21707
# Poissons Ratio (y) = 0.22249 0.21707
# Poissons Ratio (z) = 0.17143 0.17143
#
# Static dielectric constant tensor:
#      x y z
#    x 3.841950 0.000000 0.000000 
#    y 0.000000 3.841950 0.000000 
#    z 0.000000 0.000000 3.399270 
# 
# 
# High freq. dielectric constant tensor:
#      x y z
#    x 1.783210 0.000000 0.000000 
#    y 0.000000 1.783210 0.000000 
#    z 0.000000 0.000000 1.751460 
# 
# From -- ./inp_files/11428.got.cif
#   From: 2010.03.12/outbox.cif.g09.slc.cpg/sg142_6_cif.got.tgz:11428.got - 2010.04.03 13:27:16.
