data_PCOD8321506
_publ_section_title
;
Structure prediction by ZEFSAII (Michael W. Deem and Ramdas Pophale) SiO2 
 PCOD8321506
Probable space group: R 3
;
_chemical_formula_sum "Si O2"
_cell_formula_units_Z 72
_cell_length_a 16.012577
_cell_length_b 16.012577
_cell_length_c 16.960560
_cell_angle_alpha 90.000000
_cell_angle_beta 90.000000
_cell_angle_gamma 120.000000
_cell_volume 3766.112436
_symmetry_space_group_name_H-M "R 3"
_symmetry_group_IT_number 146
_symmetry_cell_setting 'hexagonal'
loop_
_space_group_symop_operation_xyz
x,y,z
-y,x-y,z
-x+y,-x,z
2/3+x,1/3+y,1/3+z
2/3-y,1/3+x-y,1/3+z
2/3-x+y,1/3-x,1/3+z
1/3+x,2/3+y,2/3+z
1/3-y,2/3+x-y,2/3+z
1/3-x+y,2/3-x,2/3+z
loop_
_atom_site_type_symbol
_atom_site_label
_atom_site_fract_x
_atom_site_fract_y
_atom_site_fract_z
Si Si1 0.212869 0.215218 0.695470
Si Si2 0.160901 0.908445 0.576248
Si Si3 0.709343 0.102190 0.357115
Si Si4 0.770310 0.032763 0.867513
Si Si5 0.728728 0.526928 0.740904
Si Si6 0.194462 0.134916 0.335788
Si Si7 0.225921 0.867946 0.297274
Si Si8 0.748679 0.957685 0.194971
O O1 0.121293 0.209522 0.650537
O O2 0.307510 0.319365 0.685008
O O3 0.195308 0.196536 0.789743
O O4 0.226658 0.131373 0.657188
O O5 0.165156 0.815740 0.543443
O O6 0.134693 0.954184 0.501349
O O7 0.263522 0.996454 0.603930
O O8 0.682367 0.140548 0.277762
O O9 0.820766 0.128133 0.355128
O O10 0.698005 0.149251 0.437357
O O11 0.655899 0.998100 0.865574
O O12 0.827004 0.527599 0.723321
O O13 0.642742 0.441256 0.691881
O O14 0.742484 0.626667 0.706410
O O15 0.183563 0.154837 0.243869
O O16 0.151879 0.855745 0.226569
#
# Coordination Sequence:
#
# PCOD8321506 Si02
#       8
#     9   9   9   9   9   9   9   9
#     4  10  18  35  53  76 109 145 188 234 281 338
#     4  11  21  31  54  81 104 153 187 219 299 359
#     4   9  15  30  58  79  95 137 196 239 261 324
#     4   9  16  33  55  76 100 141 192 242 270 324
#     4  11  21  35  50  80 121 146 181 236 288 347
#     4  10  19  31  51  79 110 149 177 227 288 338
#     4  11  20  34  50  76 124 148 169 238 302 340
#     4   9  16  31  53  79 107 143 188 233 279 330
#
# _framework density 19.117856
#
# number of rings (size 3 to 8) (size 9 to 14) (size 15 to 20)
#    0.000    2.000    6.250    1.750    1.750    0.000 
#    0.750    5.000    0.000    0.000    0.000    0.000 
#    0.000    0.000    0.000    0.000    0.000    0.000 
#
# Total GULP energy -297340.508083 kJ/mol
# GULP energy per Si atom -12389.187837 kJ/mol
# Density = 1.907434 g / cm^3
# Si number density = 19.117856 Si / 1000 Ang^3
#
#
#
# Elastic Constant Matrix: (Units=GPa)
#
#
# Indices 1 2 3 4 5 6 
#
# 1 58.5546 19.2632 40.0624 2.5922 -1.9531 0.0000
# 2 19.2632 58.5546 40.0624 -2.5922 1.9531 0.0000
# 3 40.0624 40.0624 188.7998 0.0000 0.0000 0.0000
# 4 2.5922 -2.5922 0.0000 20.8799 0.0000 1.9531
# 5 -1.9531 1.9531 0.0000 0.0000 20.8799 2.5922
# 6 0.0000 0.0000 0.0000 1.9531 2.5922 19.6457
#
#
#
# Elastic Compliance Matrix: (Units=1/GPa)
#
#
# Indices 1 2 3 4 5 6 
#
# 1 0.021282 -0.004839 -0.003489 -0.003243 0.002443 0.000000
# 2 -0.004839 0.021282 -0.003489 0.003243 -0.002443 0.000000
# 3 -0.003489 -0.003489 0.006777 0.000000 0.000000 0.000000
# 4 -0.003243 0.003243 0.000000 0.049155 0.000000 -0.004887
# 5 0.002443 -0.002443 0.000000 0.000000 0.049155 -0.006486
# 6 0.000000 0.000000 0.000000 -0.004887 -0.006486 0.052243
#
#
# Mechanical properties :
#
#
# Convention : Reuss Voigt Hill
#
# Bulk Modulus (GPa) = 38.89989 56.07611 47.48800
# Shear Modulus (GPa) = 21.54240 26.04917 23.79578
#
# Velocity S-wave (km/s) = 3.36046 3.69529 3.53184
# Velocity P-wave (km/s) = 5.95386 6.89944 6.44402
#
# Compressibility (1/GPa) = 0.02570701
#
# Stress axis : x y z
#
# Youngs Moduli (GPa) = 46.98717 46.98717 147.54977
#
# Poissons Ratio (x) = 0.22738 0.51482
# Poissons Ratio (y) = 0.22738 0.51482
# Poissons Ratio (z) = 0.16395 0.16395
#
# Static dielectric constant tensor:
#      x y z
#    x 3.119350 0.000000 0.000000 
#    y 0.000000 3.119350 0.000000 
#    z 0.000000 0.000000 4.205510 
# 
# 
# High freq. dielectric constant tensor:
#      x y z
#    x 1.699140 0.000000 0.000000 
#    y 0.000000 1.699140 0.000000 
#    z 0.000000 0.000000 1.769010 
# 
# From -- ./inp_files/1788.got.cif
#   From: 2010.06.25/outbox.cif.g09.slc.cpg/sg146_cif.got.tgz:1788.got - 2010.06.28 11:17:22.
