data_PCOD8321949
_publ_section_title
;
Structure prediction by ZEFSAII (Michael W. Deem and Ramdas Pophale) SiO2 
 PCOD8321949
Probable space group: P 31 1 2
;
_chemical_formula_sum "Si O2"
_cell_formula_units_Z 33
_cell_length_a 15.297394
_cell_length_b 15.297394
_cell_length_c 9.929163
_cell_angle_alpha 90.000000
_cell_angle_beta 90.000000
_cell_angle_gamma 120.000000
_cell_volume 2012.232583
_symmetry_space_group_name_H-M "P 31 1 2"
_symmetry_group_IT_number 151
_symmetry_cell_setting 'hexagonal'
loop_
_space_group_symop_operation_xyz
x,y,z
-y,x-y,1/3+z
-x+y,-x,2/3+z
-y,-x,2/3-z
-x+y,y,1/3-z
x,x-y,-z
loop_
_atom_site_type_symbol
_atom_site_label
_atom_site_fract_x
_atom_site_fract_y
_atom_site_fract_z
Si Si1 0.906593 0.640317 0.406726
Si Si2 0.857157 0.351405 0.827610
Si Si3 0.147765 0.040693 0.354145
Si Si4 0.682139 0.127067 0.546547
Si Si5 0.082141 0.164281 0.166667
Si Si6 0.966882 0.723833 0.680390
O O1 0.926126 0.572885 0.298325
O O2 0.916725 0.734050 0.322286
O O3 0.793143 0.568034 0.460342
O O4 0.982773 0.683515 0.534958
O O5 0.746927 0.253074 0.833334
O O6 0.843459 0.448235 0.812854
O O7 0.912403 0.352606 0.967411
O O8 0.120602 0.060301 0.500000
O O9 0.117377 0.095659 0.242326
O O10 0.080425 0.919576 0.333334
O O11 0.685563 0.040019 0.460545
O O12 0.062606 0.231319 0.276993
O O13 0.867105 0.734209 0.666667
#
# Coordination Sequence:
#
# PCOD8321949 Si02
#       6
#     6   6   6   6   3   6
#     4  10  20  34  45  71 104 127 177 227 254 304
#     4   9  18  33  50  72  95 133 175 214 261 319
#     4  12  21  30  49  71  96 139 180 212 257 308
#     4   9  17  33  49  65  96 131 167 214 266 301
#     4  12  20  34  48  68 104 140 176 216 252 320
#     4  10  19  33  46  67  97 133 169 215 258 297
#
# _framework density 16.399694
#
# number of rings (size 3 to 8) (size 9 to 14) (size 15 to 20)
#    0.000    1.818    4.545    3.273    0.000    0.727 
#   19.636    0.000    0.000    0.000    0.000    0.000 
#    0.000    0.000    6.182    0.000    0.000    0.000 
#
# Total GULP energy -408924.136073 kJ/mol
# GULP energy per Si atom -12391.640487 kJ/mol
# Density = 1.636237 g / cm^3
# Si number density = 16.399694 Si / 1000 Ang^3
#
#
#
# Elastic Constant Matrix: (Units=GPa)
#
#
# Indices 1 2 3 4 5 6 
#
# 1 63.5432 32.9385 32.2585 0.0003 -2.6282 0.0000
# 2 32.9385 63.5432 32.2585 -0.0003 2.6282 0.0000
# 3 32.2585 32.2585 105.0229 0.0000 0.0000 0.0000
# 4 0.0003 -0.0003 0.0000 22.4601 0.0000 2.6282
# 5 -2.6282 2.6282 0.0000 0.0000 22.4601 0.0003
# 6 0.0000 0.0000 0.0000 2.6282 0.0003 15.3023
#
#
#
# Elastic Compliance Matrix: (Units=1/GPa)
#
#
# Indices 1 2 3 4 5 6 
#
# 1 0.023194 -0.010151 -0.004006 0.000000 0.003902 0.000000
# 2 -0.010151 0.023194 -0.004006 0.000000 -0.003902 0.000000
# 3 -0.004006 -0.004006 0.011983 0.000000 0.000000 0.000000
# 4 0.000000 0.000000 0.000000 0.045437 0.000000 -0.007804
# 5 0.003902 -0.003902 0.000000 0.000000 0.045437 -0.000001
# 6 0.000000 0.000000 0.000000 -0.007804 -0.000001 0.066690
#
#
# Mechanical properties :
#
#
# Convention : Reuss Voigt Hill
#
# Bulk Modulus (GPa) = 45.36259 47.44670 46.40464
# Shear Modulus (GPa) = 19.25965 21.02141 20.14053
#
# Velocity S-wave (km/s) = 3.43066 3.58413 3.50823
# Velocity P-wave (km/s) = 6.58887 6.79134 6.69087
#
# Compressibility (1/GPa) = 0.02204460
#
# Stress axis : x y z
#
# Youngs Moduli (GPa) = 43.11394 43.11394 83.45166
#
# Poissons Ratio (x) = 0.43763 0.33435
# Poissons Ratio (y) = 0.43763 0.33435
# Poissons Ratio (z) = 0.17274 0.17274
#
# Static dielectric constant tensor:
#      x y z
#    x 2.943800 0.000000 0.000000 
#    y 0.000000 2.943800 0.000000 
#    z 0.000000 0.000000 3.561410 
# 
# 
# High freq. dielectric constant tensor:
#      x y z
#    x 1.590360 0.000000 0.000000 
#    y 0.000000 1.590360 0.000000 
#    z 0.000000 0.000000 1.663020 
# 
# From -- ./inp_files/2457.got.cif
#   From: 2010.03.12/outbox.cif.g09.slc.cpg/sg151_2_cif.got.tgz:2457.got - 2010.04.03 13:42:29.
