data_PCOD8321911
_publ_section_title
;
Structure prediction by ZEFSAII (Michael W. Deem and Ramdas Pophale) SiO2 
 PCOD8321911
Probable space group: P 3 2 1
;
_chemical_formula_sum "Si O2"
_cell_formula_units_Z 21
_cell_length_a 8.659189
_cell_length_b 8.659189
_cell_length_c 16.591275
_cell_angle_alpha 90.000000
_cell_angle_beta 90.000000
_cell_angle_gamma 120.000000
_cell_volume 1077.369884
_symmetry_space_group_name_H-M "P 3 2 1"
_symmetry_group_IT_number 150
_symmetry_cell_setting 'hexagonal'
loop_
_space_group_symop_operation_xyz
x,y,z
-y,x-y,z
-x+y,-x,z
x-y,-y,-z
-x,-x+y,-z
y,x,-z
loop_
_atom_site_type_symbol
_atom_site_label
_atom_site_fract_x
_atom_site_fract_y
_atom_site_fract_z
Si Si1 0.335954 0.999250 0.595078
Si Si2 0.199601 0.198987 0.826940
Si Si3 0.332043 0.331065 0.658852
Si Si4 0.197643 0.197643 0.000000
O O1 0.193240 0.802244 0.623952
O O2 0.355140 0.000000 0.500000
O O3 0.274950 0.138299 0.622103
O O4 0.526555 0.058293 0.634502
O O5 0.324305 0.324030 0.756056
O O6 0.290158 0.289725 0.914332
O O7 0.000519 0.174598 0.820208
O O8 0.174549 0.000000 0.000000
#
# Coordination Sequence:
#
# PCOD8321911 Si02
#       4
#     6   6   6   3
#     4  12  24  39  57  82 111 153 196 246 293 337
#     4   8  13  30  55  88 114 146 185 222 285 338
#     4  12  23  40  60  82 117 149 197 241 286 351
#     4   6  10  20  50  86 116 140 178 224 264 346
#
# _framework density 19.491914999999999
#
# number of rings (size 3 to 8) (size 9 to 14) (size 15 to 20)
#    0.857    1.143    2.857    4.286    0.000    0.000 
#    0.000    0.000    0.000    3.429    0.000    0.000 
#    0.000    0.000    0.000    0.000    0.000    0.000 
#
# Total GULP energy -260170.075522 kJ/mol
# GULP energy per Si atom -12389.051215 kJ/mol
# Density = 1.944755 g / cm^3
# Si number density = 19.491915 Si / 1000 Ang^3
#
#
#
# Elastic Constant Matrix: (Units=GPa)
#
#
# Indices 1 2 3 4 5 6 
#
# 1 53.7321 6.9258 36.4075 0.5267 0.0000 0.0000
# 2 6.9258 53.7321 36.4075 -0.5267 0.0000 0.0000
# 3 36.4075 36.4075 244.1900 0.0000 0.0000 0.0000
# 4 0.5267 -0.5267 0.0000 22.1104 0.0000 0.0000
# 5 0.0000 0.0000 0.0000 0.0000 22.1104 0.5267
# 6 0.0000 0.0000 0.0000 0.0000 0.5267 23.4032
#
#
#
# Elastic Compliance Matrix: (Units=1/GPa)
#
#
# Indices 1 2 3 4 5 6 
#
# 1 0.020728 -0.000648 -0.002994 -0.000509 0.000000 0.000000
# 2 -0.000648 0.020728 -0.002994 0.000509 0.000000 0.000000
# 3 -0.002994 -0.002994 0.004988 0.000000 0.000000 0.000000
# 4 -0.000509 0.000509 0.000000 0.045252 0.000000 0.000000
# 5 0.000000 0.000000 0.000000 0.000000 0.045252 -0.001018
# 6 0.000000 0.000000 0.000000 0.000000 -0.001018 0.042752
#
#
# Mechanical properties :
#
#
# Convention : Reuss Voigt Hill
#
# Bulk Modulus (GPa) = 30.14577 56.79289 43.46933
# Shear Modulus (GPa) = 24.50639 31.65236 28.07937
#
# Velocity S-wave (km/s) = 3.54963 4.03410 3.79960
# Velocity P-wave (km/s) = 5.68324 7.13432 6.44972
#
# Compressibility (1/GPa) = 0.03317215
#
# Stress axis : x y z
#
# Youngs Moduli (GPa) = 48.24416 48.24416 200.48563
#
# Poissons Ratio (x) = 0.03127 0.60021
# Poissons Ratio (y) = 0.03127 0.60021
# Poissons Ratio (z) = 0.14443 0.14443
#
# Static dielectric constant tensor:
#      x y z
#    x 3.120640 0.000000 0.000000 
#    y 0.000000 3.120640 0.000000 
#    z 0.000000 0.000000 3.828890 
# 
# 
# High freq. dielectric constant tensor:
#      x y z
#    x 1.718300 0.000000 0.000000 
#    y 0.000000 1.718300 0.000000 
#    z 0.000000 0.000000 1.788720 
# 
# From -- ./inp_files/1079.got.cif
#   From: 2010.03.12/outbox.cif.g09.slc.cpg/sg150_cif.got.tgz:1079.got - 2010.04.03 13:41:37.
