data_PCOD8321977
_publ_section_title
;
Structure prediction by ZEFSAII (Michael W. Deem and Ramdas Pophale) SiO2 
 PCOD8321977
Probable space group: P 31 1 2
;
_chemical_formula_sum "Si O2"
_cell_formula_units_Z 36
_cell_length_a 8.843219
_cell_length_b 8.843219
_cell_length_c 25.042358
_cell_angle_alpha 90.000000
_cell_angle_beta 90.000000
_cell_angle_gamma 120.000000
_cell_volume 1696.002985
_symmetry_space_group_name_H-M "P 31 1 2"
_symmetry_group_IT_number 151
_symmetry_cell_setting 'hexagonal'
loop_
_space_group_symop_operation_xyz
x,y,z
-y,x-y,1/3+z
-x+y,-x,2/3+z
-y,-x,2/3-z
-x+y,y,1/3-z
x,x-y,-z
loop_
_atom_site_type_symbol
_atom_site_label
_atom_site_fract_x
_atom_site_fract_y
_atom_site_fract_z
Si Si1 0.122994 0.877007 0.833334
Si Si2 0.636712 0.339325 0.940185
Si Si3 0.666929 0.955419 0.296887
Si Si4 0.810221 0.712478 0.910162
Si Si5 0.212295 0.648292 0.440575
Si Si6 0.419222 0.969150 0.918548
Si Si7 0.008920 0.991081 0.333334
O O1 0.285453 0.922147 0.870556
O O2 0.952285 0.830204 0.867142
O O3 0.443267 0.314228 0.937574
O O4 0.790561 0.519049 0.914823
O O5 0.597850 0.158489 0.911568
O O6 0.702554 0.351277 0.000000
O O7 0.510096 0.800967 0.262948
O O8 0.631335 0.952736 0.359548
O O9 0.847691 0.951154 0.293012
O O10 0.620599 0.659434 0.889109
O O11 0.857859 0.816272 0.966296
O O12 0.272238 0.636119 0.500000
O O13 0.348108 0.827778 0.412819
#
# Coordination Sequence:
#
# PCOD8321977 Si02
#       7
#     3   6   6   6   6   6   3
#     4  12  24  44  64  98 136 174 232 282 348 414
#     4   9  20  41  69  92 126 173 227 275 342 408
#     4  10  20  42  71  92 128 181 222 281 344 419
#     4  11  27  40  68  99 135 181 227 286 341 426
#     4  11  26  42  68 101 135 179 234 288 358 417
#     4  11  21  44  67  95 134 177 227 289 348 416
#     4  12  22  44  66 102 132 184 234 286 348 418
#
# _framework density 21.226379000000001
#
# number of rings (size 3 to 8) (size 9 to 14) (size 15 to 20)
#    0.000    1.333    5.000    0.500   14.000    0.000 
#    3.000    1.667    0.000    0.000    0.000    0.000 
#    0.000    0.000    0.000    0.000    0.000    0.000 
#
# Total GULP energy -446161.623255 kJ/mol
# GULP energy per Si atom -12393.378424 kJ/mol
# Density = 2.117807 g / cm^3
# Si number density = 21.226379 Si / 1000 Ang^3
#
#
#
# Elastic Constant Matrix: (Units=GPa)
#
#
# Indices 1 2 3 4 5 6 
#
# 1 102.3419 33.8723 31.7396 -0.0002 3.7790 0.0000
# 2 33.8723 102.3419 31.7396 0.0002 -3.7790 0.0000
# 3 31.7396 31.7396 72.6163 0.0000 0.0000 0.0000
# 4 -0.0002 0.0002 0.0000 29.2389 0.0000 -3.7790
# 5 3.7790 -3.7790 0.0000 0.0000 29.2389 -0.0002
# 6 0.0000 0.0000 0.0000 -3.7790 -0.0002 34.2348
#
#
#
# Elastic Compliance Matrix: (Units=1/GPa)
#
#
# Indices 1 2 3 4 5 6 
#
# 1 0.012018 -0.002799 -0.004030 0.000000 -0.001915 0.000000
# 2 -0.002799 0.012018 -0.004030 0.000000 0.001915 0.000000
# 3 -0.004030 -0.004030 0.017294 0.000000 0.000000 0.000000
# 4 0.000000 0.000000 0.000000 0.034696 0.000000 0.003830
# 5 -0.001915 0.001915 0.000000 0.000000 0.034696 0.000000
# 6 0.000000 0.000000 0.000000 0.003830 0.000000 0.029633
#
#
# Mechanical properties :
#
#
# Convention : Reuss Voigt Hill
#
# Bulk Modulus (GPa) = 50.98484 52.44479 51.71482
# Shear Modulus (GPa) = 29.65463 30.53908 30.09685
#
# Velocity S-wave (km/s) = 3.74179 3.79718 3.76958
# Velocity P-wave (km/s) = 6.53756 6.63218 6.58504
#
# Compressibility (1/GPa) = 0.01961367
#
# Stress axis : x y z
#
# Youngs Moduli (GPa) = 83.20959 83.20959 57.82491
#
# Poissons Ratio (x) = 0.23287 0.23301
# Poissons Ratio (y) = 0.23287 0.23301
# Poissons Ratio (z) = 0.33530 0.33530
#
# Static dielectric constant tensor:
#      x y z
#    x 4.017550 0.000000 0.000000 
#    y 0.000000 4.017550 0.000000 
#    z 0.000000 0.000000 3.790840 
# 
# 
# High freq. dielectric constant tensor:
#      x y z
#    x 1.828530 0.000000 0.000000 
#    y 0.000000 1.828530 0.000000 
#    z 0.000000 0.000000 1.825930 
# 
# From -- ./inp_files/4701.got.cif
#   From: 2010.03.12/outbox.cif.g09.slc.cpg/sg151_3_cif.got.tgz:4701.got - 2010.04.03 13:42:29.
