data_PCOD8321380
_publ_section_title
;
Structure prediction by ZEFSAII (Michael W. Deem and Ramdas Pophale) SiO2 
 PCOD8321380
Probable space group: P 31
;
_chemical_formula_sum "Si O2"
_cell_formula_units_Z 18
_cell_length_a 9.579167
_cell_length_b 9.579167
_cell_length_c 11.437621
_cell_angle_alpha 90.000000
_cell_angle_beta 90.000000
_cell_angle_gamma 120.000000
_cell_volume 908.911969
_symmetry_space_group_name_H-M "P 31"
_symmetry_group_IT_number 144
_symmetry_cell_setting 'hexagonal'
loop_
_space_group_symop_operation_xyz
x,y,z
-y,x-y,1/3+z
-x+y,-x,2/3+z
loop_
_atom_site_type_symbol
_atom_site_label
_atom_site_fract_x
_atom_site_fract_y
_atom_site_fract_z
Si Si1 0.475618 0.265755 0.584960
Si Si2 0.846847 0.922181 0.521720
Si Si3 0.101004 0.700076 0.670702
Si Si4 0.912670 0.801709 0.091008
Si Si5 0.420329 0.223341 0.851562
Si Si6 0.572519 0.637421 0.163081
O O1 0.333488 0.257786 0.502696
O O2 0.427688 0.272101 0.717448
O O3 0.642110 0.421211 0.555273
O O4 0.486897 0.103202 0.562838
O O5 0.813112 0.998024 0.636451
O O6 0.035501 0.023952 0.498177
O O7 0.757911 0.940870 0.410310
O O8 0.785692 0.735078 0.544135
O O9 0.257582 0.802426 0.592514
O O10 0.137387 0.591027 0.757215
O O11 0.947366 0.584836 0.592266
O O12 0.722994 0.748488 0.076337
#
# Coordination Sequence:
#
# PCOD8321380 Si02
#       6
#     3   3   3   3   3   3
#     4  10  24  41  69  99 140 171 223 293 339 402
#     4  12  21  43  75 100 129 187 231 277 347 419
#     4  12  25  44  73  99 142 184 232 288 349 411
#     4  10  22  41  69 101 134 178 225 282 340 410
#     4  12  22  44  68 104 132 181 232 279 345 412
#     4  10  24  45  66  99 143 179 225 289 346 398
#
# _framework density 19.803901
#
# number of rings (size 3 to 8) (size 9 to 14) (size 15 to 20)
#    1.000    0.000    5.000    2.000    2.333    1.333 
#    3.000    0.000    0.000    0.000    0.000    0.000 
#    0.000    0.000    0.000    0.000    0.000    0.000 
#
# Total GULP energy -223184.613106 kJ/mol
# GULP energy per Si atom -12399.145173 kJ/mol
# Density = 1.975883 g / cm^3
# Si number density = 19.803901 Si / 1000 Ang^3
#
#
#
# Elastic Constant Matrix: (Units=GPa)
#
#
# Indices 1 2 3 4 5 6 
#
# 1 106.8490 51.9237 57.7888 -2.2169 -3.9225 0.0000
# 2 51.9237 106.8490 57.7888 2.2169 3.9225 0.0000
# 3 57.7888 57.7888 111.4397 0.0000 0.0000 0.0000
# 4 -2.2169 2.2169 0.0000 34.4098 0.0000 3.9225
# 5 -3.9225 3.9225 0.0000 0.0000 34.4098 -2.2169
# 6 0.0000 0.0000 0.0000 3.9225 -2.2169 27.4626
#
#
#
# Elastic Compliance Matrix: (Units=1/GPa)
#
#
# Indices 1 2 3 4 5 6 
#
# 1 0.014362 -0.004244 -0.005247 0.001199 0.002121 0.000000
# 2 -0.004244 0.014362 -0.005247 -0.001199 -0.002121 0.000000
# 3 -0.005247 -0.005247 0.014415 0.000000 0.000000 0.000000
# 4 0.001199 -0.001199 0.000000 0.029700 0.000000 -0.004242
# 5 0.002121 -0.002121 0.000000 0.000000 0.029700 0.002398
# 6 0.000000 0.000000 0.000000 -0.004242 0.002398 0.037213
#
#
# Mechanical properties :
#
#
# Convention : Reuss Voigt Hill
#
# Bulk Modulus (GPa) = 73.18751 73.34894 73.26823
# Shear Modulus (GPa) = 28.77201 29.76554 29.26877
#
# Velocity S-wave (km/s) = 3.81576 3.88108 3.84856
# Velocity P-wave (km/s) = 7.51330 7.56318 7.53828
#
# Compressibility (1/GPa) = 0.01366353
#
# Stress axis : x y z
#
# Youngs Moduli (GPa) = 69.62859 69.62859 69.37265
#
# Poissons Ratio (x) = 0.29553 0.36397
# Poissons Ratio (y) = 0.29553 0.36397
# Poissons Ratio (z) = 0.36532 0.36532
#
# Static dielectric constant tensor:
#      x y z
#    x 3.592220 0.000000 0.000000 
#    y 0.000000 3.592220 0.000000 
#    z 0.000000 0.000000 3.686800 
# 
# 
# High freq. dielectric constant tensor:
#      x y z
#    x 1.765940 0.000000 0.000000 
#    y 0.000000 1.765940 0.000000 
#    z 0.000000 0.000000 1.783540 
# 
# From -- ./inp_files/581.got.cif
#   From: 2010.03.12/outbox.cif.g09.slc.cpg/sg144_cif.got.tgz:581.got - 2010.04.03 13:34:42.
