data_PCOD8321589
_publ_section_title
;
Structure prediction by ZEFSAII (Michael W. Deem and Ramdas Pophale) SiO2 
 PCOD8321589
Probable space group: P -3
;
_chemical_formula_sum "Si O2"
_cell_formula_units_Z 48
_cell_length_a 17.331406
_cell_length_b 17.331406
_cell_length_c 12.219048
_cell_angle_alpha 90.000000
_cell_angle_beta 90.000000
_cell_angle_gamma 120.000000
_cell_volume 3178.597918
_symmetry_space_group_name_H-M "P -3"
_symmetry_group_IT_number 147
_symmetry_cell_setting 'hexagonal'
loop_
_space_group_symop_operation_xyz
x,y,z
-y,x-y,z
-x+y,-x,z
-x,-y,-z
y,-x+y,-z
x-y,x,-z
loop_
_atom_site_type_symbol
_atom_site_label
_atom_site_fract_x
_atom_site_fract_y
_atom_site_fract_z
Si Si1 0.375190 0.100633 0.500000
Si Si2 0.485449 0.331672 0.281510
Si Si3 0.100633 0.375190 0.500000
Si Si4 0.153776 0.668328 0.281510
Si Si5 0.846224 0.514551 0.718490
Si Si6 0.591505 0.000000 0.877943
Si Si7 0.408495 0.408495 0.122057
Si Si8 0.331672 0.485448 0.718490
O O1 0.336004 0.168002 0.499999
O O2 0.436710 0.116688 0.604146
O O3 0.436711 0.116687 0.395854
O O4 0.292386 1.000000 0.500000
O O5 0.436711 0.320023 0.395854
O O6 0.424207 0.336311 0.185658
O O7 0.579919 0.420081 0.288535
O O8 0.500966 0.250483 0.253778
O O9 0.116688 0.436710 0.395854
O O10 0.159838 0.579919 0.288536
O O11 0.250484 0.749516 0.253777
O O12 0.087896 0.663689 0.185658
O O13 0.912104 0.575793 0.814342
O O14 0.500000 0.000000 0.883952
O O15 0.575793 0.912104 0.814342
O O16 0.627329 0.000000 0.000000
#
# Coordination Sequence:
#
# PCOD8321589 Si02
#       8
#     6   6   6   6   6   6   6   6
#     4  10  19  31  49  72  95 120 148 184 229 277
#     4  10  19  30  46  67  93 122 154 190 230 274
#     4  10  19  31  49  72  95 120 148 184 229 277
#     4  10  19  30  46  67  93 122 154 190 230 274
#     4  10  19  30  46  67  93 122 154 190 230 274
#     4   9  18  31  45  61  85 120 157 192 230 268
#     4   9  18  31  45  61  85 120 157 192 230 268
#     4  10  19  30  46  67  93 122 154 190 230 274
#
# _framework density 15.100998000000001
#
# number of rings (size 3 to 8) (size 9 to 14) (size 15 to 20)
#    0.000    2.250    2.500    1.250    0.000    2.000 
#    0.000    2.500    0.000    3.250    0.000    0.000 
#    0.000    0.000    0.000    0.000    0.000   22.750 
#
# Total GULP energy -595172.803895 kJ/mol
# GULP energy per Si atom -12399.433414 kJ/mol
# Density = 1.506663 g / cm^3
# Si number density = 15.100998 Si / 1000 Ang^3
#
#
#
# Elastic Constant Matrix: (Units=GPa)
#
#
# Indices 1 2 3 4 5 6 
#
# 1 99.5104 60.0971 49.0071 0.0011 0.0001 0.0000
# 2 60.0971 99.5104 49.0071 -0.0011 -0.0001 0.0000
# 3 49.0071 49.0071 136.0427 0.0000 0.0000 0.0000
# 4 0.0011 -0.0011 0.0000 -302.4632 0.0000 -0.0001
# 5 0.0001 -0.0001 0.0000 0.0000 -302.4632 0.0011
# 6 0.0000 0.0000 0.0000 -0.0001 0.0011 19.7066
#
#
#
# Elastic Compliance Matrix: (Units=1/GPa)
#
#
# Indices 1 2 3 4 5 6 
#
# 1 0.016709 -0.008664 -0.002898 0.000000 0.000000 0.000000
# 2 -0.008664 0.016709 -0.002898 0.000000 0.000000 0.000000
# 3 -0.002898 -0.002898 0.009439 0.000000 0.000000 0.000000
# 4 0.000000 0.000000 0.000000 -0.003306 0.000000 0.000000
# 5 0.000000 0.000000 0.000000 0.000000 -0.003306 0.000000
# 6 0.000000 0.000000 0.000000 0.000000 0.000000 0.050744
#
#
# Mechanical properties :
#
#
# Convention : Reuss Voigt Hill
#
# Bulk Modulus (GPa) = 71.75472 72.36511 72.05992
# Shear Modulus (GPa) = 41.47562 -105.24715 -31.88577
#
# Velocity S-wave (km/s) = 5.24644 -8.35744 -4.60009
# Velocity P-wave (km/s) = 9.18258 6.71597 4.42807
#
# Compressibility (1/GPa) = 0.01393637
#
# Stress axis : x y z
#
# Youngs Moduli (GPa) = 59.84934 59.84934 105.94772
#
# Poissons Ratio (x) = 0.51851 0.30705
# Poissons Ratio (y) = 0.51851 0.30705
# Poissons Ratio (z) = 0.17345 0.17345
#
# Static dielectric constant tensor:
#      x y z
#    x 2.867030 0.000000 0.000000 
#    y 0.000000 2.867030 0.000000 
#    z 0.000000 0.000000 3.176580 
# 
# 
# High freq. dielectric constant tensor:
#      x y z
#    x 1.563890 0.000000 0.000000 
#    y 0.000000 1.563890 0.000000 
#    z 0.000000 0.000000 1.591540 
# 
# From -- ./inp_files/882.got.cif
#   From: 2010.03.12/outbox.cif.g09.slc.cpg/sg147_cif.got.tgz:882.got - 2010.04.03 13:37:56.
