data_PCOD8321068
_publ_section_title
;
Structure prediction by ZEFSAII (Michael W. Deem and Ramdas Pophale) SiO2 
 PCOD8321068
Probable space group: I 41/A C D
;
_chemical_formula_sum "Si O2"
_cell_formula_units_Z 176
_cell_length_a 17.650126
_cell_length_b 17.650126
_cell_length_c 28.456454
_cell_angle_alpha 90.000000
_cell_angle_beta 90.000000
_cell_angle_gamma 90.000000
_cell_volume 8864.952260
_symmetry_space_group_name_H-M "I 41/A C D"
_symmetry_group_IT_number 142
_space_group.IT_coordinate_system_code '2'
_symmetry_cell_setting 'tetragonal'
loop_
_space_group_symop_operation_xyz
x,y,z
1/4-y,3/4+x,1/4+z
-x,1/2-y,z
1/4+y,1/4-x,3/4+z
x,-y,1/2-z
1/2-x,y,-z
3/4+y,1/4+x,1/4-z
1/4-y,1/4-x,1/4-z
-x,-y,-z
3/4+y,1/4-x,3/4-z
x,1/2+y,-z
3/4-y,3/4+x,1/4-z
-x,y,1/2+z
1/2+x,-y,z
1/4-y,3/4-x,3/4+z
3/4+y,3/4+x,3/4+z
1/2+x,1/2+y,1/2+z
3/4-y,1/4+x,3/4+z
1/2-x,-y,1/2+z
3/4+y,3/4-x,1/4+z
1/2+x,1/2-y,-z
-x,1/2+y,1/2-z
1/4+y,3/4+x,3/4-z
3/4-y,3/4-x,3/4-z
1/2-x,1/2-y,1/2-z
1/4+y,3/4-x,1/4-z
1/2+x,y,1/2-z
1/4-y,1/4+x,3/4-z
1/2-x,1/2+y,z
x,1/2-y,1/2+z
3/4-y,1/4-x,1/4+z
1/4+y,1/4+x,1/4+z
loop_
_atom_site_type_symbol
_atom_site_label
_atom_site_fract_x
_atom_site_fract_y
_atom_site_fract_z
Si Si1 0.509893 0.541295 0.138671
Si Si2 0.079648 0.784826 0.461665
Si Si3 0.700805 0.452279 0.205276
Si Si4 0.961784 0.068424 0.286139
Si Si5 0.791942 0.305860 0.213352
Si Si6 0.187982 0.937982 0.875000
O O1 0.478534 0.613788 0.167776
O O2 0.492821 0.464989 0.168841
O O3 0.467589 0.530033 0.090214
O O4 0.598198 0.549336 0.125738
O O5 0.110028 0.749475 0.510618
O O6 0.061111 0.870414 0.475067
O O7 0.000000 0.750000 0.446272
O O8 0.682795 0.500000 0.250000
O O9 0.621662 0.408494 0.194558
O O10 0.764718 0.391839 0.216494
O O11 0.725396 0.515587 0.167584
O O12 0.956667 0.000000 0.250000
O O13 0.750000 0.250000 0.250000
#
# Coordination Sequence:
#
# PCOD8321068 Si02
#       6
#    32  32  32  32  32  16
#     4  10  21  39  61  91 122 162 210 260 320 382
#     4  11  22  39  67  90 123 162 216 267 325 382
#     4  10  21  38  61  86 123 161 205 251 320 384
#     4   8  18  40  62  83 115 163 198 251 314 391
#     4  12  25  39  58  93 131 163 212 273 322 388
#     4  10  20  38  65  88 117 164 204 256 324 384
#
# _framework density 19.853463999999999
#
# number of rings (size 3 to 8) (size 9 to 14) (size 15 to 20)
#    0.000    1.818    0.000    4.909    2.545    2.909 
#    6.545    0.000    0.000    0.000    0.000    0.000 
#    0.000    0.000    0.000    0.000    0.000    0.000 
#
# Total GULP energy -1090282.859032 kJ/mol
# GULP energy per Si atom -12389.577944 kJ/mol
# Density = 1.980828 g / cm^3
# Si number density = 19.853464 Si / 1000 Ang^3
#
#
#
# Elastic Constant Matrix: (Units=GPa)
#
#
# Indices 1 2 3 4 5 6 
#
# 1 94.0895 32.8067 35.8989 0.0000 0.0000 0.0000
# 2 32.8067 94.0895 35.8989 0.0000 0.0000 0.0000
# 3 35.8989 35.8989 121.2363 0.0000 0.0000 0.0000
# 4 0.0000 0.0000 0.0000 152.5029 0.0000 0.0000
# 5 0.0000 0.0000 0.0000 0.0000 152.5029 0.0000
# 6 0.0000 0.0000 0.0000 0.0000 0.0000 74.7723
#
#
#
# Elastic Compliance Matrix: (Units=1/GPa)
#
#
# Indices 1 2 3 4 5 6 
#
# 1 0.012892 -0.003426 -0.002803 0.000000 0.000000 0.000000
# 2 -0.003426 0.012892 -0.002803 0.000000 0.000000 0.000000
# 3 -0.002803 -0.002803 0.009908 0.000000 0.000000 0.000000
# 4 0.000000 0.000000 0.000000 0.006557 0.000000 0.000000
# 5 0.000000 0.000000 0.000000 0.000000 0.006557 0.000000
# 6 0.000000 0.000000 0.000000 0.000000 0.000000 0.013374
#
#
# Mechanical properties :
#
#
# Convention : Reuss Voigt Hill
#
# Bulk Modulus (GPa) = 56.72491 57.62493 57.17492
# Shear Modulus (GPa) = 58.05785 89.60967 73.83376
#
# Velocity S-wave (km/s) = 5.41356 6.72559 6.10492
# Velocity P-wave (km/s) = 8.22857 9.45513 8.86309
#
# Compressibility (1/GPa) = 0.01762894
#
# Stress axis : x y z
#
# Youngs Moduli (GPa) = 77.56683 77.56683 100.92473
#
# Poissons Ratio (x) = 0.26572 0.28290
# Poissons Ratio (y) = 0.26572 0.28290
# Poissons Ratio (z) = 0.21743 0.21743
#
# Static dielectric constant tensor:
#      x y z
#    x 3.846330 0.000000 0.000000 
#    y 0.000000 3.846330 0.000000 
#    z 0.000000 0.000000 3.914220 
# 
# 
# High freq. dielectric constant tensor:
#      x y z
#    x 1.772860 0.000000 0.000000 
#    y 0.000000 1.772860 0.000000 
#    z 0.000000 0.000000 1.779620 
# 
# From -- ./inp_files/11475.got.cif
#   From: 2010.03.12/outbox.cif.g09.slc.cpg/sg142_6_cif.got.tgz:11475.got - 2010.04.03 13:27:16.
