data_PCOD8321851
_publ_section_title
;
Structure prediction by ZEFSAII (Michael W. Deem and Ramdas Pophale) SiO2 
 PCOD8321851
Probable space group: P 3 1 2
;
_chemical_formula_sum "Si O2"
_cell_formula_units_Z 36
_cell_length_a 12.338547
_cell_length_b 12.338547
_cell_length_c 15.144685
_cell_angle_alpha 90.000000
_cell_angle_beta 90.000000
_cell_angle_gamma 120.000000
_cell_volume 1996.728036
_symmetry_space_group_name_H-M "P 3 1 2"
_symmetry_group_IT_number 149
_symmetry_cell_setting 'hexagonal'
loop_
_space_group_symop_operation_xyz
x,y,z
-y,x-y,z
-x+y,-x,z
-y,-x,-z
-x+y,y,-z
x,x-y,-z
loop_
_atom_site_type_symbol
_atom_site_label
_atom_site_fract_x
_atom_site_fract_y
_atom_site_fract_z
Si Si1 0.335465 0.916883 0.509712
Si Si2 0.416120 0.084750 0.010885
Si Si3 0.999481 0.749983 0.155331
Si Si4 0.922760 0.345804 0.677754
Si Si5 0.248957 0.004051 0.176116
Si Si6 0.410166 0.320153 0.655963
O O1 0.197038 0.802963 0.500000
O O2 0.434282 0.868563 0.500000
O O3 0.342293 0.972832 0.605932
O O4 0.364187 0.023296 0.437950
O O5 0.359172 0.034654 0.107103
O O6 0.531044 0.062088 0.000000
O O7 0.463495 0.231748 0.000000
O O8 0.309890 0.006018 0.939311
O O9 0.967676 0.645509 0.229067
O O10 0.901961 0.800614 0.161264
O O11 0.137780 0.864161 0.165552
O O12 0.791893 0.230781 0.646356
O O13 0.905376 0.464695 0.688922
O O14 0.300894 0.013813 0.274147
#
# Coordination Sequence:
#
# PCOD8321851 Si02
#       6
#     6   6   6   6   6   6
#     4  10  20  34  52  74 102 136 172 208 248 298
#     4  10  20  34  54  78 104 134 168 210 256 302
#     4  10  20  34  53  76 103 135 170 209 252 300
#     4  10  20  34  54  78 104 134 168 210 256 302
#     4  10  20  34  53  76 103 135 170 209 252 300
#     4  10  20  34  54  78 104 134 168 210 256 302
#
# _framework density 18.029495000000001
#
# number of rings (size 3 to 8) (size 9 to 14) (size 15 to 20)
#    0.000    2.000    0.000    4.000    0.000    0.000 
#    0.000    6.667    0.000   16.000    0.000    0.000 
#    0.000    0.000    0.000    0.000    0.000    0.000 
#
# Total GULP energy -446560.711802 kJ/mol
# GULP energy per Si atom -12404.464217 kJ/mol
# Density = 1.798846 g / cm^3
# Si number density = 18.029495 Si / 1000 Ang^3
#
#
#
# Elastic Constant Matrix: (Units=GPa)
#
#
# Indices 1 2 3 4 5 6 
#
# 1 69.6782 34.4103 -9.1733 -0.0002 -0.0053 0.0000
# 2 34.4103 69.6782 -9.1733 0.0002 0.0053 0.0000
# 3 -9.1733 -9.1733 40.8558 0.0000 0.0000 0.0000
# 4 -0.0002 0.0002 0.0000 13.3744 0.0000 0.0053
# 5 -0.0053 0.0053 0.0000 0.0000 13.3744 -0.0002
# 6 0.0000 0.0000 0.0000 0.0053 -0.0002 17.6340
#
#
#
# Elastic Compliance Matrix: (Units=1/GPa)
#
#
# Indices 1 2 3 4 5 6 
#
# 1 0.019179 -0.009176 0.002246 0.000000 0.000011 0.000000
# 2 -0.009176 0.019179 0.002246 0.000000 -0.000011 0.000000
# 3 0.002246 0.002246 0.025485 0.000000 0.000000 0.000000
# 4 0.000000 0.000000 0.000000 0.074769 0.000000 -0.000022
# 5 0.000011 -0.000011 0.000000 0.000000 0.074769 0.000001
# 6 0.000000 0.000000 0.000000 -0.000022 0.000001 0.056709
#
#
# Mechanical properties :
#
#
# Convention : Reuss Voigt Hill
#
# Bulk Modulus (GPa) = 18.35706 23.59330 20.97518
# Shear Modulus (GPa) = 16.80019 19.81981 18.31000
#
# Velocity S-wave (km/s) = 3.05588 3.31917 3.19024
# Velocity P-wave (km/s) = 4.75973 5.27290 5.02287
#
# Compressibility (1/GPa) = 0.05447495
#
# Stress axis : x y z
#
# Youngs Moduli (GPa) = 52.14115 52.14115 39.23893
#
# Poissons Ratio (x) = 0.47843 -0.08813
# Poissons Ratio (y) = 0.47843 -0.08813
# Poissons Ratio (z) = -0.11711 -0.11711
#
# Static dielectric constant tensor:
#      x y z
#    x 3.221870 0.000000 0.000000 
#    y 0.000000 3.221870 0.000000 
#    z 0.000000 0.000000 3.470070 
# 
# 
# High freq. dielectric constant tensor:
#      x y z
#    x 1.697460 0.000000 0.000000 
#    y 0.000000 1.697460 0.000000 
#    z 0.000000 0.000000 1.716020 
# 
# From -- ./inp_files/1002.got.cif
#   From: 2010.03.12/outbox.cif.g09.slc.cpg/sg149_cif.got.tgz:1002.got - 2010.04.03 13:40:41.
