data_PCOD8321677
_publ_section_title
;
Structure prediction by ZEFSAII (Michael W. Deem and Ramdas Pophale) SiO2 
 PCOD8321677
Probable space group: R -3
;
_chemical_formula_sum "Si O2"
_cell_formula_units_Z 126
_cell_length_a 27.704345
_cell_length_b 27.704345
_cell_length_c 10.855238
_cell_angle_alpha 90.000000
_cell_angle_beta 90.000000
_cell_angle_gamma 120.000000
_cell_volume 7215.488770
_symmetry_space_group_name_H-M "R -3"
_symmetry_group_IT_number 148
_symmetry_cell_setting 'hexagonal'
loop_
_space_group_symop_operation_xyz
x,y,z
-y,x-y,z
-x+y,-x,z
-x,-y,-z
y,-x+y,-z
x-y,x,-z
2/3+x,1/3+y,1/3+z
2/3-y,1/3+x-y,1/3+z
2/3-x+y,1/3-x,1/3+z
2/3-x,1/3-y,1/3-z
2/3+y,1/3-x+y,1/3-z
2/3+x-y,1/3+x,1/3-z
1/3+x,2/3+y,2/3+z
1/3-y,2/3+x-y,2/3+z
1/3-x+y,2/3-x,2/3+z
1/3-x,2/3-y,2/3-z
1/3+y,2/3-x+y,2/3-z
1/3+x-y,2/3+x,2/3-z
loop_
_atom_site_type_symbol
_atom_site_label
_atom_site_fract_x
_atom_site_fract_y
_atom_site_fract_z
Si Si1 0.734955 0.552567 0.749220
Si Si2 0.298843 0.031040 0.624144
Si Si3 0.829998 0.205618 0.316839
Si Si4 0.330576 0.238977 0.462937
Si Si5 0.050144 0.837747 0.516199
Si Si6 0.414370 0.114684 0.513315
Si Si7 0.409730 0.245832 0.110300
O O1 0.761784 0.612729 0.812234
O O2 0.778541 0.530673 0.756742
O O3 0.679258 0.507496 0.818903
O O4 0.722732 0.557151 0.608204
O O5 0.297494 0.051917 0.762571
O O6 0.267626 0.050160 0.528154
O O7 0.361748 0.061515 0.574608
O O8 0.272054 0.963798 0.622799
O O9 0.785331 0.149244 0.388675
O O10 0.858577 0.261836 0.394838
O O11 0.794585 0.212617 0.205496
O O12 0.881608 0.203147 0.259161
O O13 0.076228 0.855134 0.653095
O O14 0.457075 0.093219 0.483128
#
# Coordination Sequence:
#
# PCOD8321677 Si02
#       7
#    18  18  18  18  18  18  18
#     4   9  18  31  54  70  99 131 168 216 260 316
#     4  10  20  31  51  77 104 139 180 224 250 321
#     4  11  21  36  51  72 106 141 183 227 269 314
#     4  10  20  32  49  75 104 139 181 219 263 302
#     4  10  17  35  51  76 100 131 174 211 274 312
#     4  10  20  35  53  72 101 145 180 218 265 314
#     4  10  22  34  50  71 103 139 169 225 266 310
#
# _framework density 17.462434999999999
#
# number of rings (size 3 to 8) (size 9 to 14) (size 15 to 20)
#    0.000    2.000    2.857    1.714    2.000    2.286 
#    2.571    1.429    0.000    0.286    0.000    0.000 
#    0.000    0.000    0.000    7.857    0.000    0.143 
#
# Total GULP energy -520560.739340 kJ/mol
# GULP energy per Si atom -12394.303318 kJ/mol
# Density = 1.742269 g / cm^3
# Si number density = 17.462435 Si / 1000 Ang^3
#
#
#
# Elastic Constant Matrix: (Units=GPa)
#
#
# Indices 1 2 3 4 5 6 
#
# 1 62.3878 24.5356 25.4573 -2.9453 0.2703 0.0191
# 2 24.5356 62.4375 25.4984 2.9561 -0.3040 0.0011
# 3 25.4573 25.4984 66.9786 0.0115 -0.0175 0.0220
# 4 -2.9453 2.9561 0.0115 28.3742 0.0052 -0.3040
# 5 0.2703 -0.3040 -0.0175 0.0052 28.3622 -2.9466
# 6 0.0191 0.0011 0.0220 -0.3040 -2.9466 18.9411
#
#
#
# Elastic Compliance Matrix: (Units=1/GPa)
#
#
# Indices 1 2 3 4 5 6 
#
# 1 0.020824 -0.006020 -0.005624 0.002791 -0.000268 -0.000011
# 2 -0.006020 0.020817 -0.005636 -0.002791 0.000279 0.000010
# 3 -0.005624 -0.005636 0.019213 -0.000004 0.000003 -0.000016
# 4 0.002791 -0.002791 -0.000004 0.035830 -0.000004 0.000572
# 5 -0.000268 0.000279 0.000003 -0.000004 0.035843 0.005576
# 6 -0.000011 0.000010 -0.000016 0.000572 0.005576 0.053672
#
#
# Mechanical properties :
#
#
# Convention : Reuss Voigt Hill
#
# Bulk Modulus (GPa) = 38.03071 38.08740 38.05906
# Shear Modulus (GPa) = 21.78430 22.88967 22.33698
#
# Velocity S-wave (km/s) = 3.53582 3.62442 3.58039
# Velocity P-wave (km/s) = 6.20445 6.27484 6.23975
#
# Compressibility (1/GPa) = 0.02629454
#
# Stress axis : x y z
#
# Youngs Moduli (GPa) = 48.02177 48.03800 52.04736
#
# Poissons Ratio (x) = 0.28918 0.29269
# Poissons Ratio (y) = 0.28909 0.29335
# Poissons Ratio (z) = 0.27005 0.27075
#
# Static dielectric constant tensor:
#      x y z
#    x 3.172010 0.000000 -0.000030 
#    y 0.000000 3.172030 0.000000 
#    z -0.000030 0.000000 3.418730 
# 
# 
# High freq. dielectric constant tensor:
#      x y z
#    x 1.651620 0.000000 0.000000 
#    y 0.000000 1.651620 0.000000 
#    z 0.000000 0.000000 1.682610 
# 
# From -- ./inp_files/1619.got.cif
#   From: 2010.03.12/outbox.cif.g09.slc.cpg/sg148_1_cif.got.tgz:1619.got - 2010.04.03 13:38:46.
