data_PCOD8321105
_publ_section_title
;
Structure prediction by ZEFSAII (Michael W. Deem and Ramdas Pophale) SiO2 
 PCOD8321105
Probable space group: I 41/A C D
;
_chemical_formula_sum "Si O2"
_cell_formula_units_Z 176
_cell_length_a 17.675013
_cell_length_b 17.675013
_cell_length_c 25.865586
_cell_angle_alpha 90.000000
_cell_angle_beta 90.000000
_cell_angle_gamma 90.000000
_cell_volume 8080.566447
_symmetry_space_group_name_H-M "I 41/A C D"
_symmetry_group_IT_number 142
_space_group.IT_coordinate_system_code '2'
_symmetry_cell_setting 'tetragonal'
loop_
_space_group_symop_operation_xyz
x,y,z
1/4-y,3/4+x,1/4+z
-x,1/2-y,z
1/4+y,1/4-x,3/4+z
x,-y,1/2-z
1/2-x,y,-z
3/4+y,1/4+x,1/4-z
1/4-y,1/4-x,1/4-z
-x,-y,-z
3/4+y,1/4-x,3/4-z
x,1/2+y,-z
3/4-y,3/4+x,1/4-z
-x,y,1/2+z
1/2+x,-y,z
1/4-y,3/4-x,3/4+z
3/4+y,3/4+x,3/4+z
1/2+x,1/2+y,1/2+z
3/4-y,1/4+x,3/4+z
1/2-x,-y,1/2+z
3/4+y,3/4-x,1/4+z
1/2+x,1/2-y,-z
-x,1/2+y,1/2-z
1/4+y,3/4+x,3/4-z
3/4-y,3/4-x,3/4-z
1/2-x,1/2-y,1/2-z
1/4+y,3/4-x,1/4-z
1/2+x,y,1/2-z
1/4-y,1/4+x,3/4-z
1/2-x,1/2+y,z
x,1/2-y,1/2+z
3/4-y,1/4-x,1/4+z
1/4+y,1/4+x,1/4+z
loop_
_atom_site_type_symbol
_atom_site_label
_atom_site_fract_x
_atom_site_fract_y
_atom_site_fract_z
Si Si1 0.753955 0.199586 0.800067
Si Si2 0.681641 0.457454 0.299801
Si Si3 0.431415 0.494369 0.310311
Si Si4 0.283370 0.033370 0.875000
Si Si5 0.353851 0.289758 0.890301
Si Si6 0.003247 0.372209 0.374800
O O1 0.750000 0.250000 0.750000
O O2 0.740355 0.110905 0.786605
O O3 0.690755 0.232562 0.838589
O O4 0.835894 0.211258 0.825593
O O5 0.648018 0.500000 0.250000
O O6 0.721138 0.524892 0.330757
O O7 0.617272 0.426250 0.335919
O O8 0.408418 0.500000 0.250000
O O9 0.362831 0.481460 0.348599
O O10 0.476837 0.414276 0.316690
O O11 0.479971 0.567623 0.329572
O O12 0.442447 0.307554 0.875000
O O13 0.932563 0.321251 0.394565
#
# Coordination Sequence:
#
# PCOD8321105 Si02
#       6
#    32  32  32  16  32  32
#     4  10  21  36  62 101 130 168 222 278 335 399
#     4  11  22  38  67  96 131 179 222 279 346 407
#     4  11  25  43  68  97 137 179 228 282 354 408
#     4  12  24  42  61  98 138 169 224 292 332 402
#     4   9  20  41  62  95 129 172 229 273 335 416
#     4  10  23  43  68  94 133 173 221 279 333 411
#
# _framework density 21.780652
#
# number of rings (size 3 to 8) (size 9 to 14) (size 15 to 20)
#    0.000    1.636    2.727    2.182    7.636    2.909 
#    0.000    0.455    0.000    0.000    0.000    0.000 
#    0.000    0.000    0.000    0.000    0.000    0.000 
#
# Total GULP energy -1090198.463430 kJ/mol
# GULP energy per Si atom -12388.618903 kJ/mol
# Density = 2.173108 g / cm^3
# Si number density = 21.780652 Si / 1000 Ang^3
#
#
#
# Elastic Constant Matrix: (Units=GPa)
#
#
# Indices 1 2 3 4 5 6 
#
# 1 87.2720 17.6451 43.9330 0.0000 0.0000 0.0000
# 2 17.6451 87.2730 43.9331 0.0000 0.0000 0.0000
# 3 43.9330 43.9331 134.1003 0.0000 0.0000 0.0000
# 4 0.0000 0.0000 0.0000 48.3919 0.0000 0.0000
# 5 0.0000 0.0000 0.0000 0.0000 48.3911 0.0000
# 6 0.0000 0.0000 0.0000 0.0000 0.0000 38.8069
#
#
#
# Elastic Compliance Matrix: (Units=1/GPa)
#
#
# Indices 1 2 3 4 5 6 
#
# 1 0.013749 -0.000613 -0.004303 0.000000 0.000000 0.000000
# 2 -0.000613 0.013749 -0.004303 0.000000 0.000000 0.000000
# 3 -0.004303 -0.004303 0.010277 0.000000 0.000000 0.000000
# 4 0.000000 0.000000 0.000000 0.020665 0.000000 0.000000
# 5 0.000000 0.000000 0.000000 0.000000 0.020665 0.000000
# 6 0.000000 0.000000 0.000000 0.000000 0.000000 0.025769
#
#
# Mechanical properties :
#
#
# Convention : Reuss Voigt Hill
#
# Bulk Modulus (GPa) = 51.72229 57.74085 54.73157
# Shear Modulus (GPa) = 38.53361 40.66027 39.59694
#
# Velocity S-wave (km/s) = 4.21071 4.32534 4.26841
# Velocity P-wave (km/s) = 6.88756 7.17722 7.03388
#
# Compressibility (1/GPa) = 0.01933402
#
# Stress axis : x y z
#
# Youngs Moduli (GPa) = 72.73390 72.73482 97.30738
#
# Poissons Ratio (x) = 0.04462 0.41874
# Poissons Ratio (y) = 0.04462 0.41874
# Poissons Ratio (z) = 0.31299 0.31300
#
# Static dielectric constant tensor:
#      x y z
#    x 3.547240 0.000000 0.000000 
#    y 0.000000 3.547130 0.000000 
#    z 0.000000 0.000000 3.890050 
# 
# 
# High freq. dielectric constant tensor:
#      x y z
#    x 1.854470 0.000000 0.000000 
#    y 0.000000 1.854470 0.000000 
#    z 0.000000 0.000000 1.853660 
# 
# From -- ./inp_files/11465.got.cif
#   From: 2010.03.12/outbox.cif.g09.slc.cpg/sg142_6_cif.got.tgz:11465.got - 2010.04.03 13:27:16.
