data_PCOD8321044
_publ_section_title
;
Structure prediction by ZEFSAII (Michael W. Deem and Ramdas Pophale) SiO2 
 PCOD8321044
Probable space group: I 41/A C D
;
_chemical_formula_sum "Si O2"
_cell_formula_units_Z 216
_cell_length_a 29.637181
_cell_length_b 29.637181
_cell_length_c 12.067044
_cell_angle_alpha 90.000000
_cell_angle_beta 90.000000
_cell_angle_gamma 90.000000
_cell_volume 10599.238907
_symmetry_space_group_name_H-M "I 41/A C D"
_symmetry_group_IT_number 142
_space_group.IT_coordinate_system_code '2'
_symmetry_cell_setting 'tetragonal'
loop_
_space_group_symop_operation_xyz
x,y,z
1/4-y,3/4+x,1/4+z
-x,1/2-y,z
1/4+y,1/4-x,3/4+z
x,-y,1/2-z
1/2-x,y,-z
3/4+y,1/4+x,1/4-z
1/4-y,1/4-x,1/4-z
-x,-y,-z
3/4+y,1/4-x,3/4-z
x,1/2+y,-z
3/4-y,3/4+x,1/4-z
-x,y,1/2+z
1/2+x,-y,z
1/4-y,3/4-x,3/4+z
3/4+y,3/4+x,3/4+z
1/2+x,1/2+y,1/2+z
3/4-y,1/4+x,3/4+z
1/2-x,-y,1/2+z
3/4+y,3/4-x,1/4+z
1/2+x,1/2-y,-z
-x,1/2+y,1/2-z
1/4+y,3/4+x,3/4-z
3/4-y,3/4-x,3/4-z
1/2-x,1/2-y,1/2-z
1/4+y,3/4-x,1/4-z
1/2+x,y,1/2-z
1/4-y,1/4+x,3/4-z
1/2-x,1/2+y,z
x,1/2-y,1/2+z
3/4-y,1/4-x,1/4+z
1/4+y,1/4+x,1/4+z
loop_
_atom_site_type_symbol
_atom_site_label
_atom_site_fract_x
_atom_site_fract_y
_atom_site_fract_z
Si Si1 0.793784 0.713748 0.562022
Si Si2 0.642346 0.213759 0.980580
Si Si3 0.361311 0.097381 0.209147
Si Si4 0.926411 0.711676 0.487506
Si Si5 0.425166 0.050816 0.447705
Si Si6 0.855482 0.358843 0.009628
Si Si7 0.250000 0.364251 0.000000
Si Si8 0.500000 0.250000 0.125000
O O1 0.750000 0.732073 0.500000
O O2 0.828071 0.755905 0.565089
O O3 0.783759 0.696553 0.687279
O O4 0.810728 0.672024 0.484313
O O5 0.593905 0.238122 0.969330
O O6 0.665648 0.211449 0.859336
O O7 0.637475 0.163230 0.025663
O O8 0.328387 0.128145 0.284325
O O9 0.354832 0.044316 0.234289
O O10 0.348582 0.102171 0.080185
O O11 0.938064 0.688064 0.375000
O O12 0.891889 0.676409 0.542636
O O13 0.972496 0.713808 0.554724
O O14 0.416030 0.009438 0.361147
O O15 0.868044 0.381957 0.125000
#
# Coordination Sequence:
#
# PCOD8321044 Si02
#       8
#    32  32  32  32  32  32  16   8
#     4  10  23  37  57  90 125 152 195 251 297 359
#     4  10  21  37  57  80 117 157 193 249 299 346
#     4  10  21  38  61  87 116 154 198 245 301 364
#     4  10  22  35  50  79 107 152 208 238 291 343
#     4  10  23  41  58  90 122 156 201 242 310 365
#     4   9  20  38  57  80 115 162 195 233 304 362
#     4  10  20  36  64  92 108 156 202 240 298 358
#     4  12  22  32  52  74 108 148 202 268 284 318
#
# _framework density 20.378822
#
# number of rings (size 3 to 8) (size 9 to 14) (size 15 to 20)
#    0.000    2.074    0.000    2.889    6.222   10.074 
#    0.000    0.000    0.000    0.000   30.815    0.000 
#    0.000    0.000    0.000    0.000    0.000    0.000 
#
# Total GULP energy -1338352.278362 kJ/mol
# GULP energy per Si atom -12392.150726 kJ/mol
# Density = 2.033244 g / cm^3
# Si number density = 20.378822 Si / 1000 Ang^3
#
#
#
# Elastic Constant Matrix: (Units=GPa)
#
#
# Indices 1 2 3 4 5 6 
#
# 1 217.8273 -126.9748 25.8890 0.0000 0.0000 0.0000
# 2 -126.9748 217.8299 25.8953 0.0000 0.0000 0.0000
# 3 25.8890 25.8953 99.4949 0.0000 0.0000 0.0000
# 4 0.0000 0.0000 0.0000 21.3398 0.0000 0.0000
# 5 0.0000 0.0000 0.0000 0.0000 21.3407 0.0000
# 6 0.0000 0.0000 0.0000 0.0000 0.0000 20.5970
#
#
#
# Elastic Compliance Matrix: (Units=1/GPa)
#
#
# Indices 1 2 3 4 5 6 
#
# 1 0.007912 0.005012 -0.003363 0.000000 0.000000 0.000000
# 2 0.005012 0.007912 -0.003363 0.000000 0.000000 0.000000
# 3 -0.003363 -0.003363 0.011801 0.000000 0.000000 0.000000
# 4 0.000000 0.000000 0.000000 0.046861 0.000000 0.000000
# 5 0.000000 0.000000 0.000000 0.000000 0.046859 0.000000
# 6 0.000000 0.000000 0.000000 0.000000 0.000000 0.048551
#
#
# Mechanical properties :
#
#
# Convention : Reuss Voigt Hill
#
# Bulk Modulus (GPa) = 41.32966 42.75235 42.04101
# Shear Modulus (GPa) = 27.56494 53.34502 40.45498
#
# Velocity S-wave (km/s) = 3.68180 5.12187 4.46033
# Velocity P-wave (km/s) = 6.19668 7.48347 6.87027
#
# Compressibility (1/GPa) = 0.02419570
#
# Stress axis : x y z
#
# Youngs Moduli (GPa) = 126.39187 126.39143 84.73707
#
# Poissons Ratio (x) = -0.63344 0.28498
# Poissons Ratio (y) = -0.63344 0.28500
# Poissons Ratio (z) = 0.42507 0.42509
#
# Static dielectric constant tensor:
#      x y z
#    x 3.618610 0.000000 0.000000 
#    y 0.000000 3.618620 0.000000 
#    z 0.000000 0.000000 3.682410 
# 
# 
# High freq. dielectric constant tensor:
#      x y z
#    x 1.784710 0.000000 0.000000 
#    y 0.000000 1.784710 0.000000 
#    z 0.000000 0.000000 1.800560 
# 
# From -- ./inp_files/4269.got.cif
#   From: 2010.03.12/outbox.cif.g09.slc.cpg/sg142_3_cif.got.tgz:4269.got - 2010.04.03 13:27:16.
