data_PCOD8321210
_publ_section_title
;
Structure prediction by ZEFSAII (Michael W. Deem and Ramdas Pophale) SiO2 
 PCOD8321210
Probable space group: I 41/A C D
;
_chemical_formula_sum "Si O2"
_cell_formula_units_Z 64
_cell_length_a 9.858492
_cell_length_b 9.858492
_cell_length_c 24.941800
_cell_angle_alpha 90.000000
_cell_angle_beta 90.000000
_cell_angle_gamma 90.000000
_cell_volume 2424.090163
_symmetry_space_group_name_H-M "I 41/A C D"
_symmetry_group_IT_number 142
_space_group.IT_coordinate_system_code '2'
_symmetry_cell_setting 'tetragonal'
loop_
_space_group_symop_operation_xyz
x,y,z
1/4-y,3/4+x,1/4+z
-x,1/2-y,z
1/4+y,1/4-x,3/4+z
x,-y,1/2-z
1/2-x,y,-z
3/4+y,1/4+x,1/4-z
1/4-y,1/4-x,1/4-z
-x,-y,-z
3/4+y,1/4-x,3/4-z
x,1/2+y,-z
3/4-y,3/4+x,1/4-z
-x,y,1/2+z
1/2+x,-y,z
1/4-y,3/4-x,3/4+z
3/4+y,3/4+x,3/4+z
1/2+x,1/2+y,1/2+z
3/4-y,1/4+x,3/4+z
1/2-x,-y,1/2+z
3/4+y,3/4-x,1/4+z
1/2+x,1/2-y,-z
-x,1/2+y,1/2-z
1/4+y,3/4+x,3/4-z
3/4-y,3/4-x,3/4-z
1/2-x,1/2-y,1/2-z
1/4+y,3/4-x,1/4-z
1/2+x,y,1/2-z
1/4-y,1/4+x,3/4-z
1/2-x,1/2+y,z
x,1/2-y,1/2+z
3/4-y,1/4-x,1/4+z
1/4+y,1/4+x,1/4+z
loop_
_atom_site_type_symbol
_atom_site_label
_atom_site_fract_x
_atom_site_fract_y
_atom_site_fract_z
Si Si1 0.784037 0.736782 0.633337
Si Si2 0.621663 0.834826 0.037403
O O1 0.866712 0.873679 0.641685
O O2 0.727657 0.688981 0.691168
O O3 0.666757 0.756382 0.588840
O O4 0.500000 0.750000 0.008293
O O5 0.750000 0.862541 0.000000
#
# Coordination Sequence:
#
# PCOD8321210 Si02
#       2
#    32  32
#     4  10  24  47  74 107 150 200 254 322 389 459
#     4  11  27  46  74 110 154 202 261 321 391 467
#
# _framework density 26.40166
#
# number of rings (size 3 to 8) (size 9 to 14) (size 15 to 20)
#    0.000    1.500    0.000    3.000   21.000    4.000 
#    0.000    0.000    0.000    0.000    0.000    0.000 
#    0.000    0.000    0.000    0.000    0.000    0.000 
#
# Total GULP energy -396866.695233 kJ/mol
# GULP energy per Si atom -12402.084226 kJ/mol
# Density = 2.634157 g / cm^3
# Si number density = 26.401660 Si / 1000 Ang^3
#
#
#
# Elastic Constant Matrix: (Units=GPa)
#
#
# Indices 1 2 3 4 5 6 
#
# 1 133.4284 56.3732 37.9557 0.0000 0.0000 0.0000
# 2 56.3732 133.4284 37.9557 0.0000 0.0000 0.0000
# 3 37.9557 37.9557 95.6322 0.0000 0.0000 0.0000
# 4 0.0000 0.0000 0.0000 33.4937 0.0000 0.0000
# 5 0.0000 0.0000 0.0000 0.0000 33.4937 0.0000
# 6 0.0000 0.0000 0.0000 0.0000 0.0000 46.6535
#
#
#
# Elastic Compliance Matrix: (Units=1/GPa)
#
#
# Indices 1 2 3 4 5 6 
#
# 1 0.009620 -0.003357 -0.002486 0.000000 0.000000 0.000000
# 2 -0.003357 0.009620 -0.002486 0.000000 0.000000 0.000000
# 3 -0.002486 -0.002486 0.012430 0.000000 0.000000 0.000000
# 4 0.000000 0.000000 0.000000 0.029856 0.000000 0.000000
# 5 0.000000 0.000000 0.000000 0.000000 0.029856 0.000000
# 6 0.000000 0.000000 0.000000 0.000000 0.000000 0.021435
#
#
# Mechanical properties :
#
#
# Convention : Reuss Voigt Hill
#
# Bulk Modulus (GPa) = 66.60993 69.67314 68.14154
# Shear Modulus (GPa) = 37.18042 38.07515 37.62779
#
# Velocity S-wave (km/s) = 3.75675 3.80168 3.77928
# Velocity P-wave (km/s) = 6.64092 6.76146 6.70146
#
# Compressibility (1/GPa) = 0.01501278
#
# Stress axis : x y z
#
# Youngs Moduli (GPa) = 103.94736 103.94737 80.45178
#
# Poissons Ratio (x) = 0.34900 0.19998
# Poissons Ratio (y) = 0.34900 0.19998
# Poissons Ratio (z) = 0.25838 0.25838
#
# Static dielectric constant tensor:
#      x y z
#    x 4.744510 0.000000 0.000000 
#    y 0.000000 4.744510 0.000000 
#    z 0.000000 0.000000 4.386120 
# 
# 
# High freq. dielectric constant tensor:
#      x y z
#    x 2.066570 0.000000 0.000000 
#    y 0.000000 2.066570 0.000000 
#    z 0.000000 0.000000 2.045380 
# 
# From -- ./inp_files/9472.got.cif
#   From: 2010.03.12/outbox.cif.g09.slc.cpg/sg142_5_cif.got.tgz:9472.got - 2010.04.03 13:27:16.
