data_PCOD8321091
_publ_section_title
;
Structure prediction by ZEFSAII (Michael W. Deem and Ramdas Pophale) SiO2 
 PCOD8321091
Probable space group: I 41/A C D
;
_chemical_formula_sum "Si O2"
_cell_formula_units_Z 120
_cell_length_a 20.060410
_cell_length_b 20.060410
_cell_length_c 12.972000
_cell_angle_alpha 90.000000
_cell_angle_beta 90.000000
_cell_angle_gamma 90.000000
_cell_volume 5220.192880
_symmetry_space_group_name_H-M "I 41/A C D"
_symmetry_group_IT_number 142
_space_group.IT_coordinate_system_code '2'
_symmetry_cell_setting 'tetragonal'
loop_
_space_group_symop_operation_xyz
x,y,z
1/4-y,3/4+x,1/4+z
-x,1/2-y,z
1/4+y,1/4-x,3/4+z
x,-y,1/2-z
1/2-x,y,-z
3/4+y,1/4+x,1/4-z
1/4-y,1/4-x,1/4-z
-x,-y,-z
3/4+y,1/4-x,3/4-z
x,1/2+y,-z
3/4-y,3/4+x,1/4-z
-x,y,1/2+z
1/2+x,-y,z
1/4-y,3/4-x,3/4+z
3/4+y,3/4+x,3/4+z
1/2+x,1/2+y,1/2+z
3/4-y,1/4+x,3/4+z
1/2-x,-y,1/2+z
3/4+y,3/4-x,1/4+z
1/2+x,1/2-y,-z
-x,1/2+y,1/2-z
1/4+y,3/4+x,3/4-z
3/4-y,3/4-x,3/4-z
1/2-x,1/2-y,1/2-z
1/4+y,3/4-x,1/4-z
1/2+x,y,1/2-z
1/4-y,1/4+x,3/4-z
1/2-x,1/2+y,z
x,1/2-y,1/2+z
3/4-y,1/4-x,1/4+z
1/4+y,1/4+x,1/4+z
loop_
_atom_site_type_symbol
_atom_site_label
_atom_site_fract_x
_atom_site_fract_y
_atom_site_fract_z
Si Si1 0.710890 0.185937 0.788338
Si Si2 0.520235 0.000000 0.750000
Si Si3 0.562781 0.382925 0.648471
Si Si4 0.811549 0.078684 0.737583
Si Si5 0.500000 0.750000 0.875000
O O1 0.750000 0.250000 0.750000
O O2 0.710863 0.185727 0.913447
O O3 0.639467 0.189674 0.727840
O O4 0.741818 0.116378 0.749246
O O5 0.473667 0.945260 0.801127
O O6 0.639602 0.385952 0.681250
O O7 0.529711 0.313579 0.687273
O O8 0.842107 0.092107 0.625000
O O9 0.799616 0.000000 0.750000
#
# Coordination Sequence:
#
# PCOD8321091 Si02
#       5
#    32  16  32  32   8
#     4  10  21  41  68  99 142 189 241 301 371 451
#     4  10  20  42  70 104 142 202 238 310 378 440
#     4  11  22  45  68 103 144 192 253 312 382 455
#     4  12  22  44  73 105 142 191 247 307 381 456
#     4  12  28  44  74 108 144 198 264 312 378 476
#
# _framework density 22.987656999999999
#
# number of rings (size 3 to 8) (size 9 to 14) (size 15 to 20)
#    0.000    1.067    4.000    4.800    0.000    0.000 
#    2.400   10.000    0.000    0.000    0.000    0.000 
#    0.000    0.000    0.000    0.000    0.000    0.000 
#
# Total GULP energy -743312.442060 kJ/mol
# GULP energy per Si atom -12388.540701 kJ/mol
# Density = 2.293534 g / cm^3
# Si number density = 22.987657 Si / 1000 Ang^3
#
#
#
# Elastic Constant Matrix: (Units=GPa)
#
#
# Indices 1 2 3 4 5 6 
#
# 1 125.9435 34.0502 17.7260 0.0000 0.0000 0.0000
# 2 34.0502 125.9435 17.7260 0.0000 0.0000 0.0000
# 3 17.7260 17.7260 141.7020 0.0000 0.0000 0.0000
# 4 0.0000 0.0000 0.0000 19.6559 0.0000 0.0000
# 5 0.0000 0.0000 0.0000 0.0000 19.6559 0.0000
# 6 0.0000 0.0000 0.0000 0.0000 0.0000 39.1701
#
#
#
# Elastic Compliance Matrix: (Units=1/GPa)
#
#
# Indices 1 2 3 4 5 6 
#
# 1 0.008655 -0.002227 -0.000804 0.000000 0.000000 0.000000
# 2 -0.002227 0.008655 -0.000804 0.000000 0.000000 0.000000
# 3 -0.000804 -0.000804 0.007258 0.000000 0.000000 0.000000
# 4 0.000000 0.000000 0.000000 0.050875 0.000000 0.000000
# 5 0.000000 0.000000 0.000000 0.000000 0.050875 0.000000
# 6 0.000000 0.000000 0.000000 0.000000 0.000000 0.025530
#
#
# Mechanical properties :
#
#
# Convention : Reuss Voigt Hill
#
# Bulk Modulus (GPa) = 59.17687 59.17706 59.17696
# Shear Modulus (GPa) = 30.27505 37.30215 33.78860
#
# Velocity S-wave (km/s) = 3.63300 4.03265 3.83803
# Velocity P-wave (km/s) = 6.58765 6.89071 6.74088
#
# Compressibility (1/GPa) = 0.01689850
#
# Stress axis : x y z
#
# Youngs Moduli (GPa) = 115.53600 115.53600 137.77420
#
# Poissons Ratio (x) = 0.25728 0.11079
# Poissons Ratio (y) = 0.25728 0.11079
# Poissons Ratio (z) = 0.09291 0.09291
#
# Static dielectric constant tensor:
#      x y z
#    x 4.141170 0.000000 0.000000 
#    y 0.000000 4.141170 0.000000 
#    z 0.000000 0.000000 4.860470 
# 
# 
# High freq. dielectric constant tensor:
#      x y z
#    x 1.903890 0.000000 0.000000 
#    y 0.000000 1.903890 0.000000 
#    z 0.000000 0.000000 1.903030 
# 
# From -- ./inp_files/5023.got.cif
#   From: 2010.03.12/outbox.cif.g09.slc.cpg/sg142_3_cif.got.tgz:5023.got - 2010.04.03 13:27:16.
