data_PCOD8321043
_publ_section_title
;
Structure prediction by ZEFSAII (Michael W. Deem and Ramdas Pophale) SiO2 
 PCOD8321043
Probable space group: I 41/A C D
;
_chemical_formula_sum "Si O2"
_cell_formula_units_Z 160
_cell_length_a 25.689707
_cell_length_b 25.689707
_cell_length_c 13.042579
_cell_angle_alpha 90.000000
_cell_angle_beta 90.000000
_cell_angle_gamma 90.000000
_cell_volume 8607.594076
_symmetry_space_group_name_H-M "I 41/A C D"
_symmetry_group_IT_number 142
_space_group.IT_coordinate_system_code '2'
_symmetry_cell_setting 'tetragonal'
loop_
_space_group_symop_operation_xyz
x,y,z
1/4-y,3/4+x,1/4+z
-x,1/2-y,z
1/4+y,1/4-x,3/4+z
x,-y,1/2-z
1/2-x,y,-z
3/4+y,1/4+x,1/4-z
1/4-y,1/4-x,1/4-z
-x,-y,-z
3/4+y,1/4-x,3/4-z
x,1/2+y,-z
3/4-y,3/4+x,1/4-z
-x,y,1/2+z
1/2+x,-y,z
1/4-y,3/4-x,3/4+z
3/4+y,3/4+x,3/4+z
1/2+x,1/2+y,1/2+z
3/4-y,1/4+x,3/4+z
1/2-x,-y,1/2+z
3/4+y,3/4-x,1/4+z
1/2+x,1/2-y,-z
-x,1/2+y,1/2-z
1/4+y,3/4+x,3/4-z
3/4-y,3/4-x,3/4-z
1/2-x,1/2-y,1/2-z
1/4+y,3/4-x,1/4-z
1/2+x,y,1/2-z
1/4-y,1/4+x,3/4-z
1/2-x,1/2+y,z
x,1/2-y,1/2+z
3/4-y,1/4-x,1/4+z
1/4+y,1/4+x,1/4+z
loop_
_atom_site_type_symbol
_atom_site_label
_atom_site_fract_x
_atom_site_fract_y
_atom_site_fract_z
Si Si1 0.299785 0.238626 0.561457
Si Si2 0.595105 0.426205 0.605436
Si Si3 0.246434 0.641378 0.336439
Si Si4 0.307511 0.931215 0.506899
Si Si5 0.146392 0.653167 0.463186
O O1 0.250000 0.261384 0.500000
O O2 0.330347 0.283755 0.621379
O O3 0.281047 0.191345 0.634117
O O4 0.343063 0.213926 0.484885
O O5 0.597421 0.471117 0.522206
O O6 0.623251 0.443051 0.709936
O O7 0.623632 0.374450 0.564124
O O8 0.283187 0.592147 0.318004
O O9 0.202195 0.629044 0.423201
O O10 0.250000 0.955490 0.500000
O O11 0.324802 0.925199 0.625000
O O12 0.102951 0.647050 0.375000
#
# Coordination Sequence:
#
# PCOD8321043 Si02
#       5
#    32  32  32  32  32
#     4  10  20  36  63  86 116 157 197 249 294 347
#     4  11  21  38  58  85 119 150 203 251 292 345
#     4  10  21  39  58  84 120 160 201 236 292 361
#     4  12  24  37  53  84 126 164 196 234 298 362
#     4   9  20  38  58  87 113 151 200 241 292 358
#
# _framework density 18.588235999999998
#
# number of rings (size 3 to 8) (size 9 to 14) (size 15 to 20)
#    0.000    1.600    4.000    1.200    0.000    2.400 
#    0.000    0.000    0.000    0.600    0.000    4.200 
#    0.000    0.000    0.000    0.000    0.000    0.000 
#
# Total GULP energy -991415.125959 kJ/mol
# GULP energy per Si atom -12392.689074 kJ/mol
# Density = 1.854593 g / cm^3
# Si number density = 18.588236 Si / 1000 Ang^3
#
#
#
# Elastic Constant Matrix: (Units=GPa)
#
#
# Indices 1 2 3 4 5 6 
#
# 1 95.7841 65.7705 45.1382 0.0000 0.0000 0.0000
# 2 65.7705 95.7836 45.1387 0.0000 0.0000 0.0000
# 3 45.1382 45.1387 87.5853 0.0000 0.0000 0.0000
# 4 0.0000 0.0000 0.0000 31.2202 0.0000 0.0000
# 5 0.0000 0.0000 0.0000 0.0000 31.2204 0.0000
# 6 0.0000 0.0000 0.0000 0.0000 0.0000 14.6873
#
#
#
# Elastic Compliance Matrix: (Units=1/GPa)
#
#
# Indices 1 2 3 4 5 6 
#
# 1 0.021006 -0.012312 -0.004480 0.000000 0.000000 0.000000
# 2 -0.012312 0.021006 -0.004480 0.000000 0.000000 0.000000
# 3 -0.004480 -0.004480 0.016035 0.000000 0.000000 0.000000
# 4 0.000000 0.000000 0.000000 0.032031 0.000000 0.000000
# 5 0.000000 0.000000 0.000000 0.000000 0.032030 0.000000
# 6 0.000000 0.000000 0.000000 0.000000 0.000000 0.068086
#
#
# Mechanical properties :
#
#
# Convention : Reuss Voigt Hill
#
# Bulk Modulus (GPa) = 64.51143 65.69419 65.10281
# Shear Modulus (GPa) = 21.01657 23.63264 22.32460
#
# Velocity S-wave (km/s) = 3.36614 3.56950 3.46931
# Velocity P-wave (km/s) = 7.06320 7.23927 7.15178
#
# Compressibility (1/GPa) = 0.01550113
#
# Stress axis : x y z
#
# Youngs Moduli (GPa) = 47.60580 47.60521 62.36182
#
# Poissons Ratio (x) = 0.58614 0.27939
# Poissons Ratio (y) = 0.58615 0.27941
# Poissons Ratio (z) = 0.21328 0.21329
#
# Static dielectric constant tensor:
#      x y z
#    x 3.300000 0.000000 0.000000 
#    y 0.000000 3.300000 0.000000 
#    z 0.000000 0.000000 3.641770 
# 
# 
# High freq. dielectric constant tensor:
#      x y z
#    x 1.701270 0.000000 0.000000 
#    y 0.000000 1.701270 0.000000 
#    z 0.000000 0.000000 1.736740 
# 
# From -- ./inp_files/5388.got.cif
#   From: 2010.03.12/outbox.cif.g09.slc.cpg/sg142_3_cif.got.tgz:5388.got - 2010.04.03 13:27:16.
