data_PCOD8321432
_publ_section_title
;
Structure prediction by ZEFSAII (Michael W. Deem and Ramdas Pophale) SiO2 
 PCOD8321432
Probable space group: P 31
;
_chemical_formula_sum "Si O2"
_cell_formula_units_Z 18
_cell_length_a 9.501082
_cell_length_b 9.501082
_cell_length_c 11.330321
_cell_angle_alpha 90.000000
_cell_angle_beta 90.000000
_cell_angle_gamma 120.000000
_cell_volume 885.765944
_symmetry_space_group_name_H-M "P 31"
_symmetry_group_IT_number 144
_symmetry_cell_setting 'hexagonal'
loop_
_space_group_symop_operation_xyz
x,y,z
-y,x-y,1/3+z
-x+y,-x,2/3+z
loop_
_atom_site_type_symbol
_atom_site_label
_atom_site_fract_x
_atom_site_fract_y
_atom_site_fract_z
Si Si1 0.107335 0.252465 0.613380
Si Si2 0.410740 0.321521 0.747390
Si Si3 0.269584 0.490284 0.183967
Si Si4 0.255927 0.244113 0.375768
Si Si5 0.521536 0.080868 0.843111
Si Si6 0.397082 0.554034 0.939191
O O1 0.227837 0.222385 0.696583
O O2 0.126675 0.213291 0.478306
O O3 0.161186 0.439390 0.627894
O O4 0.924148 0.140053 0.651730
O O5 0.450763 0.193283 0.804762
O O6 0.539992 0.419951 0.644852
O O7 0.428488 0.447660 0.846711
O O8 0.238178 0.352503 0.276446
O O9 0.406987 0.666666 0.228246
O O10 0.106056 0.494517 0.161929
O O11 0.333334 0.455007 0.061579
O O12 0.438830 0.327883 0.426575
#
# Coordination Sequence:
#
# PCOD8321432 Si02
#       6
#     3   3   3   3   3   3
#     4  11  25  46  66 102 144 176 235 294 346 417
#     4  11  26  44  71 100 143 184 231 294 351 418
#     4  12  22  45  74  97 131 186 234 280 349 424
#     4  11  26  44  71 100 143 184 231 294 351 418
#     4  11  25  46  66 102 144 176 235 294 346 417
#     4  12  22  45  74  97 131 186 234 280 349 424
#
# _framework density 20.321396
#
# number of rings (size 3 to 8) (size 9 to 14) (size 15 to 20)
#    0.000    0.667    6.667    1.000    4.667    8.000 
#    0.000    0.000    0.000    0.000    0.000    0.000 
#    0.000    0.000    0.000    0.000    0.000    0.000 
#
# Total GULP energy -223288.360266 kJ/mol
# GULP energy per Si atom -12404.908904 kJ/mol
# Density = 2.027514 g / cm^3
# Si number density = 20.321396 Si / 1000 Ang^3
#
#
#
# Elastic Constant Matrix: (Units=GPa)
#
#
# Indices 1 2 3 4 5 6 
#
# 1 99.8286 41.0677 59.6784 -9.5289 -0.0005 0.0000
# 2 41.0677 99.8286 59.6784 9.5289 0.0005 0.0000
# 3 59.6784 59.6784 154.3959 0.0000 0.0000 0.0000
# 4 -9.5289 9.5289 0.0000 31.8140 0.0000 0.0005
# 5 -0.0005 0.0005 0.0000 0.0000 31.8140 -9.5289
# 6 0.0000 0.0000 0.0000 0.0005 -9.5289 29.3804
#
#
#
# Elastic Compliance Matrix: (Units=1/GPa)
#
#
# Indices 1 2 3 4 5 6 
#
# 1 0.014701 -0.004148 -0.004079 0.005646 0.000000 0.000000
# 2 -0.004148 0.014701 -0.004079 -0.005646 0.000000 0.000000
# 3 -0.004079 -0.004079 0.009630 0.000000 0.000000 0.000000
# 4 0.005646 -0.005646 0.000000 0.034815 0.000000 -0.000001
# 5 0.000000 0.000000 0.000000 0.000000 0.034815 0.011291
# 6 0.000000 0.000000 0.000000 -0.000001 0.011291 0.037698
#
#
# Mechanical properties :
#
#
# Convention : Reuss Voigt Hill
#
# Bulk Modulus (GPa) = 69.34863 74.98914 72.16889
# Shear Modulus (GPa) = 28.44486 31.51025 29.97755
#
# Velocity S-wave (km/s) = 3.74538 3.94203 3.84496
# Velocity P-wave (km/s) = 7.27350 7.59613 7.43657
#
# Compressibility (1/GPa) = 0.01441990
#
# Stress axis : x y z
#
# Youngs Moduli (GPa) = 68.02264 68.02264 103.84083
#
# Poissons Ratio (x) = 0.28217 0.42356
# Poissons Ratio (y) = 0.28217 0.42356
# Poissons Ratio (z) = 0.27746 0.27746
#
# Static dielectric constant tensor:
#      x y z
#    x 3.687280 0.000000 0.000000 
#    y 0.000000 3.687280 0.000000 
#    z 0.000000 0.000000 4.028810 
# 
# 
# High freq. dielectric constant tensor:
#      x y z
#    x 1.792350 0.000000 0.000000 
#    y 0.000000 1.792350 0.000000 
#    z 0.000000 0.000000 1.815880 
# 
# From -- ./inp_files/510.got.cif
#   From: 2010.03.12/outbox.cif.g09.slc.cpg/sg144_cif.got.tgz:510.got - 2010.04.03 13:34:42.
