data_PCOD8321116
_publ_section_title
;
Structure prediction by ZEFSAII (Michael W. Deem and Ramdas Pophale) SiO2 
 PCOD8321116
Probable space group: I 41/A C D
;
_chemical_formula_sum "Si O2"
_cell_formula_units_Z 136
_cell_length_a 18.116431
_cell_length_b 18.116431
_cell_length_c 17.270624
_cell_angle_alpha 90.000000
_cell_angle_beta 90.000000
_cell_angle_gamma 90.000000
_cell_volume 5668.306396
_symmetry_space_group_name_H-M "I 41/A C D"
_symmetry_group_IT_number 142
_space_group.IT_coordinate_system_code '2'
_symmetry_cell_setting 'tetragonal'
loop_
_space_group_symop_operation_xyz
x,y,z
1/4-y,3/4+x,1/4+z
-x,1/2-y,z
1/4+y,1/4-x,3/4+z
x,-y,1/2-z
1/2-x,y,-z
3/4+y,1/4+x,1/4-z
1/4-y,1/4-x,1/4-z
-x,-y,-z
3/4+y,1/4-x,3/4-z
x,1/2+y,-z
3/4-y,3/4+x,1/4-z
-x,y,1/2+z
1/2+x,-y,z
1/4-y,3/4-x,3/4+z
3/4+y,3/4+x,3/4+z
1/2+x,1/2+y,1/2+z
3/4-y,1/4+x,3/4+z
1/2-x,-y,1/2+z
3/4+y,3/4-x,1/4+z
1/2+x,1/2-y,-z
-x,1/2+y,1/2-z
1/4+y,3/4+x,3/4-z
3/4-y,3/4-x,3/4-z
1/2-x,1/2-y,1/2-z
1/4+y,3/4-x,1/4-z
1/2+x,y,1/2-z
1/4-y,1/4+x,3/4-z
1/2-x,1/2+y,z
x,1/2-y,1/2+z
3/4-y,1/4-x,1/4+z
1/4+y,1/4+x,1/4+z
loop_
_atom_site_type_symbol
_atom_site_label
_atom_site_fract_x
_atom_site_fract_y
_atom_site_fract_z
Si Si1 0.741999 0.581939 0.813968
Si Si2 0.223783 0.226605 0.615201
Si Si3 0.548349 0.878362 0.773835
Si Si4 0.500000 0.750000 0.375000
Si Si5 0.204609 0.869968 0.668596
O O1 0.794471 0.544471 0.875000
O O2 0.769416 0.667740 0.815631
O O3 0.755050 0.565621 0.722129
O O4 0.656934 0.568344 0.836743
O O5 0.291932 0.206212 0.561003
O O6 0.145602 0.221758 0.566897
O O7 0.235367 0.307371 0.651316
O O8 0.493535 0.821146 0.817631
O O9 0.630567 0.844596 0.785652
#
# Coordination Sequence:
#
# PCOD8321116 Si02
#       5
#    32  32  32   8  32
#     4  11  22  41  70  95 136 181 236 285 360 436
#     4  10  21  41  67  99 138 177 231 291 352 426
#     4  10  21  38  68  99 134 183 234 284 350 428
#     4  12  20  40  68 106 136 192 246 292 360 436
#     4  11  22  42  68 100 132 186 231 289 355 430
#
# _framework density 23.993058000000001
#
# number of rings (size 3 to 8) (size 9 to 14) (size 15 to 20)
#    0.000    1.412    4.706    1.412    0.000    0.000 
#    8.471    0.000    0.000    7.059    0.000    0.000 
#    0.000    0.000    0.000    0.000    0.000    0.000 
#
# Total GULP energy -842424.235511 kJ/mol
# GULP energy per Si atom -12388.591699 kJ/mol
# Density = 2.393845 g / cm^3
# Si number density = 23.993058 Si / 1000 Ang^3
#
#
#
# Elastic Constant Matrix: (Units=GPa)
#
#
# Indices 1 2 3 4 5 6 
#
# 1 60.8696 43.5760 28.5264 0.0000 0.0000 0.0000
# 2 43.5760 60.8696 28.5264 0.0000 0.0000 0.0000
# 3 28.5264 28.5264 93.9634 0.0000 0.0000 0.0000
# 4 0.0000 0.0000 0.0000 27.8218 0.0000 0.0000
# 5 0.0000 0.0000 0.0000 0.0000 27.8218 0.0000
# 6 0.0000 0.0000 0.0000 0.0000 0.0000 30.1008
#
#
#
# Elastic Compliance Matrix: (Units=1/GPa)
#
#
# Indices 1 2 3 4 5 6 
#
# 1 0.034651 -0.023174 -0.003485 0.000000 0.000000 0.000000
# 2 -0.023174 0.034651 -0.003485 0.000000 0.000000 0.000000
# 3 -0.003485 -0.003485 0.012758 0.000000 0.000000 0.000000
# 4 0.000000 0.000000 0.000000 0.035943 0.000000 0.000000
# 5 0.000000 0.000000 0.000000 0.000000 0.035943 0.000000
# 6 0.000000 0.000000 0.000000 0.000000 0.000000 0.033222
#
#
# Mechanical properties :
#
#
# Convention : Reuss Voigt Hill
#
# Bulk Modulus (GPa) = 45.92306 46.32894 46.12600
# Shear Modulus (GPa) = 19.62999 24.82048 22.22523
#
# Velocity S-wave (km/s) = 2.86344 3.21983 3.04685
# Velocity P-wave (km/s) = 5.48763 5.75971 5.62532
#
# Compressibility (1/GPa) = 0.02177555
#
# Stress axis : x y z
#
# Youngs Moduli (GPa) = 28.85894 28.85894 78.38100
#
# Poissons Ratio (x) = 0.66876 0.27312
# Poissons Ratio (y) = 0.66876 0.27312
# Poissons Ratio (z) = 0.10056 0.10056
#
# Static dielectric constant tensor:
#      x y z
#    x 4.461880 0.000000 0.000000 
#    y 0.000000 4.461880 0.000000 
#    z 0.000000 0.000000 4.696230 
# 
# 
# High freq. dielectric constant tensor:
#      x y z
#    x 1.936610 0.000000 0.000000 
#    y 0.000000 1.936610 0.000000 
#    z 0.000000 0.000000 1.959550 
# 
# From -- ./inp_files/8823.got.cif
#   From: 2010.03.12/outbox.cif.g09.slc.cpg/sg142_5_cif.got.tgz:8823.got - 2010.04.03 13:27:16.
