data_PCOD8321265
_publ_section_title
;
Structure prediction by ZEFSAII (Michael W. Deem and Ramdas Pophale) SiO2 
 PCOD8321265
Probable space group: I 41/A C D
;
_chemical_formula_sum "Si O2"
_cell_formula_units_Z 136
_cell_length_a 24.271316
_cell_length_b 24.271316
_cell_length_c 10.879917
_cell_angle_alpha 90.000000
_cell_angle_beta 90.000000
_cell_angle_gamma 90.000000
_cell_volume 6409.324075
_symmetry_space_group_name_H-M "I 41/A C D"
_symmetry_group_IT_number 142
_space_group.IT_coordinate_system_code '2'
_symmetry_cell_setting 'tetragonal'
loop_
_space_group_symop_operation_xyz
x,y,z
1/4-y,3/4+x,1/4+z
-x,1/2-y,z
1/4+y,1/4-x,3/4+z
x,-y,1/2-z
1/2-x,y,-z
3/4+y,1/4+x,1/4-z
1/4-y,1/4-x,1/4-z
-x,-y,-z
3/4+y,1/4-x,3/4-z
x,1/2+y,-z
3/4-y,3/4+x,1/4-z
-x,y,1/2+z
1/2+x,-y,z
1/4-y,3/4-x,3/4+z
3/4+y,3/4+x,3/4+z
1/2+x,1/2+y,1/2+z
3/4-y,1/4+x,3/4+z
1/2-x,-y,1/2+z
3/4+y,3/4-x,1/4+z
1/2+x,1/2-y,-z
-x,1/2+y,1/2-z
1/4+y,3/4+x,3/4-z
3/4-y,3/4-x,3/4-z
1/2-x,1/2-y,1/2-z
1/4+y,3/4-x,1/4-z
1/2+x,y,1/2-z
1/4-y,1/4+x,3/4-z
1/2-x,1/2+y,z
x,1/2-y,1/2+z
3/4-y,1/4-x,1/4+z
1/4+y,1/4+x,1/4+z
loop_
_atom_site_type_symbol
_atom_site_label
_atom_site_fract_x
_atom_site_fract_y
_atom_site_fract_z
Si Si1 0.000000 0.250000 0.375000
Si Si2 0.428151 0.435980 0.155252
Si Si3 0.910666 0.175190 0.986527
Si Si4 0.204825 0.134083 0.152912
Si Si5 0.451468 0.954545 0.350447
O O1 0.964881 0.212009 0.284819
O O2 0.415807 0.377651 0.098644
O O3 0.379270 0.479060 0.118382
O O4 0.427969 0.430059 0.303934
O O5 0.485198 0.464253 0.106142
O O6 0.854756 0.207547 0.962199
O O7 0.906544 0.156544 0.125000
O O8 0.174259 0.075742 0.125000
O O9 0.197575 0.157174 0.290664
O O10 0.432042 0.000000 0.250000
#
# Coordination Sequence:
#
# PCOD8321265 Si02
#       5
#     8  32  32  32  32
#     4  12  26  44  64 102 148 198 216 284 350 428
#     4  11  24  42  68  98 133 183 226 288 344 419
#     4  12  26  43  66 103 146 181 232 282 352 418
#     4  11  23  43  70  96 131 176 234 284 352 414
#     4  12  24  41  69 100 134 180 234 286 342 414
#
# _framework density 21.219086000000001
#
# number of rings (size 3 to 8) (size 9 to 14) (size 15 to 20)
#    0.000    0.471    7.059    2.471    3.294    0.000 
#    4.235    0.000    5.176    0.000    0.000    0.000 
#    0.000    0.000    0.000    0.000    0.000    0.000 
#
# Total GULP energy -842833.863864 kJ/mol
# GULP energy per Si atom -12394.615645 kJ/mol
# Density = 2.117079 g / cm^3
# Si number density = 21.219086 Si / 1000 Ang^3
#
#
#
# Elastic Constant Matrix: (Units=GPa)
#
#
# Indices 1 2 3 4 5 6 
#
# 1 119.8673 54.0488 34.3286 0.0000 0.0000 0.0000
# 2 54.0488 119.8685 34.3268 0.0000 0.0000 0.0000
# 3 34.3286 34.3268 91.8479 0.0000 0.0000 0.0000
# 4 0.0000 0.0000 0.0000 18.6702 0.0000 0.0000
# 5 0.0000 0.0000 0.0000 0.0000 18.6695 0.0000
# 6 0.0000 0.0000 0.0000 0.0000 0.0000 36.6205
#
#
#
# Elastic Compliance Matrix: (Units=1/GPa)
#
#
# Indices 1 2 3 4 5 6 
#
# 1 0.010969 -0.004224 -0.002521 0.000000 0.000000 0.000000
# 2 -0.004224 0.010969 -0.002521 0.000000 0.000000 0.000000
# 3 -0.002521 -0.002521 0.012772 0.000000 0.000000 0.000000
# 4 0.000000 0.000000 0.000000 0.053561 0.000000 0.000000
# 5 0.000000 0.000000 0.000000 0.000000 0.053563 0.000000
# 6 0.000000 0.000000 0.000000 0.000000 0.000000 0.027307
#
#
# Mechanical properties :
#
#
# Convention : Reuss Voigt Hill
#
# Bulk Modulus (GPa) = 61.81115 64.11024 62.96069
# Shear Modulus (GPa) = 25.89785 28.71736 27.30761
#
# Velocity S-wave (km/s) = 3.49735 3.68281 3.59128
# Velocity P-wave (km/s) = 6.74551 6.95437 6.85073
#
# Compressibility (1/GPa) = 0.01617831
#
# Stress axis : x y z
#
# Youngs Moduli (GPa) = 91.16409 91.16631 78.29671
#
# Poissons Ratio (x) = 0.38509 0.19740
# Poissons Ratio (y) = 0.38508 0.19736
# Poissons Ratio (z) = 0.22984 0.22980
#
# Static dielectric constant tensor:
#      x y z
#    x 3.328100 0.000000 0.000000 
#    y 0.000000 3.327990 0.000000 
#    z 0.000000 0.000000 3.925600 
# 
# 
# High freq. dielectric constant tensor:
#      x y z
#    x 1.829650 0.000000 0.000000 
#    y 0.000000 1.829650 0.000000 
#    z 0.000000 0.000000 1.840810 
# 
# From -- ./inp_files/3598.got.cif
#   From: 2010.03.12/outbox.cif.g09.slc.cpg/sg142_2_cif.got.tgz:3598.got - 2010.04.03 13:27:16.
