data_PCOD8321285
_publ_section_title
;
Structure prediction by ZEFSAII (Michael W. Deem and Ramdas Pophale) SiO2 
 PCOD8321285
Probable space group: I 41/A C D
;
_chemical_formula_sum "Si O2"
_cell_formula_units_Z 160
_cell_length_a 19.386212
_cell_length_b 19.386212
_cell_length_c 18.180802
_cell_angle_alpha 90.000000
_cell_angle_beta 90.000000
_cell_angle_gamma 90.000000
_cell_volume 6832.803833
_symmetry_space_group_name_H-M "I 41/A C D"
_symmetry_group_IT_number 142
_space_group.IT_coordinate_system_code '2'
_symmetry_cell_setting 'tetragonal'
loop_
_space_group_symop_operation_xyz
x,y,z
1/4-y,3/4+x,1/4+z
-x,1/2-y,z
1/4+y,1/4-x,3/4+z
x,-y,1/2-z
1/2-x,y,-z
3/4+y,1/4+x,1/4-z
1/4-y,1/4-x,1/4-z
-x,-y,-z
3/4+y,1/4-x,3/4-z
x,1/2+y,-z
3/4-y,3/4+x,1/4-z
-x,y,1/2+z
1/2+x,-y,z
1/4-y,3/4-x,3/4+z
3/4+y,3/4+x,3/4+z
1/2+x,1/2+y,1/2+z
3/4-y,1/4+x,3/4+z
1/2-x,-y,1/2+z
3/4+y,3/4-x,1/4+z
1/2+x,1/2-y,-z
-x,1/2+y,1/2-z
1/4+y,3/4+x,3/4-z
3/4-y,3/4-x,3/4-z
1/2-x,1/2-y,1/2-z
1/4+y,3/4-x,1/4-z
1/2+x,y,1/2-z
1/4-y,1/4+x,3/4-z
1/2-x,1/2+y,z
x,1/2-y,1/2+z
3/4-y,1/4-x,1/4+z
1/4+y,1/4+x,1/4+z
loop_
_atom_site_type_symbol
_atom_site_label
_atom_site_fract_x
_atom_site_fract_y
_atom_site_fract_z
Si Si1 0.356010 0.558819 0.297450
Si Si2 0.744216 0.741854 0.379920
Si Si3 0.621324 0.189909 0.304580
Si Si4 0.647390 0.003608 0.834396
Si Si5 0.000685 0.654092 0.583445
O O1 0.315805 0.500000 0.250000
O O2 0.430946 0.525354 0.314097
O O3 0.364360 0.623348 0.244617
O O4 0.314627 0.577348 0.371657
O O5 0.806728 0.722123 0.327905
O O6 0.761272 0.814480 0.418761
O O7 0.677634 0.751679 0.329185
O O8 0.575497 0.174504 0.375000
O O9 0.575994 0.241203 0.252470
O O10 0.679513 0.070488 0.875000
O O11 0.673421 0.000000 0.750000
O O12 0.070262 0.686325 0.615978
#
# Coordination Sequence:
#
# PCOD8321285 Si02
#       5
#    32  32  32  32  32
#     4  12  26  49  78 108 153 201 260 319 396 469
#     4  12  25  48  79 108 153 195 258 318 398 462
#     4  12  26  45  80 112 142 200 268 317 381 478
#     4  12  30  47  74 115 160 203 257 329 401 476
#     4  11  24  46  75 106 154 206 247 311 396 470
#
# _framework density 23.416450000000001
#
# number of rings (size 3 to 8) (size 9 to 14) (size 15 to 20)
#    0.000    0.200    6.000    1.800    5.600    1.600 
#    0.000    4.000    0.000    0.000    0.000    0.000 
#    0.000    0.000    0.000    0.000    0.000    0.000 
#
# Total GULP energy -991537.161537 kJ/mol
# GULP energy per Si atom -12394.214519 kJ/mol
# Density = 2.336315 g / cm^3
# Si number density = 23.416450 Si / 1000 Ang^3
#
#
#
# Elastic Constant Matrix: (Units=GPa)
#
#
# Indices 1 2 3 4 5 6 
#
# 1 78.6034 94.1844 67.2789 0.0000 0.0000 0.0000
# 2 94.1844 78.6082 67.2666 0.0000 0.0000 0.0000
# 3 67.2789 67.2666 212.2622 0.0000 0.0000 0.0000
# 4 0.0000 0.0000 0.0000 39.1840 0.0000 0.0000
# 5 0.0000 0.0000 0.0000 0.0000 39.1846 0.0000
# 6 0.0000 0.0000 0.0000 0.0000 0.0000 114.7382
#
#
#
# Elastic Compliance Matrix: (Units=1/GPa)
#
#
# Indices 1 2 3 4 5 6 
#
# 1 -0.028257 0.035937 -0.002432 0.000000 0.000000 0.000000
# 2 0.035937 -0.028250 -0.002438 0.000000 0.000000 0.000000
# 3 -0.002432 -0.002438 0.006255 0.000000 0.000000 0.000000
# 4 0.000000 0.000000 0.000000 0.025521 0.000000 0.000000
# 5 0.000000 0.000000 0.000000 0.000000 0.025520 0.000000
# 6 0.000000 0.000000 0.000000 0.000000 0.000000 0.008715
#
#
# Mechanical properties :
#
#
# Convention : Reuss Voigt Hill
#
# Bulk Modulus (GPa) = 84.16696 91.88150 88.02423
# Shear Modulus (GPa) = -102.73455 48.00428 -27.36513
#
# Velocity S-wave (km/s) = -6.63084 4.53263 -3.42223
# Velocity P-wave (km/s) = 4.75421 8.16800 4.69647
#
# Compressibility (1/GPa) = 0.01188115
#
# Stress axis : x y z
#
# Youngs Moduli (GPa) = -35.38990 -35.39771 159.87937
#
# Poissons Ratio (x) = 1.27209 0.38888
# Poissons Ratio (y) = 1.27181 0.38979
# Poissons Ratio (z) = -0.08608 -0.08630
#
# Static dielectric constant tensor:
#      x y z
#    x 4.406940 0.000000 0.000000 
#    y 0.000000 4.406950 0.000000 
#    z 0.000000 0.000000 4.716490 
# 
# 
# High freq. dielectric constant tensor:
#      x y z
#    x 1.931350 0.000000 0.000000 
#    y 0.000000 1.931350 0.000000 
#    z 0.000000 0.000000 1.941900 
# 
# From -- ./inp_files/7382.got.cif
#   From: 2010.03.12/outbox.cif.g09.slc.cpg/sg142_4_cif.got.tgz:7382.got - 2010.04.03 13:27:16.
