data_PCOD8321627
_publ_section_title
;
Structure prediction by ZEFSAII (Michael W. Deem and Ramdas Pophale) SiO2 
 PCOD8321627
Probable space group: P -3
;
_chemical_formula_sum "Si O2"
_cell_formula_units_Z 42
_cell_length_a 8.735273
_cell_length_b 8.735273
_cell_length_c 30.769847
_cell_angle_alpha 90.000000
_cell_angle_beta 90.000000
_cell_angle_gamma 120.000000
_cell_volume 2033.334986
_symmetry_space_group_name_H-M "P -3"
_symmetry_group_IT_number 147
_symmetry_cell_setting 'hexagonal'
loop_
_space_group_symop_operation_xyz
x,y,z
-y,x-y,z
-x+y,-x,z
-x,-y,-z
y,-x+y,-z
x-y,x,-z
loop_
_atom_site_type_symbol
_atom_site_label
_atom_site_fract_x
_atom_site_fract_y
_atom_site_fract_z
Si Si1 0.343479 0.997899 0.203829
Si Si2 0.676761 0.681005 0.762717
Si Si3 0.318738 0.995952 0.662827
Si Si4 0.335618 0.864712 0.110822
Si Si5 0.464964 0.891185 0.543427
Si Si6 0.355658 0.997318 0.369065
Si Si7 0.992209 0.663955 0.982251
O O1 0.384454 0.194236 0.214066
O O2 0.479854 0.957091 0.229603
O O3 0.146584 0.858575 0.217904
O O4 0.354141 0.982418 0.152236
O O5 0.719887 0.738473 0.712566
O O6 0.184596 0.819193 0.636968
O O7 0.513369 0.018686 0.664866
O O8 0.318249 0.158001 0.638226
O O9 0.160565 0.668666 0.110931
O O10 0.319077 0.964310 0.069268
O O11 0.250669 0.784276 0.545072
O O12 0.500000 0.000000 0.500000
O O13 0.566631 0.018629 0.584046
O O14 0.840812 0.669970 0.009152
O O15 0.000000 0.500000 0.000000
#
# Coordination Sequence:
#
# PCOD8321627 Si02
#       7
#     6   6   6   6   6   6   6
#     4  12  25  43  70  96 140 176 235 278 347 407
#     4  12  24  43  65 103 130 183 227 283 337 415
#     4  12  24  42  69  95 142 176 230 283 346 392
#     4  10  20  44  71  95 137 180 225 288 347 407
#     4  10  23  43  69  99 135 174 220 273 334 401
#     4  12  25  45  67 103 136 183 227 287 334 413
#     4  12  24  43  71 105 139 180 226 286 349 421
#
# _framework density 20.655719000000001
#
# number of rings (size 3 to 8) (size 9 to 14) (size 15 to 20)
#    0.571    0.000    4.286    4.714    2.000    2.286 
#    0.000    0.000    0.000    1.143    0.000    0.000 
#    0.000    0.000    0.000    0.000    0.000    0.000 
#
# Total GULP energy -520772.972378 kJ/mol
# GULP energy per Si atom -12399.356485 kJ/mol
# Density = 2.060871 g / cm^3
# Si number density = 20.655719 Si / 1000 Ang^3
#
#
#
# Elastic Constant Matrix: (Units=GPa)
#
#
# Indices 1 2 3 4 5 6 
#
# 1 107.9560 30.6516 47.3397 1.3386 -4.6295 0.0000
# 2 30.6516 107.9560 47.3397 -1.3386 4.6295 0.0000
# 3 47.3397 47.3397 180.6343 0.0000 0.0000 0.0000
# 4 1.3386 -1.3386 0.0000 31.5187 0.0000 4.6295
# 5 -4.6295 4.6295 0.0000 0.0000 31.5187 1.3386
# 6 0.0000 0.0000 0.0000 4.6295 1.3386 38.6522
#
#
#
# Elastic Compliance Matrix: (Units=1/GPa)
#
#
# Indices 1 2 3 4 5 6 
#
# 1 0.010988 -0.002200 -0.002303 -0.000560 0.001937 0.000000
# 2 -0.002200 0.010988 -0.002303 0.000560 -0.001937 0.000000
# 3 -0.002303 -0.002303 0.006743 0.000000 0.000000 0.000000
# 4 -0.000560 0.000560 0.000000 0.032344 0.000000 -0.003874
# 5 0.001937 -0.001937 0.000000 0.000000 0.032344 -0.001120
# 6 0.000000 0.000000 0.000000 -0.003874 -0.001120 0.026375
#
#
# Mechanical properties :
#
#
# Convention : Reuss Voigt Hill
#
# Bulk Modulus (GPa) = 66.19659 71.91203 69.05431
# Shear Modulus (GPa) = 36.12001 38.41896 37.26949
#
# Velocity S-wave (km/s) = 4.18625 4.31741 4.25233
# Velocity P-wave (km/s) = 7.44872 7.72940 7.59035
#
# Compressibility (1/GPa) = 0.01510652
#
# Stress axis : x y z
#
# Youngs Moduli (GPa) = 91.01238 91.01238 148.29777
#
# Poissons Ratio (x) = 0.20020 0.34154
# Poissons Ratio (y) = 0.20020 0.34154
# Poissons Ratio (z) = 0.20961 0.20961
#
# Static dielectric constant tensor:
#      x y z
#    x 3.677230 0.000000 0.000000 
#    y 0.000000 3.677230 0.000000 
#    z 0.000000 0.000000 3.372900 
# 
# 
# High freq. dielectric constant tensor:
#      x y z
#    x 1.808520 0.000000 0.000000 
#    y 0.000000 1.808520 0.000000 
#    z 0.000000 0.000000 1.820630 
# 
# From -- ./inp_files/1137.got.cif
#   From: 2010.03.12/outbox.cif.g09.slc.cpg/sg147_cif.got.tgz:1137.got - 2010.04.03 13:37:56.
