data_PCOD8321959
_publ_section_title
;
Structure prediction by ZEFSAII (Michael W. Deem and Ramdas Pophale) SiO2 
 PCOD8321959
Probable space group: P 31 1 2
;
_chemical_formula_sum "Si O2"
_cell_formula_units_Z 42
_cell_length_a 9.232882
_cell_length_b 9.232882
_cell_length_c 27.880612
_cell_angle_alpha 90.000000
_cell_angle_beta 90.000000
_cell_angle_gamma 120.000000
_cell_volume 2058.294457
_symmetry_space_group_name_H-M "P 31 1 2"
_symmetry_group_IT_number 151
_symmetry_cell_setting 'hexagonal'
loop_
_space_group_symop_operation_xyz
x,y,z
-y,x-y,1/3+z
-x+y,-x,2/3+z
-y,-x,2/3-z
-x+y,y,1/3-z
x,x-y,-z
loop_
_atom_site_type_symbol
_atom_site_label
_atom_site_fract_x
_atom_site_fract_y
_atom_site_fract_z
Si Si1 0.951071 0.888403 0.216553
Si Si2 0.797017 0.248947 0.982262
Si Si3 0.599650 0.587948 0.102645
Si Si4 0.033992 0.404774 0.152663
Si Si5 0.594726 0.703954 0.249403
Si Si6 0.173460 0.630789 0.443785
Si Si7 0.892820 0.190725 0.584847
O O1 0.995989 0.991977 0.166667
O O2 0.775331 0.856812 0.235143
O O3 0.941763 0.712704 0.203188
O O4 0.097092 0.992451 0.254091
O O5 0.979106 0.374291 0.958675
O O6 0.658118 0.110971 0.947490
O O7 0.718037 0.359019 0.000000
O O8 0.827378 0.162606 0.027312
O O9 0.479758 0.418388 0.132924
O O10 0.491682 0.678630 0.095473
O O11 0.191954 0.383907 0.166667
O O12 0.091795 0.580292 0.126715
O O13 0.905088 0.258172 0.118747
O O14 0.491577 0.799873 0.259589
O O15 0.180150 0.590075 0.500000
O O16 0.994221 0.612463 0.432610
#
# Coordination Sequence:
#
# PCOD8321959 Si02
#       7
#     6   6   6   6   6   6   6
#     4  10  19  37  66  96 128 174 216 278 346 398
#     4  11  25  44  62  98 142 186 228 273 357 431
#     4  10  21  38  71  95 134 176 231 275 343 417
#     4  12  21  41  71 107 127 173 237 291 340 405
#     4  11  20  40  75  90 133 174 229 287 325 418
#     4  11  21  43  70 106 130 170 241 293 339 406
#     4  11  26  42  62  97 146 178 222 284 361 412
#
# _framework density 20.405242999999999
#
# number of rings (size 3 to 8) (size 9 to 14) (size 15 to 20)
#    0.000    1.143    5.714    1.286    0.000    6.286 
#    5.143    0.000    0.000    0.000    0.000    0.000 
#    0.000    0.000    0.000    0.000    0.000    0.000 
#
# Total GULP energy -520391.673710 kJ/mol
# GULP energy per Si atom -12390.277945 kJ/mol
# Density = 2.035880 g / cm^3
# Si number density = 20.405243 Si / 1000 Ang^3
#
#
#
# Elastic Constant Matrix: (Units=GPa)
#
#
# Indices 1 2 3 4 5 6 
#
# 1 115.0397 51.8195 59.6535 0.0000 -0.6930 0.0000
# 2 51.8195 115.0397 59.6535 0.0000 0.6930 0.0000
# 3 59.6535 59.6535 139.0092 0.0000 0.0000 0.0000
# 4 0.0000 0.0000 0.0000 31.7825 0.0000 0.6930
# 5 -0.6930 0.6930 0.0000 0.0000 31.7825 0.0000
# 6 0.0000 0.0000 0.0000 0.6930 0.0000 31.6101
#
#
#
# Elastic Compliance Matrix: (Units=1/GPa)
#
#
# Indices 1 2 3 4 5 6 
#
# 1 0.012236 -0.003590 -0.003710 0.000000 0.000345 0.000000
# 2 -0.003590 0.012236 -0.003710 0.000000 -0.000345 0.000000
# 3 -0.003710 -0.003710 0.010378 0.000000 0.000000 0.000000
# 4 0.000000 0.000000 0.000000 0.031479 0.000000 -0.000690
# 5 0.000345 -0.000345 0.000000 0.000000 0.031479 0.000000
# 6 0.000000 0.000000 0.000000 -0.000690 0.000000 0.031651
#
#
# Mechanical properties :
#
#
# Convention : Reuss Voigt Hill
#
# Bulk Modulus (GPa) = 77.94824 79.03796 78.49310
# Shear Modulus (GPa) = 32.10178 32.23250 32.16714
#
# Velocity S-wave (km/s) = 3.97068 3.97875 3.97472
# Velocity P-wave (km/s) = 7.70096 7.74116 7.72108
#
# Compressibility (1/GPa) = 0.01282903
#
# Stress axis : x y z
#
# Youngs Moduli (GPa) = 81.72840 81.72840 96.35592
#
# Poissons Ratio (x) = 0.29338 0.35751
# Poissons Ratio (y) = 0.29338 0.35751
# Poissons Ratio (z) = 0.30324 0.30324
#
# Static dielectric constant tensor:
#      x y z
#    x 3.858790 0.000000 0.000000 
#    y 0.000000 3.858790 0.000000 
#    z 0.000000 0.000000 3.682500 
# 
# 
# High freq. dielectric constant tensor:
#      x y z
#    x 1.800720 0.000000 0.000000 
#    y 0.000000 1.800720 0.000000 
#    z 0.000000 0.000000 1.785100 
# 
# From -- ./inp_files/5017.got.cif
#   From: 2010.03.12/outbox.cif.g09.slc.cpg/sg151_3_cif.got.tgz:5017.got - 2010.04.03 13:42:29.
