data_PCOD8321337
_publ_section_title
;
Structure prediction by ZEFSAII (Michael W. Deem and Ramdas Pophale) SiO2 
 PCOD8321337
Probable space group: P 3
;
_chemical_formula_sum "Si O2"
_cell_formula_units_Z 16
_cell_length_a 8.022116
_cell_length_b 8.022116
_cell_length_c 10.942846
_cell_angle_alpha 90.000000
_cell_angle_beta 90.000000
_cell_angle_gamma 120.000000
_cell_volume 609.872140
_symmetry_space_group_name_H-M "P 3"
_symmetry_group_IT_number 143
_symmetry_cell_setting 'hexagonal'
loop_
_space_group_symop_operation_xyz
x,y,z
-y,x-y,z
-x+y,-x,z
loop_
_atom_site_type_symbol
_atom_site_label
_atom_site_fract_x
_atom_site_fract_y
_atom_site_fract_z
Si Si1 0.353984 0.976454 0.089480
Si Si2 0.970269 0.297446 0.794281
Si Si3 0.333334 0.666666 0.256305
Si Si4 0.377526 0.353979 0.644749
Si Si5 0.666668 0.333335 0.189705
Si Si6 0.666666 0.333333 0.477923
Si Si7 0.672825 0.970268 0.939950
Si Si8 0.333335 0.666668 0.544523
O O1 0.386262 0.876536 0.207723
O O2 0.449760 0.199579 0.134291
O O3 0.466547 0.951583 0.970732
O O4 0.129460 0.860133 0.049566
O O5 0.870543 0.139860 0.684669
O O6 0.951575 0.485031 0.763492
O O7 0.190495 0.341591 0.813202
O O8 0.848907 0.190492 0.921030
O O9 0.333334 0.666667 0.400803
O O10 0.509708 0.386240 0.526501
O O11 0.250182 0.449760 0.599937
O O12 0.666668 0.333334 0.333424
#
# Coordination Sequence:
#
# PCOD8321337 Si02
#       8
#     3   3   1   3   1   1   3   1
#     4  10  23  38  58  89 113 145 197 230 275 347
#     4  11  22  37  55  81 121 154 180 228 280 334
#     4   9  21  42  61  83 115 144 186 246 289 323
#     4  10  23  38  58  89 113 145 197 230 275 347
#     4  12  21  39  64  83 109 153 192 240 283 320
#     4   9  21  42  61  83 115 144 186 246 289 323
#     4  11  22  37  55  81 121 154 180 228 280 334
#     4  12  21  39  64  83 109 153 192 240 283 320
#
# _framework density 26.235005000000001
#
# number of rings (size 3 to 8) (size 9 to 14) (size 15 to 20)
#    0.000    1.500    0.000    5.625    0.000    3.000 
#    0.000    0.000    0.000    0.000    0.000   21.000 
#    0.000    0.000    0.000    0.000    0.000    0.000 
#
# Total GULP energy -198378.176722 kJ/mol
# GULP energy per Si atom -12398.636045 kJ/mol
# Density = 2.617529 g / cm^3
# Si number density = 26.235005 Si / 1000 Ang^3
#
#
#
# Elastic Constant Matrix: (Units=GPa)
#
#
# Indices 1 2 3 4 5 6 
#
# 1 129.5051 40.0006 34.3800 5.7526 -4.5397 -0.0001
# 2 40.0006 129.5047 34.3797 -5.7527 4.5396 0.0001
# 3 34.3800 34.3797 194.3766 -0.0002 -0.0001 0.0000
# 4 5.7526 -5.7527 -0.0002 31.5358 -0.0001 4.5396
# 5 -4.5397 4.5396 -0.0001 -0.0001 31.5361 5.7525
# 6 -0.0001 0.0001 0.0000 4.5396 5.7525 44.7522
#
#
#
# Elastic Compliance Matrix: (Units=1/GPa)
#
#
# Indices 1 2 3 4 5 6 
#
# 1 0.008985 -0.002630 -0.001124 -0.002119 0.001672 0.000000
# 2 -0.002630 0.008985 -0.001124 0.002119 -0.001672 0.000000
# 3 -0.001124 -0.001124 0.005542 0.000000 0.000000 0.000000
# 4 -0.002119 0.002119 0.000000 0.032964 0.000000 -0.003344
# 5 0.001672 -0.001672 0.000000 0.000000 0.032964 -0.004237
# 6 0.000000 0.000000 0.000000 -0.003344 -0.004237 0.023229
#
#
# Mechanical properties :
#
#
# Convention : Reuss Voigt Hill
#
# Bulk Modulus (GPa) = 72.69099 74.54522 73.61810
# Shear Modulus (GPa) = 39.36668 44.53990 41.95329
#
# Velocity S-wave (km/s) = 3.87788 4.12482 4.00326
# Velocity P-wave (km/s) = 6.91509 7.15273 7.03491
#
# Compressibility (1/GPa) = 0.01375686
#
# Stress axis : x y z
#
# Youngs Moduli (GPa) = 111.29612 111.29579 180.43043
#
# Poissons Ratio (x) = 0.29266 0.20283
# Poissons Ratio (y) = 0.29266 0.20282
# Poissons Ratio (z) = 0.12511 0.12511
#
# Static dielectric constant tensor:
#      x y z
#    x 4.820380 0.000000 0.000000 
#    y 0.000000 4.820390 0.000000 
#    z 0.000000 0.000000 4.580440 
# 
# 
# High freq. dielectric constant tensor:
#      x y z
#    x 2.061520 0.000000 0.000000 
#    y 0.000000 2.061520 0.000000 
#    z 0.000000 0.000000 2.057760 
# 
# From -- ./inp_files/249.got.cif
#   From: 2010.03.12/outbox.cif.g09.slc.cpg/sg143_cif.got.tgz:249.got - 2010.04.03 13:34:35.
