data_PCOD8321914
_publ_section_title
;
Structure prediction by ZEFSAII (Michael W. Deem and Ramdas Pophale) SiO2 
 PCOD8321914
Probable space group: P 3 2 1
;
_chemical_formula_sum "Si O2"
_cell_formula_units_Z 34
_cell_length_a 14.595396
_cell_length_b 14.595396
_cell_length_c 7.908918
_cell_angle_alpha 90.000000
_cell_angle_beta 90.000000
_cell_angle_gamma 120.000000
_cell_volume 1459.081227
_symmetry_space_group_name_H-M "P 3 2 1"
_symmetry_group_IT_number 150
_symmetry_cell_setting 'hexagonal'
loop_
_space_group_symop_operation_xyz
x,y,z
-y,x-y,z
-x+y,-x,z
x-y,-y,-z
-x,-x+y,-z
y,x,-z
loop_
_atom_site_type_symbol
_atom_site_label
_atom_site_fract_x
_atom_site_fract_y
_atom_site_fract_z
Si Si1 0.324946 0.259970 0.845150
Si Si2 0.568432 0.779321 0.639206
Si Si3 0.548770 0.096520 0.807978
Si Si4 0.333335 0.666668 0.749153
Si Si5 0.000000 0.393811 0.500000
Si Si6 0.666668 0.333334 0.838011
Si Si7 0.701870 0.000000 0.500000
Si Si8 0.115283 0.382108 0.992784
O O1 0.422465 0.381292 0.840714
O O2 0.255866 0.229614 0.671356
O O3 0.248259 0.248259 0.000000
O O4 0.372068 0.181716 0.854268
O O5 0.445633 0.704540 0.666615
O O6 0.617766 0.720365 0.531957
O O7 0.592847 0.890205 0.548794
O O8 0.618070 0.796262 0.826566
O O9 0.626791 0.218219 0.757826
O O10 0.466622 0.024216 0.664769
O O11 0.486020 0.103100 0.975258
O O12 0.333334 0.666667 0.954727
O O13 0.000000 0.278817 0.000000
#
# Coordination Sequence:
#
# PCOD8321914 Si02
#       8
#     6   6   6   2   3   2   3   6
#     4  12  26  45  72 105 142 199 249 309 384 449
#     4  12  28  46  72 108 152 199 254 312 384 454
#     4  12  24  43  68 103 151 200 246 303 378 459
#     4  12  27  43  71 112 153 208 251 301 370 476
#     4  12  29  44  70 111 148 200 252 319 384 463
#     4  12  24  43  71 103 153 205 251 301 382 467
#     4  12  29  50  70 105 154 200 252 321 378 463
#     4  12  24  46  73 102 143 195 248 313 377 461
#
# _framework density 23.302336
#
# number of rings (size 3 to 8) (size 9 to 14) (size 15 to 20)
#    0.000    0.000    7.059    2.118    4.941    0.000 
#    0.000    0.000    0.000    0.706    4.588    0.000 
#    0.000    0.000    0.000    0.000    0.000    0.000 
#
# Total GULP energy -421236.268021 kJ/mol
# GULP energy per Si atom -12389.302001 kJ/mol
# Density = 2.324930 g / cm^3
# Si number density = 23.302336 Si / 1000 Ang^3
#
#
#
# Elastic Constant Matrix: (Units=GPa)
#
#
# Indices 1 2 3 4 5 6 
#
# 1 86.6626 41.2896 34.8800 3.8043 0.0000 0.0000
# 2 41.2896 86.6613 34.8799 -3.8045 0.0000 0.0000
# 3 34.8800 34.8799 134.3477 -0.0003 0.0000 0.0000
# 4 3.8043 -3.8045 -0.0003 36.0289 0.0000 0.0000
# 5 0.0000 0.0000 0.0000 0.0000 36.0287 3.8042
# 6 0.0000 0.0000 0.0000 0.0000 3.8042 22.6863
#
#
#
# Elastic Compliance Matrix: (Units=1/GPa)
#
#
# Indices 1 2 3 4 5 6 
#
# 1 0.015771 -0.006667 -0.002364 -0.002369 0.000000 0.000000
# 2 -0.006667 0.015771 -0.002364 0.002369 0.000000 0.000000
# 3 -0.002364 -0.002364 0.008671 0.000000 0.000000 0.000000
# 4 -0.002369 0.002369 0.000000 0.028256 0.000000 0.000000
# 5 0.000000 0.000000 0.000000 0.000000 0.028256 -0.004738
# 6 0.000000 0.000000 0.000000 0.000000 -0.004738 0.044874
#
#
# Mechanical properties :
#
#
# Convention : Reuss Voigt Hill
#
# Bulk Modulus (GPa) = 57.39094 58.86338 58.12716
# Shear Modulus (GPa) = 29.37831 32.05693 30.71762
#
# Velocity S-wave (km/s) = 3.55455 3.71306 3.63467
# Velocity P-wave (km/s) = 6.44428 6.61045 6.52789
#
# Compressibility (1/GPa) = 0.01742435
#
# Stress axis : x y z
#
# Youngs Moduli (GPa) = 63.40946 63.40842 115.33103
#
# Poissons Ratio (x) = 0.42271 0.27260
# Poissons Ratio (y) = 0.42272 0.27260
# Poissons Ratio (z) = 0.14988 0.14988
#
# Static dielectric constant tensor:
#      x y z
#    x 4.194140 0.000000 0.000000 
#    y 0.000000 4.194160 0.000000 
#    z 0.000000 0.000000 4.619490 
# 
# 
# High freq. dielectric constant tensor:
#      x y z
#    x 1.903490 0.000000 0.000000 
#    y 0.000000 1.903490 0.000000 
#    z 0.000000 0.000000 1.940990 
# 
# From -- ./inp_files/690.got.cif
#   From: 2010.03.12/outbox.cif.g09.slc.cpg/sg150_cif.got.tgz:690.got - 2010.04.03 13:41:37.
