data_PCOD8321954
_publ_section_title
;
Structure prediction by ZEFSAII (Michael W. Deem and Ramdas Pophale) SiO2 
 PCOD8321954
Probable space group: P 31 1 2
;
_chemical_formula_sum "Si O2"
_cell_formula_units_Z 39
_cell_length_a 9.039047
_cell_length_b 9.039047
_cell_length_c 28.864146
_cell_angle_alpha 90.000000
_cell_angle_beta 90.000000
_cell_angle_gamma 120.000000
_cell_volume 2042.370992
_symmetry_space_group_name_H-M "P 31 1 2"
_symmetry_group_IT_number 151
_symmetry_cell_setting 'hexagonal'
loop_
_space_group_symop_operation_xyz
x,y,z
-y,x-y,1/3+z
-x+y,-x,2/3+z
-y,-x,2/3-z
-x+y,y,1/3-z
x,x-y,-z
loop_
_atom_site_type_symbol
_atom_site_label
_atom_site_fract_x
_atom_site_fract_y
_atom_site_fract_z
Si Si1 0.111486 0.887850 0.884718
Si Si2 0.594707 0.103938 0.308430
Si Si3 0.731178 0.749440 0.773299
Si Si4 0.722428 0.183286 0.581802
Si Si5 0.098961 0.447385 0.944156
Si Si6 0.266686 0.809290 0.967258
Si Si7 0.574778 0.149556 0.166667
O O1 0.154552 0.845449 0.833334
O O2 0.246737 0.907161 0.923499
O O3 0.928671 0.734707 0.899845
O O4 0.120032 0.070021 0.882452
O O5 0.724028 0.275973 0.333334
O O6 0.706056 0.063654 0.272980
O O7 0.456032 0.143419 0.285935
O O8 0.495964 0.942798 0.342936
O O9 0.647145 0.869167 0.765347
O O10 0.642795 0.617872 0.815455
O O11 0.722687 0.297729 0.538915
O O12 0.528709 0.072939 0.601363
O O13 0.263839 0.640767 0.947250
O O14 0.106869 0.368128 0.994750
#
# Coordination Sequence:
#
# PCOD8321954 Si02
#       7
#     6   6   6   6   6   6   3
#     4  11  20  36  61  88 117 163 207 249 303 390
#     4  10  19  34  64  87 115 157 205 255 305 364
#     4  10  20  38  61  84 117 162 198 252 303 374
#     4  10  22  36  61  89 118 160 207 256 311 375
#     4   9  20  38  62  87 123 153 202 260 309 360
#     4   9  19  37  61  87 117 158 203 244 312 372
#     4  10  20  40  56  84 120 158 204 242 310 380
#
# _framework density 19.095452000000002
#
# number of rings (size 3 to 8) (size 9 to 14) (size 15 to 20)
#    0.000    2.154    3.077    0.000    4.308    0.000 
#    6.923    0.000   16.923    0.000    0.000    0.000 
#    0.000    0.000    0.000    0.000    0.000    0.000 
#
# Total GULP energy -483145.299093 kJ/mol
# GULP energy per Si atom -12388.341002 kJ/mol
# Density = 1.905199 g / cm^3
# Si number density = 19.095452 Si / 1000 Ang^3
#
#
#
# Elastic Constant Matrix: (Units=GPa)
#
#
# Indices 1 2 3 4 5 6 
#
# 1 105.1451 47.2527 52.1290 0.0001 3.1718 0.0000
# 2 47.2527 105.1451 52.1290 -0.0001 -3.1718 0.0000
# 3 52.1290 52.1290 112.0850 0.0000 0.0000 0.0000
# 4 0.0001 -0.0001 0.0000 27.9292 0.0000 -3.1718
# 5 3.1718 -3.1718 0.0000 0.0000 27.9292 0.0001
# 6 0.0000 0.0000 0.0000 -3.1718 0.0001 28.9462
#
#
#
# Elastic Compliance Matrix: (Units=1/GPa)
#
#
# Indices 1 2 3 4 5 6 
#
# 1 0.013557 -0.003934 -0.004476 0.000000 -0.001986 0.000000
# 2 -0.003934 0.013557 -0.004476 0.000000 0.001986 0.000000
# 3 -0.004476 -0.004476 0.013085 0.000000 0.000000 0.000000
# 4 0.000000 0.000000 0.000000 0.036256 0.000000 0.003973
# 5 -0.001986 0.001986 0.000000 0.000000 0.036256 0.000000
# 6 0.000000 0.000000 0.000000 0.003973 0.000000 0.034982
#
#
# Mechanical properties :
#
#
# Convention : Reuss Voigt Hill
#
# Bulk Modulus (GPa) = 69.30389 69.48852 69.39620
# Shear Modulus (GPa) = 28.04661 28.35190 28.19926
#
# Velocity S-wave (km/s) = 3.83660 3.85742 3.84702
# Velocity P-wave (km/s) = 7.48319 7.50391 7.49356
#
# Compressibility (1/GPa) = 0.01442920
#
# Stress axis : x y z
#
# Youngs Moduli (GPa) = 73.76025 73.76025 76.42259
#
# Poissons Ratio (x) = 0.29015 0.34206
# Poissons Ratio (y) = 0.29015 0.34206
# Poissons Ratio (z) = 0.33014 0.33014
#
# Static dielectric constant tensor:
#      x y z
#    x 3.390330 0.000000 0.000000 
#    y 0.000000 3.390330 0.000000 
#    z 0.000000 0.000000 3.832580 
# 
# 
# High freq. dielectric constant tensor:
#      x y z
#    x 1.722990 0.000000 0.000000 
#    y 0.000000 1.722990 0.000000 
#    z 0.000000 0.000000 1.756690 
# 
# From -- ./inp_files/4940.got.cif
#   From: 2010.03.12/outbox.cif.g09.slc.cpg/sg151_3_cif.got.tgz:4940.got - 2010.04.03 13:42:29.
