data_PCOD8321188
_publ_section_title
;
Structure prediction by ZEFSAII (Michael W. Deem and Ramdas Pophale) SiO2 
 PCOD8321188
Probable space group: I 41/A C D
;
_chemical_formula_sum "Si O2"
_cell_formula_units_Z 176
_cell_length_a 22.523983
_cell_length_b 22.523983
_cell_length_c 16.657348
_cell_angle_alpha 90.000000
_cell_angle_beta 90.000000
_cell_angle_gamma 90.000000
_cell_volume 8450.769199
_symmetry_space_group_name_H-M "I 41/A C D"
_symmetry_group_IT_number 142
_space_group.IT_coordinate_system_code '2'
_symmetry_cell_setting 'tetragonal'
loop_
_space_group_symop_operation_xyz
x,y,z
1/4-y,3/4+x,1/4+z
-x,1/2-y,z
1/4+y,1/4-x,3/4+z
x,-y,1/2-z
1/2-x,y,-z
3/4+y,1/4+x,1/4-z
1/4-y,1/4-x,1/4-z
-x,-y,-z
3/4+y,1/4-x,3/4-z
x,1/2+y,-z
3/4-y,3/4+x,1/4-z
-x,y,1/2+z
1/2+x,-y,z
1/4-y,3/4-x,3/4+z
3/4+y,3/4+x,3/4+z
1/2+x,1/2+y,1/2+z
3/4-y,1/4+x,3/4+z
1/2-x,-y,1/2+z
3/4+y,3/4-x,1/4+z
1/2+x,1/2-y,-z
-x,1/2+y,1/2-z
1/4+y,3/4+x,3/4-z
3/4-y,3/4-x,3/4-z
1/2-x,1/2-y,1/2-z
1/4+y,3/4-x,1/4-z
1/2+x,y,1/2-z
1/4-y,1/4+x,3/4-z
1/2-x,1/2+y,z
x,1/2-y,1/2+z
3/4-y,1/4-x,1/4+z
1/4+y,1/4+x,1/4+z
loop_
_atom_site_type_symbol
_atom_site_label
_atom_site_fract_x
_atom_site_fract_y
_atom_site_fract_z
Si Si1 0.448983 0.672764 0.356707
Si Si2 0.825847 0.674903 0.866644
Si Si3 0.275132 0.607533 0.083099
Si Si4 0.546956 0.873545 0.179053
Si Si5 0.870622 0.000000 0.250000
Si Si6 0.377117 0.576556 0.449348
O O1 0.423521 0.739086 0.344635
O O2 0.464114 0.646646 0.269667
O O3 0.400843 0.636914 0.408939
O O4 0.878818 0.628818 0.875000
O O5 0.850211 0.739077 0.887559
O O6 0.806134 0.668265 0.774166
O O7 0.770317 0.661002 0.924916
O O8 0.298622 0.548622 0.125000
O O9 0.326228 0.654085 0.067176
O O10 0.224843 0.638085 0.135788
O O11 0.250000 0.584138 0.000000
O O12 0.568541 0.818541 0.125000
O O13 0.831977 0.942796 0.222573
#
# Coordination Sequence:
#
# PCOD8321188 Si02
#       6
#    32  32  32  32  16  32
#     4  11  23  41  68 100 132 174 215 269 333 405
#     4  10  23  42  65  98 127 173 216 271 333 394
#     4  11  26  43  66  97 133 181 223 280 333 391
#     4  11  24  43  65  95 135 169 218 273 333 396
#     4  10  24  38  66  94 130 168 218 274 322 390
#     4  11  24  43  67  96 134 173 228 272 332 400
#
# _framework density 20.826506999999999
#
# number of rings (size 3 to 8) (size 9 to 14) (size 15 to 20)
#    0.000    1.273    1.818    3.273    5.091    4.727 
#    0.000    0.000    0.000    0.000    0.000    0.000 
#    0.000    0.000    0.000    0.000    0.000    0.000 
#
# Total GULP energy -1091256.232962 kJ/mol
# GULP energy per Si atom -12400.639011 kJ/mol
# Density = 2.077910 g / cm^3
# Si number density = 20.826507 Si / 1000 Ang^3
#
#
#
# Elastic Constant Matrix: (Units=GPa)
#
#
# Indices 1 2 3 4 5 6 
#
# 1 81.1222 16.0861 41.8770 0.0000 0.0000 0.0000
# 2 16.0861 81.1222 41.8770 0.0000 0.0000 0.0000
# 3 41.8770 41.8770 160.7764 0.0000 0.0000 0.0000
# 4 0.0000 0.0000 0.0000 29.7288 0.0000 0.0000
# 5 0.0000 0.0000 0.0000 0.0000 29.7288 0.0000
# 6 0.0000 0.0000 0.0000 0.0000 0.0000 40.8137
#
#
#
# Elastic Compliance Matrix: (Units=1/GPa)
#
#
# Indices 1 2 3 4 5 6 
#
# 1 0.014320 -0.001056 -0.003455 0.000000 0.000000 0.000000
# 2 -0.001056 0.014320 -0.003455 0.000000 0.000000 0.000000
# 3 -0.003455 -0.003455 0.008020 0.000000 0.000000 0.000000
# 4 0.000000 0.000000 0.000000 0.033637 0.000000 0.000000
# 5 0.000000 0.000000 0.000000 0.000000 0.033637 0.000000
# 6 0.000000 0.000000 0.000000 0.000000 0.000000 0.024502
#
#
# Mechanical properties :
#
#
# Convention : Reuss Voigt Hill
#
# Bulk Modulus (GPa) = 48.24393 58.07789 53.16091
# Shear Modulus (GPa) = 33.05203 34.93297 33.99250
#
# Velocity S-wave (km/s) = 3.98806 4.09997 4.04440
# Velocity P-wave (km/s) = 6.66492 7.09648 6.88408
#
# Compressibility (1/GPa) = 0.02072800
#
# Stress axis : x y z
#
# Youngs Moduli (GPa) = 69.83266 69.83266 124.69552
#
# Poissons Ratio (x) = 0.07375 0.43080
# Poissons Ratio (y) = 0.07375 0.43080
# Poissons Ratio (z) = 0.24126 0.24126
#
# Static dielectric constant tensor:
#      x y z
#    x 3.854560 0.000000 0.000000 
#    y 0.000000 3.854560 0.000000 
#    z 0.000000 0.000000 4.271020 
# 
# 
# High freq. dielectric constant tensor:
#      x y z
#    x 1.817040 0.000000 0.000000 
#    y 0.000000 1.817040 0.000000 
#    z 0.000000 0.000000 1.835340 
# 
# From -- ./inp_files/5539.got.cif
#   From: 2010.03.12/outbox.cif.g09.slc.cpg/sg142_3_cif.got.tgz:5539.got - 2010.04.03 13:27:16.
