data_PCOD8321427
_publ_section_title
;
Structure prediction by ZEFSAII (Michael W. Deem and Ramdas Pophale) SiO2 
 PCOD8321427
Probable space group: P 31
;
_chemical_formula_sum "Si O2"
_cell_formula_units_Z 18
_cell_length_a 8.480356
_cell_length_b 8.480356
_cell_length_c 11.267351
_cell_angle_alpha 90.000000
_cell_angle_beta 90.000000
_cell_angle_gamma 120.000000
_cell_volume 701.747095
_symmetry_space_group_name_H-M "P 31"
_symmetry_group_IT_number 144
_symmetry_cell_setting 'hexagonal'
loop_
_space_group_symop_operation_xyz
x,y,z
-y,x-y,1/3+z
-x+y,-x,2/3+z
loop_
_atom_site_type_symbol
_atom_site_label
_atom_site_fract_x
_atom_site_fract_y
_atom_site_fract_z
Si Si1 0.323774 0.527725 0.204670
Si Si2 0.324598 0.863590 0.119390
Si Si3 0.860415 0.870704 0.957588
Si Si4 0.667517 0.196070 0.192262
Si Si5 0.653102 0.522625 0.103784
Si Si6 0.179564 0.981155 0.789308
O O1 0.389370 0.737624 0.184320
O O2 0.218527 0.447403 0.328187
O O3 0.507032 0.516287 0.197661
O O4 0.172435 0.410265 0.100649
O O5 0.176812 0.865681 0.208112
O O6 0.505997 0.062342 0.100583
O O7 0.807021 0.728865 0.068259
O O8 0.008585 0.862824 0.875346
O O9 0.948851 0.077838 0.004175
O O10 0.735486 0.408405 0.165945
O O11 0.580282 0.128009 0.319764
O O12 0.841761 0.173203 0.188779
#
# Coordination Sequence:
#
# PCOD8321427 Si02
#       6
#     3   3   3   3   3   3
#     4  12  24  43  70 104 145 195 243 304 367 438
#     4  11  24  46  73 106 147 194 248 303 367 442
#     4  11  26  47  72 104 147 196 248 307 368 440
#     4  11  24  46  70 104 143 191 248 311 370 442
#     4  11  25  46  71 102 145 194 247 305 371 441
#     4  12  25  42  68 102 143 190 244 302 367 435
#
# _framework density 25.650269999999999
#
# number of rings (size 3 to 8) (size 9 to 14) (size 15 to 20)
#    0.000    0.667    0.000    9.000    0.000    6.667 
#    0.000    0.000    0.000    0.000    0.000    0.000 
#    0.000    0.000    0.000    0.000    0.000    0.000 
#
# Total GULP energy -223219.195278 kJ/mol
# GULP energy per Si atom -12401.066404 kJ/mol
# Density = 2.559189 g / cm^3
# Si number density = 25.650270 Si / 1000 Ang^3
#
#
#
# Elastic Constant Matrix: (Units=GPa)
#
#
# Indices 1 2 3 4 5 6 
#
# 1 99.7767 22.6516 17.7084 -3.6934 6.3661 0.0000
# 2 22.6516 99.7767 17.7084 3.6934 -6.3661 0.0000
# 3 17.7084 17.7084 68.1057 0.0000 0.0000 0.0000
# 4 -3.6934 3.6934 0.0000 30.7812 0.0000 -6.3661
# 5 6.3661 -6.3661 0.0000 0.0000 30.7812 -3.6934
# 6 0.0000 0.0000 0.0000 -6.3661 -3.6934 38.5626
#
#
#
# Elastic Compliance Matrix: (Units=1/GPa)
#
#
# Indices 1 2 3 4 5 6 
#
# 1 0.011209 -0.002377 -0.002297 0.001630 -0.002810 0.000000
# 2 -0.002377 0.011209 -0.002297 -0.001630 0.002810 0.000000
# 3 -0.002297 -0.002297 0.015877 0.000000 0.000000 0.000000
# 4 0.001630 -0.001630 0.000000 0.034041 0.000000 0.005620
# 5 -0.002810 0.002810 0.000000 0.000000 0.034041 0.003260
# 6 0.000000 0.000000 0.000000 0.005620 0.003260 0.027172
#
#
# Mechanical properties :
#
#
# Convention : Reuss Voigt Hill
#
# Bulk Modulus (GPa) = 41.05774 42.64401 41.85088
# Shear Modulus (GPa) = 32.13213 33.99770 33.06492
#
# Velocity S-wave (km/s) = 3.54319 3.64460 3.59425
# Velocity P-wave (km/s) = 5.72542 5.86277 5.79450
#
# Compressibility (1/GPa) = 0.02435594
#
# Stress axis : x y z
#
# Youngs Moduli (GPa) = 89.21270 89.21270 62.98292
#
# Poissons Ratio (x) = 0.21204 0.14464
# Poissons Ratio (y) = 0.21204 0.14464
# Poissons Ratio (z) = 0.20488 0.20488
#
# Static dielectric constant tensor:
#      x y z
#    x 4.786250 0.000000 0.000000 
#    y 0.000000 4.786250 0.000000 
#    z 0.000000 0.000000 4.491370 
# 
# 
# High freq. dielectric constant tensor:
#      x y z
#    x 2.036180 0.000000 0.000000 
#    y 0.000000 2.036180 0.000000 
#    z 0.000000 0.000000 2.016450 
# 
# From -- ./inp_files/562.got.cif
#   From: 2010.03.12/outbox.cif.g09.slc.cpg/sg144_cif.got.tgz:562.got - 2010.04.03 13:34:42.
