data_PCOD8321145
_publ_section_title
;
Structure prediction by ZEFSAII (Michael W. Deem and Ramdas Pophale) SiO2 
 PCOD8321145
Probable space group: I 41/A C D
;
_chemical_formula_sum "Si O2"
_cell_formula_units_Z 160
_cell_length_a 26.770139
_cell_length_b 26.770139
_cell_length_c 11.546625
_cell_angle_alpha 90.000000
_cell_angle_beta 90.000000
_cell_angle_gamma 90.000000
_cell_volume 8274.777290
_symmetry_space_group_name_H-M "I 41/A C D"
_symmetry_group_IT_number 142
_space_group.IT_coordinate_system_code '2'
_symmetry_cell_setting 'tetragonal'
loop_
_space_group_symop_operation_xyz
x,y,z
1/4-y,3/4+x,1/4+z
-x,1/2-y,z
1/4+y,1/4-x,3/4+z
x,-y,1/2-z
1/2-x,y,-z
3/4+y,1/4+x,1/4-z
1/4-y,1/4-x,1/4-z
-x,-y,-z
3/4+y,1/4-x,3/4-z
x,1/2+y,-z
3/4-y,3/4+x,1/4-z
-x,y,1/2+z
1/2+x,-y,z
1/4-y,3/4-x,3/4+z
3/4+y,3/4+x,3/4+z
1/2+x,1/2+y,1/2+z
3/4-y,1/4+x,3/4+z
1/2-x,-y,1/2+z
3/4+y,3/4-x,1/4+z
1/2+x,1/2-y,-z
-x,1/2+y,1/2-z
1/4+y,3/4+x,3/4-z
3/4-y,3/4-x,3/4-z
1/2-x,1/2-y,1/2-z
1/4+y,3/4-x,1/4-z
1/2+x,y,1/2-z
1/4-y,1/4+x,3/4-z
1/2-x,1/2+y,z
x,1/2-y,1/2+z
3/4-y,1/4-x,1/4+z
1/4+y,1/4+x,1/4+z
loop_
_atom_site_type_symbol
_atom_site_label
_atom_site_fract_x
_atom_site_fract_y
_atom_site_fract_z
Si Si1 0.539733 0.114439 0.684038
Si Si2 0.799436 0.623666 0.425985
Si Si3 0.125959 0.323244 0.401904
Si Si4 0.768837 0.804917 0.716920
Si Si5 0.593391 0.081718 0.904373
O O1 0.570800 0.154279 0.609706
O O2 0.483125 0.131621 0.691346
O O3 0.547255 0.061443 0.625699
O O4 0.558078 0.111325 0.815827
O O5 0.750000 0.610779 0.500000
O O6 0.821687 0.571687 0.375000
O O7 0.842748 0.646500 0.504412
O O8 0.786348 0.664570 0.329057
O O9 0.155228 0.325416 0.282205
O O10 0.750000 0.750000 0.750000
O O11 0.727747 0.837569 0.647131
O O12 0.650386 0.099615 0.875000
#
# Coordination Sequence:
#
# PCOD8321145 Si02
#       5
#    32  32  32  32  32
#     4  11  23  39  64  93 129 173 215 270 331 387
#     4  12  24  43  70  96 135 172 219 273 336 403
#     4  11  23  41  62  94 131 169 217 269 326 397
#     4  12  21  39  69  98 124 167 225 270 325 389
#     4  10  22  39  60  93 130 159 210 279 320 383
#
# _framework density 19.335867
#
# number of rings (size 3 to 8) (size 9 to 14) (size 15 to 20)
#    0.000    0.800    6.000    1.800    0.000    0.400 
#    0.000    1.000    0.000    3.600    0.000    0.000 
#    0.000    0.000    0.000    0.000    0.000    0.000 
#
# Total GULP energy -992037.198217 kJ/mol
# GULP energy per Si atom -12400.464978 kJ/mol
# Density = 1.929186 g / cm^3
# Si number density = 19.335867 Si / 1000 Ang^3
#
#
#
# Elastic Constant Matrix: (Units=GPa)
#
#
# Indices 1 2 3 4 5 6 
#
# 1 108.4162 64.5011 31.3286 0.0000 0.0000 0.0000
# 2 64.5011 108.4184 31.3306 0.0000 0.0000 0.0000
# 3 31.3286 31.3306 74.1073 0.0000 0.0000 0.0000
# 4 0.0000 0.0000 0.0000 24.0080 0.0000 0.0000
# 5 0.0000 0.0000 0.0000 0.0000 24.0074 0.0000
# 6 0.0000 0.0000 0.0000 0.0000 0.0000 43.0184
#
#
#
# Elastic Compliance Matrix: (Units=1/GPa)
#
#
# Indices 1 2 3 4 5 6 
#
# 1 0.014800 -0.007971 -0.002887 0.000000 0.000000 0.000000
# 2 -0.007971 0.014800 -0.002887 0.000000 0.000000 0.000000
# 3 -0.002887 -0.002887 0.015935 0.000000 0.000000 0.000000
# 4 0.000000 0.000000 0.000000 0.041653 0.000000 0.000000
# 5 0.000000 0.000000 0.000000 0.000000 0.041654 0.000000
# 6 0.000000 0.000000 0.000000 0.000000 0.000000 0.023246
#
#
# Mechanical properties :
#
#
# Convention : Reuss Voigt Hill
#
# Bulk Modulus (GPa) = 55.41687 60.58474 58.00080
# Shear Modulus (GPa) = 26.94074 29.12551 28.03312
#
# Velocity S-wave (km/s) = 3.73675 3.88531 3.81175
# Velocity P-wave (km/s) = 6.88041 7.17833 7.03095
#
# Compressibility (1/GPa) = 0.01804505
#
# Stress axis : x y z
#
# Youngs Moduli (GPa) = 67.56760 67.56797 62.75461
#
# Poissons Ratio (x) = 0.53856 0.18116
# Poissons Ratio (y) = 0.53856 0.18120
# Poissons Ratio (z) = 0.19506 0.19510
#
# Static dielectric constant tensor:
#      x y z
#    x 3.535630 0.000000 0.000000 
#    y 0.000000 3.535670 0.000000 
#    z 0.000000 0.000000 3.874670 
# 
# 
# High freq. dielectric constant tensor:
#      x y z
#    x 1.752430 0.000000 0.000000 
#    y 0.000000 1.752430 0.000000 
#    z 0.000000 0.000000 1.770840 
# 
# From -- ./inp_files/3834.got.cif
#   From: 2010.03.12/outbox.cif.g09.slc.cpg/sg142_2_cif.got.tgz:3834.got - 2010.04.03 13:27:16.
