data_PCOD8321817
_publ_section_title
;
Structure prediction by ZEFSAII (Michael W. Deem and Ramdas Pophale) SiO2 
 PCOD8321817
Probable space group: R -3
;
_chemical_formula_sum "Si O2"
_cell_formula_units_Z 108
_cell_length_a 21.313008
_cell_length_b 21.313008
_cell_length_c 13.398127
_cell_angle_alpha 90.000000
_cell_angle_beta 90.000000
_cell_angle_gamma 120.000000
_cell_volume 5270.650487
_symmetry_space_group_name_H-M "R -3"
_symmetry_group_IT_number 148
_symmetry_cell_setting 'hexagonal'
loop_
_space_group_symop_operation_xyz
x,y,z
-y,x-y,z
-x+y,-x,z
-x,-y,-z
y,-x+y,-z
x-y,x,-z
2/3+x,1/3+y,1/3+z
2/3-y,1/3+x-y,1/3+z
2/3-x+y,1/3-x,1/3+z
2/3-x,1/3-y,1/3-z
2/3+y,1/3-x+y,1/3-z
2/3+x-y,1/3+x,1/3-z
1/3+x,2/3+y,2/3+z
1/3-y,2/3+x-y,2/3+z
1/3-x+y,2/3-x,2/3+z
1/3-x,2/3-y,2/3-z
1/3+y,2/3-x+y,2/3-z
1/3+x-y,2/3+x,2/3-z
loop_
_atom_site_type_symbol
_atom_site_label
_atom_site_fract_x
_atom_site_fract_y
_atom_site_fract_z
Si Si1 0.554991 0.042975 0.281748
Si Si2 0.750916 0.984212 0.096621
Si Si3 0.280948 0.339911 0.419961
Si Si4 0.720489 0.549230 0.722056
Si Si5 0.779080 0.894894 0.593023
Si Si6 0.507357 0.867803 0.978028
O O1 0.617253 0.093176 0.360535
O O2 0.499236 0.073233 0.273379
O O3 0.596280 0.042114 0.180538
O O4 0.506056 0.959962 0.319905
O O5 0.780142 0.995034 0.207603
O O6 0.679880 0.991631 0.102612
O O7 0.295562 0.390787 0.324031
O O8 0.213266 0.262369 0.395665
O O9 0.768423 0.582285 0.821261
O O10 0.646315 0.480137 0.756408
O O11 0.760065 0.523766 0.640876
O O12 0.827981 0.871356 0.654536
#
# Coordination Sequence:
#
# PCOD8321817 Si02
#       6
#    18  18  18  18  18  18
#     4  12  25  44  68 101 143 183 233 287 357 420
#     4  12  27  44  71 105 140 185 233 290 355 425
#     4  12  23  42  71  99 135 181 222 288 356 417
#     4  12  23  41  68 100 137 178 226 284 354 423
#     4  12  24  41  68 102 137 179 228 291 352 422
#     4  12  25  43  67  98 141 180 227 284 349 417
#
# _framework density 20.490828
#
# number of rings (size 3 to 8) (size 9 to 14) (size 15 to 20)
#    0.000    0.000    8.333    2.500    0.000    2.000 
#    1.000    0.833    0.000    0.333    0.000    0.000 
#    0.000    0.000    0.000    0.000    0.000    0.000 
#
# Total GULP energy -446288.736443 kJ/mol
# GULP energy per Si atom -12396.909346 kJ/mol
# Density = 2.044419 g / cm^3
# Si number density = 20.490828 Si / 1000 Ang^3
#
#
#
# Elastic Constant Matrix: (Units=GPa)
#
#
# Indices 1 2 3 4 5 6 
#
# 1 123.5837 58.7646 49.3366 0.7475 -1.4689 0.0000
# 2 58.7646 123.5837 49.3366 -0.7475 1.4689 0.0000
# 3 49.3366 49.3366 92.5415 0.0000 0.0000 0.0000
# 4 0.7475 -0.7475 0.0000 35.8696 0.0000 1.4689
# 5 -1.4689 1.4689 0.0000 0.0000 35.8696 0.7475
# 6 0.0000 0.0000 0.0000 1.4689 0.7475 32.4095
#
#
#
# Elastic Compliance Matrix: (Units=1/GPa)
#
#
# Indices 1 2 3 4 5 6 
#
# 1 0.011586 -0.003878 -0.004109 -0.000322 0.000633 0.000000
# 2 -0.003878 0.011586 -0.004109 0.000322 -0.000633 0.000000
# 3 -0.004109 -0.004109 0.015187 0.000000 0.000000 0.000000
# 4 -0.000322 0.000322 0.000000 0.027944 0.000000 -0.001267
# 5 0.000633 -0.000633 0.000000 0.000000 0.027944 -0.000644
# 6 0.000000 0.000000 0.000000 -0.001267 -0.000644 0.030927
#
#
# Mechanical properties :
#
#
# Convention : Reuss Voigt Hill
#
# Bulk Modulus (GPa) = 70.59173 72.73162 71.66167
# Shear Modulus (GPa) = 32.44886 32.98118 32.71502
#
# Velocity S-wave (km/s) = 3.98374 4.01628 4.00004
# Velocity P-wave (km/s) = 7.46227 7.55507 7.50881
#
# Compressibility (1/GPa) = 0.01416597
#
# Stress axis : x y z
#
# Youngs Moduli (GPa) = 86.31388 86.31388 65.84431
#
# Poissons Ratio (x) = 0.33473 0.27056
# Poissons Ratio (y) = 0.33473 0.27056
# Poissons Ratio (z) = 0.35467 0.35467
#
# Static dielectric constant tensor:
#      x y z
#    x 3.875200 0.000000 0.000000 
#    y 0.000000 3.875200 0.000000 
#    z 0.000000 0.000000 3.704720 
# 
# 
# High freq. dielectric constant tensor:
#      x y z
#    x 1.801540 0.000000 0.000000 
#    y 0.000000 1.801540 0.000000 
#    z 0.000000 0.000000 1.797180 
# 
# From -- ./inp_files/2057.got.cif
#   From: 2010.03.12/outbox.cif.g09.slc.cpg/sg148_2_cif.got.tgz:2057.got - 2010.04.03 13:38:46.
