data_PCOD8321262
_publ_section_title
;
Structure prediction by ZEFSAII (Michael W. Deem and Ramdas Pophale) SiO2 
 PCOD8321262
Probable space group: I 41/A C D
;
_chemical_formula_sum "Si O2"
_cell_formula_units_Z 176
_cell_length_a 22.294883
_cell_length_b 22.294883
_cell_length_c 15.679822
_cell_angle_alpha 90.000000
_cell_angle_beta 90.000000
_cell_angle_gamma 90.000000
_cell_volume 7793.840672
_symmetry_space_group_name_H-M "I 41/A C D"
_symmetry_group_IT_number 142
_space_group.IT_coordinate_system_code '2'
_symmetry_cell_setting 'tetragonal'
loop_
_space_group_symop_operation_xyz
x,y,z
1/4-y,3/4+x,1/4+z
-x,1/2-y,z
1/4+y,1/4-x,3/4+z
x,-y,1/2-z
1/2-x,y,-z
3/4+y,1/4+x,1/4-z
1/4-y,1/4-x,1/4-z
-x,-y,-z
3/4+y,1/4-x,3/4-z
x,1/2+y,-z
3/4-y,3/4+x,1/4-z
-x,y,1/2+z
1/2+x,-y,z
1/4-y,3/4-x,3/4+z
3/4+y,3/4+x,3/4+z
1/2+x,1/2+y,1/2+z
3/4-y,1/4+x,3/4+z
1/2-x,-y,1/2+z
3/4+y,3/4-x,1/4+z
1/2+x,1/2-y,-z
-x,1/2+y,1/2-z
1/4+y,3/4+x,3/4-z
3/4-y,3/4-x,3/4-z
1/2-x,1/2-y,1/2-z
1/4+y,3/4-x,1/4-z
1/2+x,y,1/2-z
1/4-y,1/4+x,3/4-z
1/2-x,1/2+y,z
x,1/2-y,1/2+z
3/4-y,1/4-x,1/4+z
1/4+y,1/4+x,1/4+z
loop_
_atom_site_type_symbol
_atom_site_label
_atom_site_fract_x
_atom_site_fract_y
_atom_site_fract_z
Si Si1 0.850855 0.808085 0.347412
Si Si2 0.721173 0.204767 0.410939
Si Si3 0.159270 0.724131 0.159826
Si Si4 0.346141 0.002702 0.352052
Si Si5 0.866589 0.643984 0.185452
Si Si6 0.636317 0.886317 0.125000
O O1 0.913587 0.836414 0.375000
O O2 0.838077 0.745733 0.397049
O O3 0.864019 0.798461 0.248988
O O4 0.795165 0.852317 0.361158
O O5 0.750000 0.221676 0.500000
O O6 0.768243 0.221439 0.337468
O O7 0.702832 0.133463 0.406582
O O8 0.137624 0.791413 0.140235
O O9 0.136589 0.679842 0.086048
O O10 0.280934 0.030934 0.375000
O O11 0.352923 0.000000 0.250000
O O12 0.352827 0.938040 0.398736
O O13 0.869090 0.653644 0.288147
#
# Coordination Sequence:
#
# PCOD8321262 Si02
#       6
#    32  32  32  32  32  16
#     4  11  23  41  75 105 134 186 243 295 357 434
#     4  12  24  46  71 104 144 195 235 299 372 440
#     4  12  26  46  75 103 143 193 242 300 364 438
#     4  11  24  46  71 106 146 184 244 295 357 433
#     4  12  26  48  75 107 148 194 244 300 369 441
#     4  12  26  46  71 110 148 190 248 296 376 445
#
# _framework density 22.581932999999999
#
# number of rings (size 3 to 8) (size 9 to 14) (size 15 to 20)
#    0.000    0.364    5.455    4.364    2.545    0.364 
#    6.545    0.455    0.000    0.000    0.000    0.000 
#    0.000    0.000    0.000    0.000    0.000    0.000 
#
# Total GULP energy -1090425.242452 kJ/mol
# GULP energy per Si atom -12391.195937 kJ/mol
# Density = 2.253054 g / cm^3
# Si number density = 22.581933 Si / 1000 Ang^3
#
#
#
# Elastic Constant Matrix: (Units=GPa)
#
#
# Indices 1 2 3 4 5 6 
#
# 1 103.1186 65.6322 33.8138 0.0000 0.0000 0.0000
# 2 65.6322 103.1200 33.8134 0.0000 0.0000 0.0000
# 3 33.8138 33.8134 124.1538 0.0000 0.0000 0.0000
# 4 0.0000 0.0000 0.0000 30.5918 0.0000 0.0000
# 5 0.0000 0.0000 0.0000 0.0000 30.5912 0.0000
# 6 0.0000 0.0000 0.0000 0.0000 0.0000 44.3234
#
#
#
# Elastic Compliance Matrix: (Units=1/GPa)
#
#
# Indices 1 2 3 4 5 6 
#
# 1 0.016664 -0.010012 -0.001812 0.000000 0.000000 0.000000
# 2 -0.010012 0.016664 -0.001812 0.000000 0.000000 0.000000
# 3 -0.001812 -0.001812 0.009041 0.000000 0.000000 0.000000
# 4 0.000000 0.000000 0.000000 0.032688 0.000000 0.000000
# 5 0.000000 0.000000 0.000000 0.000000 0.032689 0.000000
# 6 0.000000 0.000000 0.000000 0.000000 0.000000 0.022561
#
#
# Mechanical properties :
#
#
# Convention : Reuss Voigt Hill
#
# Bulk Modulus (GPa) = 66.23174 66.32344 66.27759
# Shear Modulus (GPa) = 30.74812 34.24348 32.49580
#
# Velocity S-wave (km/s) = 3.69402 3.89834 3.79755
# Velocity P-wave (km/s) = 6.89838 7.04958 6.97439
#
# Compressibility (1/GPa) = 0.01509850
#
# Stress axis : x y z
#
# Youngs Moduli (GPa) = 60.00958 60.01064 110.60302
#
# Poissons Ratio (x) = 0.60082 0.20038
# Poissons Ratio (y) = 0.60081 0.20037
# Poissons Ratio (z) = 0.10872 0.10871
#
# Static dielectric constant tensor:
#      x y z
#    x 4.203380 0.000000 0.000000 
#    y 0.000000 4.203370 0.000000 
#    z 0.000000 0.000000 4.190240 
# 
# 
# High freq. dielectric constant tensor:
#      x y z
#    x 1.883530 0.000000 0.000000 
#    y 0.000000 1.883530 0.000000 
#    z 0.000000 0.000000 1.911730 
# 
# From -- ./inp_files/5558.got.cif
#   From: 2010.03.12/outbox.cif.g09.slc.cpg/sg142_3_cif.got.tgz:5558.got - 2010.04.03 13:27:16.
