data_PCOD8321271
_publ_section_title
;
Structure prediction by ZEFSAII (Michael W. Deem and Ramdas Pophale) SiO2 
 PCOD8321271
Probable space group: I 41/A C D
;
_chemical_formula_sum "Si O2"
_cell_formula_units_Z 160
_cell_length_a 19.956694
_cell_length_b 19.956694
_cell_length_c 17.834496
_cell_angle_alpha 90.000000
_cell_angle_beta 90.000000
_cell_angle_gamma 90.000000
_cell_volume 7102.938220
_symmetry_space_group_name_H-M "I 41/A C D"
_symmetry_group_IT_number 142
_space_group.IT_coordinate_system_code '2'
_symmetry_cell_setting 'tetragonal'
loop_
_space_group_symop_operation_xyz
x,y,z
1/4-y,3/4+x,1/4+z
-x,1/2-y,z
1/4+y,1/4-x,3/4+z
x,-y,1/2-z
1/2-x,y,-z
3/4+y,1/4+x,1/4-z
1/4-y,1/4-x,1/4-z
-x,-y,-z
3/4+y,1/4-x,3/4-z
x,1/2+y,-z
3/4-y,3/4+x,1/4-z
-x,y,1/2+z
1/2+x,-y,z
1/4-y,3/4-x,3/4+z
3/4+y,3/4+x,3/4+z
1/2+x,1/2+y,1/2+z
3/4-y,1/4+x,3/4+z
1/2-x,-y,1/2+z
3/4+y,3/4-x,1/4+z
1/2+x,1/2-y,-z
-x,1/2+y,1/2-z
1/4+y,3/4+x,3/4-z
3/4-y,3/4-x,3/4-z
1/2-x,1/2-y,1/2-z
1/4+y,3/4-x,1/4-z
1/2+x,y,1/2-z
1/4-y,1/4+x,3/4-z
1/2-x,1/2+y,z
x,1/2-y,1/2+z
3/4-y,1/4-x,1/4+z
1/4+y,1/4+x,1/4+z
loop_
_atom_site_type_symbol
_atom_site_label
_atom_site_fract_x
_atom_site_fract_y
_atom_site_fract_z
Si Si1 0.186951 0.892127 0.947286
Si Si2 0.932107 0.419012 0.028358
Si Si3 0.427406 0.578157 0.274168
Si Si4 0.065867 0.926406 0.051071
Si Si5 0.017858 0.629419 0.343046
O O1 0.192277 0.942277 0.875000
O O2 0.182837 0.820461 0.904356
O O3 0.250000 0.903158 0.000000
O O4 0.119869 0.889462 0.998055
O O5 0.921234 0.496905 0.034801
O O6 0.953525 0.387615 0.107275
O O7 0.859391 0.392350 0.004193
O O8 0.991426 0.402021 0.969812
O O9 0.434625 0.500000 0.250000
O O10 0.425147 0.588625 0.362381
O O11 0.486881 0.626596 0.241304
O O12 0.051734 0.698267 0.375000
#
# Coordination Sequence:
#
# PCOD8321271 Si02
#       5
#    32  32  32  32  32
#     4  11  25  46  73 106 143 198 253 310 379 454
#     4  11  25  46  70 101 145 184 244 305 368 455
#     4  12  27  44  72 106 145 193 241 309 384 445
#     4  11  26  45  69 106 144 189 244 306 373 453
#     4  11  23  47  73 103 138 193 248 303 374 441
#
# _framework density 22.52589
#
# number of rings (size 3 to 8) (size 9 to 14) (size 15 to 20)
#    0.000    0.800    6.000    1.200    5.600    2.400 
#    0.000    0.000    0.000    0.000    0.000    0.000 
#    0.000    0.000    0.000    0.000    0.000    0.000 
#
# Total GULP energy -991159.199494 kJ/mol
# GULP energy per Si atom -12389.489994 kJ/mol
# Density = 2.247462 g / cm^3
# Si number density = 22.525890 Si / 1000 Ang^3
#
#
#
# Elastic Constant Matrix: (Units=GPa)
#
#
# Indices 1 2 3 4 5 6 
#
# 1 82.2191 46.2498 41.9995 0.0000 0.0000 0.0000
# 2 46.2498 82.2186 41.9991 0.0000 0.0000 0.0000
# 3 41.9995 41.9991 171.7556 0.0000 0.0000 0.0000
# 4 0.0000 0.0000 0.0000 60.8123 0.0000 0.0000
# 5 0.0000 0.0000 0.0000 0.0000 60.8107 0.0000
# 6 0.0000 0.0000 0.0000 0.0000 0.0000 30.2541
#
#
#
# Elastic Compliance Matrix: (Units=1/GPa)
#
#
# Indices 1 2 3 4 5 6 
#
# 1 0.018533 -0.009268 -0.002266 0.000000 0.000000 0.000000
# 2 -0.009268 0.018534 -0.002266 0.000000 0.000000 0.000000
# 3 -0.002266 -0.002266 0.006930 0.000000 0.000000 0.000000
# 4 0.000000 0.000000 0.000000 0.016444 0.000000 0.000000
# 5 0.000000 0.000000 0.000000 0.000000 0.016444 0.000000
# 6 0.000000 0.000000 0.000000 0.000000 0.000000 0.033053
#
#
# Mechanical properties :
#
#
# Convention : Reuss Voigt Hill
#
# Bulk Modulus (GPa) = 60.98156 66.29892 63.64024
# Shear Modulus (GPa) = 34.96399 44.10508 39.53454
#
# Velocity S-wave (km/s) = 3.94403 4.42970 4.19390
# Velocity P-wave (km/s) = 6.91889 7.46051 7.19480
#
# Compressibility (1/GPa) = 0.01639840
#
# Stress axis : x y z
#
# Youngs Moduli (GPa) = 53.95638 53.95616 144.29453
#
# Poissons Ratio (x) = 0.50007 0.32693
# Poissons Ratio (y) = 0.50008 0.32692
# Poissons Ratio (z) = 0.12225 0.12224
#
# Static dielectric constant tensor:
#      x y z
#    x 4.089100 0.000000 0.000000 
#    y 0.000000 4.089100 0.000000 
#    z 0.000000 0.000000 4.243630 
# 
# 
# High freq. dielectric constant tensor:
#      x y z
#    x 1.879860 0.000000 0.000000 
#    y 0.000000 1.879860 0.000000 
#    z 0.000000 0.000000 1.910120 
# 
# From -- ./inp_files/7402.got.cif
#   From: 2010.03.12/outbox.cif.g09.slc.cpg/sg142_4_cif.got.tgz:7402.got - 2010.04.03 13:27:16.
