data_PCOD8321346
_publ_section_title
;
Structure prediction by ZEFSAII (Michael W. Deem and Ramdas Pophale) SiO2 
 PCOD8321346
Probable space group: P 31
;
_chemical_formula_sum "Si O2"
_cell_formula_units_Z 21
_cell_length_a 9.482288
_cell_length_b 9.482288
_cell_length_c 15.699511
_cell_angle_alpha 90.000000
_cell_angle_beta 90.000000
_cell_angle_gamma 120.000000
_cell_volume 1222.483597
_symmetry_space_group_name_H-M "P 31"
_symmetry_group_IT_number 144
_symmetry_cell_setting 'hexagonal'
loop_
_space_group_symop_operation_xyz
x,y,z
-y,x-y,1/3+z
-x+y,-x,2/3+z
loop_
_atom_site_type_symbol
_atom_site_label
_atom_site_fract_x
_atom_site_fract_y
_atom_site_fract_z
Si Si1 0.281929 0.389844 0.608820
Si Si2 0.432554 0.372068 0.016929
Si Si3 0.125062 0.062531 0.021911
Si Si4 0.938204 0.876410 0.188578
Si Si5 0.119353 0.559677 0.521910
Si Si6 0.610155 0.718070 0.101668
Si Si7 0.939514 0.372069 0.360225
O O1 0.242739 0.251182 0.540079
O O2 0.246660 0.521848 0.567458
O O3 0.157620 0.315238 0.688578
O O4 0.471747 0.473662 0.633204
O O5 0.427193 0.424080 0.920427
O O6 0.526341 0.528253 0.077283
O O7 0.519062 0.259531 0.021909
O O8 0.242421 0.255677 0.043543
O O9 0.018307 0.985181 0.105569
O O10 0.242420 0.986742 0.000280
O O11 0.018310 0.033126 0.938253
O O12 0.748814 0.757262 0.170411
O O13 0.246664 0.724812 0.476362
O O14 0.996883 0.424082 0.456727
#
# Coordination Sequence:
#
# PCOD8321346 Si02
#       7
#     3   3   3   3   3   3   3
#     4  10  20  34  59  81 112 148 192 229 287 336
#     4   9  20  37  55  80 114 153 184 239 286 339
#     4  10  22  38  60  84 116 152 192 236 290 340
#     4  12  20  38  62  88 110 154 196 244 278 358
#     4  10  18  36  58  78 112 154 188 236 284 342
#     4  10  20  34  59  81 112 148 192 229 287 336
#     4   9  20  37  55  80 114 153 184 239 286 339
#
# _framework density 17.178144
#
# number of rings (size 3 to 8) (size 9 to 14) (size 15 to 20)
#    0.857    1.143    4.286    0.000    0.000    2.286 
#    0.000    0.000    6.286    0.000    0.000    0.000 
#    0.000    0.000    0.000    0.000    0.000    0.000 
#
# Total GULP energy -260181.165050 kJ/mol
# GULP energy per Si atom -12389.579288 kJ/mol
# Density = 1.713905 g / cm^3
# Si number density = 17.178144 Si / 1000 Ang^3
#
#
#
# Elastic Constant Matrix: (Units=GPa)
#
#
# Indices 1 2 3 4 5 6 
#
# 1 84.0546 55.4900 47.1923 -0.0003 5.9637 0.0000
# 2 55.4900 84.0546 47.1923 0.0003 -5.9637 0.0000
# 3 47.1923 47.1923 109.0648 0.0000 0.0000 0.0000
# 4 -0.0003 0.0003 0.0000 24.6661 0.0000 -5.9637
# 5 5.9637 -5.9637 0.0000 0.0000 24.6661 -0.0003
# 6 0.0000 0.0000 0.0000 -5.9637 -0.0003 14.2823
#
#
#
# Elastic Compliance Matrix: (Units=1/GPa)
#
#
# Indices 1 2 3 4 5 6 
#
# 1 0.024535 -0.014404 -0.004384 0.000000 -0.009415 0.000000
# 2 -0.014404 0.024535 -0.004384 0.000000 0.009415 0.000000
# 3 -0.004384 -0.004384 0.012963 0.000000 0.000000 0.000000
# 4 0.000000 0.000000 0.000000 0.045094 0.000000 0.018829
# 5 -0.009415 0.009415 0.000000 0.000000 0.045094 0.000001
# 6 0.000000 0.000000 0.000000 0.018829 0.000001 0.077879
#
#
# Mechanical properties :
#
#
# Convention : Reuss Voigt Hill
#
# Bulk Modulus (GPa) = 63.73511 64.10258 63.91885
# Shear Modulus (GPa) = 17.75102 21.20953 19.48028
#
# Velocity S-wave (km/s) = 3.21806 3.51762 3.37117
# Velocity P-wave (km/s) = 7.14079 7.34136 7.24177
#
# Compressibility (1/GPa) = 0.01568994
#
# Stress axis : x y z
#
# Youngs Moduli (GPa) = 40.75746 40.75746 77.14508
#
# Poissons Ratio (x) = 0.58708 0.33819
# Poissons Ratio (y) = 0.58708 0.33819
# Poissons Ratio (z) = 0.17867 0.17867
#
# Static dielectric constant tensor:
#      x y z
#    x 3.123060 0.000000 0.000000 
#    y 0.000000 3.123060 0.000000 
#    z 0.000000 0.000000 3.323370 
# 
# 
# High freq. dielectric constant tensor:
#      x y z
#    x 1.659030 0.000000 0.000000 
#    y 0.000000 1.659030 0.000000 
#    z 0.000000 0.000000 1.667480 
# 
# From -- ./inp_files/798.got.cif
#   From: 2010.03.12/outbox.cif.g09.slc.cpg/sg144_cif.got.tgz:798.got - 2010.04.03 13:34:42.
