data_PCOD8321303
_publ_section_title
;
Structure prediction by ZEFSAII (Michael W. Deem and Ramdas Pophale) SiO2 
 PCOD8321303
Probable space group: I 41/A C D
;
_chemical_formula_sum "Si O2"
_cell_formula_units_Z 136
_cell_length_a 17.137251
_cell_length_b 17.137251
_cell_length_c 19.788756
_cell_angle_alpha 90.000000
_cell_angle_beta 90.000000
_cell_angle_gamma 90.000000
_cell_volume 5811.668164
_symmetry_space_group_name_H-M "I 41/A C D"
_symmetry_group_IT_number 142
_space_group.IT_coordinate_system_code '2'
_symmetry_cell_setting 'tetragonal'
loop_
_space_group_symop_operation_xyz
x,y,z
1/4-y,3/4+x,1/4+z
-x,1/2-y,z
1/4+y,1/4-x,3/4+z
x,-y,1/2-z
1/2-x,y,-z
3/4+y,1/4+x,1/4-z
1/4-y,1/4-x,1/4-z
-x,-y,-z
3/4+y,1/4-x,3/4-z
x,1/2+y,-z
3/4-y,3/4+x,1/4-z
-x,y,1/2+z
1/2+x,-y,z
1/4-y,3/4-x,3/4+z
3/4+y,3/4+x,3/4+z
1/2+x,1/2+y,1/2+z
3/4-y,1/4+x,3/4+z
1/2-x,-y,1/2+z
3/4+y,3/4-x,1/4+z
1/2+x,1/2-y,-z
-x,1/2+y,1/2-z
1/4+y,3/4+x,3/4-z
3/4-y,3/4-x,3/4-z
1/2-x,1/2-y,1/2-z
1/4+y,3/4-x,1/4-z
1/2+x,y,1/2-z
1/4-y,1/4+x,3/4-z
1/2-x,1/2+y,z
x,1/2-y,1/2+z
3/4-y,1/4-x,1/4+z
1/4+y,1/4+x,1/4+z
loop_
_atom_site_type_symbol
_atom_site_label
_atom_site_fract_x
_atom_site_fract_y
_atom_site_fract_z
Si Si1 0.330090 0.705343 0.737327
Si Si2 0.000000 0.750000 0.625000
Si Si3 0.087695 0.848485 0.218442
Si Si4 0.250000 0.231938 0.000000
Si Si5 0.170130 0.920130 0.875000
Si Si6 0.113592 0.571334 0.163361
O O1 0.250000 0.750000 0.750000
O O2 0.395643 0.773416 0.734719
O O3 0.330295 0.659813 0.667327
O O4 0.352313 0.644722 0.796496
O O5 0.077330 0.761665 0.578869
O O6 0.159467 0.860394 0.166629
O O7 0.072768 0.924303 0.265875
O O8 0.217612 0.282086 0.937826
O O9 0.247755 0.922486 0.921095
#
# Coordination Sequence:
#
# PCOD8321303 Si02
#       6
#    32   8  32  16  16  32
#     4  12  25  45  74 110 146 197 259 312 384 462
#     4  12  20  40  76 106 128 192 248 296 370 444
#     4  12  24  43  76 106 146 196 260 317 379 472
#     4  12  24  44  74 110 142 200 262 320 390 468
#     4  12  26  46  75 108 164 201 246 332 396 454
#     4  12  24  47  72 101 150 200 253 315 393 460
#
# _framework density 23.401198000000001
#
# number of rings (size 3 to 8) (size 9 to 14) (size 15 to 20)
#    0.000    0.000    9.412    0.000    0.000    1.882 
#    0.000    2.353    0.000    0.000    0.000    0.000 
#    0.000    0.000    0.000    0.000    0.000    0.000 
#
# Total GULP energy -842494.079070 kJ/mol
# GULP energy per Si atom -12389.618810 kJ/mol
# Density = 2.334794 g / cm^3
# Si number density = 23.401198 Si / 1000 Ang^3
#
#
#
# Elastic Constant Matrix: (Units=GPa)
#
#
# Indices 1 2 3 4 5 6 
#
# 1 178.9369 80.3011 50.2444 0.0000 0.0000 0.0000
# 2 80.3011 178.9369 50.2444 0.0000 0.0000 0.0000
# 3 50.2444 50.2444 64.5589 0.0000 0.0000 0.0000
# 4 0.0000 0.0000 0.0000 33.9515 0.0000 0.0000
# 5 0.0000 0.0000 0.0000 0.0000 33.9515 0.0000
# 6 0.0000 0.0000 0.0000 0.0000 0.0000 45.4760
#
#
#
# Elastic Compliance Matrix: (Units=1/GPa)
#
#
# Indices 1 2 3 4 5 6 
#
# 1 0.007831 -0.002307 -0.004299 0.000000 0.000000 0.000000
# 2 -0.002307 0.007831 -0.004299 0.000000 0.000000 0.000000
# 3 -0.004299 -0.004299 0.022181 0.000000 0.000000 0.000000
# 4 0.000000 0.000000 0.000000 0.029454 0.000000 0.000000
# 5 0.000000 0.000000 0.000000 0.000000 0.029454 0.000000
# 6 0.000000 0.000000 0.000000 0.000000 0.000000 0.021990
#
#
# Mechanical properties :
#
#
# Convention : Reuss Voigt Hill
#
# Bulk Modulus (GPa) = 62.37185 87.11251 74.74218
# Shear Modulus (GPa) = 34.27098 38.78532 36.52815
#
# Velocity S-wave (km/s) = 3.83103 4.07554 3.95517
# Velocity P-wave (km/s) = 6.80295 7.71059 7.27095
#
# Compressibility (1/GPa) = 0.01603288
#
# Stress axis : x y z
#
# Youngs Moduli (GPa) = 127.69567 127.69567 45.08262
#
# Poissons Ratio (x) = 0.29462 0.19382
# Poissons Ratio (y) = 0.29462 0.19382
# Poissons Ratio (z) = 0.54898 0.54898
#
# Static dielectric constant tensor:
#      x y z
#    x 4.685950 0.000000 0.000000 
#    y 0.000000 4.685950 0.000000 
#    z 0.000000 0.000000 3.973180 
# 
# 
# High freq. dielectric constant tensor:
#      x y z
#    x 1.943200 0.000000 0.000000 
#    y 0.000000 1.943200 0.000000 
#    z 0.000000 0.000000 1.890930 
# 
# From -- ./inp_files/8840.got.cif
#   From: 2010.03.12/outbox.cif.g09.slc.cpg/sg142_5_cif.got.tgz:8840.got - 2010.04.03 13:27:16.
