data_PCOD8321935
_publ_section_title
;
Structure prediction by ZEFSAII (Michael W. Deem and Ramdas Pophale) SiO2 
 PCOD8321935
Probable space group: P 31 1 2
;
_chemical_formula_sum "Si O2"
_cell_formula_units_Z 39
_cell_length_a 9.263526
_cell_length_b 9.263526
_cell_length_c 28.349306
_cell_angle_alpha 90.000000
_cell_angle_beta 90.000000
_cell_angle_gamma 120.000000
_cell_volume 2106.811659
_symmetry_space_group_name_H-M "P 31 1 2"
_symmetry_group_IT_number 151
_symmetry_cell_setting 'hexagonal'
loop_
_space_group_symop_operation_xyz
x,y,z
-y,x-y,1/3+z
-x+y,-x,2/3+z
-y,-x,2/3-z
-x+y,y,1/3-z
x,x-y,-z
loop_
_atom_site_type_symbol
_atom_site_label
_atom_site_fract_x
_atom_site_fract_y
_atom_site_fract_z
Si Si1 0.980435 0.047772 0.387680
Si Si2 0.252666 0.836926 0.617742
Si Si3 0.132848 0.849692 0.405618
Si Si4 0.327871 0.614498 0.552450
Si Si5 0.927281 0.335043 0.669684
Si Si6 0.069297 0.390714 0.288942
Si Si7 0.549525 0.099049 0.666667
O O1 0.996435 0.003566 0.333334
O O2 0.120290 0.233445 0.401739
O O3 0.799654 0.027354 0.395182
O O4 0.002221 0.911946 0.419324
O O5 0.241622 0.697750 0.582430
O O6 0.211169 0.779052 0.672200
O O7 0.442495 0.991383 0.621175
O O8 0.206819 0.794359 0.449196
O O9 0.052667 0.685670 0.373072
O O10 0.279927 0.014061 0.380051
O O11 0.366293 0.683146 0.500000
O O12 0.499915 0.653357 0.576333
O O13 0.741736 0.210034 0.651428
O O14 0.936637 0.505939 0.686343
#
# Coordination Sequence:
#
# PCOD8321935 Si02
#       7
#     6   6   6   6   6   6   3
#     4  10  19  33  59  91 113 138 184 236 286 335
#     4  11  20  36  56  85 112 142 187 234 283 333
#     4  10  18  36  52  79 115 145 180 221 279 333
#     4  11  23  38  57  78 111 156 194 229 278 334
#     4  10  19  30  53  87 114 140 175 223 284 331
#     4  10  20  36  59  84 112 145 182 234 280 334
#     4  12  20  30  56  94 112 138 180 240 284 330
#
# _framework density 18.511385000000001
#
# number of rings (size 3 to 8) (size 9 to 14) (size 15 to 20)
#    0.000    1.538    6.154    0.923    3.231    0.000 
#    0.000    2.308    0.000    0.000    0.000    0.000 
#    0.000    0.000    0.000    0.000    0.000    0.000 
#
# Total GULP energy -483345.665408 kJ/mol
# GULP energy per Si atom -12393.478600 kJ/mol
# Density = 1.846925 g / cm^3
# Si number density = 18.511385 Si / 1000 Ang^3
#
#
#
# Elastic Constant Matrix: (Units=GPa)
#
#
# Indices 1 2 3 4 5 6 
#
# 1 121.8694 56.2296 19.9252 0.0000 -1.5356 0.0000
# 2 56.2296 121.8694 19.9252 0.0000 1.5356 0.0000
# 3 19.9252 19.9252 43.3646 0.0000 0.0000 0.0000
# 4 0.0000 0.0000 0.0000 10.1953 0.0000 1.5356
# 5 -1.5356 1.5356 0.0000 0.0000 10.1953 0.0000
# 6 0.0000 0.0000 0.0000 1.5356 0.0000 32.8199
#
#
#
# Elastic Compliance Matrix: (Units=1/GPa)
#
#
# Indices 1 2 3 4 5 6 
#
# 1 0.010801 -0.004542 -0.002876 0.000000 0.002311 0.000000
# 2 -0.004542 0.010801 -0.002876 0.000000 -0.002311 0.000000
# 3 -0.002876 -0.002876 0.025703 0.000000 0.000000 0.000000
# 4 0.000000 0.000000 0.000000 0.098781 0.000000 -0.004622
# 5 0.002311 -0.002311 0.000000 0.000000 0.098781 0.000000
# 6 0.000000 0.000000 0.000000 -0.004622 0.000000 0.030686
#
#
# Mechanical properties :
#
#
# Convention : Reuss Voigt Hill
#
# Bulk Modulus (GPa) = 37.42918 53.25149 45.34034
# Shear Modulus (GPa) = 16.39113 23.37699 19.88406
#
# Velocity S-wave (km/s) = 2.97890 3.55751 3.28098
# Velocity P-wave (km/s) = 5.66527 6.76046 6.23695
#
# Compressibility (1/GPa) = 0.02671712
#
# Stress axis : x y z
#
# Youngs Moduli (GPa) = 92.58807 92.58807 38.90626
#
# Poissons Ratio (x) = 0.42056 0.11188
# Poissons Ratio (y) = 0.42056 0.11188
# Poissons Ratio (z) = 0.26624 0.26624
#
# Static dielectric constant tensor:
#      x y z
#    x 3.581240 0.000000 0.000000 
#    y 0.000000 3.581240 0.000000 
#    z 0.000000 0.000000 2.780730 
# 
# 
# High freq. dielectric constant tensor:
#      x y z
#    x 1.734550 0.000000 0.000000 
#    y 0.000000 1.734550 0.000000 
#    z 0.000000 0.000000 1.641480 
# 
# From -- ./inp_files/4932.got.cif
#   From: 2010.03.12/outbox.cif.g09.slc.cpg/sg151_3_cif.got.tgz:4932.got - 2010.04.03 13:42:29.
