data_PCOD8321759
_publ_section_title
;
Structure prediction by ZEFSAII (Michael W. Deem and Ramdas Pophale) SiO2 
 PCOD8321759
Probable space group: R -3
;
_chemical_formula_sum "Si O2"
_cell_formula_units_Z 108
_cell_length_a 21.657466
_cell_length_b 21.657466
_cell_length_c 12.843520
_cell_angle_alpha 90.000000
_cell_angle_beta 90.000000
_cell_angle_gamma 120.000000
_cell_volume 5217.109843
_symmetry_space_group_name_H-M "R -3"
_symmetry_group_IT_number 148
_symmetry_cell_setting 'hexagonal'
loop_
_space_group_symop_operation_xyz
x,y,z
-y,x-y,z
-x+y,-x,z
-x,-y,-z
y,-x+y,-z
x-y,x,-z
2/3+x,1/3+y,1/3+z
2/3-y,1/3+x-y,1/3+z
2/3-x+y,1/3-x,1/3+z
2/3-x,1/3-y,1/3-z
2/3+y,1/3-x+y,1/3-z
2/3+x-y,1/3+x,1/3-z
1/3+x,2/3+y,2/3+z
1/3-y,2/3+x-y,2/3+z
1/3-x+y,2/3-x,2/3+z
1/3-x,2/3-y,2/3-z
1/3+y,2/3-x+y,2/3-z
1/3+x-y,2/3+x,2/3-z
loop_
_atom_site_type_symbol
_atom_site_label
_atom_site_fract_x
_atom_site_fract_y
_atom_site_fract_z
Si Si1 0.510450 0.851176 0.427776
Si Si2 0.509535 0.268258 0.296952
Si Si3 0.524912 0.199156 0.802372
Si Si4 0.885705 0.723385 0.895476
Si Si5 0.023339 0.703706 0.674958
Si Si6 0.394451 0.965099 0.178598
O O1 0.447535 0.833826 0.509520
O O2 0.473781 0.818617 0.318509
O O3 0.555542 0.814602 0.467354
O O4 0.563882 0.936511 0.417836
O O5 0.555186 0.340533 0.361762
O O6 0.430818 0.226662 0.345716
O O7 0.533062 0.276468 0.806140
O O8 0.453378 0.140221 0.860748
O O9 0.939056 0.696931 0.934631
O O10 0.811536 0.658931 0.855212
O O11 0.005151 0.633112 0.737829
O O12 0.954659 0.684717 0.603861
#
# Coordination Sequence:
#
# PCOD8321759 Si02
#       6
#    18  18  18  18  18  18
#     4  10  23  42  66  94 131 171 216 275 327 384
#     4  10  22  42  65  96 132 171 219 273 330 396
#     4  11  26  45  66  95 132 176 228 270 319 392
#     4  11  23  42  63 100 133 169 219 276 325 396
#     4  11  23  42  64  96 136 167 218 271 326 389
#     4  11  23  40  68  95 132 175 216 265 334 391
#
# _framework density 20.701115000000001
#
# number of rings (size 3 to 8) (size 9 to 14) (size 15 to 20)
#    0.000    1.333    1.667    4.333    2.333    4.667 
#    6.000    0.000    0.000    0.000    0.000    0.000 
#    0.000    0.000    0.000    0.000    0.000    0.000 
#
# Total GULP energy -446505.976503 kJ/mol
# GULP energy per Si atom -12402.943792 kJ/mol
# Density = 2.065400 g / cm^3
# Si number density = 20.701115 Si / 1000 Ang^3
#
#
#
# Elastic Constant Matrix: (Units=GPa)
#
#
# Indices 1 2 3 4 5 6 
#
# 1 86.3055 17.3344 30.8846 3.4160 3.2593 0.0000
# 2 17.3344 86.3055 30.8847 -3.4160 -3.2593 0.0000
# 3 30.8846 30.8847 80.8414 0.0000 -0.0001 0.0000
# 4 3.4160 -3.4160 0.0000 33.0471 0.0000 -3.2593
# 5 3.2593 -3.2593 -0.0001 0.0000 33.0471 3.4160
# 6 0.0000 0.0000 0.0000 -3.2593 3.4160 34.4855
#
#
#
# Elastic Compliance Matrix: (Units=1/GPa)
#
#
# Indices 1 2 3 4 5 6 
#
# 1 0.013641 -0.001147 -0.004773 -0.001529 -0.001459 0.000000
# 2 -0.001147 0.013641 -0.004773 0.001529 0.001458 0.000000
# 3 -0.004773 -0.004773 0.016017 0.000000 0.000000 0.000000
# 4 -0.001529 0.001529 0.000000 0.030864 0.000000 0.002917
# 5 -0.001459 0.001458 0.000000 0.000000 0.030864 -0.003057
# 6 0.000000 0.000000 0.000000 0.002917 -0.003057 0.029576
#
#
# Mechanical properties :
#
#
# Convention : Reuss Voigt Hill
#
# Bulk Modulus (GPa) = 45.63750 45.73998 45.68874
# Shear Modulus (GPa) = 30.61992 31.73918 31.17955
#
# Velocity S-wave (km/s) = 3.85014 3.91987 3.88516
# Velocity P-wave (km/s) = 6.46981 6.52921 6.49958
#
# Compressibility (1/GPa) = 0.02191180
#
# Stress axis : x y z
#
# Youngs Moduli (GPa) = 73.30948 73.30942 62.43420
#
# Poissons Ratio (x) = 0.08411 0.29800
# Poissons Ratio (y) = 0.08411 0.29800
# Poissons Ratio (z) = 0.34991 0.34991
#
# Static dielectric constant tensor:
#      x y z
#    x 3.759260 0.000000 0.000000 
#    y 0.000000 3.759260 0.000000 
#    z 0.000000 0.000000 3.719220 
# 
# 
# High freq. dielectric constant tensor:
#      x y z
#    x 1.815250 0.000000 0.000000 
#    y 0.000000 1.815250 0.000000 
#    z 0.000000 0.000000 1.808950 
# 
# From -- ./inp_files/2074.got.cif
#   From: 2010.03.12/outbox.cif.g09.slc.cpg/sg148_2_cif.got.tgz:2074.got - 2010.04.03 13:38:46.
