data_PCOD8321288
_publ_section_title
;
Structure prediction by ZEFSAII (Michael W. Deem and Ramdas Pophale) SiO2 
 PCOD8321288
Probable space group: I 41/A C D
;
_chemical_formula_sum "Si O2"
_cell_formula_units_Z 96
_cell_length_a 15.957175
_cell_length_b 15.957175
_cell_length_c 16.836677
_cell_angle_alpha 90.000000
_cell_angle_beta 90.000000
_cell_angle_gamma 90.000000
_cell_volume 4287.147208
_symmetry_space_group_name_H-M "I 41/A C D"
_symmetry_group_IT_number 142
_space_group.IT_coordinate_system_code '2'
_symmetry_cell_setting 'tetragonal'
loop_
_space_group_symop_operation_xyz
x,y,z
1/4-y,3/4+x,1/4+z
-x,1/2-y,z
1/4+y,1/4-x,3/4+z
x,-y,1/2-z
1/2-x,y,-z
3/4+y,1/4+x,1/4-z
1/4-y,1/4-x,1/4-z
-x,-y,-z
3/4+y,1/4-x,3/4-z
x,1/2+y,-z
3/4-y,3/4+x,1/4-z
-x,y,1/2+z
1/2+x,-y,z
1/4-y,3/4-x,3/4+z
3/4+y,3/4+x,3/4+z
1/2+x,1/2+y,1/2+z
3/4-y,1/4+x,3/4+z
1/2-x,-y,1/2+z
3/4+y,3/4-x,1/4+z
1/2+x,1/2-y,-z
-x,1/2+y,1/2-z
1/4+y,3/4+x,3/4-z
3/4-y,3/4-x,3/4-z
1/2-x,1/2-y,1/2-z
1/4+y,3/4-x,1/4-z
1/2+x,y,1/2-z
1/4-y,1/4+x,3/4-z
1/2-x,1/2+y,z
x,1/2-y,1/2+z
3/4-y,1/4-x,1/4+z
1/4+y,1/4+x,1/4+z
loop_
_atom_site_type_symbol
_atom_site_label
_atom_site_fract_x
_atom_site_fract_y
_atom_site_fract_z
Si Si1 0.224366 0.845833 0.911970
Si Si2 0.604050 0.185567 0.160182
Si Si3 0.910433 0.577270 0.304029
O O1 0.153818 0.903818 0.875000
O O2 0.306243 0.853672 0.857870
O O3 0.103448 0.786237 0.651726
O O4 0.250000 0.874623 0.000000
O O5 0.692496 0.250746 0.409828
O O6 0.579931 0.160094 0.249648
O O7 0.877596 0.500000 0.250000
O O8 0.844746 0.594746 0.375000
#
# Coordination Sequence:
#
# PCOD8321288 Si02
#       3
#    32  32  32
#     4  11  26  49  73 115 151 193 258 315 380 452
#     4  11  24  47  77 105 154 201 255 310 379 455
#     4  11  26  49  75 112 150 203 258 309 387 456
#
# _framework density 22.392513000000001
#
# number of rings (size 3 to 8) (size 9 to 14) (size 15 to 20)
#    0.000    1.000    6.667    0.000    4.667    7.333 
#    0.000    0.000    0.000    0.000    0.000    0.000 
#    0.000    0.000    0.000    0.000    0.000    0.000 
#
# Total GULP energy -595302.820803 kJ/mol
# GULP energy per Si atom -12402.142100 kJ/mol
# Density = 2.234155 g / cm^3
# Si number density = 22.392513 Si / 1000 Ang^3
#
#
#
# Elastic Constant Matrix: (Units=GPa)
#
#
# Indices 1 2 3 4 5 6 
#
# 1 120.8944 64.5051 60.0337 0.0000 0.0000 0.0000
# 2 64.5051 120.8944 60.0338 0.0000 0.0000 0.0000
# 3 60.0337 60.0338 110.8466 0.0000 0.0000 0.0000
# 4 0.0000 0.0000 0.0000 44.2288 0.0000 0.0000
# 5 0.0000 0.0000 0.0000 0.0000 44.2288 0.0000
# 6 0.0000 0.0000 0.0000 0.0000 0.0000 33.2253
#
#
#
# Elastic Compliance Matrix: (Units=1/GPa)
#
#
# Indices 1 2 3 4 5 6 
#
# 1 0.013021 -0.004713 -0.004499 0.000000 0.000000 0.000000
# 2 -0.004713 0.013021 -0.004499 0.000000 0.000000 0.000000
# 3 -0.004499 -0.004499 0.013895 0.000000 0.000000 0.000000
# 4 0.000000 0.000000 0.000000 0.022610 0.000000 0.000000
# 5 0.000000 0.000000 0.000000 0.000000 0.022610 0.000000
# 6 0.000000 0.000000 0.000000 0.000000 0.000000 0.030098
#
#
# Mechanical properties :
#
#
# Convention : Reuss Voigt Hill
#
# Bulk Modulus (GPa) = 79.91726 80.19785 80.05755
# Shear Modulus (GPa) = 34.04878 35.54075 34.79477
#
# Velocity S-wave (km/s) = 3.90364 3.98825 3.94618
# Velocity P-wave (km/s) = 7.48897 7.55649 7.52281
#
# Compressibility (1/GPa) = 0.01251294
#
# Stress axis : x y z
#
# Youngs Moduli (GPa) = 76.80063 76.80064 71.96783
#
# Poissons Ratio (x) = 0.36197 0.32381
# Poissons Ratio (y) = 0.36197 0.32381
# Poissons Ratio (z) = 0.34555 0.34555
#
# Static dielectric constant tensor:
#      x y z
#    x 4.077230 0.000000 0.000000 
#    y 0.000000 4.077230 0.000000 
#    z 0.000000 0.000000 4.077090 
# 
# 
# High freq. dielectric constant tensor:
#      x y z
#    x 1.887330 0.000000 0.000000 
#    y 0.000000 1.887330 0.000000 
#    z 0.000000 0.000000 1.877630 
# 
# From -- ./inp_files/3135.got.cif
#   From: 2010.03.12/outbox.cif.g09.slc.cpg/sg142_2_cif.got.tgz:3135.got - 2010.04.03 13:27:16.
