data_PCOD8321311
_publ_section_title
;
Structure prediction by ZEFSAII (Michael W. Deem and Ramdas Pophale) SiO2 
 PCOD8321311
Probable space group: I 41/A C D
;
_chemical_formula_sum "Si O2"
_cell_formula_units_Z 96
_cell_length_a 13.031503
_cell_length_b 13.031503
_cell_length_c 25.608422
_cell_angle_alpha 90.000000
_cell_angle_beta 90.000000
_cell_angle_gamma 90.000000
_cell_volume 4348.824028
_symmetry_space_group_name_H-M "I 41/A C D"
_symmetry_group_IT_number 142
_space_group.IT_coordinate_system_code '2'
_symmetry_cell_setting 'tetragonal'
loop_
_space_group_symop_operation_xyz
x,y,z
1/4-y,3/4+x,1/4+z
-x,1/2-y,z
1/4+y,1/4-x,3/4+z
x,-y,1/2-z
1/2-x,y,-z
3/4+y,1/4+x,1/4-z
1/4-y,1/4-x,1/4-z
-x,-y,-z
3/4+y,1/4-x,3/4-z
x,1/2+y,-z
3/4-y,3/4+x,1/4-z
-x,y,1/2+z
1/2+x,-y,z
1/4-y,3/4-x,3/4+z
3/4+y,3/4+x,3/4+z
1/2+x,1/2+y,1/2+z
3/4-y,1/4+x,3/4+z
1/2-x,-y,1/2+z
3/4+y,3/4-x,1/4+z
1/2+x,1/2-y,-z
-x,1/2+y,1/2-z
1/4+y,3/4+x,3/4-z
3/4-y,3/4-x,3/4-z
1/2-x,1/2-y,1/2-z
1/4+y,3/4-x,1/4-z
1/2+x,y,1/2-z
1/4-y,1/4+x,3/4-z
1/2-x,1/2+y,z
x,1/2-y,1/2+z
3/4-y,1/4-x,1/4+z
1/4+y,1/4+x,1/4+z
loop_
_atom_site_type_symbol
_atom_site_label
_atom_site_fract_x
_atom_site_fract_y
_atom_site_fract_z
Si Si1 0.500000 0.750000 0.989489
Si Si2 0.830851 0.602925 0.047097
Si Si3 0.148487 0.307741 0.677468
Si Si4 0.654118 0.904118 0.625000
O O1 0.584131 0.692493 0.954011
O O2 0.573540 0.818657 0.026016
O O3 0.898635 0.501477 0.048551
O O4 0.765743 0.610919 0.099893
O O5 0.750000 0.602978 0.000000
O O6 0.116816 0.366816 0.625000
O O7 0.148772 0.185306 0.668058
#
# Coordination Sequence:
#
# PCOD8321311 Si02
#       4
#    16  32  32  16
#     4  12  25  46  71 108 142 196 248 306 366 448
#     4  12  27  46  75 108 147 194 248 303 375 450
#     4  12  23  46  74 101 148 192 240 304 369 435
#     4  12  25  46  72 111 148 194 244 306 370 441
#
# _framework density 22.074933000000001
#
# number of rings (size 3 to 8) (size 9 to 14) (size 15 to 20)
#    0.000    0.000    8.333    1.000    0.000    6.667 
#    0.000    0.000    0.000    0.000    0.000    0.000 
#    0.000    0.000    0.000    0.000    0.000    0.000 
#
# Total GULP energy -595170.190840 kJ/mol
# GULP energy per Si atom -12399.378976 kJ/mol
# Density = 2.202469 g / cm^3
# Si number density = 22.074933 Si / 1000 Ang^3
#
#
#
# Elastic Constant Matrix: (Units=GPa)
#
#
# Indices 1 2 3 4 5 6 
#
# 1 147.8778 88.2062 48.0269 0.0000 0.0000 0.0000
# 2 88.2062 147.8778 48.0269 0.0000 0.0000 0.0000
# 3 48.0269 48.0269 74.8090 0.0000 0.0000 0.0000
# 4 0.0000 0.0000 0.0000 29.3499 0.0000 0.0000
# 5 0.0000 0.0000 0.0000 0.0000 29.3499 0.0000
# 6 0.0000 0.0000 0.0000 0.0000 0.0000 52.2702
#
#
#
# Elastic Compliance Matrix: (Units=1/GPa)
#
#
# Indices 1 2 3 4 5 6 
#
# 1 0.011246 -0.005513 -0.003681 0.000000 0.000000 0.000000
# 2 -0.005513 0.011246 -0.003681 0.000000 0.000000 0.000000
# 3 -0.003681 -0.003681 0.018093 0.000000 0.000000 0.000000
# 4 0.000000 0.000000 0.000000 0.034072 0.000000 0.000000
# 5 0.000000 0.000000 0.000000 0.000000 0.034072 0.000000
# 6 0.000000 0.000000 0.000000 0.000000 0.000000 0.019131
#
#
# Mechanical properties :
#
#
# Convention : Reuss Voigt Hill
#
# Bulk Modulus (GPa) = 67.39884 82.12050 74.75967
# Shear Modulus (GPa) = 31.53508 34.61433 33.07471
#
# Velocity S-wave (km/s) = 3.78371 3.96414 3.87498
# Velocity P-wave (km/s) = 7.04888 7.63113 7.34578
#
# Compressibility (1/GPa) = 0.01483705
#
# Stress axis : x y z
#
# Youngs Moduli (GPa) = 88.92153 88.92153 55.26867
#
# Poissons Ratio (x) = 0.49018 0.20343
# Poissons Ratio (y) = 0.49018 0.20343
# Poissons Ratio (z) = 0.32730 0.32730
#
# Static dielectric constant tensor:
#      x y z
#    x 4.175430 0.000000 0.000000 
#    y 0.000000 4.175430 0.000000 
#    z 0.000000 0.000000 3.908690 
# 
# 
# High freq. dielectric constant tensor:
#      x y z
#    x 1.880070 0.000000 0.000000 
#    y 0.000000 1.880070 0.000000 
#    z 0.000000 0.000000 1.868540 
# 
# From -- ./inp_files/9658.got.cif
#   From: 2010.03.12/outbox.cif.g09.slc.cpg/sg142_5_cif.got.tgz:9658.got - 2010.04.03 13:27:16.
