data_PCOD8321438
_publ_section_title
;
Structure prediction by ZEFSAII (Michael W. Deem and Ramdas Pophale) SiO2 
 PCOD8321438
Probable space group: P 31
;
_chemical_formula_sum "Si O2"
_cell_formula_units_Z 15
_cell_length_a 10.950737
_cell_length_b 10.950737
_cell_length_c 6.210549
_cell_angle_alpha 90.000000
_cell_angle_beta 90.000000
_cell_angle_gamma 120.000000
_cell_volume 644.981595
_symmetry_space_group_name_H-M "P 31"
_symmetry_group_IT_number 144
_symmetry_cell_setting 'hexagonal'
loop_
_space_group_symop_operation_xyz
x,y,z
-y,x-y,1/3+z
-x+y,-x,2/3+z
loop_
_atom_site_type_symbol
_atom_site_label
_atom_site_fract_x
_atom_site_fract_y
_atom_site_fract_z
Si Si1 0.740867 0.146259 0.350090
Si Si2 0.241649 0.093165 0.637268
Si Si3 0.312756 0.776118 0.113596
Si Si4 0.943946 0.381680 0.649618
Si Si5 0.762559 0.921881 0.621158
O O1 0.876804 0.285047 0.439748
O O2 0.600882 0.158146 0.380697
O O3 0.714839 0.011843 0.483448
O O4 0.769143 0.125769 0.101225
O O5 0.329297 0.035858 0.505448
O O6 0.149880 0.134931 0.482785
O O7 0.134901 0.978820 0.806619
O O8 0.236697 0.628657 0.239061
O O9 0.423345 0.904226 0.264315
O O10 0.204535 0.827066 0.051837
#
# Coordination Sequence:
#
# PCOD8321438 Si02
#       5
#     3   3   3   3   3
#     4  11  26  46  74 104 151 190 246 300 364 443
#     4  11  27  49  74 108 149 192 254 295 374 437
#     4  12  27  47  78 111 148 192 247 311 370 440
#     4  11  27  46  73 111 142 199 239 305 367 440
#     4  11  27  48  73 112 146 199 242 311 365 438
#
# _framework density 23.25648
#
# number of rings (size 3 to 8) (size 9 to 14) (size 15 to 20)
#    0.000    0.800    2.000    2.400   14.000    3.200 
#    0.000    0.000    0.000    0.000    0.000    0.000 
#    0.000    0.000    0.000    0.000    0.000    0.000 
#
# Total GULP energy -186065.535858 kJ/mol
# GULP energy per Si atom -12404.369057 kJ/mol
# Density = 2.320355 g / cm^3
# Si number density = 23.256480 Si / 1000 Ang^3
#
#
#
# Elastic Constant Matrix: (Units=GPa)
#
#
# Indices 1 2 3 4 5 6 
#
# 1 108.8104 55.0487 57.3080 -2.1642 8.9269 0.0000
# 2 55.0487 108.8104 57.3080 2.1642 -8.9269 0.0000
# 3 57.3080 57.3080 138.9437 0.0000 0.0000 0.0000
# 4 -2.1642 2.1642 0.0000 28.2981 0.0000 -8.9269
# 5 8.9269 -8.9269 0.0000 0.0000 28.2981 -2.1642
# 6 0.0000 0.0000 0.0000 -8.9269 -2.1642 26.8809
#
#
#
# Elastic Compliance Matrix: (Units=1/GPa)
#
#
# Indices 1 2 3 4 5 6 
#
# 1 0.014749 -0.006172 -0.003538 0.001600 -0.006600 0.000000
# 2 -0.006172 0.014749 -0.003538 -0.001600 0.006600 0.000000
# 3 -0.003538 -0.003538 0.010116 0.000000 0.000000 0.000000
# 4 0.001600 -0.001600 0.000000 0.039747 0.000000 0.013200
# 5 -0.006600 0.006600 0.000000 0.000000 0.039747 0.003200
# 6 0.000000 0.000000 0.000000 0.013200 0.003200 0.041842
#
#
# Mechanical properties :
#
#
# Convention : Reuss Voigt Hill
#
# Bulk Modulus (GPa) = 76.22432 77.32153 76.77292
# Shear Modulus (GPa) = 26.06642 29.15539 27.61091
#
# Velocity S-wave (km/s) = 3.35150 3.54453 3.44937
# Velocity P-wave (km/s) = 6.91545 7.07609 6.99623
#
# Compressibility (1/GPa) = 0.01311917
#
# Stress axis : x y z
#
# Youngs Moduli (GPa) = 67.79999 67.79999 98.85793
#
# Poissons Ratio (x) = 0.41845 0.34974
# Poissons Ratio (y) = 0.41845 0.34974
# Poissons Ratio (z) = 0.23986 0.23986
#
# Static dielectric constant tensor:
#      x y z
#    x 4.279040 0.000000 0.000000 
#    y 0.000000 4.279040 0.000000 
#    z 0.000000 0.000000 4.318920 
# 
# 
# High freq. dielectric constant tensor:
#      x y z
#    x 1.929140 0.000000 0.000000 
#    y 0.000000 1.929140 0.000000 
#    z 0.000000 0.000000 1.925980 
# 
# From -- ./inp_files/68.got.cif
#   From: 2010.03.12/outbox.cif.g09.slc.cpg/sg144_cif.got.tgz:68.got - 2010.04.03 13:34:42.
