data_PCOD8321239
_publ_section_title
;
Structure prediction by ZEFSAII (Michael W. Deem and Ramdas Pophale) SiO2 
 PCOD8321239
Probable space group: I 41/A C D
;
_chemical_formula_sum "Si O2"
_cell_formula_units_Z 112
_cell_length_a 13.813137
_cell_length_b 13.813137
_cell_length_c 25.202922
_cell_angle_alpha 90.000000
_cell_angle_beta 90.000000
_cell_angle_gamma 90.000000
_cell_volume 4808.786921
_symmetry_space_group_name_H-M "I 41/A C D"
_symmetry_group_IT_number 142
_space_group.IT_coordinate_system_code '2'
_symmetry_cell_setting 'tetragonal'
loop_
_space_group_symop_operation_xyz
x,y,z
1/4-y,3/4+x,1/4+z
-x,1/2-y,z
1/4+y,1/4-x,3/4+z
x,-y,1/2-z
1/2-x,y,-z
3/4+y,1/4+x,1/4-z
1/4-y,1/4-x,1/4-z
-x,-y,-z
3/4+y,1/4-x,3/4-z
x,1/2+y,-z
3/4-y,3/4+x,1/4-z
-x,y,1/2+z
1/2+x,-y,z
1/4-y,3/4-x,3/4+z
3/4+y,3/4+x,3/4+z
1/2+x,1/2+y,1/2+z
3/4-y,1/4+x,3/4+z
1/2-x,-y,1/2+z
3/4+y,3/4-x,1/4+z
1/2+x,1/2-y,-z
-x,1/2+y,1/2-z
1/4+y,3/4+x,3/4-z
3/4-y,3/4-x,3/4-z
1/2-x,1/2-y,1/2-z
1/4+y,3/4-x,1/4-z
1/2+x,y,1/2-z
1/4-y,1/4+x,3/4-z
1/2-x,1/2+y,z
x,1/2-y,1/2+z
3/4-y,1/4-x,1/4+z
1/4+y,1/4+x,1/4+z
loop_
_atom_site_type_symbol
_atom_site_label
_atom_site_fract_x
_atom_site_fract_y
_atom_site_fract_z
Si Si1 0.140002 0.969985 0.424677
Si Si2 0.750000 0.884797 0.500000
Si Si3 0.969861 0.101708 0.859863
Si Si4 0.026804 0.361933 0.740783
O O1 0.212120 0.962120 0.375000
O O2 0.118855 0.868058 0.452265
O O3 0.185812 0.048313 0.463061
O O4 0.039874 0.006756 0.397124
O O5 0.826539 0.814977 0.468202
O O6 0.891010 0.172860 0.885575
O O7 0.945880 0.087979 0.797415
O O8 0.000000 0.250000 0.749771
#
# Coordination Sequence:
#
# PCOD8321239 Si02
#       4
#    32  16  32  32
#     4  12  27  43  73 109 151 198 249 311 381 453
#     4  12  24  48  72 104 154 198 248 310 372 460
#     4  11  21  45  74 102 140 197 248 302 380 451
#     4  12  26  49  77 113 149 194 262 316 371 455
#
# _framework density 23.290697999999999
#
# number of rings (size 3 to 8) (size 9 to 14) (size 15 to 20)
#    0.000    0.286    5.714    4.286    0.000    7.429 
#    0.000    0.000    0.000    0.000    0.000    0.000 
#    0.000    0.000    0.000    0.000    0.000    0.000 
#
# Total GULP energy -693968.650839 kJ/mol
# GULP energy per Si atom -12392.297336 kJ/mol
# Density = 2.323769 g / cm^3
# Si number density = 23.290698 Si / 1000 Ang^3
#
#
#
# Elastic Constant Matrix: (Units=GPa)
#
#
# Indices 1 2 3 4 5 6 
#
# 1 112.6316 50.5285 45.9745 0.0000 0.0000 0.0000
# 2 50.5285 112.6316 45.9745 0.0000 0.0000 0.0000
# 3 45.9745 45.9745 124.8845 0.0000 0.0000 0.0000
# 4 0.0000 0.0000 0.0000 30.2202 0.0000 0.0000
# 5 0.0000 0.0000 0.0000 0.0000 30.2202 0.0000
# 6 0.0000 0.0000 0.0000 0.0000 0.0000 30.6324
#
#
#
# Elastic Compliance Matrix: (Units=1/GPa)
#
#
# Indices 1 2 3 4 5 6 
#
# 1 0.011918 -0.004184 -0.002847 0.000000 0.000000 0.000000
# 2 -0.004184 0.011918 -0.002847 0.000000 0.000000 0.000000
# 3 -0.002847 -0.002847 0.010104 0.000000 0.000000 0.000000
# 4 0.000000 0.000000 0.000000 0.033090 0.000000 0.000000
# 5 0.000000 0.000000 0.000000 0.000000 0.033090 0.000000
# 6 0.000000 0.000000 0.000000 0.000000 0.000000 0.032645
#
#
# Mechanical properties :
#
#
# Convention : Reuss Voigt Hill
#
# Bulk Modulus (GPa) = 70.50942 70.56693 70.53818
# Shear Modulus (GPa) = 31.79666 32.05925 31.92796
#
# Velocity S-wave (km/s) = 3.69888 3.71412 3.70651
# Velocity P-wave (km/s) = 6.97005 6.98263 6.97634
#
# Compressibility (1/GPa) = 0.01418250
#
# Stress axis : x y z
#
# Youngs Moduli (GPa) = 83.90816 83.90816 98.97551
#
# Poissons Ratio (x) = 0.35111 0.28178
# Poissons Ratio (y) = 0.35111 0.28178
# Poissons Ratio (z) = 0.23888 0.23888
#
# Static dielectric constant tensor:
#      x y z
#    x 4.466840 0.000000 0.000000 
#    y 0.000000 4.466840 0.000000 
#    z 0.000000 0.000000 4.316910 
# 
# 
# High freq. dielectric constant tensor:
#      x y z
#    x 1.928220 0.000000 0.000000 
#    y 0.000000 1.928220 0.000000 
#    z 0.000000 0.000000 1.923600 
# 
# From -- ./inp_files/9742.got.cif
#   From: 2010.03.12/outbox.cif.g09.slc.cpg/sg142_5_cif.got.tgz:9742.got - 2010.04.03 13:27:16.
