data_PCOD8321219
_publ_section_title
;
Structure prediction by ZEFSAII (Michael W. Deem and Ramdas Pophale) SiO2 
 PCOD8321219
Probable space group: I 41/A C D
;
_chemical_formula_sum "Si O2"
_cell_formula_units_Z 192
_cell_length_a 19.920217
_cell_length_b 19.920217
_cell_length_c 22.906747
_cell_angle_alpha 90.000000
_cell_angle_beta 90.000000
_cell_angle_gamma 90.000000
_cell_volume 9089.741849
_symmetry_space_group_name_H-M "I 41/A C D"
_symmetry_group_IT_number 142
_space_group.IT_coordinate_system_code '2'
_symmetry_cell_setting 'tetragonal'
loop_
_space_group_symop_operation_xyz
x,y,z
1/4-y,3/4+x,1/4+z
-x,1/2-y,z
1/4+y,1/4-x,3/4+z
x,-y,1/2-z
1/2-x,y,-z
3/4+y,1/4+x,1/4-z
1/4-y,1/4-x,1/4-z
-x,-y,-z
3/4+y,1/4-x,3/4-z
x,1/2+y,-z
3/4-y,3/4+x,1/4-z
-x,y,1/2+z
1/2+x,-y,z
1/4-y,3/4-x,3/4+z
3/4+y,3/4+x,3/4+z
1/2+x,1/2+y,1/2+z
3/4-y,1/4+x,3/4+z
1/2-x,-y,1/2+z
3/4+y,3/4-x,1/4+z
1/2+x,1/2-y,-z
-x,1/2+y,1/2-z
1/4+y,3/4+x,3/4-z
3/4-y,3/4-x,3/4-z
1/2-x,1/2-y,1/2-z
1/4+y,3/4-x,1/4-z
1/2+x,y,1/2-z
1/4-y,1/4+x,3/4-z
1/2-x,1/2+y,z
x,1/2-y,1/2+z
3/4-y,1/4-x,1/4+z
1/4+y,1/4+x,1/4+z
loop_
_atom_site_type_symbol
_atom_site_label
_atom_site_fract_x
_atom_site_fract_y
_atom_site_fract_z
Si Si1 0.697840 0.421339 0.743921
Si Si2 0.874522 0.416893 0.464681
Si Si3 0.465517 0.146386 0.627675
Si Si4 0.046757 0.921921 0.249982
Si Si5 0.635083 0.823574 0.575094
Si Si6 0.757098 0.601682 0.119443
O O1 0.715878 0.500000 0.750000
O O2 0.752310 0.377816 0.779381
O O3 0.623464 0.408016 0.769058
O O4 0.698051 0.393565 0.677670
O O5 0.938795 0.398271 0.425915
O O6 0.877490 0.382144 0.527680
O O7 0.805864 0.393100 0.435344
O O8 0.540005 0.168392 0.610090
O O9 0.470092 0.103012 0.685678
O O10 0.999553 0.883748 0.296226
O O11 0.029817 0.000000 0.250000
O O12 0.577172 0.827172 0.625000
O O13 0.704482 0.838083 0.609738
O O14 0.719350 0.530651 0.125000
#
# Coordination Sequence:
#
# PCOD8321219 Si02
#       6
#    32  32  32  32  32  32
#     4  11  21  36  63 108 147 181 219 285 360 414
#     4  12  20  38  68  97 136 181 234 281 339 417
#     4  11  25  45  72  94 128 187 242 285 336 419
#     4  11  24  42  69 103 140 176 228 290 361 415
#     4  11  22  38  69 104 133 178 230 283 341 411
#     4  11  19  32  63 103 139 177 224 278 343 405
#
# _framework density 21.122713000000001
#
# number of rings (size 3 to 8) (size 9 to 14) (size 15 to 20)
#    0.000    0.833    8.333    1.500    0.000    0.000 
#    0.000    0.833    3.667    1.000    0.000    0.000 
#    0.000    0.000    0.000    0.000    0.000    0.000 
#
# Total GULP energy -1190461.446047 kJ/mol
# GULP energy per Si atom -12400.640063 kJ/mol
# Density = 2.107464 g / cm^3
# Si number density = 21.122713 Si / 1000 Ang^3
#
#
#
# Elastic Constant Matrix: (Units=GPa)
#
#
# Indices 1 2 3 4 5 6 
#
# 1 107.4517 39.5892 62.9957 0.0000 0.0000 0.0000
# 2 39.5892 107.4526 62.9951 0.0000 0.0000 0.0000
# 3 62.9957 62.9951 136.9456 0.0000 0.0000 0.0000
# 4 0.0000 0.0000 0.0000 36.3541 0.0000 0.0000
# 5 0.0000 0.0000 0.0000 0.0000 36.3539 0.0000
# 6 0.0000 0.0000 0.0000 0.0000 0.0000 28.6399
#
#
#
# Elastic Compliance Matrix: (Units=1/GPa)
#
#
# Indices 1 2 3 4 5 6 
#
# 1 0.012981 -0.001755 -0.005164 0.000000 0.000000 0.000000
# 2 -0.001755 0.012980 -0.005164 0.000000 0.000000 0.000000
# 3 -0.005164 -0.005164 0.012053 0.000000 0.000000 0.000000
# 4 0.000000 0.000000 0.000000 0.027507 0.000000 0.000000
# 5 0.000000 0.000000 0.000000 0.000000 0.027507 0.000000
# 6 0.000000 0.000000 0.000000 0.000000 0.000000 0.034916
#
#
# Mechanical properties :
#
#
# Convention : Reuss Voigt Hill
#
# Bulk Modulus (GPa) = 72.20926 75.88997 74.04962
# Shear Modulus (GPa) = 31.90292 32.68759 32.29526
#
# Velocity S-wave (km/s) = 3.89055 3.93811 3.91440
# Velocity P-wave (km/s) = 7.37846 7.52890 7.45406
#
# Compressibility (1/GPa) = 0.01384864
#
# Stress axis : x y z
#
# Youngs Moduli (GPa) = 77.03862 77.03993 82.96869
#
# Poissons Ratio (x) = 0.13522 0.42843
# Poissons Ratio (y) = 0.13522 0.42841
# Poissons Ratio (z) = 0.39781 0.39780
#
# Static dielectric constant tensor:
#      x y z
#    x 3.840690 0.000000 0.000000 
#    y 0.000000 3.840690 0.000000 
#    z 0.000000 0.000000 3.925740 
# 
# 
# High freq. dielectric constant tensor:
#      x y z
#    x 1.818220 0.000000 0.000000 
#    y 0.000000 1.818220 0.000000 
#    z 0.000000 0.000000 1.832820 
# 
# From -- ./inp_files/10400.got.cif
#   From: 2010.03.12/outbox.cif.g09.slc.cpg/sg142_6_cif.got.tgz:10400.got - 2010.04.03 13:27:16.
