data_PCOD8321314
_publ_section_title
;
Structure prediction by ZEFSAII (Michael W. Deem and Ramdas Pophale) SiO2 
 PCOD8321314
Probable space group: I 41/A C D
;
_chemical_formula_sum "Si O2"
_cell_formula_units_Z 176
_cell_length_a 16.796035
_cell_length_b 16.796035
_cell_length_c 27.190004
_cell_angle_alpha 90.000000
_cell_angle_beta 90.000000
_cell_angle_gamma 90.000000
_cell_volume 7670.484795
_symmetry_space_group_name_H-M "I 41/A C D"
_symmetry_group_IT_number 142
_space_group.IT_coordinate_system_code '2'
_symmetry_cell_setting 'tetragonal'
loop_
_space_group_symop_operation_xyz
x,y,z
1/4-y,3/4+x,1/4+z
-x,1/2-y,z
1/4+y,1/4-x,3/4+z
x,-y,1/2-z
1/2-x,y,-z
3/4+y,1/4+x,1/4-z
1/4-y,1/4-x,1/4-z
-x,-y,-z
3/4+y,1/4-x,3/4-z
x,1/2+y,-z
3/4-y,3/4+x,1/4-z
-x,y,1/2+z
1/2+x,-y,z
1/4-y,3/4-x,3/4+z
3/4+y,3/4+x,3/4+z
1/2+x,1/2+y,1/2+z
3/4-y,1/4+x,3/4+z
1/2-x,-y,1/2+z
3/4+y,3/4-x,1/4+z
1/2+x,1/2-y,-z
-x,1/2+y,1/2-z
1/4+y,3/4+x,3/4-z
3/4-y,3/4-x,3/4-z
1/2-x,1/2-y,1/2-z
1/4+y,3/4-x,1/4-z
1/2+x,y,1/2-z
1/4-y,1/4+x,3/4-z
1/2-x,1/2+y,z
x,1/2-y,1/2+z
3/4-y,1/4-x,1/4+z
1/4+y,1/4+x,1/4+z
loop_
_atom_site_type_symbol
_atom_site_label
_atom_site_fract_x
_atom_site_fract_y
_atom_site_fract_z
Si Si1 0.182696 0.161631 0.538142
Si Si2 0.316336 0.933665 0.625000
Si Si3 0.981085 0.072335 0.035325
Si Si4 0.036994 0.526322 0.125366
Si Si5 0.406288 0.117249 0.775903
Si Si6 0.879019 0.415717 0.331921
O O1 0.250000 0.136707 0.500000
O O2 0.110713 0.099290 0.532737
O O3 0.225269 0.153393 0.590732
O O4 0.152502 0.251655 0.531714
O O5 0.346611 0.893502 0.574523
O O6 0.222319 0.920275 0.619028
O O7 0.037191 0.146634 0.020751
O O8 0.002538 0.039289 0.089612
O O9 0.000000 0.000000 0.000000
O O10 0.078914 0.595973 0.094402
O O11 0.972223 0.572840 0.157691
O O12 0.370999 0.072172 0.727283
#
# Coordination Sequence:
#
# PCOD8321314 Si02
#       6
#    32  16  32  32  32  32
#     4  12  26  47  74 109 147 197 254 313 377 454
#     4  12  24  44  81 110 144 195 254 318 378 442
#     4  12  27  47  73 111 149 193 254 310 379 453
#     4  12  27  49  70 108 152 196 253 311 381 456
#     4  12  23  51  78 107 151 198 253 312 377 462
#     4  12  27  46  75 108 153 200 253 312 388 451
#
# _framework density 22.945094999999998
#
# number of rings (size 3 to 8) (size 9 to 14) (size 15 to 20)
#    0.000    0.000    7.273    1.636    5.091    0.364 
#    3.273    2.727    0.000    0.000    0.000    0.000 
#    0.000    0.000    0.000    0.000    0.000    0.000 
#
# Total GULP energy -1090542.010324 kJ/mol
# GULP energy per Si atom -12392.522845 kJ/mol
# Density = 2.289287 g / cm^3
# Si number density = 22.945095 Si / 1000 Ang^3
#
#
#
# Elastic Constant Matrix: (Units=GPa)
#
#
# Indices 1 2 3 4 5 6 
#
# 1 89.2051 50.1838 43.5820 0.0000 0.0000 0.0000
# 2 50.1838 89.2048 43.5810 0.0000 0.0000 0.0000
# 3 43.5820 43.5810 175.6417 0.0000 0.0000 0.0000
# 4 0.0000 0.0000 0.0000 34.6386 0.0000 0.0000
# 5 0.0000 0.0000 0.0000 0.0000 34.6384 0.0000
# 6 0.0000 0.0000 0.0000 0.0000 0.0000 54.8243
#
#
#
# Elastic Compliance Matrix: (Units=1/GPa)
#
#
# Indices 1 2 3 4 5 6 
#
# 1 0.017059 -0.008568 -0.002107 0.000000 0.000000 0.000000
# 2 -0.008568 0.017059 -0.002107 0.000000 0.000000 0.000000
# 3 -0.002107 -0.002107 0.006739 0.000000 0.000000 0.000000
# 4 0.000000 0.000000 0.000000 0.028870 0.000000 0.000000
# 5 0.000000 0.000000 0.000000 0.000000 0.028870 0.000000
# 6 0.000000 0.000000 0.000000 0.000000 0.000000 0.018240
#
#
# Mechanical properties :
#
#
# Convention : Reuss Voigt Hill
#
# Bulk Modulus (GPa) = 65.38337 69.86056 67.62197
# Shear Modulus (GPa) = 33.89857 39.26725 36.58291
#
# Velocity S-wave (km/s) = 3.84784 4.14134 3.99728
# Velocity P-wave (km/s) = 6.94972 7.30620 7.13019
#
# Compressibility (1/GPa) = 0.01529441
#
# Stress axis : x y z
#
# Youngs Moduli (GPa) = 58.61851 58.61864 148.38924
#
# Poissons Ratio (x) = 0.50223 0.31267
# Poissons Ratio (y) = 0.50222 0.31265
# Poissons Ratio (z) = 0.12352 0.12351
#
# Static dielectric constant tensor:
#      x y z
#    x 4.184310 0.000000 0.000000 
#    y 0.000000 4.184230 0.000000 
#    z 0.000000 0.000000 6.617130 
# 
# 
# High freq. dielectric constant tensor:
#      x y z
#    x 1.906090 0.000000 0.000000 
#    y 0.000000 1.906090 0.000000 
#    z 0.000000 0.000000 1.927160 
# 
# From -- ./inp_files/12515.got.cif
#   From: 2010.03.12/outbox.cif.g09.slc.cpg/sg142_7_cif.got.tgz:12515.got - 2010.04.03 13:27:16.
