data_PCOD8321180
_publ_section_title
;
Structure prediction by ZEFSAII (Michael W. Deem and Ramdas Pophale) SiO2 
 PCOD8321180
Probable space group: I 41/A C D
;
_chemical_formula_sum "Si O2"
_cell_formula_units_Z 192
_cell_length_a 19.679741
_cell_length_b 19.679741
_cell_length_c 22.246870
_cell_angle_alpha 90.000000
_cell_angle_beta 90.000000
_cell_angle_gamma 90.000000
_cell_volume 8616.039355
_symmetry_space_group_name_H-M "I 41/A C D"
_symmetry_group_IT_number 142
_space_group.IT_coordinate_system_code '2'
_symmetry_cell_setting 'tetragonal'
loop_
_space_group_symop_operation_xyz
x,y,z
1/4-y,3/4+x,1/4+z
-x,1/2-y,z
1/4+y,1/4-x,3/4+z
x,-y,1/2-z
1/2-x,y,-z
3/4+y,1/4+x,1/4-z
1/4-y,1/4-x,1/4-z
-x,-y,-z
3/4+y,1/4-x,3/4-z
x,1/2+y,-z
3/4-y,3/4+x,1/4-z
-x,y,1/2+z
1/2+x,-y,z
1/4-y,3/4-x,3/4+z
3/4+y,3/4+x,3/4+z
1/2+x,1/2+y,1/2+z
3/4-y,1/4+x,3/4+z
1/2-x,-y,1/2+z
3/4+y,3/4-x,1/4+z
1/2+x,1/2-y,-z
-x,1/2+y,1/2-z
1/4+y,3/4+x,3/4-z
3/4-y,3/4-x,3/4-z
1/2-x,1/2-y,1/2-z
1/4+y,3/4-x,1/4-z
1/2+x,y,1/2-z
1/4-y,1/4+x,3/4-z
1/2-x,1/2+y,z
x,1/2-y,1/2+z
3/4-y,1/4-x,1/4+z
1/4+y,1/4+x,1/4+z
loop_
_atom_site_type_symbol
_atom_site_label
_atom_site_fract_x
_atom_site_fract_y
_atom_site_fract_z
Si Si1 0.673506 0.349713 0.629880
Si Si2 0.140933 0.635913 0.246123
Si Si3 0.911693 0.121491 0.688380
Si Si4 0.716013 0.423049 0.742236
Si Si5 0.925447 0.728735 0.210667
Si Si6 0.291483 0.294679 0.939676
O O1 0.649037 0.379129 0.567534
O O2 0.680454 0.411052 0.677661
O O3 0.617457 0.296080 0.653134
O O4 0.746304 0.313640 0.618559
O O5 0.221403 0.629309 0.256570
O O6 0.118635 0.713824 0.243682
O O7 0.098604 0.602843 0.301418
O O8 0.909569 0.159569 0.625000
O O9 0.837783 0.091403 0.704821
O O10 0.937916 0.170501 0.740611
O O11 0.967091 0.062917 0.680820
O O12 0.742540 0.500000 0.750000
O O13 0.000000 0.750000 0.187822
O O14 0.250000 0.299298 0.000000
#
# Coordination Sequence:
#
# PCOD8321180 Si02
#       6
#    32  32  32  32  32  32
#     4  10  26  42  72 101 137 181 228 290 346 404
#     4  11  25  43  72 101 139 179 236 287 341 418
#     4  11  26  43  68 100 143 184 224 286 349 415
#     4  11  26  45  69 103 140 179 235 284 349 422
#     4  11  25  46  68 104 136 180 241 281 342 412
#     4  10  22  46  67  99 138 183 226 279 347 417
#
# _framework density 22.284020999999999
#
# number of rings (size 3 to 8) (size 9 to 14) (size 15 to 20)
#    0.000    1.333    1.667    2.000    9.333    5.000 
#    0.000    0.000    0.000    0.000    0.000    0.000 
#    0.000    0.000    0.000    0.000    0.000    0.000 
#
# Total GULP energy -1190625.903526 kJ/mol
# GULP energy per Si atom -12402.353162 kJ/mol
# Density = 2.223330 g / cm^3
# Si number density = 22.284021 Si / 1000 Ang^3
#
#
#
# Elastic Constant Matrix: (Units=GPa)
#
#
# Indices 1 2 3 4 5 6 
#
# 1 105.5811 22.5046 19.1637 0.0000 0.0000 0.0000
# 2 22.5046 105.5811 19.1637 0.0000 0.0000 0.0000
# 3 19.1637 19.1637 92.9236 0.0000 0.0000 0.0000
# 4 0.0000 0.0000 0.0000 40.6577 0.0000 0.0000
# 5 0.0000 0.0000 0.0000 0.0000 40.6577 0.0000
# 6 0.0000 0.0000 0.0000 0.0000 0.0000 41.5606
#
#
#
# Elastic Compliance Matrix: (Units=1/GPa)
#
#
# Indices 1 2 3 4 5 6 
#
# 1 0.010179 -0.001858 -0.001716 0.000000 0.000000 0.000000
# 2 -0.001858 0.010179 -0.001716 0.000000 0.000000 0.000000
# 3 -0.001716 -0.001716 0.011469 0.000000 0.000000 0.000000
# 4 0.000000 0.000000 0.000000 0.024596 0.000000 0.000000
# 5 0.000000 0.000000 0.000000 0.000000 0.024596 0.000000
# 6 0.000000 0.000000 0.000000 0.000000 0.000000 0.024061
#
#
# Mechanical properties :
#
#
# Convention : Reuss Voigt Hill
#
# Bulk Modulus (GPa) = 47.06581 47.30552 47.18567
# Shear Modulus (GPa) = 40.73578 40.79211 40.76394
#
# Velocity S-wave (km/s) = 4.28018 4.28314 4.28166
# Velocity P-wave (km/s) = 6.75228 6.76276 6.75752
#
# Compressibility (1/GPa) = 0.02124684
#
# Stress axis : x y z
#
# Youngs Moduli (GPa) = 98.24216 98.24216 87.18924
#
# Poissons Ratio (x) = 0.18255 0.14962
# Poissons Ratio (y) = 0.18255 0.14962
# Poissons Ratio (z) = 0.16858 0.16858
#
# Static dielectric constant tensor:
#      x y z
#    x 4.714180 0.000000 0.000000 
#    y 0.000000 4.714180 0.000000 
#    z 0.000000 0.000000 3.964830 
# 
# 
# High freq. dielectric constant tensor:
#      x y z
#    x 1.881910 0.000000 0.000000 
#    y 0.000000 1.881910 0.000000 
#    z 0.000000 0.000000 1.880750 
# 
# From -- ./inp_files/10402.got.cif
#   From: 2010.03.12/outbox.cif.g09.slc.cpg/sg142_6_cif.got.tgz:10402.got - 2010.04.03 13:27:16.
