data_PCOD8321451
_publ_section_title
;
Structure prediction by ZEFSAII (Michael W. Deem and Ramdas Pophale) SiO2 
 PCOD8321451
Probable space group: P 31
;
_chemical_formula_sum "Si O2"
_cell_formula_units_Z 21
_cell_length_a 9.365116
_cell_length_b 9.365116
_cell_length_c 10.952132
_cell_angle_alpha 90.000000
_cell_angle_beta 90.000000
_cell_angle_gamma 120.000000
_cell_volume 831.870308
_symmetry_space_group_name_H-M "P 31"
_symmetry_group_IT_number 144
_symmetry_cell_setting 'hexagonal'
loop_
_space_group_symop_operation_xyz
x,y,z
-y,x-y,1/3+z
-x+y,-x,2/3+z
loop_
_atom_site_type_symbol
_atom_site_label
_atom_site_fract_x
_atom_site_fract_y
_atom_site_fract_z
Si Si1 0.471636 0.777878 0.392890
Si Si2 0.771432 0.245544 0.226306
Si Si3 0.280846 0.425678 0.330884
Si Si4 0.413656 0.247471 0.493416
Si Si5 0.208155 0.008087 0.693240
Si Si6 0.220154 0.060549 0.081238
Si Si7 0.423230 0.044732 0.285006
O O1 0.322491 0.590090 0.406153
O O2 0.532763 0.865910 0.523419
O O3 0.624478 0.774920 0.324917
O O4 0.395287 0.863612 0.309435
O O5 0.815919 0.435402 0.242537
O O6 0.783850 0.161775 0.353071
O O7 0.578128 0.140299 0.193012
O O8 0.884203 0.225337 0.127256
O O9 0.378951 0.347077 0.391422
O O10 0.088973 0.293038 0.332478
O O11 0.463890 0.134537 0.415854
O O12 0.252984 0.128493 0.575548
O O13 0.021362 0.943868 0.741617
O O14 0.261980 0.035392 0.220763
#
# Coordination Sequence:
#
# PCOD8321451 Si02
#       7
#     3   3   3   3   3   3   3
#     4  12  25  48  76 113 161 213 268 342 409 489
#     4  12  26  48  78 111 163 212 273 339 411 490
#     4  12  26  48  76 111 160 212 263 337 407 494
#     4  12  27  45  78 114 155 211 275 325 418 488
#     4  12  26  49  76 115 164 213 267 350 405 489
#     4  12  27  48  75 116 158 212 272 339 415 490
#     4  12  27  46  81 114 155 215 278 330 413 500
#
# _framework density 25.244318
#
# number of rings (size 3 to 8) (size 9 to 14) (size 15 to 20)
#    0.000    0.000    4.286    5.143    4.000    0.000 
#    0.000    0.000    0.000    0.000    0.000    0.000 
#    0.000    0.000    0.000    0.000    0.000    0.000 
#
# Total GULP energy -260395.810959 kJ/mol
# GULP energy per Si atom -12399.800522 kJ/mol
# Density = 2.518686 g / cm^3
# Si number density = 25.244318 Si / 1000 Ang^3
#
#
#
# Elastic Constant Matrix: (Units=GPa)
#
#
# Indices 1 2 3 4 5 6 
#
# 1 143.1351 69.0041 47.2838 4.0610 -3.8724 0.0000
# 2 69.0041 143.1351 47.2838 -4.0610 3.8724 0.0000
# 3 47.2838 47.2838 102.5351 0.0000 0.0000 0.0000
# 4 4.0610 -4.0610 0.0000 32.1859 0.0000 3.8724
# 5 -3.8724 3.8724 0.0000 0.0000 32.1859 4.0610
# 6 0.0000 0.0000 0.0000 3.8724 4.0610 37.0655
#
#
#
# Elastic Compliance Matrix: (Units=1/GPa)
#
#
# Indices 1 2 3 4 5 6 
#
# 1 0.009895 -0.003961 -0.002736 -0.001748 0.001667 0.000000
# 2 -0.003961 0.009895 -0.002736 0.001748 -0.001667 0.000000
# 3 -0.002736 -0.002736 0.012276 0.000000 0.000000 0.000000
# 4 -0.001748 0.001748 0.000000 0.031912 0.000000 -0.003334
# 5 0.001667 -0.001667 0.000000 0.000000 0.031912 -0.003496
# 6 0.000000 0.000000 0.000000 -0.003334 -0.003496 0.027711
#
#
# Mechanical properties :
#
#
# Convention : Reuss Voigt Hill
#
# Bulk Modulus (GPa) = 75.76567 79.54985 77.65776
# Shear Modulus (GPa) = 34.04462 35.30301 34.67381
#
# Velocity S-wave (km/s) = 3.67632 3.74365 3.71014
# Velocity P-wave (km/s) = 6.93531 7.08992 7.01304
#
# Compressibility (1/GPa) = 0.01319859
#
# Stress axis : x y z
#
# Youngs Moduli (GPa) = 101.06619 101.06619 81.45687
#
# Poissons Ratio (x) = 0.40031 0.22289
# Poissons Ratio (y) = 0.40031 0.22289
# Poissons Ratio (z) = 0.27655 0.27655
#
# Static dielectric constant tensor:
#      x y z
#    x 4.764070 0.000000 0.000000 
#    y 0.000000 4.764070 0.000000 
#    z 0.000000 0.000000 4.416060 
# 
# 
# High freq. dielectric constant tensor:
#      x y z
#    x 2.015510 0.000000 0.000000 
#    y 0.000000 2.015510 0.000000 
#    z 0.000000 0.000000 2.000390 
# 
# From -- ./inp_files/600.got.cif
#   From: 2010.03.12/outbox.cif.g09.slc.cpg/sg144_cif.got.tgz:600.got - 2010.04.03 13:34:42.
