data_PCOD8321708
_publ_section_title
;
Structure prediction by ZEFSAII (Michael W. Deem and Ramdas Pophale) SiO2 
 PCOD8321708
Probable space group: R -3
;
_chemical_formula_sum "Si O2"
_cell_formula_units_Z 72
_cell_length_a 21.723082
_cell_length_b 21.723082
_cell_length_c 8.342414
_cell_angle_alpha 90.000000
_cell_angle_beta 90.000000
_cell_angle_gamma 120.000000
_cell_volume 3409.300272
_symmetry_space_group_name_H-M "R -3"
_symmetry_group_IT_number 148
_symmetry_cell_setting 'hexagonal'
loop_
_space_group_symop_operation_xyz
x,y,z
-y,x-y,z
-x+y,-x,z
-x,-y,-z
y,-x+y,-z
x-y,x,-z
2/3+x,1/3+y,1/3+z
2/3-y,1/3+x-y,1/3+z
2/3-x+y,1/3-x,1/3+z
2/3-x,1/3-y,1/3-z
2/3+y,1/3-x+y,1/3-z
2/3+x-y,1/3+x,1/3-z
1/3+x,2/3+y,2/3+z
1/3-y,2/3+x-y,2/3+z
1/3-x+y,2/3-x,2/3+z
1/3-x,2/3-y,2/3-z
1/3+y,2/3-x+y,2/3-z
1/3+x-y,2/3+x,2/3-z
loop_
_atom_site_type_symbol
_atom_site_label
_atom_site_fract_x
_atom_site_fract_y
_atom_site_fract_z
Si Si1 0.496207 0.577114 0.153269
Si Si2 0.462929 0.080255 0.662422
Si Si3 0.249785 0.085894 0.815864
Si Si4 0.872466 0.291106 0.348366
O O1 0.452293 0.542269 0.317901
O O2 0.541335 0.662412 0.142606
O O3 0.554163 0.553260 0.125541
O O4 0.436555 0.547702 0.013108
O O5 0.454968 0.108174 0.492679
O O6 0.402716 0.998190 0.679162
O O7 0.236548 0.127263 0.962512
O O8 0.209664 0.001463 0.854295
#
# Coordination Sequence:
#
# PCOD8321708 Si02
#       4
#    18  18  18  18
#     4   9  19  34  50  73 104 136 168 212 258 301
#     4  10  20  33  52  76 105 136 171 209 254 305
#     4   9  19  33  49  73 103 134 170 211 256 303
#     4  10  20  33  51  76 104 136 173 209 252 305
#
# _framework density 21.118704000000001
#
# number of rings (size 3 to 8) (size 9 to 14) (size 15 to 20)
#    0.000    2.500    0.000    3.000    0.000    8.000 
#    0.000    0.000    0.000    1.000    0.000    0.000 
#    0.000    0.000    0.000    0.000    0.000    0.000 
#
# Total GULP energy -297372.545580 kJ/mol
# GULP energy per Si atom -12390.522732 kJ/mol
# Density = 2.107064 g / cm^3
# Si number density = 21.118704 Si / 1000 Ang^3
#
#
#
# Elastic Constant Matrix: (Units=GPa)
#
#
# Indices 1 2 3 4 5 6 
#
# 1 78.1022 36.9601 0.1972 4.3045 -1.3269 0.0216
# 2 36.9601 78.0597 0.1609 -4.2904 1.3679 0.0059
# 3 0.1972 0.1609 11.5067 0.0204 0.0420 0.0335
# 4 4.3045 -4.2904 0.0204 34.4149 0.0107 1.3626
# 5 -1.3269 1.3679 0.0420 0.0107 34.4342 4.3091
# 6 0.0216 0.0059 0.0335 1.3626 4.3091 20.5748
#
#
#
# Elastic Compliance Matrix: (Units=1/GPa)
#
#
# Indices 1 2 3 4 5 6 
#
# 1 0.016860 -0.008172 -0.000173 -0.003127 0.000977 -0.000013
# 2 -0.008172 0.016869 -0.000098 0.003125 -0.000986 0.000004
# 3 -0.000173 -0.000098 0.086911 -0.000037 -0.000094 -0.000119
# 4 -0.003127 0.003125 -0.000037 0.029916 -0.000006 -0.001978
# 5 0.000977 -0.000986 -0.000094 -0.000006 0.029902 -0.006263
# 6 -0.000013 0.000004 -0.000119 -0.001978 -0.006263 0.050046
#
#
# Mechanical properties :
#
#
# Convention : Reuss Voigt Hill
#
# Bulk Modulus (GPa) = 9.63803 26.92278 18.28040
# Shear Modulus (GPa) = 17.73217 26.57481 22.15349
#
# Velocity S-wave (km/s) = 2.90080 3.55118 3.24234
# Velocity P-wave (km/s) = 3.97406 5.43971 4.76359
#
# Compressibility (1/GPa) = 0.10375569
#
# Stress axis : x y z
#
# Youngs Moduli (GPa) = 59.31119 59.27975 11.50607
#
# Poissons Ratio (x) = 0.48442 0.00199
# Poissons Ratio (y) = 0.48467 0.00112
# Poissons Ratio (z) = 0.01024 0.00580
#
# Static dielectric constant tensor:
#      x y z
#    x 3.769990 0.000000 -0.000030 
#    y 0.000000 3.770010 -0.000010 
#    z -0.000030 -0.000010 3.807860 
# 
# 
# High freq. dielectric constant tensor:
#      x y z
#    x 1.810410 0.000000 0.000000 
#    y 0.000000 1.810420 0.000000 
#    z 0.000000 0.000000 1.830830 
# 
# From -- ./inp_files/809.got.cif
#   From: 2010.03.12/outbox.cif.g09.slc.cpg/sg148_1_cif.got.tgz:809.got - 2010.04.03 13:38:46.
