data_PCOD8321772
_publ_section_title
;
Structure prediction by ZEFSAII (Michael W. Deem and Ramdas Pophale) SiO2 
 PCOD8321772
Probable space group: R -3
;
_chemical_formula_sum "Si O2"
_cell_formula_units_Z 72
_cell_length_a 14.672948
_cell_length_b 14.672948
_cell_length_c 18.091563
_cell_angle_alpha 90.000000
_cell_angle_beta 90.000000
_cell_angle_gamma 120.000000
_cell_volume 3373.195229
_symmetry_space_group_name_H-M "R -3"
_symmetry_group_IT_number 148
_symmetry_cell_setting 'hexagonal'
loop_
_space_group_symop_operation_xyz
x,y,z
-y,x-y,z
-x+y,-x,z
-x,-y,-z
y,-x+y,-z
x-y,x,-z
2/3+x,1/3+y,1/3+z
2/3-y,1/3+x-y,1/3+z
2/3-x+y,1/3-x,1/3+z
2/3-x,1/3-y,1/3-z
2/3+y,1/3-x+y,1/3-z
2/3+x-y,1/3+x,1/3-z
1/3+x,2/3+y,2/3+z
1/3-y,2/3+x-y,2/3+z
1/3-x+y,2/3-x,2/3+z
1/3-x,2/3-y,2/3-z
1/3+y,2/3-x+y,2/3-z
1/3+x-y,2/3+x,2/3-z
loop_
_atom_site_type_symbol
_atom_site_label
_atom_site_fract_x
_atom_site_fract_y
_atom_site_fract_z
Si Si1 0.658704 0.529019 0.808338
Si Si2 0.282377 0.139020 0.332644
Si Si3 0.679287 0.455600 0.109552
Si Si4 0.261985 0.265379 0.102754
O O1 0.767267 0.527939 0.808818
O O2 0.622302 0.517031 0.724143
O O3 0.672902 0.636403 0.842626
O O4 0.196530 0.164489 0.295378
O O5 0.372150 0.243186 0.372256
O O6 0.328183 0.103367 0.265906
O O7 0.569099 0.345422 0.106808
O O8 0.677124 0.509600 0.185491
#
# Coordination Sequence:
#
# PCOD8321772 Si02
#       4
#    18  18  18  18
#     4  10  24  40  66  99 138 178 233 294 338 417
#     4  11  25  42  72  97 142 185 232 283 361 407
#     4  10  26  43  72  98 140 181 235 286 344 417
#     4  11  25  43  68 103 137 184 231 294 343 419
#
# _framework density 21.344747999999999
#
# number of rings (size 3 to 8) (size 9 to 14) (size 15 to 20)
#    0.500    1.000    0.000    2.500   17.500    1.000 
#    0.000    1.250    0.000    0.000    0.000    0.000 
#    0.000    0.000    0.000    0.000    0.000    0.000 
#
# Total GULP energy -297580.479382 kJ/mol
# GULP energy per Si atom -12399.186641 kJ/mol
# Density = 2.129617 g / cm^3
# Si number density = 21.344748 Si / 1000 Ang^3
#
#
#
# Elastic Constant Matrix: (Units=GPa)
#
#
# Indices 1 2 3 4 5 6 
#
# 1 83.5412 29.3447 46.1917 5.1548 11.0066 0.0000
# 2 29.3447 83.5412 46.1917 -5.1548 -11.0066 0.0000
# 3 46.1917 46.1917 119.9451 0.0000 0.0000 0.0000
# 4 5.1548 -5.1548 0.0000 47.5061 0.0000 -11.0066
# 5 11.0066 -11.0066 0.0000 0.0000 47.5061 5.1548
# 6 0.0000 0.0000 0.0000 -11.0066 5.1548 27.0983
#
#
#
# Elastic Compliance Matrix: (Units=1/GPa)
#
#
# Indices 1 2 3 4 5 6 
#
# 1 0.016889 -0.003954 -0.004981 -0.002262 -0.004829 0.000000
# 2 -0.003954 0.016889 -0.004981 0.002262 0.004829 0.000000
# 3 -0.004981 -0.004981 0.012174 0.000000 0.000000 0.000000
# 4 -0.002262 0.002262 0.000000 0.023778 0.000000 0.009658
# 5 -0.004829 0.004829 0.000000 0.000000 0.023778 -0.004523
# 6 0.000000 0.000000 0.000000 0.009658 -0.004523 0.041686
#
#
# Mechanical properties :
#
#
# Convention : Reuss Voigt Hill
#
# Bulk Modulus (GPa) = 55.19197 58.94264 57.06730
# Shear Modulus (GPa) = 29.57389 35.44206 32.50797
#
# Velocity S-wave (km/s) = 3.72632 4.07929 3.90679
# Velocity P-wave (km/s) = 6.66539 7.06131 6.86620
#
# Compressibility (1/GPa) = 0.01811858
#
# Stress axis : x y z
#
# Youngs Moduli (GPa) = 59.20975 59.20975 82.14283
#
# Poissons Ratio (x) = 0.23411 0.40919
# Poissons Ratio (y) = 0.23411 0.40919
# Poissons Ratio (z) = 0.29495 0.29495
#
# Static dielectric constant tensor:
#      x y z
#    x 3.850690 0.000000 0.000000 
#    y 0.000000 3.850690 0.000000 
#    z 0.000000 0.000000 3.805510 
# 
# 
# High freq. dielectric constant tensor:
#      x y z
#    x 1.838250 0.000000 0.000000 
#    y 0.000000 1.838250 0.000000 
#    z 0.000000 0.000000 1.846030 
# 
# From -- ./inp_files/2528.got.cif
#   From: 2010.03.12/outbox.cif.g09.slc.cpg/sg148_2_cif.got.tgz:2528.got - 2010.04.03 13:38:46.
