data_PCOD8321064
_publ_section_title
;
Structure prediction by ZEFSAII (Michael W. Deem and Ramdas Pophale) SiO2 
 PCOD8321064
Probable space group: I 41/A C D
;
_chemical_formula_sum "Si O2"
_cell_formula_units_Z 160
_cell_length_a 23.552582
_cell_length_b 23.552582
_cell_length_c 14.343993
_cell_angle_alpha 90.000000
_cell_angle_beta 90.000000
_cell_angle_gamma 90.000000
_cell_volume 7956.958878
_symmetry_space_group_name_H-M "I 41/A C D"
_symmetry_group_IT_number 142
_space_group.IT_coordinate_system_code '2'
_symmetry_cell_setting 'tetragonal'
loop_
_space_group_symop_operation_xyz
x,y,z
1/4-y,3/4+x,1/4+z
-x,1/2-y,z
1/4+y,1/4-x,3/4+z
x,-y,1/2-z
1/2-x,y,-z
3/4+y,1/4+x,1/4-z
1/4-y,1/4-x,1/4-z
-x,-y,-z
3/4+y,1/4-x,3/4-z
x,1/2+y,-z
3/4-y,3/4+x,1/4-z
-x,y,1/2+z
1/2+x,-y,z
1/4-y,3/4-x,3/4+z
3/4+y,3/4+x,3/4+z
1/2+x,1/2+y,1/2+z
3/4-y,1/4+x,3/4+z
1/2-x,-y,1/2+z
3/4+y,3/4-x,1/4+z
1/2+x,1/2-y,-z
-x,1/2+y,1/2-z
1/4+y,3/4+x,3/4-z
3/4-y,3/4-x,3/4-z
1/2-x,1/2-y,1/2-z
1/4+y,3/4-x,1/4-z
1/2+x,y,1/2-z
1/4-y,1/4+x,3/4-z
1/2-x,1/2+y,z
x,1/2-y,1/2+z
3/4-y,1/4-x,1/4+z
1/4+y,1/4+x,1/4+z
loop_
_atom_site_type_symbol
_atom_site_label
_atom_site_fract_x
_atom_site_fract_y
_atom_site_fract_z
Si Si1 0.225985 0.550264 0.190717
Si Si2 0.562137 0.616189 0.683940
Si Si3 0.906796 0.736841 0.619766
Si Si4 0.825785 0.605718 0.210328
Si Si5 0.314072 0.229539 0.752746
O O1 0.195960 0.500000 0.250000
O O2 0.272788 0.522788 0.125000
O O3 0.178289 0.585976 0.135888
O O4 0.262300 0.592126 0.254790
O O5 0.576262 0.673739 0.625000
O O6 0.520093 0.627300 0.769267
O O7 0.622458 0.589815 0.719687
O O8 0.530759 0.574104 0.612774
O O9 0.936357 0.798006 0.620194
O O10 0.860033 0.728898 0.702763
O O11 0.824332 0.672644 0.192274
O O12 0.250000 0.250000 0.750000
#
# Coordination Sequence:
#
# PCOD8321064 Si02
#       5
#    32  32  32  32  32
#     4   9  18  34  59  89 120 162 206 254 313 388
#     4  10  21  44  63  92 126 166 218 265 325 394
#     4  11  23  43  69  94 128 172 219 270 326 407
#     4  10  20  38  62  91 126 168 216 258 324 393
#     4  11  25  42  61  98 129 165 222 275 331 383
#
# _framework density 20.108184000000001
#
# number of rings (size 3 to 8) (size 9 to 14) (size 15 to 20)
#    0.000    1.800    4.000    1.800    2.800    1.600 
#    7.200    0.000    4.400    0.000    0.000    0.000 
#    0.000    0.000    0.000    0.000    0.000    0.000 
#
# Total GULP energy -991398.869875 kJ/mol
# GULP energy per Si atom -12392.485873 kJ/mol
# Density = 2.006242 g / cm^3
# Si number density = 20.108184 Si / 1000 Ang^3
#
#
#
# Elastic Constant Matrix: (Units=GPa)
#
#
# Indices 1 2 3 4 5 6 
#
# 1 90.6520 43.5470 52.3399 0.0000 0.0000 0.0000
# 2 43.5470 90.6515 52.3401 0.0000 0.0000 0.0000
# 3 52.3399 52.3401 114.9713 0.0000 0.0000 0.0000
# 4 0.0000 0.0000 0.0000 39.5921 0.0000 0.0000
# 5 0.0000 0.0000 0.0000 0.0000 39.5925 0.0000
# 6 0.0000 0.0000 0.0000 0.0000 0.0000 22.9662
#
#
#
# Elastic Compliance Matrix: (Units=1/GPa)
#
#
# Indices 1 2 3 4 5 6 
#
# 1 0.016392 -0.004837 -0.005260 0.000000 0.000000 0.000000
# 2 -0.004837 0.016392 -0.005260 0.000000 0.000000 0.000000
# 3 -0.005260 -0.005260 0.013487 0.000000 0.000000 0.000000
# 4 0.000000 0.000000 0.000000 0.025258 0.000000 0.000000
# 5 0.000000 0.000000 0.000000 0.000000 0.025257 0.000000
# 6 0.000000 0.000000 0.000000 0.000000 0.000000 0.043542
#
#
# Mechanical properties :
#
#
# Convention : Reuss Voigt Hill
#
# Bulk Modulus (GPa) = 64.28457 65.85876 65.07167
# Shear Modulus (GPa) = 28.37210 30.29999 29.33605
#
# Velocity S-wave (km/s) = 3.76037 3.88603 3.82371
# Velocity P-wave (km/s) = 7.13390 7.27724 7.20593
#
# Compressibility (1/GPa) = 0.01555583
#
# Stress axis : x y z
#
# Youngs Moduli (GPa) = 61.00544 61.00477 74.14410
#
# Poissons Ratio (x) = 0.29509 0.39001
# Poissons Ratio (y) = 0.29510 0.39002
# Poissons Ratio (z) = 0.32090 0.32091
#
# Static dielectric constant tensor:
#      x y z
#    x 3.607620 0.000000 0.000000 
#    y 0.000000 3.607630 0.000000 
#    z 0.000000 0.000000 3.943930 
# 
# 
# High freq. dielectric constant tensor:
#      x y z
#    x 1.773540 0.000000 0.000000 
#    y 0.000000 1.773540 0.000000 
#    z 0.000000 0.000000 1.786950 
# 
# From -- ./inp_files/5444.got.cif
#   From: 2010.03.12/outbox.cif.g09.slc.cpg/sg142_3_cif.got.tgz:5444.got - 2010.04.03 13:27:16.
