data_PCOD8321527
_publ_section_title
;
Structure prediction by ZEFSAII (Michael W. Deem and Ramdas Pophale) SiO2 
 PCOD8321527
Probable space group: R 3
;
_chemical_formula_sum "Si O2"
_cell_formula_units_Z 51
_cell_length_a 11.140590
_cell_length_b 11.140590
_cell_length_c 21.803202
_cell_angle_alpha 90.000000
_cell_angle_beta 90.000000
_cell_angle_gamma 120.000000
_cell_volume 2343.512601
_symmetry_space_group_name_H-M "R 3"
_symmetry_group_IT_number 146
_symmetry_cell_setting 'hexagonal'
loop_
_space_group_symop_operation_xyz
x,y,z
-y,x-y,z
-x+y,-x,z
2/3+x,1/3+y,1/3+z
2/3-y,1/3+x-y,1/3+z
2/3-x+y,1/3-x,1/3+z
1/3+x,2/3+y,2/3+z
1/3-y,2/3+x-y,2/3+z
1/3-x+y,2/3-x,2/3+z
loop_
_atom_site_type_symbol
_atom_site_label
_atom_site_fract_x
_atom_site_fract_y
_atom_site_fract_z
Si Si1 0.666668 0.333334 0.330345
Si Si2 0.504390 0.978745 0.514497
Si Si3 0.010861 0.742388 0.600684
Si Si4 0.840850 0.420268 0.753570
Si Si5 0.985363 0.745242 0.052999
Si Si6 0.666668 0.333334 0.185238
Si Si7 0.103782 0.413436 0.213085
O O1 0.611498 0.181945 0.355609
O O2 0.666668 0.333334 0.258145
O O3 0.601569 0.999097 0.572823
O O4 0.413599 0.821073 0.493224
O O5 0.598392 0.055033 0.455687
O O6 0.400739 0.034903 0.532331
O O7 0.037156 0.755180 0.673837
O O8 0.861363 0.731830 0.599708
O O9 0.135876 0.869489 0.564151
O O10 0.744684 0.491221 0.738605
O O11 0.874878 0.422380 0.824845
O O12 0.984902 0.513866 0.718190
#
# Coordination Sequence:
#
# PCOD8321527 Si02
#       7
#     3   9   9   9   9   3   9
#     4  12  24  48  69 102 144 195 226 287 367 426
#     4  12  25  45  70 105 137 186 231 289 347 423
#     4  12  26  46  71 106 137 189 233 289 363 409
#     4  10  21  43  72  94 133 187 229 273 353 413
#     4  12  26  43  72 107 139 181 242 285 351 424
#     4  12  24  48  75  96 150 189 223 287 373 417
#     4  12  22  47  75  94 144 183 234 290 342 426
#
# _framework density 21.762205999999999
#
# number of rings (size 3 to 8) (size 9 to 14) (size 15 to 20)
#    0.353    0.000    7.059    1.412    0.000    2.824 
#    1.059    0.000    0.000    0.000    0.000    0.000 
#    0.000    0.000    0.000    0.000    0.000    0.000 
#
# Total GULP energy -210631.312403 kJ/mol
# GULP energy per Si atom -12390.077200 kJ/mol
# Density = 2.171267 g / cm^3
# Si number density = 21.762206 Si / 1000 Ang^3
#
#
#
# Elastic Constant Matrix: (Units=GPa)
#
#
# Indices 1 2 3 4 5 6 
#
# 1 104.4449 35.4528 17.6027 4.1084 5.5975 0.0002
# 2 35.4528 104.4475 17.6045 -4.1090 -5.5965 0.0001
# 3 17.6027 17.6045 72.9616 0.0005 0.0010 0.0008
# 4 4.1084 -4.1090 0.0005 35.2729 0.0001 -5.5980
# 5 5.5975 -5.5965 0.0010 0.0001 35.2740 4.1082
# 6 0.0002 0.0001 0.0008 -5.5980 4.1082 34.4954
#
#
#
# Elastic Compliance Matrix: (Units=1/GPa)
#
#
# Indices 1 2 3 4 5 6 
#
# 1 0.011351 -0.003741 -0.001836 -0.001758 -0.002395 0.000000
# 2 -0.003741 0.011351 -0.001836 0.001758 0.002395 0.000000
# 3 -0.001836 -0.001836 0.014592 0.000000 0.000000 0.000000
# 4 -0.001758 0.001758 0.000000 0.029520 0.000000 0.004791
# 5 -0.002395 0.002395 0.000000 0.000000 0.029519 -0.003516
# 6 0.000000 0.000000 0.000000 0.004791 -0.003516 0.030186
#
#
# Mechanical properties :
#
#
# Convention : Reuss Voigt Hill
#
# Bulk Modulus (GPa) = 44.50851 47.01932 45.76391
# Shear Modulus (GPa) = 33.59444 35.08806 34.34125
#
# Velocity S-wave (km/s) = 3.93326 4.01975 3.97674
# Velocity P-wave (km/s) = 6.41280 6.57247 6.49313
#
# Compressibility (1/GPa) = 0.02246761
#
# Stress axis : x y z
#
# Youngs Moduli (GPa) = 88.09665 88.09814 68.53143
#
# Poissons Ratio (x) = 0.32957 0.12582
# Poissons Ratio (y) = 0.32957 0.12585
# Poissons Ratio (z) = 0.16174 0.16178
#
# Static dielectric constant tensor:
#      x y z
#    x 3.979590 0.000010 -0.000020 
#    y 0.000010 3.979570 0.000010 
#    z -0.000020 0.000010 3.847890 
# 
# 
# High freq. dielectric constant tensor:
#      x y z
#    x 1.859770 0.000000 0.000000 
#    y 0.000000 1.859770 0.000000 
#    z 0.000000 0.000000 1.844550 
# 
# From -- ./inp_files/1921.got.cif
#   From: 2010.06.25/outbox.cif.g09.slc.cpg/sg146_cif.got.tgz:1921.got - 2010.06.28 11:17:22.
