data_PCOD8321283
_publ_section_title
;
Structure prediction by ZEFSAII (Michael W. Deem and Ramdas Pophale) SiO2 
 PCOD8321283
Probable space group: I 41/A C D
;
_chemical_formula_sum "Si O2"
_cell_formula_units_Z 176
_cell_length_a 22.634594
_cell_length_b 22.634594
_cell_length_c 15.214280
_cell_angle_alpha 90.000000
_cell_angle_beta 90.000000
_cell_angle_gamma 90.000000
_cell_volume 7794.653651
_symmetry_space_group_name_H-M "I 41/A C D"
_symmetry_group_IT_number 142
_space_group.IT_coordinate_system_code '2'
_symmetry_cell_setting 'tetragonal'
loop_
_space_group_symop_operation_xyz
x,y,z
1/4-y,3/4+x,1/4+z
-x,1/2-y,z
1/4+y,1/4-x,3/4+z
x,-y,1/2-z
1/2-x,y,-z
3/4+y,1/4+x,1/4-z
1/4-y,1/4-x,1/4-z
-x,-y,-z
3/4+y,1/4-x,3/4-z
x,1/2+y,-z
3/4-y,3/4+x,1/4-z
-x,y,1/2+z
1/2+x,-y,z
1/4-y,3/4-x,3/4+z
3/4+y,3/4+x,3/4+z
1/2+x,1/2+y,1/2+z
3/4-y,1/4+x,3/4+z
1/2-x,-y,1/2+z
3/4+y,3/4-x,1/4+z
1/2+x,1/2-y,-z
-x,1/2+y,1/2-z
1/4+y,3/4+x,3/4-z
3/4-y,3/4-x,3/4-z
1/2-x,1/2-y,1/2-z
1/4+y,3/4-x,1/4-z
1/2+x,y,1/2-z
1/4-y,1/4+x,3/4-z
1/2-x,1/2+y,z
x,1/2-y,1/2+z
3/4-y,1/4-x,1/4+z
1/4+y,1/4+x,1/4+z
loop_
_atom_site_type_symbol
_atom_site_label
_atom_site_fract_x
_atom_site_fract_y
_atom_site_fract_z
Si Si1 0.581258 0.704170 0.391802
Si Si2 0.785544 0.714915 0.827369
Si Si3 0.265648 0.604365 0.090594
Si Si4 0.553089 0.891468 0.171327
Si Si5 0.911101 0.000000 0.250000
Si Si6 0.366835 0.589970 0.468687
O O1 0.516752 0.675688 0.408248
O O2 0.616922 0.713479 0.482594
O O3 0.614757 0.660986 0.326752
O O4 0.750000 0.750000 0.750000
O O5 0.846191 0.746635 0.859305
O O6 0.805315 0.650571 0.795085
O O7 0.744510 0.702412 0.912955
O O8 0.321939 0.571939 0.125000
O O9 0.291856 0.669881 0.073075
O O10 0.208451 0.597882 0.148681
O O11 0.250000 0.573007 0.000000
O O12 0.593696 0.843696 0.125000
O O13 0.871404 0.941191 0.256446
#
# Coordination Sequence:
#
# PCOD8321283 Si02
#       6
#    32  32  32  32  16  32
#     4  11  25  45  76 112 146 197 249 320 391 459
#     4  12  28  48  77 114 150 203 261 314 385 460
#     4  11  25  41  70 108 148 201 251 307 379 457
#     4  11  24  45  74 109 147 193 259 316 382 458
#     4  12  32  46  76 112 154 204 248 320 390 454
#     4  12  27  48  76 105 160 196 256 313 380 456
#
# _framework density 22.579581000000001
#
# number of rings (size 3 to 8) (size 9 to 14) (size 15 to 20)
#    0.000    0.545    3.636    2.727   12.727    0.000 
#    0.000    5.455    0.000    0.000    0.000    0.000 
#    0.000    0.000    0.000    0.000    0.000    0.000 
#
# Total GULP energy -1090820.109046 kJ/mol
# GULP energy per Si atom -12395.683057 kJ/mol
# Density = 2.252819 g / cm^3
# Si number density = 22.579581 Si / 1000 Ang^3
#
#
#
# Elastic Constant Matrix: (Units=GPa)
#
#
# Indices 1 2 3 4 5 6 
#
# 1 97.4898 29.8956 46.7159 0.0000 0.0000 0.0000
# 2 29.8956 97.4898 46.7159 0.0000 0.0000 0.0000
# 3 46.7159 46.7159 155.5952 0.0000 0.0000 0.0000
# 4 0.0000 0.0000 0.0000 36.8217 0.0000 0.0000
# 5 0.0000 0.0000 0.0000 0.0000 36.8217 0.0000
# 6 0.0000 0.0000 0.0000 0.0000 0.0000 37.8764
#
#
#
# Elastic Compliance Matrix: (Units=1/GPa)
#
#
# Indices 1 2 3 4 5 6 
#
# 1 0.012431 -0.002364 -0.003023 0.000000 0.000000 0.000000
# 2 -0.002364 0.012431 -0.003023 0.000000 0.000000 0.000000
# 3 -0.003023 -0.003023 0.008242 0.000000 0.000000 0.000000
# 4 0.000000 0.000000 0.000000 0.027158 0.000000 0.000000
# 5 0.000000 0.000000 0.000000 0.000000 0.027158 0.000000
# 6 0.000000 0.000000 0.000000 0.000000 0.000000 0.026402
#
#
# Mechanical properties :
#
#
# Convention : Reuss Voigt Hill
#
# Bulk Modulus (GPa) = 61.40270 66.35885 63.88078
# Shear Modulus (GPa) = 36.74673 37.45380 37.10026
#
# Velocity S-wave (km/s) = 4.03852 4.07719 4.05790
# Velocity P-wave (km/s) = 6.99994 7.18452 7.09283
#
# Compressibility (1/GPa) = 0.01628593
#
# Stress axis : x y z
#
# Youngs Moduli (GPa) = 80.44641 80.44641 121.33117
#
# Poissons Ratio (x) = 0.19014 0.36673
# Poissons Ratio (y) = 0.19014 0.36673
# Poissons Ratio (z) = 0.24315 0.24315
#
# Static dielectric constant tensor:
#      x y z
#    x 4.190290 0.000000 0.000000 
#    y 0.000000 4.190290 0.000000 
#    z 0.000000 0.000000 4.249710 
# 
# 
# High freq. dielectric constant tensor:
#      x y z
#    x 1.896920 0.000000 0.000000 
#    y 0.000000 1.896920 0.000000 
#    z 0.000000 0.000000 1.901840 
# 
# From -- ./inp_files/5541.got.cif
#   From: 2010.03.12/outbox.cif.g09.slc.cpg/sg142_3_cif.got.tgz:5541.got - 2010.04.03 13:27:16.
