data_PCOD8321603
_publ_section_title
;
Structure prediction by ZEFSAII (Michael W. Deem and Ramdas Pophale) SiO2 
 PCOD8321603
Probable space group: P -3
;
_chemical_formula_sum "Si O2"
_cell_formula_units_Z 42
_cell_length_a 12.814795
_cell_length_b 12.814795
_cell_length_c 17.654567
_cell_angle_alpha 90.000000
_cell_angle_beta 90.000000
_cell_angle_gamma 120.000000
_cell_volume 2510.793689
_symmetry_space_group_name_H-M "P -3"
_symmetry_group_IT_number 147
_symmetry_cell_setting 'hexagonal'
loop_
_space_group_symop_operation_xyz
x,y,z
-y,x-y,z
-x+y,-x,z
-x,-y,-z
y,-x+y,-z
x-y,x,-z
loop_
_atom_site_type_symbol
_atom_site_label
_atom_site_fract_x
_atom_site_fract_y
_atom_site_fract_z
Si Si1 0.906925 0.573676 0.801573
Si Si2 0.572897 0.906212 0.370977
Si Si3 0.334906 0.423196 0.931481
Si Si4 0.000000 0.243695 0.500000
Si Si5 0.088290 0.423196 0.931481
Si Si6 0.666685 0.093788 0.629023
Si Si7 0.573676 0.906925 0.198427
O O1 0.946206 0.614626 0.715231
O O2 0.867892 0.433946 0.812695
O O3 0.793914 0.587828 0.825754
O O4 0.020856 0.658724 0.853314
O O5 0.460395 0.920790 0.393288
O O6 0.534296 0.767148 0.382582
O O7 0.614626 0.946206 0.284769
O O8 0.681970 0.992578 0.425185
O O9 0.206073 0.412146 0.937946
O O10 0.436744 0.563256 0.934419
O O11 0.350787 0.350786 1.000000
O O12 0.114060 0.228120 0.510280
O O13 0.007422 0.318030 0.425185
O O14 0.020855 0.362132 0.853314
#
# Coordination Sequence:
#
# PCOD8321603 Si02
#       7
#     6   6   6   6   6   6   6
#     4   9  17  30  50  74  97 121 150 187 231 278
#     4   9  17  30  49  72  95 119 150 191 237 280
#     4  10  20  33  50  71  95 123 154 190 230 272
#     4  10  20  32  46  64  90 126 164 198 230 270
#     4  10  20  33  50  71  95 123 154 190 230 272
#     4   9  17  30  49  72  95 119 150 191 237 280
#     4   9  17  30  50  74  97 121 150 187 231 278
#
# _framework density 16.727777
#
# number of rings (size 3 to 8) (size 9 to 14) (size 15 to 20)
#    0.000    2.571    0.000    2.286    0.000    3.429 
#    0.000    2.857    0.000    5.714    0.000    0.000 
#    0.000    0.000    0.000    0.000    0.000    0.000 
#
# Total GULP energy -520878.236506 kJ/mol
# GULP energy per Si atom -12401.862774 kJ/mol
# Density = 1.668970 g / cm^3
# Si number density = 16.727777 Si / 1000 Ang^3
#
#
#
# Elastic Constant Matrix: (Units=GPa)
#
#
# Indices 1 2 3 4 5 6 
#
# 1 115.0642 73.3361 70.1499 0.2068 0.0000 0.0000
# 2 73.3361 115.0642 70.1499 -0.2068 0.0000 0.0000
# 3 70.1499 70.1499 118.6665 0.0000 0.0000 0.0000
# 4 0.2068 -0.2068 0.0000 24.0267 0.0000 0.0000
# 5 0.0000 0.0000 0.0000 0.0000 24.0267 0.2068
# 6 0.0000 0.0000 0.0000 0.0000 0.2068 20.8640
#
#
#
# Elastic Compliance Matrix: (Units=1/GPa)
#
#
# Indices 1 2 3 4 5 6 
#
# 1 0.016724 -0.007242 -0.005605 -0.000206 0.000000 0.000000
# 2 -0.007242 0.016724 -0.005605 0.000206 0.000000 0.000000
# 3 -0.005605 -0.005605 0.015054 0.000000 0.000000 0.000000
# 4 -0.000206 0.000206 0.000000 0.041624 0.000000 0.000000
# 5 0.000000 0.000000 0.000000 0.000000 0.041624 -0.000413
# 6 0.000000 0.000000 0.000000 0.000000 -0.000413 0.047933
#
#
# Mechanical properties :
#
#
# Convention : Reuss Voigt Hill
#
# Bulk Modulus (GPa) = 86.22938 86.22965 86.22952
# Shear Modulus (GPa) = 22.68025 22.79408 22.73716
#
# Velocity S-wave (km/s) = 3.68617 3.69541 3.69079
# Velocity P-wave (km/s) = 8.35330 8.35875 8.35603
#
# Compressibility (1/GPa) = 0.01159697
#
# Stress axis : x y z
#
# Youngs Moduli (GPa) = 59.79283 59.79283 66.42657
#
# Poissons Ratio (x) = 0.43304 0.37234
# Poissons Ratio (y) = 0.43304 0.37234
# Poissons Ratio (z) = 0.33516 0.33516
#
# Static dielectric constant tensor:
#      x y z
#    x 2.995850 0.000000 0.000000 
#    y 0.000000 2.995850 0.000000 
#    z 0.000000 0.000000 3.388250 
# 
# 
# High freq. dielectric constant tensor:
#      x y z
#    x 1.635770 0.000000 0.000000 
#    y 0.000000 1.635770 0.000000 
#    z 0.000000 0.000000 1.659220 
# 
# From -- ./inp_files/1020.got.cif
#   From: 2010.03.12/outbox.cif.g09.slc.cpg/sg147_cif.got.tgz:1020.got - 2010.04.03 13:37:56.
