data_PCOD8321980
_publ_section_title
;
Structure prediction by ZEFSAII (Michael W. Deem and Ramdas Pophale) SiO2 
 PCOD8321980
Probable space group: P 31 1 2
;
_chemical_formula_sum "Si O2"
_cell_formula_units_Z 42
_cell_length_a 8.811408
_cell_length_b 8.811408
_cell_length_c 30.044596
_cell_angle_alpha 90.000000
_cell_angle_beta 90.000000
_cell_angle_gamma 120.000000
_cell_volume 2020.168628
_symmetry_space_group_name_H-M "P 31 1 2"
_symmetry_group_IT_number 151
_symmetry_cell_setting 'hexagonal'
loop_
_space_group_symop_operation_xyz
x,y,z
-y,x-y,1/3+z
-x+y,-x,2/3+z
-y,-x,2/3-z
-x+y,y,1/3-z
x,x-y,-z
loop_
_atom_site_type_symbol
_atom_site_label
_atom_site_fract_x
_atom_site_fract_y
_atom_site_fract_z
Si Si1 0.120592 0.879409 0.833334
Si Si2 0.188123 0.594062 0.500000
Si Si3 0.295163 0.058919 0.125473
Si Si4 0.478311 0.835174 0.438689
Si Si5 0.455690 0.901118 0.992047
Si Si6 0.627292 0.216702 0.880608
Si Si7 0.746002 0.551704 0.304534
Si Si8 0.778814 0.850222 0.699088
O O1 0.192397 0.827701 0.789764
O O2 0.912966 0.785833 0.829815
O O3 0.080849 0.393151 0.487858
O O4 0.296045 0.676641 0.455014
O O5 0.161652 0.985947 0.083869
O O6 0.485775 0.208548 0.108159
O O7 0.502396 0.847613 0.386402
O O8 0.482706 0.007963 0.457444
O O9 0.632811 0.087134 0.990791
O O10 0.510262 0.755131 0.000000
O O11 0.320368 0.905691 0.027014
O O12 0.714670 0.285331 0.833334
O O13 0.771892 0.284109 0.919817
O O14 0.575786 0.424215 0.333334
O O15 0.777008 0.747220 0.308284
O O16 0.921589 0.843178 0.666667
#
# Coordination Sequence:
#
# PCOD8321980 Si02
#       8
#     3   3   6   6   6   6   6   6
#     4   9  20  40  60  85 124 170 216 259 336 379
#     4  11  22  38  60  95 130 164 220 265 336 397
#     4  11  23  42  64  95 128 174 216 279 330 400
#     4   9  21  39  62  87 127 169 209 268 329 392
#     4  11  22  44  69  96 133 173 224 276 337 398
#     4  10  21  42  65  94 128 175 221 277 338 396
#     4  11  25  44  68 100 134 181 229 279 337 404
#     4  12  25  44  67  97 140 176 229 274 339 400
#
# _framework density 20.790341999999999
#
# number of rings (size 3 to 8) (size 9 to 14) (size 15 to 20)
#    0.000    1.429    0.714    5.571    2.000    2.286 
#   12.857    0.000    0.000    0.000    0.000    0.000 
#    0.000    0.000    0.000    0.000    0.000    0.000 
#
# Total GULP energy -520738.091557 kJ/mol
# GULP energy per Si atom -12398.525989 kJ/mol
# Density = 2.074302 g / cm^3
# Si number density = 20.790342 Si / 1000 Ang^3
#
#
#
# Elastic Constant Matrix: (Units=GPa)
#
#
# Indices 1 2 3 4 5 6 
#
# 1 108.5227 40.1157 39.4130 0.0004 0.3258 0.0000
# 2 40.1157 108.5227 39.4130 -0.0004 -0.3258 0.0000
# 3 39.4130 39.4130 95.0703 0.0000 0.0000 0.0000
# 4 0.0004 -0.0004 0.0000 22.2567 0.0000 -0.3258
# 5 0.3258 -0.3258 0.0000 0.0000 22.2567 0.0004
# 6 0.0000 0.0000 0.0000 -0.3258 0.0004 34.2035
#
#
#
# Elastic Compliance Matrix: (Units=1/GPa)
#
#
# Indices 1 2 3 4 5 6 
#
# 1 0.011622 -0.002998 -0.003575 0.000000 -0.000214 0.000000
# 2 -0.002998 0.011622 -0.003575 0.000000 0.000214 0.000000
# 3 -0.003575 -0.003575 0.013483 0.000000 0.000000 0.000000
# 4 0.000000 0.000000 0.000000 0.044937 0.000000 0.000428
# 5 -0.000214 0.000214 0.000000 0.000000 0.044937 -0.000001
# 6 0.000000 0.000000 0.000000 0.000428 -0.000001 0.029241
#
#
# Mechanical properties :
#
#
# Convention : Reuss Voigt Hill
#
# Bulk Modulus (GPa) = 60.86520 61.11103 60.98811
# Shear Modulus (GPa) = 27.53084 28.62165 28.07624
#
# Velocity S-wave (km/s) = 3.64292 3.71439 3.67883
# Velocity P-wave (km/s) = 6.85812 6.91761 6.88793
#
# Compressibility (1/GPa) = 0.01642975
#
# Stress axis : x y z
#
# Youngs Moduli (GPa) = 86.04334 86.04334 74.16875
#
# Poissons Ratio (x) = 0.25799 0.26516
# Poissons Ratio (y) = 0.25799 0.26516
# Poissons Ratio (z) = 0.30761 0.30761
#
# Static dielectric constant tensor:
#      x y z
#    x 3.961080 0.000000 0.000000 
#    y 0.000000 3.961080 0.000000 
#    z 0.000000 0.000000 3.852490 
# 
# 
# High freq. dielectric constant tensor:
#      x y z
#    x 1.820100 0.000000 0.000000 
#    y 0.000000 1.820100 0.000000 
#    z 0.000000 0.000000 1.816430 
# 
# From -- ./inp_files/5061.got.cif
#   From: 2010.03.12/outbox.cif.g09.slc.cpg/sg151_3_cif.got.tgz:5061.got - 2010.04.03 13:42:29.
