data_PCOD8321406
_publ_section_title
;
Structure prediction by ZEFSAII (Michael W. Deem and Ramdas Pophale) SiO2 
 PCOD8321406
Probable space group: P 31
;
_chemical_formula_sum "Si O2"
_cell_formula_units_Z 21
_cell_length_a 9.011281
_cell_length_b 9.011281
_cell_length_c 12.071502
_cell_angle_alpha 90.000000
_cell_angle_beta 90.000000
_cell_angle_gamma 120.000000
_cell_volume 848.916564
_symmetry_space_group_name_H-M "P 31"
_symmetry_group_IT_number 144
_symmetry_cell_setting 'hexagonal'
loop_
_space_group_symop_operation_xyz
x,y,z
-y,x-y,1/3+z
-x+y,-x,2/3+z
loop_
_atom_site_type_symbol
_atom_site_label
_atom_site_fract_x
_atom_site_fract_y
_atom_site_fract_z
Si Si1 0.608011 0.683398 0.355010
Si Si2 0.848798 0.278122 0.211726
Si Si3 0.638651 0.519848 0.951003
Si Si4 0.070539 0.099358 0.893175
Si Si5 0.545709 0.653331 0.740215
Si Si6 0.809436 0.023163 0.699918
Si Si7 0.424129 0.601651 0.122488
O O1 0.634999 0.543261 0.423070
O O2 0.795027 0.837380 0.322998
O O3 0.481718 0.609359 0.249770
O O4 0.537217 0.762511 0.447203
O O5 0.671271 0.261376 0.250104
O O6 0.990678 0.401565 0.299023
O O7 0.809473 0.082323 0.201380
O O8 0.632240 0.621151 0.845130
O O9 0.831273 0.599361 0.995742
O O10 0.524985 0.537221 0.046451
O O11 0.957166 0.099002 0.792063
O O12 0.018715 0.908894 0.928139
O O13 0.338877 0.554316 0.750743
O O14 0.629407 0.860461 0.737273
#
# Coordination Sequence:
#
# PCOD8321406 Si02
#       7
#     3   3   3   3   3   3   3
#     4  12  24  44  78 117 156 210 274 327 408 480
#     4  11  26  46  73 112 164 206 262 339 407 480
#     4  12  25  49  78 115 159 210 275 341 408 481
#     4  11  20  39  73 111 145 206 266 315 386 493
#     4  11  26  49  75 114 165 208 266 339 407 485
#     4  11  23  43  74 113 156 207 266 324 406 481
#     4  12  24  46  81 116 153 213 273 337 396 492
#
# _framework density 24.737417000000001
#
# number of rings (size 3 to 8) (size 9 to 14) (size 15 to 20)
#    0.000    0.571    7.143    0.857    0.000    0.000 
#    5.143    0.000    0.000    0.000    0.000    0.000 
#    0.000    0.000    0.000    0.000    0.000    0.000 
#
# Total GULP energy -260396.583335 kJ/mol
# GULP energy per Si atom -12399.837302 kJ/mol
# Density = 2.468111 g / cm^3
# Si number density = 24.737417 Si / 1000 Ang^3
#
#
#
# Elastic Constant Matrix: (Units=GPa)
#
#
# Indices 1 2 3 4 5 6 
#
# 1 99.9486 39.9349 58.2561 -6.9479 2.4429 0.0000
# 2 39.9349 99.9486 58.2561 6.9479 -2.4429 0.0000
# 3 58.2561 58.2561 142.9955 0.0000 0.0000 0.0000
# 4 -6.9479 6.9479 0.0000 41.0999 0.0000 -2.4429
# 5 2.4429 -2.4429 0.0000 0.0000 41.0999 -6.9479
# 6 0.0000 0.0000 0.0000 -2.4429 -6.9479 30.0068
#
#
#
# Elastic Compliance Matrix: (Units=1/GPa)
#
#
# Indices 1 2 3 4 5 6 
#
# 1 0.014125 -0.003304 -0.004408 0.002946 -0.001036 0.000000
# 2 -0.003304 0.014125 -0.004408 -0.002946 0.001036 0.000000
# 3 -0.004408 -0.004408 0.010585 0.000000 0.000000 0.000000
# 4 0.002946 -0.002946 0.000000 0.025450 0.000000 0.002072
# 5 -0.001036 0.001036 0.000000 0.000000 0.025450 0.005893
# 6 0.000000 0.000000 0.000000 0.002072 0.005893 0.034859
#
#
# Mechanical properties :
#
#
# Convention : Reuss Voigt Hill
#
# Bulk Modulus (GPa) = 68.52557 72.86522 70.69539
# Shear Modulus (GPa) = 32.53073 34.87103 33.70088
#
# Velocity S-wave (km/s) = 3.63028 3.75860 3.69500
# Velocity P-wave (km/s) = 6.73300 6.95381 6.84430
#
# Compressibility (1/GPa) = 0.01459309
#
# Stress axis : x y z
#
# Youngs Moduli (GPa) = 70.79645 70.79645 94.47255
#
# Poissons Ratio (x) = 0.23394 0.41646
# Poissons Ratio (y) = 0.23394 0.41646
# Poissons Ratio (z) = 0.31209 0.31209
#
# Static dielectric constant tensor:
#      x y z
#    x 4.484370 0.000000 0.000000 
#    y 0.000000 4.484370 0.000000 
#    z 0.000000 0.000000 4.606430 
# 
# 
# High freq. dielectric constant tensor:
#      x y z
#    x 1.986160 0.000000 0.000000 
#    y 0.000000 1.986160 0.000000 
#    z 0.000000 0.000000 1.996230 
# 
# From -- ./inp_files/614.got.cif
#   From: 2010.03.12/outbox.cif.g09.slc.cpg/sg144_cif.got.tgz:614.got - 2010.04.03 13:34:42.
