data_PCOD8321457
_publ_section_title
;
Structure prediction by ZEFSAII (Michael W. Deem and Ramdas Pophale) SiO2 
 PCOD8321457
Probable space group: P 31
;
_chemical_formula_sum "Si O2"
_cell_formula_units_Z 18
_cell_length_a 10.027937
_cell_length_b 10.027937
_cell_length_c 8.503786
_cell_angle_alpha 90.000000
_cell_angle_beta 90.000000
_cell_angle_gamma 120.000000
_cell_volume 740.570056
_symmetry_space_group_name_H-M "P 31"
_symmetry_group_IT_number 144
_symmetry_cell_setting 'hexagonal'
loop_
_space_group_symop_operation_xyz
x,y,z
-y,x-y,1/3+z
-x+y,-x,2/3+z
loop_
_atom_site_type_symbol
_atom_site_label
_atom_site_fract_x
_atom_site_fract_y
_atom_site_fract_z
Si Si1 0.824799 0.608989 0.375000
Si Si2 0.508534 0.450856 0.204965
Si Si3 0.433214 0.047161 0.962214
Si Si4 0.380494 0.099880 0.284417
Si Si5 0.041282 0.083314 0.693851
Si Si6 0.291301 0.583353 0.219447
O O1 0.666665 0.572706 0.289984
O O2 0.876409 0.490693 0.320202
O O3 0.774798 0.594780 0.556301
O O4 0.965746 0.776920 0.339879
O O5 0.456923 0.280950 0.259762
O O6 0.367586 0.477839 0.240085
O O7 0.558536 0.486649 0.023665
O O8 0.367532 0.891579 0.861233
O O9 0.337609 0.004275 0.123316
O O10 0.224912 0.034197 0.385398
O O11 0.009122 0.986682 0.859075
O O12 0.320015 0.675789 0.387556
#
# Coordination Sequence:
#
# PCOD8321457 Si02
#       6
#     3   3   3   3   3   3
#     4  12  26  49  78 113 157 205 271 323 394 479
#     4  12  26  49  78 113 157 205 271 323 394 479
#     4  12  27  48  82 113 158 210 266 331 402 473
#     4  12  27  48  82 113 158 210 266 331 402 473
#     4  12  29  49  78 117 162 208 264 328 403 473
#     4  12  29  49  78 117 162 208 264 328 403 473
#
# _framework density 24.305599999999998
#
# number of rings (size 3 to 8) (size 9 to 14) (size 15 to 20)
#    0.000    0.000    3.333    6.000    9.333    0.000 
#    0.000    0.000    0.000    0.000    0.000    0.000 
#    0.000    0.000    0.000    0.000    0.000    0.000 
#
# Total GULP energy -223067.144235 kJ/mol
# GULP energy per Si atom -12392.619124 kJ/mol
# Density = 2.425028 g / cm^3
# Si number density = 24.305600 Si / 1000 Ang^3
#
#
#
# Elastic Constant Matrix: (Units=GPa)
#
#
# Indices 1 2 3 4 5 6 
#
# 1 117.4384 55.4763 25.0446 6.8789 -0.0003 0.0000
# 2 55.4763 117.4384 25.0446 -6.8789 0.0003 0.0000
# 3 25.0446 25.0446 140.8068 0.0000 0.0000 0.0000
# 4 6.8789 -6.8789 0.0000 34.6475 0.0000 0.0003
# 5 -0.0003 0.0003 0.0000 0.0000 34.6475 6.8789
# 6 0.0000 0.0000 0.0000 0.0003 6.8789 30.9811
#
#
#
# Elastic Compliance Matrix: (Units=1/GPa)
#
#
# Indices 1 2 3 4 5 6 
#
# 1 0.011490 -0.005393 -0.001085 -0.003352 0.000000 0.000000
# 2 -0.005393 0.011490 -0.001085 0.003352 0.000000 0.000000
# 3 -0.001085 -0.001085 0.007488 0.000000 0.000000 0.000000
# 4 -0.003352 0.003352 0.000000 0.030193 0.000000 0.000000
# 5 0.000000 0.000000 0.000000 0.000000 0.030193 -0.006704
# 6 0.000000 0.000000 0.000000 0.000000 -0.006704 0.033766
#
#
# Mechanical properties :
#
#
# Convention : Reuss Voigt Hill
#
# Bulk Modulus (GPa) = 65.17036 65.20165 65.18600
# Shear Modulus (GPa) = 34.51622 38.06307 36.28965
#
# Velocity S-wave (km/s) = 3.77250 3.96159 3.86820
# Velocity P-wave (km/s) = 6.77103 6.91445 6.84311
#
# Compressibility (1/GPa) = 0.01534440
#
# Stress axis : x y z
#
# Youngs Moduli (GPa) = 87.03031 87.03031 133.55204
#
# Poissons Ratio (x) = 0.46935 0.14484
# Poissons Ratio (y) = 0.46935 0.14484
# Poissons Ratio (z) = 0.09438 0.09438
#
# Static dielectric constant tensor:
#      x y z
#    x 5.235590 0.000000 0.000000 
#    y 0.000000 5.235590 0.000000 
#    z 0.000000 0.000000 5.353870 
# 
# 
# High freq. dielectric constant tensor:
#      x y z
#    x 1.961590 0.000000 0.000000 
#    y 0.000000 1.961590 0.000000 
#    z 0.000000 0.000000 1.997500 
# 
# From -- ./inp_files/259.got.cif
#   From: 2010.03.12/outbox.cif.g09.slc.cpg/sg144_cif.got.tgz:259.got - 2010.04.03 13:34:42.
