data_PCOD8321831
_publ_section_title
;
Structure prediction by ZEFSAII (Michael W. Deem and Ramdas Pophale) SiO2 
 PCOD8321831
Probable space group: P 3 1 2
;
_chemical_formula_sum "Si O2"
_cell_formula_units_Z 38
_cell_length_a 16.132076
_cell_length_b 16.132076
_cell_length_c 11.480231
_cell_angle_alpha 90.000000
_cell_angle_beta 90.000000
_cell_angle_gamma 120.000000
_cell_volume 2587.389296
_symmetry_space_group_name_H-M "P 3 1 2"
_symmetry_group_IT_number 149
_symmetry_cell_setting 'hexagonal'
loop_
_space_group_symop_operation_xyz
x,y,z
-y,x-y,z
-x+y,-x,z
-y,-x,-z
-x+y,y,-z
x,x-y,-z
loop_
_atom_site_type_symbol
_atom_site_label
_atom_site_fract_x
_atom_site_fract_y
_atom_site_fract_z
Si Si1 0.476223 0.333512 0.133707
Si Si2 0.379057 0.429775 0.745487
Si Si3 0.570225 0.620942 0.745487
Si Si4 0.666488 0.142710 0.866293
Si Si5 0.226178 0.452355 0.136868
Si Si6 0.139020 0.475226 0.500000
Si Si7 0.333333 0.666666 0.860841
O O1 0.408872 0.351549 0.221199
O O2 0.463982 0.231991 0.167734
O O3 0.586602 0.413398 0.151508
O O4 0.445220 0.334713 0.000000
O O5 0.464913 0.535087 0.782194
O O6 0.408870 0.351548 0.778802
O O7 0.283206 0.401384 0.817842
O O8 0.354323 0.424445 0.609574
O O9 0.598617 0.716792 0.817844
O O10 0.575556 0.645677 0.609574
O O11 0.279876 0.559749 0.189477
O O12 0.225864 0.451728 0.000000
O O13 0.229515 0.459029 0.500000
O O14 0.177733 0.588867 0.500000
O O15 0.333334 0.666667 0.000000
#
# Coordination Sequence:
#
# PCOD8321831 Si02
#       7
#     6   6   6   6   6   6   2
#     4   9  17  30  48  68  90 117 150 189 232 276
#     4  10  19  29  42  62  90 121 157 189 219 260
#     4  10  19  29  42  62  90 121 157 189 219 260
#     4   9  17  30  48  68  90 117 150 189 232 276
#     4  11  18  25  39  61  91 122 149 179 221 268
#     4  10  19  30  43  60  88 130 166 190 211 249
#     4   9  18  24  33  55  89 127 150 171 211 266
#
# _framework density 14.686619
#
# number of rings (size 3 to 8) (size 9 to 14) (size 15 to 20)
#    0.000    2.211    3.158    1.421    0.000    2.526 
#    0.000    0.789    0.000    0.000    0.000    2.211 
#    1.579    0.000    1.895    0.000    0.000    0.000 
#
# Total GULP energy -471192.705181 kJ/mol
# GULP energy per Si atom -12399.808031 kJ/mol
# Density = 1.465319 g / cm^3
# Si number density = 14.686619 Si / 1000 Ang^3
#
#
#
# Elastic Constant Matrix: (Units=GPa)
#
#
# Indices 1 2 3 4 5 6 
#
# 1 94.6082 49.2325 49.4909 0.0000 -0.0001 0.0000
# 2 49.2325 94.6083 49.4909 0.0000 0.0002 0.0000
# 3 49.4909 49.4909 91.6089 0.0000 0.0000 0.0000
# 4 0.0000 0.0000 0.0000 20.1367 0.0000 0.0002
# 5 -0.0001 0.0002 0.0000 0.0000 20.1367 0.0000
# 6 0.0000 0.0000 0.0000 0.0002 0.0000 22.6879
#
#
#
# Elastic Compliance Matrix: (Units=1/GPa)
#
#
# Indices 1 2 3 4 5 6 
#
# 1 0.016552 -0.005486 -0.005978 0.000000 0.000000 0.000000
# 2 -0.005486 0.016552 -0.005978 0.000000 0.000000 0.000000
# 3 -0.005978 -0.005978 0.017375 0.000000 0.000000 0.000000
# 4 0.000000 0.000000 0.000000 0.049661 0.000000 0.000000
# 5 0.000000 0.000000 0.000000 0.000000 0.049661 0.000000
# 6 0.000000 0.000000 0.000000 0.000000 0.000000 0.044076
#
#
# Mechanical properties :
#
#
# Convention : Reuss Voigt Hill
#
# Bulk Modulus (GPa) = 64.12640 64.13934 64.13287
# Shear Modulus (GPa) = 21.37112 21.43301 21.40207
#
# Velocity S-wave (km/s) = 3.81877 3.82430 3.82154
# Velocity P-wave (km/s) = 7.94997 7.95406 7.95201
#
# Compressibility (1/GPa) = 0.01559420
#
# Stress axis : x y z
#
# Youngs Moduli (GPa) = 60.41529 60.41533 57.55253
#
# Poissons Ratio (x) = 0.33144 0.34407
# Poissons Ratio (y) = 0.33144 0.34407
# Poissons Ratio (z) = 0.36118 0.36118
#
# Static dielectric constant tensor:
#      x y z
#    x 2.682010 0.000000 0.000000 
#    y 0.000000 2.682010 0.000000 
#    z 0.000000 0.000000 2.851950 
# 
# 
# High freq. dielectric constant tensor:
#      x y z
#    x 1.537860 0.000000 0.000000 
#    y 0.000000 1.537860 0.000000 
#    z 0.000000 0.000000 1.565380 
# 
# From -- ./inp_files/886.got.cif
#   From: 2010.03.12/outbox.cif.g09.slc.cpg/sg149_cif.got.tgz:886.got - 2010.04.03 13:40:41.
