data_PCOD8321073
_publ_section_title
;
Structure prediction by ZEFSAII (Michael W. Deem and Ramdas Pophale) SiO2 
 PCOD8321073
Probable space group: I 41/A C D
;
_chemical_formula_sum "Si O2"
_cell_formula_units_Z 112
_cell_length_a 13.060157
_cell_length_b 13.060157
_cell_length_c 28.082831
_cell_angle_alpha 90.000000
_cell_angle_beta 90.000000
_cell_angle_gamma 90.000000
_cell_volume 4790.023917
_symmetry_space_group_name_H-M "I 41/A C D"
_symmetry_group_IT_number 142
_space_group.IT_coordinate_system_code '2'
_symmetry_cell_setting 'tetragonal'
loop_
_space_group_symop_operation_xyz
x,y,z
1/4-y,3/4+x,1/4+z
-x,1/2-y,z
1/4+y,1/4-x,3/4+z
x,-y,1/2-z
1/2-x,y,-z
3/4+y,1/4+x,1/4-z
1/4-y,1/4-x,1/4-z
-x,-y,-z
3/4+y,1/4-x,3/4-z
x,1/2+y,-z
3/4-y,3/4+x,1/4-z
-x,y,1/2+z
1/2+x,-y,z
1/4-y,3/4-x,3/4+z
3/4+y,3/4+x,3/4+z
1/2+x,1/2+y,1/2+z
3/4-y,1/4+x,3/4+z
1/2-x,-y,1/2+z
3/4+y,3/4-x,1/4+z
1/2+x,1/2-y,-z
-x,1/2+y,1/2-z
1/4+y,3/4+x,3/4-z
3/4-y,3/4-x,3/4-z
1/2-x,1/2-y,1/2-z
1/4+y,3/4-x,1/4-z
1/2+x,y,1/2-z
1/4-y,1/4+x,3/4-z
1/2-x,1/2+y,z
x,1/2-y,1/2+z
3/4-y,1/4-x,1/4+z
1/4+y,1/4+x,1/4+z
loop_
_atom_site_type_symbol
_atom_site_label
_atom_site_fract_x
_atom_site_fract_y
_atom_site_fract_z
Si Si1 0.529585 0.637217 0.280716
Si Si2 0.142692 0.107309 0.625000
Si Si3 0.314502 0.293147 0.430611
Si Si4 0.213450 0.489179 0.949173
O O1 0.500000 0.750000 0.297740
O O2 0.511174 0.624298 0.224274
O O3 0.460382 0.557641 0.310055
O O4 0.648203 0.617819 0.294005
O O5 0.158858 0.229288 0.617156
O O6 0.202615 0.064059 0.670785
O O7 0.341924 0.413405 0.423960
O O8 0.250000 0.530629 0.000000
#
# Coordination Sequence:
#
# PCOD8321073 Si02
#       4
#    32  16  32  32
#     4  10  20  39  71 101 136 193 242 293 370 440
#     4  10  22  44  67  99 148 190 244 304 368 431
#     4  10  21  43  65  99 145 187 236 301 367 435
#     4  11  20  44  72  99 147 194 241 302 369 445
#
# _framework density 23.381929
#
# number of rings (size 3 to 8) (size 9 to 14) (size 15 to 20)
#    0.000    1.714    8.571    0.000    0.000    1.143 
#   15.429    0.000    0.000    0.000    0.000    0.000 
#    0.000    0.000    0.000    0.000    0.000    0.000 
#
# Total GULP energy -694241.070632 kJ/mol
# GULP energy per Si atom -12397.161976 kJ/mol
# Density = 2.332871 g / cm^3
# Si number density = 23.381929 Si / 1000 Ang^3
#
#
#
# Elastic Constant Matrix: (Units=GPa)
#
#
# Indices 1 2 3 4 5 6 
#
# 1 182.9448 58.0000 31.5243 0.0000 0.0000 0.0000
# 2 58.0000 182.9462 31.5245 0.0000 0.0000 0.0000
# 3 31.5243 31.5245 49.3136 0.0000 0.0000 0.0000
# 4 0.0000 0.0000 0.0000 17.6147 0.0000 0.0000
# 5 0.0000 0.0000 0.0000 0.0000 17.6143 0.0000
# 6 0.0000 0.0000 0.0000 0.0000 0.0000 20.1767
#
#
#
# Elastic Compliance Matrix: (Units=1/GPa)
#
#
# Indices 1 2 3 4 5 6 
#
# 1 0.006494 -0.001510 -0.003186 0.000000 0.000000 0.000000
# 2 -0.001510 0.006494 -0.003186 0.000000 0.000000 0.000000
# 3 -0.003186 -0.003186 0.024352 0.000000 0.000000 0.000000
# 4 0.000000 0.000000 0.000000 0.056771 0.000000 0.000000
# 5 0.000000 0.000000 0.000000 0.000000 0.056772 0.000000
# 6 0.000000 0.000000 0.000000 0.000000 0.000000 0.049562
#
#
# Mechanical properties :
#
#
# Convention : Reuss Voigt Hill
#
# Bulk Modulus (GPa) = 46.34878 73.03358 59.69118
# Shear Modulus (GPa) = 22.38136 30.69152 26.53644
#
# Velocity S-wave (km/s) = 3.09723 3.62694 3.37250
# Velocity P-wave (km/s) = 5.71454 6.98874 6.38351
#
# Compressibility (1/GPa) = 0.02157554
#
# Stress axis : x y z
#
# Youngs Moduli (GPa) = 153.99332 153.99447 41.06449
#
# Poissons Ratio (x) = 0.23249 0.13084
# Poissons Ratio (y) = 0.23249 0.13084
# Poissons Ratio (z) = 0.49064 0.49064
#
# Static dielectric constant tensor:
#      x y z
#    x 4.154570 0.000000 0.000000 
#    y 0.000000 4.154550 0.000000 
#    z 0.000000 0.000000 4.124700 
# 
# 
# High freq. dielectric constant tensor:
#      x y z
#    x 1.920170 0.000000 0.000000 
#    y 0.000000 1.920170 0.000000 
#    z 0.000000 0.000000 1.917030 
# 
# From -- ./inp_files/11087.got.cif
#   From: 2010.03.12/outbox.cif.g09.slc.cpg/sg142_6_cif.got.tgz:11087.got - 2010.04.03 13:27:16.
