data_PCOD8321026
_publ_section_title
;
Structure prediction by ZEFSAII (Michael W. Deem and Ramdas Pophale) SiO2 
 PCOD8321026
Probable space group: I 41/A C D
;
_chemical_formula_sum "Si O2"
_cell_formula_units_Z 160
_cell_length_a 26.769592
_cell_length_b 26.769592
_cell_length_c 13.269213
_cell_angle_alpha 90.000000
_cell_angle_beta 90.000000
_cell_angle_gamma 90.000000
_cell_volume 9508.864738
_symmetry_space_group_name_H-M "I 41/A C D"
_symmetry_group_IT_number 142
_space_group.IT_coordinate_system_code '2'
_symmetry_cell_setting 'tetragonal'
loop_
_space_group_symop_operation_xyz
x,y,z
1/4-y,3/4+x,1/4+z
-x,1/2-y,z
1/4+y,1/4-x,3/4+z
x,-y,1/2-z
1/2-x,y,-z
3/4+y,1/4+x,1/4-z
1/4-y,1/4-x,1/4-z
-x,-y,-z
3/4+y,1/4-x,3/4-z
x,1/2+y,-z
3/4-y,3/4+x,1/4-z
-x,y,1/2+z
1/2+x,-y,z
1/4-y,3/4-x,3/4+z
3/4+y,3/4+x,3/4+z
1/2+x,1/2+y,1/2+z
3/4-y,1/4+x,3/4+z
1/2-x,-y,1/2+z
3/4+y,3/4-x,1/4+z
1/2+x,1/2-y,-z
-x,1/2+y,1/2-z
1/4+y,3/4+x,3/4-z
3/4-y,3/4-x,3/4-z
1/2-x,1/2-y,1/2-z
1/4+y,3/4-x,1/4-z
1/2+x,y,1/2-z
1/4-y,1/4+x,3/4-z
1/2-x,1/2+y,z
x,1/2-y,1/2+z
3/4-y,1/4-x,1/4+z
1/4+y,1/4+x,1/4+z
loop_
_atom_site_type_symbol
_atom_site_label
_atom_site_fract_x
_atom_site_fract_y
_atom_site_fract_z
Si Si1 0.691119 0.199196 0.696925
Si Si2 0.190871 0.658398 0.991218
Si Si3 0.692697 0.901270 0.313675
Si Si4 0.195196 0.408620 0.231333
Si Si5 0.806915 0.199848 0.716884
O O1 0.668504 0.190152 0.585005
O O2 0.680674 0.149713 0.762060
O O3 0.749706 0.210046 0.689586
O O4 0.666486 0.248565 0.747331
O O5 0.168509 0.680419 0.887519
O O6 0.250000 0.660592 0.000000
O O7 0.176581 0.600383 0.998183
O O8 0.745136 0.916673 0.262187
O O9 0.690275 0.918718 0.430044
O O10 0.686962 0.841070 0.305734
O O11 0.176656 0.426656 0.125000
#
# Coordination Sequence:
#
# PCOD8321026 Si02
#       5
#    32  32  32  32  32
#     4   8  17  30  44  64  87 115 154 194 235 272
#     4   9  17  29  44  64  92 122 152 189 226 272
#     4  10  20  31  45  67  94 124 161 191 223 275
#     4  10  20  33  46  66  97 129 159 193 229 276
#     4   9  16  29  47  64  85 118 154 194 236 269
#
# _framework density 16.826402999999999
#
# number of rings (size 3 to 8) (size 9 to 14) (size 15 to 20)
#    0.000    2.800    0.000    2.400    0.000    3.200 
#    0.000    8.000    0.000    0.000    0.000    0.000 
#    0.000   41.600    0.000    0.000    0.000    0.000 
#
# Total GULP energy -991407.901427 kJ/mol
# GULP energy per Si atom -12392.598768 kJ/mol
# Density = 1.678811 g / cm^3
# Si number density = 16.826403 Si / 1000 Ang^3
#
#
#
# Elastic Constant Matrix: (Units=GPa)
#
#
# Indices 1 2 3 4 5 6 
#
# 1 81.5463 18.8393 52.5077 0.0000 0.0000 0.0000
# 2 18.8393 81.5463 52.5077 0.0000 0.0000 0.0000
# 3 52.5077 52.5077 127.1997 0.0000 0.0000 0.0000
# 4 0.0000 0.0000 0.0000 23.2061 0.0000 0.0000
# 5 0.0000 0.0000 0.0000 0.0000 23.2061 0.0000
# 6 0.0000 0.0000 0.0000 0.0000 0.0000 1.2524
#
#
#
# Elastic Compliance Matrix: (Units=1/GPa)
#
#
# Indices 1 2 3 4 5 6 
#
# 1 0.016740 0.000793 -0.007238 0.000000 0.000000 0.000000
# 2 0.000793 0.016740 -0.007238 0.000000 0.000000 0.000000
# 3 -0.007238 -0.007238 0.013837 0.000000 0.000000 0.000000
# 4 0.000000 0.000000 0.000000 0.043092 0.000000 0.000000
# 5 0.000000 0.000000 0.000000 0.000000 0.043092 0.000000
# 6 0.000000 0.000000 0.000000 0.000000 0.000000 0.798483
#
#
# Mechanical properties :
#
#
# Convention : Reuss Voigt Hill
#
# Bulk Modulus (GPa) = 50.11876 59.77798 54.94837
# Shear Modulus (GPa) = 5.17599 20.62876 12.90238
#
# Velocity S-wave (km/s) = 1.75579 3.50519 2.77211
# Velocity P-wave (km/s) = 5.82759 7.21008 6.55538
#
# Compressibility (1/GPa) = 0.01995261
#
# Stress axis : x y z
#
# Youngs Moduli (GPa) = 59.73694 59.73694 72.27032
#
# Poissons Ratio (x) = -0.04736 0.52306
# Poissons Ratio (y) = -0.04736 0.52306
# Poissons Ratio (z) = 0.43235 0.43235
#
# Static dielectric constant tensor:
#      x y z
#    x 3.107440 0.000000 0.000000 
#    y 0.000000 3.107440 0.000000 
#    z 0.000000 0.000000 3.547430 
# 
# 
# High freq. dielectric constant tensor:
#      x y z
#    x 1.619430 0.000000 0.000000 
#    y 0.000000 1.619430 0.000000 
#    z 0.000000 0.000000 1.660760 
# 
# From -- ./inp_files/5396.got.cif
#   From: 2010.03.12/outbox.cif.g09.slc.cpg/sg142_3_cif.got.tgz:5396.got - 2010.04.03 13:27:16.
