data_PCOD8321308
_publ_section_title
;
Structure prediction by ZEFSAII (Michael W. Deem and Ramdas Pophale) SiO2 
 PCOD8321308
Probable space group: I 41/A C D
;
_chemical_formula_sum "Si O2"
_cell_formula_units_Z 160
_cell_length_a 20.515794
_cell_length_b 20.515794
_cell_length_c 16.767498
_cell_angle_alpha 90.000000
_cell_angle_beta 90.000000
_cell_angle_gamma 90.000000
_cell_volume 7057.403078
_symmetry_space_group_name_H-M "I 41/A C D"
_symmetry_group_IT_number 142
_space_group.IT_coordinate_system_code '2'
_symmetry_cell_setting 'tetragonal'
loop_
_space_group_symop_operation_xyz
x,y,z
1/4-y,3/4+x,1/4+z
-x,1/2-y,z
1/4+y,1/4-x,3/4+z
x,-y,1/2-z
1/2-x,y,-z
3/4+y,1/4+x,1/4-z
1/4-y,1/4-x,1/4-z
-x,-y,-z
3/4+y,1/4-x,3/4-z
x,1/2+y,-z
3/4-y,3/4+x,1/4-z
-x,y,1/2+z
1/2+x,-y,z
1/4-y,3/4-x,3/4+z
3/4+y,3/4+x,3/4+z
1/2+x,1/2+y,1/2+z
3/4-y,1/4+x,3/4+z
1/2-x,-y,1/2+z
3/4+y,3/4-x,1/4+z
1/2+x,1/2-y,-z
-x,1/2+y,1/2-z
1/4+y,3/4+x,3/4-z
3/4-y,3/4-x,3/4-z
1/2-x,1/2-y,1/2-z
1/4+y,3/4-x,1/4-z
1/2+x,y,1/2-z
1/4-y,1/4+x,3/4-z
1/2-x,1/2+y,z
x,1/2-y,1/2+z
3/4-y,1/4-x,1/4+z
1/4+y,1/4+x,1/4+z
loop_
_atom_site_type_symbol
_atom_site_label
_atom_site_fract_x
_atom_site_fract_y
_atom_site_fract_z
Si Si1 0.004564 0.508534 0.404713
Si Si2 0.915570 0.820501 0.021960
Si Si3 0.122650 0.953743 0.321858
Si Si4 0.935532 0.884616 0.177667
Si Si5 0.108185 0.199277 0.694940
O O1 0.930683 0.508637 0.374013
O O2 0.000000 0.500000 0.500000
O O3 0.041623 0.457428 0.345700
O O4 0.043434 0.575320 0.394318
O O5 0.897115 0.859466 0.101175
O O6 0.912156 0.744979 0.044474
O O7 0.863971 0.839781 0.955036
O O8 0.988022 0.842841 0.998524
O O9 0.186038 0.936038 0.375000
O O10 0.145848 0.000000 0.250000
O O11 0.886984 0.868130 0.251901
O O12 0.054364 0.195637 0.625000
#
# Coordination Sequence:
#
# PCOD8321308 Si02
#       5
#    32  32  32  32  32
#     4  12  24  46  69 102 147 197 242 299 385 458
#     4  12  23  41  69 107 143 186 235 304 383 441
#     4  12  25  44  76 110 143 198 260 308 369 460
#     4  12  24  42  69 104 145 193 237 305 380 446
#     4  12  27  41  67 110 149 184 241 315 379 453
#
# _framework density 22.671229
#
# number of rings (size 3 to 8) (size 9 to 14) (size 15 to 20)
#    0.000    0.000    8.000    1.800    0.000    2.400 
#    0.000    0.000    0.000    4.800    0.000    0.000 
#    0.000    0.000    0.000    0.000    0.000    0.000 
#
# Total GULP energy -991129.049219 kJ/mol
# GULP energy per Si atom -12389.113115 kJ/mol
# Density = 2.261963 g / cm^3
# Si number density = 22.671229 Si / 1000 Ang^3
#
#
#
# Elastic Constant Matrix: (Units=GPa)
#
#
# Indices 1 2 3 4 5 6 
#
# 1 78.2238 42.3707 36.5821 0.0000 0.0000 0.0000
# 2 42.3707 78.2235 36.5827 0.0000 0.0000 0.0000
# 3 36.5821 36.5827 121.8493 0.0000 0.0000 0.0000
# 4 0.0000 0.0000 0.0000 44.6773 0.0000 0.0000
# 5 0.0000 0.0000 0.0000 0.0000 44.6778 0.0000
# 6 0.0000 0.0000 0.0000 0.0000 0.0000 27.7278
#
#
#
# Elastic Compliance Matrix: (Units=1/GPa)
#
#
# Indices 1 2 3 4 5 6 
#
# 1 0.019015 -0.008876 -0.003044 0.000000 0.000000 0.000000
# 2 -0.008876 0.019016 -0.003044 0.000000 0.000000 0.000000
# 3 -0.003044 -0.003044 0.010035 0.000000 0.000000 0.000000
# 4 0.000000 0.000000 0.000000 0.022383 0.000000 0.000000
# 5 0.000000 0.000000 0.000000 0.000000 0.022382 0.000000
# 6 0.000000 0.000000 0.000000 0.000000 0.000000 0.036065
#
#
# Mechanical properties :
#
#
# Convention : Reuss Voigt Hill
#
# Bulk Modulus (GPa) = 55.13677 56.59641 55.86659
# Shear Modulus (GPa) = 30.32695 34.26732 32.29713
#
# Velocity S-wave (km/s) = 3.66140 3.89201 3.77846
# Velocity P-wave (km/s) = 6.49980 6.72422 6.61296
#
# Compressibility (1/GPa) = 0.01813672
#
# Stress axis : x y z
#
# Youngs Moduli (GPa) = 52.58922 52.58868 99.65469
#
# Poissons Ratio (x) = 0.46679 0.30334
# Poissons Ratio (y) = 0.46680 0.30336
# Poissons Ratio (z) = 0.16008 0.16009
#
# Static dielectric constant tensor:
#      x y z
#    x 4.178200 0.000000 0.000000 
#    y 0.000000 4.178200 0.000000 
#    z 0.000000 0.000000 4.486110 
# 
# 
# High freq. dielectric constant tensor:
#      x y z
#    x 1.874320 0.000000 0.000000 
#    y 0.000000 1.874320 0.000000 
#    z 0.000000 0.000000 1.927230 
# 
# From -- ./inp_files/7375.got.cif
#   From: 2010.03.12/outbox.cif.g09.slc.cpg/sg142_4_cif.got.tgz:7375.got - 2010.04.03 13:27:16.
