data_PCOD8321960
_publ_section_title
;
Structure prediction by ZEFSAII (Michael W. Deem and Ramdas Pophale) SiO2 
 PCOD8321960
Probable space group: P 31 1 2
;
_chemical_formula_sum "Si O2"
_cell_formula_units_Z 42
_cell_length_a 8.661578
_cell_length_b 8.661578
_cell_length_c 31.749520
_cell_angle_alpha 90.000000
_cell_angle_beta 90.000000
_cell_angle_gamma 120.000000
_cell_volume 2062.822391
_symmetry_space_group_name_H-M "P 31 1 2"
_symmetry_group_IT_number 151
_symmetry_cell_setting 'hexagonal'
loop_
_space_group_symop_operation_xyz
x,y,z
-y,x-y,1/3+z
-x+y,-x,2/3+z
-y,-x,2/3-z
-x+y,y,1/3-z
x,x-y,-z
loop_
_atom_site_type_symbol
_atom_site_label
_atom_site_fract_x
_atom_site_fract_y
_atom_site_fract_z
Si Si1 0.449578 0.945542 0.213144
Si Si2 0.538325 0.596856 0.489772
Si Si3 0.587298 0.408405 0.286469
Si Si4 0.871097 0.138839 0.094168
Si Si5 0.498215 0.303947 0.099237
Si Si6 0.136845 0.719699 0.084635
Si Si7 0.150561 0.067128 0.050697
O O1 0.433065 0.866129 0.166667
O O2 0.449202 0.800769 0.246160
O O3 0.278510 0.969015 0.221311
O O4 0.632073 0.136089 0.214335
O O5 0.473953 0.736977 0.500000
O O6 0.723198 0.703397 0.464363
O O7 0.574461 0.517434 0.531627
O O8 0.383095 0.433882 0.462458
O O9 0.624934 0.375067 0.333334
O O10 0.419175 0.223320 0.274075
O O11 0.754040 0.437326 0.257802
O O12 0.541066 0.568745 0.283772
O O13 0.986965 0.076196 0.069514
O O14 0.335636 0.234014 0.066185
O O15 0.112826 0.884053 0.072040
O O16 0.147309 0.073655 0.000000
#
# Coordination Sequence:
#
# PCOD8321960 Si02
#       7
#     6   6   6   6   6   6   6
#     4  10  19  38  58  86 123 157 193 248 307 367
#     4  11  20  40  61  92 124 154 201 251 318 377
#     4  10  21  41  60  86 120 163 205 249 296 368
#     4  10  21  36  66  83 118 164 200 246 307 362
#     4  10  21  37  66  90 113 164 208 247 301 370
#     4  10  24  38  59  91 122 158 199 258 310 352
#     4  11  22  42  62  91 121 161 209 253 299 372
#
# _framework density 20.360451999999999
#
# number of rings (size 3 to 8) (size 9 to 14) (size 15 to 20)
#    0.000    1.714    2.857    1.714    0.000    0.000 
#    7.714    0.714    0.000    0.000    0.000    0.000 
#    0.000    0.000    0.000    0.000    0.000    0.000 
#
# Total GULP energy -520401.848537 kJ/mol
# GULP energy per Si atom -12390.520203 kJ/mol
# Density = 2.031411 g / cm^3
# Si number density = 20.360452 Si / 1000 Ang^3
#
#
#
# Elastic Constant Matrix: (Units=GPa)
#
#
# Indices 1 2 3 4 5 6 
#
# 1 92.7192 34.7063 54.4912 -0.0020 -3.9439 0.0000
# 2 34.7063 92.7192 54.4912 0.0020 3.9439 0.0000
# 3 54.4912 54.4912 138.2495 0.0000 0.0000 0.0000
# 4 -0.0020 0.0020 0.0000 5.6367 0.0000 3.9439
# 5 -3.9439 3.9439 0.0000 0.0000 5.6367 -0.0020
# 6 0.0000 0.0000 0.0000 3.9439 -0.0020 29.0065
#
#
#
# Elastic Compliance Matrix: (Units=1/GPa)
#
#
# Indices 1 2 3 4 5 6 
#
# 1 0.015444 -0.003606 -0.004666 0.000007 0.013329 0.000000
# 2 -0.003606 0.015444 -0.004666 -0.000007 -0.013329 0.000000
# 3 -0.004666 -0.004666 0.010912 0.000000 0.000000 0.000000
# 4 0.000007 -0.000007 0.000000 0.196062 0.000000 -0.026658
# 5 0.013329 -0.013329 0.000000 0.000000 0.196062 0.000014
# 6 0.000000 0.000000 0.000000 -0.026658 0.000014 0.038100
#
#
# Mechanical properties :
#
#
# Convention : Reuss Voigt Hill
#
# Bulk Modulus (GPa) = 62.79816 67.89613 65.34714
# Shear Modulus (GPa) = 9.93624 20.05591 14.99608
#
# Velocity S-wave (km/s) = 2.21151 3.14194 2.71685
# Velocity P-wave (km/s) = 6.11810 6.82509 6.48124
#
# Compressibility (1/GPa) = 0.01592403
#
# Stress axis : x y z
#
# Youngs Moduli (GPa) = 64.74938 64.74938 91.64522
#
# Poissons Ratio (x) = 0.23346 0.42763
# Poissons Ratio (y) = 0.23346 0.42763
# Poissons Ratio (z) = 0.30213 0.30213
#
# Static dielectric constant tensor:
#      x y z
#    x 4.297160 0.000000 0.000000 
#    y 0.000000 4.297160 0.000000 
#    z 0.000000 0.000000 2.995450 
# 
# 
# High freq. dielectric constant tensor:
#      x y z
#    x 1.792950 0.000000 0.000000 
#    y 0.000000 1.792950 0.000000 
#    z 0.000000 0.000000 1.792760 
# 
# From -- ./inp_files/5004.got.cif
#   From: 2010.03.12/outbox.cif.g09.slc.cpg/sg151_3_cif.got.tgz:5004.got - 2010.04.03 13:42:29.
