data_PCOD8321571
_publ_section_title
;
Structure prediction by ZEFSAII (Michael W. Deem and Ramdas Pophale) SiO2 
 PCOD8321571
Probable space group: R 3
;
_chemical_formula_sum "Si O2"
_cell_formula_units_Z 42
_cell_length_a 10.866617
_cell_length_b 10.866617
_cell_length_c 21.213636
_cell_angle_alpha 90.000000
_cell_angle_beta 90.000000
_cell_angle_gamma 120.000000
_cell_volume 2169.374171
_symmetry_space_group_name_H-M "R 3"
_symmetry_group_IT_number 146
_symmetry_cell_setting 'hexagonal'
loop_
_space_group_symop_operation_xyz
x,y,z
-y,x-y,z
-x+y,-x,z
2/3+x,1/3+y,1/3+z
2/3-y,1/3+x-y,1/3+z
2/3-x+y,1/3-x,1/3+z
1/3+x,2/3+y,2/3+z
1/3-y,2/3+x-y,2/3+z
1/3-x+y,2/3-x,2/3+z
loop_
_atom_site_type_symbol
_atom_site_label
_atom_site_fract_x
_atom_site_fract_y
_atom_site_fract_z
Si Si1 0.541343 0.384359 0.699950
Si Si2 0.713652 0.991600 0.134692
Si Si3 0.000000 0.000000 0.961346
Si Si4 0.055383 0.675063 0.605489
Si Si5 0.384351 0.541337 0.373565
Si Si6 0.666668 0.333335 0.445499
O O1 0.509133 0.220645 0.697976
O O2 0.478884 0.408648 0.764079
O O3 0.470249 0.414263 0.640211
O O4 0.652688 0.986017 0.203425
O O5 0.747583 0.136909 0.099971
O O6 0.856221 0.984276 0.139477
O O7 0.143785 0.128050 0.934036
O O8 0.000000 0.000000 0.036756
O O9 0.075304 0.812209 0.642769
O O10 0.490866 0.711505 0.375539
#
# Coordination Sequence:
#
# PCOD8321571 Si02
#       6
#     9   9   3   9   9   3
#     4   9  22  43  65  92 130 166 211 258 322 376
#     4  11  25  42  67  97 127 168 216 267 314 376
#     4  12  24  45  63  99 129 171 211 257 328 384
#     4  11  25  42  67  97 127 168 216 267 314 376
#     4   9  22  43  65  92 130 166 211 258 322 376
#     4  12  24  45  63  99 129 171 211 257 328 384
#
# _framework density 19.360423000000001
#
# number of rings (size 3 to 8) (size 9 to 14) (size 15 to 20)
#    0.857    0.857    4.286    0.000    6.000    8.571 
#    0.000    0.000    0.000    0.000    0.000    0.000 
#    0.000    0.000    0.000    0.000    0.000    0.000 
#
# Total GULP energy -173579.080008 kJ/mol
# GULP energy per Si atom -12398.505715 kJ/mol
# Density = 1.931636 g / cm^3
# Si number density = 19.360423 Si / 1000 Ang^3
#
#
#
# Elastic Constant Matrix: (Units=GPa)
#
#
# Indices 1 2 3 4 5 6 
#
# 1 86.3538 1.1247 -4.5072 6.5436 -0.0015 -0.0005
# 2 1.1247 86.3560 -4.5062 -6.5455 0.0015 -0.0006
# 3 -4.5072 -4.5062 107.8997 -0.0008 -0.0004 -0.0003
# 4 6.5436 -6.5455 -0.0008 10.1887 -0.0002 0.0014
# 5 -0.0015 0.0015 -0.0004 -0.0002 10.1882 6.5452
# 6 -0.0005 -0.0006 -0.0003 0.0014 6.5452 42.6149
#
#
#
# Elastic Compliance Matrix: (Units=1/GPa)
#
#
# Indices 1 2 3 4 5 6 
#
# 1 0.012249 -0.000768 0.000480 -0.008360 0.000002 0.000000
# 2 -0.000768 0.012249 0.000480 0.008362 -0.000002 0.000000
# 3 0.000480 0.000480 0.009308 0.000001 0.000000 0.000000
# 4 -0.008360 0.008362 0.000001 0.108889 0.000002 -0.000004
# 5 0.000002 -0.000002 0.000000 0.000002 0.108898 -0.016726
# 6 0.000000 0.000000 0.000000 -0.000004 -0.016726 0.026035
#
#
# Mechanical properties :
#
#
# Convention : Reuss Voigt Hill
#
# Bulk Modulus (GPa) = 29.25066 29.42580 29.33823
# Shear Modulus (GPa) = 17.32257 31.83159 24.57708
#
# Velocity S-wave (km/s) = 2.99447 4.05922 3.56680
# Velocity P-wave (km/s) = 5.20548 6.09931 5.67004
#
# Compressibility (1/GPa) = 0.03418726
#
# Stress axis : x y z
#
# Youngs Moduli (GPa) = 81.64072 81.64049 107.43533
#
# Poissons Ratio (x) = 0.06271 -0.05152
# Poissons Ratio (y) = 0.06271 -0.05152
# Poissons Ratio (z) = -0.03915 -0.03915
#
# Static dielectric constant tensor:
#      x y z
#    x 3.538520 -0.000010 0.000000 
#    y -0.000010 3.538510 0.000000 
#    z 0.000000 0.000000 3.458150 
# 
# 
# High freq. dielectric constant tensor:
#      x y z
#    x 1.757930 0.000000 0.000000 
#    y 0.000000 1.757930 0.000000 
#    z 0.000000 0.000000 1.749180 
# 
# From -- ./inp_files/1897.got.cif
#   From: 2010.06.25/outbox.cif.g09.slc.cpg/sg146_cif.got.tgz:1897.got - 2010.06.28 11:17:22.
