data_PCOD8321357
_publ_section_title
;
Structure prediction by ZEFSAII (Michael W. Deem and Ramdas Pophale) SiO2 
 PCOD8321357
Probable space group: P 31
;
_chemical_formula_sum "Si O2"
_cell_formula_units_Z 24
_cell_length_a 10.744995
_cell_length_b 10.744995
_cell_length_c 13.539387
_cell_angle_alpha 90.000000
_cell_angle_beta 90.000000
_cell_angle_gamma 120.000000
_cell_volume 1353.761220
_symmetry_space_group_name_H-M "P 31"
_symmetry_group_IT_number 144
_symmetry_cell_setting 'hexagonal'
loop_
_space_group_symop_operation_xyz
x,y,z
-y,x-y,1/3+z
-x+y,-x,2/3+z
loop_
_atom_site_type_symbol
_atom_site_label
_atom_site_fract_x
_atom_site_fract_y
_atom_site_fract_z
Si Si1 0.414499 0.616993 0.563250
Si Si2 0.121047 0.205577 0.430884
Si Si3 0.563257 0.954976 0.554423
Si Si4 0.205626 0.121384 0.238802
Si Si5 0.490350 0.131664 0.227303
Si Si6 0.509660 0.641116 0.776075
Si Si7 0.797678 0.382783 0.773586
Si Si8 0.608436 0.044825 0.782302
O O1 0.475551 0.784482 0.538530
O O2 0.407322 0.587365 0.680552
O O3 0.254751 0.538650 0.523059
O O4 0.497677 0.541135 0.511086
O O5 0.118824 0.119022 0.334793
O O6 0.084546 0.330539 0.402314
O O7 0.275439 0.278490 0.484855
O O8 0.999740 0.088416 0.501406
O O9 0.569371 0.999975 0.668360
O O10 0.724109 0.002819 0.518315
O O11 0.501888 0.043256 0.492384
O O12 0.330428 0.084703 0.267497
O O13 0.538924 0.255182 0.147152
O O14 0.592398 0.179949 0.322959
O O15 0.489080 0.000172 0.168312
O O16 0.691281 0.215296 0.798307
#
# Coordination Sequence:
#
# PCOD8321357 Si02
#       8
#     3   3   3   3   3   3   3   3
#     4  11  20  38  60  84 121 152 205 248 311 369
#     4   9  16  34  56  75 107 147 192 223 294 357
#     4  10  20  37  57  84 112 159 195 242 309 362
#     4   9  16  34  56  75 107 147 192 223 294 357
#     4  10  22  35  59  86 112 159 197 251 303 374
#     4  10  22  35  59  86 112 159 197 251 303 374
#     4  11  20  38  60  84 121 152 205 248 311 369
#     4  10  20  37  57  84 112 159 195 242 309 362
#
# _framework density 17.728383999999998
#
# number of rings (size 3 to 8) (size 9 to 14) (size 15 to 20)
#    0.000    2.000    7.500    0.000    3.500    0.000 
#    0.000    1.250    0.000   12.000    0.000    0.000 
#    0.000    0.000    0.000    0.000    0.000    0.000 
#
# Total GULP energy -297381.837769 kJ/mol
# GULP energy per Si atom -12390.909907 kJ/mol
# Density = 1.768803 g / cm^3
# Si number density = 17.728384 Si / 1000 Ang^3
#
#
#
# Elastic Constant Matrix: (Units=GPa)
#
#
# Indices 1 2 3 4 5 6 
#
# 1 92.1213 36.9903 57.5806 -7.7347 -0.0042 0.0000
# 2 36.9903 92.1213 57.5806 7.7347 0.0042 0.0000
# 3 57.5806 57.5806 131.6210 0.0000 0.0000 0.0000
# 4 -7.7347 7.7347 0.0000 32.2384 0.0000 0.0042
# 5 -0.0042 0.0042 0.0000 0.0000 32.2384 -7.7347
# 6 0.0000 0.0000 0.0000 0.0042 -7.7347 27.5655
#
#
#
# Elastic Compliance Matrix: (Units=1/GPa)
#
#
# Indices 1 2 3 4 5 6 
#
# 1 0.016075 -0.003373 -0.005557 0.004666 0.000003 0.000000
# 2 -0.003373 0.016075 -0.005557 -0.004666 -0.000003 0.000000
# 3 -0.005557 -0.005557 0.012459 0.000000 0.000000 0.000000
# 4 0.004666 -0.004666 0.000000 0.033258 0.000000 -0.000005
# 5 0.000003 -0.000003 0.000000 0.000000 0.033258 0.009332
# 6 0.000000 0.000000 0.000000 -0.000005 0.009332 0.038896
#
#
# Mechanical properties :
#
#
# Convention : Reuss Voigt Hill
#
# Bulk Modulus (GPa) = 63.95522 68.90737 66.43129
# Shear Modulus (GPa) = 27.14375 29.32260 28.23318
#
# Velocity S-wave (km/s) = 3.91716 4.07134 3.99499
# Velocity P-wave (km/s) = 7.52411 7.81370 7.67027
#
# Compressibility (1/GPa) = 0.01563594
#
# Stress axis : x y z
#
# Youngs Moduli (GPa) = 62.20985 62.20985 80.26190
#
# Poissons Ratio (x) = 0.20985 0.44598
# Poissons Ratio (y) = 0.20985 0.44598
# Poissons Ratio (z) = 0.34567 0.34567
#
# Static dielectric constant tensor:
#      x y z
#    x 3.365710 0.000000 0.000000 
#    y 0.000000 3.365710 0.000000 
#    z 0.000000 0.000000 3.340750 
# 
# 
# High freq. dielectric constant tensor:
#      x y z
#    x 1.675520 0.000000 0.000000 
#    y 0.000000 1.675520 0.000000 
#    z 0.000000 0.000000 1.681350 
# 
# From -- ./inp_files/675.got.cif
#   From: 2010.03.12/outbox.cif.g09.slc.cpg/sg144_cif.got.tgz:675.got - 2010.04.03 13:34:42.
