data_PCOD8321137
_publ_section_title
;
Structure prediction by ZEFSAII (Michael W. Deem and Ramdas Pophale) SiO2 
 PCOD8321137
Probable space group: I 41/A C D
;
_chemical_formula_sum "Si O2"
_cell_formula_units_Z 160
_cell_length_a 16.498467
_cell_length_b 16.498467
_cell_length_c 28.720399
_cell_angle_alpha 90.000000
_cell_angle_beta 90.000000
_cell_angle_gamma 90.000000
_cell_volume 7817.675759
_symmetry_space_group_name_H-M "I 41/A C D"
_symmetry_group_IT_number 142
_space_group.IT_coordinate_system_code '2'
_symmetry_cell_setting 'tetragonal'
loop_
_space_group_symop_operation_xyz
x,y,z
1/4-y,3/4+x,1/4+z
-x,1/2-y,z
1/4+y,1/4-x,3/4+z
x,-y,1/2-z
1/2-x,y,-z
3/4+y,1/4+x,1/4-z
1/4-y,1/4-x,1/4-z
-x,-y,-z
3/4+y,1/4-x,3/4-z
x,1/2+y,-z
3/4-y,3/4+x,1/4-z
-x,y,1/2+z
1/2+x,-y,z
1/4-y,3/4-x,3/4+z
3/4+y,3/4+x,3/4+z
1/2+x,1/2+y,1/2+z
3/4-y,1/4+x,3/4+z
1/2-x,-y,1/2+z
3/4+y,3/4-x,1/4+z
1/2+x,1/2-y,-z
-x,1/2+y,1/2-z
1/4+y,3/4+x,3/4-z
3/4-y,3/4-x,3/4-z
1/2-x,1/2-y,1/2-z
1/4+y,3/4-x,1/4-z
1/2+x,y,1/2-z
1/4-y,1/4+x,3/4-z
1/2-x,1/2+y,z
x,1/2-y,1/2+z
3/4-y,1/4-x,1/4+z
1/4+y,1/4+x,1/4+z
loop_
_atom_site_type_symbol
_atom_site_label
_atom_site_fract_x
_atom_site_fract_y
_atom_site_fract_z
Si Si1 0.542199 0.671930 0.677593
Si Si2 0.711069 0.336626 0.448894
Si Si3 0.743119 0.859224 0.706278
Si Si4 0.273790 0.670709 0.193570
Si Si5 0.188732 0.927327 0.121298
O O1 0.500000 0.750000 0.703534
O O2 0.551137 0.698864 0.625000
O O3 0.493964 0.588141 0.685157
O O4 0.631499 0.653247 0.694741
O O5 0.750000 0.329278 0.500000
O O6 0.646553 0.408131 0.440843
O O7 0.784184 0.353179 0.412549
O O8 0.744479 0.764219 0.698124
O O9 0.748329 0.880265 0.760789
O O10 0.818100 0.893574 0.674536
O O11 0.222290 0.640905 0.148712
O O12 0.255428 0.994573 0.125000
#
# Coordination Sequence:
#
# PCOD8321137 Si02
#       5
#    32  32  32  32  32
#     4  11  23  39  65  96 126 165 220 274 332 394
#     4  11  21  42  63  94 129 169 218 271 336 398
#     4  10  22  40  66  91 131 178 217 276 336 405
#     4  11  21  42  64  92 133 173 222 276 339 402
#     4  10  22  37  62  92 127 169 218 271 328 397
#
# _framework density 20.466439999999999
#
# number of rings (size 3 to 8) (size 9 to 14) (size 15 to 20)
#    0.000    1.400    4.000    1.800    5.600    0.000 
#   14.400    0.000    0.000    0.000    0.000    0.000 
#    0.000    0.000    0.000    0.000    0.000    0.000 
#
# Total GULP energy -991058.335906 kJ/mol
# GULP energy per Si atom -12388.229199 kJ/mol
# Density = 2.041986 g / cm^3
# Si number density = 20.466440 Si / 1000 Ang^3
#
#
#
# Elastic Constant Matrix: (Units=GPa)
#
#
# Indices 1 2 3 4 5 6 
#
# 1 84.4767 31.7191 24.6474 0.0000 0.0000 0.0000
# 2 31.7191 84.4775 24.6478 0.0000 0.0000 0.0000
# 3 24.6474 24.6478 100.4652 0.0000 0.0000 0.0000
# 4 0.0000 0.0000 0.0000 54.8398 0.0000 0.0000
# 5 0.0000 0.0000 0.0000 0.0000 54.8755 0.0000
# 6 0.0000 0.0000 0.0000 0.0000 0.0000 35.2971
#
#
#
# Elastic Compliance Matrix: (Units=1/GPa)
#
#
# Indices 1 2 3 4 5 6 
#
# 1 0.014280 -0.004674 -0.002357 0.000000 0.000000 0.000000
# 2 -0.004674 0.014280 -0.002357 0.000000 0.000000 0.000000
# 3 -0.002357 -0.002357 0.011110 0.000000 0.000000 0.000000
# 4 0.000000 0.000000 0.000000 0.018235 0.000000 0.000000
# 5 0.000000 0.000000 0.000000 0.000000 0.018223 0.000000
# 6 0.000000 0.000000 0.000000 0.000000 0.000000 0.028331
#
#
# Mechanical properties :
#
#
# Convention : Reuss Voigt Hill
#
# Bulk Modulus (GPa) = 47.85781 47.93865 47.89823
# Shear Modulus (GPa) = 38.40258 41.56284 39.98271
#
# Velocity S-wave (km/s) = 4.33641 4.51131 4.42472
# Velocity P-wave (km/s) = 6.96469 7.11405 7.03977
#
# Compressibility (1/GPa) = 0.02089523
#
# Stress axis : x y z
#
# Youngs Moduli (GPa) = 70.02682 70.02733 90.00866
#
# Poissons Ratio (x) = 0.32733 0.21212
# Poissons Ratio (y) = 0.32732 0.21212
# Poissons Ratio (z) = 0.16503 0.16503
#
# Static dielectric constant tensor:
#      x y z
#    x 4.911230 0.000000 0.000000 
#    y 0.000000 4.910280 0.000000 
#    z 0.000000 0.000000 4.437120 
# 
# 
# High freq. dielectric constant tensor:
#      x y z
#    x 1.792000 0.000000 0.000000 
#    y 0.000000 1.792000 0.000000 
#    z 0.000000 0.000000 1.805740 
# 
# From -- ./inp_files/11332.got.cif
#   From: 2010.03.12/outbox.cif.g09.slc.cpg/sg142_6_cif.got.tgz:11332.got - 2010.04.03 13:27:16.
