data_PCOD8321517
_publ_section_title
;
Structure prediction by ZEFSAII (Michael W. Deem and Ramdas Pophale) SiO2 
 PCOD8321517
Probable space group: R 3
;
_chemical_formula_sum "Si O2"
_cell_formula_units_Z 42
_cell_length_a 13.982862
_cell_length_b 13.982862
_cell_length_c 12.954342
_cell_angle_alpha 90.000000
_cell_angle_beta 90.000000
_cell_angle_gamma 120.000000
_cell_volume 2193.502497
_symmetry_space_group_name_H-M "R 3"
_symmetry_group_IT_number 146
_symmetry_cell_setting 'hexagonal'
loop_
_space_group_symop_operation_xyz
x,y,z
-y,x-y,z
-x+y,-x,z
2/3+x,1/3+y,1/3+z
2/3-y,1/3+x-y,1/3+z
2/3-x+y,1/3-x,1/3+z
1/3+x,2/3+y,2/3+z
1/3-y,2/3+x-y,2/3+z
1/3-x+y,2/3-x,2/3+z
loop_
_atom_site_type_symbol
_atom_site_label
_atom_site_fract_x
_atom_site_fract_y
_atom_site_fract_z
Si Si1 0.333335 0.666668 0.661567
Si Si2 0.813534 0.138380 0.418723
Si Si3 0.745157 0.174120 0.632040
Si Si4 0.862011 0.320283 0.270825
Si Si5 0.000000 0.000000 0.238921
Si Si6 0.326079 0.030844 0.740190
O O1 0.457112 0.713512 0.617672
O O2 0.333334 0.666667 0.783471
O O3 0.737663 0.118548 0.520069
O O4 0.788553 0.199036 0.324082
O O5 0.942360 0.221156 0.452054
O O6 0.786759 0.020749 0.375365
O O7 0.745584 0.288275 0.612189
O O8 0.858200 0.200664 0.687546
O O9 0.891049 0.317901 0.152189
O O10 0.981154 0.385737 0.326686
#
# Coordination Sequence:
#
# PCOD8321517 Si02
#       6
#     3   9   9   9   3   9
#     4  12  24  36  66 103 116 166 228 264 324 382
#     4  10  22  38  63  95 122 167 212 267 320 383
#     4  12  22  39  67  95 126 167 222 264 327 386
#     4  10  22  40  63  89 132 168 211 266 334 379
#     4  12  18  39  66  91 119 166 222 267 291 400
#     4  10  20  42  63  87 133 168 201 272 334 380
#
# _framework density 19.147459999999999
#
# number of rings (size 3 to 8) (size 9 to 14) (size 15 to 20)
#    1.286    0.000    6.429    0.000    3.000    1.714 
#    0.000    2.143    0.000    0.000    0.000    0.000 
#    0.000    0.000    0.000    0.000    0.000    0.000 
#
# Total GULP energy -173441.372598 kJ/mol
# GULP energy per Si atom -12388.669471 kJ/mol
# Density = 1.910388 g / cm^3
# Si number density = 19.147460 Si / 1000 Ang^3
#
#
#
# Elastic Constant Matrix: (Units=GPa)
#
#
# Indices 1 2 3 4 5 6 
#
# 1 67.9969 36.7960 38.7710 -0.7579 -0.8907 0.0011
# 2 36.7960 67.9957 38.7716 0.7573 0.8901 -0.0002
# 3 38.7710 38.7716 80.0208 -0.0002 -0.0001 -0.0006
# 4 -0.7579 0.7573 -0.0002 34.7184 0.0000 0.8902
# 5 -0.8907 0.8901 -0.0001 0.0000 34.7182 -0.7572
# 6 0.0011 -0.0002 -0.0006 0.8902 -0.7572 15.5990
#
#
#
# Elastic Compliance Matrix: (Units=1/GPa)
#
#
# Indices 1 2 3 4 5 6 
#
# 1 0.023504 -0.008628 -0.007207 0.000701 0.000824 -0.000002
# 2 -0.008628 0.023505 -0.007208 -0.000701 -0.000824 0.000001
# 3 -0.007207 -0.007208 0.019481 0.000000 0.000000 0.000001
# 4 0.000701 -0.000701 0.000000 0.028876 0.000000 -0.001648
# 5 0.000824 -0.000824 0.000000 0.000000 0.028876 0.001402
# 6 -0.000002 0.000001 0.000001 -0.001648 0.001402 0.064269
#
#
# Mechanical properties :
#
#
# Convention : Reuss Voigt Hill
#
# Bulk Modulus (GPa) = 49.01318 49.41004 49.21161
# Shear Modulus (GPa) = 20.71266 23.78544 22.24905
#
# Velocity S-wave (km/s) = 3.29256 3.52834 3.41249
# Velocity P-wave (km/s) = 6.33308 6.51613 6.42526
#
# Compressibility (1/GPa) = 0.02040267
#
# Stress axis : x y z
#
# Youngs Moduli (GPa) = 42.54653 42.54499 51.33146
#
# Poissons Ratio (x) = 0.36708 0.36997
# Poissons Ratio (y) = 0.36709 0.37000
# Poissons Ratio (z) = 0.30665 0.30667
#
# Static dielectric constant tensor:
#      x y z
#    x 3.305660 0.000000 0.000000 
#    y 0.000000 3.305680 0.000000 
#    z 0.000000 0.000000 3.382270 
# 
# 
# High freq. dielectric constant tensor:
#      x y z
#    x 1.726360 0.000000 0.000000 
#    y 0.000000 1.726360 0.000000 
#    z 0.000000 0.000000 1.743870 
# 
# From -- ./inp_files/1102.got.cif
#   From: 2010.06.25/outbox.cif.g09.slc.cpg/sg146_cif.got.tgz:1102.got - 2010.06.28 11:17:22.
