data_PCOD8321570
_publ_section_title
;
Structure prediction by ZEFSAII (Michael W. Deem and Ramdas Pophale) SiO2 
 PCOD8321570
Probable space group: R 3
;
_chemical_formula_sum "Si O2"
_cell_formula_units_Z 45
_cell_length_a 10.513166
_cell_length_b 10.513166
_cell_length_c 20.344011
_cell_angle_alpha 90.000000
_cell_angle_beta 90.000000
_cell_angle_gamma 120.000000
_cell_volume 1947.306248
_symmetry_space_group_name_H-M "R 3"
_symmetry_group_IT_number 146
_symmetry_cell_setting 'hexagonal'
loop_
_space_group_symop_operation_xyz
x,y,z
-y,x-y,z
-x+y,-x,z
2/3+x,1/3+y,1/3+z
2/3-y,1/3+x-y,1/3+z
2/3-x+y,1/3-x,1/3+z
1/3+x,2/3+y,2/3+z
1/3-y,2/3+x-y,2/3+z
1/3-x+y,2/3-x,2/3+z
loop_
_atom_site_type_symbol
_atom_site_label
_atom_site_fract_x
_atom_site_fract_y
_atom_site_fract_z
Si Si1 0.399010 0.423243 0.699420
Si Si2 0.728097 0.664008 0.550169
Si Si3 0.602971 0.599334 0.363962
Si Si4 0.158067 0.825664 0.455402
Si Si5 0.977438 0.578908 0.547286
O O1 0.231568 0.376192 0.712586
O O2 0.519565 0.583781 0.723645
O O3 0.433263 0.309843 0.738794
O O4 0.412819 0.425146 0.622615
O O5 0.707213 0.713197 0.622968
O O6 0.765912 0.801266 0.502536
O O7 0.855662 0.626225 0.540280
O O8 0.584521 0.516209 0.524876
O O9 0.565968 0.702795 0.409125
O O10 0.118157 0.688084 0.503484
#
# Coordination Sequence:
#
# PCOD8321570 Si02
#       5
#     9   9   9   9   9
#     4  11  24  47  72 105 142 188 239 292 354 429
#     4  11  24  47  72 105 142 188 239 292 354 429
#     4  11  24  47  72 105 142 188 239 292 354 429
#     4  12  24  44  68 108 140 180 240 296 356 414
#     4  11  24  47  72 105 142 188 239 292 354 429
#
# _framework density 23.108846
#
# number of rings (size 3 to 8) (size 9 to 14) (size 15 to 20)
#    0.000    0.800    4.000    3.200    0.000    0.000 
#   19.200    6.000    0.000    0.000    0.000    0.000 
#    0.000    0.000    0.000    0.000    0.000    0.000 
#
# Total GULP energy -185862.319301 kJ/mol
# GULP energy per Si atom -12390.821287 kJ/mol
# Density = 2.305625 g / cm^3
# Si number density = 23.108846 Si / 1000 Ang^3
#
#
#
# Elastic Constant Matrix: (Units=GPa)
#
#
# Indices 1 2 3 4 5 6 
#
# 1 116.8354 59.2707 31.9986 -4.0139 -0.0624 0.0000
# 2 59.2707 116.8354 31.9986 4.0139 0.0624 0.0000
# 3 31.9986 31.9986 94.5573 0.0000 0.0000 0.0000
# 4 -4.0139 4.0139 0.0000 44.5108 0.0000 0.0624
# 5 -0.0624 0.0624 0.0000 0.0000 44.5108 -4.0139
# 6 0.0000 0.0000 0.0000 0.0624 -4.0139 28.7824
#
#
#
# Elastic Compliance Matrix: (Units=1/GPa)
#
#
# Indices 1 2 3 4 5 6 
#
# 1 0.012034 -0.005559 -0.002191 0.001586 0.000025 0.000000
# 2 -0.005559 0.012034 -0.002191 -0.001586 -0.000025 0.000000
# 3 -0.002191 -0.002191 0.012059 0.000000 0.000000 0.000000
# 4 0.001586 -0.001586 0.000000 0.022753 0.000000 -0.000049
# 5 0.000025 -0.000025 0.000000 0.000000 0.022753 0.003173
# 6 0.000000 0.000000 0.000000 -0.000049 0.003173 0.035186
#
#
# Mechanical properties :
#
#
# Convention : Reuss Voigt Hill
#
# Bulk Modulus (GPa) = 61.56272 63.86265 62.71268
# Shear Modulus (GPa) = 35.18284 37.22481 36.20383
#
# Velocity S-wave (km/s) = 3.90613 4.01789 3.96241
# Velocity P-wave (km/s) = 6.85872 7.01571 6.93766
#
# Compressibility (1/GPa) = 0.01624360
#
# Stress axis : x y z
#
# Youngs Moduli (GPa) = 83.09902 83.09902 82.92900
#
# Poissons Ratio (x) = 0.46197 0.18170
# Poissons Ratio (y) = 0.46197 0.18170
# Poissons Ratio (z) = 0.18207 0.18207
#
# Static dielectric constant tensor:
#      x y z
#    x 4.380420 0.000000 0.000000 
#    y 0.000000 4.380420 0.000000 
#    z 0.000000 0.000000 5.753990 
# 
# 
# High freq. dielectric constant tensor:
#      x y z
#    x 1.903900 0.000000 0.000000 
#    y 0.000000 1.903900 0.000000 
#    z 0.000000 0.000000 1.957000 
# 
# From -- ./inp_files/1880.got.cif
#   From: 2010.06.25/outbox.cif.g09.slc.cpg/sg146_cif.got.tgz:1880.got - 2010.06.28 11:17:22.
