data_PCOD8321746
_publ_section_title
;
Structure prediction by ZEFSAII (Michael W. Deem and Ramdas Pophale) SiO2 
 PCOD8321746
Probable space group: R -3
;
_chemical_formula_sum "Si O2"
_cell_formula_units_Z 126
_cell_length_a 18.026857
_cell_length_b 18.026857
_cell_length_c 21.995601
_cell_angle_alpha 90.000000
_cell_angle_beta 90.000000
_cell_angle_gamma 120.000000
_cell_volume 6190.225814
_symmetry_space_group_name_H-M "R -3"
_symmetry_group_IT_number 148
_symmetry_cell_setting 'hexagonal'
loop_
_space_group_symop_operation_xyz
x,y,z
-y,x-y,z
-x+y,-x,z
-x,-y,-z
y,-x+y,-z
x-y,x,-z
2/3+x,1/3+y,1/3+z
2/3-y,1/3+x-y,1/3+z
2/3-x+y,1/3-x,1/3+z
2/3-x,1/3-y,1/3-z
2/3+y,1/3-x+y,1/3-z
2/3+x-y,1/3+x,1/3-z
1/3+x,2/3+y,2/3+z
1/3-y,2/3+x-y,2/3+z
1/3-x+y,2/3-x,2/3+z
1/3-x,2/3-y,2/3-z
1/3+y,2/3-x+y,2/3-z
1/3+x-y,2/3+x,2/3-z
loop_
_atom_site_type_symbol
_atom_site_label
_atom_site_fract_x
_atom_site_fract_y
_atom_site_fract_z
Si Si1 0.099433 0.902928 0.641041
Si Si2 0.905202 0.102255 0.647488
Si Si3 0.212328 0.477397 0.656692
Si Si4 0.806884 0.684367 0.891707
Si Si5 0.300482 0.176069 0.761912
Si Si6 0.326592 0.203910 0.257276
Si Si7 0.382290 0.387385 0.468523
O O1 0.134730 0.871823 0.585197
O O2 0.147007 0.906376 0.704118
O O3 0.998351 0.836585 0.639690
O O4 0.118664 0.999921 0.633640
O O5 0.894802 0.127424 0.716030
O O6 0.891213 0.163800 0.601816
O O7 0.187373 0.549734 0.644550
O O8 0.215479 0.433771 0.593071
O O9 0.139322 0.403761 0.698204
O O10 0.821114 0.690879 0.820535
O O11 0.719897 0.686235 0.900038
O O12 0.261141 0.234043 0.785414
O O13 0.320724 0.268059 0.208067
O O14 0.349902 0.139447 0.224768
#
# Coordination Sequence:
#
# PCOD8321746 Si02
#       7
#    18  18  18  18  18  18  18
#     4  11  23  42  63  95 124 174 209 268 323 392
#     4  11  24  42  65  89 134 163 219 261 333 388
#     4  11  22  40  60  92 128 167 205 259 321 389
#     4  11  24  40  65  92 126 160 220 259 323 383
#     4  11  24  42  63  96 122 171 210 274 320 386
#     4  10  22  38  68  91 124 166 212 268 323 372
#     4  11  20  42  64  91 125 157 217 264 310 388
#
# _framework density 20.354669000000001
#
# number of rings (size 3 to 8) (size 9 to 14) (size 15 to 20)
#    0.000    1.143    4.286    2.143    2.000    0.000 
#    2.571    0.000    0.000    1.714    0.000    0.000 
#    0.000    0.000    0.000    0.000    0.000    0.000 
#
# Total GULP energy -520692.742470 kJ/mol
# GULP energy per Si atom -12397.446249 kJ/mol
# Density = 2.030834 g / cm^3
# Si number density = 20.354669 Si / 1000 Ang^3
#
#
#
# Elastic Constant Matrix: (Units=GPa)
#
#
# Indices 1 2 3 4 5 6 
#
# 1 85.9026 25.0537 35.0081 -0.8923 -0.2355 0.0000
# 2 25.0537 85.9026 35.0081 0.8923 0.2355 0.0000
# 3 35.0081 35.0081 116.0644 0.0000 0.0000 0.0000
# 4 -0.8923 0.8923 0.0000 24.6201 0.0000 0.2355
# 5 -0.2355 0.2355 0.0000 0.0000 24.6201 -0.8923
# 6 0.0000 0.0000 0.0000 0.2355 -0.8923 30.4244
#
#
#
# Elastic Compliance Matrix: (Units=1/GPa)
#
#
# Indices 1 2 3 4 5 6 
#
# 1 0.013792 -0.002661 -0.003357 0.000596 0.000157 0.000000
# 2 -0.002661 0.013792 -0.003357 -0.000596 -0.000157 0.000000
# 3 -0.003357 -0.003357 0.010641 0.000000 0.000000 0.000000
# 4 0.000596 -0.000596 0.000000 0.040664 0.000000 -0.000315
# 5 0.000157 -0.000157 0.000000 0.000000 0.040664 0.001193
# 6 0.000000 0.000000 0.000000 -0.000315 0.001193 0.032906
#
#
# Mechanical properties :
#
#
# Convention : Reuss Voigt Hill
#
# Bulk Modulus (GPa) = 51.35090 53.11213 52.23151
# Shear Modulus (GPa) = 28.13717 28.78623 28.46170
#
# Velocity S-wave (km/s) = 3.72202 3.76471 3.74343
# Velocity P-wave (km/s) = 6.61469 6.71173 6.66339
#
# Compressibility (1/GPa) = 0.01947386
#
# Stress axis : x y z
#
# Youngs Moduli (GPa) = 72.50564 72.50564 93.97350
#
# Poissons Ratio (x) = 0.19293 0.31551
# Poissons Ratio (y) = 0.19293 0.31551
# Poissons Ratio (z) = 0.24343 0.24343
#
# Static dielectric constant tensor:
#      x y z
#    x 3.576970 0.000000 0.000000 
#    y 0.000000 3.576970 0.000000 
#    z 0.000000 0.000000 3.829040 
# 
# 
# High freq. dielectric constant tensor:
#      x y z
#    x 1.794030 0.000000 0.000000 
#    y 0.000000 1.794030 0.000000 
#    z 0.000000 0.000000 1.800560 
# 
# From -- ./inp_files/3447.got.cif
#   From: 2010.03.12/outbox.cif.g09.slc.cpg/sg148_2_cif.got.tgz:3447.got - 2010.04.03 13:38:46.
