data_PCOD8321973
_publ_section_title
;
Structure prediction by ZEFSAII (Michael W. Deem and Ramdas Pophale) SiO2 
 PCOD8321973
Probable space group: P 31 1 2
;
_chemical_formula_sum "Si O2"
_cell_formula_units_Z 42
_cell_length_a 8.916010
_cell_length_b 8.916010
_cell_length_c 30.202559
_cell_angle_alpha 90.000000
_cell_angle_beta 90.000000
_cell_angle_gamma 120.000000
_cell_volume 2079.291925
_symmetry_space_group_name_H-M "P 31 1 2"
_symmetry_group_IT_number 151
_symmetry_cell_setting 'hexagonal'
loop_
_space_group_symop_operation_xyz
x,y,z
-y,x-y,1/3+z
-x+y,-x,2/3+z
-y,-x,2/3-z
-x+y,y,1/3-z
x,x-y,-z
loop_
_atom_site_type_symbol
_atom_site_label
_atom_site_fract_x
_atom_site_fract_y
_atom_site_fract_z
Si Si1 0.573861 0.661192 0.667407
Si Si2 0.406586 0.203293 0.500000
Si Si3 0.249726 0.106203 0.271246
Si Si4 0.954475 0.045526 0.333334
Si Si5 0.651990 0.758255 0.103522
Si Si6 0.539759 0.457244 0.421399
Si Si7 0.851287 0.551999 0.306086
Si Si8 0.350423 0.700709 0.597551
O O1 0.760882 0.799301 0.685372
O O2 0.588329 0.500826 0.647067
O O3 0.514000 0.746566 0.629124
O O4 0.439268 0.609937 0.708031
O O5 0.286479 0.275400 0.519537
O O6 0.529520 0.341298 0.463402
O O7 0.357317 0.285465 0.244444
O O8 0.357600 0.119981 0.314109
O O9 0.059855 0.053726 0.289284
O O10 0.229319 0.963566 0.235433
O O11 0.713288 0.695127 0.061081
O O12 0.441910 0.670084 0.105638
O O13 0.532351 0.346521 0.377638
O O14 0.383436 0.500828 0.422770
#
# Coordination Sequence:
#
# PCOD8321973 Si02
#       8
#     6   3   6   3   6   6   6   6
#     4  10  21  33  54  97 137 156 191 237 322 389
#     4  10  26  48  62  82 116 178 228 260 312 366
#     4  12  21  38  63  99 127 160 197 264 330 376
#     4  12  22  32  56 102 138 156 186 250 320 394
#     4  10  21  41  66  87 125 164 211 263 307 375
#     4  11  24  40  65  89 128 170 213 257 312 383
#     4  10  20  37  62  96 132 161 193 251 326 389
#     4  10  20  38  60  92 122 167 203 251 307 382
#
# _framework density 20.199186000000001
#
# number of rings (size 3 to 8) (size 9 to 14) (size 15 to 20)
#    0.000    1.429    4.286    1.286    6.000    0.571 
#    0.000    2.857    0.000    0.000    0.000    0.000 
#    0.000    0.000    0.000    0.000    0.000    0.000 
#
# Total GULP energy -520584.463648 kJ/mol
# GULP energy per Si atom -12394.868182 kJ/mol
# Density = 2.015321 g / cm^3
# Si number density = 20.199186 Si / 1000 Ang^3
#
#
#
# Elastic Constant Matrix: (Units=GPa)
#
#
# Indices 1 2 3 4 5 6 
#
# 1 102.3852 69.7670 32.1519 -0.0003 11.8651 0.0000
# 2 69.7670 102.3852 32.1519 0.0003 -11.8651 0.0000
# 3 32.1519 32.1519 70.7198 0.0000 0.0000 0.0000
# 4 -0.0003 0.0003 0.0000 12.6788 0.0000 -11.8651
# 5 11.8651 -11.8651 0.0000 0.0000 12.6788 -0.0003
# 6 0.0000 0.0000 0.0000 -11.8651 -0.0003 16.3091
#
#
#
# Elastic Compliance Matrix: (Units=1/GPa)
#
#
# Indices 1 2 3 4 5 6 
#
# 1 0.051524 -0.044527 -0.003181 0.000002 -0.089886 0.000000
# 2 -0.044527 0.051524 -0.003181 -0.000002 0.089886 0.000000
# 3 -0.003181 -0.003181 0.017033 0.000000 0.000000 0.000000
# 4 0.000002 -0.000002 0.000000 0.247106 0.000000 0.179772
# 5 -0.089886 0.089886 0.000000 0.000000 0.247106 0.000005
# 6 0.000000 0.000000 0.000000 0.179772 0.000005 0.192102
#
#
# Mechanical properties :
#
#
# Convention : Reuss Voigt Hill
#
# Bulk Modulus (GPa) = 54.63754 60.40354 57.52054
# Shear Modulus (GPa) = 5.46882 17.76132 11.61507
#
# Velocity S-wave (km/s) = 1.64722 2.96853 2.40057
# Velocity P-wave (km/s) = 5.54309 6.45898 6.01848
#
# Compressibility (1/GPa) = 0.01830243
#
# Stress axis : x y z
#
# Youngs Moduli (GPa) = 19.40844 19.40844 58.71017
#
# Poissons Ratio (x) = 0.86420 0.18676
# Poissons Ratio (y) = 0.86420 0.18676
# Poissons Ratio (z) = 0.06174 0.06174
#
# Static dielectric constant tensor:
#      x y z
#    x 4.619120 0.000000 0.000000 
#    y 0.000000 4.619120 0.000000 
#    z 0.000000 0.000000 3.709630 
# 
# 
# High freq. dielectric constant tensor:
#      x y z
#    x 1.796180 0.000000 0.000000 
#    y 0.000000 1.796180 0.000000 
#    z 0.000000 0.000000 1.746090 
# 
# From -- ./inp_files/5084.got.cif
#   From: 2010.03.12/outbox.cif.g09.slc.cpg/sg151_3_cif.got.tgz:5084.got - 2010.04.03 13:42:29.
