data_PCOD8321220
_publ_section_title
;
Structure prediction by ZEFSAII (Michael W. Deem and Ramdas Pophale) SiO2 
 PCOD8321220
Probable space group: I 41/A C D
;
_chemical_formula_sum "Si O2"
_cell_formula_units_Z 136
_cell_length_a 21.363216
_cell_length_b 21.363216
_cell_length_c 14.235158
_cell_angle_alpha 90.000000
_cell_angle_beta 90.000000
_cell_angle_gamma 90.000000
_cell_volume 6496.741024
_symmetry_space_group_name_H-M "I 41/A C D"
_symmetry_group_IT_number 142
_space_group.IT_coordinate_system_code '2'
_symmetry_cell_setting 'tetragonal'
loop_
_space_group_symop_operation_xyz
x,y,z
1/4-y,3/4+x,1/4+z
-x,1/2-y,z
1/4+y,1/4-x,3/4+z
x,-y,1/2-z
1/2-x,y,-z
3/4+y,1/4+x,1/4-z
1/4-y,1/4-x,1/4-z
-x,-y,-z
3/4+y,1/4-x,3/4-z
x,1/2+y,-z
3/4-y,3/4+x,1/4-z
-x,y,1/2+z
1/2+x,-y,z
1/4-y,3/4-x,3/4+z
3/4+y,3/4+x,3/4+z
1/2+x,1/2+y,1/2+z
3/4-y,1/4+x,3/4+z
1/2-x,-y,1/2+z
3/4+y,3/4-x,1/4+z
1/2+x,1/2-y,-z
-x,1/2+y,1/2-z
1/4+y,3/4+x,3/4-z
3/4-y,3/4-x,3/4-z
1/2-x,1/2-y,1/2-z
1/4+y,3/4-x,1/4-z
1/2+x,y,1/2-z
1/4-y,1/4+x,3/4-z
1/2-x,1/2+y,z
x,1/2-y,1/2+z
3/4-y,1/4-x,1/4+z
1/4+y,1/4+x,1/4+z
loop_
_atom_site_type_symbol
_atom_site_label
_atom_site_fract_x
_atom_site_fract_y
_atom_site_fract_z
Si Si1 0.271865 0.923847 0.897535
Si Si2 0.000000 0.750000 0.875000
Si Si3 0.078463 0.569688 0.405961
Si Si4 0.622096 0.760045 0.500349
Si Si5 0.591804 0.114735 0.098968
O O1 0.245222 0.866640 0.834204
O O2 0.346177 0.927564 0.885954
O O3 0.241773 0.991773 0.875000
O O4 0.250000 0.903082 0.000000
O O5 0.998559 0.809536 0.808271
O O6 0.126666 0.623334 0.375000
O O7 0.024589 0.571812 0.325609
O O8 0.052800 0.586685 0.509958
O O9 0.611970 0.814192 0.423083
O O10 0.640384 0.698088 0.443373
#
# Coordination Sequence:
#
# PCOD8321220 Si02
#       5
#    32   8  32  32  32
#     4  11  19  39  74  91 121 178 236 273 327 408
#     4  12  20  38  64  96 146 176 220 274 336 408
#     4   9  18  37  62  92 122 172 218 262 329 399
#     4  11  21  35  60  97 132 171 214 269 332 401
#     4  11  21  38  66 100 129 174 222 272 339 402
#
# _framework density 20.933572999999999
#
# number of rings (size 3 to 8) (size 9 to 14) (size 15 to 20)
#    0.000    1.412   10.588    1.412    0.000    0.000 
#    0.000    1.176   12.941    0.000    0.000    0.000 
#    0.000    0.000    0.000    0.000    0.000    0.000 
#
# Total GULP energy -842810.797404 kJ/mol
# GULP energy per Si atom -12394.276432 kJ/mol
# Density = 2.088593 g / cm^3
# Si number density = 20.933573 Si / 1000 Ang^3
#
#
#
# Elastic Constant Matrix: (Units=GPa)
#
#
# Indices 1 2 3 4 5 6 
#
# 1 102.4890 32.5796 55.3176 0.0000 0.0000 0.0000
# 2 32.5796 102.4890 55.3176 0.0000 0.0000 0.0000
# 3 55.3176 55.3176 127.6859 0.0000 0.0000 0.0000
# 4 0.0000 0.0000 0.0000 26.2790 0.0000 0.0000
# 5 0.0000 0.0000 0.0000 0.0000 26.2790 0.0000
# 6 0.0000 0.0000 0.0000 0.0000 0.0000 20.4987
#
#
#
# Elastic Compliance Matrix: (Units=1/GPa)
#
#
# Indices 1 2 3 4 5 6 
#
# 1 0.012890 -0.001414 -0.004972 0.000000 0.000000 0.000000
# 2 -0.001414 0.012890 -0.004972 0.000000 0.000000 0.000000
# 3 -0.004972 -0.004972 0.012140 0.000000 0.000000 0.000000
# 4 0.000000 0.000000 0.000000 0.038053 0.000000 0.000000
# 5 0.000000 0.000000 0.000000 0.000000 0.038053 0.000000
# 6 0.000000 0.000000 0.000000 0.000000 0.000000 0.048783
#
#
# Mechanical properties :
#
#
# Convention : Reuss Voigt Hill
#
# Bulk Modulus (GPa) = 65.76984 68.78818 67.27901
# Shear Modulus (GPa) = 26.23389 27.24130 26.73760
#
# Velocity S-wave (km/s) = 3.54389 3.61130 3.57775
# Velocity P-wave (km/s) = 6.94494 7.09367 7.01970
#
# Compressibility (1/GPa) = 0.01520454
#
# Stress axis : x y z
#
# Youngs Moduli (GPa) = 77.57865 77.57865 82.37493
#
# Poissons Ratio (x) = 0.10970 0.40955
# Poissons Ratio (y) = 0.10970 0.40955
# Poissons Ratio (z) = 0.38571 0.38571
#
# Static dielectric constant tensor:
#      x y z
#    x 3.913140 0.000000 0.000000 
#    y 0.000000 3.913140 0.000000 
#    z 0.000000 0.000000 4.547880 
# 
# 
# High freq. dielectric constant tensor:
#      x y z
#    x 1.795550 0.000000 0.000000 
#    y 0.000000 1.795550 0.000000 
#    z 0.000000 0.000000 1.824780 
# 
# From -- ./inp_files/5325.got.cif
#   From: 2010.03.12/outbox.cif.g09.slc.cpg/sg142_3_cif.got.tgz:5325.got - 2010.04.03 13:27:16.
