data_PCOD8321129
_publ_section_title
;
Structure prediction by ZEFSAII (Michael W. Deem and Ramdas Pophale) SiO2 
 PCOD8321129
Probable space group: I 41/A C D
;
_chemical_formula_sum "Si O2"
_cell_formula_units_Z 96
_cell_length_a 23.554443
_cell_length_b 23.554443
_cell_length_c 7.761904
_cell_angle_alpha 90.000000
_cell_angle_beta 90.000000
_cell_angle_gamma 90.000000
_cell_volume 4306.395814
_symmetry_space_group_name_H-M "I 41/A C D"
_symmetry_group_IT_number 142
_space_group.IT_coordinate_system_code '2'
_symmetry_cell_setting 'tetragonal'
loop_
_space_group_symop_operation_xyz
x,y,z
1/4-y,3/4+x,1/4+z
-x,1/2-y,z
1/4+y,1/4-x,3/4+z
x,-y,1/2-z
1/2-x,y,-z
3/4+y,1/4+x,1/4-z
1/4-y,1/4-x,1/4-z
-x,-y,-z
3/4+y,1/4-x,3/4-z
x,1/2+y,-z
3/4-y,3/4+x,1/4-z
-x,y,1/2+z
1/2+x,-y,z
1/4-y,3/4-x,3/4+z
3/4+y,3/4+x,3/4+z
1/2+x,1/2+y,1/2+z
3/4-y,1/4+x,3/4+z
1/2-x,-y,1/2+z
3/4+y,3/4-x,1/4+z
1/2+x,1/2-y,-z
-x,1/2+y,1/2-z
1/4+y,3/4+x,3/4-z
3/4-y,3/4-x,3/4-z
1/2-x,1/2-y,1/2-z
1/4+y,3/4-x,1/4-z
1/2+x,y,1/2-z
1/4-y,1/4+x,3/4-z
1/2-x,1/2+y,z
x,1/2-y,1/2+z
3/4-y,1/4-x,1/4+z
1/4+y,1/4+x,1/4+z
loop_
_atom_site_type_symbol
_atom_site_label
_atom_site_fract_x
_atom_site_fract_y
_atom_site_fract_z
Si Si1 0.574670 0.939259 0.943188
Si Si2 0.326244 0.500000 0.750000
Si Si3 0.946846 0.320500 0.823769
Si Si4 0.975959 0.000000 0.750000
O O1 0.633244 0.961749 0.866887
O O2 0.580332 0.871644 0.931766
O O3 0.516815 0.955931 0.845334
O O4 0.567049 0.963289 0.134421
O O5 0.287761 0.537761 0.625000
O O6 0.927065 0.322936 0.625000
O O7 0.925648 0.264893 0.922815
#
# Coordination Sequence:
#
# PCOD8321129 Si02
#       4
#    32  16  32  16
#     4  10  21  41  65  91 131 171 211 271 326 375
#     4  11  26  47  66  90 124 167 226 281 326 380
#     4  11  22  37  59  94 134 170 212 258 321 401
#     4   9  20  37  64 100 124 165 228 259 312 404
#
# _framework density 22.292424
#
# number of rings (size 3 to 8) (size 9 to 14) (size 15 to 20)
#    0.000    1.667    0.000    5.000    0.000    6.667 
#    0.000    6.667    0.000    0.000    0.000    0.000 
#    0.000    0.000    0.000    0.000    0.000    0.000 
#
# Total GULP energy -595208.870115 kJ/mol
# GULP energy per Si atom -12400.184794 kJ/mol
# Density = 2.224169 g / cm^3
# Si number density = 22.292424 Si / 1000 Ang^3
#
#
#
# Elastic Constant Matrix: (Units=GPa)
#
#
# Indices 1 2 3 4 5 6 
#
# 1 148.2892 73.9329 63.6840 0.0000 0.0000 0.0000
# 2 73.9329 148.2887 63.6839 0.0000 0.0000 0.0000
# 3 63.6840 63.6839 145.3675 0.0000 0.0000 0.0000
# 4 0.0000 0.0000 0.0000 22.9389 0.0000 0.0000
# 5 0.0000 0.0000 0.0000 0.0000 22.9385 0.0000
# 6 0.0000 0.0000 0.0000 0.0000 0.0000 6.5994
#
#
#
# Elastic Compliance Matrix: (Units=1/GPa)
#
#
# Indices 1 2 3 4 5 6 
#
# 1 0.009729 -0.003720 -0.002632 0.000000 0.000000 0.000000
# 2 -0.003720 0.009729 -0.002632 0.000000 0.000000 0.000000
# 3 -0.002632 -0.002632 0.009186 0.000000 0.000000 0.000000
# 4 0.000000 0.000000 0.000000 0.043594 0.000000 0.000000
# 5 0.000000 0.000000 0.000000 0.000000 0.043595 0.000000
# 6 0.000000 0.000000 0.000000 0.000000 0.000000 0.151529
#
#
# Mechanical properties :
#
#
# Convention : Reuss Voigt Hill
#
# Bulk Modulus (GPa) = 93.68927 93.83854 93.76391
# Shear Modulus (GPa) = 17.30770 26.53832 21.92301
#
# Velocity S-wave (km/s) = 2.78941 3.45405 3.13937
# Velocity P-wave (km/s) = 7.24521 7.62188 7.43593
#
# Compressibility (1/GPa) = 0.01067358
#
# Stress axis : x y z
#
# Youngs Moduli (GPa) = 102.78788 102.78747 108.86664
#
# Poissons Ratio (x) = 0.38237 0.28658
# Poissons Ratio (y) = 0.38237 0.28658
# Poissons Ratio (z) = 0.27058 0.27058
#
# Static dielectric constant tensor:
#      x y z
#    x 3.981720 0.000000 0.000000 
#    y 0.000000 3.981710 0.000000 
#    z 0.000000 0.000000 4.040940 
# 
# 
# High freq. dielectric constant tensor:
#      x y z
#    x 1.880570 0.000000 0.000000 
#    y 0.000000 1.880570 0.000000 
#    z 0.000000 0.000000 1.881960 
# 
# From -- ./inp_files/1683.got.cif
#   From: 2010.03.12/outbox.cif.g09.slc.cpg/sg142_1_cif.got.tgz:1683.got - 2010.04.03 13:27:16.
