data_PCOD8321666
_publ_section_title
;
Structure prediction by ZEFSAII (Michael W. Deem and Ramdas Pophale) SiO2 
 PCOD8321666
Probable space group: P -3
;
_chemical_formula_sum "Si O2"
_cell_formula_units_Z 36
_cell_length_a 18.124029
_cell_length_b 18.124029
_cell_length_c 9.312763
_cell_angle_alpha 90.000000
_cell_angle_beta 90.000000
_cell_angle_gamma 120.000000
_cell_volume 2649.223991
_symmetry_space_group_name_H-M "P -3"
_symmetry_group_IT_number 147
_symmetry_cell_setting 'hexagonal'
loop_
_space_group_symop_operation_xyz
x,y,z
-y,x-y,z
-x+y,-x,z
-x,-y,-z
y,-x+y,-z
x-y,x,-z
loop_
_atom_site_type_symbol
_atom_site_label
_atom_site_fract_x
_atom_site_fract_y
_atom_site_fract_z
Si Si1 0.496348 0.163371 0.833074
Si Si2 0.836629 0.332976 0.166926
Si Si3 0.587760 0.587760 0.337641
Si Si4 0.587760 0.587760 0.662359
Si Si5 0.332976 0.836629 0.166926
Si Si6 0.667024 0.163371 0.166926
O O1 0.424932 0.084020 0.743001
O O2 0.590651 0.181303 0.797374
O O3 0.492105 0.246053 0.786446
O O4 0.475308 0.141971 1.000000
O O5 0.915980 0.340912 0.256999
O O6 0.753947 0.246053 0.213554
O O7 0.818698 0.409349 0.202626
O O8 0.617778 0.617778 0.500000
O O9 0.500000 0.500000 0.332535
O O10 0.575068 0.659088 0.256999
O O11 0.575068 0.659089 0.743000
O O12 0.333336 0.858029 0.000000
#
# Coordination Sequence:
#
# PCOD8321666 Si02
#       6
#     6   6   6   6   6   6
#     4   9  16  26  40  56  73  95 125 159 191 222
#     4   9  16  26  40  56  73  95 125 159 191 222
#     4   9  17  27  37  51  73  99 124 151 186 225
#     4   9  17  27  37  51  73  99 124 151 186 225
#     4   9  16  26  40  56  73  95 125 159 191 222
#     4   9  16  26  40  56  73  95 125 159 191 222
#
# _framework density 13.588884999999999
#
# number of rings (size 3 to 8) (size 9 to 14) (size 15 to 20)
#    0.000    3.000    0.000    1.667    0.000    8.000 
#    0.000    0.000    0.000    4.000    0.000    0.000 
#    0.000    0.000    0.000    1.000    0.000   19.333 
#
# Total GULP energy -446382.961330 kJ/mol
# GULP energy per Si atom -12399.526704 kJ/mol
# Density = 1.355796 g / cm^3
# Si number density = 13.588885 Si / 1000 Ang^3
#
#
#
# Elastic Constant Matrix: (Units=GPa)
#
#
# Indices 1 2 3 4 5 6 
#
# 1 86.0282 47.7710 51.3066 0.0000 0.0000 0.0000
# 2 47.7710 86.0282 51.3066 0.0000 0.0000 0.0000
# 3 51.3066 51.3066 79.5598 0.0000 0.0000 0.0000
# 4 0.0000 0.0000 0.0000 15.8032 0.0000 0.0000
# 5 0.0000 0.0000 0.0000 0.0000 15.8032 0.0000
# 6 0.0000 0.0000 0.0000 0.0000 0.0000 19.1286
#
#
#
# Elastic Compliance Matrix: (Units=1/GPa)
#
#
# Indices 1 2 3 4 5 6 
#
# 1 0.020463 -0.005676 -0.009536 0.000000 0.000000 0.000000
# 2 -0.005676 0.020463 -0.009536 0.000000 0.000000 0.000000
# 3 -0.009536 -0.009536 0.024868 0.000000 0.000000 0.000000
# 4 0.000000 0.000000 0.000000 0.063278 0.000000 0.000000
# 5 0.000000 0.000000 0.000000 0.000000 0.063278 0.000000
# 6 0.000000 0.000000 0.000000 0.000000 0.000000 0.052278
#
#
# Mechanical properties :
#
#
# Convention : Reuss Voigt Hill
#
# Bulk Modulus (GPa) = 61.35424 61.37604 61.36514
# Shear Modulus (GPa) = 16.69128 16.89580 16.79354
#
# Velocity S-wave (km/s) = 3.50852 3.52995 3.51925
# Velocity P-wave (km/s) = 7.85247 7.86629 7.85938
#
# Compressibility (1/GPa) = 0.01629879
#
# Stress axis : x y z
#
# Youngs Moduli (GPa) = 48.86861 48.86861 40.21178
#
# Poissons Ratio (x) = 0.27737 0.38346
# Poissons Ratio (y) = 0.27737 0.38346
# Poissons Ratio (z) = 0.46601 0.46601
#
# Static dielectric constant tensor:
#      x y z
#    x 2.570460 0.000000 0.000000 
#    y 0.000000 2.570460 0.000000 
#    z 0.000000 0.000000 2.785690 
# 
# 
# High freq. dielectric constant tensor:
#      x y z
#    x 1.491100 0.000000 0.000000 
#    y 0.000000 1.491100 0.000000 
#    z 0.000000 0.000000 1.524700 
# 
# From -- ./inp_files/581.got.cif
#   From: 2010.03.12/outbox.cif.g09.slc.cpg/sg147_cif.got.tgz:581.got - 2010.04.03 13:37:56.
