data_PCOD8321197
_publ_section_title
;
Structure prediction by ZEFSAII (Michael W. Deem and Ramdas Pophale) SiO2 
 PCOD8321197
Probable space group: I 41/A C D
;
_chemical_formula_sum "Si O2"
_cell_formula_units_Z 96
_cell_length_a 18.891590
_cell_length_b 18.891590
_cell_length_c 11.107519
_cell_angle_alpha 90.000000
_cell_angle_beta 90.000000
_cell_angle_gamma 90.000000
_cell_volume 3964.186590
_symmetry_space_group_name_H-M "I 41/A C D"
_symmetry_group_IT_number 142
_space_group.IT_coordinate_system_code '2'
_symmetry_cell_setting 'tetragonal'
loop_
_space_group_symop_operation_xyz
x,y,z
1/4-y,3/4+x,1/4+z
-x,1/2-y,z
1/4+y,1/4-x,3/4+z
x,-y,1/2-z
1/2-x,y,-z
3/4+y,1/4+x,1/4-z
1/4-y,1/4-x,1/4-z
-x,-y,-z
3/4+y,1/4-x,3/4-z
x,1/2+y,-z
3/4-y,3/4+x,1/4-z
-x,y,1/2+z
1/2+x,-y,z
1/4-y,3/4-x,3/4+z
3/4+y,3/4+x,3/4+z
1/2+x,1/2+y,1/2+z
3/4-y,1/4+x,3/4+z
1/2-x,-y,1/2+z
3/4+y,3/4-x,1/4+z
1/2+x,1/2-y,-z
-x,1/2+y,1/2-z
1/4+y,3/4+x,3/4-z
3/4-y,3/4-x,3/4-z
1/2-x,1/2-y,1/2-z
1/4+y,3/4-x,1/4-z
1/2+x,y,1/2-z
1/4-y,1/4+x,3/4-z
1/2-x,1/2+y,z
x,1/2-y,1/2+z
3/4-y,1/4-x,1/4+z
1/4+y,1/4+x,1/4+z
loop_
_atom_site_type_symbol
_atom_site_label
_atom_site_fract_x
_atom_site_fract_y
_atom_site_fract_z
Si Si1 0.518366 0.345980 0.186617
Si Si2 0.401301 0.151301 0.875000
Si Si3 0.209373 0.959373 0.875000
Si Si4 0.429115 0.530626 0.944798
O O1 0.465317 0.328699 0.071743
O O2 0.476942 0.349128 0.310382
O O3 0.551488 0.423626 0.172914
O O4 0.334961 0.142746 0.787350
O O5 0.220739 0.876535 0.844874
O O6 0.231669 0.000000 0.750000
O O7 0.500000 0.500000 0.000000
#
# Coordination Sequence:
#
# PCOD8321197 Si02
#       4
#    32  16  16  32
#     4   9  21  41  69 110 148 193 252 322 398 467
#     4  10  23  45  73 106 160 195 256 326 404 476
#     4  12  31  56  79 117 168 218 272 339 402 492
#     4  11  27  45  77 109 151 211 266 327 402 482
#
# _framework density 24.216822000000001
#
# number of rings (size 3 to 8) (size 9 to 14) (size 15 to 20)
#    0.000    1.667    0.000    1.000   14.000   10.667 
#    0.000    0.000    0.000    0.000    0.000    0.000 
#    0.000    0.000    0.000    0.000    0.000    0.000 
#
# Total GULP energy -594817.278332 kJ/mol
# GULP energy per Si atom -12392.026632 kJ/mol
# Density = 2.416170 g / cm^3
# Si number density = 24.216822 Si / 1000 Ang^3
#
#
#
# Elastic Constant Matrix: (Units=GPa)
#
#
# Indices 1 2 3 4 5 6 
#
# 1 127.0151 77.3094 40.5357 0.0000 0.0000 0.0000
# 2 77.3094 127.0151 40.5357 0.0000 0.0000 0.0000
# 3 40.5357 40.5357 134.3862 0.0000 0.0000 0.0000
# 4 0.0000 0.0000 0.0000 26.5284 0.0000 0.0000
# 5 0.0000 0.0000 0.0000 0.0000 26.5284 0.0000
# 6 0.0000 0.0000 0.0000 0.0000 0.0000 52.1542
#
#
#
# Elastic Compliance Matrix: (Units=1/GPa)
#
#
# Indices 1 2 3 4 5 6 
#
# 1 0.012839 -0.007279 -0.001677 0.000000 0.000000 0.000000
# 2 -0.007279 0.012839 -0.001677 0.000000 0.000000 0.000000
# 3 -0.001677 -0.001677 0.008453 0.000000 0.000000 0.000000
# 4 0.000000 0.000000 0.000000 0.037695 0.000000 0.000000
# 5 0.000000 0.000000 0.000000 0.000000 0.037695 0.000000
# 6 0.000000 0.000000 0.000000 0.000000 0.000000 0.019174
#
#
# Mechanical properties :
#
#
# Convention : Reuss Voigt Hill
#
# Bulk Modulus (GPa) = 77.73526 78.35308 78.04417
# Shear Modulus (GPa) = 32.41484 36.37794 34.39639
#
# Velocity S-wave (km/s) = 3.66256 3.88000 3.77284
# Velocity P-wave (km/s) = 7.07497 7.24552 7.16075
#
# Compressibility (1/GPa) = 0.01286418
#
# Stress axis : x y z
#
# Youngs Moduli (GPa) = 77.88780 77.88780 118.30257
#
# Poissons Ratio (x) = 0.56698 0.19839
# Poissons Ratio (y) = 0.56698 0.19839
# Poissons Ratio (z) = 0.13061 0.13061
#
# Static dielectric constant tensor:
#      x y z
#    x 4.312600 0.000000 0.000000 
#    y 0.000000 4.312600 0.000000 
#    z 0.000000 0.000000 4.520090 
# 
# 
# High freq. dielectric constant tensor:
#      x y z
#    x 1.960520 0.000000 0.000000 
#    y 0.000000 1.960520 0.000000 
#    z 0.000000 0.000000 1.965280 
# 
# From -- ./inp_files/3206.got.cif
#   From: 2010.03.12/outbox.cif.g09.slc.cpg/sg142_2_cif.got.tgz:3206.got - 2010.04.03 13:27:16.
