data_PCOD8321730
_publ_section_title
;
Structure prediction by ZEFSAII (Michael W. Deem and Ramdas Pophale) SiO2 
 PCOD8321730
Probable space group: R -3
;
_chemical_formula_sum "Si O2"
_cell_formula_units_Z 54
_cell_length_a 16.076044
_cell_length_b 16.076044
_cell_length_c 12.270258
_cell_angle_alpha 90.000000
_cell_angle_beta 90.000000
_cell_angle_gamma 120.000000
_cell_volume 2746.266622
_symmetry_space_group_name_H-M "R -3"
_symmetry_group_IT_number 148
_symmetry_cell_setting 'hexagonal'
loop_
_space_group_symop_operation_xyz
x,y,z
-y,x-y,z
-x+y,-x,z
-x,-y,-z
y,-x+y,-z
x-y,x,-z
2/3+x,1/3+y,1/3+z
2/3-y,1/3+x-y,1/3+z
2/3-x+y,1/3-x,1/3+z
2/3-x,1/3-y,1/3-z
2/3+y,1/3-x+y,1/3-z
2/3+x-y,1/3+x,1/3-z
1/3+x,2/3+y,2/3+z
1/3-y,2/3+x-y,2/3+z
1/3-x+y,2/3-x,2/3+z
1/3-x,2/3-y,2/3-z
1/3+y,2/3-x+y,2/3-z
1/3+x-y,2/3+x,2/3-z
loop_
_atom_site_type_symbol
_atom_site_label
_atom_site_fract_x
_atom_site_fract_y
_atom_site_fract_z
Si Si1 0.803180 0.813941 0.714479
Si Si2 0.008071 0.194802 0.291040
Si Si3 0.964086 0.627191 0.828336
O O1 0.817302 0.915808 0.751222
O O2 0.737970 0.778113 0.606662
O O3 0.752333 0.739510 0.812872
O O4 0.905767 0.825475 0.687608
O O5 0.039278 0.276703 0.199798
O O6 0.983108 0.228131 0.403276
#
# Coordination Sequence:
#
# PCOD8321730 Si02
#       3
#    18  18  18
#     4  11  21  36  56  81 107 138 177 221 262 308
#     4  11  21  36  56  81 107 138 177 221 262 308
#     4  10  21  36  55  78 108 144 176 210 263 324
#
# _framework density 19.663057999999999
#
# number of rings (size 3 to 8) (size 9 to 14) (size 15 to 20)
#    0.000    1.333    0.000    9.667    0.000    0.000 
#    0.000    3.333    0.000    0.000    0.000   23.333 
#    0.000    0.000    0.000    0.000    0.000    0.000 
#
# Total GULP energy -223298.759930 kJ/mol
# GULP energy per Si atom -12405.486663 kJ/mol
# Density = 1.961830 g / cm^3
# Si number density = 19.663058 Si / 1000 Ang^3
#
#
#
# Elastic Constant Matrix: (Units=GPa)
#
#
# Indices 1 2 3 4 5 6 
#
# 1 43.1884 -12.8061 -3.4892 -2.8558 1.6679 0.0000
# 2 -12.8061 43.1884 -3.4892 2.8558 -1.6679 0.0000
# 3 -3.4892 -3.4892 33.3209 0.0000 0.0000 0.0000
# 4 -2.8558 2.8558 0.0000 13.7549 0.0000 -1.6679
# 5 1.6679 -1.6679 0.0000 0.0000 13.7549 -2.8558
# 6 0.0000 0.0000 0.0000 -1.6679 -2.8558 27.9973
#
#
#
# Elastic Compliance Matrix: (Units=1/GPa)
#
#
# Indices 1 2 3 4 5 6 
#
# 1 0.026053 0.007672 0.003531 0.003816 -0.002229 0.000000
# 2 0.007672 0.026053 0.003531 -0.003816 0.002229 0.000000
# 3 0.003531 0.003531 0.030751 0.000000 0.000000 0.000000
# 4 0.003816 -0.003816 0.000000 0.074827 0.000000 0.004458
# 5 -0.002229 0.002229 0.000000 0.000000 0.074827 0.007633
# 6 0.000000 0.000000 0.000000 0.004458 0.007633 0.036762
#
#
# Mechanical properties :
#
#
# Convention : Reuss Voigt Hill
#
# Bulk Modulus (GPa) = 8.90260 8.90321 8.90291
# Shear Modulus (GPa) = 18.03463 20.40021 19.21742
#
# Velocity S-wave (km/s) = 3.03179 3.22450 3.12963
# Velocity P-wave (km/s) = 4.09793 4.28963 4.19488
#
# Compressibility (1/GPa) = 0.11232669
#
# Stress axis : x y z
#
# Youngs Moduli (GPa) = 38.38333 38.38333 32.51951
#
# Poissons Ratio (x) = -0.29448 -0.11484
# Poissons Ratio (y) = -0.29448 -0.11484
# Poissons Ratio (z) = -0.13555 -0.13555
#
# Static dielectric constant tensor:
#      x y z
#    x 3.633320 0.000000 0.000000 
#    y 0.000000 3.633320 0.000000 
#    z 0.000000 0.000000 3.445270 
# 
# 
# High freq. dielectric constant tensor:
#      x y z
#    x 1.776090 0.000000 0.000000 
#    y 0.000000 1.776090 0.000000 
#    z 0.000000 0.000000 1.752110 
# 
# From -- ./inp_files/1276.got.cif
#   From: 2010.03.12/outbox.cif.g09.slc.cpg/sg148_1_cif.got.tgz:1276.got - 2010.04.03 13:38:46.
