data_PCOD8321702
_publ_section_title
;
Structure prediction by ZEFSAII (Michael W. Deem and Ramdas Pophale) SiO2 
 PCOD8321702
Probable space group: R -3
;
_chemical_formula_sum "Si O2"
_cell_formula_units_Z 108
_cell_length_a 17.441308
_cell_length_b 17.441308
_cell_length_c 21.129560
_cell_angle_alpha 90.000000
_cell_angle_beta 90.000000
_cell_angle_gamma 120.000000
_cell_volume 5566.461223
_symmetry_space_group_name_H-M "R -3"
_symmetry_group_IT_number 148
_symmetry_cell_setting 'hexagonal'
loop_
_space_group_symop_operation_xyz
x,y,z
-y,x-y,z
-x+y,-x,z
-x,-y,-z
y,-x+y,-z
x-y,x,-z
2/3+x,1/3+y,1/3+z
2/3-y,1/3+x-y,1/3+z
2/3-x+y,1/3-x,1/3+z
2/3-x,1/3-y,1/3-z
2/3+y,1/3-x+y,1/3-z
2/3+x-y,1/3+x,1/3-z
1/3+x,2/3+y,2/3+z
1/3-y,2/3+x-y,2/3+z
1/3-x+y,2/3-x,2/3+z
1/3-x,2/3-y,2/3-z
1/3+y,2/3-x+y,2/3-z
1/3+x-y,2/3+x,2/3-z
loop_
_atom_site_type_symbol
_atom_site_label
_atom_site_fract_x
_atom_site_fract_y
_atom_site_fract_z
Si Si1 0.376386 0.922427 0.038643
Si Si2 0.415546 0.776697 0.836602
Si Si3 0.484398 0.537275 0.300076
Si Si4 0.874824 0.379331 0.035127
Si Si5 0.546005 0.148962 0.301958
Si Si6 0.861730 0.468668 0.830721
O O1 0.274956 0.884276 0.018321
O O2 0.384011 0.918025 0.113657
O O3 0.429455 0.024686 0.021884
O O4 0.410467 0.862470 0.003343
O O5 0.308923 0.738768 0.840468
O O6 0.466740 0.846232 0.892563
O O7 0.456001 0.828524 0.771529
O O8 0.484236 0.614236 0.341676
O O9 0.563251 0.518224 0.315425
O O10 0.489627 0.561294 0.226642
O O11 0.511828 0.199372 0.346332
O O12 0.819015 0.369152 0.856411
#
# Coordination Sequence:
#
# PCOD8321702 Si02
#       6
#    18  18  18  18  18  18
#     4  10  22  38  58  86 123 167 203 250 323 373
#     4  10  21  39  67  96 119 163 216 265 321 383
#     4  11  23  37  62  92 123 163 207 263 310 375
#     4  11  21  40  60  88 129 163 202 260 321 380
#     4  12  22  43  68  92 124 164 218 267 324 381
#     4  10  19  36  56  87 116 160 206 248 297 371
#
# _framework density 19.401911999999999
#
# number of rings (size 3 to 8) (size 9 to 14) (size 15 to 20)
#    0.333    1.000    3.333    3.333    0.000    0.000 
#    1.000    0.833    0.000    0.000    0.000    0.000 
#    0.000    0.000    0.000    0.000    0.000    0.000 
#
# Total GULP energy -446356.520125 kJ/mol
# GULP energy per Si atom -12398.792226 kJ/mol
# Density = 1.935775 g / cm^3
# Si number density = 19.401912 Si / 1000 Ang^3
#
#
#
# Elastic Constant Matrix: (Units=GPa)
#
#
# Indices 1 2 3 4 5 6 
#
# 1 74.3021 22.7613 22.6216 -2.0577 -0.2138 0.0000
# 2 22.7613 74.3021 22.6216 2.0577 0.2138 0.0000
# 3 22.6216 22.6216 105.4324 0.0000 0.0000 0.0000
# 4 -2.0577 2.0577 0.0000 24.4430 0.0000 0.2138
# 5 -0.2138 0.2138 0.0000 0.0000 24.4430 -2.0577
# 6 0.0000 0.0000 0.0000 0.2138 -2.0577 25.7704
#
#
#
# Elastic Compliance Matrix: (Units=1/GPa)
#
#
# Indices 1 2 3 4 5 6 
#
# 1 0.015491 -0.004044 -0.002456 0.001644 0.000171 0.000000
# 2 -0.004044 0.015491 -0.002456 -0.001644 -0.000171 0.000000
# 3 -0.002456 -0.002456 0.010539 0.000000 0.000000 0.000000
# 4 0.001644 -0.001644 0.000000 0.041191 0.000000 -0.000342
# 5 0.000171 -0.000171 0.000000 0.000000 0.041191 0.003289
# 6 0.000000 0.000000 0.000000 -0.000342 0.003289 0.039070
#
#
# Mechanical properties :
#
#
# Convention : Reuss Voigt Hill
#
# Bulk Modulus (GPa) = 42.35688 43.33841 42.84764
# Shear Modulus (GPa) = 26.48934 27.33341 26.91138
#
# Velocity S-wave (km/s) = 3.69900 3.75747 3.72835
# Velocity P-wave (km/s) = 6.33420 6.41954 6.37701
#
# Compressibility (1/GPa) = 0.02360892
#
# Stress axis : x y z
#
# Youngs Moduli (GPa) = 64.55308 64.55308 94.88801
#
# Poissons Ratio (x) = 0.26103 0.23306
# Poissons Ratio (y) = 0.26103 0.23306
# Poissons Ratio (z) = 0.15855 0.15855
#
# Static dielectric constant tensor:
#      x y z
#    x 3.493830 0.000000 0.000000 
#    y 0.000000 3.493830 0.000000 
#    z 0.000000 0.000000 3.411150 
# 
# 
# High freq. dielectric constant tensor:
#      x y z
#    x 1.754290 0.000000 0.000000 
#    y 0.000000 1.754290 0.000000 
#    z 0.000000 0.000000 1.758270 
# 
# From -- ./inp_files/3122.got.cif
#   From: 2010.03.12/outbox.cif.g09.slc.cpg/sg148_2_cif.got.tgz:3122.got - 2010.04.03 13:38:46.
