data_PCOD8321567
_publ_section_title
;
Structure prediction by ZEFSAII (Michael W. Deem and Ramdas Pophale) SiO2 
 PCOD8321567
Probable space group: R 3
;
_chemical_formula_sum "Si O2"
_cell_formula_units_Z 48
_cell_length_a 11.765175
_cell_length_b 11.765175
_cell_length_c 20.227340
_cell_angle_alpha 90.000000
_cell_angle_beta 90.000000
_cell_angle_gamma 120.000000
_cell_volume 2424.745651
_symmetry_space_group_name_H-M "R 3"
_symmetry_group_IT_number 146
_symmetry_cell_setting 'hexagonal'
loop_
_space_group_symop_operation_xyz
x,y,z
-y,x-y,z
-x+y,-x,z
2/3+x,1/3+y,1/3+z
2/3-y,1/3+x-y,1/3+z
2/3-x+y,1/3-x,1/3+z
1/3+x,2/3+y,2/3+z
1/3-y,2/3+x-y,2/3+z
1/3-x+y,2/3-x,2/3+z
loop_
_atom_site_type_symbol
_atom_site_label
_atom_site_fract_x
_atom_site_fract_y
_atom_site_fract_z
Si Si1 0.214566 0.370954 0.132380
Si Si2 0.000000 0.000000 0.290948
Si Si3 0.339669 0.917035 0.686938
Si Si4 0.444793 0.484909 0.452522
Si Si5 0.000000 0.000000 0.811785
Si Si6 0.765328 0.753298 0.232163
Si Si7 0.000000 0.000000 0.448001
Si Si8 0.000000 0.000000 0.968931
O O1 0.120029 0.345008 0.070271
O O2 0.313092 0.316621 0.121556
O O3 0.301184 0.526282 0.143041
O O4 0.128745 0.302685 0.197175
O O5 0.143723 0.047394 0.263319
O O6 0.000000 0.000000 0.369274
O O7 0.196864 0.852666 0.719495
O O8 0.374433 0.808284 0.664004
O O9 0.336141 0.997478 0.623693
O O10 0.353756 0.550375 0.450474
O O11 0.539076 0.541351 0.515425
O O12 0.000000 0.000000 0.890520
#
# Coordination Sequence:
#
# PCOD8321567 Si02
#       8
#     9   3   9   9   3   9   3   3
#     4  11  25  42  67  98 135 169 219 278 330 391
#     4  12  21  40  67 100 130 177 232 263 322 396
#     4  11  23  42  67  99 131 174 226 274 321 389
#     4  11  25  42  67  98 135 169 219 278 330 391
#     4  12  27  42  65 101 138 174 208 272 352 399
#     4  11  23  42  67  99 131 174 226 274 321 389
#     4  12  27  42  65 101 138 174 208 272 352 399
#     4  12  21  40  67 100 130 177 232 263 322 396
#
# _framework density 19.795888999999999
#
# number of rings (size 3 to 8) (size 9 to 14) (size 15 to 20)
#    0.000    0.750    7.500    0.000    5.250    0.000 
#    0.000    5.625    0.000    0.000    0.000    0.000 
#    0.000    0.000    0.000    0.000    0.000    0.000 
#
# Total GULP energy -198497.657417 kJ/mol
# GULP energy per Si atom -12406.103589 kJ/mol
# Density = 1.975083 g / cm^3
# Si number density = 19.795889 Si / 1000 Ang^3
#
#
#
# Elastic Constant Matrix: (Units=GPa)
#
#
# Indices 1 2 3 4 5 6 
#
# 1 77.0090 13.8207 -4.0062 9.8830 0.2955 0.0000
# 2 13.8207 77.0090 -4.0062 -9.8830 -0.2955 0.0000
# 3 -4.0062 -4.0062 53.1294 0.0000 0.0000 0.0000
# 4 9.8830 -9.8830 0.0000 20.6456 0.0000 -0.2955
# 5 0.2955 -0.2955 0.0000 0.0000 20.6456 9.8830
# 6 0.0000 0.0000 0.0000 -0.2955 9.8830 31.5942
#
#
#
# Elastic Compliance Matrix: (Units=1/GPa)
#
#
# Indices 1 2 3 4 5 6 
#
# 1 0.014850 -0.003766 0.000836 -0.008911 -0.000266 0.000000
# 2 -0.003766 0.014850 0.000836 0.008911 0.000266 0.000000
# 3 0.000836 0.000836 0.018948 0.000000 0.000000 0.000000
# 4 -0.008911 0.008911 0.000000 0.056976 0.000000 0.000533
# 5 -0.000266 0.000266 0.000000 0.000000 0.056976 -0.017823
# 6 0.000000 0.000000 0.000000 0.000533 -0.017823 0.037231
#
#
# Mechanical properties :
#
#
# Convention : Reuss Voigt Hill
#
# Bulk Modulus (GPa) = 22.49333 24.30711 23.40022
# Shear Modulus (GPa) = 22.84791 27.99969 25.42380
#
# Velocity S-wave (km/s) = 3.40100 3.76496 3.58760
# Velocity P-wave (km/s) = 5.17781 5.58618 5.38587
#
# Compressibility (1/GPa) = 0.04445762
#
# Stress axis : x y z
#
# Youngs Moduli (GPa) = 67.34214 67.34214 52.77597
#
# Poissons Ratio (x) = 0.25362 -0.04411
# Poissons Ratio (y) = 0.25362 -0.04411
# Poissons Ratio (z) = -0.05628 -0.05628
#
# Static dielectric constant tensor:
#      x y z
#    x 3.598930 0.000000 0.000000 
#    y 0.000000 3.598930 0.000000 
#    z 0.000000 0.000000 3.731560 
# 
# 
# High freq. dielectric constant tensor:
#      x y z
#    x 1.776030 0.000000 0.000000 
#    y 0.000000 1.776030 0.000000 
#    z 0.000000 0.000000 1.775470 
# 
# From -- ./inp_files/1730.got.cif
#   From: 2010.06.25/outbox.cif.g09.slc.cpg/sg146_cif.got.tgz:1730.got - 2010.06.28 11:17:22.
