data_PCOD8321945
_publ_section_title
;
Structure prediction by ZEFSAII (Michael W. Deem and Ramdas Pophale) SiO2 
 PCOD8321945
Probable space group: P 31 1 2
;
_chemical_formula_sum "Si O2"
_cell_formula_units_Z 24
_cell_length_a 16.572372
_cell_length_b 16.572372
_cell_length_c 5.010117
_cell_angle_alpha 90.000000
_cell_angle_beta 90.000000
_cell_angle_gamma 120.000000
_cell_volume 1191.647610
_symmetry_space_group_name_H-M "P 31 1 2"
_symmetry_group_IT_number 151
_symmetry_cell_setting 'hexagonal'
loop_
_space_group_symop_operation_xyz
x,y,z
-y,x-y,1/3+z
-x+y,-x,2/3+z
-y,-x,2/3-z
-x+y,y,1/3-z
x,x-y,-z
loop_
_atom_site_type_symbol
_atom_site_label
_atom_site_fract_x
_atom_site_fract_y
_atom_site_fract_z
Si Si1 0.293842 0.051906 0.971769
Si Si2 0.184415 0.540078 0.257694
Si Si3 0.976544 0.434666 0.261917
Si Si4 0.180629 0.995159 0.464177
O O1 0.398317 0.074957 0.898517
O O2 0.216617 0.982752 0.754018
O O3 0.298741 0.149371 0.000000
O O4 0.262045 0.007018 0.263485
O O5 0.248772 0.497544 0.166667
O O6 0.230672 0.615336 0.500000
O O7 0.082006 0.460065 0.343968
O O8 0.168864 0.584432 0.000000
O O9 0.933362 0.466681 0.500000
O O10 0.967329 0.483665 0.000000
O O11 0.087358 0.912642 0.333334
O O12 0.164722 0.082361 0.500000
#
# Coordination Sequence:
#
# PCOD8321945 Si02
#       4
#     6   6   6   6
#     4  10  21  38  58  82 111 147 188 234 290 344
#     4  10  19  30  46  69  99 135 173 210 249 297
#     4  10  21  37  56  79 106 140 180 225 280 334
#     4  10  21  35  55  84 119 156 192 229 272 329
#
# _framework density 20.140180000000001
#
# number of rings (size 3 to 8) (size 9 to 14) (size 15 to 20)
#    0.000    2.000    0.000    3.750    0.000    5.000 
#    0.000    0.000    0.000    1.500    0.000    0.000 
#    0.000    0.000    0.000    0.000    0.000    0.000 
#
# Total GULP energy -297314.281357 kJ/mol
# GULP energy per Si atom -12388.095057 kJ/mol
# Density = 2.009434 g / cm^3
# Si number density = 20.140180 Si / 1000 Ang^3
#
#
#
# Elastic Constant Matrix: (Units=GPa)
#
#
# Indices 1 2 3 4 5 6 
#
# 1 62.2440 26.4619 40.7149 -0.0004 2.5986 0.0000
# 2 26.4619 62.2440 40.7149 0.0004 -2.5986 0.0000
# 3 40.7149 40.7149 140.2456 0.0000 0.0000 0.0000
# 4 -0.0004 0.0004 0.0000 27.0408 0.0000 -2.5986
# 5 2.5986 -2.5986 0.0000 0.0000 27.0408 -0.0004
# 6 0.0000 0.0000 0.0000 -2.5986 -0.0004 17.8911
#
#
#
# Elastic Compliance Matrix: (Units=1/GPa)
#
#
# Indices 1 2 3 4 5 6 
#
# 1 0.021856 -0.006487 -0.004462 0.000000 -0.002724 0.000000
# 2 -0.006487 0.021856 -0.004462 0.000000 0.002724 0.000000
# 3 -0.004462 -0.004462 0.009721 0.000000 0.000000 0.000000
# 4 0.000000 0.000000 0.000000 0.037505 0.000000 0.005447
# 5 -0.002724 0.002724 0.000000 0.000000 0.037505 0.000001
# 6 0.000000 0.000000 0.000000 0.005447 0.000001 0.056685
#
#
# Mechanical properties :
#
#
# Convention : Reuss Voigt Hill
#
# Bulk Modulus (GPa) = 44.22465 53.39080 48.80773
# Shear Modulus (GPa) = 22.37287 24.85065 23.61176
#
# Velocity S-wave (km/s) = 3.33657 3.51648 3.42770
# Velocity P-wave (km/s) = 6.07039 6.56160 6.32077
#
# Compressibility (1/GPa) = 0.02261182
#
# Stress axis : x y z
#
# Youngs Moduli (GPa) = 45.75445 45.75445 102.87027
#
# Poissons Ratio (x) = 0.29680 0.45899
# Poissons Ratio (y) = 0.29680 0.45899
# Poissons Ratio (z) = 0.20415 0.20415
#
# Static dielectric constant tensor:
#      x y z
#    x 3.490870 0.000000 0.000000 
#    y 0.000000 3.490870 0.000000 
#    z 0.000000 0.000000 4.161360 
# 
# 
# High freq. dielectric constant tensor:
#      x y z
#    x 1.761490 0.000000 0.000000 
#    y 0.000000 1.761490 0.000000 
#    z 0.000000 0.000000 1.813180 
# 
# From -- ./inp_files/201.got.cif
#   From: 2010.03.12/outbox.cif.g09.slc.cpg/sg151_1_cif.got.tgz:201.got - 2010.04.03 13:42:29.
