data_PCOD8321032
_publ_section_title
;
Structure prediction by ZEFSAII (Michael W. Deem and Ramdas Pophale) SiO2 
 PCOD8321032
Probable space group: I 41/A C D
;
_chemical_formula_sum "Si O2"
_cell_formula_units_Z 144
_cell_length_a 21.745297
_cell_length_b 21.745297
_cell_length_c 15.555915
_cell_angle_alpha 90.000000
_cell_angle_beta 90.000000
_cell_angle_gamma 90.000000
_cell_volume 7355.737947
_symmetry_space_group_name_H-M "I 41/A C D"
_symmetry_group_IT_number 142
_space_group.IT_coordinate_system_code '2'
_symmetry_cell_setting 'tetragonal'
loop_
_space_group_symop_operation_xyz
x,y,z
1/4-y,3/4+x,1/4+z
-x,1/2-y,z
1/4+y,1/4-x,3/4+z
x,-y,1/2-z
1/2-x,y,-z
3/4+y,1/4+x,1/4-z
1/4-y,1/4-x,1/4-z
-x,-y,-z
3/4+y,1/4-x,3/4-z
x,1/2+y,-z
3/4-y,3/4+x,1/4-z
-x,y,1/2+z
1/2+x,-y,z
1/4-y,3/4-x,3/4+z
3/4+y,3/4+x,3/4+z
1/2+x,1/2+y,1/2+z
3/4-y,1/4+x,3/4+z
1/2-x,-y,1/2+z
3/4+y,3/4-x,1/4+z
1/2+x,1/2-y,-z
-x,1/2+y,1/2-z
1/4+y,3/4+x,3/4-z
3/4-y,3/4-x,3/4-z
1/2-x,1/2-y,1/2-z
1/4+y,3/4-x,1/4-z
1/2+x,y,1/2-z
1/4-y,1/4+x,3/4-z
1/2-x,1/2+y,z
x,1/2-y,1/2+z
3/4-y,1/4-x,1/4+z
1/4+y,1/4+x,1/4+z
loop_
_atom_site_type_symbol
_atom_site_label
_atom_site_fract_x
_atom_site_fract_y
_atom_site_fract_z
Si Si1 0.377369 0.366848 0.756457
Si Si2 0.750000 0.669837 0.000000
Si Si3 0.472905 0.036876 0.419564
Si Si4 0.402224 0.759756 0.579954
Si Si5 0.418054 0.801288 0.397512
O O1 0.377394 0.440343 0.758938
O O2 0.317194 0.342974 0.805994
O O3 0.438435 0.337394 0.801659
O O4 0.373435 0.344730 0.657970
O O5 0.756478 0.712218 0.085989
O O6 0.518129 0.092772 0.391529
O O7 0.500000 0.000000 0.500000
O O8 0.463110 0.786890 0.625000
O O9 0.389641 0.797263 0.492355
O O10 0.485999 0.830148 0.401511
#
# Coordination Sequence:
#
# PCOD8321032 Si02
#       5
#    32  16  32  32  32
#     4  10  22  38  59  87 119 160 206 241 301 359
#     4  10  22  40  60  82 118 166 206 236 284 366
#     4  11  25  38  60  91 123 155 199 253 307 359
#     4  10  20  34  59  87 123 156 195 241 311 368
#     4   9  18  30  53  88 120 152 186 245 308 363
#
# _framework density 19.576554000000002
#
# number of rings (size 3 to 8) (size 9 to 14) (size 15 to 20)
#    0.000    2.000    0.000    4.000   12.444    8.889 
#    0.000    0.000    0.000    2.667    0.000    0.000 
#    0.000    0.000    0.000    0.000    0.000    0.000 
#
# Total GULP energy -892391.684671 kJ/mol
# GULP energy per Si atom -12394.328954 kJ/mol
# Density = 1.953200 g / cm^3
# Si number density = 19.576554 Si / 1000 Ang^3
#
#
#
# Elastic Constant Matrix: (Units=GPa)
#
#
# Indices 1 2 3 4 5 6 
#
# 1 75.3185 52.2473 55.3638 0.0000 0.0000 0.0000
# 2 52.2473 75.3204 55.3643 0.0000 0.0000 0.0000
# 3 55.3638 55.3643 172.9516 0.0000 0.0000 0.0000
# 4 0.0000 0.0000 0.0000 35.2109 0.0000 0.0000
# 5 0.0000 0.0000 0.0000 0.0000 35.2107 0.0000
# 6 0.0000 0.0000 0.0000 0.0000 0.0000 21.7090
#
#
#
# Elastic Compliance Matrix: (Units=1/GPa)
#
#
# Indices 1 2 3 4 5 6 
#
# 1 0.027099 -0.016244 -0.003475 0.000000 0.000000 0.000000
# 2 -0.016244 0.027098 -0.003475 0.000000 0.000000 0.000000
# 3 -0.003475 -0.003475 0.008007 0.000000 0.000000 0.000000
# 4 0.000000 0.000000 0.000000 0.028400 0.000000 0.000000
# 5 0.000000 0.000000 0.000000 0.000000 0.028400 0.000000
# 6 0.000000 0.000000 0.000000 0.000000 0.000000 0.046064
#
#
# Mechanical properties :
#
#
# Convention : Reuss Voigt Hill
#
# Bulk Modulus (GPa) = 63.22079 72.17124 67.69602
# Shear Modulus (GPa) = 23.07038 29.13379 26.10209
#
# Velocity S-wave (km/s) = 3.43661 3.86190 3.65545
# Velocity P-wave (km/s) = 6.93623 7.53869 7.24373
#
# Compressibility (1/GPa) = 0.01581758
#
# Stress axis : x y z
#
# Youngs Moduli (GPa) = 36.90150 36.90254 124.89552
#
# Poissons Ratio (x) = 0.59943 0.43401
# Poissons Ratio (y) = 0.59941 0.43399
# Poissons Ratio (z) = 0.12823 0.12823
#
# Static dielectric constant tensor:
#      x y z
#    x 3.293620 0.000000 0.000000 
#    y 0.000000 3.293610 0.000000 
#    z 0.000000 0.000000 4.147180 
# 
# 
# High freq. dielectric constant tensor:
#      x y z
#    x 1.725020 0.000000 0.000000 
#    y 0.000000 1.725020 0.000000 
#    z 0.000000 0.000000 1.800740 
# 
# From -- ./inp_files/7292.got.cif
#   From: 2010.03.12/outbox.cif.g09.slc.cpg/sg142_4_cif.got.tgz:7292.got - 2010.04.03 13:27:16.
