data_PCOD8321789
_publ_section_title
;
Structure prediction by ZEFSAII (Michael W. Deem and Ramdas Pophale) SiO2 
 PCOD8321789
Probable space group: R -3
;
_chemical_formula_sum "Si O2"
_cell_formula_units_Z 126
_cell_length_a 20.355139
_cell_length_b 20.355139
_cell_length_c 17.101499
_cell_angle_alpha 90.000000
_cell_angle_beta 90.000000
_cell_angle_gamma 120.000000
_cell_volume 6136.390033
_symmetry_space_group_name_H-M "R -3"
_symmetry_group_IT_number 148
_symmetry_cell_setting 'hexagonal'
loop_
_space_group_symop_operation_xyz
x,y,z
-y,x-y,z
-x+y,-x,z
-x,-y,-z
y,-x+y,-z
x-y,x,-z
2/3+x,1/3+y,1/3+z
2/3-y,1/3+x-y,1/3+z
2/3-x+y,1/3-x,1/3+z
2/3-x,1/3-y,1/3-z
2/3+y,1/3-x+y,1/3-z
2/3+x-y,1/3+x,1/3-z
1/3+x,2/3+y,2/3+z
1/3-y,2/3+x-y,2/3+z
1/3-x+y,2/3-x,2/3+z
1/3-x,2/3-y,2/3-z
1/3+y,2/3-x+y,2/3-z
1/3+x-y,2/3+x,2/3-z
loop_
_atom_site_type_symbol
_atom_site_label
_atom_site_fract_x
_atom_site_fract_y
_atom_site_fract_z
Si Si1 0.468440 0.364681 0.650595
Si Si2 0.254515 0.270074 0.025548
Si Si3 0.020167 0.243673 0.135093
Si Si4 0.404970 0.467806 0.384999
Si Si5 0.261588 0.254418 0.565357
Si Si6 0.467515 0.815074 0.135813
Si Si7 0.732244 0.912611 0.182455
O O1 0.389964 0.360564 0.678165
O O2 0.521982 0.452378 0.631132
O O3 0.513651 0.342771 0.713788
O O4 0.455124 0.309281 0.577366
O O5 0.308405 0.237629 0.052818
O O6 0.196860 0.253164 0.094931
O O7 0.206884 0.216565 0.950995
O O8 0.022251 0.322996 0.118327
O O9 0.096530 0.253910 0.172868
O O10 0.957048 0.192040 0.196930
O O11 0.339173 0.440652 0.318901
O O12 0.192151 0.228498 0.506510
O O13 0.312627 0.216038 0.545354
O O14 0.469221 0.751932 0.191739
#
# Coordination Sequence:
#
# PCOD8321789 Si02
#       7
#    18  18  18  18  18  18  18
#     4  12  24  40  66  95 127 174 220 264 322 396
#     4  11  21  42  61  93 130 163 211 265 332 385
#     4  11  24  40  64  96 131 169 209 271 334 385
#     4  11  22  40  62  92 130 170 210 269 325 378
#     4  11  21  41  61  94 128 160 212 264 327 383
#     4  12  25  42  62  89 131 178 218 258 316 386
#     4  12  24  39  66  98 129 170 217 267 328 396
#
# _framework density 20.533244
#
# number of rings (size 3 to 8) (size 9 to 14) (size 15 to 20)
#    0.000    0.571    7.143    2.714    2.000    4.000 
#    0.000    0.000    0.000    0.571    0.000    1.000 
#    0.000    0.000    0.000    0.000    0.000    0.000 
#
# Total GULP energy -520409.239941 kJ/mol
# GULP energy per Si atom -12390.696189 kJ/mol
# Density = 2.048651 g / cm^3
# Si number density = 20.533244 Si / 1000 Ang^3
#
#
#
# Elastic Constant Matrix: (Units=GPa)
#
#
# Indices 1 2 3 4 5 6 
#
# 1 54.3360 23.5172 29.9480 -0.8755 2.5226 0.0000
# 2 23.5172 54.3360 29.9480 0.8755 -2.5226 0.0000
# 3 29.9480 29.9480 114.4982 0.0000 0.0000 0.0000
# 4 -0.8755 0.8755 0.0000 27.4327 0.0000 -2.5226
# 5 2.5226 -2.5226 0.0000 0.0000 27.4327 -0.8755
# 6 0.0000 0.0000 0.0000 -2.5226 -0.8755 15.4094
#
#
#
# Elastic Compliance Matrix: (Units=1/GPa)
#
#
# Indices 1 2 3 4 5 6 
#
# 1 0.024543 -0.008462 -0.004206 0.001053 -0.003035 0.000000
# 2 -0.008462 0.024543 -0.004206 -0.001053 0.003035 0.000000
# 3 -0.004206 -0.004206 0.010934 0.000000 0.000000 0.000000
# 4 0.001053 -0.001053 0.000000 0.037078 0.000000 0.006070
# 5 -0.003035 0.003035 0.000000 0.000000 0.037078 0.002107
# 6 0.000000 0.000000 0.000000 0.006070 0.002107 0.066009
#
#
# Mechanical properties :
#
#
# Convention : Reuss Voigt Hill
#
# Bulk Modulus (GPa) = 38.06468 43.33298 40.69883
# Shear Modulus (GPa) = 20.60246 23.37208 21.98727
#
# Velocity S-wave (km/s) = 3.17104 3.37746 3.27588
# Velocity P-wave (km/s) = 5.65558 6.02987 5.84572
#
# Compressibility (1/GPa) = 0.02627107
#
# Stress axis : x y z
#
# Youngs Moduli (GPa) = 40.74561 40.74561 91.45781
#
# Poissons Ratio (x) = 0.34479 0.38467
# Poissons Ratio (y) = 0.34479 0.38467
# Poissons Ratio (z) = 0.17138 0.17138
#
# Static dielectric constant tensor:
#      x y z
#    x 3.532560 0.000000 0.000000 
#    y 0.000000 3.532560 0.000000 
#    z 0.000000 0.000000 4.212990 
# 
# 
# High freq. dielectric constant tensor:
#      x y z
#    x 1.782510 0.000000 0.000000 
#    y 0.000000 1.782510 0.000000 
#    z 0.000000 0.000000 1.826370 
# 
# From -- ./inp_files/2741.got.cif
#   From: 2010.03.12/outbox.cif.g09.slc.cpg/sg148_2_cif.got.tgz:2741.got - 2010.04.03 13:38:46.
