data_PCOD8321027
_publ_section_title
;
Structure prediction by ZEFSAII (Michael W. Deem and Ramdas Pophale) SiO2 
 PCOD8321027
Probable space group: I 41/A C D
;
_chemical_formula_sum "Si O2"
_cell_formula_units_Z 160
_cell_length_a 23.710636
_cell_length_b 23.710636
_cell_length_c 15.519317
_cell_angle_alpha 90.000000
_cell_angle_beta 90.000000
_cell_angle_gamma 90.000000
_cell_volume 8724.870929
_symmetry_space_group_name_H-M "I 41/A C D"
_symmetry_group_IT_number 142
_space_group.IT_coordinate_system_code '2'
_symmetry_cell_setting 'tetragonal'
loop_
_space_group_symop_operation_xyz
x,y,z
1/4-y,3/4+x,1/4+z
-x,1/2-y,z
1/4+y,1/4-x,3/4+z
x,-y,1/2-z
1/2-x,y,-z
3/4+y,1/4+x,1/4-z
1/4-y,1/4-x,1/4-z
-x,-y,-z
3/4+y,1/4-x,3/4-z
x,1/2+y,-z
3/4-y,3/4+x,1/4-z
-x,y,1/2+z
1/2+x,-y,z
1/4-y,3/4-x,3/4+z
3/4+y,3/4+x,3/4+z
1/2+x,1/2+y,1/2+z
3/4-y,1/4+x,3/4+z
1/2-x,-y,1/2+z
3/4+y,3/4-x,1/4+z
1/2+x,1/2-y,-z
-x,1/2+y,1/2-z
1/4+y,3/4+x,3/4-z
3/4-y,3/4-x,3/4-z
1/2-x,1/2-y,1/2-z
1/4+y,3/4-x,1/4-z
1/2+x,y,1/2-z
1/4-y,1/4+x,3/4-z
1/2-x,1/2+y,z
x,1/2-y,1/2+z
3/4-y,1/4-x,1/4+z
1/4+y,1/4+x,1/4+z
loop_
_atom_site_type_symbol
_atom_site_label
_atom_site_fract_x
_atom_site_fract_y
_atom_site_fract_z
Si Si1 0.247165 0.345095 0.655120
Si Si2 0.086515 0.388752 0.701292
Si Si3 0.501421 0.445382 0.197755
Si Si4 0.902326 0.568044 0.568413
Si Si5 0.714819 0.952808 0.416615
O O1 0.198584 0.360256 0.585052
O O2 0.289239 0.299222 0.616721
O O3 0.217436 0.319643 0.740579
O O4 0.282298 0.399761 0.683800
O O5 0.091609 0.341609 0.625000
O O6 0.122495 0.370333 0.783743
O O7 0.022187 0.398368 0.734345
O O8 0.522942 0.500000 0.250000
O O9 0.552691 0.419529 0.143675
O O10 0.850348 0.531484 0.603441
O O11 0.750000 0.934999 0.500000
O O12 0.742369 0.007631 0.375000
#
# Coordination Sequence:
#
# PCOD8321027 Si02
#       5
#    32  32  32  32  32
#     4  10  20  34  53  80 111 150 184 223 268 343
#     4   9  19  34  57  80 102 141 194 232 269 321
#     4  10  20  35  55  78 113 148 188 233 279 336
#     4  11  20  34  52  79 112 149 186 228 282 332
#     4  12  22  31  49  80 118 148 177 220 279 343
#
# _framework density 18.338380000000001
#
# number of rings (size 3 to 8) (size 9 to 14) (size 15 to 20)
#    0.000    1.600    4.000    3.000    0.000    0.000 
#    0.000    0.000    0.000    0.600    0.000    4.200 
#    0.000    0.000    0.000    0.000    0.000    0.000 
#
# Total GULP energy -991741.485179 kJ/mol
# GULP energy per Si atom -12396.768565 kJ/mol
# Density = 1.829664 g / cm^3
# Si number density = 18.338380 Si / 1000 Ang^3
#
#
#
# Elastic Constant Matrix: (Units=GPa)
#
#
# Indices 1 2 3 4 5 6 
#
# 1 63.2074 26.9881 34.4493 0.0000 0.0000 0.0000
# 2 26.9881 63.2056 34.4504 0.0000 0.0000 0.0000
# 3 34.4493 34.4504 94.4038 0.0000 0.0000 0.0000
# 4 0.0000 0.0000 0.0000 36.4071 0.0000 0.0000
# 5 0.0000 0.0000 0.0000 0.0000 36.4074 0.0000
# 6 0.0000 0.0000 0.0000 0.0000 0.0000 13.8400
#
#
#
# Elastic Compliance Matrix: (Units=1/GPa)
#
#
# Indices 1 2 3 4 5 6 
#
# 1 0.021491 -0.006119 -0.005609 0.000000 0.000000 0.000000
# 2 -0.006119 0.021492 -0.005610 0.000000 0.000000 0.000000
# 3 -0.005609 -0.005610 0.014687 0.000000 0.000000 0.000000
# 4 0.000000 0.000000 0.000000 0.027467 0.000000 0.000000
# 5 0.000000 0.000000 0.000000 0.000000 0.027467 0.000000
# 6 0.000000 0.000000 0.000000 0.000000 0.000000 0.072254
#
#
# Mechanical properties :
#
#
# Convention : Reuss Voigt Hill
#
# Bulk Modulus (GPa) = 43.49154 45.84359 44.66757
# Shear Modulus (GPa) = 22.00714 25.65951 23.83332
#
# Velocity S-wave (km/s) = 3.46794 3.74468 3.60897
# Velocity P-wave (km/s) = 6.30897 6.61436 6.46347
#
# Compressibility (1/GPa) = 0.02299298
#
# Stress axis : x y z
#
# Youngs Moduli (GPa) = 46.53152 46.52919 68.08755
#
# Poissons Ratio (x) = 0.28471 0.38193
# Poissons Ratio (y) = 0.28472 0.38197
# Poissons Ratio (z) = 0.26101 0.26103
#
# Static dielectric constant tensor:
#      x y z
#    x 3.123130 0.000000 0.000000 
#    y 0.000000 3.123130 0.000000 
#    z 0.000000 0.000000 3.698840 
# 
# 
# High freq. dielectric constant tensor:
#      x y z
#    x 1.681710 0.000000 0.000000 
#    y 0.000000 1.681710 0.000000 
#    z 0.000000 0.000000 1.728160 
# 
# From -- ./inp_files/5387.got.cif
#   From: 2010.03.12/outbox.cif.g09.slc.cpg/sg142_3_cif.got.tgz:5387.got - 2010.04.03 13:27:16.
