data_PCOD8321575
_publ_section_title
;
Structure prediction by ZEFSAII (Michael W. Deem and Ramdas Pophale) SiO2 
 PCOD8321575
Probable space group: R 3
;
_chemical_formula_sum "Si O2"
_cell_formula_units_Z 42
_cell_length_a 15.303735
_cell_length_b 15.303735
_cell_length_c 8.819657
_cell_angle_alpha 90.000000
_cell_angle_beta 90.000000
_cell_angle_gamma 120.000000
_cell_volume 1788.863492
_symmetry_space_group_name_H-M "R 3"
_symmetry_group_IT_number 146
_symmetry_cell_setting 'hexagonal'
loop_
_space_group_symop_operation_xyz
x,y,z
-y,x-y,z
-x+y,-x,z
2/3+x,1/3+y,1/3+z
2/3-y,1/3+x-y,1/3+z
2/3-x+y,1/3-x,1/3+z
1/3+x,2/3+y,2/3+z
1/3-y,2/3+x-y,2/3+z
1/3-x+y,2/3-x,2/3+z
loop_
_atom_site_type_symbol
_atom_site_label
_atom_site_fract_x
_atom_site_fract_y
_atom_site_fract_z
Si Si1 0.147921 0.620429 0.465290
Si Si2 0.124065 0.927040 0.108821
Si Si3 0.666668 0.333334 0.973752
Si Si4 0.860319 0.165289 0.682041
Si Si5 0.234030 0.907937 0.663831
Si Si6 0.666668 0.333335 0.613560
O O1 0.168071 0.631242 0.647401
O O2 0.223857 0.590816 0.380216
O O3 0.160458 0.714893 0.368711
O O4 0.037323 0.519859 0.456662
O O5 0.130636 0.842392 0.209885
O O6 0.093544 0.989658 0.221214
O O7 0.229209 0.005393 0.026259
O O8 0.666668 0.333334 0.794148
O O9 0.837188 0.193950 0.844832
O O10 0.975199 0.246831 0.649899
#
# Coordination Sequence:
#
# PCOD8321575 Si02
#       6
#     9   9   3   9   9   3
#     4  12  25  46  77 106 155 205 255 314 389 461
#     4  12  25  48  79 111 152 201 265 316 387 470
#     4  12  22  44  73 108 151 197 250 315 373 458
#     4  12  25  46  76 112 152 199 260 321 380 461
#     4  12  23  46  77 111 151 206 256 315 392 460
#     4  12  28  44  76 108 151 200 256 315 391 464
#
# _framework density 23.478594000000001
#
# number of rings (size 3 to 8) (size 9 to 14) (size 15 to 20)
#    0.000    0.000    6.429    3.857    0.000    0.000 
#    7.714    0.000    0.000    0.000    0.000    0.000 
#    0.000    0.000    0.000    0.000    0.000    0.000 
#
# Total GULP energy -173448.643407 kJ/mol
# GULP energy per Si atom -12389.188815 kJ/mol
# Density = 2.342516 g / cm^3
# Si number density = 23.478594 Si / 1000 Ang^3
#
#
#
# Elastic Constant Matrix: (Units=GPa)
#
#
# Indices 1 2 3 4 5 6 
#
# 1 13.0314 116.7052 42.4412 5.8257 34.3078 -0.0044
# 2 116.7052 13.0261 42.4407 -5.8292 -34.3083 -0.0038
# 3 42.4412 42.4407 181.9167 0.0001 0.0004 0.0001
# 4 5.8257 -5.8292 0.0001 23.4858 0.0009 -34.3154
# 5 34.3078 -34.3083 0.0004 0.0009 23.4900 5.8293
# 6 -0.0044 -0.0038 0.0001 -34.3154 5.8293 -51.8509
#
#
#
# Elastic Compliance Matrix: (Units=1/GPa)
#
#
# Indices 1 2 3 4 5 6 
#
# 1 0.002131 0.006966 -0.002122 0.001200 0.007063 -0.000001
# 2 0.006966 0.002130 -0.002122 -0.001200 -0.007063 -0.000001
# 3 -0.002122 -0.002122 0.006487 0.000000 0.000000 0.000000
# 4 0.001200 -0.001200 0.000000 0.021344 0.000000 -0.014126
# 5 0.007063 -0.007063 0.000000 0.000000 0.021344 0.002399
# 6 -0.000001 -0.000001 0.000000 -0.014126 0.002399 -0.009668
#
#
# Mechanical properties :
#
#
# Convention : Reuss Voigt Hill
#
# Bulk Modulus (GPa) = 61.76063 67.90540 64.83301
# Shear Modulus (GPa) = 114.35917 -0.54920 56.90498
#
# Velocity S-wave (km/s) = 6.98667 -0.48417 4.92845
# Velocity P-wave (km/s) = 9.56279 5.35467 7.74982
#
# Compressibility (1/GPa) = 0.01619154
#
# Stress axis : x y z
#
# Youngs Moduli (GPa) = 469.37224 469.45816 154.14862
#
# Poissons Ratio (x) = -3.27038 0.32715
# Poissons Ratio (y) = -3.26978 0.32713
# Poissons Ratio (z) = 0.99614 0.99627
#
# Static dielectric constant tensor:
#      x y z
#    x 4.676800 0.000080 0.000030 
#    y 0.000080 4.676760 0.000010 
#    z 0.000030 0.000010 4.536550 
# 
# 
# High freq. dielectric constant tensor:
#      x y z
#    x 1.925060 0.000000 0.000000 
#    y 0.000000 1.925060 0.000000 
#    z 0.000000 0.000000 1.945550 
# 
# From -- ./inp_files/644.got.cif
#   From: 2010.06.25/outbox.cif.g09.slc.cpg/sg146_cif.got.tgz:644.got - 2010.06.28 11:17:22.
