data_PCOD8321982
_publ_section_title
;
Structure prediction by ZEFSAII (Michael W. Deem and Ramdas Pophale) SiO2 
 PCOD8321982
Probable space group: P 31 1 2
;
_chemical_formula_sum "Si O2"
_cell_formula_units_Z 24
_cell_length_a 12.616408
_cell_length_b 12.616408
_cell_length_c 9.393105
_cell_angle_alpha 90.000000
_cell_angle_beta 90.000000
_cell_angle_gamma 120.000000
_cell_volume 1294.825546
_symmetry_space_group_name_H-M "P 31 1 2"
_symmetry_group_IT_number 151
_symmetry_cell_setting 'hexagonal'
loop_
_space_group_symop_operation_xyz
x,y,z
-y,x-y,1/3+z
-x+y,-x,2/3+z
-y,-x,2/3-z
-x+y,y,1/3-z
x,x-y,-z
loop_
_atom_site_type_symbol
_atom_site_label
_atom_site_fract_x
_atom_site_fract_y
_atom_site_fract_z
Si Si1 0.676224 0.161794 0.054383
Si Si2 0.238587 0.172634 0.861521
Si Si3 0.633028 0.554267 0.251987
Si Si4 0.820173 0.824778 0.279044
O O1 0.592757 0.185513 0.166667
O O2 0.714638 0.065505 0.114941
O O3 0.798104 0.286713 0.012314
O O4 0.604931 0.104268 0.907845
O O5 0.170518 0.048727 0.766844
O O6 0.141550 0.209600 0.918670
O O7 0.297892 0.148946 0.000000
O O8 0.503378 0.496623 0.333334
O O9 0.694167 0.699592 0.253323
O O10 0.917116 0.834231 0.166667
#
# Coordination Sequence:
#
# PCOD8321982 Si02
#       4
#     6   6   6   6
#     4  10  23  36  54  81 111 148 190 231 280 340
#     4  11  22  35  57  88 118 150 185 232 287 349
#     4  10  22  37  54  80 111 149 188 233 283 332
#     4  11  20  37  57  85 116 149 187 231 288 342
#
# _framework density 18.535316000000002
#
# number of rings (size 3 to 8) (size 9 to 14) (size 15 to 20)
#    0.000    1.500    5.000    3.000   10.500    0.000 
#    0.000    0.000    0.000    0.000    6.500    0.000 
#    0.000    0.000    0.000    0.000    0.000    0.000 
#
# Total GULP energy -297451.288117 kJ/mol
# GULP energy per Si atom -12393.803672 kJ/mol
# Density = 1.849313 g / cm^3
# Si number density = 18.535316 Si / 1000 Ang^3
#
#
#
# Elastic Constant Matrix: (Units=GPa)
#
#
# Indices 1 2 3 4 5 6 
#
# 1 84.7598 -0.0466 33.7894 -0.0001 0.0593 0.0000
# 2 -0.0466 84.7598 33.7894 0.0001 -0.0593 0.0000
# 3 33.7894 33.7894 130.6105 0.0000 0.0000 0.0000
# 4 -0.0001 0.0001 0.0000 32.8846 0.0000 -0.0593
# 5 0.0593 -0.0593 0.0000 0.0000 32.8846 -0.0001
# 6 0.0000 0.0000 0.0000 -0.0593 -0.0001 42.4032
#
#
#
# Elastic Compliance Matrix: (Units=1/GPa)
#
#
# Indices 1 2 3 4 5 6 
#
# 1 0.013333 0.001541 -0.003848 0.000000 -0.000021 0.000000
# 2 0.001541 0.013333 -0.003848 0.000000 0.000021 0.000000
# 3 -0.003848 -0.003848 0.009647 0.000000 0.000000 0.000000
# 4 0.000000 0.000000 0.000000 0.030409 0.000000 0.000043
# 5 -0.000021 0.000021 0.000000 0.000000 0.030409 0.000000
# 6 0.000000 0.000000 0.000000 0.000043 0.000000 0.023583
#
#
# Mechanical properties :
#
#
# Convention : Reuss Voigt Hill
#
# Bulk Modulus (GPa) = 41.66016 48.35495 45.00755
# Shear Modulus (GPa) = 35.45446 37.14100 36.29773
#
# Velocity S-wave (km/s) = 4.37831 4.48123 4.43007
# Velocity P-wave (km/s) = 6.93429 7.27461 7.10649
#
# Compressibility (1/GPa) = 0.02400375
#
# Stress axis : x y z
#
# Youngs Moduli (GPa) = 75.00236 75.00236 103.65543
#
# Poissons Ratio (x) = -0.11560 0.39887
# Poissons Ratio (y) = -0.11560 0.39887
# Poissons Ratio (z) = 0.28861 0.28861
#
# Static dielectric constant tensor:
#      x y z
#    x 1.750110 0.000000 0.000000 
#    y 0.000000 1.750110 0.000000 
#    z 0.000000 0.000000 3.763310 
# 
# 
# High freq. dielectric constant tensor:
#      x y z
#    x 1.692240 0.000000 0.000000 
#    y 0.000000 1.692240 0.000000 
#    z 0.000000 0.000000 1.752730 
# 
# From -- ./inp_files/1424.got.cif
#   From: 2010.03.12/outbox.cif.g09.slc.cpg/sg151_1_cif.got.tgz:1424.got - 2010.04.03 13:42:29.
