data_PCOD8321508
_publ_section_title
;
Structure prediction by ZEFSAII (Michael W. Deem and Ramdas Pophale) SiO2 
 PCOD8321508
Probable space group: R 3
;
_chemical_formula_sum "Si O2"
_cell_formula_units_Z 51
_cell_length_a 15.854220
_cell_length_b 15.854220
_cell_length_c 11.563483
_cell_angle_alpha 90.000000
_cell_angle_beta 90.000000
_cell_angle_gamma 120.000000
_cell_volume 2517.149781
_symmetry_space_group_name_H-M "R 3"
_symmetry_group_IT_number 146
_symmetry_cell_setting 'hexagonal'
loop_
_space_group_symop_operation_xyz
x,y,z
-y,x-y,z
-x+y,-x,z
2/3+x,1/3+y,1/3+z
2/3-y,1/3+x-y,1/3+z
2/3-x+y,1/3-x,1/3+z
1/3+x,2/3+y,2/3+z
1/3-y,2/3+x-y,2/3+z
1/3-x+y,2/3-x,2/3+z
loop_
_atom_site_type_symbol
_atom_site_label
_atom_site_fract_x
_atom_site_fract_y
_atom_site_fract_z
Si Si1 0.000000 0.000000 0.445475
Si Si2 0.824163 0.297452 0.879111
Si Si3 0.060589 0.749547 0.933524
Si Si4 0.202989 0.864668 0.343337
Si Si5 0.422661 0.303082 0.025151
Si Si6 0.729425 0.179925 0.494306
Si Si7 0.666668 0.333334 0.504720
O O1 0.912657 0.893133 0.484666
O O2 0.000000 0.000000 0.308471
O O3 0.873886 0.257770 0.789950
O O4 0.909395 0.359002 0.969883
O O5 0.733520 0.215364 0.950628
O O6 0.071920 0.815365 0.822125
O O7 0.114788 0.689276 0.902152
O O8 0.946225 0.679772 0.960634
O O9 0.101992 0.814163 0.049125
O O10 0.139259 0.751314 0.367942
O O11 0.156775 0.899415 0.242666
O O12 0.694225 0.254829 0.456052
#
# Coordination Sequence:
#
# PCOD8321508 Si02
#       7
#     3   9   9   9   9   9   3
#     4  12  24  39  73  95 133 168 222 277 329 394
#     4  12  24  44  66 101 133 173 224 278 334 395
#     4   9  20  40  66  90 124 175 220 268 328 405
#     4  11  24  41  66  98 130 173 220 276 330 399
#     4  10  19  40  67  91 127 173 223 264 331 399
#     4  10  23  40  67  93 126 174 225 268 332 398
#     4  12  24  42  61  98 133 168 216 277 332 394
#
# _framework density 20.261011
#
# number of rings (size 3 to 8) (size 9 to 14) (size 15 to 20)
#    0.000    1.412    5.294    0.000    4.941    0.000 
#   12.706    0.000    0.000    0.000    0.000    0.000 
#    0.000    0.000    0.000    0.000    0.000    0.000 
#
# Total GULP energy -210720.277250 kJ/mol
# GULP energy per Si atom -12395.310426 kJ/mol
# Density = 2.021490 g / cm^3
# Si number density = 20.261011 Si / 1000 Ang^3
#
#
#
# Elastic Constant Matrix: (Units=GPa)
#
#
# Indices 1 2 3 4 5 6 
#
# 1 69.6692 15.8335 22.3729 1.6341 -0.8638 -0.0004
# 2 15.8335 69.6706 22.3736 -1.6341 0.8637 0.0000
# 3 22.3729 22.3736 94.2631 0.0002 0.0000 -0.0005
# 4 1.6341 -1.6341 0.0002 28.7842 -0.0001 0.8637
# 5 -0.8638 0.8637 0.0000 -0.0001 28.7843 1.6340
# 6 -0.0004 0.0000 -0.0005 0.8637 1.6340 26.9182
#
#
#
# Elastic Compliance Matrix: (Units=1/GPa)
#
#
# Indices 1 2 3 4 5 6 
#
# 1 0.016006 -0.002651 -0.003170 -0.001059 0.000560 0.000000
# 2 -0.002651 0.016005 -0.003170 0.001059 -0.000560 0.000000
# 3 -0.003170 -0.003170 0.012113 0.000000 0.000000 0.000000
# 4 -0.001059 0.001059 0.000000 0.034895 0.000000 -0.001120
# 5 0.000560 -0.000560 0.000000 0.000000 0.034895 -0.002118
# 6 0.000000 0.000000 0.000000 -0.001120 -0.002118 0.037314
#
#
# Mechanical properties :
#
#
# Convention : Reuss Voigt Hill
#
# Bulk Modulus (GPa) = 38.25089 39.41810 38.83450
# Shear Modulus (GPa) = 28.10183 28.43220 28.26702
#
# Velocity S-wave (km/s) = 3.72827 3.75012 3.73921
# Velocity P-wave (km/s) = 6.11992 6.18455 6.15232
#
# Compressibility (1/GPa) = 0.02614318
#
# Stress axis : x y z
#
# Youngs Moduli (GPa) = 62.47758 62.47856 82.55451
#
# Poissons Ratio (x) = 0.16566 0.26166
# Poissons Ratio (y) = 0.16565 0.26167
# Poissons Ratio (z) = 0.19803 0.19803
#
# Static dielectric constant tensor:
#      x y z
#    x 3.539060 0.000000 0.000000 
#    y 0.000000 3.539050 0.000000 
#    z 0.000000 0.000000 3.758360 
# 
# 
# High freq. dielectric constant tensor:
#      x y z
#    x 1.776600 0.000000 0.000000 
#    y 0.000000 1.776600 0.000000 
#    z 0.000000 0.000000 1.800580 
# 
# From -- ./inp_files/1148.got.cif
#   From: 2010.06.25/outbox.cif.g09.slc.cpg/sg146_cif.got.tgz:1148.got - 2010.06.28 11:17:22.
