data_PCOD8321845
_publ_section_title
;
Structure prediction by ZEFSAII (Michael W. Deem and Ramdas Pophale) SiO2 
 PCOD8321845
Probable space group: P 3 1 2
;
_chemical_formula_sum "Si O2"
_cell_formula_units_Z 42
_cell_length_a 12.583936
_cell_length_b 12.583936
_cell_length_c 17.744950
_cell_angle_alpha 90.000000
_cell_angle_beta 90.000000
_cell_angle_gamma 120.000000
_cell_volume 2433.539576
_symmetry_space_group_name_H-M "P 3 1 2"
_symmetry_group_IT_number 149
_symmetry_cell_setting 'hexagonal'
loop_
_space_group_symop_operation_xyz
x,y,z
-y,x-y,z
-x+y,-x,z
-y,-x,-z
-x+y,y,-z
x,x-y,-z
loop_
_atom_site_type_symbol
_atom_site_label
_atom_site_fract_x
_atom_site_fract_y
_atom_site_fract_z
Si Si1 0.666435 0.581628 0.140887
Si Si2 0.086254 0.666260 0.280931
Si Si3 0.666435 0.581628 0.859113
Si Si4 0.333740 0.419995 0.719069
Si Si5 0.752726 0.751040 1.000000
Si Si6 0.243888 0.243972 0.585631
Si Si7 0.243888 0.999916 0.585631
O O1 0.546305 0.453694 0.123312
O O2 0.778545 0.557089 0.148770
O O3 0.655200 0.641790 0.217533
O O4 0.684998 0.672826 0.073278
O O5 0.120495 0.560247 0.284778
O O6 0.208001 0.791999 0.261238
O O7 0.986589 0.641789 0.217533
O O8 0.029563 0.671414 0.361115
O O9 0.684999 0.672827 0.926722
O O10 0.328586 0.358149 0.638885
O O11 0.741184 0.870592 0.000000
O O12 0.895179 0.790357 0.000000
O O13 0.258767 0.129383 0.609164
O O14 0.287741 0.285318 0.500000
O O15 0.101509 0.203018 0.595360
#
# Coordination Sequence:
#
# PCOD8321845 Si02
#       7
#     6   6   6   6   6   6   6
#     4  10  20  34  53  75  99 128 163 204 247 290
#     4  10  20  33  49  70  98 132 167 202 241 288
#     4  10  20  34  53  75  99 128 163 204 247 290
#     4  10  20  33  49  70  98 132 167 202 241 288
#     4  10  20  34  52  74 100 128 158 194 238 288
#     4   9  17  30  49  72  96 122 155 198 247 295
#     4   9  17  30  49  72  96 122 155 198 247 295
#
# _framework density 17.258811999999999
#
# number of rings (size 3 to 8) (size 9 to 14) (size 15 to 20)
#    0.000    2.286    0.000    3.143    0.000    1.714 
#    0.000    1.429    0.000   15.429    0.000    0.000 
#    0.000    0.000    0.000    0.000    0.000    0.000 
#
# Total GULP energy -520923.744486 kJ/mol
# GULP energy per Si atom -12402.946297 kJ/mol
# Density = 1.721953 g / cm^3
# Si number density = 17.258812 Si / 1000 Ang^3
#
#
#
# Elastic Constant Matrix: (Units=GPa)
#
#
# Indices 1 2 3 4 5 6 
#
# 1 110.0417 64.2987 60.1502 0.0000 0.0000 0.0000
# 2 64.2987 110.0417 60.1502 0.0000 0.0000 0.0000
# 3 60.1502 60.1502 107.8223 0.0000 0.0000 0.0000
# 4 0.0000 0.0000 0.0000 26.5873 0.0000 0.0000
# 5 0.0000 0.0000 0.0000 0.0000 26.5873 0.0000
# 6 0.0000 0.0000 0.0000 0.0000 0.0000 22.8715
#
#
#
# Elastic Compliance Matrix: (Units=1/GPa)
#
#
# Indices 1 2 3 4 5 6 
#
# 1 0.015594 -0.006268 -0.005203 0.000000 0.000000 0.000000
# 2 -0.006268 0.015594 -0.005203 0.000000 0.000000 0.000000
# 3 -0.005203 -0.005203 0.015079 0.000000 0.000000 0.000000
# 4 0.000000 0.000000 0.000000 0.037612 0.000000 0.000000
# 5 0.000000 0.000000 0.000000 0.000000 0.037612 0.000000
# 6 0.000000 0.000000 0.000000 0.000000 0.000000 0.043723
#
#
# Mechanical properties :
#
#
# Convention : Reuss Voigt Hill
#
# Bulk Modulus (GPa) = 77.39569 77.45601 77.42585
# Shear Modulus (GPa) = 24.64692 24.76301 24.70496
#
# Velocity S-wave (km/s) = 3.78309 3.79199 3.78754
# Velocity P-wave (km/s) = 8.00149 8.00929 8.00539
#
# Compressibility (1/GPa) = 0.01292062
#
# Stress axis : x y z
#
# Youngs Moduli (GPa) = 64.12907 64.12907 66.31673
#
# Poissons Ratio (x) = 0.40194 0.34502
# Poissons Ratio (y) = 0.40194 0.34502
# Poissons Ratio (z) = 0.33363 0.33363
#
# Static dielectric constant tensor:
#      x y z
#    x 3.170060 0.000000 0.000000 
#    y 0.000000 3.170060 0.000000 
#    z 0.000000 0.000000 3.399880 
# 
# 
# High freq. dielectric constant tensor:
#      x y z
#    x 1.668260 0.000000 0.000000 
#    y 0.000000 1.668260 0.000000 
#    z 0.000000 0.000000 1.679270 
# 
# From -- ./inp_files/1088.got.cif
#   From: 2010.03.12/outbox.cif.g09.slc.cpg/sg149_cif.got.tgz:1088.got - 2010.04.03 13:40:41.
