data_PCOD8321329
_publ_section_title
;
Structure prediction by ZEFSAII (Michael W. Deem and Ramdas Pophale) SiO2 
 PCOD8321329
Probable space group: P 3
;
_chemical_formula_sum "Si O2"
_cell_formula_units_Z 18
_cell_length_a 12.831220
_cell_length_b 12.831220
_cell_length_c 7.788879
_cell_angle_alpha 90.000000
_cell_angle_beta 90.000000
_cell_angle_gamma 120.000000
_cell_volume 1110.558630
_symmetry_space_group_name_H-M "P 3"
_symmetry_group_IT_number 143
_symmetry_cell_setting 'hexagonal'
loop_
_space_group_symop_operation_xyz
x,y,z
-y,x-y,z
-x+y,-x,z
loop_
_atom_site_type_symbol
_atom_site_label
_atom_site_fract_x
_atom_site_fract_y
_atom_site_fract_z
Si Si1 0.327102 0.459321 0.113260
Si Si2 0.089552 0.427837 0.613543
Si Si3 0.426884 0.090178 0.304249
Si Si4 0.132219 0.672898 0.495239
Si Si5 0.572163 0.661715 0.994956
Si Si6 0.906463 0.572671 0.304249
O O1 0.317048 0.504708 0.304249
O O2 0.366992 0.357334 0.134906
O O3 0.429270 0.572240 0.010050
O O4 0.200108 0.402780 0.017432
O O5 0.142971 0.570730 0.598449
O O6 0.200108 0.402780 0.591066
O O7 0.035223 0.384869 0.804249
O O8 0.987728 0.353283 0.473685
O O9 0.402837 0.200210 0.304249
O O10 0.569284 0.139110 0.304249
O O11 0.365555 0.012272 0.134813
O O12 0.990341 0.633008 0.473592
#
# Coordination Sequence:
#
# PCOD8321329 Si02
#       6
#     3   3   3   3   3   3
#     4   9  17  32  49  78 100 129 160 192 249 302
#     4  11  19  30  52  77 107 129 153 202 253 303
#     4  10  18  36  48  74  96 130 180 194 250 282
#     4   9  17  32  49  78 100 129 160 192 249 302
#     4  11  19  30  52  77 107 129 153 202 253 303
#     4   8  18  30  56  64  96 136 158 216 228 284
#
# _framework density 16.20806
#
# number of rings (size 3 to 8) (size 9 to 14) (size 15 to 20)
#    1.000    1.333    3.333    2.000    0.000    0.000 
#    0.000    8.333    0.000    5.333    0.000    0.000 
#    0.000    0.000    0.000    0.000    0.000    0.000 
#
# Total GULP energy -223042.044371 kJ/mol
# GULP energy per Si atom -12391.224687 kJ/mol
# Density = 1.617117 g / cm^3
# Si number density = 16.208060 Si / 1000 Ang^3
#
#
#
# Elastic Constant Matrix: (Units=GPa)
#
#
# Indices 1 2 3 4 5 6 
#
# 1 97.1388 52.3812 34.7792 0.0000 0.0000 0.0000
# 2 52.3812 97.1388 34.7792 0.0000 0.0000 0.0000
# 3 34.7792 34.7792 124.3442 0.0000 0.0000 0.0000
# 4 0.0000 0.0000 0.0000 6.5924 0.0000 0.0000
# 5 0.0000 0.0000 0.0000 0.0000 6.5924 0.0000
# 6 0.0000 0.0000 0.0000 0.0000 0.0000 22.3788
#
#
#
# Elastic Compliance Matrix: (Units=1/GPa)
#
#
# Indices 1 2 3 4 5 6 
#
# 1 0.015016 -0.007327 -0.002150 0.000000 0.000000 0.000000
# 2 -0.007327 0.015016 -0.002150 0.000000 0.000000 0.000000
# 3 -0.002150 -0.002150 0.009245 0.000000 0.000000 0.000000
# 4 0.000000 0.000000 0.000000 0.151690 0.000000 0.000000
# 5 0.000000 0.000000 0.000000 0.000000 0.151690 0.000000
# 6 0.000000 0.000000 0.000000 0.000000 0.000000 0.044685
#
#
# Mechanical properties :
#
#
# Convention : Reuss Voigt Hill
#
# Bulk Modulus (GPa) = 62.42102 62.50012 62.46057
# Shear Modulus (GPa) = 12.02105 20.22487 16.12296
#
# Velocity S-wave (km/s) = 2.72632 3.53629 3.15739
# Velocity P-wave (km/s) = 6.96465 7.43765 7.20503
#
# Compressibility (1/GPa) = 0.01602025
#
# Stress axis : x y z
#
# Youngs Moduli (GPa) = 66.59772 66.59772 108.16449
#
# Poissons Ratio (x) = 0.48796 0.23261
# Poissons Ratio (y) = 0.48796 0.23261
# Poissons Ratio (z) = 0.14322 0.14322
#
# Static dielectric constant tensor:
#      x y z
#    x 2.800550 0.000000 0.000000 
#    y 0.000000 2.800550 0.000000 
#    z 0.000000 0.000000 3.019650 
# 
# 
# High freq. dielectric constant tensor:
#      x y z
#    x 1.601590 0.000000 0.000000 
#    y 0.000000 1.601590 0.000000 
#    z 0.000000 0.000000 1.619540 
# 
# From -- ./inp_files/182.got.cif
#   From: 2010.03.12/outbox.cif.g09.slc.cpg/sg143_cif.got.tgz:182.got - 2010.04.03 13:34:35.
