data_PCOD8321412
_publ_section_title
;
Structure prediction by ZEFSAII (Michael W. Deem and Ramdas Pophale) SiO2 
 PCOD8321412
Probable space group: P 31
;
_chemical_formula_sum "Si O2"
_cell_formula_units_Z 18
_cell_length_a 10.794225
_cell_length_b 10.794225
_cell_length_c 8.152995
_cell_angle_alpha 90.000000
_cell_angle_beta 90.000000
_cell_angle_gamma 120.000000
_cell_volume 822.679623
_symmetry_space_group_name_H-M "P 31"
_symmetry_group_IT_number 144
_symmetry_cell_setting 'hexagonal'
loop_
_space_group_symop_operation_xyz
x,y,z
-y,x-y,1/3+z
-x+y,-x,2/3+z
loop_
_atom_site_type_symbol
_atom_site_label
_atom_site_fract_x
_atom_site_fract_y
_atom_site_fract_z
Si Si1 0.860543 0.348658 0.059870
Si Si2 0.099414 0.020410 0.366153
Si Si3 0.734050 0.120749 0.583486
Si Si4 0.593935 0.465707 0.741429
Si Si5 0.537378 0.924609 0.311787
Si Si6 0.624180 0.721854 0.168460
O O1 0.692496 0.252638 0.024788
O O2 0.901809 0.337398 0.247489
O O3 0.910390 0.515287 0.037158
O O4 0.948700 0.304870 0.937032
O O5 0.232073 0.177795 0.332038
O O6 0.022679 0.022739 0.536548
O O7 0.157944 0.909442 0.390386
O O8 0.830043 0.292000 0.555721
O O9 0.670441 0.048614 0.409236
O O10 0.449841 0.461425 0.798847
O O11 0.562383 0.791404 0.294807
O O12 0.385661 0.874343 0.395055
#
# Coordination Sequence:
#
# PCOD8321412 Si02
#       6
#     3   3   3   3   3   3
#     4  11  23  39  71 106 139 179 235 298 362 415
#     4  12  28  49  73 104 147 194 243 300 370 434
#     4  11  22  44  69 105 135 176 241 300 348 425
#     4  12  21  39  75 104 136 181 236 301 358 407
#     4  11  25  46  69  99 146 186 238 290 358 433
#     4  11  27  47  67 102 143 188 239 289 358 440
#
# _framework density 21.879718
#
# number of rings (size 3 to 8) (size 9 to 14) (size 15 to 20)
#    0.000    0.667    5.000    2.000    4.667    4.000 
#    3.000    0.000    0.000    0.000    0.000    0.000 
#    0.000    0.000    0.000    0.000    0.000    0.000 
#
# Total GULP energy -223235.120439 kJ/mol
# GULP energy per Si atom -12401.951136 kJ/mol
# Density = 2.182992 g / cm^3
# Si number density = 21.879718 Si / 1000 Ang^3
#
#
#
# Elastic Constant Matrix: (Units=GPa)
#
#
# Indices 1 2 3 4 5 6 
#
# 1 95.5567 35.2477 27.2605 2.3810 3.0024 0.0000
# 2 35.2477 95.5567 27.2605 -2.3810 -3.0024 0.0000
# 3 27.2605 27.2605 107.1226 0.0000 0.0000 0.0000
# 4 2.3810 -2.3810 0.0000 31.9234 0.0000 -3.0024
# 5 3.0024 -3.0024 0.0000 0.0000 31.9234 2.3810
# 6 0.0000 0.0000 0.0000 -3.0024 2.3810 30.1545
#
#
#
# Elastic Compliance Matrix: (Units=1/GPa)
#
#
# Indices 1 2 3 4 5 6 
#
# 1 0.012695 -0.004143 -0.002176 -0.001256 -0.001584 0.000000
# 2 -0.004143 0.012695 -0.002176 0.001256 0.001584 0.000000
# 3 -0.002176 -0.002176 0.010443 0.000000 0.000000 0.000000
# 4 -0.001256 0.001256 0.000000 0.031810 0.000000 0.003167
# 5 -0.001584 0.001584 0.000000 0.000000 0.031810 -0.002512
# 6 0.000000 0.000000 0.000000 0.003167 -0.002512 0.033676
#
#
# Mechanical properties :
#
#
# Convention : Reuss Voigt Hill
#
# Bulk Modulus (GPa) = 53.07384 53.08590 53.07987
# Shear Modulus (GPa) = 31.96900 32.69807 32.33354
#
# Velocity S-wave (km/s) = 3.82661 3.87000 3.84837
# Velocity P-wave (km/s) = 6.62070 6.65466 6.63770
#
# Compressibility (1/GPa) = 0.01884167
#
# Stress axis : x y z
#
# Youngs Moduli (GPa) = 78.77046 78.77046 95.76010
#
# Poissons Ratio (x) = 0.32634 0.20841
# Poissons Ratio (y) = 0.32634 0.20841
# Poissons Ratio (z) = 0.17143 0.17143
#
# Static dielectric constant tensor:
#      x y z
#    x 3.839470 0.000000 0.000000 
#    y 0.000000 3.839470 0.000000 
#    z 0.000000 0.000000 3.988270 
# 
# 
# High freq. dielectric constant tensor:
#      x y z
#    x 1.852940 0.000000 0.000000 
#    y 0.000000 1.852940 0.000000 
#    z 0.000000 0.000000 1.869510 
# 
# From -- ./inp_files/369.got.cif
#   From: 2010.03.12/outbox.cif.g09.slc.cpg/sg144_cif.got.tgz:369.got - 2010.04.03 13:34:42.
