data_PCOD8321805
_publ_section_title
;
Structure prediction by ZEFSAII (Michael W. Deem and Ramdas Pophale) SiO2 
 PCOD8321805
Probable space group: R -3
;
_chemical_formula_sum "Si O2"
_cell_formula_units_Z 60
_cell_length_a 16.647281
_cell_length_b 16.647281
_cell_length_c 11.401205
_cell_angle_alpha 90.000000
_cell_angle_beta 90.000000
_cell_angle_gamma 120.000000
_cell_volume 2736.327071
_symmetry_space_group_name_H-M "R -3"
_symmetry_group_IT_number 148
_symmetry_cell_setting 'hexagonal'
loop_
_space_group_symop_operation_xyz
x,y,z
-y,x-y,z
-x+y,-x,z
-x,-y,-z
y,-x+y,-z
x-y,x,-z
2/3+x,1/3+y,1/3+z
2/3-y,1/3+x-y,1/3+z
2/3-x+y,1/3-x,1/3+z
2/3-x,1/3-y,1/3-z
2/3+y,1/3-x+y,1/3-z
2/3+x-y,1/3+x,1/3-z
1/3+x,2/3+y,2/3+z
1/3-y,2/3+x-y,2/3+z
1/3-x+y,2/3-x,2/3+z
1/3-x,2/3-y,2/3-z
1/3+y,2/3-x+y,2/3-z
1/3+x-y,2/3+x,2/3-z
loop_
_atom_site_type_symbol
_atom_site_label
_atom_site_fract_x
_atom_site_fract_y
_atom_site_fract_z
Si Si1 0.768485 0.671837 0.068413
Si Si2 0.466857 0.445001 0.183839
Si Si3 0.000000 0.000000 0.364869
Si Si4 0.540185 0.724400 0.329624
O O1 0.833334 0.666667 0.166667
O O2 0.733126 0.743439 0.094021
O O3 0.676556 0.574131 0.065946
O O4 0.821149 0.696643 0.944225
O O5 0.512099 0.432318 0.065746
O O6 0.405564 0.491531 0.138213
O O7 0.083290 0.097713 0.324223
O O8 0.000000 0.000000 0.500000
#
# Coordination Sequence:
#
# PCOD8321805 Si02
#       4
#    18  18   6  18
#     4  12  24  42  67  96 130 169 215 266 321 385
#     4  11  24  43  67  95 129 171 217 266 324 385
#     4  12  24  39  63  94 131 169 213 267 322 383
#     4  11  24  42  65  95 130 170 215 266 323 386
#
# _framework density 21.927202999999999
#
# number of rings (size 3 to 8) (size 9 to 14) (size 15 to 20)
#    0.000    0.600    0.000    9.000    0.000    7.200 
#    0.000    0.000    0.000    6.000    0.000    0.000 
#    0.000    0.000    0.000    0.000    0.000    0.000 
#
# Total GULP energy -247984.298742 kJ/mol
# GULP energy per Si atom -12399.214937 kJ/mol
# Density = 2.187730 g / cm^3
# Si number density = 21.927203 Si / 1000 Ang^3
#
#
#
# Elastic Constant Matrix: (Units=GPa)
#
#
# Indices 1 2 3 4 5 6 
#
# 1 137.5431 67.7416 45.3805 5.5353 1.6617 0.0000
# 2 67.7416 137.5431 45.3805 -5.5353 -1.6617 0.0000
# 3 45.3805 45.3805 111.8930 0.0000 0.0000 0.0000
# 4 5.5353 -5.5353 0.0000 43.9119 0.0000 -1.6617
# 5 1.6617 -1.6617 0.0000 0.0000 43.9119 5.5353
# 6 0.0000 0.0000 0.0000 -1.6617 5.5353 34.9008
#
#
#
# Elastic Compliance Matrix: (Units=1/GPa)
#
#
# Indices 1 2 3 4 5 6 
#
# 1 0.010291 -0.004355 -0.002407 -0.001846 -0.000554 0.000000
# 2 -0.004355 0.010291 -0.002407 0.001846 0.000554 0.000000
# 3 -0.002407 -0.002407 0.010890 0.000000 0.000000 0.000000
# 4 -0.001846 0.001846 0.000000 0.023280 0.000000 0.001108
# 5 -0.000554 0.000554 0.000000 0.000000 0.023280 -0.003692
# 6 0.000000 0.000000 0.000000 0.001108 -0.003692 0.029291
#
#
# Mechanical properties :
#
#
# Convention : Reuss Voigt Hill
#
# Bulk Modulus (GPa) = 76.15123 78.22048 77.18585
# Shear Modulus (GPa) = 38.45004 39.77667 39.11336
#
# Velocity S-wave (km/s) = 4.19206 4.26377 4.22807
# Velocity P-wave (km/s) = 7.63123 7.74531 7.68848
#
# Compressibility (1/GPa) = 0.01313176
#
# Stress axis : x y z
#
# Youngs Moduli (GPa) = 97.17638 97.17638 91.82930
#
# Poissons Ratio (x) = 0.42320 0.22106
# Poissons Ratio (y) = 0.42320 0.22106
# Poissons Ratio (z) = 0.23393 0.23393
#
# Static dielectric constant tensor:
#      x y z
#    x 4.469120 0.000000 0.000000 
#    y 0.000000 4.469120 0.000000 
#    z 0.000000 0.000000 4.088100 
# 
# 
# High freq. dielectric constant tensor:
#      x y z
#    x 1.876240 0.000000 0.000000 
#    y 0.000000 1.876240 0.000000 
#    z 0.000000 0.000000 1.869940 
# 
# From -- ./inp_files/1331.got.cif
#   From: 2010.03.12/outbox.cif.g09.slc.cpg/sg148_1_cif.got.tgz:1331.got - 2010.04.03 13:38:46.
