data_PCOD8321430
_publ_section_title
;
Structure prediction by ZEFSAII (Michael W. Deem and Ramdas Pophale) SiO2 
 PCOD8321430
Probable space group: P 31
;
_chemical_formula_sum "Si O2"
_cell_formula_units_Z 18
_cell_length_a 12.706366
_cell_length_b 12.706366
_cell_length_c 5.401486
_cell_angle_alpha 90.000000
_cell_angle_beta 90.000000
_cell_angle_gamma 120.000000
_cell_volume 755.242825
_symmetry_space_group_name_H-M "P 31"
_symmetry_group_IT_number 144
_symmetry_cell_setting 'hexagonal'
loop_
_space_group_symop_operation_xyz
x,y,z
-y,x-y,1/3+z
-x+y,-x,2/3+z
loop_
_atom_site_type_symbol
_atom_site_label
_atom_site_fract_x
_atom_site_fract_y
_atom_site_fract_z
Si Si1 0.323783 0.380460 0.505460
Si Si2 0.541452 0.292060 0.857540
Si Si3 0.118778 0.028929 0.024985
Si Si4 0.860260 0.148053 0.962915
Si Si5 0.260988 0.938338 0.288585
Si Si6 0.534193 0.002361 0.350082
O O1 0.300931 0.245400 0.442168
O O2 0.205848 0.386949 0.590281
O O3 0.402773 0.428191 0.752531
O O4 0.386055 0.459237 0.255163
O O5 0.616831 0.384082 0.636753
O O6 0.416490 0.180718 0.758836
O O7 0.519385 0.373168 0.063445
O O8 0.181404 0.131079 0.812544
O O9 0.993471 0.911078 0.934135
O O10 0.223615 0.993177 0.058016
O O11 0.995299 0.231505 0.852317
O O12 0.399232 0.974714 0.305663
#
# Coordination Sequence:
#
# PCOD8321430 Si02
#       6
#     3   3   3   3   3   3
#     4  11  28  51  72 113 156 194 264 331 389 461
#     4  11  25  42  71 110 155 203 254 319 381 480
#     4  12  25  44  72 117 149 199 257 323 408 474
#     4  11  26  42  76 110 153 202 252 327 395 475
#     4  12  27  47  81 103 151 207 263 326 394 485
#     4  11  29  48  74 111 150 207 258 324 393 459
#
# _framework density 23.833397999999999
#
# number of rings (size 3 to 8) (size 9 to 14) (size 15 to 20)
#    0.000    0.667    0.000    6.000   25.667    0.000 
#    3.000    0.000    0.000    0.000    0.000    0.000 
#    0.000    0.000    0.000    0.000    0.000    0.000 
#
# Total GULP energy -223032.854230 kJ/mol
# GULP energy per Si atom -12390.714124 kJ/mol
# Density = 2.377915 g / cm^3
# Si number density = 23.833398 Si / 1000 Ang^3
#
#
#
# Elastic Constant Matrix: (Units=GPa)
#
#
# Indices 1 2 3 4 5 6 
#
# 1 123.3951 49.9132 48.3409 -8.8929 -0.4056 0.0000
# 2 49.9132 123.3951 48.3409 8.8929 0.4056 0.0000
# 3 48.3409 48.3409 125.6326 0.0000 0.0000 0.0000
# 4 -8.8929 8.8929 0.0000 29.8385 0.0000 0.4056
# 5 -0.4056 0.4056 0.0000 0.0000 29.8385 -8.8929
# 6 0.0000 0.0000 0.0000 0.4056 -8.8929 36.7410
#
#
#
# Elastic Compliance Matrix: (Units=1/GPa)
#
#
# Indices 1 2 3 4 5 6 
#
# 1 0.011008 -0.003661 -0.002827 0.004372 0.000199 0.000000
# 2 -0.003661 0.011008 -0.002827 -0.004372 -0.000199 0.000000
# 3 -0.002827 -0.002827 0.010135 0.000000 0.000000 0.000000
# 4 0.004372 -0.004372 0.000000 0.036125 0.000000 -0.000399
# 5 0.000199 -0.000199 0.000000 0.000000 0.036125 0.008744
# 6 0.000000 0.000000 0.000000 -0.000399 0.008744 0.029338
#
#
# Mechanical properties :
#
#
# Convention : Reuss Voigt Hill
#
# Bulk Modulus (GPa) = 73.95654 73.95696 73.95675
# Shear Modulus (GPa) = 31.87203 34.33882 33.10542
#
# Velocity S-wave (km/s) = 3.66086 3.79989 3.73102
# Velocity P-wave (km/s) = 6.99765 7.09580 7.04690
#
# Compressibility (1/GPa) = 0.01352146
#
# Stress axis : x y z
#
# Youngs Moduli (GPa) = 90.84171 90.84171 98.66522
#
# Poissons Ratio (x) = 0.33257 0.27893
# Poissons Ratio (y) = 0.33257 0.27893
# Poissons Ratio (z) = 0.25681 0.25681
#
# Static dielectric constant tensor:
#      x y z
#    x 4.455350 0.000000 0.000000 
#    y 0.000000 4.455350 0.000000 
#    z 0.000000 0.000000 4.280490 
# 
# 
# High freq. dielectric constant tensor:
#      x y z
#    x 1.948140 0.000000 0.000000 
#    y 0.000000 1.948140 0.000000 
#    z 0.000000 0.000000 1.948060 
# 
# From -- ./inp_files/115.got.cif
#   From: 2010.03.12/outbox.cif.g09.slc.cpg/sg144_cif.got.tgz:115.got - 2010.04.03 13:34:42.
