data_PCOD8321939
_publ_section_title
;
Structure prediction by ZEFSAII (Michael W. Deem and Ramdas Pophale) SiO2 
 PCOD8321939
Probable space group: P 31 1 2
;
_chemical_formula_sum "Si O2"
_cell_formula_units_Z 42
_cell_length_a 9.465848
_cell_length_b 9.465848
_cell_length_c 27.988384
_cell_angle_alpha 90.000000
_cell_angle_beta 90.000000
_cell_angle_gamma 120.000000
_cell_volume 2171.838404
_symmetry_space_group_name_H-M "P 31 1 2"
_symmetry_group_IT_number 151
_symmetry_cell_setting 'hexagonal'
loop_
_space_group_symop_operation_xyz
x,y,z
-y,x-y,1/3+z
-x+y,-x,2/3+z
-y,-x,2/3-z
-x+y,y,1/3-z
x,x-y,-z
loop_
_atom_site_type_symbol
_atom_site_label
_atom_site_fract_x
_atom_site_fract_y
_atom_site_fract_z
Si Si1 0.420487 0.038695 0.914298
Si Si2 0.584670 0.333729 0.387597
Si Si3 0.679596 0.666667 0.416667
Si Si4 0.048459 0.294638 0.919035
Si Si5 0.139685 0.557392 0.840507
Si Si6 0.000396 0.918005 0.779070
Si Si7 0.248959 0.775943 0.992827
O O1 0.575480 0.213604 0.923034
O O2 0.274409 0.062507 0.893777
O O3 0.479846 0.948613 0.877289
O O4 0.367016 0.940930 0.964438
O O5 0.638681 0.361320 0.333334
O O6 0.691919 0.503738 0.416220
O O7 0.392256 0.270824 0.393778
O O8 0.582442 0.672405 0.463104
O O9 0.576714 0.660934 0.370227
O O10 0.854851 0.829593 0.417116
O O11 0.092753 0.392403 0.868895
O O12 0.028545 0.119730 0.910301
O O13 0.197903 0.384724 0.956043
O O14 0.335668 0.664333 0.833334
O O15 0.027981 0.972020 0.833334
O O16 0.337999 0.669000 0.000000
#
# Coordination Sequence:
#
# PCOD8321939 Si02
#       7
#     6   6   6   6   6   6   6
#     4  11  24  37  69  92 129 167 217 266 326 383
#     4  11  23  42  61  97 126 164 214 264 316 389
#     4  10  18  38  68  84 124 166 210 250 314 388
#     4  11  24  37  69  92 129 167 217 266 326 383
#     4  11  18  40  65  95 119 173 212 254 319 400
#     4  11  23  42  61  97 126 164 214 264 316 389
#     4  11  18  40  65  95 119 173 212 254 319 400
#
# _framework density 19.338453999999999
#
# number of rings (size 3 to 8) (size 9 to 14) (size 15 to 20)
#    0.000    1.143    8.571    0.000    4.000    3.429 
#    0.000    2.857    0.000    0.000    0.000    0.000 
#    0.000    0.000    0.000    0.000    0.000    0.000 
#
# Total GULP energy -520752.120713 kJ/mol
# GULP energy per Si atom -12398.860017 kJ/mol
# Density = 1.929444 g / cm^3
# Si number density = 19.338454 Si / 1000 Ang^3
#
#
#
# Elastic Constant Matrix: (Units=GPa)
#
#
# Indices 1 2 3 4 5 6 
#
# 1 115.4497 52.2969 37.0889 0.0000 0.0002 0.0000
# 2 52.2969 115.4497 37.0889 0.0000 -0.0002 0.0000
# 3 37.0889 37.0889 89.9579 0.0000 0.0000 0.0000
# 4 0.0000 0.0000 0.0000 31.0614 0.0000 -0.0002
# 5 0.0002 -0.0002 0.0000 0.0000 31.0614 0.0000
# 6 0.0000 0.0000 0.0000 -0.0002 0.0000 31.5764
#
#
#
# Elastic Compliance Matrix: (Units=1/GPa)
#
#
# Indices 1 2 3 4 5 6 
#
# 1 0.011563 -0.004272 -0.003006 0.000000 0.000000 0.000000
# 2 -0.004272 0.011563 -0.003006 0.000000 0.000000 0.000000
# 3 -0.003006 -0.003006 0.013595 0.000000 0.000000 0.000000
# 4 0.000000 0.000000 0.000000 0.032194 0.000000 0.000000
# 5 0.000000 0.000000 0.000000 0.000000 0.032194 0.000000
# 6 0.000000 0.000000 0.000000 0.000000 0.000000 0.031669
#
#
# Mechanical properties :
#
#
# Convention : Reuss Voigt Hill
#
# Bulk Modulus (GPa) = 61.90937 63.75629 62.83283
# Shear Modulus (GPa) = 31.50014 31.69869 31.59941
#
# Velocity S-wave (km/s) = 4.04032 4.05304 4.04669
# Velocity P-wave (km/s) = 7.33817 7.41236 7.37536
#
# Compressibility (1/GPa) = 0.01615264
#
# Stress axis : x y z
#
# Youngs Moduli (GPa) = 86.48582 86.48582 73.55717
#
# Poissons Ratio (x) = 0.36947 0.22110
# Poissons Ratio (y) = 0.36947 0.22110
# Poissons Ratio (z) = 0.25996 0.25996
#
# Static dielectric constant tensor:
#      x y z
#    x 3.462730 0.000000 0.000000 
#    y 0.000000 3.462730 0.000000 
#    z 0.000000 0.000000 3.635510 
# 
# 
# High freq. dielectric constant tensor:
#      x y z
#    x 1.737620 0.000000 0.000000 
#    y 0.000000 1.737620 0.000000 
#    z 0.000000 0.000000 1.766550 
# 
# From -- ./inp_files/5031.got.cif
#   From: 2010.03.12/outbox.cif.g09.slc.cpg/sg151_3_cif.got.tgz:5031.got - 2010.04.03 13:42:29.
