data_PCOD8321381
_publ_section_title
;
Structure prediction by ZEFSAII (Michael W. Deem and Ramdas Pophale) SiO2 
 PCOD8321381
Probable space group: P 31
;
_chemical_formula_sum "Si O2"
_cell_formula_units_Z 21
_cell_length_a 12.127923
_cell_length_b 12.127923
_cell_length_c 8.059086
_cell_angle_alpha 90.000000
_cell_angle_beta 90.000000
_cell_angle_gamma 120.000000
_cell_volume 1026.571691
_symmetry_space_group_name_H-M "P 31"
_symmetry_group_IT_number 144
_symmetry_cell_setting 'hexagonal'
loop_
_space_group_symop_operation_xyz
x,y,z
-y,x-y,1/3+z
-x+y,-x,2/3+z
loop_
_atom_site_type_symbol
_atom_site_label
_atom_site_fract_x
_atom_site_fract_y
_atom_site_fract_z
Si Si1 0.747780 0.749929 0.714310
Si Si2 0.152179 0.748543 0.835889
Si Si3 0.512393 0.623744 0.283506
Si Si4 0.794226 0.000000 0.238701
Si Si5 0.997851 0.250071 0.763092
Si Si6 0.748543 0.152179 0.974847
Si Si7 0.623744 0.512393 0.527229
O O1 0.664138 0.808974 0.644422
O O2 0.879479 0.811528 0.611253
O O3 0.674182 0.595174 0.696410
O O4 0.782330 0.782330 0.905368
O O5 0.263453 0.765166 0.708123
O O6 0.114473 0.619103 0.930822
O O7 0.032679 0.734093 0.730881
O O8 0.595174 0.674182 0.114326
O O9 0.604416 0.604416 0.405368
O O10 0.811528 0.879479 0.199483
O O11 0.734093 0.032679 0.079855
O O12 0.855165 0.191026 0.832981
O O13 0.619103 0.114473 0.879913
O O14 0.765166 0.263453 0.102613
#
# Coordination Sequence:
#
# PCOD8321381 Si02
#       7
#     3   3   3   3   3   3   3
#     4  10  23  42  62  91 125 162 208 252 308 370
#     4  10  22  42  61  91 123 165 203 256 309 363
#     4   9  21  40  60  87 125 156 203 252 303 367
#     4  10  22  42  62  88 128 160 206 254 310 368
#     4  10  23  42  62  91 125 162 208 252 308 370
#     4  10  22  42  61  91 123 165 203 256 309 363
#     4   9  21  40  60  87 125 156 203 252 303 367
#
# _framework density 20.456439
#
# number of rings (size 3 to 8) (size 9 to 14) (size 15 to 20)
#    0.000    2.286    0.000    2.571    6.000    2.286 
#   20.571    0.000    0.000    0.000    0.000    0.000 
#    0.000    0.000    0.000    0.000    0.000    0.000 
#
# Total GULP energy -260322.608578 kJ/mol
# GULP energy per Si atom -12396.314694 kJ/mol
# Density = 2.040988 g / cm^3
# Si number density = 20.456439 Si / 1000 Ang^3
#
#
#
# Elastic Constant Matrix: (Units=GPa)
#
#
# Indices 1 2 3 4 5 6 
#
# 1 93.6841 30.9859 23.2108 4.1168 0.0000 0.0000
# 2 30.9859 93.6841 23.2108 -4.1168 0.0000 0.0000
# 3 23.2108 23.2108 87.6739 0.0000 0.0000 0.0000
# 4 4.1168 -4.1168 0.0000 23.2716 0.0000 0.0000
# 5 0.0000 0.0000 0.0000 0.0000 23.2716 4.1168
# 6 0.0000 0.0000 0.0000 0.0000 4.1168 31.3491
#
#
#
# Elastic Compliance Matrix: (Units=1/GPa)
#
#
# Indices 1 2 3 4 5 6 
#
# 1 0.012614 -0.003715 -0.002356 -0.002889 0.000000 0.000000
# 2 -0.003715 0.012614 -0.002356 0.002889 0.000000 0.000000
# 3 -0.002356 -0.002356 0.012653 0.000000 0.000000 0.000000
# 4 -0.002889 0.002889 0.000000 0.043993 0.000000 0.000000
# 5 0.000000 0.000000 0.000000 0.000000 0.043993 -0.005777
# 6 0.000000 0.000000 0.000000 0.000000 -0.005777 0.032658
#
#
# Mechanical properties :
#
#
# Convention : Reuss Voigt Hill
#
# Bulk Modulus (GPa) = 47.55807 47.76191 47.65999
# Shear Modulus (GPa) = 27.41440 28.75409 28.08424
#
# Velocity S-wave (km/s) = 3.66476 3.75323 3.70926
# Velocity P-wave (km/s) = 6.41921 6.49470 6.45706
#
# Compressibility (1/GPa) = 0.02102692
#
# Stress axis : x y z
#
# Youngs Moduli (GPa) = 79.27979 79.27979 79.03116
#
# Poissons Ratio (x) = 0.29454 0.18618
# Poissons Ratio (y) = 0.29454 0.18618
# Poissons Ratio (z) = 0.18676 0.18676
#
# Static dielectric constant tensor:
#      x y z
#    x 3.582280 0.000000 0.000000 
#    y 0.000000 3.582280 0.000000 
#    z 0.000000 0.000000 3.699950 
# 
# 
# High freq. dielectric constant tensor:
#      x y z
#    x 1.795880 0.000000 0.000000 
#    y 0.000000 1.795880 0.000000 
#    z 0.000000 0.000000 1.800310 
# 
# From -- ./inp_files/350.got.cif
#   From: 2010.03.12/outbox.cif.g09.slc.cpg/sg144_cif.got.tgz:350.got - 2010.04.03 13:34:42.
