data_PCOD8321260
_publ_section_title
;
Structure prediction by ZEFSAII (Michael W. Deem and Ramdas Pophale) SiO2 
 PCOD8321260
Probable space group: I 41/A C D
;
_chemical_formula_sum "Si O2"
_cell_formula_units_Z 160
_cell_length_a 19.055889
_cell_length_b 19.055889
_cell_length_c 19.600044
_cell_angle_alpha 90.000000
_cell_angle_beta 90.000000
_cell_angle_gamma 90.000000
_cell_volume 7117.303327
_symmetry_space_group_name_H-M "I 41/A C D"
_symmetry_group_IT_number 142
_space_group.IT_coordinate_system_code '2'
_symmetry_cell_setting 'tetragonal'
loop_
_space_group_symop_operation_xyz
x,y,z
1/4-y,3/4+x,1/4+z
-x,1/2-y,z
1/4+y,1/4-x,3/4+z
x,-y,1/2-z
1/2-x,y,-z
3/4+y,1/4+x,1/4-z
1/4-y,1/4-x,1/4-z
-x,-y,-z
3/4+y,1/4-x,3/4-z
x,1/2+y,-z
3/4-y,3/4+x,1/4-z
-x,y,1/2+z
1/2+x,-y,z
1/4-y,3/4-x,3/4+z
3/4+y,3/4+x,3/4+z
1/2+x,1/2+y,1/2+z
3/4-y,1/4+x,3/4+z
1/2-x,-y,1/2+z
3/4+y,3/4-x,1/4+z
1/2+x,1/2-y,-z
-x,1/2+y,1/2-z
1/4+y,3/4+x,3/4-z
3/4-y,3/4-x,3/4-z
1/2-x,1/2-y,1/2-z
1/4+y,3/4-x,1/4-z
1/2+x,y,1/2-z
1/4-y,1/4+x,3/4-z
1/2-x,1/2+y,z
x,1/2-y,1/2+z
3/4-y,1/4-x,1/4+z
1/4+y,1/4+x,1/4+z
loop_
_atom_site_type_symbol
_atom_site_label
_atom_site_fract_x
_atom_site_fract_y
_atom_site_fract_z
Si Si1 0.612422 0.311933 0.939701
Si Si2 0.432288 0.173274 0.657264
Si Si3 0.641141 0.424022 0.183726
Si Si4 0.082531 0.579048 0.322805
Si Si5 0.794736 0.558440 0.301139
O O1 0.558758 0.308758 0.875000
O O2 0.671807 0.253056 0.922299
O O3 0.636659 0.392821 0.943414
O O4 0.576687 0.298570 0.012807
O O5 0.500116 0.154046 0.612492
O O6 0.372078 0.117498 0.635222
O O7 0.592943 0.395380 0.244845
O O8 0.618438 0.503573 0.165206
O O9 0.718007 0.412862 0.218563
O O10 0.114811 0.635190 0.375000
O O11 0.822127 0.500000 0.250000
O O12 0.776193 0.526193 0.375000
#
# Coordination Sequence:
#
# PCOD8321260 Si02
#       5
#    32  32  32  32  32
#     4  11  27  45  69 103 143 191 237 297 364 435
#     4  11  25  45  69 100 140 191 237 296 363 439
#     4  11  24  44  70 107 137 190 240 303 365 428
#     4  11  25  44  71 105 142 189 241 298 362 440
#     4  11  23  41  70 101 140 182 231 298 362 423
#
# _framework density 22.480425
#
# number of rings (size 3 to 8) (size 9 to 14) (size 15 to 20)
#    0.000    1.000    4.000    1.800    8.400    3.600 
#    0.000    2.000    0.000    0.000    0.000    0.000 
#    0.000    0.000    0.000    0.000    0.000    0.000 
#
# Total GULP energy -991071.048354 kJ/mol
# GULP energy per Si atom -12388.388104 kJ/mol
# Density = 2.242926 g / cm^3
# Si number density = 22.480425 Si / 1000 Ang^3
#
#
#
# Elastic Constant Matrix: (Units=GPa)
#
#
# Indices 1 2 3 4 5 6 
#
# 1 103.9335 60.5002 28.6839 0.0000 0.0000 0.0000
# 2 60.5002 103.9349 28.6819 0.0000 0.0000 0.0000
# 3 28.6839 28.6819 145.1097 0.0000 0.0000 0.0000
# 4 0.0000 0.0000 0.0000 30.2621 0.0000 0.0000
# 5 0.0000 0.0000 0.0000 0.0000 30.2622 0.0000
# 6 0.0000 0.0000 0.0000 0.0000 0.0000 27.9799
#
#
#
# Elastic Compliance Matrix: (Units=1/GPa)
#
#
# Indices 1 2 3 4 5 6 
#
# 1 0.014778 -0.008246 -0.001291 0.000000 0.000000 0.000000
# 2 -0.008246 0.014777 -0.001291 0.000000 0.000000 0.000000
# 3 -0.001291 -0.001291 0.007402 0.000000 0.000000 0.000000
# 4 0.000000 0.000000 0.000000 0.033045 0.000000 0.000000
# 5 0.000000 0.000000 0.000000 0.000000 0.033045 0.000000
# 6 0.000000 0.000000 0.000000 0.000000 0.000000 0.035740
#
#
# Mechanical properties :
#
#
# Convention : Reuss Voigt Hill
#
# Bulk Modulus (GPa) = 65.35498 65.41223 65.38360
# Shear Modulus (GPa) = 30.20373 33.37499 31.78936
#
# Velocity S-wave (km/s) = 3.66943 3.85726 3.76452
# Velocity P-wave (km/s) = 6.86207 6.99990 6.93133
#
# Compressibility (1/GPa) = 0.01530105
#
# Stress axis : x y z
#
# Youngs Moduli (GPa) = 67.66893 67.67047 135.10315
#
# Poissons Ratio (x) = 0.55800 0.17446
# Poissons Ratio (y) = 0.55798 0.17441
# Poissons Ratio (z) = 0.08738 0.08736
#
# Static dielectric constant tensor:
#      x y z
#    x 3.899550 0.000000 0.000000 
#    y 0.000000 3.899550 0.000000 
#    z 0.000000 0.000000 5.368470 
# 
# 
# High freq. dielectric constant tensor:
#      x y z
#    x 1.876150 0.000000 0.000000 
#    y 0.000000 1.876150 0.000000 
#    z 0.000000 0.000000 1.908510 
# 
# From -- ./inp_files/7388.got.cif
#   From: 2010.03.12/outbox.cif.g09.slc.cpg/sg142_4_cif.got.tgz:7388.got - 2010.04.03 13:27:16.
