data_PCOD8321834
_publ_section_title
;
Structure prediction by ZEFSAII (Michael W. Deem and Ramdas Pophale) SiO2 
 PCOD8321834
Probable space group: P 3 1 2
;
_chemical_formula_sum "Si O2"
_cell_formula_units_Z 32
_cell_length_a 14.867372
_cell_length_b 14.867372
_cell_length_c 9.525402
_cell_angle_alpha 90.000000
_cell_angle_beta 90.000000
_cell_angle_gamma 120.000000
_cell_volume 1823.401725
_symmetry_space_group_name_H-M "P 3 1 2"
_symmetry_group_IT_number 149
_symmetry_cell_setting 'hexagonal'
loop_
_space_group_symop_operation_xyz
x,y,z
-y,x-y,z
-x+y,-x,z
-y,-x,-z
-x+y,y,-z
x,x-y,-z
loop_
_atom_site_type_symbol
_atom_site_label
_atom_site_fract_x
_atom_site_fract_y
_atom_site_fract_z
Si Si1 0.530740 0.862102 0.973153
Si Si2 0.122763 0.667521 0.478832
Si Si3 0.898609 0.786776 0.833082
Si Si4 0.000000 0.000000 0.327894
Si Si5 0.680749 0.940214 0.220786
Si Si6 0.678566 0.940896 0.733360
O O1 0.569205 0.890789 0.814845
O O2 0.450954 0.901907 0.000000
O O3 0.476274 0.738137 0.000000
O O4 0.633936 0.920070 0.065962
O O5 0.242737 0.757264 0.500000
O O6 0.112719 0.556360 0.500000
O O7 0.077749 0.666074 0.325062
O O8 0.048460 0.691341 0.577957
O O9 0.779188 0.723214 0.782247
O O10 0.949144 0.714878 0.797359
O O11 0.959321 0.886246 0.734191
O O12 0.907203 0.814406 0.000000
O O13 0.000000 0.000000 0.500000
O O14 0.722433 0.861596 0.260219
#
# Coordination Sequence:
#
# PCOD8321834 Si02
#       6
#     6   6   6   2   6   6
#     4  10  19  33  50  76 106 142 182 231 273 326
#     4  10  21  37  56  80 114 152 184 229 279 336
#     4  12  22  38  56  80 120 160 188 224 284 333
#     4  12  28  32  58  84 112 164 196 222 274 335
#     4  10  21  33  53  79 110 145 190 224 267 336
#     4  10  21  33  53  79 110 145 190 224 267 336
#
# _framework density 17.549616
#
# number of rings (size 3 to 8) (size 9 to 14) (size 15 to 20)
#    0.000    1.500    3.750    2.062    2.625    0.000 
#    0.000    3.750    0.000    0.000    0.000    0.000 
#   37.500    0.000    0.000    0.000    0.000    0.000 
#
# Total GULP energy -396672.132689 kJ/mol
# GULP energy per Si atom -12396.004147 kJ/mol
# Density = 1.750967 g / cm^3
# Si number density = 17.549616 Si / 1000 Ang^3
#
#
#
# Elastic Constant Matrix: (Units=GPa)
#
#
# Indices 1 2 3 4 5 6 
#
# 1 80.6205 34.6646 17.3255 0.0000 -8.6642 0.0000
# 2 34.6646 80.6205 17.3255 0.0000 8.6642 0.0000
# 3 17.3255 17.3255 77.9373 0.0000 0.0000 0.0000
# 4 0.0000 0.0000 0.0000 15.0479 0.0000 8.6642
# 5 -8.6642 8.6642 0.0000 0.0000 15.0479 0.0000
# 6 0.0000 0.0000 0.0000 8.6642 0.0000 22.9779
#
#
#
# Elastic Compliance Matrix: (Units=1/GPa)
#
#
# Indices 1 2 3 4 5 6 
#
# 1 0.018545 -0.009250 -0.002066 0.000000 0.016003 0.000000
# 2 -0.009250 0.018545 -0.002066 0.000000 -0.016003 0.000000
# 3 -0.002066 -0.002066 0.013750 0.000000 0.000000 0.000000
# 4 0.000000 0.000000 0.000000 0.084883 0.000000 -0.032007
# 5 0.016003 -0.016003 0.000000 0.000000 0.084883 0.000000
# 6 0.000000 0.000000 0.000000 -0.032007 0.000000 0.055589
#
#
# Mechanical properties :
#
#
# Convention : Reuss Voigt Hill
#
# Bulk Modulus (GPa) = 41.53749 41.97883 41.75816
# Shear Modulus (GPa) = 16.07798 21.93891 19.00845
#
# Velocity S-wave (km/s) = 3.03007 3.53952 3.29466
# Velocity P-wave (km/s) = 5.99681 6.37780 6.19024
#
# Compressibility (1/GPa) = 0.02407463
#
# Stress axis : x y z
#
# Youngs Moduli (GPa) = 53.92340 53.92340 72.72986
#
# Poissons Ratio (x) = 0.49877 0.15028
# Poissons Ratio (y) = 0.49877 0.15028
# Poissons Ratio (z) = 0.11142 0.11142
#
# Static dielectric constant tensor:
#      x y z
#    x 3.016170 0.000000 0.000000 
#    y 0.000000 3.016170 0.000000 
#    z 0.000000 0.000000 3.427130 
# 
# 
# High freq. dielectric constant tensor:
#      x y z
#    x 1.654010 0.000000 0.000000 
#    y 0.000000 1.654010 0.000000 
#    z 0.000000 0.000000 1.699330 
# 
# From -- ./inp_files/594.got.cif
#   From: 2010.03.12/outbox.cif.g09.slc.cpg/sg149_cif.got.tgz:594.got - 2010.04.03 13:40:41.
