data_PCOD8321536
_publ_section_title
;
Structure prediction by ZEFSAII (Michael W. Deem and Ramdas Pophale) SiO2 
 PCOD8321536
Probable space group: R 3
;
_chemical_formula_sum "Si O2"
_cell_formula_units_Z 45
_cell_length_a 10.109626
_cell_length_b 10.109626
_cell_length_c 21.600913
_cell_angle_alpha 90.000000
_cell_angle_beta 90.000000
_cell_angle_gamma 120.000000
_cell_volume 1911.934096
_symmetry_space_group_name_H-M "R 3"
_symmetry_group_IT_number 146
_symmetry_cell_setting 'hexagonal'
loop_
_space_group_symop_operation_xyz
x,y,z
-y,x-y,z
-x+y,-x,z
2/3+x,1/3+y,1/3+z
2/3-y,1/3+x-y,1/3+z
2/3-x+y,1/3-x,1/3+z
1/3+x,2/3+y,2/3+z
1/3-y,2/3+x-y,2/3+z
1/3-x+y,2/3-x,2/3+z
loop_
_atom_site_type_symbol
_atom_site_label
_atom_site_fract_x
_atom_site_fract_y
_atom_site_fract_z
Si Si1 0.666667 0.821426 0.405940
Si Si2 0.596346 0.588230 0.842017
Si Si3 0.736988 0.658551 0.969864
Si Si4 0.289239 0.231775 0.135894
Si Si5 0.044095 0.609203 0.675987
O O1 0.776718 0.784342 0.448623
O O2 0.556616 0.674292 0.363257
O O3 0.570498 0.870290 0.452333
O O4 0.762836 0.966459 0.359547
O O5 0.666667 0.572890 0.905940
O O6 0.626038 0.759244 0.834505
O O7 0.419788 0.460797 0.848542
O O8 0.913545 0.707677 0.963338
O O9 0.707296 0.799873 0.977375
O O10 0.186942 0.186942 0.072607
#
# Coordination Sequence:
#
# PCOD8321536 Si02
#       5
#     9   9   9   9   9
#     4  10  22  44  66  96 140 172 222 278 340 394
#     4  12  25  45  72 105 132 178 235 281 334 408
#     4  12  25  45  72 105 132 178 235 281 334 408
#     4  10  23  45  73  93 138 181 223 274 344 402
#     4  10  23  45  73  93 138 181 223 274 344 402
#
# _framework density 23.536377000000002
#
# number of rings (size 3 to 8) (size 9 to 14) (size 15 to 20)
#    1.200    0.000    4.000    0.800    5.600    0.000 
#   19.200    0.000    0.000    0.000    0.000    0.000 
#    0.000    0.000    0.000    0.000    0.000    0.000 
#
# Total GULP energy -185834.598366 kJ/mol
# GULP energy per Si atom -12388.973224 kJ/mol
# Density = 2.348281 g / cm^3
# Si number density = 23.536377 Si / 1000 Ang^3
#
#
#
# Elastic Constant Matrix: (Units=GPa)
#
#
# Indices 1 2 3 4 5 6 
#
# 1 97.1980 48.2617 15.8100 1.1367 0.0001 0.0000
# 2 48.2617 97.1980 15.8100 -1.1367 -0.0001 0.0000
# 3 15.8100 15.8100 102.9399 0.0000 0.0000 0.0000
# 4 1.1367 -1.1367 0.0000 31.6039 0.0000 -0.0001
# 5 0.0001 -0.0001 0.0000 0.0000 31.6039 1.1367
# 6 0.0000 0.0000 0.0000 -0.0001 1.1367 24.4681
#
#
#
# Elastic Compliance Matrix: (Units=1/GPa)
#
#
# Indices 1 2 3 4 5 6 
#
# 1 0.013791 -0.006678 -0.001092 -0.000736 0.000000 0.000000
# 2 -0.006678 0.013791 -0.001092 0.000736 0.000000 0.000000
# 3 -0.001092 -0.001092 0.010050 0.000000 0.000000 0.000000
# 4 -0.000736 0.000736 0.000000 0.031695 0.000000 0.000000
# 5 0.000000 0.000000 0.000000 0.000000 0.031695 -0.001472
# 6 0.000000 0.000000 0.000000 0.000000 -0.001472 0.040938
#
#
# Mechanical properties :
#
#
# Convention : Reuss Voigt Hill
#
# Bulk Modulus (GPa) = 50.23856 50.78884 50.51370
# Shear Modulus (GPa) = 30.06266 32.03214 31.04740
#
# Velocity S-wave (km/s) = 3.57779 3.69313 3.63591
# Velocity P-wave (km/s) = 6.20152 6.30962 6.25580
#
# Compressibility (1/GPa) = 0.01990503
#
# Stress axis : x y z
#
# Youngs Moduli (GPa) = 72.51327 72.51327 99.50315
#
# Poissons Ratio (x) = 0.48427 0.10869
# Poissons Ratio (y) = 0.48427 0.10869
# Poissons Ratio (z) = 0.07921 0.07921
#
# Static dielectric constant tensor:
#      x y z
#    x 3.981150 0.000000 0.000000 
#    y 0.000000 3.981150 0.000000 
#    z 0.000000 0.000000 4.152090 
# 
# 
# High freq. dielectric constant tensor:
#      x y z
#    x 1.912770 0.000000 0.000000 
#    y 0.000000 1.912770 0.000000 
#    z 0.000000 0.000000 1.932370 
# 
# From -- ./inp_files/1889.got.cif
#   From: 2010.06.25/outbox.cif.g09.slc.cpg/sg146_cif.got.tgz:1889.got - 2010.06.28 11:17:22.
