data_PCOD8321002
_publ_section_title
;
Structure prediction by ZEFSAII (Michael W. Deem and Ramdas Pophale) SiO2 
 PCOD8321002
Probable space group: I 41/A C D
;
_chemical_formula_sum "Si O2"
_cell_formula_units_Z 96
_cell_length_a 16.686523
_cell_length_b 16.686523
_cell_length_c 16.405192
_cell_angle_alpha 90.000000
_cell_angle_beta 90.000000
_cell_angle_gamma 90.000000
_cell_volume 4567.862478
_symmetry_space_group_name_H-M "I 41/A C D"
_symmetry_group_IT_number 142
_space_group.IT_coordinate_system_code '2'
_symmetry_cell_setting 'tetragonal'
loop_
_space_group_symop_operation_xyz
x,y,z
1/4-y,3/4+x,1/4+z
-x,1/2-y,z
1/4+y,1/4-x,3/4+z
x,-y,1/2-z
1/2-x,y,-z
3/4+y,1/4+x,1/4-z
1/4-y,1/4-x,1/4-z
-x,-y,-z
3/4+y,1/4-x,3/4-z
x,1/2+y,-z
3/4-y,3/4+x,1/4-z
-x,y,1/2+z
1/2+x,-y,z
1/4-y,3/4-x,3/4+z
3/4+y,3/4+x,3/4+z
1/2+x,1/2+y,1/2+z
3/4-y,1/4+x,3/4+z
1/2-x,-y,1/2+z
3/4+y,3/4-x,1/4+z
1/2+x,1/2-y,-z
-x,1/2+y,1/2-z
1/4+y,3/4+x,3/4-z
3/4-y,3/4-x,3/4-z
1/2-x,1/2-y,1/2-z
1/4+y,3/4-x,1/4-z
1/2+x,y,1/2-z
1/4-y,1/4+x,3/4-z
1/2-x,1/2+y,z
x,1/2-y,1/2+z
3/4-y,1/4-x,1/4+z
1/4+y,1/4+x,1/4+z
loop_
_atom_site_type_symbol
_atom_site_label
_atom_site_fract_x
_atom_site_fract_y
_atom_site_fract_z
Si Si1 0.739311 0.861091 0.095719
Si Si2 0.447626 0.853945 0.909125
Si Si3 0.119621 0.256952 0.158293
O O1 0.685379 0.935379 0.125000
O O2 0.826658 0.865665 0.137095
O O3 0.704091 0.774626 0.123778
O O4 0.750000 0.865682 0.000000
O O5 0.518943 0.849336 0.841075
O O6 0.490979 0.870757 0.994508
O O7 0.054898 0.195103 0.125000
O O8 0.095849 0.345849 0.125000
#
# Coordination Sequence:
#
# PCOD8321002 Si02
#       3
#    32  32  32
#     4  11  23  41  60  85 123 162 199 250 303 354
#     4  11  21  38  64  91 117 155 201 248 301 359
#     4  10  19  35  59  89 119 155 198 244 295 356
#
# _framework density 21.016393000000001
#
# number of rings (size 3 to 8) (size 9 to 14) (size 15 to 20)
#    0.000    1.333    0.000   11.000    0.000    0.000 
#    0.000    8.333    0.000    0.000    0.000    0.000 
#    0.000    0.000    0.000    0.000    0.000    0.000 
#
# Total GULP energy -595020.892010 kJ/mol
# GULP energy per Si atom -12396.268584 kJ/mol
# Density = 2.096856 g / cm^3
# Si number density = 21.016393 Si / 1000 Ang^3
#
#
#
# Elastic Constant Matrix: (Units=GPa)
#
#
# Indices 1 2 3 4 5 6 
#
# 1 83.4380 55.4591 33.8873 0.0000 0.0000 0.0000
# 2 55.4591 83.4352 33.8892 0.0000 0.0000 0.0000
# 3 33.8873 33.8892 163.5285 0.0000 0.0000 0.0000
# 4 0.0000 0.0000 0.0000 -9.6691 0.0000 0.0000
# 5 0.0000 0.0000 0.0000 0.0000 -9.7235 0.0000
# 6 0.0000 0.0000 0.0000 0.0000 0.0000 40.3469
#
#
#
# Elastic Compliance Matrix: (Units=1/GPa)
#
#
# Indices 1 2 3 4 5 6 
#
# 1 0.021876 -0.013867 -0.001660 0.000000 0.000000 0.000000
# 2 -0.013867 0.021877 -0.001660 0.000000 0.000000 0.000000
# 3 -0.001660 -0.001660 0.006803 0.000000 0.000000 0.000000
# 4 0.000000 0.000000 0.000000 -0.103422 0.000000 0.000000
# 5 0.000000 0.000000 0.000000 0.000000 -0.102844 0.000000
# 6 0.000000 0.000000 0.000000 0.000000 0.000000 0.024785
#
#
# Mechanical properties :
#
#
# Convention : Reuss Voigt Hill
#
# Bulk Modulus (GPa) = 61.79357 64.09699 62.94528
# Shear Modulus (GPa) = -54.85008 18.00193 -18.42407
#
# Velocity S-wave (km/s) = -5.11423 2.92989 -2.96404
# Velocity P-wave (km/s) = 2.32539 6.48155 4.27803
#
# Compressibility (1/GPa) = 0.01618291
#
# Stress axis : x y z
#
# Youngs Moduli (GPa) = 45.71267 45.71055 146.99216
#
# Poissons Ratio (x) = 0.63385 0.24394
# Poissons Ratio (y) = 0.63388 0.24403
# Poissons Ratio (z) = 0.07586 0.07589
#
# Static dielectric constant tensor:
#      x y z
#    x 4.294300 0.000000 0.000000 
#    y 0.000000 4.294280 0.000000 
#    z 0.000000 0.000000 4.025160 
# 
# 
# High freq. dielectric constant tensor:
#      x y z
#    x 1.810170 0.000000 0.000000 
#    y 0.000000 1.810170 0.000000 
#    z 0.000000 0.000000 1.835600 
# 
# From -- ./inp_files/6537.got.cif
#   From: 2010.03.12/outbox.cif.g09.slc.cpg/sg142_4_cif.got.tgz:6537.got - 2010.04.03 13:27:16.
