data_PCOD8321387
_publ_section_title
;
Structure prediction by ZEFSAII (Michael W. Deem and Ramdas Pophale) SiO2 
 PCOD8321387
Probable space group: P 31
;
_chemical_formula_sum "Si O2"
_cell_formula_units_Z 18
_cell_length_a 8.977919
_cell_length_b 8.977919
_cell_length_c 11.228541
_cell_angle_alpha 90.000000
_cell_angle_beta 90.000000
_cell_angle_gamma 120.000000
_cell_volume 783.800121
_symmetry_space_group_name_H-M "P 31"
_symmetry_group_IT_number 144
_symmetry_cell_setting 'hexagonal'
loop_
_space_group_symop_operation_xyz
x,y,z
-y,x-y,1/3+z
-x+y,-x,2/3+z
loop_
_atom_site_type_symbol
_atom_site_label
_atom_site_fract_x
_atom_site_fract_y
_atom_site_fract_z
Si Si1 0.974730 0.168784 0.463190
Si Si2 0.140617 0.769230 0.329375
Si Si3 0.955434 0.158306 0.055767
Si Si4 0.702766 0.631556 0.155856
Si Si5 0.662809 0.071342 0.627549
Si Si6 0.582976 0.701873 0.598988
O O1 0.802722 0.117915 0.528611
O O2 0.141695 0.265713 0.544143
O O3 0.975761 0.287258 0.356257
O O4 0.969522 0.999691 0.410727
O O5 0.151327 0.607383 0.282406
O O6 0.965609 0.712868 0.406284
O O7 0.313100 0.906166 0.402093
O O8 0.044170 0.333608 0.135097
O O9 0.990418 0.204342 0.916368
O O10 0.593808 0.467301 0.240851
O O11 0.831829 0.586664 0.083401
O O12 0.566331 0.865535 0.638190
#
# Coordination Sequence:
#
# PCOD8321387 Si02
#       6
#     3   3   3   3   3   3
#     4  10  22  46  71 103 147 188 244 298 372 448
#     4  11  24  43  73 107 140 192 240 309 368 437
#     4  11  23  44  74 101 143 198 239 293 376 448
#     4  11  25  46  76 102 150 193 247 304 373 441
#     4  10  25  47  71 105 146 192 246 307 369 437
#     4  11  25  42  73 108 144 183 248 307 360 449
#
# _framework density 22.965036999999999
#
# number of rings (size 3 to 8) (size 9 to 14) (size 15 to 20)
#    0.000    1.333    0.000    6.000    7.000    2.667 
#   12.000    0.000    0.000    0.000    0.000    0.000 
#    0.000    0.000    0.000    0.000    0.000    0.000 
#
# Total GULP energy -223070.245165 kJ/mol
# GULP energy per Si atom -12392.791398 kJ/mol
# Density = 2.291277 g / cm^3
# Si number density = 22.965037 Si / 1000 Ang^3
#
#
#
# Elastic Constant Matrix: (Units=GPa)
#
#
# Indices 1 2 3 4 5 6 
#
# 1 98.0059 102.9463 71.9946 38.7674 19.1421 0.0000
# 2 102.9463 98.0059 71.9946 -38.7674 -19.1421 0.0000
# 3 71.9946 71.9946 138.0705 0.0000 0.0000 0.0000
# 4 38.7674 -38.7674 0.0000 -6.5309 0.0000 -19.1421
# 5 19.1421 -19.1421 0.0000 0.0000 -6.5309 38.7674
# 6 0.0000 0.0000 0.0000 -19.1421 38.7674 -2.4702
#
#
#
# Elastic Compliance Matrix: (Units=1/GPa)
#
#
# Indices 1 2 3 4 5 6 
#
# 1 0.004853 0.003091 -0.004143 0.010460 0.005165 0.000000
# 2 0.003091 0.004853 -0.004143 -0.010460 -0.005165 0.000000
# 3 -0.004143 -0.004143 0.011563 0.000000 0.000000 0.000000
# 4 0.010460 -0.010460 0.000000 0.001333 0.000000 -0.010329
# 5 0.005165 -0.005165 0.000000 0.000000 0.001333 0.020919
# 6 0.000000 0.000000 0.000000 -0.010329 0.020919 0.003524
#
#
# Mechanical properties :
#
#
# Convention : Reuss Voigt Hill
#
# Bulk Modulus (GPa) = 91.89725 91.99484 91.94605
# Shear Modulus (GPa) = 120.55572 2.70338 61.62955
#
# Velocity S-wave (km/s) = 7.25323 1.08615 5.18599
# Velocity P-wave (km/s) = 10.49994 6.45899 8.71686
#
# Compressibility (1/GPa) = 0.01088172
#
# Stress axis : x y z
#
# Youngs Moduli (GPa) = 206.04356 206.04356 86.48392
#
# Poissons Ratio (x) = -0.63694 0.35827
# Poissons Ratio (y) = -0.63694 0.35827
# Poissons Ratio (z) = 0.85355 0.85355
#
# Static dielectric constant tensor:
#      x y z
#    x 4.714830 0.000000 0.000000 
#    y 0.000000 4.714830 0.000000 
#    z 0.000000 0.000000 4.556620 
# 
# 
# High freq. dielectric constant tensor:
#      x y z
#    x 1.903140 0.000000 0.000000 
#    y 0.000000 1.903140 0.000000 
#    z 0.000000 0.000000 1.925130 
# 
# From -- ./inp_files/508.got.cif
#   From: 2010.03.12/outbox.cif.g09.slc.cpg/sg144_cif.got.tgz:508.got - 2010.04.03 13:34:42.
