data_PCOD8321657
_publ_section_title
;
Structure prediction by ZEFSAII (Michael W. Deem and Ramdas Pophale) SiO2 
 PCOD8321657
Probable space group: P -3
;
_chemical_formula_sum "Si O2"
_cell_formula_units_Z 40
_cell_length_a 18.873351
_cell_length_b 18.873351
_cell_length_c 9.153021
_cell_angle_alpha 90.000000
_cell_angle_beta 90.000000
_cell_angle_gamma 120.000000
_cell_volume 2823.534666
_symmetry_space_group_name_H-M "P -3"
_symmetry_group_IT_number 147
_symmetry_cell_setting 'hexagonal'
loop_
_space_group_symop_operation_xyz
x,y,z
-y,x-y,z
-x+y,-x,z
-x,-y,-z
y,-x+y,-z
x-y,x,-z
loop_
_atom_site_type_symbol
_atom_site_label
_atom_site_fract_x
_atom_site_fract_y
_atom_site_fract_z
Si Si1 0.759219 0.240776 0.173154
Si Si2 0.906508 0.372070 0.330446
Si Si3 0.906511 0.534442 0.669555
Si Si4 0.333334 0.666667 0.172821
Si Si5 0.465559 0.372070 0.330445
Si Si6 0.093492 0.627929 0.330445
Si Si7 0.333334 0.666668 0.827174
Si Si8 0.759220 0.240777 0.826848
O O1 0.850853 0.290654 0.236612
O O2 0.709347 0.149142 0.236611
O O3 0.712705 0.287278 0.231445
O O4 0.763357 0.236640 0.000001
O O5 0.892609 0.446305 0.279672
O O6 0.884302 0.353015 0.500001
O O7 0.999998 0.396674 0.301741
O O8 0.884306 0.531290 0.500000
O O9 0.892608 0.446306 0.720329
O O10 0.850857 0.560206 0.763388
O O11 0.287294 0.712721 0.231441
O O12 0.333334 0.666667 0.999998
O O13 0.396675 0.396677 0.301740
O O14 0.149147 0.709345 0.236610
#
# Coordination Sequence:
#
# PCOD8321657 Si02
#       8
#     6   6   6   2   6   6   2   6
#     4  11  19  29  43  60  84 109 139 176 214 256
#     4   9  18  31  44  59  80 107 141 177 211 248
#     4   9  18  31  44  59  80 107 141 177 211 248
#     4   9  18  27  34  56  85 108 136 170 208 249
#     4   9  18  31  44  59  80 107 141 177 211 248
#     4   9  18  31  44  59  80 107 141 177 211 248
#     4   9  18  27  34  56  85 108 136 170 208 249
#     4  11  19  29  43  60  84 109 139 176 214 256
#
# _framework density 14.166641
#
# number of rings (size 3 to 8) (size 9 to 14) (size 15 to 20)
#    0.000    2.400    3.000    2.700    0.000    1.200 
#    0.000    3.000    0.000    0.000    0.000    0.000 
#    0.000    0.000    0.000    0.900    0.000   17.400 
#
# Total GULP energy -495991.567778 kJ/mol
# GULP energy per Si atom -12399.789194 kJ/mol
# Density = 1.413440 g / cm^3
# Si number density = 14.166641 Si / 1000 Ang^3
#
#
#
# Elastic Constant Matrix: (Units=GPa)
#
#
# Indices 1 2 3 4 5 6 
#
# 1 79.1593 32.3703 43.3547 0.0000 0.0001 0.0002
# 2 32.3703 79.1586 43.3549 0.0000 -0.0001 0.0001
# 3 43.3547 43.3549 70.4149 0.0000 0.0000 -0.0001
# 4 0.0000 0.0000 0.0000 20.9119 0.0001 -0.0001
# 5 0.0001 -0.0001 0.0000 0.0001 20.9121 0.0000
# 6 0.0002 0.0001 -0.0001 -0.0001 0.0000 23.3945
#
#
#
# Elastic Compliance Matrix: (Units=1/GPa)
#
#
# Indices 1 2 3 4 5 6 
#
# 1 0.019286 -0.002087 -0.010590 0.000000 0.000000 0.000000
# 2 -0.002087 0.019286 -0.010590 0.000000 0.000000 0.000000
# 3 -0.010590 -0.010590 0.027242 0.000000 0.000000 0.000000
# 4 0.000000 0.000000 0.000000 0.047820 0.000000 0.000000
# 5 0.000000 0.000000 0.000000 0.000000 0.047819 0.000000
# 6 0.000000 0.000000 0.000000 0.000000 0.000000 0.042745
#
#
# Mechanical properties :
#
#
# Convention : Reuss Voigt Hill
#
# Bulk Modulus (GPa) = 51.86283 51.87696 51.86989
# Shear Modulus (GPa) = 19.44334 20.35387 19.89861
#
# Velocity S-wave (km/s) = 3.70871 3.79456 3.75188
# Velocity P-wave (km/s) = 7.41808 7.47642 7.44731
#
# Compressibility (1/GPa) = 0.01928163
#
# Stress axis : x y z
#
# Youngs Moduli (GPa) = 51.85141 51.85055 36.70825
#
# Poissons Ratio (x) = 0.10820 0.38873
# Poissons Ratio (y) = 0.10820 0.38873
# Poissons Ratio (z) = 0.54909 0.54909
#
# Static dielectric constant tensor:
#      x y z
#    x 2.624010 0.000000 0.000000 
#    y 0.000000 2.624010 0.000000 
#    z 0.000000 0.000000 2.638820 
# 
# 
# High freq. dielectric constant tensor:
#      x y z
#    x 1.515440 0.000000 0.000000 
#    y 0.000000 1.515440 0.000000 
#    z 0.000000 0.000000 1.542380 
# 
# From -- ./inp_files/646.got.cif
#   From: 2010.03.12/outbox.cif.g09.slc.cpg/sg147_cif.got.tgz:646.got - 2010.04.03 13:37:56.
