data_PCOD8321138
_publ_section_title
;
Structure prediction by ZEFSAII (Michael W. Deem and Ramdas Pophale) SiO2 
 PCOD8321138
Probable space group: I 41/A C D
;
_chemical_formula_sum "Si O2"
_cell_formula_units_Z 184
_cell_length_a 23.084303
_cell_length_b 23.084303
_cell_length_c 17.947660
_cell_angle_alpha 90.000000
_cell_angle_beta 90.000000
_cell_angle_gamma 90.000000
_cell_volume 9564.039607
_symmetry_space_group_name_H-M "I 41/A C D"
_symmetry_group_IT_number 142
_space_group.IT_coordinate_system_code '2'
_symmetry_cell_setting 'tetragonal'
loop_
_space_group_symop_operation_xyz
x,y,z
1/4-y,3/4+x,1/4+z
-x,1/2-y,z
1/4+y,1/4-x,3/4+z
x,-y,1/2-z
1/2-x,y,-z
3/4+y,1/4+x,1/4-z
1/4-y,1/4-x,1/4-z
-x,-y,-z
3/4+y,1/4-x,3/4-z
x,1/2+y,-z
3/4-y,3/4+x,1/4-z
-x,y,1/2+z
1/2+x,-y,z
1/4-y,3/4-x,3/4+z
3/4+y,3/4+x,3/4+z
1/2+x,1/2+y,1/2+z
3/4-y,1/4+x,3/4+z
1/2-x,-y,1/2+z
3/4+y,3/4-x,1/4+z
1/2+x,1/2-y,-z
-x,1/2+y,1/2-z
1/4+y,3/4+x,3/4-z
3/4-y,3/4-x,3/4-z
1/2-x,1/2-y,1/2-z
1/4+y,3/4-x,1/4-z
1/2+x,y,1/2-z
1/4-y,1/4+x,3/4-z
1/2-x,1/2+y,z
x,1/2-y,1/2+z
3/4-y,1/4-x,1/4+z
1/4+y,1/4+x,1/4+z
loop_
_atom_site_type_symbol
_atom_site_label
_atom_site_fract_x
_atom_site_fract_y
_atom_site_fract_z
Si Si1 0.108721 0.298766 0.316113
Si Si2 0.000000 0.250000 0.375000
Si Si3 0.525668 0.523808 0.116862
Si Si4 0.684354 0.299223 0.743763
Si Si5 0.605938 0.794901 0.561302
Si Si6 0.456921 0.000000 0.750000
Si Si7 0.076136 0.123619 0.264530
O O1 0.162507 0.263047 0.286146
O O2 0.090042 0.348602 0.257361
O O3 0.122163 0.325335 0.396258
O O4 0.056475 0.251933 0.322668
O O5 0.569093 0.484455 0.065618
O O6 0.555993 0.581547 0.150147
O O7 0.501086 0.484642 0.183266
O O8 0.466427 0.538970 0.072972
O O9 0.635196 0.345929 0.760397
O O10 0.557123 0.807123 0.625000
O O11 0.599084 0.730146 0.526952
O O12 0.417848 0.943124 0.738469
#
# Coordination Sequence:
#
# PCOD8321138 Si02
#       7
#    32   8  32  32  32  16  32
#     4  12  19  34  53  85 120 156 186 228 294 357
#     4  12  20  32  50  84 120 160 178 224 288 372
#     4  10  23  38  57  84 117 154 195 239 281 356
#     4  11  21  39  58  85 118 157 194 234 296 353
#     4  11  22  37  56  88 122 155 195 241 291 351
#     4  10  22  38  54  82 114 148 196 240 282 342
#     4  11  22  37  59  84 119 157 191 236 298 351
#
# _framework density 19.238733
#
# number of rings (size 3 to 8) (size 9 to 14) (size 15 to 20)
#    0.000    1.043    6.957    0.000    2.435    2.783 
#    6.261    0.000    0.000    0.000    4.522    0.000 
#    0.000    0.000    0.000    0.000    0.000    0.000 
#
# Total GULP energy -1140094.744069 kJ/mol
# GULP energy per Si atom -12392.334175 kJ/mol
# Density = 1.919494 g / cm^3
# Si number density = 19.238733 Si / 1000 Ang^3
#
#
#
# Elastic Constant Matrix: (Units=GPa)
#
#
# Indices 1 2 3 4 5 6 
#
# 1 77.5867 34.7110 29.0673 0.0000 0.0000 0.0000
# 2 34.7110 77.5867 29.0673 0.0000 0.0000 0.0000
# 3 29.0673 29.0673 99.6316 0.0000 0.0000 0.0000
# 4 0.0000 0.0000 0.0000 29.4752 0.0000 0.0000
# 5 0.0000 0.0000 0.0000 0.0000 29.4752 0.0000
# 6 0.0000 0.0000 0.0000 0.0000 0.0000 16.3224
#
#
#
# Elastic Compliance Matrix: (Units=1/GPa)
#
#
# Indices 1 2 3 4 5 6 
#
# 1 0.016906 -0.006417 -0.003060 0.000000 0.000000 0.000000
# 2 -0.006417 0.016906 -0.003060 0.000000 0.000000 0.000000
# 3 -0.003060 -0.003060 0.011823 0.000000 0.000000 0.000000
# 4 0.000000 0.000000 0.000000 0.033927 0.000000 0.000000
# 5 0.000000 0.000000 0.000000 0.000000 0.033927 0.000000
# 6 0.000000 0.000000 0.000000 0.000000 0.000000 0.061266
#
#
# Mechanical properties :
#
#
# Convention : Reuss Voigt Hill
#
# Bulk Modulus (GPa) = 48.63794 48.94403 48.79098
# Shear Modulus (GPa) = 24.19170 25.85184 25.02177
#
# Velocity S-wave (km/s) = 3.54990 3.66968 3.61029
# Velocity P-wave (km/s) = 6.49142 6.59174 6.54177
#
# Compressibility (1/GPa) = 0.02056008
#
# Stress axis : x y z
#
# Youngs Moduli (GPa) = 59.15000 59.15000 84.58398
#
# Poissons Ratio (x) = 0.37957 0.25884
# Poissons Ratio (y) = 0.37957 0.25884
# Poissons Ratio (z) = 0.18101 0.18101
#
# Static dielectric constant tensor:
#      x y z
#    x 3.366160 0.000000 0.000000 
#    y 0.000000 3.366160 0.000000 
#    z 0.000000 0.000000 3.851640 
# 
# 
# High freq. dielectric constant tensor:
#      x y z
#    x 1.719800 0.000000 0.000000 
#    y 0.000000 1.719800 0.000000 
#    z 0.000000 0.000000 1.779430 
# 
# From -- ./inp_files/7665.got.cif
#   From: 2010.03.12/outbox.cif.g09.slc.cpg/sg142_4_cif.got.tgz:7665.got - 2010.04.03 13:27:16.
