data_PCOD8321063
_publ_section_title
;
Structure prediction by ZEFSAII (Michael W. Deem and Ramdas Pophale) SiO2 
 PCOD8321063
Probable space group: I 41/A C D
;
_chemical_formula_sum "Si O2"
_cell_formula_units_Z 104
_cell_length_a 22.173235
_cell_length_b 22.173235
_cell_length_c 10.510734
_cell_angle_alpha 90.000000
_cell_angle_beta 90.000000
_cell_angle_gamma 90.000000
_cell_volume 5167.627075
_symmetry_space_group_name_H-M "I 41/A C D"
_symmetry_group_IT_number 142
_space_group.IT_coordinate_system_code '2'
_symmetry_cell_setting 'tetragonal'
loop_
_space_group_symop_operation_xyz
x,y,z
1/4-y,3/4+x,1/4+z
-x,1/2-y,z
1/4+y,1/4-x,3/4+z
x,-y,1/2-z
1/2-x,y,-z
3/4+y,1/4+x,1/4-z
1/4-y,1/4-x,1/4-z
-x,-y,-z
3/4+y,1/4-x,3/4-z
x,1/2+y,-z
3/4-y,3/4+x,1/4-z
-x,y,1/2+z
1/2+x,-y,z
1/4-y,3/4-x,3/4+z
3/4+y,3/4+x,3/4+z
1/2+x,1/2+y,1/2+z
3/4-y,1/4+x,3/4+z
1/2-x,-y,1/2+z
3/4+y,3/4-x,1/4+z
1/2+x,1/2-y,-z
-x,1/2+y,1/2-z
1/4+y,3/4+x,3/4-z
3/4-y,3/4-x,3/4-z
1/2-x,1/2-y,1/2-z
1/4+y,3/4-x,1/4-z
1/2+x,y,1/2-z
1/4-y,1/4+x,3/4-z
1/2-x,1/2+y,z
x,1/2-y,1/2+z
3/4-y,1/4-x,1/4+z
1/4+y,1/4+x,1/4+z
loop_
_atom_site_type_symbol
_atom_site_label
_atom_site_fract_x
_atom_site_fract_y
_atom_site_fract_z
Si Si1 0.070145 0.022042 0.382561
Si Si2 0.088975 0.155714 0.476634
Si Si3 0.216241 0.182960 0.382575
Si Si4 0.500000 0.750000 0.875000
O O1 0.078138 0.092719 0.406719
O O2 0.999740 0.005762 0.374483
O O3 0.100983 0.000000 0.250000
O O4 0.099370 0.983380 0.498848
O O5 0.103452 0.146549 0.625000
O O6 0.145092 0.185733 0.404526
O O7 0.031667 0.199739 0.463181
O O8 0.250000 0.149074 0.500000
#
# Coordination Sequence:
#
# PCOD8321063 Si02
#       4
#    32  32  32   8
#     4  10  22  38  61  91 121 166 218 253 301 377
#     4  12  23  41  63  90 136 166 204 266 318 382
#     4  10  20  38  62  86 119 168 213 247 306 378
#     4  12  26  36  56 106 132 166 200 252 338 378
#
# _framework density 20.125292000000002
#
# number of rings (size 3 to 8) (size 9 to 14) (size 15 to 20)
#    0.000    1.231    6.154    0.462    0.000    1.231 
#    5.538    0.000    0.000    5.538    0.000    0.000 
#    0.000    0.000    0.000    0.000    0.000    0.000 
#
# Total GULP energy -644589.910960 kJ/mol
# GULP energy per Si atom -12395.959826 kJ/mol
# Density = 2.007949 g / cm^3
# Si number density = 20.125292 Si / 1000 Ang^3
#
#
#
# Elastic Constant Matrix: (Units=GPa)
#
#
# Indices 1 2 3 4 5 6 
#
# 1 88.9617 13.1515 51.3750 0.0000 0.0000 0.0000
# 2 13.1515 88.9622 51.3752 0.0000 0.0000 0.0000
# 3 51.3750 51.3752 205.3276 0.0000 0.0000 0.0000
# 4 0.0000 0.0000 0.0000 25.2651 0.0000 0.0000
# 5 0.0000 0.0000 0.0000 0.0000 25.2652 0.0000
# 6 0.0000 0.0000 0.0000 0.0000 0.0000 18.2929
#
#
#
# Elastic Compliance Matrix: (Units=1/GPa)
#
#
# Indices 1 2 3 4 5 6 
#
# 1 0.013140 -0.000051 -0.003275 0.000000 0.000000 0.000000
# 2 -0.000051 0.013139 -0.003275 0.000000 0.000000 0.000000
# 3 -0.003275 -0.003275 0.006509 0.000000 0.000000 0.000000
# 4 0.000000 0.000000 0.000000 0.039580 0.000000 0.000000
# 5 0.000000 0.000000 0.000000 0.000000 0.039580 0.000000
# 6 0.000000 0.000000 0.000000 0.000000 0.000000 0.054666
#
#
# Mechanical properties :
#
#
# Convention : Reuss Voigt Hill
#
# Bulk Modulus (GPa) = 51.05607 68.33943 59.69775
# Shear Modulus (GPa) = 26.83196 31.58798 29.20997
#
# Velocity S-wave (km/s) = 3.65532 3.96607 3.81387
# Velocity P-wave (km/s) = 6.57567 7.41645 7.00868
#
# Compressibility (1/GPa) = 0.01958631
#
# Stress axis : x y z
#
# Youngs Moduli (GPa) = 76.10601 76.10641 153.63211
#
# Poissons Ratio (x) = 0.00390 0.50312
# Poissons Ratio (y) = 0.00390 0.50312
# Poissons Ratio (z) = 0.24923 0.24923
#
# Static dielectric constant tensor:
#      x y z
#    x 3.333930 0.000000 0.000000 
#    y 0.000000 3.333920 0.000000 
#    z 0.000000 0.000000 4.238010 
# 
# 
# High freq. dielectric constant tensor:
#      x y z
#    x 1.757550 0.000000 0.000000 
#    y 0.000000 1.757550 0.000000 
#    z 0.000000 0.000000 1.810830 
# 
# From -- ./inp_files/1804.got.cif
#   From: 2010.03.12/outbox.cif.g09.slc.cpg/sg142_1_cif.got.tgz:1804.got - 2010.04.03 13:27:16.
