data_PCOD8321401
_publ_section_title
;
Structure prediction by ZEFSAII (Michael W. Deem and Ramdas Pophale) SiO2 
 PCOD8321401
Probable space group: P 31
;
_chemical_formula_sum "Si O2"
_cell_formula_units_Z 18
_cell_length_a 11.151084
_cell_length_b 11.151084
_cell_length_c 7.488284
_cell_angle_alpha 90.000000
_cell_angle_beta 90.000000
_cell_angle_gamma 120.000000
_cell_volume 806.393676
_symmetry_space_group_name_H-M "P 31"
_symmetry_group_IT_number 144
_symmetry_cell_setting 'hexagonal'
loop_
_space_group_symop_operation_xyz
x,y,z
-y,x-y,1/3+z
-x+y,-x,2/3+z
loop_
_atom_site_type_symbol
_atom_site_label
_atom_site_fract_x
_atom_site_fract_y
_atom_site_fract_z
Si Si1 0.009371 0.507094 0.176580
Si Si2 0.521892 0.505389 0.917039
Si Si3 0.750139 0.984687 0.246231
Si Si4 0.701497 0.270694 0.718208
Si Si5 0.187177 0.378796 0.563086
Si Si6 0.746234 0.784702 0.533253
O O1 0.948030 0.466626 0.375237
O O2 0.145305 0.657153 0.168858
O O3 0.046550 0.391342 0.113911
O O4 0.896586 0.515879 0.048186
O O5 0.378389 0.377225 0.988336
O O6 0.658338 0.523748 0.017936
O O7 0.524883 0.648901 0.954070
O O8 0.879043 0.135437 0.208657
O O9 0.792546 0.912582 0.399650
O O10 0.713240 0.899607 0.061572
O O11 0.667919 0.309805 0.908192
O O12 0.102205 0.279268 0.398659
#
# Coordination Sequence:
#
# PCOD8321401 Si02
#       6
#     3   3   3   3   3   3
#     4  10  24  46  69 103 136 177 232 281 332 410
#     4  10  24  46  69 103 136 177 232 281 332 410
#     4  11  27  45  69 102 138 182 232 277 339 415
#     4  12  24  40  72 102 138 176 222 282 338 400
#     4  10  26  46  70  98 142 178 222 292 340 388
#     4  11  27  45  69 102 138 182 232 277 339 415
#
# _framework density 22.321601999999999
#
# number of rings (size 3 to 8) (size 9 to 14) (size 15 to 20)
#    0.000    1.333    1.667    1.000   11.667    4.000 
#    0.000    0.000    0.000    0.000    0.000    0.000 
#    0.000    0.000    0.000    0.000    0.000    0.000 
#
# Total GULP energy -223216.441768 kJ/mol
# GULP energy per Si atom -12400.913432 kJ/mol
# Density = 2.227080 g / cm^3
# Si number density = 22.321602 Si / 1000 Ang^3
#
#
#
# Elastic Constant Matrix: (Units=GPa)
#
#
# Indices 1 2 3 4 5 6 
#
# 1 125.2162 44.7479 1.1224 -1.9302 2.0506 0.0000
# 2 44.7479 125.2162 1.1224 1.9302 -2.0506 0.0000
# 3 1.1224 1.1224 32.8133 0.0000 0.0000 0.0000
# 4 -1.9302 1.9302 0.0000 31.5624 0.0000 -2.0506
# 5 2.0506 -2.0506 0.0000 0.0000 31.5624 -1.9302
# 6 0.0000 0.0000 0.0000 -2.0506 -1.9302 40.2341
#
#
#
# Elastic Compliance Matrix: (Units=1/GPa)
#
#
# Indices 1 2 3 4 5 6 
#
# 1 0.009196 -0.003310 -0.000201 0.000765 -0.000812 0.000000
# 2 -0.003310 0.009196 -0.000201 -0.000765 0.000812 0.000000
# 3 -0.000201 -0.000201 0.030489 0.000000 0.000000 0.000000
# 4 0.000765 -0.000765 0.000000 0.031882 0.000000 0.001625
# 5 -0.000812 0.000812 0.000000 0.000000 0.031882 0.001530
# 6 0.000000 0.000000 0.000000 0.001625 0.001530 0.025011
#
#
# Mechanical properties :
#
#
# Convention : Reuss Voigt Hill
#
# Bulk Modulus (GPa) = 24.12175 41.91457 33.01816
# Shear Modulus (GPa) = 31.46643 36.42200 33.94421
#
# Velocity S-wave (km/s) = 3.75865 4.04380 3.90383
# Velocity P-wave (km/s) = 5.44670 6.37350 5.92824
#
# Compressibility (1/GPa) = 0.04145636
#
# Stress axis : x y z
#
# Youngs Moduli (GPa) = 108.74520 108.74520 32.79847
#
# Poissons Ratio (x) = 0.35990 0.00660
# Poissons Ratio (y) = 0.35990 0.00660
# Poissons Ratio (z) = 0.02190 0.02190
#
# Static dielectric constant tensor:
#      x y z
#    x 4.021370 0.000000 0.000000 
#    y 0.000000 4.021370 0.000000 
#    z 0.000000 0.000000 4.056450 
# 
# 
# High freq. dielectric constant tensor:
#      x y z
#    x 1.879280 0.000000 0.000000 
#    y 0.000000 1.879280 0.000000 
#    z 0.000000 0.000000 1.883920 
# 
# From -- ./inp_files/370.got.cif
#   From: 2010.03.12/outbox.cif.g09.slc.cpg/sg144_cif.got.tgz:370.got - 2010.04.03 13:34:42.
