data_PCOD8321825
_publ_section_title
;
Structure prediction by ZEFSAII (Michael W. Deem and Ramdas Pophale) SiO2 
 PCOD8321825
Probable space group: R -3
;
_chemical_formula_sum "Si O2"
_cell_formula_units_Z 48
_cell_length_a 30.000000
_cell_length_b 30.000000
_cell_length_c 9.000000
_cell_angle_alpha 90.000000
_cell_angle_beta 90.000000
_cell_angle_gamma 120.000000
_cell_volume 7014.805771
_symmetry_space_group_name_H-M "R -3"
_symmetry_group_IT_number 148
_symmetry_cell_setting 'hexagonal'
loop_
_space_group_symop_operation_xyz
x,y,z
-y,x-y,z
-x+y,-x,z
-x,-y,-z
y,-x+y,-z
x-y,x,-z
2/3+x,1/3+y,1/3+z
2/3-y,1/3+x-y,1/3+z
2/3-x+y,1/3-x,1/3+z
2/3-x,1/3-y,1/3-z
2/3+y,1/3-x+y,1/3-z
2/3+x-y,1/3+x,1/3-z
1/3+x,2/3+y,2/3+z
1/3-y,2/3+x-y,2/3+z
1/3-x+y,2/3-x,2/3+z
1/3-x,2/3-y,2/3-z
1/3+y,2/3-x+y,2/3-z
1/3+x-y,2/3+x,2/3-z
loop_
_atom_site_type_symbol
_atom_site_label
_atom_site_fract_x
_atom_site_fract_y
_atom_site_fract_z
Si Si1 0.311225 0.555679 0.641370
Si Si2 0.236360 0.359329 0.645741
Si Si3 0.456202 0.527771 0.254082
Si Si4 0.689696 0.685067 0.370382
Si Si5 0.368140 0.522690 0.077219
Si Si6 0.470567 0.404290 0.998791
Si Si7 0.512714 0.211727 0.665346
Si Si8 0.845166 0.052560 0.185482
O O1 0.268384 0.572559 0.620356
O O2 0.328076 0.547685 0.477735
O O3 0.288429 0.503385 0.737042
O O4 0.178414 0.312760 0.680996
O O5 0.265976 0.328588 0.625058
O O6 0.231587 0.381148 0.486752
O O7 0.264047 0.405333 0.766543
O O8 0.401174 0.501654 0.166736
O O9 0.502419 0.556512 0.136669
O O10 0.453861 0.567861 0.368801
O O11 0.663458 0.669291 0.538367
O O12 0.707333 0.744372 0.367774
O O13 0.333274 0.537062 0.183878
O O14 0.407838 0.576215 0.001086
O O15 0.333092 0.480215 0.951533
O O16 0.491493 0.364920 0.016713
#
# Coordination Sequence:
#
# PCOD8321825 Si02
#       8
#    18  18  18  18  18  18  18  18
#     4  12  26  44  67  97 137 175 220 279 346 405
#     4  11  24  41  64 101 133 173 231 281 347 407
#     4  11  24  42  71  96 135 175 227 286 339 413
#     4  10  24  42  65  95 135 182 226 282 351 420
#     4  11  22  42  67  98 129 180 225 276 335 409
#     4  10  21  42  66  92 132 175 224 276 343 410
#     4  11  22  41  68  95 130 170 225 274 333 401
#     4  12  24  42  66 101 134 175 230 278 343 412
#
# _framework density 6.84267
#
# number of rings (size 3 to 8) (size 9 to 14) (size 15 to 20)
#    0.000    1.000    5.000    2.375    1.750    1.000 
#    0.000    0.000    0.000    1.000    0.000    0.000 
#    0.000    0.000    0.000    0.000    0.000    0.000 
#
# Total GULP energy -594627.523795 kJ/mol
# GULP energy per Si atom -12388.073412 kJ/mol
# Density = 0.682710 g / cm^3
# Si number density = 6.842670 Si / 1000 Ang^3
#
#
#
# Elastic Constant Matrix: (Units=GPa)
#
#
# Indices 1 2 3 4 5 6 
#
# 1 94.3607 40.7311 38.8654 -3.2089 -3.2798 -0.0020
# 2 40.7311 94.4447 39.0142 3.2446 3.3016 0.0002
# 3 38.8654 39.0142 141.7223 0.0689 0.0968 -0.0176
# 4 -3.2089 3.2446 0.0689 36.2439 0.0233 3.2360
# 5 -3.2798 3.3016 0.0968 0.0233 36.3286 -3.2316
# 6 -0.0020 0.0002 -0.0176 3.2360 -3.2316 26.8291
#
#
#
# Elastic Compliance Matrix: (Units=1/GPa)
#
#
# Indices 1 2 3 4 5 6 
#
# 1 0.013920 -0.005127 -0.002408 0.001695 0.001728 0.000003
# 2 -0.005127 0.013919 -0.002424 -0.001694 -0.001721 -0.000005
# 3 -0.002408 -0.002424 0.008384 -0.000013 -0.000019 0.000005
# 4 0.001695 -0.001694 -0.000013 0.028196 -0.000014 -0.003402
# 5 0.001728 -0.001721 -0.000019 -0.000014 0.028141 0.003391
# 6 0.000003 -0.000005 0.000005 -0.003402 0.003391 0.038092
#
#
# Mechanical properties :
#
#
# Convention : Reuss Voigt Hill
#
# Bulk Modulus (GPa) = 61.33052 63.08324 62.20688
# Shear Modulus (GPa) = 32.05030 34.00812 33.02921
#
# Velocity S-wave (km/s) = 3.95561 4.07464 4.01556
# Velocity P-wave (km/s) = 7.12768 7.27557 7.20200
#
# Compressibility (1/GPa) = 0.01630510
#
# Stress axis : x y z
#
# Youngs Moduli (GPa) = 71.83705 71.84422 119.28029
#
# Poissons Ratio (x) = 0.36837 0.28723
# Poissons Ratio (y) = 0.36834 0.28909
# Poissons Ratio (z) = 0.17298 0.17412
#
# Static dielectric constant tensor:
#      x y z
#    x 3.775860 0.000000 -0.000430 
#    y 0.000000 3.776040 0.000010 
#    z -0.000430 0.000010 4.363900 
# 
# 
# High freq. dielectric constant tensor:
#      x y z
#    x 1.805880 0.000000 -0.000030 
#    y 0.000000 1.805900 0.000000 
#    z -0.000030 0.000000 1.831750 
# 
# From -- ./inp_files/1128.got.cif
#   From: 2010.03.12/outbox.ucp.g09.slc.cvg/sg148_1_cif.got.tgz:1128.got - 2010.05.04 20:34:32.
