data_PCOD8321170
_publ_section_title
;
Structure prediction by ZEFSAII (Michael W. Deem and Ramdas Pophale) SiO2 
 PCOD8321170
Probable space group: I 41/A C D
;
_chemical_formula_sum "Si O2"
_cell_formula_units_Z 160
_cell_length_a 20.119362
_cell_length_b 20.119362
_cell_length_c 17.728810
_cell_angle_alpha 90.000000
_cell_angle_beta 90.000000
_cell_angle_gamma 90.000000
_cell_volume 7176.422436
_symmetry_space_group_name_H-M "I 41/A C D"
_symmetry_group_IT_number 142
_space_group.IT_coordinate_system_code '2'
_symmetry_cell_setting 'tetragonal'
loop_
_space_group_symop_operation_xyz
x,y,z
1/4-y,3/4+x,1/4+z
-x,1/2-y,z
1/4+y,1/4-x,3/4+z
x,-y,1/2-z
1/2-x,y,-z
3/4+y,1/4+x,1/4-z
1/4-y,1/4-x,1/4-z
-x,-y,-z
3/4+y,1/4-x,3/4-z
x,1/2+y,-z
3/4-y,3/4+x,1/4-z
-x,y,1/2+z
1/2+x,-y,z
1/4-y,3/4-x,3/4+z
3/4+y,3/4+x,3/4+z
1/2+x,1/2+y,1/2+z
3/4-y,1/4+x,3/4+z
1/2-x,-y,1/2+z
3/4+y,3/4-x,1/4+z
1/2+x,1/2-y,-z
-x,1/2+y,1/2-z
1/4+y,3/4+x,3/4-z
3/4-y,3/4-x,3/4-z
1/2-x,1/2-y,1/2-z
1/4+y,3/4-x,1/4-z
1/2+x,y,1/2-z
1/4-y,1/4+x,3/4-z
1/2-x,1/2+y,z
x,1/2-y,1/2+z
3/4-y,1/4-x,1/4+z
1/4+y,1/4+x,1/4+z
loop_
_atom_site_type_symbol
_atom_site_label
_atom_site_fract_x
_atom_site_fract_y
_atom_site_fract_z
Si Si1 0.211594 0.431091 0.710103
Si Si2 0.472299 0.645724 0.393177
Si Si3 0.191221 0.307719 0.062486
Si Si4 0.173871 0.176931 0.995907
Si Si5 0.407107 0.924897 0.023458
O O1 0.230827 0.500000 0.750000
O O2 0.201855 0.451855 0.625000
O O3 0.144873 0.391139 0.737423
O O4 0.271303 0.379008 0.720916
O O5 0.420208 0.703766 0.372767
O O6 0.454393 0.586769 0.337360
O O7 0.464325 0.614837 0.476832
O O8 0.211348 0.313592 0.151372
O O9 0.144631 0.368860 0.045993
O O10 0.250000 0.307997 0.000000
O O11 0.153921 0.236141 0.054209
O O12 0.250000 0.157422 0.000000
#
# Coordination Sequence:
#
# PCOD8321170 Si02
#       5
#    32  32  32  32  32
#     4  11  25  41  66 101 142 180 225 285 360 425
#     4  11  24  45  71  98 135 187 240 295 355 423
#     4  10  23  41  66 101 141 175 228 290 341 423
#     4  10  22  43  65  95 142 177 219 293 345 415
#     4  11  23  41  71 103 130 186 236 284 356 417
#
# _framework density 22.295231999999999
#
# number of rings (size 3 to 8) (size 9 to 14) (size 15 to 20)
#    0.000    1.400    2.000    3.000    8.400    1.600 
#    0.000    6.000    0.000    0.000    0.000    0.000 
#    0.000    0.000    0.000    0.000    0.000    0.000 
#
# Total GULP energy -991145.438705 kJ/mol
# GULP energy per Si atom -12389.317984 kJ/mol
# Density = 2.224449 g / cm^3
# Si number density = 22.295232 Si / 1000 Ang^3
#
#
#
# Elastic Constant Matrix: (Units=GPa)
#
#
# Indices 1 2 3 4 5 6 
#
# 1 91.4512 15.2438 30.0423 0.0000 0.0000 0.0000
# 2 15.2438 91.4512 30.0423 0.0000 0.0000 0.0000
# 3 30.0423 30.0423 154.8684 0.0000 0.0000 0.0000
# 4 0.0000 0.0000 0.0000 3.9672 0.0000 0.0000
# 5 0.0000 0.0000 0.0000 0.0000 3.9672 0.0000
# 6 0.0000 0.0000 0.0000 0.0000 0.0000 -34.0321
#
#
#
# Elastic Compliance Matrix: (Units=1/GPa)
#
#
# Indices 1 2 3 4 5 6 
#
# 1 0.011822 -0.001300 -0.002041 0.000000 0.000000 0.000000
# 2 -0.001300 0.011822 -0.002041 0.000000 0.000000 0.000000
# 3 -0.002041 -0.002041 0.007249 0.000000 0.000000 0.000000
# 4 0.000000 0.000000 0.000000 0.252067 0.000000 0.000000
# 5 0.000000 0.000000 0.000000 0.000000 0.252067 0.000000
# 6 0.000000 0.000000 0.000000 0.000000 0.000000 -0.029384
#
#
# Mechanical properties :
#
#
# Convention : Reuss Voigt Hill
#
# Bulk Modulus (GPa) = 49.68095 54.26975 51.97535
# Shear Modulus (GPa) = 9.55810 12.27661 10.91736
#
# Velocity S-wave (km/s) = 2.07277 2.34911 2.21525
# Velocity P-wave (km/s) = 5.29718 5.63490 5.46864
#
# Compressibility (1/GPa) = 0.02012844
#
# Stress axis : x y z
#
# Youngs Moduli (GPa) = 84.58792 84.58792 137.95020
#
# Poissons Ratio (x) = 0.10997 0.28157
# Poissons Ratio (y) = 0.10997 0.28157
# Poissons Ratio (z) = 0.17265 0.17265
#
# Static dielectric constant tensor:
#      x y z
#    x 3.857290 0.000000 0.000000 
#    y 0.000000 3.857290 0.000000 
#    z 0.000000 0.000000 2.941770 
# 
# 
# High freq. dielectric constant tensor:
#      x y z
#    x 1.877790 0.000000 0.000000 
#    y 0.000000 1.877790 0.000000 
#    z 0.000000 0.000000 1.885990 
# 
# From -- ./inp_files/7361.got.cif
#   From: 2010.03.12/outbox.cif.g09.slc.cpg/sg142_4_cif.got.tgz:7361.got - 2010.04.03 13:27:16.
