data_PCOD8321997
_publ_section_title
;
Structure prediction by ZEFSAII (Michael W. Deem and Ramdas Pophale) SiO2 
 PCOD8321997
Probable space group: P 31 1 2
;
_chemical_formula_sum "Si O2"
_cell_formula_units_Z 45
_cell_length_a 12.518994
_cell_length_b 12.518994
_cell_length_c 18.050689
_cell_angle_alpha 90.000000
_cell_angle_beta 90.000000
_cell_angle_gamma 120.000000
_cell_volume 2449.984168
_symmetry_space_group_name_H-M "P 31 1 2"
_symmetry_group_IT_number 151
_symmetry_cell_setting 'hexagonal'
loop_
_space_group_symop_operation_xyz
x,y,z
-y,x-y,1/3+z
-x+y,-x,2/3+z
-y,-x,2/3-z
-x+y,y,1/3-z
x,x-y,-z
loop_
_atom_site_type_symbol
_atom_site_label
_atom_site_fract_x
_atom_site_fract_y
_atom_site_fract_z
Si Si1 0.553544 0.806890 0.795414
Si Si2 0.420248 0.162035 0.314865
Si Si3 0.561718 0.204785 0.806433
Si Si4 0.116749 0.410880 0.614336
Si Si5 0.140342 0.485322 0.320138
Si Si6 0.364192 0.092258 0.558339
Si Si7 0.640319 0.504445 0.627923
Si Si8 0.278606 0.557212 0.166667
O O1 0.572631 0.733722 0.862804
O O2 0.563472 0.759982 0.715046
O O3 0.417575 0.786011 0.804038
O O4 0.660761 0.948825 0.795514
O O5 0.472611 0.261583 0.251950
O O6 0.334735 0.199054 0.363490
O O7 0.530864 0.168013 0.363769
O O8 0.345333 0.028161 0.278366
O O9 0.658431 0.341570 0.833334
O O10 0.625159 0.132461 0.772861
O O11 0.472784 0.130292 0.873997
O O12 0.173776 0.347551 0.666667
O O13 0.159702 0.541698 0.655335
O O14 0.197455 0.483363 0.239224
O O15 0.995399 0.390445 0.325236
O O16 0.329796 0.164898 0.500000
O O17 0.763426 0.526851 0.666667
#
# Coordination Sequence:
#
# PCOD8321997 Si02
#       8
#     6   6   6   6   6   6   6   3
#     4  12  23  39  64  90 124 163 211 256 303 379
#     4  11  22  35  60  90 120 158 203 243 304 374
#     4  11  20  33  55  89 123 154 183 238 301 371
#     4  11  21  39  60  89 122 158 211 257 298 357
#     4  11  24  38  61  88 125 165 202 252 311 372
#     4  11  22  38  60  90 125 159 199 252 317 361
#     4  11  21  37  58  86 126 157 194 249 302 364
#     4  12  22  40  58  96 128 164 200 258 318 368
#
# _framework density 18.367467000000001
#
# number of rings (size 3 to 8) (size 9 to 14) (size 15 to 20)
#    0.000    0.800    6.667    2.400    1.867    3.200 
#    0.000    0.000    0.000    2.400    0.000    0.000 
#    0.000    0.000    0.000    0.000    0.000    0.000 
#
# Total GULP energy -557807.921492 kJ/mol
# GULP energy per Si atom -12395.731589 kJ/mol
# Density = 1.832566 g / cm^3
# Si number density = 18.367467 Si / 1000 Ang^3
#
#
#
# Elastic Constant Matrix: (Units=GPa)
#
#
# Indices 1 2 3 4 5 6 
#
# 1 67.0978 32.3184 41.1314 0.0010 -2.9697 0.0000
# 2 32.3184 67.0978 41.1314 -0.0010 2.9697 0.0000
# 3 41.1314 41.1314 125.9797 0.0000 0.0000 0.0000
# 4 0.0010 -0.0010 0.0000 27.6899 0.0000 2.9697
# 5 -2.9697 2.9697 0.0000 0.0000 27.6899 0.0010
# 6 0.0000 0.0000 0.0000 2.9697 0.0010 17.3897
#
#
#
# Elastic Compliance Matrix: (Units=1/GPa)
#
#
# Indices 1 2 3 4 5 6 
#
# 1 0.021536 -0.007754 -0.004500 -0.000001 0.003141 0.000000
# 2 -0.007754 0.021536 -0.004500 0.000001 -0.003141 0.000000
# 3 -0.004500 -0.004500 0.010876 0.000000 0.000000 0.000000
# 4 -0.000001 0.000001 0.000000 0.036788 0.000000 -0.006283
# 5 0.003141 -0.003141 0.000000 0.000000 0.036788 -0.000002
# 6 0.000000 0.000000 0.000000 -0.006283 -0.000002 0.058578
#
#
# Mechanical properties :
#
#
# Convention : Reuss Voigt Hill
#
# Bulk Modulus (GPa) = 48.92072 54.37086 51.64579
# Shear Modulus (GPa) = 22.08273 24.26017 23.17145
#
# Velocity S-wave (km/s) = 3.47114 3.63826 3.55568
# Velocity P-wave (km/s) = 6.53891 6.87860 6.71091
#
# Compressibility (1/GPa) = 0.02044124
#
# Stress axis : x y z
#
# Youngs Moduli (GPa) = 46.43474 46.43474 91.94505
#
# Poissons Ratio (x) = 0.36003 0.41373
# Poissons Ratio (y) = 0.36003 0.41373
# Poissons Ratio (z) = 0.20894 0.20894
#
# Static dielectric constant tensor:
#      x y z
#    x 3.284290 0.000000 0.000000 
#    y 0.000000 3.284290 0.000000 
#    z 0.000000 0.000000 2.514840 
# 
# 
# High freq. dielectric constant tensor:
#      x y z
#    x 1.692960 0.000000 0.000000 
#    y 0.000000 1.692960 0.000000 
#    z 0.000000 0.000000 1.735050 
# 
# From -- ./inp_files/3590.got.cif
#   From: 2010.03.12/outbox.cif.g09.slc.cpg/sg151_2_cif.got.tgz:3590.got - 2010.04.03 13:42:29.
