data_PCOD8321069
_publ_section_title
;
Structure prediction by ZEFSAII (Michael W. Deem and Ramdas Pophale) SiO2 
 PCOD8321069
Probable space group: I 41/A C D
;
_chemical_formula_sum "Si O2"
_cell_formula_units_Z 160
_cell_length_a 20.505800
_cell_length_b 20.505800
_cell_length_c 16.797726
_cell_angle_alpha 90.000000
_cell_angle_beta 90.000000
_cell_angle_gamma 90.000000
_cell_volume 7063.239416
_symmetry_space_group_name_H-M "I 41/A C D"
_symmetry_group_IT_number 142
_space_group.IT_coordinate_system_code '2'
_symmetry_cell_setting 'tetragonal'
loop_
_space_group_symop_operation_xyz
x,y,z
1/4-y,3/4+x,1/4+z
-x,1/2-y,z
1/4+y,1/4-x,3/4+z
x,-y,1/2-z
1/2-x,y,-z
3/4+y,1/4+x,1/4-z
1/4-y,1/4-x,1/4-z
-x,-y,-z
3/4+y,1/4-x,3/4-z
x,1/2+y,-z
3/4-y,3/4+x,1/4-z
-x,y,1/2+z
1/2+x,-y,z
1/4-y,3/4-x,3/4+z
3/4+y,3/4+x,3/4+z
1/2+x,1/2+y,1/2+z
3/4-y,1/4+x,3/4+z
1/2-x,-y,1/2+z
3/4+y,3/4-x,1/4+z
1/2+x,1/2-y,-z
-x,1/2+y,1/2-z
1/4+y,3/4+x,3/4-z
3/4-y,3/4-x,3/4-z
1/2-x,1/2-y,1/2-z
1/4+y,3/4-x,1/4-z
1/2+x,y,1/2-z
1/4-y,1/4+x,3/4-z
1/2-x,1/2+y,z
x,1/2-y,1/2+z
3/4-y,1/4-x,1/4+z
1/4+y,1/4+x,1/4+z
loop_
_atom_site_type_symbol
_atom_site_label
_atom_site_fract_x
_atom_site_fract_y
_atom_site_fract_z
Si Si1 0.408757 0.083049 0.314437
Si Si2 0.869972 0.438675 0.855668
Si Si3 0.816647 0.244754 0.797644
Si Si4 0.736805 0.150661 0.593590
Si Si5 0.036273 0.611433 0.890816
O O1 0.388484 0.138484 0.375000
O O2 0.385442 0.099987 0.225962
O O3 0.487544 0.084518 0.321434
O O4 0.375839 0.015551 0.341307
O O5 0.922889 0.418274 0.920284
O O6 0.797889 0.419020 0.887815
O O7 0.750000 0.250000 0.750000
O O8 0.815641 0.296080 0.870827
O O9 0.869022 0.252162 0.725591
O O10 0.750000 0.159586 0.500000
O O11 0.805250 0.157139 0.641172
O O12 0.068373 0.681628 0.875000
#
# Coordination Sequence:
#
# PCOD8321069 Si02
#       5
#    32  32  32  32  32
#     4  11  24  44  66  95 137 184 231 281 359 428
#     4  11  23  40  68  95 133 184 224 288 354 425
#     4  10  20  38  65  94 131 173 226 279 345 412
#     4  11  22  40  66  96 135 176 234 286 354 416
#     4  11  23  41  70  98 135 177 233 293 351 425
#
# _framework density 22.652494999999998
#
# number of rings (size 3 to 8) (size 9 to 14) (size 15 to 20)
#    0.000    1.200    4.000    3.600    2.800    1.200 
#    3.600    0.000    0.000    3.000    0.000    0.000 
#    0.000    0.000    0.000    0.000    0.000    0.000 
#
# Total GULP energy -991128.363825 kJ/mol
# GULP energy per Si atom -12389.104548 kJ/mol
# Density = 2.260094 g / cm^3
# Si number density = 22.652495 Si / 1000 Ang^3
#
#
#
# Elastic Constant Matrix: (Units=GPa)
#
#
# Indices 1 2 3 4 5 6 
#
# 1 73.1525 50.6791 40.2079 0.0000 0.0000 0.0000
# 2 50.6791 73.1486 40.2082 0.0000 0.0000 0.0000
# 3 40.2079 40.2082 166.8625 0.0000 0.0000 0.0000
# 4 0.0000 0.0000 0.0000 37.0958 0.0000 0.0000
# 5 0.0000 0.0000 0.0000 0.0000 37.0959 0.0000
# 6 0.0000 0.0000 0.0000 0.0000 0.0000 43.9948
#
#
#
# Elastic Compliance Matrix: (Units=1/GPa)
#
#
# Indices 1 2 3 4 5 6 
#
# 1 0.027036 -0.017464 -0.002307 0.000000 0.000000 0.000000
# 2 -0.017464 0.027038 -0.002307 0.000000 0.000000 0.000000
# 3 -0.002307 -0.002307 0.007105 0.000000 0.000000 0.000000
# 4 0.000000 0.000000 0.000000 0.026957 0.000000 0.000000
# 5 0.000000 0.000000 0.000000 0.000000 0.026957 0.000000
# 6 0.000000 0.000000 0.000000 0.000000 0.000000 0.022730
#
#
# Mechanical properties :
#
#
# Convention : Reuss Voigt Hill
#
# Bulk Modulus (GPa) = 58.73890 63.92823 61.33356
# Shear Modulus (GPa) = 26.64486 35.77520 31.21003
#
# Velocity S-wave (km/s) = 3.43336 3.97836 3.71587
# Velocity P-wave (km/s) = 6.45787 7.02749 6.74869
#
# Compressibility (1/GPa) = 0.01702449
#
# Stress axis : x y z
#
# Youngs Moduli (GPa) = 36.98708 36.98473 140.75105
#
# Poissons Ratio (x) = 0.64589 0.32467
# Poissons Ratio (y) = 0.64593 0.32474
# Poissons Ratio (z) = 0.08532 0.08533
#
# Static dielectric constant tensor:
#      x y z
#    x 3.993300 0.000000 0.000000 
#    y 0.000000 3.993280 0.000000 
#    z 0.000000 0.000000 4.110010 
# 
# 
# High freq. dielectric constant tensor:
#      x y z
#    x 1.872290 0.000000 0.000000 
#    y 0.000000 1.872290 0.000000 
#    z 0.000000 0.000000 1.912280 
# 
# From -- ./inp_files/7372.got.cif
#   From: 2010.03.12/outbox.cif.g09.slc.cpg/sg142_4_cif.got.tgz:7372.got - 2010.04.03 13:27:16.
