data_PCOD8321904
_publ_section_title
;
Structure prediction by ZEFSAII (Michael W. Deem and Ramdas Pophale) SiO2 
 PCOD8321904
Probable space group: P 3 2 1
;
_chemical_formula_sum "Si O2"
_cell_formula_units_Z 13
_cell_length_a 7.957851
_cell_length_b 7.957851
_cell_length_c 8.389843
_cell_angle_alpha 90.000000
_cell_angle_beta 90.000000
_cell_angle_gamma 120.000000
_cell_volume 460.125256
_symmetry_space_group_name_H-M "P 3 2 1"
_symmetry_group_IT_number 150
_symmetry_cell_setting 'hexagonal'
loop_
_space_group_symop_operation_xyz
x,y,z
-y,x-y,z
-x+y,-x,z
x-y,-y,-z
-x,-x+y,-z
y,x,-z
loop_
_atom_site_type_symbol
_atom_site_label
_atom_site_fract_x
_atom_site_fract_y
_atom_site_fract_z
Si Si1 0.888784 0.131732 0.821781
Si Si2 0.000000 0.302178 0.500000
Si Si3 0.333333 0.666667 0.038833
Si Si4 0.333333 0.666665 0.663600
O O1 0.802089 0.254298 0.895347
O O2 0.120943 0.221506 0.870570
O O3 0.876348 0.131197 0.628013
O O4 0.133097 0.489451 0.605266
O O5 0.333334 0.666667 0.852397
#
# Coordination Sequence:
#
# PCOD8321904 Si02
#       4
#     6   3   2   2
#     4  10  26  53  94 134 177 241 307 378 472 557
#     4  12  26  56  86 126 182 236 312 376 454 560
#     4  12  28  65  82 138 202 224 313 402 463 554
#     4  12  34  53  94 126 181 254 301 393 472 551
#
# _framework density 28.253176
#
# number of rings (size 3 to 8) (size 9 to 14) (size 15 to 20)
#    0.923    0.000    0.000    4.154   12.923    1.846 
#   11.077    2.308    0.000    0.000    0.000    0.000 
#    0.000    0.000    0.000    0.000    0.000    0.000 
#
# Total GULP energy -161168.881881 kJ/mol
# GULP energy per Si atom -12397.606299 kJ/mol
# Density = 2.818887 g / cm^3
# Si number density = 28.253176 Si / 1000 Ang^3
#
#
#
# Elastic Constant Matrix: (Units=GPa)
#
#
# Indices 1 2 3 4 5 6 
#
# 1 162.3643 80.6234 100.6731 18.7327 0.0000 0.0000
# 2 80.6234 162.3646 100.6747 -18.7319 0.0000 0.0000
# 3 100.6731 100.6747 146.9156 -0.0003 0.0000 0.0000
# 4 18.7327 -18.7319 -0.0003 52.1034 0.0000 0.0000
# 5 0.0000 0.0000 0.0000 0.0000 52.1047 18.7315
# 6 0.0000 0.0000 0.0000 0.0000 18.7315 40.8719
#
#
#
# Elastic Compliance Matrix: (Units=1/GPa)
#
#
# Indices 1 2 3 4 5 6 
#
# 1 0.012085 -0.002562 -0.006525 -0.005266 0.000000 0.000000
# 2 -0.002562 0.012085 -0.006525 0.005266 0.000000 0.000000
# 3 -0.006525 -0.006525 0.015750 0.000000 0.000000 0.000000
# 4 -0.005266 0.005266 0.000000 0.022979 0.000000 0.000000
# 5 0.000000 0.000000 0.000000 0.000000 0.022978 -0.010531
# 6 0.000000 0.000000 0.000000 0.000000 -0.010531 0.029293
#
#
# Mechanical properties :
#
#
# Convention : Reuss Voigt Hill
#
# Bulk Modulus (GPa) = 115.03014 115.06522 115.04768
# Shear Modulus (GPa) = 33.49115 41.66089 37.57602
#
# Velocity S-wave (km/s) = 3.44669 3.84416 3.65084
# Velocity P-wave (km/s) = 7.52609 7.77935 7.65377
#
# Compressibility (1/GPa) = 0.00869337
#
# Stress axis : x y z
#
# Youngs Moduli (GPa) = 82.74812 82.74719 63.49388
#
# Poissons Ratio (x) = 0.21203 0.41431
# Poissons Ratio (y) = 0.21204 0.41432
# Poissons Ratio (z) = 0.53995 0.53996
#
# Static dielectric constant tensor:
#      x y z
#    x 5.302840 0.000000 0.000000 
#    y 0.000000 5.302870 0.000010 
#    z 0.000000 0.000010 6.300040 
# 
# 
# High freq. dielectric constant tensor:
#      x y z
#    x 2.141710 0.000000 0.000000 
#    y 0.000000 2.141710 0.000000 
#    z 0.000000 0.000000 2.204030 
# 
# From -- ./inp_files/349.got.cif
#   From: 2010.03.12/outbox.cif.g09.slc.cpg/sg150_cif.got.tgz:349.got - 2010.04.03 13:41:37.
