data_PCOD8321005
_publ_section_title
;
Structure prediction by ZEFSAII (Michael W. Deem and Ramdas Pophale) SiO2 
 PCOD8321005
Probable space group: I 41/A C D
;
_chemical_formula_sum "Si O2"
_cell_formula_units_Z 240
_cell_length_a 21.089551
_cell_length_b 21.089551
_cell_length_c 25.955783
_cell_angle_alpha 90.000000
_cell_angle_beta 90.000000
_cell_angle_gamma 90.000000
_cell_volume 11544.331838
_symmetry_space_group_name_H-M "I 41/A C D"
_symmetry_group_IT_number 142
_space_group.IT_coordinate_system_code '2'
_symmetry_cell_setting 'tetragonal'
loop_
_space_group_symop_operation_xyz
x,y,z
1/4-y,3/4+x,1/4+z
-x,1/2-y,z
1/4+y,1/4-x,3/4+z
x,-y,1/2-z
1/2-x,y,-z
3/4+y,1/4+x,1/4-z
1/4-y,1/4-x,1/4-z
-x,-y,-z
3/4+y,1/4-x,3/4-z
x,1/2+y,-z
3/4-y,3/4+x,1/4-z
-x,y,1/2+z
1/2+x,-y,z
1/4-y,3/4-x,3/4+z
3/4+y,3/4+x,3/4+z
1/2+x,1/2+y,1/2+z
3/4-y,1/4+x,3/4+z
1/2-x,-y,1/2+z
3/4+y,3/4-x,1/4+z
1/2+x,1/2-y,-z
-x,1/2+y,1/2-z
1/4+y,3/4+x,3/4-z
3/4-y,3/4-x,3/4-z
1/2-x,1/2-y,1/2-z
1/4+y,3/4-x,1/4-z
1/2+x,y,1/2-z
1/4-y,1/4+x,3/4-z
1/2-x,1/2+y,z
x,1/2-y,1/2+z
3/4-y,1/4-x,1/4+z
1/4+y,1/4+x,1/4+z
loop_
_atom_site_type_symbol
_atom_site_label
_atom_site_fract_x
_atom_site_fract_y
_atom_site_fract_z
Si Si1 0.000000 0.250000 0.282167
Si Si2 0.379408 0.810000 0.920246
Si Si3 0.041895 0.371714 0.514722
Si Si4 0.791502 0.125209 0.164771
Si Si5 0.180934 0.836758 0.725515
Si Si6 0.626663 0.903088 0.926113
Si Si7 0.525420 0.460517 0.904365
Si Si8 0.044942 0.528408 0.694197
O O1 0.033446 0.300852 0.318785
O O2 0.046428 0.210140 0.244459
O O3 0.372785 0.881404 0.941711
O O4 0.371704 0.817193 0.858682
O O5 0.323776 0.766402 0.943213
O O6 0.098963 0.405154 0.483852
O O7 0.048300 0.391227 0.575120
O O8 0.975236 0.398745 0.497388
O O9 0.840800 0.090800 0.125000
O O10 0.806172 0.116563 0.225662
O O11 0.720890 0.097055 0.156541
O O12 0.784293 0.199765 0.155244
O O13 0.239734 0.812421 0.691351
O O14 0.684515 0.855528 0.924093
O O15 0.541615 0.469119 0.844637
O O16 0.054956 0.500000 0.750000
#
# Coordination Sequence:
#
# PCOD8321005 Si02
#       8
#    16  32  32  32  32  32  32  32
#     4  10  22  35  64 113 134 158 221 298 343 402
#     4  11  23  36  68 102 135 164 221 289 351 398
#     4  10  19  35  64  94 137 171 219 269 342 417
#     4  11  23  39  67  97 132 172 232 285 324 402
#     4  10  19  37  65 102 127 172 221 273 341 419
#     4  12  22  41  65  98 133 179 226 278 341 414
#     4  11  20  43  67  95 132 186 220 272 351 426
#     4  12  27  43  66  99 143 178 226 288 354 416
#
# _framework density 20.789422999999999
#
# number of rings (size 3 to 8) (size 9 to 14) (size 15 to 20)
#    0.000    1.067    6.667    0.800    3.733    0.533 
#    0.000    3.333    0.000    0.800    0.000    0.000 
#    0.000    0.000    0.000    0.000    0.000    0.000 
#
# Total GULP energy -1486919.147974 kJ/mol
# GULP energy per Si atom -12390.992900 kJ/mol
# Density = 2.074211 g / cm^3
# Si number density = 20.789423 Si / 1000 Ang^3
#
#
#
# Elastic Constant Matrix: (Units=GPa)
#
#
# Indices 1 2 3 4 5 6 
#
# 1 65.9279 40.2610 33.4759 0.0000 0.0000 0.0000
# 2 40.2610 65.9279 33.4759 0.0000 0.0000 0.0000
# 3 33.4759 33.4759 99.4338 0.0000 0.0000 0.0000
# 4 0.0000 0.0000 0.0000 30.2408 0.0000 0.0000
# 5 0.0000 0.0000 0.0000 0.0000 30.2408 0.0000
# 6 0.0000 0.0000 0.0000 0.0000 0.0000 -8.9248
#
#
#
# Elastic Compliance Matrix: (Units=1/GPa)
#
#
# Indices 1 2 3 4 5 6 
#
# 1 0.025458 -0.013503 -0.004025 0.000000 0.000000 0.000000
# 2 -0.013503 0.025458 -0.004025 0.000000 0.000000 0.000000
# 3 -0.004025 -0.004025 0.012767 0.000000 0.000000 0.000000
# 4 0.000000 0.000000 0.000000 0.033068 0.000000 0.000000
# 5 0.000000 0.000000 0.000000 0.000000 0.033068 0.000000
# 6 0.000000 0.000000 0.000000 0.000000 0.000000 -0.112048
#
#
# Mechanical properties :
#
#
# Convention : Reuss Voigt Hill
#
# Bulk Modulus (GPa) = 48.59686 49.52392 49.06039
# Shear Modulus (GPa) = 73.81755 18.58313 46.20034
#
# Velocity S-wave (km/s) = 5.96526 2.99302 4.71924
# Velocity P-wave (km/s) = 8.41857 5.98478 7.30376
#
# Compressibility (1/GPa) = 0.02057746
#
# Stress axis : x y z
#
# Youngs Moduli (GPa) = 39.28079 39.28079 78.32732
#
# Poissons Ratio (x) = 0.53041 0.31525
# Poissons Ratio (y) = 0.53041 0.31525
# Poissons Ratio (z) = 0.15810 0.15810
#
# Static dielectric constant tensor:
#      x y z
#    x 3.985930 0.000000 0.000000 
#    y 0.000000 3.985930 0.000000 
#    z 0.000000 0.000000 4.157110 
# 
# 
# High freq. dielectric constant tensor:
#      x y z
#    x 1.802450 0.000000 0.000000 
#    y 0.000000 1.802450 0.000000 
#    z 0.000000 0.000000 1.814350 
# 
# From -- ./inp_files/11683.got.cif
#   From: 2010.03.12/outbox.cif.g09.slc.cpg/sg142_6_cif.got.tgz:11683.got - 2010.04.03 13:27:16.
