data_PCOD8321850
_publ_section_title
;
Structure prediction by ZEFSAII (Michael W. Deem and Ramdas Pophale) SiO2 
 PCOD8321850
Probable space group: P 3 1 2
;
_chemical_formula_sum "Si O2"
_cell_formula_units_Z 48
_cell_length_a 12.376221
_cell_length_b 12.376221
_cell_length_c 19.745929
_cell_angle_alpha 90.000000
_cell_angle_beta 90.000000
_cell_angle_gamma 120.000000
_cell_volume 2619.294401
_symmetry_space_group_name_H-M "P 3 1 2"
_symmetry_group_IT_number 149
_symmetry_cell_setting 'hexagonal'
loop_
_space_group_symop_operation_xyz
x,y,z
-y,x-y,z
-x+y,-x,z
-y,-x,-z
-x+y,y,-z
x,x-y,-z
loop_
_atom_site_type_symbol
_atom_site_label
_atom_site_fract_x
_atom_site_fract_y
_atom_site_fract_z
Si Si1 0.335869 0.912673 0.989944
Si Si2 0.744604 0.760299 0.240083
Si Si3 0.427447 0.080605 0.865292
Si Si4 0.912674 0.576805 0.510056
Si Si5 0.255396 0.239701 0.259916
Si Si6 0.908208 0.319328 0.114179
Si Si7 0.346842 0.919395 0.365292
Si Si8 0.319328 0.411120 0.385820
O O1 0.372445 0.024860 0.042044
O O2 0.195144 0.804857 0.000000
O O3 0.429099 0.858197 0.000000
O O4 0.346762 0.964158 0.914369
O O5 0.869318 0.768065 0.268509
O O6 0.707879 0.697653 0.166897
O O7 0.631700 0.679814 0.291021
O O8 0.768061 0.898746 0.231489
O O9 0.368302 0.048117 0.791021
O O10 0.567690 0.108114 0.858796
O O11 0.428799 0.201126 0.895602
O O12 0.804857 0.609713 0.500000
O O13 0.858199 0.429100 0.500000
O O14 0.964160 0.617398 0.585630
O O15 0.024861 0.652416 0.457955
O O16 0.292118 0.302345 0.333102
O O17 0.459578 0.891890 0.358794
O O18 0.227674 0.798872 0.395600
#
# Coordination Sequence:
#
# PCOD8321850 Si02
#       8
#     6   6   6   6   6   6   6   6
#     4  10  20  34  52  74 100 130 164 202 246 296
#     4  10  20  34  52  74 102 136 172 210 252 300
#     4  10  20  34  53  76 102 132 167 208 253 300
#     4  10  20  34  52  74 100 130 164 202 246 296
#     4  10  20  34  52  74 102 136 172 210 252 300
#     4  10  20  34  53  76 102 132 167 208 253 300
#     4  10  20  34  53  76 102 132 167 208 253 300
#     4  10  20  34  53  76 102 132 167 208 253 300
#
# _framework density 18.325547
#
# number of rings (size 3 to 8) (size 9 to 14) (size 15 to 20)
#    0.000    2.000    0.000    4.000    0.000    0.000 
#    0.000    2.500    0.000   23.000    0.000    0.000 
#    0.000    0.000    0.000    0.000    0.000    0.000 
#
# Total GULP energy -595441.611790 kJ/mol
# GULP energy per Si atom -12405.033579 kJ/mol
# Density = 1.828384 g / cm^3
# Si number density = 18.325547 Si / 1000 Ang^3
#
#
#
# Elastic Constant Matrix: (Units=GPa)
#
#
# Indices 1 2 3 4 5 6 
#
# 1 65.1644 37.8702 -2.5958 0.0002 -6.9898 0.0000
# 2 37.8702 65.1644 -2.5958 -0.0002 6.9898 0.0000
# 3 -2.5958 -2.5958 28.6377 0.0000 0.0000 0.0000
# 4 0.0002 -0.0002 0.0000 13.9861 0.0000 6.9898
# 5 -6.9898 6.9898 0.0000 0.0000 13.9861 0.0002
# 6 0.0000 0.0000 0.0000 6.9898 0.0002 13.6471
#
#
#
# Elastic Compliance Matrix: (Units=1/GPa)
#
#
# Indices 1 2 3 4 5 6 
#
# 1 0.029496 -0.019746 0.000884 -0.000001 0.024610 0.000000
# 2 -0.019746 0.029496 0.000884 0.000001 -0.024610 0.000000
# 3 0.000884 0.000884 0.035079 0.000000 0.000000 0.000000
# 4 -0.000001 0.000001 0.000000 0.096098 0.000000 -0.049219
# 5 0.024610 -0.024610 0.000000 0.000000 0.096098 -0.000001
# 6 0.000000 0.000000 0.000000 -0.049219 -0.000001 0.098485
#
#
# Mechanical properties :
#
#
# Convention : Reuss Voigt Hill
#
# Bulk Modulus (GPa) = 17.20747 24.92486 21.06617
# Shear Modulus (GPa) = 11.36155 16.74306 14.05230
#
# Velocity S-wave (km/s) = 2.49265 3.02594 2.77215
# Velocity P-wave (km/s) = 4.20650 5.08321 4.66550
#
# Compressibility (1/GPa) = 0.05811428
#
# Stress axis : x y z
#
# Youngs Moduli (GPa) = 33.90260 33.90260 28.50691
#
# Poissons Ratio (x) = 0.66945 -0.02519
# Poissons Ratio (y) = 0.66945 -0.02519
# Poissons Ratio (z) = -0.02996 -0.02996
#
# Static dielectric constant tensor:
#      x y z
#    x 3.370650 0.000000 0.000000 
#    y 0.000000 3.370650 0.000000 
#    z 0.000000 0.000000 3.287930 
# 
# 
# High freq. dielectric constant tensor:
#      x y z
#    x 1.717370 0.000000 0.000000 
#    y 0.000000 1.717370 0.000000 
#    z 0.000000 0.000000 1.716110 
# 
# From -- ./inp_files/1148.got.cif
#   From: 2010.03.12/outbox.cif.g09.slc.cpg/sg149_cif.got.tgz:1148.got - 2010.04.03 13:40:41.
