data_PCOD8321718
_publ_section_title
;
Structure prediction by ZEFSAII (Michael W. Deem and Ramdas Pophale) SiO2 
 PCOD8321718
Probable space group: R -3
;
_chemical_formula_sum "Si O2"
_cell_formula_units_Z 144
_cell_length_a 23.149306
_cell_length_b 23.149306
_cell_length_c 17.596559
_cell_angle_alpha 90.000000
_cell_angle_beta 90.000000
_cell_angle_gamma 120.000000
_cell_volume 8166.469288
_symmetry_space_group_name_H-M "R -3"
_symmetry_group_IT_number 148
_symmetry_cell_setting 'hexagonal'
loop_
_space_group_symop_operation_xyz
x,y,z
-y,x-y,z
-x+y,-x,z
-x,-y,-z
y,-x+y,-z
x-y,x,-z
2/3+x,1/3+y,1/3+z
2/3-y,1/3+x-y,1/3+z
2/3-x+y,1/3-x,1/3+z
2/3-x,1/3-y,1/3-z
2/3+y,1/3-x+y,1/3-z
2/3+x-y,1/3+x,1/3-z
1/3+x,2/3+y,2/3+z
1/3-y,2/3+x-y,2/3+z
1/3-x+y,2/3-x,2/3+z
1/3-x,2/3-y,2/3-z
1/3+y,2/3-x+y,2/3-z
1/3+x-y,2/3+x,2/3-z
loop_
_atom_site_type_symbol
_atom_site_label
_atom_site_fract_x
_atom_site_fract_y
_atom_site_fract_z
Si Si1 0.457495 0.324493 0.676144
Si Si2 0.947202 0.550540 0.882966
Si Si3 0.463471 0.452956 0.615232
Si Si4 0.944420 0.394348 0.234955
Si Si5 0.879746 0.019390 0.484400
Si Si6 0.125925 0.860450 0.234210
Si Si7 0.639264 0.929367 0.372794
Si Si8 0.745865 0.651498 0.219776
O O1 0.482073 0.397381 0.639874
O O2 0.513383 0.332416 0.735246
O O3 0.454369 0.273541 0.612135
O O4 0.385016 0.292967 0.714740
O O5 0.871950 0.493863 0.869075
O O6 0.984975 0.589851 0.806107
O O7 0.990363 0.519222 0.919842
O O8 0.950984 0.598971 0.951716
O O9 0.413989 0.456850 0.676803
O O10 0.527989 0.526275 0.609154
O O11 0.429537 0.435548 0.533089
O O12 0.918740 0.438653 0.189230
O O13 0.889943 0.315290 0.226658
O O14 0.877575 0.955810 0.524074
O O15 0.189276 0.929545 0.257340
O O16 0.622026 0.974551 0.422462
#
# Coordination Sequence:
#
# PCOD8321718 Si02
#       8
#    18  18  18  18  18  18  18  18
#     4  11  19  38  56  73 114 143 178 233 276 328
#     4   9  19  33  55  80 107 135 185 226 281 324
#     4  11  22  38  52  79 111 156 179 225 296 334
#     4  10  20  37  53  80 111 146 180 224 285 338
#     4  12  24  36  52  77 112 151 191 231 272 328
#     4   9  19  34  56  82 104 140 182 228 275 327
#     4  11  19  34  58  85 107 138 189 233 272 338
#     4  11  23  35  55  79 116 146 186 232 280 344
#
# _framework density 17.63308
#
# number of rings (size 3 to 8) (size 9 to 14) (size 15 to 20)
#    0.750    0.750    3.750    3.125    1.750    1.000 
#    0.000    0.000    0.000    0.000    0.000    0.000 
#    0.000    0.000    0.000    3.625    0.000    0.500 
#
# Total GULP energy -594681.654452 kJ/mol
# GULP energy per Si atom -12389.201134 kJ/mol
# Density = 1.759295 g / cm^3
# Si number density = 17.633080 Si / 1000 Ang^3
#
#
#
# Elastic Constant Matrix: (Units=GPa)
#
#
# Indices 1 2 3 4 5 6 
#
# 1 59.2958 15.2711 19.4827 3.7870 -2.4743 0.0000
# 2 15.2711 59.2958 19.4827 -3.7870 2.4743 0.0000
# 3 19.4827 19.4827 91.3174 0.0000 0.0000 0.0000
# 4 3.7870 -3.7870 0.0000 21.7592 0.0000 2.4743
# 5 -2.4743 2.4743 0.0000 0.0000 21.7592 3.7870
# 6 0.0000 0.0000 0.0000 2.4743 3.7870 22.0123
#
#
#
# Elastic Compliance Matrix: (Units=1/GPa)
#
#
# Indices 1 2 3 4 5 6 
#
# 1 0.019411 -0.004317 -0.003220 -0.004130 0.002698 0.000000
# 2 -0.004317 0.019411 -0.003220 0.004130 -0.002698 0.000000
# 3 -0.003220 -0.003220 0.012325 0.000000 0.000000 0.000000
# 4 -0.004130 0.004130 0.000000 0.048009 0.000000 -0.005396
# 5 0.002698 -0.002698 0.000000 0.000000 0.048009 -0.008259
# 6 0.000000 0.000000 0.000000 -0.005396 -0.008259 0.047457
#
#
# Mechanical properties :
#
#
# Convention : Reuss Voigt Hill
#
# Bulk Modulus (GPa) = 33.74839 35.37579 34.56209
# Shear Modulus (GPa) = 22.12258 23.48431 22.80344
#
# Velocity S-wave (km/s) = 3.54589 3.65339 3.60004
# Velocity P-wave (km/s) = 5.99543 6.15646 6.07648
#
# Compressibility (1/GPa) = 0.02963104
#
# Stress axis : x y z
#
# Youngs Moduli (GPa) = 51.51738 51.51738 81.13656
#
# Poissons Ratio (x) = 0.22242 0.26128
# Poissons Ratio (y) = 0.22242 0.26128
# Poissons Ratio (z) = 0.16590 0.16590
#
# Static dielectric constant tensor:
#      x y z
#    x 3.155570 0.000000 0.000000 
#    y 0.000000 3.155570 0.000000 
#    z 0.000000 0.000000 3.360220 
# 
# 
# High freq. dielectric constant tensor:
#      x y z
#    x 1.657960 0.000000 0.000000 
#    y 0.000000 1.657960 0.000000 
#    z 0.000000 0.000000 1.692780 
# 
# From -- ./inp_files/2823.got.cif
#   From: 2010.03.12/outbox.cif.g09.slc.cpg/sg148_2_cif.got.tgz:2823.got - 2010.04.03 13:38:46.
