data_PCOD8321268
_publ_section_title
;
Structure prediction by ZEFSAII (Michael W. Deem and Ramdas Pophale) SiO2 
 PCOD8321268
Probable space group: I 41/A C D
;
_chemical_formula_sum "Si O2"
_cell_formula_units_Z 160
_cell_length_a 20.082761
_cell_length_b 20.082761
_cell_length_c 18.488705
_cell_angle_alpha 90.000000
_cell_angle_beta 90.000000
_cell_angle_gamma 90.000000
_cell_volume 7456.814385
_symmetry_space_group_name_H-M "I 41/A C D"
_symmetry_group_IT_number 142
_space_group.IT_coordinate_system_code '2'
_symmetry_cell_setting 'tetragonal'
loop_
_space_group_symop_operation_xyz
x,y,z
1/4-y,3/4+x,1/4+z
-x,1/2-y,z
1/4+y,1/4-x,3/4+z
x,-y,1/2-z
1/2-x,y,-z
3/4+y,1/4+x,1/4-z
1/4-y,1/4-x,1/4-z
-x,-y,-z
3/4+y,1/4-x,3/4-z
x,1/2+y,-z
3/4-y,3/4+x,1/4-z
-x,y,1/2+z
1/2+x,-y,z
1/4-y,3/4-x,3/4+z
3/4+y,3/4+x,3/4+z
1/2+x,1/2+y,1/2+z
3/4-y,1/4+x,3/4+z
1/2-x,-y,1/2+z
3/4+y,3/4-x,1/4+z
1/2+x,1/2-y,-z
-x,1/2+y,1/2-z
1/4+y,3/4+x,3/4-z
3/4-y,3/4-x,3/4-z
1/2-x,1/2-y,1/2-z
1/4+y,3/4-x,1/4-z
1/2+x,y,1/2-z
1/4-y,1/4+x,3/4-z
1/2-x,1/2+y,z
x,1/2-y,1/2+z
3/4-y,1/4-x,1/4+z
1/4+y,1/4+x,1/4+z
loop_
_atom_site_type_symbol
_atom_site_label
_atom_site_fract_x
_atom_site_fract_y
_atom_site_fract_z
Si Si1 0.579175 0.690002 0.840787
Si Si2 0.196915 0.631704 0.582207
Si Si3 0.566897 0.871731 0.196944
Si Si4 0.241405 0.991405 0.375000
Si Si5 0.865113 0.500000 0.250000
Si Si6 0.836273 0.172066 0.072443
O O1 0.514871 0.658826 0.881190
O O2 0.643779 0.643880 0.854732
O O3 0.570166 0.690059 0.753644
O O4 0.233324 0.559922 0.581110
O O5 0.258228 0.683117 0.591724
O O6 0.156983 0.643195 0.508288
O O7 0.611375 0.861375 0.125000
O O8 0.491968 0.877186 0.169055
O O9 0.587491 0.935593 0.245277
O O10 0.243047 0.929632 0.429097
O O11 0.869134 0.119134 0.125000
#
# Coordination Sequence:
#
# PCOD8321268 Si02
#       6
#    32  32  32  16  16  32
#     4  11  25  46  73 107 147 198 243 307 379 455
#     4  11  23  45  72 103 139 194 241 305 369 440
#     4  12  27  46  73 107 148 197 245 309 382 446
#     4  12  24  42  78 100 142 188 252 298 372 440
#     4  12  24  46  66 108 148 190 236 314 376 430
#     4  11  25  44  71 105 143 187 244 308 366 448
#
# _framework density 21.456883999999999
#
# number of rings (size 3 to 8) (size 9 to 14) (size 15 to 20)
#    0.000    0.600    6.000    2.400    2.800    0.400 
#    0.000    1.000    0.000    0.000    0.000    0.000 
#    0.000    0.000    0.000    0.000    0.000    0.000 
#
# Total GULP energy -991820.395862 kJ/mol
# GULP energy per Si atom -12397.754948 kJ/mol
# Density = 2.140805 g / cm^3
# Si number density = 21.456884 Si / 1000 Ang^3
#
#
#
# Elastic Constant Matrix: (Units=GPa)
#
#
# Indices 1 2 3 4 5 6 
#
# 1 93.5282 18.4488 40.9762 0.0000 0.0000 0.0000
# 2 18.4488 93.5282 40.9762 0.0000 0.0000 0.0000
# 3 40.9762 40.9762 128.1437 0.0000 0.0000 0.0000
# 4 0.0000 0.0000 0.0000 32.0973 0.0000 0.0000
# 5 0.0000 0.0000 0.0000 0.0000 32.0973 0.0000
# 6 0.0000 0.0000 0.0000 0.0000 0.0000 32.5226
#
#
#
# Elastic Compliance Matrix: (Units=1/GPa)
#
#
# Indices 1 2 3 4 5 6 
#
# 1 0.012489 -0.000830 -0.003728 0.000000 0.000000 0.000000
# 2 -0.000830 0.012489 -0.003728 0.000000 0.000000 0.000000
# 3 -0.003728 -0.003728 0.010188 0.000000 0.000000 0.000000
# 4 0.000000 0.000000 0.000000 0.031155 0.000000 0.000000
# 5 0.000000 0.000000 0.000000 0.000000 0.031155 0.000000
# 6 0.000000 0.000000 0.000000 0.000000 0.000000 0.030748
#
#
# Mechanical properties :
#
#
# Convention : Reuss Voigt Hill
#
# Bulk Modulus (GPa) = 53.78289 57.33362 55.55825
# Shear Modulus (GPa) = 33.11363 33.66336 33.38849
#
# Velocity S-wave (km/s) = 3.93270 3.96521 3.94899
# Velocity P-wave (km/s) = 6.76325 6.90958 6.83680
#
# Compressibility (1/GPa) = 0.01859328
#
# Stress axis : x y z
#
# Youngs Moduli (GPa) = 80.06994 80.06994 98.15443
#
# Poissons Ratio (x) = 0.06647 0.36593
# Poissons Ratio (y) = 0.06647 0.36593
# Poissons Ratio (z) = 0.29851 0.29851
#
# Static dielectric constant tensor:
#      x y z
#    x 3.867740 0.000000 0.000000 
#    y 0.000000 3.867740 0.000000 
#    z 0.000000 0.000000 3.846120 
# 
# 
# High freq. dielectric constant tensor:
#      x y z
#    x 1.844040 0.000000 0.000000 
#    y 0.000000 1.844040 0.000000 
#    z 0.000000 0.000000 1.845520 
# 
# From -- ./inp_files/7432.got.cif
#   From: 2010.03.12/outbox.cif.g09.slc.cpg/sg142_4_cif.got.tgz:7432.got - 2010.04.03 13:27:16.
