data_PCOD8321058
_publ_section_title
;
Structure prediction by ZEFSAII (Michael W. Deem and Ramdas Pophale) SiO2 
 PCOD8321058
Probable space group: I 41/A C D
;
_chemical_formula_sum "Si O2"
_cell_formula_units_Z 96
_cell_length_a 31.664013
_cell_length_b 31.664013
_cell_length_c 4.838402
_cell_angle_alpha 90.000000
_cell_angle_beta 90.000000
_cell_angle_gamma 90.000000
_cell_volume 4851.028871
_symmetry_space_group_name_H-M "I 41/A C D"
_symmetry_group_IT_number 142
_space_group.IT_coordinate_system_code '2'
_symmetry_cell_setting 'tetragonal'
loop_
_space_group_symop_operation_xyz
x,y,z
1/4-y,3/4+x,1/4+z
-x,1/2-y,z
1/4+y,1/4-x,3/4+z
x,-y,1/2-z
1/2-x,y,-z
3/4+y,1/4+x,1/4-z
1/4-y,1/4-x,1/4-z
-x,-y,-z
3/4+y,1/4-x,3/4-z
x,1/2+y,-z
3/4-y,3/4+x,1/4-z
-x,y,1/2+z
1/2+x,-y,z
1/4-y,3/4-x,3/4+z
3/4+y,3/4+x,3/4+z
1/2+x,1/2+y,1/2+z
3/4-y,1/4+x,3/4+z
1/2-x,-y,1/2+z
3/4+y,3/4-x,1/4+z
1/2+x,1/2-y,-z
-x,1/2+y,1/2-z
1/4+y,3/4+x,3/4-z
3/4-y,3/4-x,3/4-z
1/2-x,1/2-y,1/2-z
1/4+y,3/4-x,1/4-z
1/2+x,y,1/2-z
1/4-y,1/4+x,3/4-z
1/2-x,1/2+y,z
x,1/2-y,1/2+z
3/4-y,1/4-x,1/4+z
1/4+y,1/4+x,1/4+z
loop_
_atom_site_type_symbol
_atom_site_label
_atom_site_fract_x
_atom_site_fract_y
_atom_site_fract_z
Si Si1 0.350416 0.278666 0.619944
Si Si2 0.093553 0.528989 0.507650
Si Si3 0.396628 0.853373 0.625000
Si Si4 0.143916 0.393916 0.125000
O O1 0.352483 0.236507 0.436260
O O2 0.307066 0.305360 0.615412
O O3 0.389667 0.307292 0.513287
O O4 0.110267 0.500000 0.750000
O O5 0.134673 0.557640 0.445781
O O6 0.078884 0.500000 0.250000
O O7 0.388620 0.886205 0.377377
#
# Coordination Sequence:
#
# PCOD8321058 Si02
#       4
#    32  32  16  16
#     4  11  22  36  57  84 114 147 182 228 280 331
#     4  11  22  36  57  85 115 148 184 230 284 337
#     4  10  20  38  58  77 109 154 196 220 259 336
#     4  10  20  38  58  78 109 153 196 222 259 336
#
# _framework density 19.789614
#
# number of rings (size 3 to 8) (size 9 to 14) (size 15 to 20)
#    0.000    1.333    0.000   10.000    0.000    4.000 
#    0.000    0.000    0.000    5.000    0.000    2.333 
#    0.000    0.000    0.000    0.000    0.000    0.000 
#
# Total GULP energy -594754.259484 kJ/mol
# GULP energy per Si atom -12390.713739 kJ/mol
# Density = 1.974457 g / cm^3
# Si number density = 19.789614 Si / 1000 Ang^3
#
#
#
# Elastic Constant Matrix: (Units=GPa)
#
#
# Indices 1 2 3 4 5 6 
#
# 1 110.1619 38.7262 30.2534 0.0000 0.0000 0.0000
# 2 38.7262 110.1104 30.2563 0.0000 0.0000 0.0000
# 3 30.2534 30.2563 106.2178 0.0000 0.0000 0.0000
# 4 0.0000 0.0000 0.0000 41.2313 0.0000 0.0000
# 5 0.0000 0.0000 0.0000 0.0000 41.2339 0.0000
# 6 0.0000 0.0000 0.0000 0.0000 0.0000 10.6644
#
#
#
# Elastic Compliance Matrix: (Units=1/GPa)
#
#
# Indices 1 2 3 4 5 6 
#
# 1 0.010798 -0.003203 -0.002163 0.000000 0.000000 0.000000
# 2 -0.003203 0.010803 -0.002165 0.000000 0.000000 0.000000
# 3 -0.002163 -0.002165 0.010647 0.000000 0.000000 0.000000
# 4 0.000000 0.000000 0.000000 0.024253 0.000000 0.000000
# 5 0.000000 0.000000 0.000000 0.000000 0.024252 0.000000
# 6 0.000000 0.000000 0.000000 0.000000 0.000000 0.093770
#
#
# Mechanical properties :
#
#
# Convention : Reuss Voigt Hill
#
# Bulk Modulus (GPa) = 58.18712 58.32909 58.25811
# Shear Modulus (GPa) = 25.59977 33.77620 29.68798
#
# Velocity S-wave (km/s) = 3.60056 4.13578 3.87742
# Velocity P-wave (km/s) = 6.83755 7.23497 7.03907
#
# Compressibility (1/GPa) = 0.01718593
#
# Stress axis : x y z
#
# Youngs Moduli (GPa) = 92.61301 92.56452 93.91982
#
# Poissons Ratio (x) = 0.29650 0.20315
# Poissons Ratio (y) = 0.29666 0.20333
# Poissons Ratio (z) = 0.20032 0.20040
#
# Static dielectric constant tensor:
#      x y z
#    x 3.465730 0.000000 0.000000 
#    y 0.000000 3.465750 0.000000 
#    z 0.000000 0.000000 3.817280 
# 
# 
# High freq. dielectric constant tensor:
#      x y z
#    x 1.750490 0.000000 0.000000 
#    y 0.000000 1.750490 0.000000 
#    z 0.000000 0.000000 1.805810 
# 
# From -- ./inp_files/667.got.cif
#   From: 2010.03.12/outbox.cif.g09.slc.cpg/sg142_1_cif.got.tgz:667.got - 2010.04.03 13:27:16.
