data_PCOD8321056
_publ_section_title
;
Structure prediction by ZEFSAII (Michael W. Deem and Ramdas Pophale) SiO2 
 PCOD8321056
Probable space group: I 41/A C D
;
_chemical_formula_sum "Si O2"
_cell_formula_units_Z 176
_cell_length_a 18.229991
_cell_length_b 18.229991
_cell_length_c 27.762861
_cell_angle_alpha 90.000000
_cell_angle_beta 90.000000
_cell_angle_gamma 90.000000
_cell_volume 9226.502998
_symmetry_space_group_name_H-M "I 41/A C D"
_symmetry_group_IT_number 142
_space_group.IT_coordinate_system_code '2'
_symmetry_cell_setting 'tetragonal'
loop_
_space_group_symop_operation_xyz
x,y,z
1/4-y,3/4+x,1/4+z
-x,1/2-y,z
1/4+y,1/4-x,3/4+z
x,-y,1/2-z
1/2-x,y,-z
3/4+y,1/4+x,1/4-z
1/4-y,1/4-x,1/4-z
-x,-y,-z
3/4+y,1/4-x,3/4-z
x,1/2+y,-z
3/4-y,3/4+x,1/4-z
-x,y,1/2+z
1/2+x,-y,z
1/4-y,3/4-x,3/4+z
3/4+y,3/4+x,3/4+z
1/2+x,1/2+y,1/2+z
3/4-y,1/4+x,3/4+z
1/2-x,-y,1/2+z
3/4+y,3/4-x,1/4+z
1/2+x,1/2-y,-z
-x,1/2+y,1/2-z
1/4+y,3/4+x,3/4-z
3/4-y,3/4-x,3/4-z
1/2-x,1/2-y,1/2-z
1/4+y,3/4-x,1/4-z
1/2+x,y,1/2-z
1/4-y,1/4+x,3/4-z
1/2-x,1/2+y,z
x,1/2-y,1/2+z
3/4-y,1/4-x,1/4+z
1/4+y,1/4+x,1/4+z
loop_
_atom_site_type_symbol
_atom_site_label
_atom_site_fract_x
_atom_site_fract_y
_atom_site_fract_z
Si Si1 0.764597 0.494751 0.803287
Si Si2 0.969232 0.497491 0.406991
Si Si3 0.389071 0.586225 0.576214
Si Si4 0.167523 0.582478 0.875000
Si Si5 0.366132 0.868518 0.282203
Si Si6 0.605863 0.760930 0.394759
O O1 0.733795 0.500000 0.750000
O O2 0.779543 0.571951 0.828815
O O3 0.695070 0.460781 0.828889
O O4 0.840311 0.447834 0.802170
O O5 0.917309 0.560721 0.383563
O O6 0.935186 0.449816 0.450705
O O7 0.037062 0.541092 0.427901
O O8 0.996108 0.440991 0.365976
O O9 0.386638 0.636638 0.625000
O O10 0.382497 0.629921 0.525424
O O11 0.444661 0.848767 0.305230
O O12 0.561587 0.683511 0.396846
#
# Coordination Sequence:
#
# PCOD8321056 Si02
#       6
#    32  32  32  16  32  32
#     4   9  18  32  56  85 108 143 199 243 286 340
#     4  10  21  35  61  81 116 156 193 240 292 351
#     4  11  20  33  59  85 113 157 191 230 295 358
#     4  10  20  38  55  80 118 151 190 254 278 340
#     4   9  19  36  56  88 116 144 193 247 287 355
#     4   9  18  33  57  88 114 140 185 247 297 338
#
# _framework density 19.075482000000001
#
# number of rings (size 3 to 8) (size 9 to 14) (size 15 to 20)
#    0.000    2.364    0.909    1.636    5.091    0.000 
#    0.000    2.273   20.000    0.000    0.000    0.000 
#    0.000    0.000    0.000    0.000    0.000    0.000 
#
# Total GULP energy -1090275.792671 kJ/mol
# GULP energy per Si atom -12389.497644 kJ/mol
# Density = 1.903207 g / cm^3
# Si number density = 19.075482 Si / 1000 Ang^3
#
#
#
# Elastic Constant Matrix: (Units=GPa)
#
#
# Indices 1 2 3 4 5 6 
#
# 1 99.0881 39.8818 36.8530 0.0000 0.0000 0.0000
# 2 39.8818 99.0888 36.8527 0.0000 0.0000 0.0000
# 3 36.8530 36.8527 115.4169 0.0000 0.0000 0.0000
# 4 0.0000 0.0000 0.0000 -23.4235 0.0000 0.0000
# 5 0.0000 0.0000 0.0000 0.0000 -23.4526 0.0000
# 6 0.0000 0.0000 0.0000 0.0000 0.0000 26.4781
#
#
#
# Elastic Compliance Matrix: (Units=1/GPa)
#
#
# Indices 1 2 3 4 5 6 
#
# 1 0.012776 -0.004114 -0.002766 0.000000 0.000000 0.000000
# 2 -0.004114 0.012776 -0.002766 0.000000 0.000000 0.000000
# 3 -0.002766 -0.002766 0.010431 0.000000 0.000000 0.000000
# 4 0.000000 0.000000 0.000000 -0.042692 0.000000 0.000000
# 5 0.000000 0.000000 0.000000 0.000000 -0.042639 0.000000
# 6 0.000000 0.000000 0.000000 0.000000 0.000000 0.037767
#
#
# Mechanical properties :
#
#
# Convention : Reuss Voigt Hill
#
# Bulk Modulus (GPa) = 59.90869 60.08543 59.99706
# Shear Modulus (GPa) = 376.66315 9.25417 192.95866
#
# Velocity S-wave (km/s) = 14.06727 2.20497 10.06851
# Velocity P-wave (km/s) = 17.18502 6.16844 12.91074
#
# Compressibility (1/GPa) = 0.01669207
#
# Stress axis : x y z
#
# Youngs Moduli (GPa) = 78.26890 78.26964 95.87128
#
# Poissons Ratio (x) = 0.32197 0.26519
# Poissons Ratio (y) = 0.32197 0.26518
# Poissons Ratio (z) = 0.21650 0.21650
#
# Static dielectric constant tensor:
#      x y z
#    x 3.479980 0.000000 0.000000 
#    y 0.000000 3.479960 0.000000 
#    z 0.000000 0.000000 3.528700 
# 
# 
# High freq. dielectric constant tensor:
#      x y z
#    x 1.730890 0.000000 0.000000 
#    y 0.000000 1.730890 0.000000 
#    z 0.000000 0.000000 1.736000 
# 
# From -- ./inp_files/12567.got.cif
#   From: 2010.03.12/outbox.cif.g09.slc.cpg/sg142_7_cif.got.tgz:12567.got - 2010.04.03 13:27:16.
