data_PCOD8321999
_publ_section_title
;
Structure prediction by ZEFSAII (Michael W. Deem and Ramdas Pophale) SiO2 
 PCOD8321999
Probable space group: P 31 1 2
;
_chemical_formula_sum "Si O2"
_cell_formula_units_Z 42
_cell_length_a 13.955544
_cell_length_b 13.955544
_cell_length_c 11.980938
_cell_angle_alpha 90.000000
_cell_angle_beta 90.000000
_cell_angle_gamma 120.000000
_cell_volume 2020.761194
_symmetry_space_group_name_H-M "P 31 1 2"
_symmetry_group_IT_number 151
_symmetry_cell_setting 'hexagonal'
loop_
_space_group_symop_operation_xyz
x,y,z
-y,x-y,1/3+z
-x+y,-x,2/3+z
-y,-x,2/3-z
-x+y,y,1/3-z
x,x-y,-z
loop_
_atom_site_type_symbol
_atom_site_label
_atom_site_fract_x
_atom_site_fract_y
_atom_site_fract_z
Si Si1 0.455679 0.738414 0.366735
Si Si2 0.378188 0.419881 0.370846
Si Si3 0.751755 0.307854 0.211428
Si Si4 0.008731 0.245459 0.147691
Si Si5 0.461289 0.382881 0.590673
Si Si6 0.350278 0.228879 0.787844
Si Si7 0.607317 0.984105 0.315443
O O1 0.324735 0.675266 0.333334
O O2 0.480496 0.740248 0.500000
O O3 0.499497 0.671304 0.295511
O O4 0.514455 0.856903 0.309733
O O5 0.507934 0.492067 0.333334
O O6 0.296017 0.315626 0.296090
O O7 0.380218 0.386061 0.498175
O O8 0.741987 0.258014 0.333334
O O9 0.628188 0.256376 0.166667
O O10 0.810611 0.441002 0.200019
O O11 0.807014 0.250472 0.141022
O O12 0.112003 0.224005 0.166667
O O13 0.997997 0.308367 0.253514
O O14 0.891448 0.128406 0.132226
O O15 0.374660 0.279913 0.664476
O O16 0.535714 0.493149 0.662527
O O17 0.351542 0.320777 0.869986
#
# Coordination Sequence:
#
# PCOD8321999 Si02
#       7
#     6   6   6   6   6   6   6
#     4  11  22  41  68 102 131 171 227 285 355 434
#     4  11  20  39  64  96 134 173 224 282 347 415
#     4  12  21  37  57  92 141 180 221 264 334 424
#     4  12  23  43  70  95 125 184 251 291 332 420
#     4  12  25  38  61  99 142 175 217 284 349 425
#     4  12  25  40  62  99 134 183 230 280 349 416
#     4  12  20  43  67  96 135 177 225 283 357 429
#
# _framework density 20.784244999999999
#
# number of rings (size 3 to 8) (size 9 to 14) (size 15 to 20)
#    0.000    0.286    8.571    1.714    2.000    1.714 
#    0.000    0.714    0.000    3.429    3.714    0.000 
#    0.000    0.000    0.000    0.000    0.000    0.000 
#
# Total GULP energy -520302.493865 kJ/mol
# GULP energy per Si atom -12388.154616 kJ/mol
# Density = 2.073694 g / cm^3
# Si number density = 20.784245 Si / 1000 Ang^3
#
#
#
# Elastic Constant Matrix: (Units=GPa)
#
#
# Indices 1 2 3 4 5 6 
#
# 1 109.5674 48.2781 46.7938 0.0000 1.2950 0.0000
# 2 48.2781 109.5674 46.7938 0.0000 -1.2950 0.0000
# 3 46.7938 46.7938 103.8685 0.0000 0.0000 0.0000
# 4 0.0000 0.0000 0.0000 37.2264 0.0000 -1.2950
# 5 1.2950 -1.2950 0.0000 0.0000 37.2264 0.0000
# 6 0.0000 0.0000 0.0000 -1.2950 0.0000 30.6447
#
#
#
# Elastic Compliance Matrix: (Units=1/GPa)
#
#
# Indices 1 2 3 4 5 6 
#
# 1 0.012492 -0.003848 -0.003894 0.000000 -0.000568 0.000000
# 2 -0.003848 0.012492 -0.003894 0.000000 0.000568 0.000000
# 3 -0.003894 -0.003894 0.013136 0.000000 0.000000 0.000000
# 4 0.000000 0.000000 0.000000 0.026902 0.000000 0.001137
# 5 -0.000568 0.000568 0.000000 0.000000 0.026902 0.000000
# 6 0.000000 0.000000 0.000000 0.001137 0.000000 0.032680
#
#
# Mechanical properties :
#
#
# Convention : Reuss Voigt Hill
#
# Bulk Modulus (GPa) = 67.35066 67.41493 67.38280
# Shear Modulus (GPa) = 32.71657 33.09532 32.90595
#
# Velocity S-wave (km/s) = 3.97180 3.99473 3.98328
# Velocity P-wave (km/s) = 7.31496 7.33370 7.32434
#
# Compressibility (1/GPa) = 0.01484766
#
# Stress axis : x y z
#
# Youngs Moduli (GPa) = 80.05007 80.05007 76.12422
#
# Poissons Ratio (x) = 0.30802 0.29645
# Poissons Ratio (y) = 0.30802 0.29645
# Poissons Ratio (z) = 0.31174 0.31174
#
# Static dielectric constant tensor:
#      x y z
#    x 4.165070 0.000000 0.000000 
#    y 0.000000 4.165070 0.000000 
#    z 0.000000 0.000000 -1.654760 
# 
# 
# High freq. dielectric constant tensor:
#      x y z
#    x 1.803190 0.000000 0.000000 
#    y 0.000000 1.803190 0.000000 
#    z 0.000000 0.000000 1.811070 
# 
# From -- ./inp_files/2578.got.cif
#   From: 2010.03.12/outbox.cif.g09.slc.cpg/sg151_2_cif.got.tgz:2578.got - 2010.04.03 13:42:29.
