data_PCOD8321182
_publ_section_title
;
Structure prediction by ZEFSAII (Michael W. Deem and Ramdas Pophale) SiO2 
 PCOD8321182
Probable space group: I 41/A C D
;
_chemical_formula_sum "Si O2"
_cell_formula_units_Z 128
_cell_length_a 23.372600
_cell_length_b 23.372600
_cell_length_c 12.095772
_cell_angle_alpha 90.000000
_cell_angle_beta 90.000000
_cell_angle_gamma 90.000000
_cell_volume 6607.659347
_symmetry_space_group_name_H-M "I 41/A C D"
_symmetry_group_IT_number 142
_space_group.IT_coordinate_system_code '2'
_symmetry_cell_setting 'tetragonal'
loop_
_space_group_symop_operation_xyz
x,y,z
1/4-y,3/4+x,1/4+z
-x,1/2-y,z
1/4+y,1/4-x,3/4+z
x,-y,1/2-z
1/2-x,y,-z
3/4+y,1/4+x,1/4-z
1/4-y,1/4-x,1/4-z
-x,-y,-z
3/4+y,1/4-x,3/4-z
x,1/2+y,-z
3/4-y,3/4+x,1/4-z
-x,y,1/2+z
1/2+x,-y,z
1/4-y,3/4-x,3/4+z
3/4+y,3/4+x,3/4+z
1/2+x,1/2+y,1/2+z
3/4-y,1/4+x,3/4+z
1/2-x,-y,1/2+z
3/4+y,3/4-x,1/4+z
1/2+x,1/2-y,-z
-x,1/2+y,1/2-z
1/4+y,3/4+x,3/4-z
3/4-y,3/4-x,3/4-z
1/2-x,1/2-y,1/2-z
1/4+y,3/4-x,1/4-z
1/2+x,y,1/2-z
1/4-y,1/4+x,3/4-z
1/2-x,1/2+y,z
x,1/2-y,1/2+z
3/4-y,1/4-x,1/4+z
1/4+y,1/4+x,1/4+z
loop_
_atom_site_type_symbol
_atom_site_label
_atom_site_fract_x
_atom_site_fract_y
_atom_site_fract_z
Si Si1 0.193311 0.770205 0.316368
Si Si2 0.807021 0.625638 0.462811
Si Si3 0.401711 0.333406 0.179605
Si Si4 0.593342 0.271878 0.453067
O O1 0.250000 0.750000 0.250000
O O2 0.214786 0.816492 0.404353
O O3 0.148764 0.795104 0.228426
O O4 0.155473 0.725088 0.389960
O O5 0.750000 0.592727 0.500000
O O6 0.837600 0.587600 0.375000
O O7 0.849278 0.636327 0.565995
O O8 0.458638 0.326186 0.254259
O O9 0.408581 0.316581 0.053571
O O10 0.542343 0.292343 0.375000
#
# Coordination Sequence:
#
# PCOD8321182 Si02
#       4
#    32  32  32  32
#     4  10  23  37  60  87 119 162 202 244 301 363
#     4   9  20  39  65  83 113 157 203 240 303 357
#     4  10  23  39  56  93 121 159 200 243 303 376
#     4  11  23  37  61  89 128 160 200 247 311 371
#
# _framework density 19.371459000000002
#
# number of rings (size 3 to 8) (size 9 to 14) (size 15 to 20)
#    0.000    2.000    0.000    3.750   10.500    6.500 
#    0.000    0.000   11.000    0.000    0.000    0.000 
#    0.000    0.000    0.000    0.000    0.000    0.000 
#
# Total GULP energy -792878.917234 kJ/mol
# GULP energy per Si atom -12388.733082 kJ/mol
# Density = 1.932737 g / cm^3
# Si number density = 19.371459 Si / 1000 Ang^3
#
#
#
# Elastic Constant Matrix: (Units=GPa)
#
#
# Indices 1 2 3 4 5 6 
#
# 1 119.3520 60.7535 50.9101 0.0000 0.0000 0.0000
# 2 60.7535 119.3520 50.9101 0.0000 0.0000 0.0000
# 3 50.9101 50.9101 100.1797 0.0000 0.0000 0.0000
# 4 0.0000 0.0000 0.0000 68.5499 0.0000 0.0000
# 5 0.0000 0.0000 0.0000 0.0000 68.5499 0.0000
# 6 0.0000 0.0000 0.0000 0.0000 0.0000 -21.7549
#
#
#
# Elastic Compliance Matrix: (Units=1/GPa)
#
#
# Indices 1 2 3 4 5 6 
#
# 1 0.012428 -0.004637 -0.003959 0.000000 0.000000 0.000000
# 2 -0.004637 0.012428 -0.003959 0.000000 0.000000 0.000000
# 3 -0.003959 -0.003959 0.014006 0.000000 0.000000 0.000000
# 4 0.000000 0.000000 0.000000 0.014588 0.000000 0.000000
# 5 0.000000 0.000000 0.000000 0.000000 0.014588 0.000000
# 6 0.000000 0.000000 0.000000 0.000000 0.000000 -0.045967
#
#
# Mechanical properties :
#
#
# Convention : Reuss Voigt Hill
#
# Bulk Modulus (GPa) = 72.72316 73.78122 73.25219
# Shear Modulus (GPa) = 96.58950 34.82297 65.70623
#
# Velocity S-wave (km/s) = 7.06895 4.24446 5.83033
# Velocity P-wave (km/s) = 10.21027 7.88612 9.12251
#
# Compressibility (1/GPa) = 0.01375078
#
# Stress axis : x y z
#
# Youngs Moduli (GPa) = 80.46420 80.46420 71.39833
#
# Poissons Ratio (x) = 0.37314 0.28267
# Poissons Ratio (y) = 0.37314 0.28267
# Poissons Ratio (z) = 0.31856 0.31856
#
# Static dielectric constant tensor:
#      x y z
#    x 3.636480 0.000000 0.000000 
#    y 0.000000 3.636480 0.000000 
#    z 0.000000 0.000000 3.706650 
# 
# 
# High freq. dielectric constant tensor:
#      x y z
#    x 1.745260 0.000000 0.000000 
#    y 0.000000 1.745260 0.000000 
#    z 0.000000 0.000000 1.765790 
# 
# From -- ./inp_files/3452.got.cif
#   From: 2010.03.12/outbox.cif.g09.slc.cpg/sg142_2_cif.got.tgz:3452.got - 2010.04.03 13:27:16.
