data_PCOD8321659
_publ_section_title
;
Structure prediction by ZEFSAII (Michael W. Deem and Ramdas Pophale) SiO2 
 PCOD8321659
Probable space group: P -3
;
_chemical_formula_sum "Si O2"
_cell_formula_units_Z 40
_cell_length_a 16.371173
_cell_length_b 16.371173
_cell_length_c 9.544441
_cell_angle_alpha 90.000000
_cell_angle_beta 90.000000
_cell_angle_gamma 120.000000
_cell_volume 2215.341714
_symmetry_space_group_name_H-M "P -3"
_symmetry_group_IT_number 147
_symmetry_cell_setting 'hexagonal'
loop_
_space_group_symop_operation_xyz
x,y,z
-y,x-y,z
-x+y,-x,z
-x,-y,-z
y,-x+y,-z
x-y,x,-z
loop_
_atom_site_type_symbol
_atom_site_label
_atom_site_fract_x
_atom_site_fract_y
_atom_site_fract_z
Si Si1 0.214602 0.753644 0.498444
Si Si2 0.402016 0.302050 0.720345
Si Si3 0.700114 0.588900 0.222978
Si Si4 0.501413 0.061217 0.631416
Si Si5 0.438975 0.936656 0.870372
Si Si6 0.333334 0.666668 0.446222
Si Si7 0.749922 0.212424 0.989278
Si Si8 0.666668 0.333335 0.887803
O O1 0.239245 0.850564 0.417808
O O2 0.179894 0.760814 0.651507
O O3 0.138172 0.663406 0.413173
O O4 0.307985 0.743688 0.506361
O O5 0.316996 0.324035 0.741908
O O6 0.503728 0.397189 0.708742
O O7 0.402289 0.243150 0.853880
O O8 0.601511 0.492451 0.211096
O O9 0.754950 0.600843 0.077182
O O10 0.500000 0.000000 0.500000
O O11 0.425332 0.999183 0.751031
O O12 0.337460 0.856698 0.915517
O O13 0.500000 0.000000 0.000000
O O14 0.333334 0.666667 0.278823
O O15 0.740030 0.302250 0.944502
#
# Coordination Sequence:
#
# PCOD8321659 Si02
#       8
#     6   6   6   6   6   2   6   2
#     4  12  23  36  58  74 116 156 202 263 292 357
#     4  11  24  40  54  82 116 158 208 250 308 373
#     4  11  26  37  53  89 113 151 213 252 306 367
#     4  11  21  38  55  81 116 153 208 250 301 359
#     4  11  22  38  55  78 119 153 202 256 302 356
#     4  12  24  31  50  85  99 151 227 244 300 343
#     4  12  23  36  57  76 117 158 201 265 297 357
#     4  12  21  34  50  85 102 145 224 238 297 346
#
# _framework density 18.055904999999999
#
# number of rings (size 3 to 8) (size 9 to 14) (size 15 to 20)
#    0.000    0.600   10.500    0.000    6.300    0.000 
#    0.000    0.000    0.000    0.000    0.000    0.000 
#    0.000    0.000    0.000   34.200    0.000    0.000 
#
# Total GULP energy -495964.769915 kJ/mol
# GULP energy per Si atom -12399.119248 kJ/mol
# Density = 1.801481 g / cm^3
# Si number density = 18.055905 Si / 1000 Ang^3
#
#
#
# Elastic Constant Matrix: (Units=GPa)
#
#
# Indices 1 2 3 4 5 6 
#
# 1 57.3246 24.6687 33.1052 7.4005 0.6817 -0.0002
# 2 24.6687 57.3239 33.1052 -7.4004 -0.6816 -0.0001
# 3 33.1052 33.1052 119.7565 0.0001 0.0000 -0.0002
# 4 7.4005 -7.4004 0.0001 33.5415 -0.0003 -0.6814
# 5 0.6817 -0.6816 0.0000 -0.0003 33.5417 7.4006
# 6 -0.0002 -0.0001 -0.0002 -0.6814 7.4006 16.3279
#
#
#
# Elastic Compliance Matrix: (Units=1/GPa)
#
#
# Indices 1 2 3 4 5 6 
#
# 1 0.024879 -0.009178 -0.004340 -0.007514 -0.000692 0.000000
# 2 -0.009178 0.024879 -0.004340 0.007514 0.000692 0.000000
# 3 -0.004340 -0.004340 0.010750 0.000000 0.000000 0.000000
# 4 -0.007514 0.007514 0.000000 0.033158 0.000000 0.001384
# 5 -0.000692 0.000692 0.000000 0.000000 0.033158 -0.015029
# 6 0.000000 0.000000 0.000000 0.001384 -0.015029 0.068114
#
#
# Mechanical properties :
#
#
# Convention : Reuss Voigt Hill
#
# Bulk Modulus (GPa) = 40.33779 46.24034 43.28907
# Shear Modulus (GPa) = 20.92756 26.25062 23.58909
#
# Velocity S-wave (km/s) = 3.40816 3.81708 3.61840
# Velocity P-wave (km/s) = 6.15438 6.71505 6.44082
#
# Compressibility (1/GPa) = 0.02479065
#
# Stress axis : x y z
#
# Youngs Moduli (GPa) = 40.19448 40.19390 93.02359
#
# Poissons Ratio (x) = 0.36890 0.40375
# Poissons Ratio (y) = 0.36891 0.40376
# Poissons Ratio (z) = 0.17446 0.17446
#
# Static dielectric constant tensor:
#      x y z
#    x 3.337540 0.000000 0.000000 
#    y 0.000000 3.337540 0.000000 
#    z 0.000000 0.000000 3.756070 
# 
# 
# High freq. dielectric constant tensor:
#      x y z
#    x 1.664140 0.000000 0.000000 
#    y 0.000000 1.664140 0.000000 
#    z 0.000000 0.000000 1.727810 
# 
# From -- ./inp_files/648.got.cif
#   From: 2010.03.12/outbox.cif.g09.slc.cpg/sg147_cif.got.tgz:648.got - 2010.04.03 13:37:56.
