data_PCOD8321445
_publ_section_title
;
Structure prediction by ZEFSAII (Michael W. Deem and Ramdas Pophale) SiO2 
 PCOD8321445
Probable space group: P 31
;
_chemical_formula_sum "Si O2"
_cell_formula_units_Z 21
_cell_length_a 9.681144
_cell_length_b 9.681144
_cell_length_c 10.165944
_cell_angle_alpha 90.000000
_cell_angle_beta 90.000000
_cell_angle_gamma 120.000000
_cell_volume 825.147721
_symmetry_space_group_name_H-M "P 31"
_symmetry_group_IT_number 144
_symmetry_cell_setting 'hexagonal'
loop_
_space_group_symop_operation_xyz
x,y,z
-y,x-y,1/3+z
-x+y,-x,2/3+z
loop_
_atom_site_type_symbol
_atom_site_label
_atom_site_fract_x
_atom_site_fract_y
_atom_site_fract_z
Si Si1 0.507947 0.253918 0.908130
Si Si2 0.988433 0.558406 0.117610
Si Si3 0.551089 0.708501 0.262601
Si Si4 0.678907 0.598678 0.846791
Si Si5 0.156304 0.113033 0.344713
Si Si6 0.164845 0.157826 0.881857
Si Si7 0.243871 0.514854 0.631275
O O1 0.622288 0.441486 0.938258
O O2 0.347927 0.230017 0.833562
O O3 0.604028 0.186479 0.826055
O O4 0.452175 0.150637 0.037796
O O5 0.111202 0.604281 0.240640
O O6 0.018514 0.477079 0.987844
O O7 0.991795 0.723699 0.092763
O O8 0.715239 0.864003 0.312747
O O9 0.397564 0.701437 0.326212
O O10 0.569034 0.737552 0.104303
O O11 0.845973 0.746797 0.889904
O O12 0.548498 0.655206 0.852551
O O13 0.081884 0.950974 0.427059
O O14 0.007136 0.125271 0.289979
#
# Coordination Sequence:
#
# PCOD8321445 Si02
#       7
#     3   3   3   3   3   3   3
#     4  12  28  49  80 114 162 210 266 341 409 496
#     4  12  29  47  78 115 161 208 269 332 417 489
#     4  12  26  45  80 111 154 207 268 326 405 488
#     4  12  27  50  76 112 158 205 266 329 412 485
#     4  12  28  47  77 113 160 209 265 338 407 490
#     4  12  26  48  76 114 154 208 270 329 406 477
#     4  12  24  48  75 113 151 207 264 329 398 493
#
# _framework density 25.44999
#
# number of rings (size 3 to 8) (size 9 to 14) (size 15 to 20)
#    0.000    0.000    4.286    5.143    4.000    3.429 
#    0.000    0.000    0.000    0.000    0.000    0.000 
#    0.000    0.000    0.000    0.000    0.000    0.000 
#
# Total GULP energy -260281.798511 kJ/mol
# GULP energy per Si atom -12394.371358 kJ/mol
# Density = 2.539206 g / cm^3
# Si number density = 25.449990 Si / 1000 Ang^3
#
#
#
# Elastic Constant Matrix: (Units=GPa)
#
#
# Indices 1 2 3 4 5 6 
#
# 1 94.7138 12.5150 3.2039 4.6096 -0.7094 0.0000
# 2 12.5150 94.7138 3.2039 -4.6096 0.7094 0.0000
# 3 3.2039 3.2039 65.7120 0.0000 0.0000 0.0000
# 4 4.6096 -4.6096 0.0000 33.6396 0.0000 0.7094
# 5 -0.7094 0.7094 0.0000 0.0000 33.6396 4.6096
# 6 0.0000 0.0000 0.0000 0.7094 4.6096 41.0994
#
#
#
# Elastic Compliance Matrix: (Units=1/GPa)
#
#
# Indices 1 2 3 4 5 6 
#
# 1 0.010857 -0.001503 -0.000456 -0.001694 0.000261 0.000000
# 2 -0.001503 0.010857 -0.000456 0.001694 -0.000261 0.000000
# 3 -0.000456 -0.000456 0.015262 0.000000 0.000000 0.000000
# 4 -0.001694 0.001694 0.000000 0.030202 0.000000 -0.000521
# 5 0.000261 -0.000261 0.000000 0.000000 0.030202 -0.003387
# 6 0.000000 0.000000 0.000000 -0.000521 -0.003387 0.024720
#
#
# Mechanical properties :
#
#
# Convention : Reuss Voigt Hill
#
# Bulk Modulus (GPa) = 31.10954 32.55392 31.83173
# Shear Modulus (GPa) = 36.32512 37.42349 36.87431
#
# Velocity S-wave (km/s) = 3.78208 3.83883 3.81056
# Velocity P-wave (km/s) = 5.59665 5.69807 5.64759
#
# Compressibility (1/GPa) = 0.03214448
#
# Stress axis : x y z
#
# Youngs Moduli (GPa) = 92.10984 92.10984 65.52050
#
# Poissons Ratio (x) = 0.13849 0.02988
# Poissons Ratio (y) = 0.13849 0.02988
# Poissons Ratio (z) = 0.04201 0.04201
#
# Static dielectric constant tensor:
#      x y z
#    x 5.080040 0.000000 0.000000 
#    y 0.000000 5.080040 0.000000 
#    z 0.000000 0.000000 4.292940 
# 
# 
# High freq. dielectric constant tensor:
#      x y z
#    x 2.032370 0.000000 0.000000 
#    y 0.000000 2.032370 0.000000 
#    z 0.000000 0.000000 1.998720 
# 
# From -- ./inp_files/585.got.cif
#   From: 2010.03.12/outbox.cif.g09.slc.cpg/sg144_cif.got.tgz:585.got - 2010.04.03 13:34:42.
