data_PCOD8321153
_publ_section_title
;
Structure prediction by ZEFSAII (Michael W. Deem and Ramdas Pophale) SiO2 
 PCOD8321153
Probable space group: I 41/A C D
;
_chemical_formula_sum "Si O2"
_cell_formula_units_Z 176
_cell_length_a 16.202743
_cell_length_b 16.202743
_cell_length_c 31.836162
_cell_angle_alpha 90.000000
_cell_angle_beta 90.000000
_cell_angle_gamma 90.000000
_cell_volume 8357.911976
_symmetry_space_group_name_H-M "I 41/A C D"
_symmetry_group_IT_number 142
_space_group.IT_coordinate_system_code '2'
_symmetry_cell_setting 'tetragonal'
loop_
_space_group_symop_operation_xyz
x,y,z
1/4-y,3/4+x,1/4+z
-x,1/2-y,z
1/4+y,1/4-x,3/4+z
x,-y,1/2-z
1/2-x,y,-z
3/4+y,1/4+x,1/4-z
1/4-y,1/4-x,1/4-z
-x,-y,-z
3/4+y,1/4-x,3/4-z
x,1/2+y,-z
3/4-y,3/4+x,1/4-z
-x,y,1/2+z
1/2+x,-y,z
1/4-y,3/4-x,3/4+z
3/4+y,3/4+x,3/4+z
1/2+x,1/2+y,1/2+z
3/4-y,1/4+x,3/4+z
1/2-x,-y,1/2+z
3/4+y,3/4-x,1/4+z
1/2+x,1/2-y,-z
-x,1/2+y,1/2-z
1/4+y,3/4+x,3/4-z
3/4-y,3/4-x,3/4-z
1/2-x,1/2-y,1/2-z
1/4+y,3/4-x,1/4-z
1/2+x,y,1/2-z
1/4-y,1/4+x,3/4-z
1/2-x,1/2+y,z
x,1/2-y,1/2+z
3/4-y,1/4-x,1/4+z
1/4+y,1/4+x,1/4+z
loop_
_atom_site_type_symbol
_atom_site_label
_atom_site_fract_x
_atom_site_fract_y
_atom_site_fract_z
Si Si1 0.104315 0.470725 0.358731
Si Si2 0.093839 0.232519 0.207171
Si Si3 0.149199 0.586185 0.732502
Si Si4 0.683929 0.103047 0.807182
Si Si5 0.383563 0.366438 0.375000
Si Si6 0.299072 0.834522 0.395777
O O1 0.122546 0.524672 0.399285
O O2 0.121949 0.526061 0.316995
O O3 0.161995 0.388895 0.357879
O O4 0.011377 0.439453 0.362062
O O5 0.130502 0.163753 0.238004
O O6 0.137860 0.319891 0.213552
O O7 0.106163 0.205600 0.158979
O O8 0.000000 0.250000 0.218380
O O9 0.113894 0.500000 0.750000
O O10 0.247501 0.576545 0.726506
O O11 0.105712 0.599697 0.687781
O O12 0.391213 0.452928 0.350713
#
# Coordination Sequence:
#
# PCOD8321153 Si02
#       6
#    32  32  32  32  16  32
#     4  10  22  40  69  98 127 169 226 273 324 405
#     4  12  25  41  66 100 133 172 224 284 341 402
#     4  11  24  44  63  92 137 176 216 269 346 418
#     4  10  22  42  65  96 127 169 225 271 323 403
#     4  12  21  40  74  92 126 173 226 288 330 390
#     4  11  22  43  66  97 132 173 218 274 339 405
#
# _framework density 21.057891999999999
#
# number of rings (size 3 to 8) (size 9 to 14) (size 15 to 20)
#    0.000    1.091    3.636    4.091    2.545    0.364 
#    9.818    0.000    0.000    0.000    0.000    0.000 
#    0.000    0.000    0.000    0.000    0.000    0.000 
#
# Total GULP energy -1091285.743579 kJ/mol
# GULP energy per Si atom -12400.974359 kJ/mol
# Density = 2.100996 g / cm^3
# Si number density = 21.057892 Si / 1000 Ang^3
#
#
#
# Elastic Constant Matrix: (Units=GPa)
#
#
# Indices 1 2 3 4 5 6 
#
# 1 122.3157 59.7634 27.3141 0.0000 0.0000 0.0000
# 2 59.7634 122.3150 27.3147 0.0000 0.0000 0.0000
# 3 27.3141 27.3147 72.9606 0.0000 0.0000 0.0000
# 4 0.0000 0.0000 0.0000 23.1610 0.0000 0.0000
# 5 0.0000 0.0000 0.0000 0.0000 23.1618 0.0000
# 6 0.0000 0.0000 0.0000 0.0000 0.0000 30.6790
#
#
#
# Elastic Compliance Matrix: (Units=1/GPa)
#
#
# Indices 1 2 3 4 5 6 
#
# 1 0.011087 -0.004900 -0.002316 0.000000 0.000000 0.000000
# 2 -0.004900 0.011087 -0.002316 0.000000 0.000000 0.000000
# 3 -0.002316 -0.002316 0.015440 0.000000 0.000000 0.000000
# 4 0.000000 0.000000 0.000000 0.043176 0.000000 0.000000
# 5 0.000000 0.000000 0.000000 0.000000 0.043175 0.000000
# 6 0.000000 0.000000 0.000000 0.000000 0.000000 0.032596
#
#
# Mechanical properties :
#
#
# Convention : Reuss Voigt Hill
#
# Bulk Modulus (GPa) = 53.91011 60.70840 57.30926
# Shear Modulus (GPa) = 27.50150 28.94695 28.22422
#
# Velocity S-wave (km/s) = 3.61778 3.71163 3.66500
# Velocity P-wave (km/s) = 6.56563 6.87460 6.72189
#
# Compressibility (1/GPa) = 0.01854940
#
# Stress axis : x y z
#
# Youngs Moduli (GPa) = 90.19703 90.19609 64.76551
#
# Poissons Ratio (x) = 0.44194 0.15001
# Poissons Ratio (y) = 0.44195 0.15002
# Poissons Ratio (z) = 0.20891 0.20893
#
# Static dielectric constant tensor:
#      x y z
#    x 3.958750 0.000000 0.000000 
#    y 0.000000 3.958740 0.000000 
#    z 0.000000 0.000000 3.629400 
# 
# 
# High freq. dielectric constant tensor:
#      x y z
#    x 1.831460 0.000000 0.000000 
#    y 0.000000 1.831460 0.000000 
#    z 0.000000 0.000000 1.807390 
# 
# From -- ./inp_files/12524.got.cif
#   From: 2010.03.12/outbox.cif.g09.slc.cpg/sg142_7_cif.got.tgz:12524.got - 2010.04.03 13:27:16.
