data_PCOD8321827
_publ_section_title
;
Structure prediction by ZEFSAII (Michael W. Deem and Ramdas Pophale) SiO2 
 PCOD8321827
Probable space group: P 3 1 2
;
_chemical_formula_sum "Si O2"
_cell_formula_units_Z 36
_cell_length_a 16.811540
_cell_length_b 16.811540
_cell_length_c 10.409028
_cell_angle_alpha 90.000000
_cell_angle_beta 90.000000
_cell_angle_gamma 120.000000
_cell_volume 2547.744103
_symmetry_space_group_name_H-M "P 3 1 2"
_symmetry_group_IT_number 149
_symmetry_cell_setting 'hexagonal'
loop_
_space_group_symop_operation_xyz
x,y,z
-y,x-y,z
-x+y,-x,z
-y,-x,-z
-x+y,y,-z
x,x-y,-z
loop_
_atom_site_type_symbol
_atom_site_label
_atom_site_fract_x
_atom_site_fract_y
_atom_site_fract_z
Si Si1 0.817675 0.817401 0.849846
Si Si2 0.623939 0.906341 0.244999
Si Si3 0.623939 0.906341 0.755001
Si Si4 0.147206 0.664523 1.000000
Si Si5 0.182599 0.000274 0.150153
Si Si6 0.522356 0.666312 0.500000
O O1 0.730085 0.743815 0.767755
O O2 0.903495 0.806989 0.807485
O O3 0.841796 0.920898 0.819377
O O4 0.794525 0.795998 1.000000
O O5 0.619774 0.809887 0.239113
O O6 0.566217 0.913068 0.126223
O O7 0.579826 0.915057 0.377174
O O8 0.579826 0.915057 0.622825
O O9 0.730085 0.986270 0.767756
O O10 0.566216 0.913067 0.873776
O O11 0.237843 0.762158 0.000000
O O12 0.177050 0.588525 0.000000
O O13 0.422273 0.577728 0.500000
O O14 0.509309 0.754655 0.500000
#
# Coordination Sequence:
#
# PCOD8321827 Si02
#       6
#     6   6   6   6   6   6
#     4   9  15  25  42  63  85 111 142 172 202 243
#     4   9  17  28  40  57  82 108 138 175 212 241
#     4   9  17  28  40  57  82 108 138 175 212 241
#     4  10  17  26  39  56  78 106 140 176 209 244
#     4   9  15  25  42  63  85 111 142 172 202 243
#     4  10  19  30  43  58  80 114 150 178 203 240
#
# _framework density 14.130146999999999
#
# number of rings (size 3 to 8) (size 9 to 14) (size 15 to 20)
#    0.000    2.667    1.667    1.667    0.000    1.333 
#    0.000    4.167    0.000    0.000    0.000    2.333 
#    0.000    0.000    0.000   20.000    0.000    0.000 
#
# Total GULP energy -446288.787987 kJ/mol
# GULP energy per Si atom -12396.910777 kJ/mol
# Density = 1.409799 g / cm^3
# Si number density = 14.130147 Si / 1000 Ang^3
#
#
#
# Elastic Constant Matrix: (Units=GPa)
#
#
# Indices 1 2 3 4 5 6 
#
# 1 69.5566 27.3262 42.6100 0.0000 0.0000 0.0000
# 2 27.3262 69.5566 42.6100 0.0000 0.0000 0.0000
# 3 42.6100 42.6100 112.0922 0.0000 0.0000 0.0000
# 4 0.0000 0.0000 0.0000 17.0476 0.0000 0.0000
# 5 0.0000 0.0000 0.0000 0.0000 17.0476 0.0000
# 6 0.0000 0.0000 0.0000 0.0000 0.0000 21.1152
#
#
#
# Elastic Compliance Matrix: (Units=1/GPa)
#
#
# Indices 1 2 3 4 5 6 
#
# 1 0.019593 -0.004086 -0.005895 0.000000 0.000000 0.000000
# 2 -0.004086 0.019593 -0.005895 0.000000 0.000000 0.000000
# 3 -0.005895 -0.005895 0.013403 0.000000 0.000000 0.000000
# 4 0.000000 0.000000 0.000000 0.058659 0.000000 0.000000
# 5 0.000000 0.000000 0.000000 0.000000 0.058659 0.000000
# 6 0.000000 0.000000 0.000000 0.000000 0.000000 0.047359
#
#
# Mechanical properties :
#
#
# Convention : Reuss Voigt Hill
#
# Bulk Modulus (GPa) = 47.98988 52.92198 50.45593
# Shear Modulus (GPa) = 19.53398 20.28603 19.91000
#
# Velocity S-wave (km/s) = 3.72214 3.79312 3.75780
# Velocity P-wave (km/s) = 7.24631 7.53115 7.39010
#
# Compressibility (1/GPa) = 0.02083773
#
# Stress axis : x y z
#
# Youngs Moduli (GPa) = 51.03808 51.03808 74.61156
#
# Poissons Ratio (x) = 0.20856 0.43981
# Poissons Ratio (y) = 0.20856 0.43981
# Poissons Ratio (z) = 0.30085 0.30085
#
# Static dielectric constant tensor:
#      x y z
#    x 2.606220 0.000000 0.000000 
#    y 0.000000 2.606220 0.000000 
#    z 0.000000 0.000000 2.984680 
# 
# 
# High freq. dielectric constant tensor:
#      x y z
#    x 1.513650 0.000000 0.000000 
#    y 0.000000 1.513650 0.000000 
#    z 0.000000 0.000000 1.540890 
# 
# From -- ./inp_files/644.got.cif
#   From: 2010.03.12/outbox.cif.g09.slc.cpg/sg149_cif.got.tgz:644.got - 2010.04.03 13:40:41.
