data_PCOD8321280
_publ_section_title
;
Structure prediction by ZEFSAII (Michael W. Deem and Ramdas Pophale) SiO2 
 PCOD8321280
Probable space group: I 41/A C D
;
_chemical_formula_sum "Si O2"
_cell_formula_units_Z 80
_cell_length_a 13.230710
_cell_length_b 13.230710
_cell_length_c 21.910580
_cell_angle_alpha 90.000000
_cell_angle_beta 90.000000
_cell_angle_gamma 90.000000
_cell_volume 3835.483994
_symmetry_space_group_name_H-M "I 41/A C D"
_symmetry_group_IT_number 142
_space_group.IT_coordinate_system_code '2'
_symmetry_cell_setting 'tetragonal'
loop_
_space_group_symop_operation_xyz
x,y,z
1/4-y,3/4+x,1/4+z
-x,1/2-y,z
1/4+y,1/4-x,3/4+z
x,-y,1/2-z
1/2-x,y,-z
3/4+y,1/4+x,1/4-z
1/4-y,1/4-x,1/4-z
-x,-y,-z
3/4+y,1/4-x,3/4-z
x,1/2+y,-z
3/4-y,3/4+x,1/4-z
-x,y,1/2+z
1/2+x,-y,z
1/4-y,3/4-x,3/4+z
3/4+y,3/4+x,3/4+z
1/2+x,1/2+y,1/2+z
3/4-y,1/4+x,3/4+z
1/2-x,-y,1/2+z
3/4+y,3/4-x,1/4+z
1/2+x,1/2-y,-z
-x,1/2+y,1/2-z
1/4+y,3/4+x,3/4-z
3/4-y,3/4-x,3/4-z
1/2-x,1/2-y,1/2-z
1/4+y,3/4-x,1/4-z
1/2+x,y,1/2-z
1/4-y,1/4+x,3/4-z
1/2-x,1/2+y,z
x,1/2-y,1/2+z
3/4-y,1/4-x,1/4+z
1/4+y,1/4+x,1/4+z
loop_
_atom_site_type_symbol
_atom_site_label
_atom_site_fract_x
_atom_site_fract_y
_atom_site_fract_z
Si Si1 0.006748 0.108839 0.666315
Si Si2 0.336705 0.500000 0.750000
Si Si3 0.422289 0.042036 0.950165
O O1 0.052898 0.197103 0.625000
O O2 0.093684 0.069982 0.709249
O O3 0.912961 0.150987 0.707196
O O4 0.964574 0.023695 0.618735
O O5 0.267277 0.432697 0.706232
O O6 0.500000 0.000000 0.000000
#
# Coordination Sequence:
#
# PCOD8321280 Si02
#       3
#    32  16  32
#     4  11  25  44  67 102 141 180 233 299 346 411
#     4  12  26  42  70 102 138 180 234 290 348 426
#     4  11  24  43  71  97 136 184 230 279 357 418
#
# _framework density 20.857863999999999
#
# number of rings (size 3 to 8) (size 9 to 14) (size 15 to 20)
#    0.000    0.800    4.000    3.600    5.600    3.200 
#    0.000    0.000    0.000    0.000    0.000    0.000 
#    0.000    0.000    0.000    0.000    0.000    0.000 
#
# Total GULP energy -495588.135611 kJ/mol
# GULP energy per Si atom -12389.703390 kJ/mol
# Density = 2.081039 g / cm^3
# Si number density = 20.857864 Si / 1000 Ang^3
#
#
#
# Elastic Constant Matrix: (Units=GPa)
#
#
# Indices 1 2 3 4 5 6 
#
# 1 137.0342 72.2398 57.8531 0.0000 0.0000 0.0000
# 2 72.2398 137.0337 57.8529 0.0000 0.0000 0.0000
# 3 57.8531 57.8529 99.7075 0.0000 0.0000 0.0000
# 4 0.0000 0.0000 0.0000 44.3787 0.0000 0.0000
# 5 0.0000 0.0000 0.0000 0.0000 44.3791 0.0000
# 6 0.0000 0.0000 0.0000 0.0000 0.0000 37.9189
#
#
#
# Elastic Compliance Matrix: (Units=1/GPa)
#
#
# Indices 1 2 3 4 5 6 
#
# 1 0.011234 -0.004199 -0.004082 0.000000 0.000000 0.000000
# 2 -0.004199 0.011234 -0.004082 0.000000 0.000000 0.000000
# 3 -0.004082 -0.004082 0.014766 0.000000 0.000000 0.000000
# 4 0.000000 0.000000 0.000000 0.022533 0.000000 0.000000
# 5 0.000000 0.000000 0.000000 0.000000 0.022533 0.000000
# 6 0.000000 0.000000 0.000000 0.000000 0.000000 0.026372
#
#
# Mechanical properties :
#
#
# Convention : Reuss Voigt Hill
#
# Bulk Modulus (GPa) = 79.94406 83.29633 81.62019
# Shear Modulus (GPa) = 36.34509 37.72397 37.03453
#
# Velocity S-wave (km/s) = 4.17887 4.25740 4.21832
# Velocity P-wave (km/s) = 7.85463 8.01182 7.93361
#
# Compressibility (1/GPa) = 0.01250875
#
# Stress axis : x y z
#
# Youngs Moduli (GPa) = 89.01202 89.01174 67.72098
#
# Poissons Ratio (x) = 0.37376 0.27645
# Poissons Ratio (y) = 0.37376 0.27645
# Poissons Ratio (z) = 0.36336 0.36336
#
# Static dielectric constant tensor:
#      x y z
#    x 0.000000 0.000000 0.000000 
#    y 0.000000 0.000000 0.000000 
#    z 0.000000 0.000000 0.000000 
# 
# 
# High freq. dielectric constant tensor:
#      x y z
#    x 1.831340 0.000000 0.000000 
#    y 0.000000 1.831340 0.000000 
#    z 0.000000 0.000000 1.806120 
# 
# From -- ./inp_files/8205.got.cif
#   From: 2010.03.12/outbox.cif.g09.slc.cpg/sg142_5_cif.got.tgz:8205.got - 2010.04.03 13:27:16.
