data_PCOD8321773
_publ_section_title
;
Structure prediction by ZEFSAII (Michael W. Deem and Ramdas Pophale) SiO2 
 PCOD8321773
Probable space group: R -3
;
_chemical_formula_sum "Si O2"
_cell_formula_units_Z 144
_cell_length_a 27.962538
_cell_length_b 27.962538
_cell_length_c 8.966239
_cell_angle_alpha 90.000000
_cell_angle_beta 90.000000
_cell_angle_gamma 120.000000
_cell_volume 6071.473689
_symmetry_space_group_name_H-M "R -3"
_symmetry_group_IT_number 148
_symmetry_cell_setting 'hexagonal'
loop_
_space_group_symop_operation_xyz
x,y,z
-y,x-y,z
-x+y,-x,z
-x,-y,-z
y,-x+y,-z
x-y,x,-z
2/3+x,1/3+y,1/3+z
2/3-y,1/3+x-y,1/3+z
2/3-x+y,1/3-x,1/3+z
2/3-x,1/3-y,1/3-z
2/3+y,1/3-x+y,1/3-z
2/3+x-y,1/3+x,1/3-z
1/3+x,2/3+y,2/3+z
1/3-y,2/3+x-y,2/3+z
1/3-x+y,2/3-x,2/3+z
1/3-x,2/3-y,2/3-z
1/3+y,2/3-x+y,2/3-z
1/3+x-y,2/3+x,2/3-z
loop_
_atom_site_type_symbol
_atom_site_label
_atom_site_fract_x
_atom_site_fract_y
_atom_site_fract_z
Si Si1 0.822727 0.712059 0.861578
Si Si2 0.263976 0.991339 0.163063
Si Si3 0.508211 0.391559 0.695943
Si Si4 0.511347 0.571443 0.025165
Si Si5 0.677173 0.607691 0.169004
Si Si6 0.562784 0.744988 0.830576
Si Si7 0.682972 0.428350 0.935416
Si Si8 0.700982 0.264110 0.239740
O O1 0.805753 0.649843 0.812569
O O2 0.875595 0.748957 0.756344
O O3 0.769045 0.715506 0.822668
O O4 0.840905 0.727440 0.032168
O O5 0.237173 0.939162 0.273766
O O6 0.330090 0.019175 0.143732
O O7 0.245304 0.033793 0.222460
O O8 0.238057 0.968641 0.999742
O O9 0.500682 0.388671 0.873914
O O10 0.450018 0.373467 0.619264
O O11 0.549324 0.452922 0.635387
O O12 0.534446 0.352435 0.673237
O O13 0.500251 0.716312 0.772755
O O14 0.721166 0.433297 0.791669
O O15 0.703059 0.409747 0.083869
O O16 0.637882 0.234124 0.293302
#
# Coordination Sequence:
#
# PCOD8321773 Si02
#       8
#    18  18  18  18  18  18  18  18
#     4  10  24  43  68  99 138 182 236 299 361 423
#     4  11  25  44  74 103 145 190 244 300 359 438
#     4  11  26  42  69 105 141 192 237 295 365 430
#     4  11  25  41  68 103 139 182 235 302 364 431
#     4  11  24  45  71  99 142 192 244 294 357 434
#     4  10  25  43  67 101 138 192 234 299 358 428
#     4  11  26  45  69 104 151 192 236 303 369 434
#     4  11  25  43  74 103 138 190 248 296 358 436
#
# _framework density 23.717471
#
# number of rings (size 3 to 8) (size 9 to 14) (size 15 to 20)
#    0.000    1.250    0.000    4.000   14.000    5.000 
#    0.000    0.000    0.000    0.000    0.000    0.000 
#    0.000    0.000    0.000    0.000    0.000    0.000 
#
# Total GULP energy -594841.052022 kJ/mol
# GULP energy per Si atom -12392.521917 kJ/mol
# Density = 2.366349 g / cm^3
# Si number density = 23.717471 Si / 1000 Ang^3
#
#
#
# Elastic Constant Matrix: (Units=GPa)
#
#
# Indices 1 2 3 4 5 6 
#
# 1 90.0780 27.4493 28.0678 0.2013 -3.7047 -0.0165
# 2 27.4493 90.0638 28.0168 -0.1495 3.7157 -0.0047
# 3 28.0678 28.0168 105.5788 0.0350 0.0008 -0.0996
# 4 0.2013 -0.1495 0.0350 35.9590 0.0406 3.6969
# 5 -3.7047 3.7157 0.0008 0.0406 35.8685 0.1002
# 6 -0.0165 -0.0047 -0.0996 3.6969 0.1002 31.2670
#
#
#
# Elastic Compliance Matrix: (Units=1/GPa)
#
#
# Indices 1 2 3 4 5 6 
#
# 1 0.012957 -0.003212 -0.002592 -0.000086 0.001671 0.000003
# 2 -0.003212 0.012955 -0.002584 0.000077 -0.001674 -0.000012
# 3 -0.002592 -0.002584 0.010846 -0.000010 0.000000 0.000034
# 4 -0.000086 0.000077 -0.000010 0.028152 -0.000039 -0.003329
# 5 0.001671 -0.001674 0.000000 -0.000039 0.028226 -0.000085
# 6 0.000003 -0.000012 0.000034 -0.003329 -0.000085 0.032377
#
#
# Mechanical properties :
#
#
# Convention : Reuss Voigt Hill
#
# Bulk Modulus (GPa) = 50.04367 50.30983 50.17675
# Shear Modulus (GPa) = 33.56831 34.09801 33.83316
#
# Velocity S-wave (km/s) = 3.76618 3.79578 3.78101
# Velocity P-wave (km/s) = 6.32913 6.36151 6.34534
#
# Compressibility (1/GPa) = 0.01998255
#
# Stress axis : x y z
#
# Youngs Moduli (GPa) = 77.17950 77.18981 92.19569
#
# Poissons Ratio (x) = 0.24790 0.23900
# Poissons Ratio (y) = 0.24787 0.23824
# Poissons Ratio (z) = 0.20007 0.19946
#
# Static dielectric constant tensor:
#      x y z
#    x 4.183710 0.000020 -0.000910 
#    y 0.000020 4.184150 0.000070 
#    z -0.000910 0.000070 4.525300 
# 
# 
# High freq. dielectric constant tensor:
#      x y z
#    x 1.933530 0.000000 -0.000040 
#    y 0.000000 1.933550 0.000000 
#    z -0.000040 0.000000 1.953250 
# 
# From -- ./inp_files/1156.got.cif
#   From: 2010.03.12/outbox.cif.g09.slc.cpg/sg148_1_cif.got.tgz:1156.got - 2010.04.03 13:38:46.
