data_PCOD8321316
_publ_section_title
;
Structure prediction by ZEFSAII (Michael W. Deem and Ramdas Pophale) SiO2 
 PCOD8321316
Probable space group: I 41/A C D
;
_chemical_formula_sum "Si O2"
_cell_formula_units_Z 136
_cell_length_a 21.382607
_cell_length_b 21.382607
_cell_length_c 13.451537
_cell_angle_alpha 90.000000
_cell_angle_beta 90.000000
_cell_angle_gamma 90.000000
_cell_volume 6150.256355
_symmetry_space_group_name_H-M "I 41/A C D"
_symmetry_group_IT_number 142
_space_group.IT_coordinate_system_code '2'
_symmetry_cell_setting 'tetragonal'
loop_
_space_group_symop_operation_xyz
x,y,z
1/4-y,3/4+x,1/4+z
-x,1/2-y,z
1/4+y,1/4-x,3/4+z
x,-y,1/2-z
1/2-x,y,-z
3/4+y,1/4+x,1/4-z
1/4-y,1/4-x,1/4-z
-x,-y,-z
3/4+y,1/4-x,3/4-z
x,1/2+y,-z
3/4-y,3/4+x,1/4-z
-x,y,1/2+z
1/2+x,-y,z
1/4-y,3/4-x,3/4+z
3/4+y,3/4+x,3/4+z
1/2+x,1/2+y,1/2+z
3/4-y,1/4+x,3/4+z
1/2-x,-y,1/2+z
3/4+y,3/4-x,1/4+z
1/2+x,1/2-y,-z
-x,1/2+y,1/2-z
1/4+y,3/4+x,3/4-z
3/4-y,3/4-x,3/4-z
1/2-x,1/2-y,1/2-z
1/4+y,3/4-x,1/4-z
1/2+x,y,1/2-z
1/4-y,1/4+x,3/4-z
1/2-x,1/2+y,z
x,1/2-y,1/2+z
3/4-y,1/4-x,1/4+z
1/4+y,1/4+x,1/4+z
loop_
_atom_site_type_symbol
_atom_site_label
_atom_site_fract_x
_atom_site_fract_y
_atom_site_fract_z
Si Si1 0.000000 0.750000 0.875000
Si Si2 0.626122 0.244895 0.994147
Si Si3 0.235111 0.085336 0.391280
Si Si4 0.045768 0.454378 0.058600
Si Si5 0.127212 0.351651 0.354646
O O1 0.998581 0.690579 0.805359
O O2 0.627174 0.192616 0.081517
O O3 0.635508 0.311720 0.045762
O O4 0.681129 0.233010 0.913421
O O5 0.250000 0.111115 0.500000
O O6 0.261310 0.137822 0.317783
O O7 0.160833 0.077183 0.377693
O O8 0.268334 0.018334 0.375000
O O9 0.059847 0.394217 0.991163
O O10 0.000000 0.500000 0.000000
#
# Coordination Sequence:
#
# PCOD8321316 Si02
#       5
#     8  32  32  32  32
#     4  12  24  42  72 108 154 184 244 302 372 448
#     4  12  25  46  71 109 146 191 245 305 379 451
#     4  12  24  49  74 100 141 197 251 297 374 448
#     4  12  26  46  72 106 145 200 245 307 377 455
#     4  12  25  47  77 104 144 197 245 311 379 452
#
# _framework density 22.112898999999999
#
# number of rings (size 3 to 8) (size 9 to 14) (size 15 to 20)
#    0.000    0.000    7.059    2.824    3.294    0.000 
#    4.235    0.000    0.000    0.000    0.000    0.000 
#    0.000    0.000    0.000    0.000    0.000    0.000 
#
# Total GULP energy -843317.183831 kJ/mol
# GULP energy per Si atom -12401.723292 kJ/mol
# Density = 2.206257 g / cm^3
# Si number density = 22.112899 Si / 1000 Ang^3
#
#
#
# Elastic Constant Matrix: (Units=GPa)
#
#
# Indices 1 2 3 4 5 6 
#
# 1 157.1680 46.4127 58.6063 0.0000 0.0000 0.0000
# 2 46.4127 157.1680 58.6063 0.0000 0.0000 0.0000
# 3 58.6063 58.6063 115.7518 0.0000 0.0000 0.0000
# 4 0.0000 0.0000 0.0000 40.4649 0.0000 0.0000
# 5 0.0000 0.0000 0.0000 0.0000 40.4649 0.0000
# 6 0.0000 0.0000 0.0000 0.0000 0.0000 35.4596
#
#
#
# Elastic Compliance Matrix: (Units=1/GPa)
#
#
# Indices 1 2 3 4 5 6 
#
# 1 0.007981 -0.001048 -0.003510 0.000000 0.000000 0.000000
# 2 -0.001048 0.007981 -0.003510 0.000000 0.000000 0.000000
# 3 -0.003510 -0.003510 0.012194 0.000000 0.000000 0.000000
# 4 0.000000 0.000000 0.000000 0.024713 0.000000 0.000000
# 5 0.000000 0.000000 0.000000 0.000000 0.024713 0.000000
# 6 0.000000 0.000000 0.000000 0.000000 0.000000 0.028201
#
#
# Mechanical properties :
#
#
# Convention : Reuss Voigt Hill
#
# Bulk Modulus (GPa) = 83.20299 84.14871 83.67585
# Shear Modulus (GPa) = 39.70590 41.04203 40.37396
#
# Velocity S-wave (km/s) = 4.24205 4.31283 4.27759
# Velocity P-wave (km/s) = 7.85503 7.93331 7.89427
#
# Compressibility (1/GPa) = 0.01201880
#
# Stress axis : x y z
#
# Youngs Moduli (GPa) = 125.29720 125.29720 82.00897
#
# Poissons Ratio (x) = 0.13130 0.28788
# Poissons Ratio (y) = 0.13130 0.28788
# Poissons Ratio (z) = 0.43983 0.43983
#
# Static dielectric constant tensor:
#      x y z
#    x 4.081870 0.000000 0.000000 
#    y 0.000000 4.081870 0.000000 
#    z 0.000000 0.000000 3.796760 
# 
# 
# High freq. dielectric constant tensor:
#      x y z
#    x 1.873380 0.000000 0.000000 
#    y 0.000000 1.873380 0.000000 
#    z 0.000000 0.000000 1.873790 
# 
# From -- ./inp_files/5154.got.cif
#   From: 2010.03.12/outbox.cif.g09.slc.cpg/sg142_3_cif.got.tgz:5154.got - 2010.04.03 13:27:16.
