data_PCOD8321722
_publ_section_title
;
Structure prediction by ZEFSAII (Michael W. Deem and Ramdas Pophale) SiO2 
 PCOD8321722
Probable space group: R -3
;
_chemical_formula_sum "Si O2"
_cell_formula_units_Z 108
_cell_length_a 14.601465
_cell_length_b 14.601465
_cell_length_c 29.209264
_cell_angle_alpha 90.000000
_cell_angle_beta 90.000000
_cell_angle_gamma 120.000000
_cell_volume 5393.169990
_symmetry_space_group_name_H-M "R -3"
_symmetry_group_IT_number 148
_symmetry_cell_setting 'hexagonal'
loop_
_space_group_symop_operation_xyz
x,y,z
-y,x-y,z
-x+y,-x,z
-x,-y,-z
y,-x+y,-z
x-y,x,-z
2/3+x,1/3+y,1/3+z
2/3-y,1/3+x-y,1/3+z
2/3-x+y,1/3-x,1/3+z
2/3-x,1/3-y,1/3-z
2/3+y,1/3-x+y,1/3-z
2/3+x-y,1/3+x,1/3-z
1/3+x,2/3+y,2/3+z
1/3-y,2/3+x-y,2/3+z
1/3-x+y,2/3-x,2/3+z
1/3-x,2/3-y,2/3-z
1/3+y,2/3-x+y,2/3-z
1/3+x-y,2/3+x,2/3-z
loop_
_atom_site_type_symbol
_atom_site_label
_atom_site_fract_x
_atom_site_fract_y
_atom_site_fract_z
Si Si1 0.636489 0.203122 0.608219
Si Si2 0.650125 0.120890 0.842267
Si Si3 0.731468 0.654624 0.407990
Si Si4 0.182185 0.333765 0.886470
Si Si5 0.314042 0.046278 0.909761
Si Si6 0.911810 0.622071 0.669929
O O1 0.755207 0.307106 0.606996
O O2 0.603506 0.121614 0.566132
O O3 0.639559 0.139651 0.652818
O O4 0.553989 0.141874 0.849091
O O5 0.680858 0.104346 0.892963
O O6 0.616750 0.020509 0.809258
O O7 0.635081 0.556644 0.433216
O O8 0.820597 0.620910 0.403421
O O9 0.697483 0.678753 0.358864
O O10 0.166667 0.333334 0.833334
O O11 0.070945 0.285671 0.912517
O O12 0.400444 0.045876 0.943272
O O13 0.833334 0.666667 0.666667
#
# Coordination Sequence:
#
# PCOD8321722 Si02
#       6
#    18  18  18  18  18  18
#     4   9  22  40  63  97 124 158 212 254 313 379
#     4  10  20  39  60  89 124 160 197 247 311 378
#     4  10  24  40  61  90 121 162 211 249 312 372
#     4  11  22  42  65  89 124 164 209 263 310 360
#     4  11  24  39  63  90 125 161 206 259 310 363
#     4  11  23  39  66  90 124 163 203 254 312 369
#
# _framework density 20.025327000000001
#
# number of rings (size 3 to 8) (size 9 to 14) (size 15 to 20)
#    0.333    1.333    1.667    2.167    7.000    2.667 
#    1.000    0.000    0.000    1.000    0.000    0.000 
#    0.000    0.000    0.000    0.000    0.000    0.000 
#
# Total GULP energy -446216.017569 kJ/mol
# GULP energy per Si atom -12394.889377 kJ/mol
# Density = 1.997975 g / cm^3
# Si number density = 20.025327 Si / 1000 Ang^3
#
#
#
# Elastic Constant Matrix: (Units=GPa)
#
#
# Indices 1 2 3 4 5 6 
#
# 1 104.1353 41.2173 9.4848 -2.8160 -3.9341 0.0000
# 2 41.2173 104.1353 9.4848 2.8160 3.9341 0.0000
# 3 9.4848 9.4848 64.2063 0.0000 0.0000 0.0000
# 4 -2.8160 2.8160 0.0000 25.7664 0.0000 3.9341
# 5 -3.9341 3.9341 0.0000 0.0000 25.7664 -2.8160
# 6 0.0000 0.0000 0.0000 3.9341 -2.8160 31.4590
#
#
#
# Elastic Compliance Matrix: (Units=1/GPa)
#
#
# Indices 1 2 3 4 5 6 
#
# 1 0.011691 -0.004676 -0.001036 0.001789 0.002499 0.000000
# 2 -0.004676 0.011691 -0.001036 -0.001789 -0.002499 0.000000
# 3 -0.001036 -0.001036 0.015881 0.000000 0.000000 0.000000
# 4 0.001789 -0.001789 0.000000 0.039964 0.000000 -0.004998
# 5 0.002499 -0.002499 0.000000 0.000000 0.039964 0.003577
# 6 0.000000 0.000000 0.000000 -0.004998 0.003577 0.032733
#
#
# Mechanical properties :
#
#
# Convention : Reuss Voigt Hill
#
# Bulk Modulus (GPa) = 38.81094 43.65009 41.23051
# Shear Modulus (GPa) = 28.73420 30.75101 29.74260
#
# Velocity S-wave (km/s) = 3.79211 3.92293 3.85807
# Velocity P-wave (km/s) = 6.21260 6.50876 6.36240
#
# Compressibility (1/GPa) = 0.02576593
#
# Stress axis : x y z
#
# Youngs Moduli (GPa) = 85.53819 85.53819 62.96843
#
# Poissons Ratio (x) = 0.39994 0.06525
# Poissons Ratio (y) = 0.39994 0.06525
# Poissons Ratio (z) = 0.08864 0.08864
#
# Static dielectric constant tensor:
#      x y z
#    x 3.753240 0.000000 0.000000 
#    y 0.000000 3.753240 0.000000 
#    z 0.000000 0.000000 6.219580 
# 
# 
# High freq. dielectric constant tensor:
#      x y z
#    x 1.783420 0.000000 0.000000 
#    y 0.000000 1.783420 0.000000 
#    z 0.000000 0.000000 1.778090 
# 
# From -- ./inp_files/4012.got.cif
#   From: 2010.03.12/outbox.cif.g09.slc.cpg/sg148_3_cif.got.tgz:4012.got - 2010.04.03 13:38:46.
