data_PCOD8321409
_publ_section_title
;
Structure prediction by ZEFSAII (Michael W. Deem and Ramdas Pophale) SiO2 
 PCOD8321409
Probable space group: P 31
;
_chemical_formula_sum "Si O2"
_cell_formula_units_Z 21
_cell_length_a 9.357214
_cell_length_b 9.357214
_cell_length_c 11.876347
_cell_angle_alpha 90.000000
_cell_angle_beta 90.000000
_cell_angle_gamma 120.000000
_cell_volume 900.547518
_symmetry_space_group_name_H-M "P 31"
_symmetry_group_IT_number 144
_symmetry_cell_setting 'hexagonal'
loop_
_space_group_symop_operation_xyz
x,y,z
-y,x-y,1/3+z
-x+y,-x,2/3+z
loop_
_atom_site_type_symbol
_atom_site_label
_atom_site_fract_x
_atom_site_fract_y
_atom_site_fract_z
Si Si1 0.719301 0.152607 0.816510
Si Si2 0.216200 0.402045 0.598983
Si Si3 0.713407 0.749466 0.299022
Si Si4 0.131180 0.650419 0.497012
Si Si5 0.875680 0.101655 0.622495
Si Si6 0.420032 0.183788 0.840430
Si Si7 0.893137 0.812600 0.699735
O O1 0.762317 0.165131 0.682605
O O2 0.613930 0.243554 0.836641
O O3 0.893355 0.252575 0.878457
O O4 0.611815 0.966018 0.861481
O O5 0.130651 0.483705 0.526717
O O6 0.293061 0.511589 0.709905
O O7 0.070652 0.223451 0.638603
O O8 0.554965 0.763168 0.257458
O O9 0.699991 0.673509 0.422921
O O10 0.858573 0.938428 0.296963
O O11 0.943133 0.608716 0.476108
O O12 0.837146 0.071626 0.489746
O O13 0.818457 0.934409 0.696100
O O14 0.354509 0.125370 0.967031
#
# Coordination Sequence:
#
# PCOD8321409 Si02
#       7
#     3   3   3   3   3   3   3
#     4  12  26  44  78 108 150 194 248 314 379 449
#     4  12  26  46  74 108 152 189 253 319 382 452
#     4  11  22  49  75 101 145 197 243 302 370 458
#     4  11  27  50  74 104 150 199 248 310 384 458
#     4  12  22  43  77 109 141 200 254 301 372 463
#     4  11  26  47  72 108 153 191 242 319 375 443
#     4  11  21  43  78 106 141 196 256 291 366 467
#
# _framework density 23.319147000000001
#
# number of rings (size 3 to 8) (size 9 to 14) (size 15 to 20)
#    0.000    0.571    7.143    0.000    4.000    1.143 
#    5.143    0.000    0.000    0.000    0.000    0.000 
#    0.000    0.000    0.000    0.000    0.000    0.000 
#
# Total GULP energy -260345.529395 kJ/mol
# GULP energy per Si atom -12397.406162 kJ/mol
# Density = 2.326607 g / cm^3
# Si number density = 23.319147 Si / 1000 Ang^3
#
#
#
# Elastic Constant Matrix: (Units=GPa)
#
#
# Indices 1 2 3 4 5 6 
#
# 1 82.9659 25.2931 27.2427 -2.9346 -8.1915 0.0000
# 2 25.2931 82.9659 27.2427 2.9346 8.1915 0.0000
# 3 27.2427 27.2427 141.8621 0.0000 0.0000 0.0000
# 4 -2.9346 2.9346 0.0000 29.7351 0.0000 8.1915
# 5 -8.1915 8.1915 0.0000 0.0000 29.7351 -2.9346
# 6 0.0000 0.0000 0.0000 8.1915 -2.9346 28.8364
#
#
#
# Elastic Compliance Matrix: (Units=1/GPa)
#
#
# Indices 1 2 3 4 5 6 
#
# 1 0.014622 -0.004397 -0.001964 0.001877 0.005239 0.000000
# 2 -0.004397 0.014622 -0.001964 -0.001877 -0.005239 0.000000
# 3 -0.001964 -0.001964 0.007803 0.000000 0.000000 0.000000
# 4 0.001877 -0.001877 0.000000 0.036887 0.000000 -0.010479
# 5 0.005239 -0.005239 0.000000 0.000000 0.036887 0.003754
# 6 0.000000 0.000000 0.000000 -0.010479 0.003754 0.038037
#
#
# Mechanical properties :
#
#
# Convention : Reuss Voigt Hill
#
# Bulk Modulus (GPa) = 49.02088 51.92787 50.47438
# Shear Modulus (GPa) = 29.01800 32.86232 30.94016
#
# Velocity S-wave (km/s) = 3.53141 3.75806 3.64650
# Velocity P-wave (km/s) = 6.13964 6.41462 6.27864
#
# Compressibility (1/GPa) = 0.02039947
#
# Stress axis : x y z
#
# Youngs Moduli (GPa) = 68.39025 68.39025 128.15124
#
# Poissons Ratio (x) = 0.30068 0.25164
# Poissons Ratio (y) = 0.30068 0.25164
# Poissons Ratio (z) = 0.13429 0.13429
#
# Static dielectric constant tensor:
#      x y z
#    x 4.001940 0.000000 0.000000 
#    y 0.000000 4.001940 0.000000 
#    z 0.000000 0.000000 4.293750 
# 
# 
# High freq. dielectric constant tensor:
#      x y z
#    x 1.910930 0.000000 0.000000 
#    y 0.000000 1.910930 0.000000 
#    z 0.000000 0.000000 1.934430 
# 
# From -- ./inp_files/601.got.cif
#   From: 2010.03.12/outbox.cif.g09.slc.cpg/sg144_cif.got.tgz:601.got - 2010.04.03 13:34:42.
