data_PCOD8321046
_publ_section_title
;
Structure prediction by ZEFSAII (Michael W. Deem and Ramdas Pophale) SiO2 
 PCOD8321046
Probable space group: I 41/A C D
;
_chemical_formula_sum "Si O2"
_cell_formula_units_Z 240
_cell_length_a 20.540455
_cell_length_b 20.540455
_cell_length_c 29.296220
_cell_angle_alpha 90.000000
_cell_angle_beta 90.000000
_cell_angle_gamma 90.000000
_cell_volume 12360.376723
_symmetry_space_group_name_H-M "I 41/A C D"
_symmetry_group_IT_number 142
_space_group.IT_coordinate_system_code '2'
_symmetry_cell_setting 'tetragonal'
loop_
_space_group_symop_operation_xyz
x,y,z
1/4-y,3/4+x,1/4+z
-x,1/2-y,z
1/4+y,1/4-x,3/4+z
x,-y,1/2-z
1/2-x,y,-z
3/4+y,1/4+x,1/4-z
1/4-y,1/4-x,1/4-z
-x,-y,-z
3/4+y,1/4-x,3/4-z
x,1/2+y,-z
3/4-y,3/4+x,1/4-z
-x,y,1/2+z
1/2+x,-y,z
1/4-y,3/4-x,3/4+z
3/4+y,3/4+x,3/4+z
1/2+x,1/2+y,1/2+z
3/4-y,1/4+x,3/4+z
1/2-x,-y,1/2+z
3/4+y,3/4-x,1/4+z
1/2+x,1/2-y,-z
-x,1/2+y,1/2-z
1/4+y,3/4+x,3/4-z
3/4-y,3/4-x,3/4-z
1/2-x,1/2-y,1/2-z
1/4+y,3/4-x,1/4-z
1/2+x,y,1/2-z
1/4-y,1/4+x,3/4-z
1/2-x,1/2+y,z
x,1/2-y,1/2+z
3/4-y,1/4-x,1/4+z
1/4+y,1/4+x,1/4+z
loop_
_atom_site_type_symbol
_atom_site_label
_atom_site_fract_x
_atom_site_fract_y
_atom_site_fract_z
Si Si1 0.959845 0.350632 0.166472
Si Si2 0.040881 0.144045 0.440793
Si Si3 0.123917 0.451937 0.812888
Si Si4 0.663535 0.904820 0.034126
Si Si5 0.495000 0.986039 0.636517
Si Si6 0.149206 0.172001 0.370770
Si Si7 0.443533 0.006514 0.536957
Si Si8 0.500000 0.250000 0.761397
O O1 0.950090 0.299911 0.125000
O O2 0.888167 0.375102 0.179456
O O3 0.006045 0.412190 0.153858
O O4 0.992409 0.314109 0.208448
O O5 0.093203 0.179883 0.408913
O O6 0.077566 0.081757 0.461556
O O7 0.013391 0.188131 0.480562
O O8 0.977425 0.118048 0.415202
O O9 0.171172 0.515201 0.806125
O O10 0.114590 0.419799 0.763147
O O11 0.054482 0.475700 0.830626
O O12 0.152437 0.399790 0.848735
O O13 0.622569 0.969447 0.023228
O O14 0.561910 0.028051 0.639317
O O15 0.467976 0.980099 0.585430
O O16 0.500000 0.000000 0.500000
#
# Coordination Sequence:
#
# PCOD8321046 Si02
#       8
#    32  32  32  32  32  32  32  16
#     4  11  22  40  62  85 117 164 210 262 304 378
#     4  11  24  36  64  93 128 163 203 267 322 385
#     4  10  20  37  58  96 120 163 204 264 312 381
#     4  10  21  36  65  88 120 155 216 257 308 375
#     4  10  22  37  64  91 122 160 211 258 317 377
#     4  11  19  39  59  95 131 158 204 263 335 380
#     4  11  20  38  62  95 121 158 205 260 319 373
#     4  12  25  39  58  88 122 166 210 253 315 374
#
# _framework density 19.416884
#
# number of rings (size 3 to 8) (size 9 to 14) (size 15 to 20)
#    0.000    1.333    4.000    4.200    1.867    0.000 
#    0.000    0.000    5.867    0.000    0.000    0.000 
#    0.000    0.000    0.000    0.000    0.000    0.000 
#
# Total GULP energy -1487688.821135 kJ/mol
# GULP energy per Si atom -12397.406843 kJ/mol
# Density = 1.937269 g / cm^3
# Si number density = 19.416884 Si / 1000 Ang^3
#
#
#
# Elastic Constant Matrix: (Units=GPa)
#
#
# Indices 1 2 3 4 5 6 
#
# 1 96.4597 46.1811 36.1869 0.0000 0.0000 0.0000
# 2 46.1811 96.4596 36.1866 0.0000 0.0000 0.0000
# 3 36.1869 36.1866 99.0676 0.0000 0.0000 0.0000
# 4 0.0000 0.0000 0.0000 26.2194 0.0000 0.0000
# 5 0.0000 0.0000 0.0000 0.0000 26.2193 0.0000
# 6 0.0000 0.0000 0.0000 0.0000 0.0000 33.1640
#
#
#
# Elastic Compliance Matrix: (Units=1/GPa)
#
#
# Indices 1 2 3 4 5 6 
#
# 1 0.014247 -0.005642 -0.003143 0.000000 0.000000 0.000000
# 2 -0.005642 0.014247 -0.003143 0.000000 0.000000 0.000000
# 3 -0.003143 -0.003143 0.012390 0.000000 0.000000 0.000000
# 4 0.000000 0.000000 0.000000 0.038140 0.000000 0.000000
# 5 0.000000 0.000000 0.000000 0.000000 0.038140 0.000000
# 6 0.000000 0.000000 0.000000 0.000000 0.000000 0.030153
#
#
# Mechanical properties :
#
#
# Convention : Reuss Voigt Hill
#
# Bulk Modulus (GPa) = 58.72662 58.78847 58.75754
# Shear Modulus (GPa) = 28.27238 28.68269 28.47754
#
# Velocity S-wave (km/s) = 3.81999 3.84761 3.83383
# Velocity P-wave (km/s) = 7.05459 7.07683 7.06572
#
# Compressibility (1/GPa) = 0.01702805
#
# Stress axis : x y z
#
# Youngs Moduli (GPa) = 70.18842 70.18849 80.70701
#
# Poissons Ratio (x) = 0.39599 0.25369
# Poissons Ratio (y) = 0.39599 0.25369
# Poissons Ratio (z) = 0.22063 0.22063
#
# Static dielectric constant tensor:
#      x y z
#    x 3.739370 0.000000 0.000000 
#    y 0.000000 3.739370 0.000000 
#    z 0.000000 0.000000 3.738830 
# 
# 
# High freq. dielectric constant tensor:
#      x y z
#    x 1.746090 0.000000 0.000000 
#    y 0.000000 1.746090 0.000000 
#    z 0.000000 0.000000 1.768860 
# 
# From -- ./inp_files/11687.got.cif
#   From: 2010.03.12/outbox.cif.g09.slc.cpg/sg142_6_cif.got.tgz:11687.got - 2010.04.03 13:27:16.
