data_PCOD8321333
_publ_section_title
;
Structure prediction by ZEFSAII (Michael W. Deem and Ramdas Pophale) SiO2 
 PCOD8321333
Probable space group: P 3
;
_chemical_formula_sum "Si O2"
_cell_formula_units_Z 14
_cell_length_a 8.364471
_cell_length_b 8.364471
_cell_length_c 11.730276
_cell_angle_alpha 90.000000
_cell_angle_beta 90.000000
_cell_angle_gamma 120.000000
_cell_volume 710.748287
_symmetry_space_group_name_H-M "P 3"
_symmetry_group_IT_number 143
_symmetry_cell_setting 'hexagonal'
loop_
_space_group_symop_operation_xyz
x,y,z
-y,x-y,z
-x+y,-x,z
loop_
_atom_site_type_symbol
_atom_site_label
_atom_site_fract_x
_atom_site_fract_y
_atom_site_fract_z
Si Si1 0.371785 0.335574 0.475320
Si Si2 0.369544 0.331092 0.054875
Si Si3 0.289042 0.960458 0.391867
Si Si4 0.666666 0.333333 0.630749
Si Si5 0.666668 0.333335 0.899446
Si Si6 0.661916 0.706209 0.138329
O O1 0.198929 0.372803 0.487806
O O2 0.522904 0.494857 0.396476
O O3 0.478075 0.328189 0.589414
O O4 0.270964 0.139158 0.413074
O O5 0.465143 0.527503 0.117128
O O6 0.159465 0.293877 0.042385
O O7 0.361364 0.171805 0.133720
O O8 0.483224 0.338483 0.940783
O O9 0.215813 0.882480 0.265098
O O10 0.666668 0.333334 0.765098
#
# Coordination Sequence:
#
# PCOD8321333 Si02
#       6
#     3   3   3   1   1   3
#     4  10  22  34  56  86 116 154 200 234 284 354
#     4  10  22  34  56  86 116 154 200 234 284 354
#     4  11  19  33  52  84 124 159 187 231 286 352
#     4   9  21  45  64  80 112 153 201 261 298 326
#     4   9  21  45  64  80 112 153 201 261 298 326
#     4  11  19  33  52  84 124 159 187 231 286 352
#
# _framework density 19.697548999999999
#
# number of rings (size 3 to 8) (size 9 to 14) (size 15 to 20)
#    0.000    1.714    0.000    6.429    0.000    0.000 
#    0.000    8.571    0.000    0.000    0.000    0.000 
#    0.000    0.000    0.000    0.000    0.000    0.000 
#
# Total GULP energy -173435.866787 kJ/mol
# GULP energy per Si atom -12388.276199 kJ/mol
# Density = 1.965272 g / cm^3
# Si number density = 19.697549 Si / 1000 Ang^3
#
#
#
# Elastic Constant Matrix: (Units=GPa)
#
#
# Indices 1 2 3 4 5 6 
#
# 1 101.1533 25.3806 45.3224 -0.1586 -0.0003 0.0001
# 2 25.3806 101.1530 45.3227 0.1588 0.0005 0.0003
# 3 45.3224 45.3227 124.4515 0.0003 0.0002 -0.0001
# 4 -0.1586 0.1588 0.0003 19.6946 0.0001 0.0004
# 5 -0.0003 0.0005 0.0002 0.0001 19.6946 -0.1587
# 6 0.0001 0.0003 -0.0001 0.0004 -0.1587 37.8863
#
#
#
# Elastic Compliance Matrix: (Units=1/GPa)
#
#
# Indices 1 2 3 4 5 6 
#
# 1 0.011945 -0.001253 -0.003894 0.000106 0.000000 0.000000
# 2 -0.001253 0.011945 -0.003894 -0.000106 0.000000 0.000000
# 3 -0.003894 -0.003894 0.010871 0.000000 0.000000 0.000000
# 4 0.000106 -0.000106 0.000000 0.050777 0.000000 -0.000001
# 5 0.000000 0.000000 0.000000 0.000000 0.050777 0.000213
# 6 0.000000 0.000000 0.000000 -0.000001 0.000213 0.026396
#
#
# Mechanical properties :
#
#
# Convention : Reuss Voigt Hill
#
# Bulk Modulus (GPa) = 59.94980 62.08990 61.01985
# Shear Modulus (GPa) = 26.83078 29.50391 28.16735
#
# Velocity S-wave (km/s) = 3.69472 3.87440 3.78563
# Velocity P-wave (km/s) = 6.97872 7.18364 7.08192
#
# Compressibility (1/GPa) = 0.01668062
#
# Stress axis : x y z
#
# Youngs Moduli (GPa) = 83.71579 83.71536 91.98374
#
# Poissons Ratio (x) = 0.10486 0.35818
# Poissons Ratio (y) = 0.10486 0.35819
# Poissons Ratio (z) = 0.32599 0.32599
#
# Static dielectric constant tensor:
#      x y z
#    x 3.828100 -0.000010 0.000000 
#    y -0.000010 3.828110 -0.000010 
#    z 0.000000 -0.000010 3.010550 
# 
# 
# High freq. dielectric constant tensor:
#      x y z
#    x 1.789140 0.000000 0.000000 
#    y 0.000000 1.789140 0.000000 
#    z 0.000000 0.000000 1.698160 
# 
# From -- ./inp_files/213.got.cif
#   From: 2010.03.12/outbox.cif.g09.slc.cpg/sg143_cif.got.tgz:213.got - 2010.04.03 13:34:35.
