data_PCOD8321761
_publ_section_title
;
Structure prediction by ZEFSAII (Michael W. Deem and Ramdas Pophale) SiO2 
 PCOD8321761
Probable space group: R -3
;
_chemical_formula_sum "Si O2"
_cell_formula_units_Z 114
_cell_length_a 21.510488
_cell_length_b 21.510488
_cell_length_c 13.689721
_cell_angle_alpha 90.000000
_cell_angle_beta 90.000000
_cell_angle_gamma 120.000000
_cell_volume 5485.620447
_symmetry_space_group_name_H-M "R -3"
_symmetry_group_IT_number 148
_symmetry_cell_setting 'hexagonal'
loop_
_space_group_symop_operation_xyz
x,y,z
-y,x-y,z
-x+y,-x,z
-x,-y,-z
y,-x+y,-z
x-y,x,-z
2/3+x,1/3+y,1/3+z
2/3-y,1/3+x-y,1/3+z
2/3-x+y,1/3-x,1/3+z
2/3-x,1/3-y,1/3-z
2/3+y,1/3-x+y,1/3-z
2/3+x-y,1/3+x,1/3-z
1/3+x,2/3+y,2/3+z
1/3-y,2/3+x-y,2/3+z
1/3-x+y,2/3-x,2/3+z
1/3-x,2/3-y,2/3-z
1/3+y,2/3-x+y,2/3-z
1/3+x-y,2/3+x,2/3-z
loop_
_atom_site_type_symbol
_atom_site_label
_atom_site_fract_x
_atom_site_fract_y
_atom_site_fract_z
Si Si1 0.427984 0.294628 0.407341
Si Si2 0.738958 0.832193 0.814934
Si Si3 0.857310 0.097916 0.762310
Si Si4 0.000000 0.000000 0.888138
Si Si5 0.757454 0.163062 0.767209
Si Si6 0.867132 0.847237 0.119337
Si Si7 0.402976 0.141602 0.933051
O O1 0.429848 0.360824 0.466903
O O2 0.441552 0.245199 0.481909
O O3 0.487831 0.325587 0.320685
O O4 0.346094 0.248441 0.372451
O O5 0.666667 0.833334 0.833334
O O6 0.804542 0.895681 0.870984
O O7 0.766848 0.841509 0.704459
O O8 0.792679 0.113880 0.749388
O O9 0.898433 0.118773 0.658609
O O10 0.823332 0.014863 0.792936
O O11 0.076362 0.068838 0.860325
O O12 0.000000 0.000000 0.000000
O O13 0.793422 0.209848 0.862959
O O14 0.672999 0.110168 0.783042
#
# Coordination Sequence:
#
# PCOD8321761 Si02
#       7
#    18  18  18   6  18  18  18
#     4  11  23  43  67  97 136 168 217 280 336 398
#     4  12  25  43  64 102 134 169 222 281 336 397
#     4  10  22  44  66  95 131 177 216 270 334 402
#     4  12  24  39  66  96 130 182 211 261 327 411
#     4  10  24  44  68  94 131 177 225 274 332 396
#     4  12  25  41  68  99 137 176 220 268 341 404
#     4  11  25  45  70  98 131 177 223 282 331 401
#
# _framework density 20.781606
#
# number of rings (size 3 to 8) (size 9 to 14) (size 15 to 20)
#    0.000    0.947    3.158    3.789    6.632    0.000 
#    0.000    0.000    0.000    0.316    0.000    0.000 
#    0.000    0.000    0.000    0.000    0.000    0.000 
#
# Total GULP energy -470913.701115 kJ/mol
# GULP energy per Si atom -12392.465819 kJ/mol
# Density = 2.073431 g / cm^3
# Si number density = 20.781606 Si / 1000 Ang^3
#
#
#
# Elastic Constant Matrix: (Units=GPa)
#
#
# Indices 1 2 3 4 5 6 
#
# 1 90.0338 32.7919 32.5388 -2.2147 -3.1236 0.0000
# 2 32.7919 90.0338 32.5388 2.2147 3.1236 0.0000
# 3 32.5388 32.5388 113.8952 0.0000 0.0000 0.0000
# 4 -2.2147 2.2147 0.0000 35.6928 0.0000 3.1236
# 5 -3.1236 3.1236 0.0000 0.0000 35.6928 -2.2147
# 6 0.0000 0.0000 0.0000 3.1236 -2.2147 28.6209
#
#
#
# Elastic Compliance Matrix: (Units=1/GPa)
#
#
# Indices 1 2 3 4 5 6 
#
# 1 0.013659 -0.004065 -0.002741 0.001100 0.001551 0.000000
# 2 -0.004065 0.013659 -0.002741 -0.001100 -0.001551 0.000000
# 3 -0.002741 -0.002741 0.010346 0.000000 0.000000 0.000000
# 4 0.001100 -0.001100 0.000000 0.028425 0.000000 -0.003102
# 5 0.001551 -0.001551 0.000000 0.000000 0.028425 0.002199
# 6 0.000000 0.000000 0.000000 -0.003102 0.002199 0.035448
#
#
# Mechanical properties :
#
#
# Convention : Reuss Voigt Hill
#
# Bulk Modulus (GPa) = 53.84952 54.41133 54.13042
# Shear Modulus (GPa) = 32.20700 33.07417 32.64058
#
# Velocity S-wave (km/s) = 3.94100 3.99370 3.96744
# Velocity P-wave (km/s) = 6.83206 6.89242 6.86231
#
# Compressibility (1/GPa) = 0.01857027
#
# Stress axis : x y z
#
# Youngs Moduli (GPa) = 73.21196 73.21196 96.65497
#
# Poissons Ratio (x) = 0.29762 0.26492
# Poissons Ratio (y) = 0.29762 0.26492
# Poissons Ratio (z) = 0.20066 0.20066
#
# Static dielectric constant tensor:
#      x y z
#    x 3.723020 0.000000 0.000000 
#    y 0.000000 3.723020 0.000000 
#    z 0.000000 0.000000 3.781590 
# 
# 
# High freq. dielectric constant tensor:
#      x y z
#    x 1.813840 0.000000 0.000000 
#    y 0.000000 1.813840 0.000000 
#    z 0.000000 0.000000 1.819220 
# 
# From -- ./inp_files/2134.got.cif
#   From: 2010.03.12/outbox.cif.g09.slc.cpg/sg148_2_cif.got.tgz:2134.got - 2010.04.03 13:38:46.
