data_PCOD8321202
_publ_section_title
;
Structure prediction by ZEFSAII (Michael W. Deem and Ramdas Pophale) SiO2 
 PCOD8321202
Probable space group: I 41/A C D
;
_chemical_formula_sum "Si O2"
_cell_formula_units_Z 96
_cell_length_a 12.824147
_cell_length_b 12.824147
_cell_length_c 26.257307
_cell_angle_alpha 90.000000
_cell_angle_beta 90.000000
_cell_angle_gamma 90.000000
_cell_volume 4318.243790
_symmetry_space_group_name_H-M "I 41/A C D"
_symmetry_group_IT_number 142
_space_group.IT_coordinate_system_code '2'
_symmetry_cell_setting 'tetragonal'
loop_
_space_group_symop_operation_xyz
x,y,z
1/4-y,3/4+x,1/4+z
-x,1/2-y,z
1/4+y,1/4-x,3/4+z
x,-y,1/2-z
1/2-x,y,-z
3/4+y,1/4+x,1/4-z
1/4-y,1/4-x,1/4-z
-x,-y,-z
3/4+y,1/4-x,3/4-z
x,1/2+y,-z
3/4-y,3/4+x,1/4-z
-x,y,1/2+z
1/2+x,-y,z
1/4-y,3/4-x,3/4+z
3/4+y,3/4+x,3/4+z
1/2+x,1/2+y,1/2+z
3/4-y,1/4+x,3/4+z
1/2-x,-y,1/2+z
3/4+y,3/4-x,1/4+z
1/2+x,1/2-y,-z
-x,1/2+y,1/2-z
1/4+y,3/4+x,3/4-z
3/4-y,3/4-x,3/4-z
1/2-x,1/2-y,1/2-z
1/4+y,3/4-x,1/4-z
1/2+x,y,1/2-z
1/4-y,1/4+x,3/4-z
1/2-x,1/2+y,z
x,1/2-y,1/2+z
3/4-y,1/4-x,1/4+z
1/4+y,1/4+x,1/4+z
loop_
_atom_site_type_symbol
_atom_site_label
_atom_site_fract_x
_atom_site_fract_y
_atom_site_fract_z
Si Si1 0.765939 0.124917 0.838969
Si Si2 0.193875 0.740570 0.069952
Si Si3 0.932363 0.653065 0.774778
O O1 0.808590 0.223297 0.871372
O O2 0.686995 0.162001 0.794365
O O3 0.867983 0.077523 0.812697
O O4 0.710021 0.039980 0.875000
O O5 0.309030 0.757749 0.050396
O O6 0.112922 0.811274 0.036559
O O7 0.000000 0.750000 0.792984
#
# Coordination Sequence:
#
# PCOD8321202 Si02
#       3
#    32  32  32
#     4  10  24  42  67 101 139 180 240 289 351 420
#     4  10  24  42  67  99 137 180 233 288 354 411
#     4  10  24  44  68 100 139 183 234 286 354 419
#
# _framework density 22.231262000000001
#
# number of rings (size 3 to 8) (size 9 to 14) (size 15 to 20)
#    0.000    2.000    0.000    0.000    9.333   16.667 
#    0.000    0.000    0.000    0.000    0.000    0.000 
#    0.000    0.000    0.000    0.000    0.000    0.000 
#
# Total GULP energy -595056.909196 kJ/mol
# GULP energy per Si atom -12397.018942 kJ/mol
# Density = 2.218066 g / cm^3
# Si number density = 22.231262 Si / 1000 Ang^3
#
#
#
# Elastic Constant Matrix: (Units=GPa)
#
#
# Indices 1 2 3 4 5 6 
#
# 1 112.9965 44.0173 54.9261 0.0000 0.0000 0.0000
# 2 44.0173 112.9963 54.9255 0.0000 0.0000 0.0000
# 3 54.9261 54.9255 102.3199 0.0000 0.0000 0.0000
# 4 0.0000 0.0000 0.0000 15.0353 0.0000 0.0000
# 5 0.0000 0.0000 0.0000 0.0000 15.0348 0.0000
# 6 0.0000 0.0000 0.0000 0.0000 0.0000 34.7064
#
#
#
# Elastic Compliance Matrix: (Units=1/GPa)
#
#
# Indices 1 2 3 4 5 6 
#
# 1 0.012348 -0.002149 -0.005475 0.000000 0.000000 0.000000
# 2 -0.002149 0.012348 -0.005475 0.000000 0.000000 0.000000
# 3 -0.005475 -0.005475 0.015651 0.000000 0.000000 0.000000
# 4 0.000000 0.000000 0.000000 0.066510 0.000000 0.000000
# 5 0.000000 0.000000 0.000000 0.000000 0.066512 0.000000
# 6 0.000000 0.000000 0.000000 0.000000 0.000000 0.028813
#
#
# Mechanical properties :
#
#
# Convention : Reuss Voigt Hill
#
# Bulk Modulus (GPa) = 70.67220 70.67229 70.67224
# Shear Modulus (GPa) = 21.45016 24.58488 23.01752
#
# Velocity S-wave (km/s) = 3.10960 3.32907 3.22120
# Velocity P-wave (km/s) = 6.68965 6.82902 6.75969
#
# Compressibility (1/GPa) = 0.01414984
#
# Stress axis : x y z
#
# Youngs Moduli (GPa) = 80.98273 80.98310 63.89211
#
# Poissons Ratio (x) = 0.17402 0.34982
# Poissons Ratio (y) = 0.17402 0.34981
# Poissons Ratio (z) = 0.44339 0.44339
#
# Static dielectric constant tensor:
#      x y z
#    x 4.050910 0.000000 0.000000 
#    y 0.000000 4.050910 0.000000 
#    z 0.000000 0.000000 4.561880 
# 
# 
# High freq. dielectric constant tensor:
#      x y z
#    x 1.876880 0.000000 0.000000 
#    y 0.000000 1.876880 0.000000 
#    z 0.000000 0.000000 1.876510 
# 
# From -- ./inp_files/12066.got.cif
#   From: 2010.03.12/outbox.cif.g09.slc.cpg/sg142_7_cif.got.tgz:12066.got - 2010.04.03 13:27:16.
