data_PCOD8321663
_publ_section_title
;
Structure prediction by ZEFSAII (Michael W. Deem and Ramdas Pophale) SiO2 
 PCOD8321663
Probable space group: P -3
;
_chemical_formula_sum "Si O2"
_cell_formula_units_Z 14
_cell_length_a 5.112971
_cell_length_b 5.112971
_cell_length_c 29.595632
_cell_angle_alpha 90.000000
_cell_angle_beta 90.000000
_cell_angle_gamma 120.000000
_cell_volume 670.046448
_symmetry_space_group_name_H-M "P -3"
_symmetry_group_IT_number 147
_symmetry_cell_setting 'hexagonal'
loop_
_space_group_symop_operation_xyz
x,y,z
-y,x-y,z
-x+y,-x,z
-x,-y,-z
y,-x+y,-z
x-y,x,-z
loop_
_atom_site_type_symbol
_atom_site_label
_atom_site_fract_x
_atom_site_fract_y
_atom_site_fract_z
Si Si1 0.666668 0.333334 0.018455
Si Si2 0.000000 0.000000 0.446511
Si Si3 0.666668 0.333335 0.125493
Si Si4 0.000000 0.000000 0.730572
Si Si5 0.666668 0.333335 0.411461
Si Si6 0.666667 0.333335 0.304456
Si Si7 0.000000 0.000000 0.837602
O O1 0.666668 0.333334 0.071974
O O2 0.500000 0.500000 0.000000
O O3 0.898779 0.666653 0.428991
O O4 0.000000 0.000000 0.500000
O O5 0.833578 0.666703 0.143934
O O6 0.666705 0.767760 0.713050
O O7 0.000000 0.000000 0.784081
O O8 0.666668 0.333334 0.357958
#
# Coordination Sequence:
#
# PCOD8321663 Si02
#       7
#     2   2   2   2   2   2   2
#     4  12  24  43  67  96 129 168 211 262 318 378
#     4  12  25  44  67  96 129 168 211 260 316 378
#     4  12  25  43  66  96 129 168 213 262 316 378
#     4  12  25  43  66  94 128 169 213 262 316 375
#     4  12  24  43  67  96 129 168 211 262 315 375
#     4  12  25  43  66  96 129 168 213 262 316 375
#     4  12  24  43  65  94 129 169 212 262 315 375
#
# _framework density 20.894069999999999
#
# number of rings (size 3 to 8) (size 9 to 14) (size 15 to 20)
#    0.000    0.000    0.000   12.000    0.000    0.000 
#    0.000    0.000    0.000    0.000    0.000    0.000 
#    0.000    0.000    0.000    0.000    0.000    0.000 
#
# Total GULP energy -173723.639611 kJ/mol
# GULP energy per Si atom -12408.831401 kJ/mol
# Density = 2.084651 g / cm^3
# Si number density = 20.894070 Si / 1000 Ang^3
#
#
#
# Elastic Constant Matrix: (Units=GPa)
#
#
# Indices 1 2 3 4 5 6 
#
# 1 150.7286 67.2564 70.0748 29.8345 -6.1903 0.0061
# 2 67.2564 150.7294 70.0720 -29.8372 6.1862 -0.0029
# 3 70.0748 70.0720 257.3627 -0.0040 0.0019 0.0006
# 4 29.8345 -29.8372 -0.0040 -72.3939 -0.0217 6.1820
# 5 -6.1903 6.1862 0.0019 -0.0217 -72.7510 29.9492
# 6 0.0061 -0.0029 0.0006 6.1820 29.9492 41.6993
#
#
#
# Elastic Compliance Matrix: (Units=1/GPa)
#
#
# Indices 1 2 3 4 5 6 
#
# 1 0.007363 -0.001802 -0.001514 0.003777 -0.000781 0.000000
# 2 -0.001802 0.007362 -0.001514 -0.003777 0.000781 0.000000
# 3 -0.001514 -0.001514 0.004710 0.000000 0.000000 0.000000
# 4 0.003777 -0.003777 0.000000 -0.010567 0.000004 0.001563
# 5 -0.000781 0.000781 0.000000 0.000004 -0.010506 0.007546
# 6 0.000000 0.000000 0.000000 0.001563 0.007546 0.018330
#
#
# Mechanical properties :
#
#
# Convention : Reuss Voigt Hill
#
# Bulk Modulus (GPa) = 102.29661 108.18078 105.23870
# Shear Modulus (GPa) = 168.85970 2.73871 85.79920
#
# Velocity S-wave (km/s) = 8.99958 1.14613 6.41506
# Velocity P-wave (km/s) = 12.53220 7.32391 10.26391
#
# Compressibility (1/GPa) = 0.00977549
#
# Stress axis : x y z
#
# Youngs Moduli (GPa) = 135.82222 135.82398 212.31124
#
# Poissons Ratio (x) = 0.24470 0.32146
# Poissons Ratio (y) = 0.24470 0.32146
# Poissons Ratio (z) = 0.20565 0.20565
#
# Static dielectric constant tensor:
#      x y z
#    x 3.999060 -0.000010 -0.000010 
#    y -0.000010 3.999050 0.000010 
#    z -0.000010 0.000010 4.165730 
# 
# 
# High freq. dielectric constant tensor:
#      x y z
#    x 1.842350 0.000000 0.000000 
#    y 0.000000 1.842350 0.000000 
#    z 0.000000 0.000000 1.848330 
# 
# From -- ./inp_files/1110.got.cif
#   From: 2010.03.12/outbox.cif.g09.slc.cpg/sg147_cif.got.tgz:1110.got - 2010.04.03 13:37:56.
