data_PCOD8321920
_publ_section_title
;
Structure prediction by ZEFSAII (Michael W. Deem and Ramdas Pophale) SiO2 
 PCOD8321920
Probable space group: P 31 1 2
;
_chemical_formula_sum "Si O2"
_cell_formula_units_Z 42
_cell_length_a 9.344494
_cell_length_b 9.344494
_cell_length_c 29.900444
_cell_angle_alpha 90.000000
_cell_angle_beta 90.000000
_cell_angle_gamma 120.000000
_cell_volume 2261.100406
_symmetry_space_group_name_H-M "P 31 1 2"
_symmetry_group_IT_number 151
_symmetry_cell_setting 'hexagonal'
loop_
_space_group_symop_operation_xyz
x,y,z
-y,x-y,1/3+z
-x+y,-x,2/3+z
-y,-x,2/3-z
-x+y,y,1/3-z
x,x-y,-z
loop_
_atom_site_type_symbol
_atom_site_label
_atom_site_fract_x
_atom_site_fract_y
_atom_site_fract_z
Si Si1 0.459698 0.364198 0.440095
Si Si2 0.087724 0.673825 0.723852
Si Si3 0.605464 0.015583 0.872395
Si Si4 0.266686 0.533372 0.666667
Si Si5 0.207868 0.191464 0.367288
Si Si6 0.260437 0.130219 0.000000
Si Si7 0.735781 0.685773 0.396397
Si Si8 0.733964 0.890830 0.070045
O O1 0.428468 0.431995 0.486402
O O2 0.302088 0.312838 0.408416
O O3 0.623773 0.505786 0.416928
O O4 0.480712 0.206200 0.448072
O O5 0.047208 0.562029 0.767178
O O6 0.198088 0.646808 0.686952
O O7 0.188898 0.860025 0.742236
O O8 0.912873 0.633148 0.700969
O O9 0.682706 0.899446 0.884443
O O10 0.279081 0.424173 0.706851
O O11 0.325285 0.258724 0.323892
O O12 0.036501 0.187747 0.361333
O O13 0.169497 0.006227 0.373721
O O14 0.918397 0.757766 0.417161
#
# Coordination Sequence:
#
# PCOD8321920 Si02
#       8
#     6   6   6   3   6   3   6   6
#     4  10  22  37  61  79 116 155 197 235 288 350
#     4  10  22  35  56  86 122 146 186 246 295 338
#     4   9  22  43  53  80 118 159 191 233 293 359
#     4  10  19  34  54  81 124 154 172 232 305 348
#     4  10  17  35  58  88 112 138 194 244 283 335
#     4  10  19  34  54  87 118 138 186 246 297 328
#     4  11  20  34  62  92 108 147 199 249 281 346
#     4  10  17  37  62  80 113 152 196 229 286 358
#
# _framework density 18.575028
#
# number of rings (size 3 to 8) (size 9 to 14) (size 15 to 20)
#    0.000    2.000    4.286    0.429    4.000    1.714 
#    2.571    1.429    0.000    0.000    0.000    0.000 
#    0.000    0.000    0.000    0.000    0.000    0.000 
#
# Total GULP energy -520754.885774 kJ/mol
# GULP energy per Si atom -12398.925852 kJ/mol
# Density = 1.853275 g / cm^3
# Si number density = 18.575028 Si / 1000 Ang^3
#
#
#
# Elastic Constant Matrix: (Units=GPa)
#
#
# Indices 1 2 3 4 5 6 
#
# 1 101.2389 47.1189 45.4930 0.0000 2.7318 0.0000
# 2 47.1189 101.2389 45.4930 0.0000 -2.7318 0.0000
# 3 45.4930 45.4930 109.5727 0.0000 0.0000 0.0000
# 4 0.0000 0.0000 0.0000 20.0463 0.0000 -2.7318
# 5 2.7318 -2.7318 0.0000 0.0000 20.0463 0.0000
# 6 0.0000 0.0000 0.0000 -2.7318 0.0000 27.0600
#
#
#
# Elastic Compliance Matrix: (Units=1/GPa)
#
#
# Indices 1 2 3 4 5 6 
#
# 1 0.013889 -0.004846 -0.003755 0.000000 -0.002553 0.000000
# 2 -0.004846 0.013889 -0.003755 0.000000 0.002553 0.000000
# 3 -0.003755 -0.003755 0.012244 0.000000 0.000000 0.000000
# 4 0.000000 0.000000 0.000000 0.050580 0.000000 0.005106
# 5 -0.002553 0.002553 0.000000 0.000000 0.050580 0.000000
# 6 0.000000 0.000000 0.000000 0.005106 0.000000 0.037470
#
#
# Mechanical properties :
#
#
# Convention : Reuss Voigt Hill
#
# Bulk Modulus (GPa) = 65.30835 65.36225 65.33530
# Shear Modulus (GPa) = 23.98451 25.02688 24.50569
#
# Velocity S-wave (km/s) = 3.59726 3.67460 3.63613
# Velocity P-wave (km/s) = 7.24495 7.29850 7.27177
#
# Compressibility (1/GPa) = 0.01531198
#
# Stress axis : x y z
#
# Youngs Moduli (GPa) = 71.99860 71.99860 81.67240
#
# Poissons Ratio (x) = 0.34891 0.30664
# Poissons Ratio (y) = 0.34891 0.30664
# Poissons Ratio (z) = 0.27032 0.27032
#
# Static dielectric constant tensor:
#      x y z
#    x 3.410240 0.000000 0.000000 
#    y 0.000000 3.410240 0.000000 
#    z 0.000000 0.000000 3.465990 
# 
# 
# High freq. dielectric constant tensor:
#      x y z
#    x 1.717980 0.000000 0.000000 
#    y 0.000000 1.717980 0.000000 
#    z 0.000000 0.000000 1.710080 
# 
# From -- ./inp_files/5074.got.cif
#   From: 2010.03.12/outbox.cif.g09.slc.cpg/sg151_3_cif.got.tgz:5074.got - 2010.04.03 13:42:29.
