data_PCOD8321792
_publ_section_title
;
Structure prediction by ZEFSAII (Michael W. Deem and Ramdas Pophale) SiO2 
 PCOD8321792
Probable space group: R -3
;
_chemical_formula_sum "Si O2"
_cell_formula_units_Z 84
_cell_length_a 14.047757
_cell_length_b 14.047757
_cell_length_c 25.035478
_cell_angle_alpha 90.000000
_cell_angle_beta 90.000000
_cell_angle_gamma 120.000000
_cell_volume 4278.588226
_symmetry_space_group_name_H-M "R -3"
_symmetry_group_IT_number 148
_symmetry_cell_setting 'hexagonal'
loop_
_space_group_symop_operation_xyz
x,y,z
-y,x-y,z
-x+y,-x,z
-x,-y,-z
y,-x+y,-z
x-y,x,-z
2/3+x,1/3+y,1/3+z
2/3-y,1/3+x-y,1/3+z
2/3-x+y,1/3-x,1/3+z
2/3-x,1/3-y,1/3-z
2/3+y,1/3-x+y,1/3-z
2/3+x-y,1/3+x,1/3-z
1/3+x,2/3+y,2/3+z
1/3-y,2/3+x-y,2/3+z
1/3-x+y,2/3-x,2/3+z
1/3-x,2/3-y,2/3-z
1/3+y,2/3-x+y,2/3-z
1/3+x-y,2/3+x,2/3-z
loop_
_atom_site_type_symbol
_atom_site_label
_atom_site_fract_x
_atom_site_fract_y
_atom_site_fract_z
Si Si1 0.940916 0.682539 0.558608
Si Si2 0.783031 0.208322 0.084054
Si Si3 0.052455 0.358725 0.222376
Si Si4 0.216943 0.794714 0.042767
Si Si5 0.000000 0.000000 0.377721
Si Si6 0.000000 0.000000 0.748329
O O1 0.933410 0.564938 0.558360
O O2 0.824203 0.677046 0.570712
O O3 0.988667 0.738781 0.501614
O O4 0.031590 0.749505 0.603957
O O5 0.695424 0.243582 0.102034
O O6 0.730748 0.088486 0.110302
O O7 0.792749 0.202232 0.020487
O O8 0.027339 0.429140 0.265398
O O9 0.264025 0.719650 0.065917
O O10 0.000000 0.000000 0.314812
#
# Coordination Sequence:
#
# PCOD8321792 Si02
#       6
#    18  18  18  18   6   6
#     4  12  24  40  62  90 127 162 198 252 311 362
#     4  11  23  40  61  89 123 162 208 248 293 362
#     4  12  24  40  62  90 127 162 198 252 311 362
#     4  11  22  37  63  95 124 155 198 252 309 364
#     4   9  18  30  55  94 123 144 183 241 307 366
#     4   9  18  33  57  88 112 147 202 253 285 336
#
# _framework density 19.632645
#
# number of rings (size 3 to 8) (size 9 to 14) (size 15 to 20)
#    0.000    0.857    6.429    1.929    0.000    1.714 
#    0.000    2.143    0.000    0.857    0.000    3.000 
#    0.000    0.000    0.000    0.000    0.000    0.000 
#
# Total GULP energy -347064.719151 kJ/mol
# GULP energy per Si atom -12395.168541 kJ/mol
# Density = 1.958796 g / cm^3
# Si number density = 19.632645 Si / 1000 Ang^3
#
#
#
# Elastic Constant Matrix: (Units=GPa)
#
#
# Indices 1 2 3 4 5 6 
#
# 1 80.6208 24.7971 8.9476 -1.4412 -2.0798 0.0000
# 2 24.7971 80.6208 8.9476 1.4412 2.0798 0.0000
# 3 8.9476 8.9476 65.4156 0.0000 0.0000 0.0000
# 4 -1.4412 1.4412 0.0000 26.9090 0.0000 2.0798
# 5 -2.0798 2.0798 0.0000 0.0000 26.9090 -1.4412
# 6 0.0000 0.0000 0.0000 2.0798 -1.4412 27.9119
#
#
#
# Elastic Compliance Matrix: (Units=1/GPa)
#
#
# Indices 1 2 3 4 5 6 
#
# 1 0.013890 -0.004178 -0.001328 0.000968 0.001396 0.000000
# 2 -0.004178 0.013890 -0.001328 -0.000968 -0.001396 0.000000
# 3 -0.001328 -0.001328 0.015650 0.000000 0.000000 0.000000
# 4 0.000968 -0.000968 0.000000 0.037482 0.000000 -0.002793
# 5 0.001396 -0.001396 0.000000 0.000000 0.037482 0.001935
# 6 0.000000 0.000000 0.000000 -0.002793 0.001935 0.036135
#
#
# Mechanical properties :
#
#
# Convention : Reuss Voigt Hill
#
# Bulk Modulus (GPa) = 33.60220 34.67130 34.13675
# Shear Modulus (GPa) = 28.07135 28.61028 28.34081
#
# Velocity S-wave (km/s) = 3.78541 3.82158 3.80354
# Velocity P-wave (km/s) = 6.02150 6.09680 6.05926
#
# Compressibility (1/GPa) = 0.02975995
#
# Stress axis : x y z
#
# Youngs Moduli (GPa) = 71.99657 71.99657 63.89665
#
# Poissons Ratio (x) = 0.30080 0.08488
# Poissons Ratio (y) = 0.30080 0.08488
# Poissons Ratio (z) = 0.09564 0.09564
#
# Static dielectric constant tensor:
#      x y z
#    x 3.668280 0.000000 0.000000 
#    y 0.000000 3.668280 0.000000 
#    z 0.000000 0.000000 3.321840 
# 
# 
# High freq. dielectric constant tensor:
#      x y z
#    x 1.766090 0.000000 0.000000 
#    y 0.000000 1.766090 0.000000 
#    z 0.000000 0.000000 1.755990 
# 
# From -- ./inp_files/3652.got.cif
#   From: 2010.03.12/outbox.cif.g09.slc.cpg/sg148_2_cif.got.tgz:3652.got - 2010.04.03 13:38:46.
