data_PCOD8321449
_publ_section_title
;
Structure prediction by ZEFSAII (Michael W. Deem and Ramdas Pophale) SiO2 
 PCOD8321449
Probable space group: P 31
;
_chemical_formula_sum "Si O2"
_cell_formula_units_Z 15
_cell_length_a 8.525172
_cell_length_b 8.525172
_cell_length_c 9.981342
_cell_angle_alpha 90.000000
_cell_angle_beta 90.000000
_cell_angle_gamma 120.000000
_cell_volume 628.240410
_symmetry_space_group_name_H-M "P 31"
_symmetry_group_IT_number 144
_symmetry_cell_setting 'hexagonal'
loop_
_space_group_symop_operation_xyz
x,y,z
-y,x-y,1/3+z
-x+y,-x,2/3+z
loop_
_atom_site_type_symbol
_atom_site_label
_atom_site_fract_x
_atom_site_fract_y
_atom_site_fract_z
Si Si1 0.249864 0.089208 0.974710
Si Si2 0.488418 0.431948 0.599079
Si Si3 0.593818 0.536680 0.298057
Si Si4 0.815267 0.068934 0.588421
Si Si5 0.159936 0.313700 0.770682
O O1 0.457611 0.141711 0.003143
O O2 0.216094 0.180406 0.845084
O O3 0.179666 0.141720 0.104712
O O4 0.133636 0.869896 0.976444
O O5 0.534740 0.530534 0.453037
O O6 0.421866 0.219000 0.601030
O O7 0.331935 0.450428 0.678133
O O8 0.462847 0.334602 0.246707
O O9 0.574429 0.689582 0.214762
O O10 0.989686 0.209562 0.672414
#
# Coordination Sequence:
#
# PCOD8321449 Si02
#       5
#     3   3   3   3   3
#     4  12  25  46  77 108 151 206 255 319 400 475
#     4  12  25  49  79 113 155 205 266 327 403 475
#     4  12  25  49  79 113 155 205 266 327 403 475
#     4  12  25  46  77 108 151 206 255 319 400 475
#     4  12  26  50  76 114 160 206 262 330 402 482
#
# _framework density 23.876211000000001
#
# number of rings (size 3 to 8) (size 9 to 14) (size 15 to 20)
#    0.000    0.000    6.000    4.800    0.000    0.000 
#   10.800    0.000    0.000    0.000    0.000    0.000 
#    0.000    0.000    0.000    0.000    0.000    0.000 
#
# Total GULP energy -185835.793088 kJ/mol
# GULP energy per Si atom -12389.052873 kJ/mol
# Density = 2.382187 g / cm^3
# Si number density = 23.876211 Si / 1000 Ang^3
#
#
#
# Elastic Constant Matrix: (Units=GPa)
#
#
# Indices 1 2 3 4 5 6 
#
# 1 102.1013 28.6332 33.7836 -0.1714 -6.9052 0.0000
# 2 28.6332 102.1013 33.7836 0.1714 6.9052 0.0000
# 3 33.7836 33.7836 125.9167 0.0000 0.0000 0.0000
# 4 -0.1714 0.1714 0.0000 29.0225 0.0000 6.9052
# 5 -6.9052 6.9052 0.0000 0.0000 29.0225 -0.1714
# 6 0.0000 0.0000 0.0000 6.9052 -0.1714 36.7340
#
#
#
# Elastic Compliance Matrix: (Units=1/GPa)
#
#
# Indices 1 2 3 4 5 6 
#
# 1 0.011565 -0.002684 -0.002383 0.000084 0.003390 0.000000
# 2 -0.002684 0.011565 -0.002383 -0.000084 -0.003390 0.000000
# 3 -0.002383 -0.002383 0.009220 0.000000 0.000000 0.000000
# 4 0.000084 -0.000084 0.000000 0.036070 0.000000 -0.006780
# 5 0.003390 -0.003390 0.000000 0.000000 0.036070 0.000168
# 6 0.000000 0.000000 0.000000 -0.006780 0.000168 0.028498
#
#
# Mechanical properties :
#
#
# Convention : Reuss Voigt Hill
#
# Bulk Modulus (GPa) = 57.30423 58.05776 57.68100
# Shear Modulus (GPa) = 32.52994 34.55040 33.54017
#
# Velocity S-wave (km/s) = 3.69513 3.80816 3.75207
# Velocity P-wave (km/s) = 6.50061 6.61098 6.55603
#
# Compressibility (1/GPa) = 0.01745072
#
# Stress axis : x y z
#
# Youngs Moduli (GPa) = 86.46946 86.46946 108.45649
#
# Poissons Ratio (x) = 0.23211 0.25841
# Poissons Ratio (y) = 0.23211 0.25841
# Poissons Ratio (z) = 0.20603 0.20603
#
# Static dielectric constant tensor:
#      x y z
#    x 4.275850 0.000000 0.000000 
#    y 0.000000 4.275850 0.000000 
#    z 0.000000 0.000000 4.685090 
# 
# 
# High freq. dielectric constant tensor:
#      x y z
#    x 1.938850 0.000000 0.000000 
#    y 0.000000 1.938850 0.000000 
#    z 0.000000 0.000000 1.970020 
# 
# From -- ./inp_files/224.got.cif
#   From: 2010.03.12/outbox.cif.g09.slc.cpg/sg144_cif.got.tgz:224.got - 2010.04.03 13:34:42.
