data_PCOD8321476
_publ_section_title
;
Structure prediction by ZEFSAII (Michael W. Deem and Ramdas Pophale) SiO2 
 PCOD8321476
Probable space group: P 32
;
_chemical_formula_sum "Si O2"
_cell_formula_units_Z 24
_cell_length_a 7.844847
_cell_length_b 7.844847
_cell_length_c 19.270584
_cell_angle_alpha 90.000000
_cell_angle_beta 90.000000
_cell_angle_gamma 120.000000
_cell_volume 1027.056803
_symmetry_space_group_name_H-M "P 32"
_symmetry_group_IT_number 145
_symmetry_cell_setting 'hexagonal'
loop_
_space_group_symop_operation_xyz
x,y,z
-y,x-y,2/3+z
-x+y,-x,1/3+z
loop_
_atom_site_type_symbol
_atom_site_label
_atom_site_fract_x
_atom_site_fract_y
_atom_site_fract_z
Si Si1 0.547009 0.160843 0.470250
Si Si2 0.029154 0.532674 0.760702
Si Si3 0.109431 0.951469 0.512568
Si Si4 0.239659 0.890425 0.845637
Si Si5 0.673529 0.203905 0.619083
Si Si6 0.399700 0.400318 0.280087
Si Si7 0.803080 0.659468 0.045272
Si Si8 0.182307 0.039972 0.046403
O O1 0.569400 0.369727 0.449368
O O2 0.678394 0.172150 0.537049
O O3 0.628984 0.093053 0.405296
O O4 0.327811 0.006316 0.492254
O O5 0.159131 0.664092 0.824132
O O6 0.089917 0.670952 0.690794
O O7 0.076396 0.361453 0.744401
O O8 0.027781 0.788767 0.572977
O O9 0.998561 0.847862 0.442900
O O10 0.085964 0.137977 0.535011
O O11 0.388070 0.924283 0.908455
O O12 0.342881 0.020452 0.778202
O O13 0.772723 0.440303 0.630189
O O14 0.450998 0.104099 0.648399
O O15 0.801015 0.116681 0.654964
O O16 0.968662 0.873260 0.017374
#
# Coordination Sequence:
#
# PCOD8321476 Si02
#       8
#     3   3   3   3   3   3   3   3
#     4  11  22  43  67  97 135 179 227 284 356 410
#     4  10  23  43  66 100 139 177 229 291 350 424
#     4  10  24  42  67 100 137 179 230 291 348 427
#     4  10  23  43  68  97 139 181 230 289 351 429
#     4  11  23  43  71  95 135 187 226 284 360 417
#     4  11  21  43  71  94 136 184 231 280 362 414
#     4  11  22  42  67  96 135 178 229 288 347 428
#     4  10  22  43  65  97 138 179 226 289 352 419
#
# _framework density 23.367742
#
# number of rings (size 3 to 8) (size 9 to 14) (size 15 to 20)
#    0.000    1.500    3.750    1.500    3.500    4.000 
#    9.000    0.000    0.000    0.000    0.000    0.000 
#    0.000    0.000    0.000    0.000    0.000    0.000 
#
# Total GULP energy -297409.204371 kJ/mol
# GULP energy per Si atom -12392.050182 kJ/mol
# Density = 2.331456 g / cm^3
# Si number density = 23.367742 Si / 1000 Ang^3
#
#
#
# Elastic Constant Matrix: (Units=GPa)
#
#
# Indices 1 2 3 4 5 6 
#
# 1 85.5269 -7.7827 30.7745 -23.2272 13.2445 0.0000
# 2 -7.7827 85.5269 30.7745 23.2272 -13.2445 0.0000
# 3 30.7745 30.7745 115.7820 0.0000 0.0000 0.0000
# 4 -23.2272 23.2272 0.0000 80.1579 0.0000 -13.2445
# 5 13.2445 -13.2445 0.0000 0.0000 80.1579 -23.2272
# 6 0.0000 0.0000 0.0000 -13.2445 -23.2272 46.6548
#
#
#
# Elastic Compliance Matrix: (Units=1/GPa)
#
#
# Indices 1 2 3 4 5 6 
#
# 1 0.014770 0.001520 -0.004330 0.003839 -0.002189 0.000000
# 2 0.001520 0.014770 -0.004330 -0.003839 0.002189 0.000000
# 3 -0.004330 -0.004330 0.010939 0.000000 0.000000 0.000000
# 4 0.003839 -0.003839 0.000000 0.015424 0.000000 0.004379
# 5 -0.002189 0.002189 0.000000 0.000000 0.015424 0.007679
# 6 0.000000 0.000000 0.000000 0.004379 0.007679 0.026500
#
#
# Mechanical properties :
#
#
# Convention : Reuss Voigt Hill
#
# Bulk Modulus (GPa) = 38.16783 43.81869 40.99326
# Shear Modulus (GPa) = 41.37703 56.93208 49.15456
#
# Velocity S-wave (km/s) = 4.21252 4.94130 4.59139
# Velocity P-wave (km/s) = 6.32688 7.16573 6.75933
#
# Compressibility (1/GPa) = 0.02620007
#
# Stress axis : x y z
#
# Youngs Moduli (GPa) = 67.70324 67.70324 91.41831
#
# Poissons Ratio (x) = -0.10293 0.39584
# Poissons Ratio (y) = -0.10293 0.39584
# Poissons Ratio (z) = 0.29316 0.29316
#
# Static dielectric constant tensor:
#      x y z
#    x 3.259120 0.000000 0.000000 
#    y 0.000000 3.259120 0.000000 
#    z 0.000000 0.000000 4.402950 
# 
# 
# High freq. dielectric constant tensor:
#      x y z
#    x 1.916030 0.000000 0.000000 
#    y 0.000000 1.916030 0.000000 
#    z 0.000000 0.000000 1.941020 
# 
# From -- ./inp_files/869.got.cif
#   From: 2010.03.12/outbox.cif.g09.slc.cpg/sg145_cif.got.tgz:869.got - 2010.04.03 13:35:35.
