data_PCOD8321798
_publ_section_title
;
Structure prediction by ZEFSAII (Michael W. Deem and Ramdas Pophale) SiO2 
 PCOD8321798
Probable space group: R -3
;
_chemical_formula_sum "Si O2"
_cell_formula_units_Z 102
_cell_length_a 18.697765
_cell_length_b 18.697765
_cell_length_c 14.529320
_cell_angle_alpha 90.000000
_cell_angle_beta 90.000000
_cell_angle_gamma 120.000000
_cell_volume 4399.013704
_symmetry_space_group_name_H-M "R -3"
_symmetry_group_IT_number 148
_symmetry_cell_setting 'hexagonal'
loop_
_space_group_symop_operation_xyz
x,y,z
-y,x-y,z
-x+y,-x,z
-x,-y,-z
y,-x+y,-z
x-y,x,-z
2/3+x,1/3+y,1/3+z
2/3-y,1/3+x-y,1/3+z
2/3-x+y,1/3-x,1/3+z
2/3-x,1/3-y,1/3-z
2/3+y,1/3-x+y,1/3-z
2/3+x-y,1/3+x,1/3-z
1/3+x,2/3+y,2/3+z
1/3-y,2/3+x-y,2/3+z
1/3-x+y,2/3-x,2/3+z
1/3-x,2/3-y,2/3-z
1/3+y,2/3-x+y,2/3-z
1/3+x-y,2/3+x,2/3-z
loop_
_atom_site_type_symbol
_atom_site_label
_atom_site_fract_x
_atom_site_fract_y
_atom_site_fract_z
Si Si1 0.375994 0.041245 0.213275
Si Si2 0.914069 0.087624 0.634946
Si Si3 0.856300 0.412465 0.171509
Si Si4 0.422442 0.409730 0.262306
Si Si5 0.489529 0.588925 0.219209
Si Si6 0.666667 0.333333 0.442535
Si Si7 0.000000 0.000000 0.391426
O O1 0.461365 0.121586 0.182822
O O2 0.339614 0.069013 0.296587
O O3 0.310703 0.001614 0.130381
O O4 0.397149 0.973937 0.252078
O O5 0.888309 0.106377 0.733427
O O6 0.846315 0.074995 0.559322
O O7 0.007517 0.152399 0.600573
O O8 0.921065 0.005438 0.645043
O O9 0.907845 0.488278 0.240595
O O10 0.759471 0.374508 0.186873
O O11 0.420392 0.494077 0.243013
O O12 0.666668 0.333335 0.333334
O O13 0.000000 0.000000 0.500000
#
# Coordination Sequence:
#
# PCOD8321798 Si02
#       7
#    18  18  18  18  18   6   6
#     4  11  25  45  67 105 141 192 243 299 362 442
#     4  12  22  41  66 105 140 179 235 303 374 440
#     4  11  27  45  74 103 141 188 254 299 371 436
#     4  11  26  45  70 103 146 191 245 299 370 439
#     4  11  23  41  70  99 143 190 234 299 377 438
#     4  12  25  50  73  94 140 196 249 304 356 445
#     4  12  22  35  61 102 136 167 220 301 365 442
#
# _framework density 23.187014999999999
#
# number of rings (size 3 to 8) (size 9 to 14) (size 15 to 20)
#    0.000    0.706    3.529    3.176    2.471    4.235 
#    0.000    5.294    0.000    0.000    0.000    0.000 
#    0.000    0.000    0.000    0.000    0.000    0.000 
#
# Total GULP energy -421467.236691 kJ/mol
# GULP energy per Si atom -12396.095197 kJ/mol
# Density = 2.313424 g / cm^3
# Si number density = 23.187015 Si / 1000 Ang^3
#
#
#
# Elastic Constant Matrix: (Units=GPa)
#
#
# Indices 1 2 3 4 5 6 
#
# 1 75.0143 11.8862 -6.5529 -1.7423 -1.1931 -0.0001
# 2 11.8862 75.0142 -6.5528 1.7423 1.1932 0.0000
# 3 -6.5529 -6.5528 94.0144 0.0000 -0.0001 0.0000
# 4 -1.7423 1.7423 0.0000 32.6945 0.0000 1.1932
# 5 -1.1931 1.1932 -0.0001 0.0000 32.6945 -1.7423
# 6 -0.0001 0.0000 0.0000 1.1932 -1.7423 31.5640
#
#
#
# Elastic Compliance Matrix: (Units=1/GPa)
#
#
# Indices 1 2 3 4 5 6 
#
# 1 0.013770 -0.002140 0.000811 0.000848 0.000581 0.000000
# 2 -0.002140 0.013770 0.000811 -0.000848 -0.000581 0.000000
# 3 0.000811 0.000811 0.010750 0.000000 0.000000 0.000000
# 4 0.000848 -0.000848 0.000000 0.030719 0.000000 -0.001161
# 5 0.000581 -0.000581 0.000000 0.000000 0.030719 0.001696
# 6 0.000000 0.000000 0.000000 -0.001161 0.001696 0.031819
#
#
# Mechanical properties :
#
#
# Convention : Reuss Voigt Hill
#
# Bulk Modulus (GPa) = 26.84465 26.84488 26.84477
# Shear Modulus (GPa) = 34.48262 35.74143 35.11202
#
# Velocity S-wave (km/s) = 3.86054 3.93038 3.89562
# Velocity P-wave (km/s) = 5.61020 5.67449 5.64244
#
# Compressibility (1/GPa) = 0.03725137
#
# Stress axis : x y z
#
# Youngs Moduli (GPa) = 72.62368 72.62358 93.02618
#
# Poissons Ratio (x) = 0.15541 -0.07541
# Poissons Ratio (y) = 0.15541 -0.07541
# Poissons Ratio (z) = -0.05887 -0.05887
#
# Static dielectric constant tensor:
#      x y z
#    x 4.396570 0.000000 0.000000 
#    y 0.000000 4.396580 0.000000 
#    z 0.000000 0.000000 4.079650 
# 
# 
# High freq. dielectric constant tensor:
#      x y z
#    x 1.923830 0.000000 0.000000 
#    y 0.000000 1.923830 0.000000 
#    z 0.000000 0.000000 1.908990 
# 
# From -- ./inp_files/2085.got.cif
#   From: 2010.03.12/outbox.cif.g09.slc.cpg/sg148_2_cif.got.tgz:2085.got - 2010.04.03 13:38:46.
