data_PCOD8321187
_publ_section_title
;
Structure prediction by ZEFSAII (Michael W. Deem and Ramdas Pophale) SiO2 
 PCOD8321187
Probable space group: I 41/A C D
;
_chemical_formula_sum "Si O2"
_cell_formula_units_Z 136
_cell_length_a 16.084921
_cell_length_b 16.084921
_cell_length_c 25.050966
_cell_angle_alpha 90.000000
_cell_angle_beta 90.000000
_cell_angle_gamma 90.000000
_cell_volume 6481.303252
_symmetry_space_group_name_H-M "I 41/A C D"
_symmetry_group_IT_number 142
_space_group.IT_coordinate_system_code '2'
_symmetry_cell_setting 'tetragonal'
loop_
_space_group_symop_operation_xyz
x,y,z
1/4-y,3/4+x,1/4+z
-x,1/2-y,z
1/4+y,1/4-x,3/4+z
x,-y,1/2-z
1/2-x,y,-z
3/4+y,1/4+x,1/4-z
1/4-y,1/4-x,1/4-z
-x,-y,-z
3/4+y,1/4-x,3/4-z
x,1/2+y,-z
3/4-y,3/4+x,1/4-z
-x,y,1/2+z
1/2+x,-y,z
1/4-y,3/4-x,3/4+z
3/4+y,3/4+x,3/4+z
1/2+x,1/2+y,1/2+z
3/4-y,1/4+x,3/4+z
1/2-x,-y,1/2+z
3/4+y,3/4-x,1/4+z
1/2+x,1/2-y,-z
-x,1/2+y,1/2-z
1/4+y,3/4+x,3/4-z
3/4-y,3/4-x,3/4-z
1/2-x,1/2-y,1/2-z
1/4+y,3/4-x,1/4-z
1/2+x,y,1/2-z
1/4-y,1/4+x,3/4-z
1/2-x,1/2+y,z
x,1/2-y,1/2+z
3/4-y,1/4-x,1/4+z
1/4+y,1/4+x,1/4+z
loop_
_atom_site_type_symbol
_atom_site_label
_atom_site_fract_x
_atom_site_fract_y
_atom_site_fract_z
Si Si1 0.381255 0.986517 0.530186
Si Si2 0.389064 0.860937 0.625000
Si Si3 0.500000 0.750000 0.375000
Si Si4 0.361182 0.500000 0.750000
Si Si5 0.315280 0.812120 0.100123
Si Si6 0.039045 0.421587 0.429952
O O1 0.366905 0.918718 0.575457
O O2 0.386837 0.938280 0.472895
O O3 0.305752 0.049929 0.534970
O O4 0.458458 0.047306 0.539081
O O5 0.483917 0.874265 0.642235
O O6 0.532528 0.675132 0.412977
O O7 0.421548 0.446279 0.787540
O O8 0.357326 0.892675 0.125000
O O9 0.225129 0.800557 0.126509
#
# Coordination Sequence:
#
# PCOD8321187 Si02
#       6
#    32  16   8  16  32  32
#     4  10  23  42  63  95 133 175 219 290 343 409
#     4  10  25  42  68  96 138 175 230 286 348 422
#     4  12  24  40  72  98 132 184 232 292 336 450
#     4  12  24  38  74  96 132 186 228 282 350 430
#     4  11  23  45  67  99 135 183 230 285 353 414
#     4  10  23  44  61  94 135 172 224 282 349 402
#
# _framework density 20.983433000000002
#
# number of rings (size 3 to 8) (size 9 to 14) (size 15 to 20)
#    0.000    1.412    2.353    1.765    1.647    8.471 
#    0.000    0.000    0.000    0.000    0.000    0.000 
#    0.000    0.000    0.000    0.000    0.000    0.000 
#
# Total GULP energy -843194.598255 kJ/mol
# GULP energy per Si atom -12399.920563 kJ/mol
# Density = 2.093567 g / cm^3
# Si number density = 20.983433 Si / 1000 Ang^3
#
#
#
# Elastic Constant Matrix: (Units=GPa)
#
#
# Indices 1 2 3 4 5 6 
#
# 1 95.0357 47.6083 43.2043 0.0000 0.0000 0.0000
# 2 47.6083 95.0279 43.2007 0.0000 0.0000 0.0000
# 3 43.2043 43.2007 112.2482 0.0000 0.0000 0.0000
# 4 0.0000 0.0000 0.0000 11.3312 0.0000 0.0000
# 5 0.0000 0.0000 0.0000 0.0000 11.3395 0.0000
# 6 0.0000 0.0000 0.0000 0.0000 0.0000 21.9963
#
#
#
# Elastic Compliance Matrix: (Units=1/GPa)
#
#
# Indices 1 2 3 4 5 6 
#
# 1 0.015114 -0.005972 -0.003519 0.000000 0.000000 0.000000
# 2 -0.005972 0.015115 -0.003518 0.000000 0.000000 0.000000
# 3 -0.003519 -0.003518 0.011617 0.000000 0.000000 0.000000
# 4 0.000000 0.000000 0.000000 0.088252 0.000000 0.000000
# 5 0.000000 0.000000 0.000000 0.000000 0.088188 0.000000
# 6 0.000000 0.000000 0.000000 0.000000 0.000000 0.045462
#
#
# Mechanical properties :
#
#
# Convention : Reuss Voigt Hill
#
# Bulk Modulus (GPa) = 63.18326 63.37093 63.27709
# Shear Modulus (GPa) = 16.94672 20.15330 18.55001
#
# Velocity S-wave (km/s) = 2.84496 3.10246 2.97649
# Velocity P-wave (km/s) = 6.40063 6.56503 6.48335
#
# Compressibility (1/GPa) = 0.01582698
#
# Stress axis : x y z
#
# Youngs Moduli (GPa) = 66.16450 66.16026 86.07806
#
# Poissons Ratio (x) = 0.39513 0.30289
# Poissons Ratio (y) = 0.39515 0.30286
# Poissons Ratio (z) = 0.23282 0.23278
#
# Static dielectric constant tensor:
#      x y z
#    x 3.832510 0.000000 0.000000 
#    y 0.000000 3.832530 0.000000 
#    z 0.000000 0.000000 5.031120 
# 
# 
# High freq. dielectric constant tensor:
#      x y z
#    x 1.824280 0.000000 0.000000 
#    y 0.000000 1.824280 0.000000 
#    z 0.000000 0.000000 1.828720 
# 
# From -- ./inp_files/8838.got.cif
#   From: 2010.03.12/outbox.cif.g09.slc.cpg/sg142_5_cif.got.tgz:8838.got - 2010.04.03 13:27:16.
