data_PCOD8321472
_publ_section_title
;
Structure prediction by ZEFSAII (Michael W. Deem and Ramdas Pophale) SiO2 
 PCOD8321472
Probable space group: P 32
;
_chemical_formula_sum "Si O2"
_cell_formula_units_Z 18
_cell_length_a 8.987601
_cell_length_b 8.987601
_cell_length_c 11.937901
_cell_angle_alpha 90.000000
_cell_angle_beta 90.000000
_cell_angle_gamma 120.000000
_cell_volume 835.114785
_symmetry_space_group_name_H-M "P 32"
_symmetry_group_IT_number 145
_symmetry_cell_setting 'hexagonal'
loop_
_space_group_symop_operation_xyz
x,y,z
-y,x-y,2/3+z
-x+y,-x,1/3+z
loop_
_atom_site_type_symbol
_atom_site_label
_atom_site_fract_x
_atom_site_fract_y
_atom_site_fract_z
Si Si1 0.283461 0.384640 0.088630
Si Si2 0.384640 0.283461 0.854531
Si Si3 0.002493 0.816461 0.637097
Si Si4 0.377471 0.087613 0.464952
Si Si5 0.816461 0.002494 0.306064
Si Si6 0.087613 0.377470 0.478208
O O1 0.254654 0.239438 0.178856
O O2 0.423753 0.572777 0.132031
O O3 0.108411 0.390575 0.087379
O O4 0.340030 0.340030 0.971580
O O5 0.572777 0.423752 0.811129
O O6 0.239438 0.254653 0.764305
O O7 0.390575 0.108411 0.855782
O O8 0.187030 0.873469 0.694874
O O9 0.849350 0.660002 0.702228
O O10 0.000464 0.000000 0.638247
O O11 0.313561 0.126531 0.581620
O O12 0.660002 0.849351 0.240933
#
# Coordination Sequence:
#
# PCOD8321472 Si02
#       6
#     3   3   3   3   3   3
#     4  11  22  37  62  91 119 150 195 248 293 339
#     4  11  22  37  62  91 119 150 195 248 293 339
#     4   9  20  41  63  84 117 160 197 232 287 356
#     4  10  22  40  61  87 120 155 194 241 291 347
#     4   9  20  41  63  84 117 160 197 232 287 356
#     4  10  22  40  61  87 120 155 194 241 291 347
#
# _framework density 21.553920999999999
#
# number of rings (size 3 to 8) (size 9 to 14) (size 15 to 20)
#    0.000    2.000    0.000    4.000    0.000    9.333 
#    0.000    5.000    0.000    4.000    0.000    0.000 
#    0.000    0.000    0.000    0.000    0.000    0.000 
#
# Total GULP energy -222998.025672 kJ/mol
# GULP energy per Si atom -12388.779204 kJ/mol
# Density = 2.150486 g / cm^3
# Si number density = 21.553921 Si / 1000 Ang^3
#
#
#
# Elastic Constant Matrix: (Units=GPa)
#
#
# Indices 1 2 3 4 5 6 
#
# 1 95.8579 42.0762 36.8200 -8.2186 -0.0001 0.0000
# 2 42.0762 95.8579 36.8200 8.2186 0.0001 0.0000
# 3 36.8200 36.8200 142.2492 0.0000 0.0000 0.0000
# 4 -8.2186 8.2186 0.0000 25.2451 0.0000 0.0001
# 5 -0.0001 0.0001 0.0000 0.0000 25.2451 -8.2186
# 6 0.0000 0.0000 0.0000 0.0001 -8.2186 26.8909
#
#
#
# Elastic Compliance Matrix: (Units=1/GPa)
#
#
# Indices 1 2 3 4 5 6 
#
# 1 0.014530 -0.006118 -0.002177 0.006722 0.000000 0.000000
# 2 -0.006118 0.014530 -0.002177 -0.006722 0.000000 0.000000
# 3 -0.002177 -0.002177 0.008157 0.000000 0.000000 0.000000
# 4 0.006722 -0.006722 0.000000 0.043988 0.000000 0.000000
# 5 0.000000 0.000000 0.000000 0.000000 0.043988 0.013444
# 6 0.000000 0.000000 0.000000 0.000000 0.013444 0.041296
#
#
# Mechanical properties :
#
#
# Convention : Reuss Voigt Hill
#
# Bulk Modulus (GPa) = 61.45533 62.82192 62.13863
# Shear Modulus (GPa) = 25.92548 30.02613 27.97581
#
# Velocity S-wave (km/s) = 3.47193 3.73644 3.60661
# Velocity P-wave (km/s) = 6.68182 6.91551 6.79967
#
# Compressibility (1/GPa) = 0.01627198
#
# Stress axis : x y z
#
# Youngs Moduli (GPa) = 68.82196 68.82196 122.59179
#
# Poissons Ratio (x) = 0.42105 0.26694
# Poissons Ratio (y) = 0.42105 0.26694
# Poissons Ratio (z) = 0.14986 0.14986
#
# Static dielectric constant tensor:
#      x y z
#    x 3.802600 0.000000 0.000000 
#    y 0.000000 3.802600 0.000000 
#    z 0.000000 0.000000 4.069120 
# 
# 
# High freq. dielectric constant tensor:
#      x y z
#    x 1.831500 0.000000 0.000000 
#    y 0.000000 1.831500 0.000000 
#    z 0.000000 0.000000 1.863180 
# 
# From -- ./inp_files/586.got.cif
#   From: 2010.03.12/outbox.cif.g09.slc.cpg/sg145_cif.got.tgz:586.got - 2010.04.03 13:35:35.
