data_PCOD8321836
_publ_section_title
;
Structure prediction by ZEFSAII (Michael W. Deem and Ramdas Pophale) SiO2 
 PCOD8321836
Probable space group: P 3 1 2
;
_chemical_formula_sum "Si O2"
_cell_formula_units_Z 32
_cell_length_a 16.326406
_cell_length_b 16.326406
_cell_length_c 8.890413
_cell_angle_alpha 90.000000
_cell_angle_beta 90.000000
_cell_angle_gamma 120.000000
_cell_volume 2052.266483
_symmetry_space_group_name_H-M "P 3 1 2"
_symmetry_group_IT_number 149
_symmetry_cell_setting 'hexagonal'
loop_
_space_group_symop_operation_xyz
x,y,z
-y,x-y,z
-x+y,-x,z
-y,-x,-z
-x+y,y,-z
x,x-y,-z
loop_
_atom_site_type_symbol
_atom_site_label
_atom_site_fract_x
_atom_site_fract_y
_atom_site_fract_z
Si Si1 0.145662 0.479249 0.825521
Si Si2 0.893492 0.106509 0.178547
Si Si3 0.236886 0.951413 0.676949
Si Si4 0.048587 0.285473 0.323052
Si Si5 0.000000 0.000000 0.821774
Si Si6 0.333586 0.479249 0.825521
O O1 0.073245 0.389646 0.727560
O O2 0.253151 0.506301 0.793084
O O3 0.134092 0.567046 0.774850
O O4 0.120487 0.454527 0.000000
O O5 0.950653 0.212424 0.242592
O O6 0.787576 0.049347 0.242590
O O7 0.889912 0.110089 0.000000
O O8 0.947014 0.052988 0.240220
O O9 0.241939 0.966366 0.500000
O O10 0.133509 0.866491 0.727876
O O11 0.073246 0.389646 0.272441
O O12 0.000000 0.000000 0.000000
#
# Coordination Sequence:
#
# PCOD8321836 Si02
#       6
#     6   6   6   6   2   6
#     4   9  17  30  48  68  90 119 155 193 229 267
#     4  11  19  31  47  65  89 121 159 193 225 264
#     4  10  20  31  43  64  93 123 153 187 228 273
#     4  10  20  31  43  64  93 123 153 187 228 273
#     4   9  18  27  43  65  85 117 157 191 223 258
#     4   9  17  30  48  68  90 119 155 193 229 267
#
# _framework density 15.592518
#
# number of rings (size 3 to 8) (size 9 to 14) (size 15 to 20)
#    0.000    2.250    1.875    2.062    0.000    3.750 
#    0.000    0.000    0.000    2.250    0.000    0.000 
#    1.875    0.000    3.375    0.000    3.375    0.000 
#
# Total GULP energy -396874.592907 kJ/mol
# GULP energy per Si atom -12402.331028 kJ/mol
# Density = 1.555703 g / cm^3
# Si number density = 15.592518 Si / 1000 Ang^3
#
#
#
# Elastic Constant Matrix: (Units=GPa)
#
#
# Indices 1 2 3 4 5 6 
#
# 1 100.2049 48.7993 41.9050 0.0000 0.0000 0.0000
# 2 48.7993 100.2049 41.9050 0.0000 0.0000 0.0000
# 3 41.9050 41.9050 69.0967 0.0000 0.0000 0.0000
# 4 0.0000 0.0000 0.0000 23.2541 0.0000 0.0000
# 5 0.0000 0.0000 0.0000 0.0000 23.2541 0.0000
# 6 0.0000 0.0000 0.0000 0.0000 0.0000 25.7028
#
#
#
# Elastic Compliance Matrix: (Units=1/GPa)
#
#
# Indices 1 2 3 4 5 6 
#
# 1 0.014819 -0.004634 -0.006177 0.000000 0.000000 0.000000
# 2 -0.004634 0.014819 -0.006177 0.000000 0.000000 0.000000
# 3 -0.006177 -0.006177 0.021965 0.000000 0.000000 0.000000
# 4 0.000000 0.000000 0.000000 0.043003 0.000000 0.000000
# 5 0.000000 0.000000 0.000000 0.000000 0.043003 0.000000
# 6 0.000000 0.000000 0.000000 0.000000 0.000000 0.038906
#
#
# Mechanical properties :
#
#
# Convention : Reuss Voigt Hill
#
# Bulk Modulus (GPa) = 56.73002 59.41389 58.07196
# Shear Modulus (GPa) = 23.10864 23.56869 23.33866
#
# Velocity S-wave (km/s) = 3.85390 3.89207 3.87303
# Velocity P-wave (km/s) = 7.50101 7.64097 7.57131
#
# Compressibility (1/GPa) = 0.01762735
#
# Stress axis : x y z
#
# Youngs Moduli (GPa) = 67.47880 67.47880 45.52648
#
# Poissons Ratio (x) = 0.31268 0.28123
# Poissons Ratio (y) = 0.31268 0.28123
# Poissons Ratio (z) = 0.41684 0.41684
#
# Static dielectric constant tensor:
#      x y z
#    x 2.866710 0.000000 0.000000 
#    y 0.000000 2.866710 0.000000 
#    z 0.000000 0.000000 2.889190 
# 
# 
# High freq. dielectric constant tensor:
#      x y z
#    x 1.578470 0.000000 0.000000 
#    y 0.000000 1.578470 0.000000 
#    z 0.000000 0.000000 1.602700 
# 
# From -- ./inp_files/590.got.cif
#   From: 2010.03.12/outbox.cif.g09.slc.cpg/sg149_cif.got.tgz:590.got - 2010.04.03 13:40:41.
