data_PCOD8321559
_publ_section_title
;
Structure prediction by ZEFSAII (Michael W. Deem and Ramdas Pophale) SiO2 
 PCOD8321559
Probable space group: R 3
;
_chemical_formula_sum "Si O2"
_cell_formula_units_Z 60
_cell_length_a 11.715073
_cell_length_b 11.715073
_cell_length_c 28.076304
_cell_angle_alpha 90.000000
_cell_angle_beta 90.000000
_cell_angle_gamma 120.000000
_cell_volume 3337.033497
_symmetry_space_group_name_H-M "R 3"
_symmetry_group_IT_number 146
_symmetry_cell_setting 'hexagonal'
loop_
_space_group_symop_operation_xyz
x,y,z
-y,x-y,z
-x+y,-x,z
2/3+x,1/3+y,1/3+z
2/3-y,1/3+x-y,1/3+z
2/3-x+y,1/3-x,1/3+z
1/3+x,2/3+y,2/3+z
1/3-y,2/3+x-y,2/3+z
1/3-x+y,2/3-x,2/3+z
loop_
_atom_site_type_symbol
_atom_site_label
_atom_site_fract_x
_atom_site_fract_y
_atom_site_fract_z
Si Si1 0.666668 0.333334 0.864419
Si Si2 0.667643 0.068231 0.152289
Si Si3 0.733918 0.734896 0.818955
Si Si4 0.411258 0.329687 0.726017
Si Si5 0.518678 0.481342 0.979764
Si Si6 0.184016 0.368031 0.200412
Si Si7 0.670300 0.588732 0.726017
Si Si8 0.333334 0.666668 0.310247
O O1 0.591761 0.183519 0.846822
O O2 0.666668 0.333334 0.920667
O O3 0.529678 0.059359 0.167784
O O4 0.785826 0.214175 0.163647
O O5 0.670662 0.039593 0.096178
O O6 0.695147 0.964505 0.181192
O O7 0.602689 0.631170 0.847858
O O8 0.702255 0.706254 0.762844
O O9 0.357875 0.292578 0.671473
O O10 0.517857 0.482132 0.729366
O O11 0.472951 0.236473 0.740367
O O12 0.508080 0.491922 0.923766
O O13 0.593551 0.406514 0.996326
O O14 0.601371 0.625935 0.004805
#
# Coordination Sequence:
#
# PCOD8321559 Si02
#       8
#     3   9   9   9   9   9   9   3
#     4   9  18  33  66  84 108 150 204 255 288 357
#     4  11  23  38  60  87 121 159 200 247 306 367
#     4  11  23  38  60  87 121 159 200 247 306 367
#     4   9  19  35  56  83 111 152 200 244 291 347
#     4   9  22  31  62  86 118 155 191 262 292 355
#     4  11  20  40  60  91 122 158 201 250 308 360
#     4   9  19  35  56  83 111 152 200 244 291 347
#     4   9  18  36  48  93 114 141 198 243 318 330
#
# _framework density 17.980042000000001
#
# number of rings (size 3 to 8) (size 9 to 14) (size 15 to 20)
#    0.900    1.200    3.000    0.600    2.100    1.200 
#    0.900    0.000    0.000    0.000    0.000    0.000 
#    0.000    0.000    0.000    0.000    0.000    0.000 
#
# Total GULP energy -247770.555246 kJ/mol
# GULP energy per Si atom -12388.527762 kJ/mol
# Density = 1.793912 g / cm^3
# Si number density = 17.980042 Si / 1000 Ang^3
#
#
#
# Elastic Constant Matrix: (Units=GPa)
#
#
# Indices 1 2 3 4 5 6 
#
# 1 96.5711 36.6512 27.7823 1.1783 0.0006 0.0002
# 2 36.6512 96.5705 27.7824 -1.1782 -0.0006 0.0000
# 3 27.7823 27.7824 105.3021 0.0000 0.0000 -0.0001
# 4 1.1783 -1.1782 0.0000 27.5754 0.0000 -0.0006
# 5 0.0006 -0.0006 0.0000 0.0000 27.5755 1.1783
# 6 0.0002 0.0000 -0.0001 -0.0006 1.1783 29.9601
#
#
#
# Elastic Compliance Matrix: (Units=1/GPa)
#
#
# Indices 1 2 3 4 5 6 
#
# 1 0.012576 -0.004141 -0.002225 -0.000714 0.000000 0.000000
# 2 -0.004141 0.012576 -0.002225 0.000714 0.000000 0.000000
# 3 -0.002225 -0.002225 0.010671 0.000000 0.000000 0.000000
# 4 -0.000714 0.000714 0.000000 0.036325 0.000000 0.000001
# 5 0.000000 0.000000 0.000000 0.000000 0.036325 -0.001429
# 6 0.000000 0.000000 0.000000 0.000001 -0.001429 0.033434
#
#
# Mechanical properties :
#
#
# Convention : Reuss Voigt Hill
#
# Bulk Modulus (GPa) = 53.65284 53.65286 53.65285
# Shear Modulus (GPa) = 30.24745 30.77071 30.50908
#
# Velocity S-wave (km/s) = 4.10601 4.14137 4.12373
# Velocity P-wave (km/s) = 7.23768 7.26450 7.25110
#
# Compressibility (1/GPa) = 0.01863834
#
# Stress axis : x y z
#
# Youngs Moduli (GPa) = 79.51837 79.51774 93.71455
#
# Poissons Ratio (x) = 0.32931 0.20854
# Poissons Ratio (y) = 0.32931 0.20854
# Poissons Ratio (z) = 0.17695 0.17695
#
# Static dielectric constant tensor:
#      x y z
#    x 3.196270 0.000000 0.000000 
#    y 0.000000 3.196270 0.000000 
#    z 0.000000 0.000000 3.210180 
# 
# 
# High freq. dielectric constant tensor:
#      x y z
#    x 1.681090 0.000000 0.000000 
#    y 0.000000 1.681090 0.000000 
#    z 0.000000 0.000000 1.694930 
# 
# From -- ./inp_files/2354.got.cif
#   From: 2010.06.25/outbox.cif.g09.slc.cpg/sg146_cif.got.tgz:2354.got - 2010.06.28 11:17:22.
