data_PCOD8321110
_publ_section_title
;
Structure prediction by ZEFSAII (Michael W. Deem and Ramdas Pophale) SiO2 
 PCOD8321110
Probable space group: I 41/A C D
;
_chemical_formula_sum "Si O2"
_cell_formula_units_Z 104
_cell_length_a 13.894844
_cell_length_b 13.894844
_cell_length_c 27.160941
_cell_angle_alpha 90.000000
_cell_angle_beta 90.000000
_cell_angle_gamma 90.000000
_cell_volume 5243.872970
_symmetry_space_group_name_H-M "I 41/A C D"
_symmetry_group_IT_number 142
_space_group.IT_coordinate_system_code '2'
_symmetry_cell_setting 'tetragonal'
loop_
_space_group_symop_operation_xyz
x,y,z
1/4-y,3/4+x,1/4+z
-x,1/2-y,z
1/4+y,1/4-x,3/4+z
x,-y,1/2-z
1/2-x,y,-z
3/4+y,1/4+x,1/4-z
1/4-y,1/4-x,1/4-z
-x,-y,-z
3/4+y,1/4-x,3/4-z
x,1/2+y,-z
3/4-y,3/4+x,1/4-z
-x,y,1/2+z
1/2+x,-y,z
1/4-y,3/4-x,3/4+z
3/4+y,3/4+x,3/4+z
1/2+x,1/2+y,1/2+z
3/4-y,1/4+x,3/4+z
1/2-x,-y,1/2+z
3/4+y,3/4-x,1/4+z
1/2+x,1/2-y,-z
-x,1/2+y,1/2-z
1/4+y,3/4+x,3/4-z
3/4-y,3/4-x,3/4-z
1/2-x,1/2-y,1/2-z
1/4+y,3/4-x,1/4-z
1/2+x,y,1/2-z
1/4-y,1/4+x,3/4-z
1/2-x,1/2+y,z
x,1/2-y,1/2+z
3/4-y,1/4-x,1/4+z
1/4+y,1/4+x,1/4+z
loop_
_atom_site_type_symbol
_atom_site_label
_atom_site_fract_x
_atom_site_fract_y
_atom_site_fract_z
Si Si1 0.942006 0.892001 0.134361
Si Si2 0.000000 0.750000 0.875000
Si Si3 0.189154 0.260870 0.185137
Si Si4 0.648998 0.061232 0.023827
O O1 0.884990 0.804057 0.108815
O O2 0.899232 0.916868 0.188162
O O3 0.931795 0.982276 0.097619
O O4 0.906801 0.753905 0.843095
O O5 0.158516 0.323180 0.232249
O O6 0.223152 0.152455 0.198168
O O7 0.750000 0.028995 0.000000
#
# Coordination Sequence:
#
# PCOD8321110 Si02
#       4
#    32   8  32  32
#     4   9  19  38  62  85 116 155 193 240 299 363
#     4  12  24  40  56  80 122 160 200 256 300 332
#     4  10  23  38  57  87 117 153 202 246 293 359
#     4  10  21  38  61  88 117 151 194 244 299 363
#
# _framework density 19.832668999999999
#
# number of rings (size 3 to 8) (size 9 to 14) (size 15 to 20)
#    0.000    2.154    0.000    1.846    0.000   12.308 
#    0.000    3.077    0.000    0.000    0.000    0.000 
#    0.000    0.000    0.000    0.000    0.000    0.000 
#
# Total GULP energy -644691.040054 kJ/mol
# GULP energy per Si atom -12397.904616 kJ/mol
# Density = 1.978753 g / cm^3
# Si number density = 19.832669 Si / 1000 Ang^3
#
#
#
# Elastic Constant Matrix: (Units=GPa)
#
#
# Indices 1 2 3 4 5 6 
#
# 1 127.0542 44.1166 70.6915 0.0000 0.0000 0.0000
# 2 44.1166 127.0542 70.6915 0.0000 0.0000 0.0000
# 3 70.6915 70.6915 139.2490 0.0000 0.0000 0.0000
# 4 0.0000 0.0000 0.0000 38.9778 0.0000 0.0000
# 5 0.0000 0.0000 0.0000 0.0000 38.9778 0.0000
# 6 0.0000 0.0000 0.0000 0.0000 0.0000 7.9241
#
#
#
# Elastic Compliance Matrix: (Units=1/GPa)
#
#
# Indices 1 2 3 4 5 6 
#
# 1 0.011059 -0.000998 -0.005107 0.000000 0.000000 0.000000
# 2 -0.000998 0.011059 -0.005107 0.000000 0.000000 0.000000
# 3 -0.005107 -0.005107 0.012367 0.000000 0.000000 0.000000
# 4 0.000000 0.000000 0.000000 0.025656 0.000000 0.000000
# 5 0.000000 0.000000 0.000000 0.000000 0.025656 0.000000
# 6 0.000000 0.000000 0.000000 0.000000 0.000000 0.126197
#
#
# Mechanical properties :
#
#
# Convention : Reuss Voigt Hill
#
# Bulk Modulus (GPa) = 82.92722 84.92851 83.92786
# Shear Modulus (GPa) = 20.96971 31.03312 26.00142
#
# Velocity S-wave (km/s) = 3.25519 3.95998 3.62476
# Velocity P-wave (km/s) = 7.48549 7.98900 7.74134
#
# Compressibility (1/GPa) = 0.01205877
#
# Stress axis : x y z
#
# Youngs Moduli (GPa) = 90.42392 90.42392 80.85951
#
# Poissons Ratio (x) = 0.09027 0.41299
# Poissons Ratio (y) = 0.09027 0.41299
# Poissons Ratio (z) = 0.46184 0.46184
#
# Static dielectric constant tensor:
#      x y z
#    x 3.633540 0.000000 0.000000 
#    y 0.000000 3.633540 0.000000 
#    z 0.000000 0.000000 3.767210 
# 
# 
# High freq. dielectric constant tensor:
#      x y z
#    x 1.771860 0.000000 0.000000 
#    y 0.000000 1.771860 0.000000 
#    z 0.000000 0.000000 1.785570 
# 
# From -- ./inp_files/9681.got.cif
#   From: 2010.03.12/outbox.cif.g09.slc.cpg/sg142_5_cif.got.tgz:9681.got - 2010.04.03 13:27:16.
