data_PCOD8321749
_publ_section_title
;
Structure prediction by ZEFSAII (Michael W. Deem and Ramdas Pophale) SiO2 
 PCOD8321749
Probable space group: R -3
;
_chemical_formula_sum "Si O2"
_cell_formula_units_Z 126
_cell_length_a 19.143190
_cell_length_b 19.143190
_cell_length_c 19.074821
_cell_angle_alpha 90.000000
_cell_angle_beta 90.000000
_cell_angle_gamma 120.000000
_cell_volume 6053.683656
_symmetry_space_group_name_H-M "R -3"
_symmetry_group_IT_number 148
_symmetry_cell_setting 'hexagonal'
loop_
_space_group_symop_operation_xyz
x,y,z
-y,x-y,z
-x+y,-x,z
-x,-y,-z
y,-x+y,-z
x-y,x,-z
2/3+x,1/3+y,1/3+z
2/3-y,1/3+x-y,1/3+z
2/3-x+y,1/3-x,1/3+z
2/3-x,1/3-y,1/3-z
2/3+y,1/3-x+y,1/3-z
2/3+x-y,1/3+x,1/3-z
1/3+x,2/3+y,2/3+z
1/3-y,2/3+x-y,2/3+z
1/3-x+y,2/3-x,2/3+z
1/3-x,2/3-y,2/3-z
1/3+y,2/3-x+y,2/3-z
1/3+x-y,2/3+x,2/3-z
loop_
_atom_site_type_symbol
_atom_site_label
_atom_site_fract_x
_atom_site_fract_y
_atom_site_fract_z
Si Si1 0.186287 0.352125 0.550588
Si Si2 0.079088 0.187879 0.995715
Si Si3 0.552030 0.649911 0.889273
Si Si4 0.980697 0.275569 0.822229
Si Si5 0.387022 0.135877 0.702719
Si Si6 0.426475 0.203099 0.174660
Si Si7 0.768632 0.517330 0.824869
O O1 0.236806 0.404586 0.617804
O O2 0.229632 0.401660 0.479189
O O3 0.098474 0.343658 0.548221
O O4 0.165863 0.258214 0.543123
O O5 0.115166 0.226827 0.922540
O O6 0.125130 0.140275 0.017228
O O7 0.637469 0.678972 0.852347
O O8 0.553125 0.648716 0.973292
O O9 0.523264 0.713893 0.868972
O O10 0.945756 0.281869 0.747443
O O11 0.022128 0.219837 0.813897
O O12 0.333334 0.166667 0.666667
O O13 0.450701 0.209280 0.749933
O O14 0.333334 0.166667 0.166667
O O15 0.802414 0.456967 0.809097
#
# Coordination Sequence:
#
# PCOD8321749 Si02
#       7
#    18  18  18  18  18  18  18
#     4  11  21  39  68  97 128 173 224 267 332 397
#     4  12  24  42  68 100 140 189 230 273 342 407
#     4  11  22  42  62  97 132 165 222 275 330 399
#     4  10  22  39  63  92 130 167 213 276 331 393
#     4  11  23  41  67  93 127 174 219 277 339 393
#     4  10  23  40  59  96 132 168 216 280 328 395
#     4  11  25  48  70 100 133 176 224 284 345 415
#
# _framework density 20.813773999999999
#
# number of rings (size 3 to 8) (size 9 to 14) (size 15 to 20)
#    0.000    1.143    5.714    2.000    0.000    6.857 
#    2.571    0.000    0.000    0.000    0.000    0.000 
#    0.000    0.000    0.000    0.000    0.000    0.000 
#
# Total GULP energy -520453.626930 kJ/mol
# GULP energy per Si atom -12391.753022 kJ/mol
# Density = 2.076640 g / cm^3
# Si number density = 20.813774 Si / 1000 Ang^3
#
#
#
# Elastic Constant Matrix: (Units=GPa)
#
#
# Indices 1 2 3 4 5 6 
#
# 1 83.5491 15.1073 31.6989 0.1228 -3.0133 0.0000
# 2 15.1073 83.5491 31.6989 -0.1228 3.0133 0.0000
# 3 31.6989 31.6989 131.4796 0.0000 0.0000 0.0000
# 4 0.1228 -0.1228 0.0000 28.9983 0.0000 3.0133
# 5 -3.0133 3.0133 0.0000 0.0000 28.9983 0.1228
# 6 0.0000 0.0000 0.0000 3.0133 0.1228 34.2209
#
#
#
# Elastic Compliance Matrix: (Units=1/GPa)
#
#
# Indices 1 2 3 4 5 6 
#
# 1 0.013370 -0.001376 -0.002892 -0.000062 0.001532 0.000000
# 2 -0.001376 0.013370 -0.002892 0.000062 -0.001532 0.000000
# 3 -0.002892 -0.002892 0.009000 0.000000 0.000000 0.000000
# 4 -0.000062 0.000062 0.000000 0.034804 0.000000 -0.003065
# 5 0.001532 -0.001532 0.000000 0.000000 0.034804 -0.000125
# 6 0.000000 0.000000 0.000000 -0.003065 -0.000125 0.029492
#
#
# Mechanical properties :
#
#
# Convention : Reuss Voigt Hill
#
# Bulk Modulus (GPa) = 46.68113 50.62088 48.65101
# Shear Modulus (GPa) = 31.98977 33.11499 32.55238
#
# Velocity S-wave (km/s) = 3.92465 3.99308 3.95901
# Velocity P-wave (km/s) = 6.55850 6.75524 6.65759
#
# Compressibility (1/GPa) = 0.02142193
#
# Stress axis : x y z
#
# Youngs Moduli (GPa) = 74.79261 74.79261 111.10947
#
# Poissons Ratio (x) = 0.10290 0.32131
# Poissons Ratio (y) = 0.10290 0.32131
# Poissons Ratio (z) = 0.21628 0.21628
#
# Static dielectric constant tensor:
#      x y z
#    x 4.515480 0.000000 0.000000 
#    y 0.000000 4.515480 0.000000 
#    z 0.000000 0.000000 3.910320 
# 
# 
# High freq. dielectric constant tensor:
#      x y z
#    x 1.819620 0.000000 0.000000 
#    y 0.000000 1.819620 0.000000 
#    z 0.000000 0.000000 1.805120 
# 
# From -- ./inp_files/2760.got.cif
#   From: 2010.03.12/outbox.cif.g09.slc.cpg/sg148_2_cif.got.tgz:2760.got - 2010.04.03 13:38:46.
