data_PCOD8321287
_publ_section_title
;
Structure prediction by ZEFSAII (Michael W. Deem and Ramdas Pophale) SiO2 
 PCOD8321287
Probable space group: I 41/A C D
;
_chemical_formula_sum "Si O2"
_cell_formula_units_Z 112
_cell_length_a 14.841079
_cell_length_b 14.841079
_cell_length_c 22.030653
_cell_angle_alpha 90.000000
_cell_angle_beta 90.000000
_cell_angle_gamma 90.000000
_cell_volume 4852.419326
_symmetry_space_group_name_H-M "I 41/A C D"
_symmetry_group_IT_number 142
_space_group.IT_coordinate_system_code '2'
_symmetry_cell_setting 'tetragonal'
loop_
_space_group_symop_operation_xyz
x,y,z
1/4-y,3/4+x,1/4+z
-x,1/2-y,z
1/4+y,1/4-x,3/4+z
x,-y,1/2-z
1/2-x,y,-z
3/4+y,1/4+x,1/4-z
1/4-y,1/4-x,1/4-z
-x,-y,-z
3/4+y,1/4-x,3/4-z
x,1/2+y,-z
3/4-y,3/4+x,1/4-z
-x,y,1/2+z
1/2+x,-y,z
1/4-y,3/4-x,3/4+z
3/4+y,3/4+x,3/4+z
1/2+x,1/2+y,1/2+z
3/4-y,1/4+x,3/4+z
1/2-x,-y,1/2+z
3/4+y,3/4-x,1/4+z
1/2+x,1/2-y,-z
-x,1/2+y,1/2-z
1/4+y,3/4+x,3/4-z
3/4-y,3/4-x,3/4-z
1/2-x,1/2-y,1/2-z
1/4+y,3/4-x,1/4-z
1/2+x,y,1/2-z
1/4-y,1/4+x,3/4-z
1/2-x,1/2+y,z
x,1/2-y,1/2+z
3/4-y,1/4-x,1/4+z
1/4+y,1/4+x,1/4+z
loop_
_atom_site_type_symbol
_atom_site_label
_atom_site_fract_x
_atom_site_fract_y
_atom_site_fract_z
Si Si1 0.100359 0.537329 0.312273
Si Si2 0.767410 0.017410 0.625000
Si Si3 0.542310 0.996258 0.409815
Si Si4 0.524913 0.147291 0.988672
O O1 0.059195 0.500000 0.250000
O O2 0.206245 0.511722 0.317562
O O3 0.095156 0.644566 0.309825
O O4 0.047536 0.495684 0.369412
O O5 0.873427 0.000134 0.636232
O O6 0.549429 0.903956 0.448763
O O7 0.548640 0.084521 0.454161
O O8 0.500000 0.250000 0.004839
#
# Coordination Sequence:
#
# PCOD8321287 Si02
#       4
#    32  16  32  32
#     4  12  25  47  71 106 150 192 240 312 368 433
#     4  12  24  46  72 102 148 186 250 294 362 446
#     4  11  25  44  75 109 143 201 242 299 375 440
#     4  11  24  47  73 108 148 188 250 304 365 447
#
# _framework density 23.081271000000001
#
# number of rings (size 3 to 8) (size 9 to 14) (size 15 to 20)
#    0.000    0.571    5.714    1.714    0.000    4.571 
#    0.000    0.000    0.000    0.000    0.000    0.000 
#    0.000    0.000    0.000    0.000    0.000    0.000 
#
# Total GULP energy -694035.843537 kJ/mol
# GULP energy per Si atom -12393.497206 kJ/mol
# Density = 2.302874 g / cm^3
# Si number density = 23.081271 Si / 1000 Ang^3
#
#
#
# Elastic Constant Matrix: (Units=GPa)
#
#
# Indices 1 2 3 4 5 6 
#
# 1 151.7823 54.8116 42.4301 0.0000 0.0000 0.0000
# 2 54.8116 151.7823 42.4301 0.0000 0.0000 0.0000
# 3 42.4301 42.4301 103.9007 0.0000 0.0000 0.0000
# 4 0.0000 0.0000 0.0000 40.0338 0.0000 0.0000
# 5 0.0000 0.0000 0.0000 0.0000 40.0338 0.0000
# 6 0.0000 0.0000 0.0000 0.0000 0.0000 20.8871
#
#
#
# Elastic Compliance Matrix: (Units=1/GPa)
#
#
# Indices 1 2 3 4 5 6 
#
# 1 0.008064 -0.002248 -0.002375 0.000000 0.000000 0.000000
# 2 -0.002248 0.008064 -0.002375 0.000000 0.000000 0.000000
# 3 -0.002375 -0.002375 0.011564 0.000000 0.000000 0.000000
# 4 0.000000 0.000000 0.000000 0.024979 0.000000 0.000000
# 5 0.000000 0.000000 0.000000 0.000000 0.024979 0.000000
# 6 0.000000 0.000000 0.000000 0.000000 0.000000 0.047877
#
#
# Mechanical properties :
#
#
# Convention : Reuss Voigt Hill
#
# Bulk Modulus (GPa) = 73.01375 76.31212 74.66294
# Shear Modulus (GPa) = 34.70071 38.04382 36.37227
#
# Velocity S-wave (km/s) = 3.88160 4.06428 3.97399
# Velocity P-wave (km/s) = 7.19660 7.42688 7.31265
#
# Compressibility (1/GPa) = 0.01369605
#
# Stress axis : x y z
#
# Youngs Moduli (GPa) = 124.00482 124.00482 86.47219
#
# Poissons Ratio (x) = 0.27879 0.20538
# Poissons Ratio (y) = 0.27879 0.20538
# Poissons Ratio (z) = 0.29452 0.29452
#
# Static dielectric constant tensor:
#      x y z
#    x 4.208190 0.000000 0.000000 
#    y 0.000000 4.208190 0.000000 
#    z 0.000000 0.000000 4.013210 
# 
# 
# High freq. dielectric constant tensor:
#      x y z
#    x 1.914460 0.000000 0.000000 
#    y 0.000000 1.914460 0.000000 
#    z 0.000000 0.000000 1.902640 
# 
# From -- ./inp_files/9786.got.cif
#   From: 2010.03.12/outbox.cif.g09.slc.cpg/sg142_5_cif.got.tgz:9786.got - 2010.04.03 13:27:16.
