data_PCOD8321683
_publ_section_title
;
Structure prediction by ZEFSAII (Michael W. Deem and Ramdas Pophale) SiO2 
 PCOD8321683
Probable space group: R -3
;
_chemical_formula_sum "Si O2"
_cell_formula_units_Z 60
_cell_length_a 18.862245
_cell_length_b 18.862245
_cell_length_c 6.686355
_cell_angle_alpha 90.000000
_cell_angle_beta 90.000000
_cell_angle_gamma 120.000000
_cell_volume 2060.187870
_symmetry_space_group_name_H-M "R -3"
_symmetry_group_IT_number 148
_symmetry_cell_setting 'hexagonal'
loop_
_space_group_symop_operation_xyz
x,y,z
-y,x-y,z
-x+y,-x,z
-x,-y,-z
y,-x+y,-z
x-y,x,-z
2/3+x,1/3+y,1/3+z
2/3-y,1/3+x-y,1/3+z
2/3-x+y,1/3-x,1/3+z
2/3-x,1/3-y,1/3-z
2/3+y,1/3-x+y,1/3-z
2/3+x-y,1/3+x,1/3-z
1/3+x,2/3+y,2/3+z
1/3-y,2/3+x-y,2/3+z
1/3-x+y,2/3-x,2/3+z
1/3-x,2/3-y,2/3-z
1/3+y,2/3-x+y,2/3-z
1/3+x-y,2/3+x,2/3-z
loop_
_atom_site_type_symbol
_atom_site_label
_atom_site_fract_x
_atom_site_fract_y
_atom_site_fract_z
Si Si1 0.666668 0.333334 0.099360
Si Si2 0.530477 0.374549 0.026855
Si Si3 0.078742 0.767938 0.755095
Si Si4 0.692500 0.114543 0.677585
O O1 0.666668 0.333335 0.333334
O O2 0.586341 0.332849 0.021676
O O3 0.449413 0.318951 0.160123
O O4 0.502919 0.376183 0.795241
O O5 0.579623 0.467903 0.105733
O O6 0.166667 0.833334 0.833334
O O7 0.077226 0.761599 0.510635
O O8 0.053524 0.678603 0.849495
#
# Coordination Sequence:
#
# PCOD8321683 Si02
#       4
#     6  18  18  18
#     4  12  24  40  68 121 183 210 276 398 458 559
#     4  10  21  36  68 114 170 229 294 365 473 535
#     4  10  18  35  64 115 176 230 299 381 457 546
#     4  10  19  37  68 117 174 228 301 379 443 546
#
# _framework density 29.123557999999999
#
# number of rings (size 3 to 8) (size 9 to 14) (size 15 to 20)
#    1.800    0.000    3.000    3.600    0.000    1.200 
#    0.000    1.500    0.000    1.800    0.000   25.200 
#   72.000    0.300    0.000    3.300    0.000    0.000 
#
# Total GULP energy -247933.469653 kJ/mol
# GULP energy per Si atom -12396.673483 kJ/mol
# Density = 2.905727 g / cm^3
# Si number density = 29.123558 Si / 1000 Ang^3
#
#
#
# Elastic Constant Matrix: (Units=GPa)
#
#
# Indices 1 2 3 4 5 6 
#
# 1 221.6165 106.1252 38.5982 -4.2323 -0.1576 0.0038
# 2 106.1252 221.6375 38.6738 4.2367 0.0984 0.0027
# 3 38.5982 38.6738 113.8747 -0.0068 -0.1265 -0.0266
# 4 -4.2323 4.2367 -0.0068 52.7145 -0.0021 0.1178
# 5 -0.1576 0.0984 -0.1265 -0.0021 52.6558 -4.2408
# 6 0.0038 0.0027 -0.0266 0.1178 -4.2408 57.7342
#
#
#
# Elastic Compliance Matrix: (Units=1/GPa)
#
#
# Indices 1 2 3 4 5 6 
#
# 1 0.006012 -0.002696 -0.001122 0.000699 0.000020 -0.000001
# 2 -0.002696 0.006013 -0.001128 -0.000700 -0.000022 -0.000001
# 3 -0.001122 -0.001128 0.009545 0.000002 0.000022 0.000006
# 4 0.000699 -0.000700 0.000002 0.019083 0.000001 -0.000039
# 5 0.000020 -0.000022 0.000022 0.000001 0.019104 0.001403
# 6 -0.000001 -0.000001 0.000006 -0.000039 0.001403 0.017424
#
#
# Mechanical properties :
#
#
# Convention : Reuss Voigt Hill
#
# Bulk Modulus (GPa) = 85.63781 102.65812 94.14797
# Shear Modulus (GPa) = 54.96458 57.53633 56.25045
#
# Velocity S-wave (km/s) = 4.34901 4.44959 4.39958
# Velocity P-wave (km/s) = 7.39509 7.85647 7.62927
#
# Compressibility (1/GPa) = 0.01167709
#
# Stress axis : x y z
#
# Youngs Moduli (GPa) = 166.32479 166.29938 104.76540
#
# Poissons Ratio (x) = 0.44841 0.11756
# Poissons Ratio (y) = 0.44848 0.11821
# Poissons Ratio (z) = 0.18663 0.18764
#
# Static dielectric constant tensor:
#      x y z
#    x 5.323580 0.000000 -0.000260 
#    y 0.000000 5.323560 -0.000240 
#    z -0.000260 -0.000240 5.107090 
# 
# 
# High freq. dielectric constant tensor:
#      x y z
#    x 2.201230 0.000000 -0.000020 
#    y 0.000000 2.201240 0.000000 
#    z -0.000020 0.000000 2.159470 
# 
# From -- ./inp_files/750.got.cif
#   From: 2010.03.12/outbox.cif.g09.slc.cpg/sg148_1_cif.got.tgz:750.got - 2010.04.03 13:38:46.
