data_PCOD8321924
_publ_section_title
;
Structure prediction by ZEFSAII (Michael W. Deem and Ramdas Pophale) SiO2 
 PCOD8321924
Probable space group: P 31 1 2
;
_chemical_formula_sum "Si O2"
_cell_formula_units_Z 24
_cell_length_a 11.070821
_cell_length_b 11.070821
_cell_length_c 12.371944
_cell_angle_alpha 90.000000
_cell_angle_beta 90.000000
_cell_angle_gamma 120.000000
_cell_volume 1313.192020
_symmetry_space_group_name_H-M "P 31 1 2"
_symmetry_group_IT_number 151
_symmetry_cell_setting 'hexagonal'
loop_
_space_group_symop_operation_xyz
x,y,z
-y,x-y,1/3+z
-x+y,-x,2/3+z
-y,-x,2/3-z
-x+y,y,1/3-z
x,x-y,-z
loop_
_atom_site_type_symbol
_atom_site_label
_atom_site_fract_x
_atom_site_fract_y
_atom_site_fract_z
Si Si1 0.678432 0.535974 0.416495
Si Si2 0.959861 0.636798 0.690753
Si Si3 0.989093 0.010908 0.833334
Si Si4 0.050928 0.212579 0.008247
Si Si5 0.889444 0.444722 0.500000
O O1 0.578145 0.421856 0.333334
O O2 0.616349 0.544395 0.533500
O O3 0.714204 0.674436 0.351561
O O4 0.800702 0.501464 0.437509
O O5 0.831886 0.663771 0.666667
O O6 0.983988 0.556786 0.591323
O O7 0.098014 0.787037 0.709355
O O8 0.836530 0.954238 0.781722
O O9 0.104213 0.029017 0.747414
#
# Coordination Sequence:
#
# PCOD8321924 Si02
#       5
#     6   6   3   6   3
#     4  11  21  34  55  83 114 152 190 239 289 361
#     4  10  18  36  59  80 111 153 188 239 309 353
#     4  10  18  31  58  87 108 136 190 240 294 352
#     4  11  19  35  57  86 113 152 190 241 305 359
#     4  10  22  35  58  81 116 150 194 242 302 356
#
# _framework density 18.276077000000001
#
# number of rings (size 3 to 8) (size 9 to 14) (size 15 to 20)
#    0.000    1.500    5.000    3.750    0.000    3.000 
#    0.000    0.000    5.500    0.000    0.000    0.000 
#    0.000    0.000    0.000    0.000    0.000    0.000 
#
# Total GULP energy -297420.505218 kJ/mol
# GULP energy per Si atom -12392.521051 kJ/mol
# Density = 1.823448 g / cm^3
# Si number density = 18.276077 Si / 1000 Ang^3
#
#
#
# Elastic Constant Matrix: (Units=GPa)
#
#
# Indices 1 2 3 4 5 6 
#
# 1 59.1024 18.0017 35.2163 -0.0004 -1.8170 0.0000
# 2 18.0017 59.1024 35.2163 0.0004 1.8170 0.0000
# 3 35.2163 35.2163 112.1589 0.0000 0.0000 0.0000
# 4 -0.0004 0.0004 0.0000 28.4553 0.0000 1.8170
# 5 -1.8170 1.8170 0.0000 0.0000 28.4553 -0.0004
# 6 0.0000 0.0000 0.0000 1.8170 -0.0004 20.5504
#
#
#
# Elastic Compliance Matrix: (Units=1/GPa)
#
#
# Indices 1 2 3 4 5 6 
#
# 1 0.021327 -0.003142 -0.005710 0.000000 0.001562 0.000000
# 2 -0.003142 0.021327 -0.005710 0.000000 -0.001562 0.000000
# 3 -0.005710 -0.005710 0.012502 0.000000 0.000000 0.000000
# 4 0.000000 0.000000 0.000000 0.035342 0.000000 -0.003125
# 5 0.001562 -0.001562 0.000000 0.000000 0.035342 0.000001
# 6 0.000000 0.000000 0.000000 -0.003125 0.000001 0.048937
#
#
# Mechanical properties :
#
#
# Convention : Reuss Voigt Hill
#
# Bulk Modulus (GPa) = 38.41340 45.24801 41.83071
# Shear Modulus (GPa) = 23.52074 24.95413 24.23744
#
# Velocity S-wave (km/s) = 3.59133 3.69914 3.64563
# Velocity P-wave (km/s) = 6.18554 6.56176 6.37642
#
# Compressibility (1/GPa) = 0.02603258
#
# Stress axis : x y z
#
# Youngs Moduli (GPa) = 46.88890 46.88890 79.98966
#
# Poissons Ratio (x) = 0.14731 0.45674
# Poissons Ratio (y) = 0.14731 0.45674
# Poissons Ratio (z) = 0.26773 0.26773
#
# Static dielectric constant tensor:
#      x y z
#    x 3.246530 0.000000 0.000000 
#    y 0.000000 3.246530 0.000000 
#    z 0.000000 0.000000 4.044220 
# 
# 
# High freq. dielectric constant tensor:
#      x y z
#    x 1.681530 0.000000 0.000000 
#    y 0.000000 1.681530 0.000000 
#    z 0.000000 0.000000 1.732540 
# 
# From -- ./inp_files/2376.got.cif
#   From: 2010.03.12/outbox.cif.g09.slc.cpg/sg151_2_cif.got.tgz:2376.got - 2010.04.03 13:42:29.
