data_PCOD8321969
_publ_section_title
;
Structure prediction by ZEFSAII (Michael W. Deem and Ramdas Pophale) SiO2 
 PCOD8321969
Probable space group: P 31 1 2
;
_chemical_formula_sum "Si O2"
_cell_formula_units_Z 30
_cell_length_a 12.654223
_cell_length_b 12.654223
_cell_length_c 12.254836
_cell_angle_alpha 90.000000
_cell_angle_beta 90.000000
_cell_angle_gamma 120.000000
_cell_volume 1699.452782
_symmetry_space_group_name_H-M "P 31 1 2"
_symmetry_group_IT_number 151
_symmetry_cell_setting 'hexagonal'
loop_
_space_group_symop_operation_xyz
x,y,z
-y,x-y,1/3+z
-x+y,-x,2/3+z
-y,-x,2/3-z
-x+y,y,1/3-z
x,x-y,-z
loop_
_atom_site_type_symbol
_atom_site_label
_atom_site_fract_x
_atom_site_fract_y
_atom_site_fract_z
Si Si1 0.813043 0.293511 0.445228
Si Si2 0.319308 0.267838 0.216929
Si Si3 0.294507 0.484899 0.279906
Si Si4 0.983508 0.880220 0.051697
Si Si5 0.249043 0.956860 0.020814
O O1 0.736113 0.263888 0.333334
O O2 0.827314 0.413657 0.500000
O O3 0.742510 0.182151 0.530304
O O4 0.947078 0.313672 0.421164
O O5 0.356549 0.401064 0.263134
O O6 0.232640 0.166773 0.302689
O O7 0.248468 0.247634 0.102689
O O8 0.389167 0.610834 0.333334
O O9 0.260266 0.520532 0.166667
O O10 0.173729 0.416011 0.354983
O O11 0.915457 0.830913 0.166667
O O12 0.128025 0.943666 0.075244
O O13 0.949555 0.974778 0.000000
#
# Coordination Sequence:
#
# PCOD8321969 Si02
#       5
#     6   6   6   6   6
#     4  10  20  36  56  76 101 136 178 217 256 307
#     4   9  19  35  52  73 102 137 172 204 252 317
#     4   9  18  33  54  76  99 131 170 209 254 304
#     4  11  18  28  51  79 105 132 164 209 260 305
#     4   9  18  34  53  74 101 136 172 207 251 315
#
# _framework density 17.652742
#
# number of rings (size 3 to 8) (size 9 to 14) (size 15 to 20)
#    0.000    2.400    0.000    6.000    0.000    1.600 
#    0.000   13.000    0.000    6.000    0.000    0.000 
#    0.000    0.000    0.000    0.000    0.000    0.000 
#
# Total GULP energy -371987.435026 kJ/mol
# GULP energy per Si atom -12399.581168 kJ/mol
# Density = 1.761256 g / cm^3
# Si number density = 17.652742 Si / 1000 Ang^3
#
#
#
# Elastic Constant Matrix: (Units=GPa)
#
#
# Indices 1 2 3 4 5 6 
#
# 1 95.3688 42.5485 52.1383 0.0003 -2.2223 0.0000
# 2 42.5485 95.3688 52.1383 -0.0003 2.2223 0.0000
# 3 52.1383 52.1383 84.6075 0.0000 0.0000 0.0000
# 4 0.0003 -0.0003 0.0000 25.1336 0.0000 2.2223
# 5 -2.2223 2.2223 0.0000 0.0000 25.1336 0.0003
# 6 0.0000 0.0000 0.0000 2.2223 0.0003 26.4101
#
#
#
# Elastic Compliance Matrix: (Units=1/GPa)
#
#
# Indices 1 2 3 4 5 6 
#
# 1 0.016325 -0.002749 -0.008366 0.000000 0.001687 0.000000
# 2 -0.002749 0.016325 -0.008366 0.000000 -0.001687 0.000000
# 3 -0.008366 -0.008366 0.022130 0.000000 0.000000 0.000000
# 4 0.000000 0.000000 0.000000 0.040086 0.000000 -0.003373
# 5 0.001687 -0.001687 0.000000 0.000000 0.040086 0.000000
# 6 0.000000 0.000000 0.000000 -0.003373 0.000000 0.038148
#
#
# Mechanical properties :
#
#
# Convention : Reuss Voigt Hill
#
# Bulk Modulus (GPa) = 63.21860 63.22170 63.22015
# Shear Modulus (GPa) = 23.00594 23.90347 23.45471
#
# Velocity S-wave (km/s) = 3.61397 3.68379 3.64905
# Velocity P-wave (km/s) = 7.30099 7.34749 7.32428
#
# Compressibility (1/GPa) = 0.01581813
#
# Stress axis : x y z
#
# Youngs Moduli (GPa) = 61.25521 61.25521 45.18675
#
# Poissons Ratio (x) = 0.16839 0.37804
# Poissons Ratio (y) = 0.16839 0.37804
# Poissons Ratio (z) = 0.51247 0.51247
#
# Static dielectric constant tensor:
#      x y z
#    x 3.274460 0.000000 0.000000 
#    y 0.000000 3.274460 0.000000 
#    z 0.000000 0.000000 3.251400 
# 
# 
# High freq. dielectric constant tensor:
#      x y z
#    x 1.675740 0.000000 0.000000 
#    y 0.000000 1.675740 0.000000 
#    z 0.000000 0.000000 1.673900 
# 
# From -- ./inp_files/2779.got.cif
#   From: 2010.03.12/outbox.cif.g09.slc.cpg/sg151_2_cif.got.tgz:2779.got - 2010.04.03 13:42:29.
