data_PCOD8321983
_publ_section_title
;
Structure prediction by ZEFSAII (Michael W. Deem and Ramdas Pophale) SiO2 
 PCOD8321983
Probable space group: P 31 1 2
;
_chemical_formula_sum "Si O2"
_cell_formula_units_Z 42
_cell_length_a 13.740933
_cell_length_b 13.740933
_cell_length_c 12.237003
_cell_angle_alpha 90.000000
_cell_angle_beta 90.000000
_cell_angle_gamma 120.000000
_cell_volume 2000.958780
_symmetry_space_group_name_H-M "P 31 1 2"
_symmetry_group_IT_number 151
_symmetry_cell_setting 'hexagonal'
loop_
_space_group_symop_operation_xyz
x,y,z
-y,x-y,1/3+z
-x+y,-x,2/3+z
-y,-x,2/3-z
-x+y,y,1/3-z
x,x-y,-z
loop_
_atom_site_type_symbol
_atom_site_label
_atom_site_fract_x
_atom_site_fract_y
_atom_site_fract_z
Si Si1 0.681704 0.491343 0.270583
Si Si2 0.905054 0.261828 0.618472
Si Si3 0.170990 0.522336 0.105936
Si Si4 0.139843 0.065425 0.627461
Si Si5 0.145847 0.862177 0.715537
Si Si6 0.499357 0.028409 0.434307
Si Si7 0.930159 0.290501 0.364122
O O1 0.626754 0.373247 0.333334
O O2 0.738027 0.476054 0.166667
O O3 0.772570 0.588009 0.349389
O O4 0.579092 0.503956 0.222610
O O5 0.955481 0.180133 0.641525
O O6 0.968138 0.373040 0.692896
O O7 0.923010 0.304029 0.494194
O O8 0.290085 0.580170 0.166667
O O9 0.133128 0.396946 0.066343
O O10 0.095203 0.527982 0.202931
O O11 0.180353 0.590177 0.000000
O O12 0.157891 0.078946 0.500000
O O13 0.014776 0.029551 0.666667
O O14 0.165471 0.964973 0.641954
O O15 0.111447 0.888554 0.833334
O O16 0.051692 0.744201 0.665162
O O17 0.618351 0.090124 0.368378
O O18 0.834551 0.165450 0.333334
#
# Coordination Sequence:
#
# PCOD8321983 Si02
#       7
#     6   6   6   6   6   6   6
#     4  10  22  37  60  93 131 177 226 275 334 401
#     4  11  26  42  63 103 143 185 230 287 356 422
#     4  11  25  47  74 101 130 182 240 294 356 422
#     4  12  25  43  67 102 142 181 227 281 357 431
#     4  11  23  45  72 102 134 175 236 288 345 429
#     4  11  23  44  67  99 137 185 235 289 343 418
#     4  12  23  42  72 102 141 184 230 290 358 418
#
# _framework density 20.989939
#
# number of rings (size 3 to 8) (size 9 to 14) (size 15 to 20)
#    0.000    0.857    2.857    5.571    6.000    4.571 
#    2.571    0.000    0.000    0.000    0.000    0.000 
#    0.000    0.000    0.000    0.000    0.000    0.000 
#
# Total GULP energy -520537.204671 kJ/mol
# GULP energy per Si atom -12393.742968 kJ/mol
# Density = 2.094216 g / cm^3
# Si number density = 20.989939 Si / 1000 Ang^3
#
#
#
# Elastic Constant Matrix: (Units=GPa)
#
#
# Indices 1 2 3 4 5 6 
#
# 1 110.0720 35.9948 38.6574 0.0024 -7.7883 0.0000
# 2 35.9948 110.0720 38.6574 -0.0024 7.7883 0.0000
# 3 38.6574 38.6574 134.2388 0.0000 0.0000 0.0000
# 4 0.0024 -0.0024 0.0000 12.1786 0.0000 7.7883
# 5 -7.7883 7.7883 0.0000 0.0000 12.1786 0.0024
# 6 0.0000 0.0000 0.0000 7.7883 0.0024 37.0386
#
#
#
# Elastic Compliance Matrix: (Units=1/GPa)
#
#
# Indices 1 2 3 4 5 6 
#
# 1 0.011837 -0.003760 -0.002326 -0.000003 0.009974 0.000000
# 2 -0.003760 0.011837 -0.002326 0.000003 -0.009974 0.000000
# 3 -0.002326 -0.002326 0.008789 0.000000 0.000000 0.000000
# 4 -0.000003 0.000003 0.000000 0.094868 0.000000 -0.019948
# 5 0.009974 -0.009974 0.000000 0.000000 0.094868 -0.000006
# 6 0.000000 0.000000 0.000000 -0.019948 -0.000006 0.031194
#
#
# Mechanical properties :
#
#
# Convention : Reuss Voigt Hill
#
# Bulk Modulus (GPa) = 63.94035 64.55578 64.24807
# Shear Modulus (GPa) = 18.15340 28.35070 23.25205
#
# Velocity S-wave (km/s) = 2.94404 3.67915 3.33193
# Velocity P-wave (km/s) = 6.48730 6.99075 6.74372
#
# Compressibility (1/GPa) = 0.01563958
#
# Stress axis : x y z
#
# Youngs Moduli (GPa) = 84.48028 84.48028 113.77705
#
# Poissons Ratio (x) = 0.31762 0.26466
# Poissons Ratio (y) = 0.31762 0.26466
# Poissons Ratio (z) = 0.19651 0.19651
#
# Static dielectric constant tensor:
#      x y z
#    x 3.875390 0.000000 0.000000 
#    y 0.000000 3.875390 0.000000 
#    z 0.000000 0.000000 3.799480 
# 
# 
# High freq. dielectric constant tensor:
#      x y z
#    x 1.821990 0.000000 0.000000 
#    y 0.000000 1.821990 0.000000 
#    z 0.000000 0.000000 1.844510 
# 
# From -- ./inp_files/2592.got.cif
#   From: 2010.03.12/outbox.cif.g09.slc.cpg/sg151_2_cif.got.tgz:2592.got - 2010.04.03 13:42:29.
