data_PCOD8321646
_publ_section_title
;
Structure prediction by ZEFSAII (Michael W. Deem and Ramdas Pophale) SiO2 
 PCOD8321646
Probable space group: P -3
;
_chemical_formula_sum "Si O2"
_cell_formula_units_Z 48
_cell_length_a 15.813275
_cell_length_b 15.813275
_cell_length_c 10.717143
_cell_angle_alpha 90.000000
_cell_angle_beta 90.000000
_cell_angle_gamma 120.000000
_cell_volume 2320.883305
_symmetry_space_group_name_H-M "P -3"
_symmetry_group_IT_number 147
_symmetry_cell_setting 'hexagonal'
loop_
_space_group_symop_operation_xyz
x,y,z
-y,x-y,z
-x+y,-x,z
-x,-y,-z
y,-x+y,-z
x-y,x,-z
loop_
_atom_site_type_symbol
_atom_site_label
_atom_site_fract_x
_atom_site_fract_y
_atom_site_fract_z
Si Si1 0.157654 0.940560 0.502590
Si Si2 0.384309 0.332665 0.868806
Si Si3 0.162477 0.673057 0.801119
Si Si4 0.793385 0.822613 0.986338
Si Si5 0.983605 0.700164 0.254970
Si Si6 0.809155 0.612346 0.674874
Si Si7 0.519892 0.664192 0.881189
Si Si8 0.249295 0.705387 0.535676
O O1 0.186392 0.894987 0.389245
O O2 0.044942 0.871426 0.541036
O O3 0.229390 0.951460 0.613917
O O4 0.375050 0.421330 0.811565
O O5 0.428115 0.290129 0.765833
O O6 0.276453 0.251006 0.908737
O O7 0.457954 0.368963 0.986158
O O8 0.223507 0.766153 0.891857
O O9 0.189781 0.591954 0.841356
O O10 0.200380 0.715176 0.662316
O O11 0.742635 0.798165 0.852170
O O12 0.820083 0.928627 0.028022
O O13 0.099487 0.742946 0.245190
O O14 0.931189 0.584535 0.228618
O O15 0.736065 0.530497 0.578849
O O16 0.224636 0.592238 0.529727
#
# Coordination Sequence:
#
# PCOD8321646 Si02
#       8
#     6   6   6   6   6   6   6   6
#     4  10  23  38  61  94 133 181 226 271 327 389
#     4  11  25  41  65  99 135 177 222 273 345 396
#     4  12  23  45  74  98 134 174 231 274 334 412
#     4  11  22  39  62  94 132 180 226 282 332 398
#     4  10  23  40  65  93 138 172 226 276 334 394
#     4  11  24  42  64 100 135 178 217 277 341 401
#     4  11  24  44  70 101 132 179 222 282 331 400
#     4  10  23  47  71  97 130 170 221 276 336 400
#
# _framework density 20.681781000000001
#
# number of rings (size 3 to 8) (size 9 to 14) (size 15 to 20)
#    0.250    1.000    2.500    3.125    8.750    1.000 
#    2.250    1.250    0.000    0.000    0.000    0.000 
#    0.000    0.000    0.000    0.000    0.000    0.000 
#
# Total GULP energy -595257.152730 kJ/mol
# GULP energy per Si atom -12401.190682 kJ/mol
# Density = 2.063471 g / cm^3
# Si number density = 20.681781 Si / 1000 Ang^3
#
#
#
# Elastic Constant Matrix: (Units=GPa)
#
#
# Indices 1 2 3 4 5 6 
#
# 1 90.8402 28.2675 37.2188 -4.7127 -5.7846 0.0000
# 2 28.2675 90.8402 37.2188 4.7127 5.7846 0.0000
# 3 37.2188 37.2188 88.9078 0.0000 0.0000 0.0000
# 4 -4.7127 4.7127 0.0000 30.6519 0.0000 5.7846
# 5 -5.7846 5.7846 0.0000 0.0000 30.6519 -4.7127
# 6 0.0000 0.0000 0.0000 5.7846 -4.7127 31.2863
#
#
#
# Elastic Compliance Matrix: (Units=1/GPa)
#
#
# Indices 1 2 3 4 5 6 
#
# 1 0.014168 -0.002798 -0.004760 0.002609 0.003202 0.000000
# 2 -0.002798 0.014168 -0.004760 -0.002609 -0.003202 0.000000
# 3 -0.004760 -0.004760 0.015233 0.000000 0.000000 0.000000
# 4 0.002609 -0.002609 0.000000 0.034635 0.000000 -0.006404
# 5 0.003202 -0.003202 0.000000 0.000000 0.034635 0.005217
# 6 0.000000 0.000000 0.000000 -0.006404 0.005217 0.033933
#
#
# Mechanical properties :
#
#
# Convention : Reuss Voigt Hill
#
# Bulk Modulus (GPa) = 52.81475 52.88870 52.85173
# Shear Modulus (GPa) = 28.13416 29.71021 28.92219
#
# Velocity S-wave (km/s) = 3.69227 3.79428 3.74363
# Velocity P-wave (km/s) = 6.61585 6.69504 6.65556
#
# Compressibility (1/GPa) = 0.01893410
#
# Stress axis : x y z
#
# Youngs Moduli (GPa) = 70.57927 70.57927 65.64750
#
# Poissons Ratio (x) = 0.19747 0.31248
# Poissons Ratio (y) = 0.19747 0.31248
# Poissons Ratio (z) = 0.33596 0.33596
#
# Static dielectric constant tensor:
#      x y z
#    x 3.753130 0.000000 0.000000 
#    y 0.000000 3.753130 0.000000 
#    z 0.000000 0.000000 3.615080 
# 
# 
# High freq. dielectric constant tensor:
#      x y z
#    x 1.811680 0.000000 0.000000 
#    y 0.000000 1.811680 0.000000 
#    z 0.000000 0.000000 1.805370 
# 
# From -- ./inp_files/868.got.cif
#   From: 2010.03.12/outbox.cif.g09.slc.cpg/sg147_cif.got.tgz:868.got - 2010.04.03 13:37:56.
