data_PCOD8321801
_publ_section_title
;
Structure prediction by ZEFSAII (Michael W. Deem and Ramdas Pophale) SiO2 
 PCOD8321801
Probable space group: R -3
;
_chemical_formula_sum "Si O2"
_cell_formula_units_Z 54
_cell_length_a 14.594298
_cell_length_b 14.594298
_cell_length_c 12.564296
_cell_angle_alpha 90.000000
_cell_angle_beta 90.000000
_cell_angle_gamma 120.000000
_cell_volume 2317.582542
_symmetry_space_group_name_H-M "R -3"
_symmetry_group_IT_number 148
_symmetry_cell_setting 'hexagonal'
loop_
_space_group_symop_operation_xyz
x,y,z
-y,x-y,z
-x+y,-x,z
-x,-y,-z
y,-x+y,-z
x-y,x,-z
2/3+x,1/3+y,1/3+z
2/3-y,1/3+x-y,1/3+z
2/3-x+y,1/3-x,1/3+z
2/3-x,1/3-y,1/3-z
2/3+y,1/3-x+y,1/3-z
2/3+x-y,1/3+x,1/3-z
1/3+x,2/3+y,2/3+z
1/3-y,2/3+x-y,2/3+z
1/3-x+y,2/3-x,2/3+z
1/3-x,2/3-y,2/3-z
1/3+y,2/3-x+y,2/3-z
1/3+x-y,2/3+x,2/3-z
loop_
_atom_site_type_symbol
_atom_site_label
_atom_site_fract_x
_atom_site_fract_y
_atom_site_fract_z
Si Si1 0.579651 0.447561 0.889014
Si Si2 0.234558 0.981878 0.260091
Si Si3 0.207214 0.198750 0.968460
O O1 0.706843 0.504264 0.883892
O O2 0.545034 0.534914 0.884194
O O3 0.527529 0.373603 0.992864
O O4 0.229438 0.038531 0.152082
O O5 0.346833 0.046750 0.318107
O O6 0.112999 0.196734 0.035524
#
# Coordination Sequence:
#
# PCOD8321801 Si02
#       3
#    18  18  18
#     4  11  23  43  68 108 143 185 245 301 361 430
#     4  11  25  45  75 101 151 193 240 300 376 437
#     4  12  27  48  74 108 149 196 247 300 369 440
#
# _framework density 23.300139999999999
#
# number of rings (size 3 to 8) (size 9 to 14) (size 15 to 20)
#    0.000    0.667    3.333    3.667    4.667    2.667 
#    0.000    0.000    0.000    0.000    0.000    0.000 
#    0.000    0.000    0.000    0.000    0.000    0.000 
#
# Total GULP energy -223140.823413 kJ/mol
# GULP energy per Si atom -12396.712412 kJ/mol
# Density = 2.324711 g / cm^3
# Si number density = 23.300140 Si / 1000 Ang^3
#
#
#
# Elastic Constant Matrix: (Units=GPa)
#
#
# Indices 1 2 3 4 5 6 
#
# 1 115.7593 36.2213 49.0469 -15.4790 -1.6288 0.0000
# 2 36.2213 115.7593 49.0469 15.4790 1.6288 0.0000
# 3 49.0469 49.0469 131.7349 0.0000 0.0000 0.0000
# 4 -15.4790 15.4790 0.0000 30.0508 0.0000 1.6288
# 5 -1.6288 1.6288 0.0000 0.0000 30.0508 -15.4790
# 6 0.0000 0.0000 0.0000 1.6288 -15.4790 39.7690
#
#
#
# Elastic Compliance Matrix: (Units=1/GPa)
#
#
# Indices 1 2 3 4 5 6 
#
# 1 0.012215 -0.003554 -0.003225 0.008123 0.000855 0.000000
# 2 -0.003554 0.012215 -0.003225 -0.008123 -0.000855 0.000000
# 3 -0.003225 -0.003225 0.009992 0.000000 0.000000 0.000000
# 4 0.008123 -0.008123 0.000000 0.041737 0.000000 -0.001709
# 5 0.000855 -0.000855 0.000000 0.000000 0.041737 0.016245
# 6 0.000000 0.000000 0.000000 -0.001709 0.016245 0.031538
#
#
# Mechanical properties :
#
#
# Convention : Reuss Voigt Hill
#
# Bulk Modulus (GPa) = 69.36860 70.20931 69.78895
# Shear Modulus (GPa) = 28.69485 35.23670 31.96577
#
# Velocity S-wave (km/s) = 3.51312 3.89304 3.70795
# Velocity P-wave (km/s) = 6.80386 7.09970 6.95335
#
# Compressibility (1/GPa) = 0.01441574
#
# Stress axis : x y z
#
# Youngs Moduli (GPa) = 81.86589 81.86589 100.07828
#
# Poissons Ratio (x) = 0.29095 0.32272
# Poissons Ratio (y) = 0.29095 0.32272
# Poissons Ratio (z) = 0.26399 0.26399
#
# Static dielectric constant tensor:
#      x y z
#    x 4.139020 0.000000 0.000000 
#    y 0.000000 4.139020 0.000000 
#    z 0.000000 0.000000 4.448860 
# 
# 
# High freq. dielectric constant tensor:
#      x y z
#    x 1.921200 0.000000 0.000000 
#    y 0.000000 1.921200 0.000000 
#    z 0.000000 0.000000 1.924580 
# 
# From -- ./inp_files/1306.got.cif
#   From: 2010.03.12/outbox.cif.g09.slc.cpg/sg148_1_cif.got.tgz:1306.got - 2010.04.03 13:38:46.
