data_PCOD8321037
_publ_section_title
;
Structure prediction by ZEFSAII (Michael W. Deem and Ramdas Pophale) SiO2 
 PCOD8321037
Probable space group: I 41/A C D
;
_chemical_formula_sum "Si O2"
_cell_formula_units_Z 128
_cell_length_a 23.562623
_cell_length_b 23.562623
_cell_length_c 11.254991
_cell_angle_alpha 90.000000
_cell_angle_beta 90.000000
_cell_angle_gamma 90.000000
_cell_volume 6248.739519
_symmetry_space_group_name_H-M "I 41/A C D"
_symmetry_group_IT_number 142
_space_group.IT_coordinate_system_code '2'
_symmetry_cell_setting 'tetragonal'
loop_
_space_group_symop_operation_xyz
x,y,z
1/4-y,3/4+x,1/4+z
-x,1/2-y,z
1/4+y,1/4-x,3/4+z
x,-y,1/2-z
1/2-x,y,-z
3/4+y,1/4+x,1/4-z
1/4-y,1/4-x,1/4-z
-x,-y,-z
3/4+y,1/4-x,3/4-z
x,1/2+y,-z
3/4-y,3/4+x,1/4-z
-x,y,1/2+z
1/2+x,-y,z
1/4-y,3/4-x,3/4+z
3/4+y,3/4+x,3/4+z
1/2+x,1/2+y,1/2+z
3/4-y,1/4+x,3/4+z
1/2-x,-y,1/2+z
3/4+y,3/4-x,1/4+z
1/2+x,1/2-y,-z
-x,1/2+y,1/2-z
1/4+y,3/4+x,3/4-z
3/4-y,3/4-x,3/4-z
1/2-x,1/2-y,1/2-z
1/4+y,3/4-x,1/4-z
1/2+x,y,1/2-z
1/4-y,1/4+x,3/4-z
1/2-x,1/2+y,z
x,1/2-y,1/2+z
3/4-y,1/4-x,1/4+z
1/4+y,1/4+x,1/4+z
loop_
_atom_site_type_symbol
_atom_site_label
_atom_site_fract_x
_atom_site_fract_y
_atom_site_fract_z
Si Si1 0.345712 0.324197 0.944951
Si Si2 0.153685 0.894088 0.593046
Si Si3 0.608935 0.499364 0.480590
Si Si4 0.692401 0.202551 0.429583
O O1 0.397953 0.352048 0.875000
O O2 0.284149 0.339479 0.887238
O O3 0.349701 0.256312 0.936544
O O4 0.352554 0.344646 0.081313
O O5 0.205947 0.882478 0.675818
O O6 0.154953 0.848479 0.486534
O O7 0.160887 0.957985 0.545193
O O8 0.560255 0.538935 0.543123
O O9 0.750000 0.215373 0.500000
#
# Coordination Sequence:
#
# PCOD8321037 Si02
#       4
#    32  32  32  32
#     4  10  21  37  59  85 111 146 191 241 292 342
#     4  10  21  36  56  84 115 149 186 234 290 343
#     4  10  20  37  57  83 114 151 194 234 286 344
#     4  10  20  36  59  84 112 150 193 236 282 346
#
# _framework density 20.484131999999999
#
# number of rings (size 3 to 8) (size 9 to 14) (size 15 to 20)
#    0.000    2.000    0.000    3.750    0.000    4.000 
#    0.000   35.000    0.000    9.750    0.000    0.000 
#    0.000    0.000    0.000    0.000    0.000    0.000 
#
# Total GULP energy -792941.017282 kJ/mol
# GULP energy per Si atom -12389.703395 kJ/mol
# Density = 2.043751 g / cm^3
# Si number density = 20.484132 Si / 1000 Ang^3
#
#
#
# Elastic Constant Matrix: (Units=GPa)
#
#
# Indices 1 2 3 4 5 6 
#
# 1 76.8260 57.8981 31.0900 0.0000 0.0000 0.0000
# 2 57.8981 76.8254 31.0907 0.0000 0.0000 0.0000
# 3 31.0900 31.0907 81.5848 0.0000 0.0000 0.0000
# 4 0.0000 0.0000 0.0000 17.5425 0.0000 0.0000
# 5 0.0000 0.0000 0.0000 0.0000 17.5419 0.0000
# 6 0.0000 0.0000 0.0000 0.0000 0.0000 34.4795
#
#
#
# Elastic Compliance Matrix: (Units=1/GPa)
#
#
# Indices 1 2 3 4 5 6 
#
# 1 0.030920 -0.021913 -0.003432 0.000000 0.000000 0.000000
# 2 -0.021913 0.030920 -0.003433 0.000000 0.000000 0.000000
# 3 -0.003432 -0.003433 0.014873 0.000000 0.000000 0.000000
# 4 0.000000 0.000000 0.000000 0.057004 0.000000 0.000000
# 5 0.000000 0.000000 0.000000 0.000000 0.057006 0.000000
# 6 0.000000 0.000000 0.000000 0.000000 0.000000 0.029003
#
#
# Mechanical properties :
#
#
# Convention : Reuss Voigt Hill
#
# Bulk Modulus (GPa) = 52.19896 52.82151 52.51024
# Shear Modulus (GPa) = 17.62628 21.58993 19.60810
#
# Velocity S-wave (km/s) = 2.93658 3.25003 3.09728
# Velocity P-wave (km/s) = 6.08572 6.31871 6.20331
#
# Compressibility (1/GPa) = 0.01915747
#
# Stress axis : x y z
#
# Youngs Moduli (GPa) = 32.34205 32.34147 67.23525
#
# Poissons Ratio (x) = 0.70870 0.23075
# Poissons Ratio (y) = 0.70871 0.23079
# Poissons Ratio (z) = 0.11100 0.11102
#
# Static dielectric constant tensor:
#      x y z
#    x 3.774100 0.000000 0.000000 
#    y 0.000000 3.774090 0.000000 
#    z 0.000000 0.000000 4.326760 
# 
# 
# High freq. dielectric constant tensor:
#      x y z
#    x 1.782740 0.000000 0.000000 
#    y 0.000000 1.782740 0.000000 
#    z 0.000000 0.000000 1.821800 
# 
# From -- ./inp_files/3440.got.cif
#   From: 2010.03.12/outbox.cif.g09.slc.cpg/sg142_2_cif.got.tgz:3440.got - 2010.04.03 13:27:16.
