data_PCOD8321916
_publ_section_title
;
Structure prediction by ZEFSAII (Michael W. Deem and Ramdas Pophale) SiO2 
 PCOD8321916
Probable space group: P 3 2 1
;
_chemical_formula_sum "Si O2"
_cell_formula_units_Z 48
_cell_length_a 21.476665
_cell_length_b 21.476665
_cell_length_c 10.442883
_cell_angle_alpha 90.000000
_cell_angle_beta 90.000000
_cell_angle_gamma 120.000000
_cell_volume 4171.427788
_symmetry_space_group_name_H-M "P 3 2 1"
_symmetry_group_IT_number 150
_symmetry_cell_setting 'hexagonal'
loop_
_space_group_symop_operation_xyz
x,y,z
-y,x-y,z
-x+y,-x,z
x-y,-y,-z
-x,-x+y,-z
y,x,-z
loop_
_atom_site_type_symbol
_atom_site_label
_atom_site_fract_x
_atom_site_fract_y
_atom_site_fract_z
Si Si1 0.333017 0.524874 0.982289
Si Si2 0.591891 0.035624 0.629144
Si Si3 0.443733 0.035624 0.629144
Si Si4 0.333356 0.810307 0.280296
Si Si5 0.405449 0.958281 0.879133
Si Si6 0.447168 0.405449 0.120867
Si Si7 0.333017 0.808143 0.982289
Si Si8 0.523048 0.333356 0.719704
O O1 0.257063 0.514126 0.940131
O O2 0.392745 0.607255 0.957827
O O3 0.334357 0.505596 0.130776
O O4 0.346584 0.472089 0.892654
O O5 0.515306 0.030613 0.630355
O O6 0.653487 0.119445 0.640377
O O7 0.601390 0.000000 0.500000
O O8 0.596842 0.989969 0.747871
O O9 0.465959 0.119445 0.640377
O O10 0.398610 0.000000 0.500000
O O11 0.393127 0.989969 0.747871
O O12 0.334356 0.828761 0.130776
O O13 0.257321 0.742679 0.321797
O O14 0.395532 0.791064 0.309894
O O15 0.484860 0.969720 0.880016
O O16 0.346584 0.874495 0.892654
O O17 0.396922 0.000000 0.000000
O O18 0.396922 0.396922 0.000000
#
# Coordination Sequence:
#
# PCOD8321916 Si02
#       8
#     6   6   6   6   6   6   6   6
#     4   9  15  22  34  51  69  86 107 138 176 211
#     4   9  16  25  36  49  64  84 110 136 163 198
#     4   9  16  25  36  49  64  84 110 136 163 198
#     4   9  15  23  35  51  68  85 107 137 174 211
#     4   9  14  23  36  48  62  81 106 134 163 197
#     4   9  14  23  36  48  62  81 106 134 163 197
#     4   9  15  22  34  51  69  86 107 138 176 211
#     4   9  15  23  35  51  68  85 107 137 174 211
#
# _framework density 11.506852
#
# number of rings (size 3 to 8) (size 9 to 14) (size 15 to 20)
#    0.000    3.000    2.500    0.500    0.000    2.000 
#    0.000    1.250    0.000    0.000    0.000    3.500 
#    0.000    0.000    0.000    0.000    0.000    0.000 
#
# Total GULP energy -594942.818001 kJ/mol
# GULP energy per Si atom -12394.642042 kJ/mol
# Density = 1.148066 g / cm^3
# Si number density = 11.506852 Si / 1000 Ang^3
#
#
#
# Elastic Constant Matrix: (Units=GPa)
#
#
# Indices 1 2 3 4 5 6 
#
# 1 58.5731 32.4627 37.3892 -0.6207 0.0000 0.0000
# 2 32.4627 58.5731 37.3892 0.6207 0.0000 0.0000
# 3 37.3892 37.3892 76.2625 0.0000 0.0000 0.0000
# 4 -0.6207 0.6207 0.0000 11.8787 0.0000 0.0000
# 5 0.0000 0.0000 0.0000 0.0000 11.8787 -0.6207
# 6 0.0000 0.0000 0.0000 0.0000 -0.6207 13.0552
#
#
#
# Elastic Compliance Matrix: (Units=1/GPa)
#
#
# Indices 1 2 3 4 5 6 
#
# 1 0.028393 -0.010002 -0.009017 0.002006 0.000000 0.000000
# 2 -0.010002 0.028393 -0.009017 -0.002006 0.000000 0.000000
# 3 -0.009017 -0.009017 0.021954 0.000000 0.000000 0.000000
# 4 0.002006 -0.002006 0.000000 0.084394 0.000000 0.000000
# 5 0.000000 0.000000 0.000000 0.000000 0.084394 0.004012
# 6 0.000000 0.000000 0.000000 0.000000 0.004012 0.076789
#
#
# Mechanical properties :
#
#
# Convention : Reuss Voigt Hill
#
# Bulk Modulus (GPa) = 44.11211 45.32122 44.71667
# Shear Modulus (GPa) = 12.88856 13.10705 12.99780
#
# Velocity S-wave (km/s) = 3.35039 3.37866 3.36455
# Velocity P-wave (km/s) = 7.30654 7.39542 7.35112
#
# Compressibility (1/GPa) = 0.02266951
#
# Stress axis : x y z
#
# Youngs Moduli (GPa) = 35.22036 35.22036 45.55034
#
# Poissons Ratio (x) = 0.35226 0.41071
# Poissons Ratio (y) = 0.35226 0.41071
# Poissons Ratio (z) = 0.31757 0.31757
#
# Static dielectric constant tensor:
#      x y z
#    x 2.232450 0.000000 0.000000 
#    y 0.000000 2.232450 0.000000 
#    z 0.000000 0.000000 2.508370 
# 
# 
# High freq. dielectric constant tensor:
#      x y z
#    x 1.404710 0.000000 0.000000 
#    y 0.000000 1.404710 0.000000 
#    z 0.000000 0.000000 1.430610 
# 
# From -- ./inp_files/790.got.cif
#   From: 2010.03.12/outbox.cif.g09.slc.cpg/sg150_cif.got.tgz:790.got - 2010.04.03 13:41:37.
