data_PCOD8321126
_publ_section_title
;
Structure prediction by ZEFSAII (Michael W. Deem and Ramdas Pophale) SiO2 
 PCOD8321126
Probable space group: I 41/A C D
;
_chemical_formula_sum "Si O2"
_cell_formula_units_Z 112
_cell_length_a 13.064584
_cell_length_b 13.064584
_cell_length_c 30.797392
_cell_angle_alpha 90.000000
_cell_angle_beta 90.000000
_cell_angle_gamma 90.000000
_cell_volume 5256.602195
_symmetry_space_group_name_H-M "I 41/A C D"
_symmetry_group_IT_number 142
_space_group.IT_coordinate_system_code '2'
_symmetry_cell_setting 'tetragonal'
loop_
_space_group_symop_operation_xyz
x,y,z
1/4-y,3/4+x,1/4+z
-x,1/2-y,z
1/4+y,1/4-x,3/4+z
x,-y,1/2-z
1/2-x,y,-z
3/4+y,1/4+x,1/4-z
1/4-y,1/4-x,1/4-z
-x,-y,-z
3/4+y,1/4-x,3/4-z
x,1/2+y,-z
3/4-y,3/4+x,1/4-z
-x,y,1/2+z
1/2+x,-y,z
1/4-y,3/4-x,3/4+z
3/4+y,3/4+x,3/4+z
1/2+x,1/2+y,1/2+z
3/4-y,1/4+x,3/4+z
1/2-x,-y,1/2+z
3/4+y,3/4-x,1/4+z
1/2+x,1/2-y,-z
-x,1/2+y,1/2-z
1/4+y,3/4+x,3/4-z
3/4-y,3/4-x,3/4-z
1/2-x,1/2-y,1/2-z
1/4+y,3/4-x,1/4-z
1/2+x,y,1/2-z
1/4-y,1/4+x,3/4-z
1/2-x,1/2+y,z
x,1/2-y,1/2+z
3/4-y,1/4-x,1/4+z
1/4+y,1/4+x,1/4+z
loop_
_atom_site_type_symbol
_atom_site_label
_atom_site_fract_x
_atom_site_fract_y
_atom_site_fract_z
Si Si1 0.305291 0.287775 0.958322
Si Si2 0.342786 0.000000 0.750000
Si Si3 0.223690 0.820960 0.789971
Si Si4 0.475497 0.916370 0.374684
O O1 0.410950 0.351430 0.953260
O O2 0.235071 0.303075 0.916305
O O3 0.250000 0.339456 0.000000
O O4 0.322448 0.166974 0.969587
O O5 0.276662 0.068940 0.717587
O O6 0.250000 0.750000 0.750000
O O7 0.263690 0.766160 0.832972
O O8 0.583846 0.862948 0.367060
#
# Coordination Sequence:
#
# PCOD8321126 Si02
#       4
#    32  16  32  32
#     4  10  21  41  63  91 129 169 210 262 325 381
#     4  10  22  44  64  90 134 162 210 272 320 386
#     4  12  24  41  68  96 126 174 221 264 332 389
#     4  11  22  39  65  96 130 171 216 269 325 389
#
# _framework density 21.306538
#
# number of rings (size 3 to 8) (size 9 to 14) (size 15 to 20)
#    0.857    0.286    4.286    2.571    0.000    1.143 
#    0.000    1.429    0.000    3.429    0.000    0.000 
#    0.000    0.000    0.000    0.000    0.000    0.000 
#
# Total GULP energy -694135.972043 kJ/mol
# GULP energy per Si atom -12395.285215 kJ/mol
# Density = 2.125804 g / cm^3
# Si number density = 21.306538 Si / 1000 Ang^3
#
#
#
# Elastic Constant Matrix: (Units=GPa)
#
#
# Indices 1 2 3 4 5 6 
#
# 1 43.7067 -0.9832 20.8039 0.0000 0.0000 0.0000
# 2 -0.9832 43.7067 20.8039 0.0000 0.0000 0.0000
# 3 20.8039 20.8039 164.5050 0.0000 0.0000 0.0000
# 4 0.0000 0.0000 0.0000 34.7779 0.0000 0.0000
# 5 0.0000 0.0000 0.0000 0.0000 34.7779 0.0000
# 6 0.0000 0.0000 0.0000 0.0000 0.0000 33.3171
#
#
#
# Elastic Compliance Matrix: (Units=1/GPa)
#
#
# Indices 1 2 3 4 5 6 
#
# 1 0.024535 0.002159 -0.003376 0.000000 0.000000 0.000000
# 2 0.002159 0.024535 -0.003376 0.000000 0.000000 0.000000
# 3 -0.003376 -0.003376 0.006933 0.000000 0.000000 0.000000
# 4 0.000000 0.000000 0.000000 0.028754 0.000000 0.000000
# 5 0.000000 0.000000 0.000000 0.000000 0.028754 0.000000
# 6 0.000000 0.000000 0.000000 0.000000 0.000000 0.030015
#
#
# Mechanical properties :
#
#
# Convention : Reuss Voigt Hill
#
# Bulk Modulus (GPa) = 21.35957 37.01863 29.18910
# Shear Modulus (GPa) = 29.70584 34.66082 32.18333
#
# Velocity S-wave (km/s) = 3.73797 4.03770 3.89072
# Velocity P-wave (km/s) = 5.35505 6.25695 5.82348
#
# Compressibility (1/GPa) = 0.04681741
#
# Stress axis : x y z
#
# Youngs Moduli (GPa) = 40.75774 40.75774 144.24424
#
# Poissons Ratio (x) = -0.08799 0.48694
# Poissons Ratio (y) = -0.08799 0.48694
# Poissons Ratio (z) = 0.13759 0.13759
#
# Static dielectric constant tensor:
#      x y z
#    x 3.709090 0.000000 0.000000 
#    y 0.000000 3.709090 0.000000 
#    z 0.000000 0.000000 4.181680 
# 
# 
# High freq. dielectric constant tensor:
#      x y z
#    x 1.828050 0.000000 0.000000 
#    y 0.000000 1.828050 0.000000 
#    z 0.000000 0.000000 1.841500 
# 
# From -- ./inp_files/11109.got.cif
#   From: 2010.03.12/outbox.cif.g09.slc.cpg/sg142_6_cif.got.tgz:11109.got - 2010.04.03 13:27:16.
