data_PCOD8321709
_publ_section_title
;
Structure prediction by ZEFSAII (Michael W. Deem and Ramdas Pophale) SiO2 
 PCOD8321709
Probable space group: R -3
;
_chemical_formula_sum "Si O2"
_cell_formula_units_Z 108
_cell_length_a 17.689267
_cell_length_b 17.689267
_cell_length_c 21.279341
_cell_angle_alpha 90.000000
_cell_angle_beta 90.000000
_cell_angle_gamma 120.000000
_cell_volume 5766.449330
_symmetry_space_group_name_H-M "R -3"
_symmetry_group_IT_number 148
_symmetry_cell_setting 'hexagonal'
loop_
_space_group_symop_operation_xyz
x,y,z
-y,x-y,z
-x+y,-x,z
-x,-y,-z
y,-x+y,-z
x-y,x,-z
2/3+x,1/3+y,1/3+z
2/3-y,1/3+x-y,1/3+z
2/3-x+y,1/3-x,1/3+z
2/3-x,1/3-y,1/3-z
2/3+y,1/3-x+y,1/3-z
2/3+x-y,1/3+x,1/3-z
1/3+x,2/3+y,2/3+z
1/3-y,2/3+x-y,2/3+z
1/3-x+y,2/3-x,2/3+z
1/3-x,2/3-y,2/3-z
1/3+y,2/3-x+y,2/3-z
1/3+x-y,2/3+x,2/3-z
loop_
_atom_site_type_symbol
_atom_site_label
_atom_site_fract_x
_atom_site_fract_y
_atom_site_fract_z
Si Si1 0.912993 0.251825 0.735185
Si Si2 0.001535 0.829512 0.824416
Si Si3 0.960544 0.395506 0.267568
Si Si4 0.749947 0.088268 0.743932
Si Si5 0.769551 0.053847 0.941930
Si Si6 0.841281 0.338189 0.146862
O O1 0.817351 0.188255 0.768061
O O2 0.895894 0.248806 0.661755
O O3 0.975919 0.212973 0.753329
O O4 0.963131 0.353428 0.756189
O O5 0.980387 0.749168 0.779425
O O6 0.995392 0.798712 0.896373
O O7 0.934327 0.864682 0.813023
O O8 0.098269 0.905722 0.809346
O O9 0.975732 0.489353 0.286598
O O10 0.922950 0.330266 0.326064
O O11 0.894677 0.352767 0.210526
O O12 0.055080 0.407818 0.247184
#
# Coordination Sequence:
#
# PCOD8321709 Si02
#       6
#    18  18  18  18  18  18
#     4   9  19  34  50  70  98 133 175 223 267 303
#     4  10  20  34  53  78 108 141 176 216 264 318
#     4  10  20  33  52  79 109 142 178 215 260 317
#     4   9  19  34  50  70  98 133 175 223 267 303
#     4  10  20  33  52  79 109 142 178 215 260 317
#     4  10  20  34  53  78 108 141 176 216 264 318
#
# _framework density 18.729029000000001
#
# number of rings (size 3 to 8) (size 9 to 14) (size 15 to 20)
#    0.000    2.333    0.000    2.333    0.000    8.000 
#    0.000    0.000    0.000    6.000    0.000    0.000 
#    0.000    8.000    0.000    0.000    0.000    0.000 
#
# Total GULP energy -446114.137146 kJ/mol
# GULP energy per Si atom -12392.059365 kJ/mol
# Density = 1.868640 g / cm^3
# Si number density = 18.729029 Si / 1000 Ang^3
#
#
#
# Elastic Constant Matrix: (Units=GPa)
#
#
# Indices 1 2 3 4 5 6 
#
# 1 101.9264 61.8326 11.1258 2.6862 0.2201 0.0000
# 2 61.8326 101.9264 11.1258 -2.6862 -0.2201 0.0000
# 3 11.1258 11.1258 55.1899 0.0000 0.0000 0.0000
# 4 2.6862 -2.6862 0.0000 22.7352 0.0000 -0.2201
# 5 0.2201 -0.2201 0.0000 0.0000 22.7352 2.6862
# 6 0.0000 0.0000 0.0000 -0.2201 2.6862 20.0469
#
#
#
# Elastic Compliance Matrix: (Units=1/GPa)
#
#
# Indices 1 2 3 4 5 6 
#
# 1 0.015812 -0.009533 -0.001266 -0.002995 -0.000245 0.000000
# 2 -0.009533 0.015812 -0.001266 0.002995 0.000245 0.000000
# 3 -0.001266 -0.001266 0.018630 0.000000 0.000000 0.000000
# 4 -0.002995 0.002995 0.000000 0.044697 0.000000 0.000491
# 5 -0.000245 0.000245 0.000000 0.000000 0.044697 -0.005989
# 6 0.000000 0.000000 0.000000 0.000491 -0.005989 0.050691
#
#
# Mechanical properties :
#
#
# Convention : Reuss Voigt Hill
#
# Bulk Modulus (GPa) = 38.27925 47.46791 42.87358
# Shear Modulus (GPa) = 22.40381 24.76735 23.58558
#
# Velocity S-wave (km/s) = 3.46238 3.64043 3.55252
# Velocity P-wave (km/s) = 6.03878 6.56277 6.30622
#
# Compressibility (1/GPa) = 0.02612382
#
# Stress axis : x y z
#
# Youngs Moduli (GPa) = 63.24317 63.24317 53.67809
#
# Poissons Ratio (x) = 0.60293 0.06794
# Poissons Ratio (y) = 0.60293 0.06794
# Poissons Ratio (z) = 0.08005 0.08005
#
# Static dielectric constant tensor:
#      x y z
#    x 3.647720 0.000000 0.000000 
#    y 0.000000 3.647720 0.000000 
#    z 0.000000 0.000000 3.460250 
# 
# 
# High freq. dielectric constant tensor:
#      x y z
#    x 1.721150 0.000000 0.000000 
#    y 0.000000 1.721150 0.000000 
#    z 0.000000 0.000000 1.733820 
# 
# From -- ./inp_files/3103.got.cif
#   From: 2010.03.12/outbox.cif.g09.slc.cpg/sg148_2_cif.got.tgz:3103.got - 2010.04.03 13:38:46.
