data_PCOD8321293
_publ_section_title
;
Structure prediction by ZEFSAII (Michael W. Deem and Ramdas Pophale) SiO2 
 PCOD8321293
Probable space group: I 41/A C D
;
_chemical_formula_sum "Si O2"
_cell_formula_units_Z 176
_cell_length_a 23.528354
_cell_length_b 23.528354
_cell_length_c 13.458300
_cell_angle_alpha 90.000000
_cell_angle_beta 90.000000
_cell_angle_gamma 90.000000
_cell_volume 7450.292037
_symmetry_space_group_name_H-M "I 41/A C D"
_symmetry_group_IT_number 142
_space_group.IT_coordinate_system_code '2'
_symmetry_cell_setting 'tetragonal'
loop_
_space_group_symop_operation_xyz
x,y,z
1/4-y,3/4+x,1/4+z
-x,1/2-y,z
1/4+y,1/4-x,3/4+z
x,-y,1/2-z
1/2-x,y,-z
3/4+y,1/4+x,1/4-z
1/4-y,1/4-x,1/4-z
-x,-y,-z
3/4+y,1/4-x,3/4-z
x,1/2+y,-z
3/4-y,3/4+x,1/4-z
-x,y,1/2+z
1/2+x,-y,z
1/4-y,3/4-x,3/4+z
3/4+y,3/4+x,3/4+z
1/2+x,1/2+y,1/2+z
3/4-y,1/4+x,3/4+z
1/2-x,-y,1/2+z
3/4+y,3/4-x,1/4+z
1/2+x,1/2-y,-z
-x,1/2+y,1/2-z
1/4+y,3/4+x,3/4-z
3/4-y,3/4-x,3/4-z
1/2-x,1/2-y,1/2-z
1/4+y,3/4-x,1/4-z
1/2+x,y,1/2-z
1/4-y,1/4+x,3/4-z
1/2-x,1/2+y,z
x,1/2-y,1/2+z
3/4-y,1/4-x,1/4+z
1/4+y,1/4+x,1/4+z
loop_
_atom_site_type_symbol
_atom_site_label
_atom_site_fract_x
_atom_site_fract_y
_atom_site_fract_z
Si Si1 0.544334 0.682476 0.333251
Si Si2 0.792329 0.707403 0.803414
Si Si3 0.186582 0.617431 0.970909
Si Si4 0.526730 0.865463 0.158924
Si Si5 0.901195 0.000000 0.250000
Si Si6 0.359781 0.599736 0.427030
O O1 0.497328 0.681764 0.422317
O O2 0.520222 0.659892 0.230914
O O3 0.594229 0.641012 0.361708
O O4 0.750000 0.750000 0.750000
O O5 0.851038 0.740857 0.825251
O O6 0.806752 0.652705 0.733987
O O7 0.758903 0.689897 0.903190
O O8 0.172911 0.577090 0.875000
O O9 0.158218 0.679115 0.960359
O O10 0.250000 0.632182 0.000000
O O11 0.169582 0.584333 0.071281
O O12 0.560728 0.810728 0.125000
O O13 0.861773 0.944110 0.246136
#
# Coordination Sequence:
#
# PCOD8321293 Si02
#       6
#    32  32  32  32  16  32
#     4  11  25  43  70 111 160 198 248 316 402 491
#     4  12  30  50  83 115 162 211 275 344 410 495
#     4  11  27  51  79 112 149 204 267 333 399 480
#     4  11  26  45  74 112 158 202 261 327 411 489
#     4  12  30  52  78 116 156 220 264 332 410 480
#     4  12  28  52  79 115 162 206 275 333 412 486
#
# _framework density 23.623234
#
# number of rings (size 3 to 8) (size 9 to 14) (size 15 to 20)
#    0.000    0.545    3.636    1.636   19.091    0.000 
#    1.636    0.909    0.000    0.000    0.000    0.000 
#    0.000    0.000    0.000    0.000    0.000    0.000 
#
# Total GULP energy -1090382.126135 kJ/mol
# GULP energy per Si atom -12390.705979 kJ/mol
# Density = 2.356947 g / cm^3
# Si number density = 23.623234 Si / 1000 Ang^3
#
#
#
# Elastic Constant Matrix: (Units=GPa)
#
#
# Indices 1 2 3 4 5 6 
#
# 1 86.1967 11.5919 38.7789 0.0000 0.0000 0.0000
# 2 11.5919 86.2025 38.7805 0.0000 0.0000 0.0000
# 3 38.7789 38.7805 154.5955 0.0000 0.0000 0.0000
# 4 0.0000 0.0000 0.0000 28.1762 0.0000 0.0000
# 5 0.0000 0.0000 0.0000 0.0000 28.1788 0.0000
# 6 0.0000 0.0000 0.0000 0.0000 0.0000 41.5139
#
#
#
# Elastic Compliance Matrix: (Units=1/GPa)
#
#
# Indices 1 2 3 4 5 6 
#
# 1 0.013085 -0.000319 -0.003202 0.000000 0.000000 0.000000
# 2 -0.000319 0.013084 -0.003202 0.000000 0.000000 0.000000
# 3 -0.003202 -0.003202 0.008075 0.000000 0.000000 0.000000
# 4 0.000000 0.000000 0.000000 0.035491 0.000000 0.000000
# 5 0.000000 0.000000 0.000000 0.000000 0.035488 0.000000
# 6 0.000000 0.000000 0.000000 0.000000 0.000000 0.024088
#
#
# Mechanical properties :
#
#
# Convention : Reuss Voigt Hill
#
# Bulk Modulus (GPa) = 48.08314 56.14414 52.11364
# Shear Modulus (GPa) = 33.40238 35.43001 34.41620
#
# Velocity S-wave (km/s) = 3.76435 3.87692 3.82105
# Velocity P-wave (km/s) = 6.26834 6.62260 6.44790
#
# Compressibility (1/GPa) = 0.02079731
#
# Stress axis : x y z
#
# Youngs Moduli (GPa) = 76.42394 76.42890 123.83899
#
# Poissons Ratio (x) = 0.02438 0.39656
# Poissons Ratio (y) = 0.02438 0.39655
# Poissons Ratio (z) = 0.24473 0.24474
#
# Static dielectric constant tensor:
#      x y z
#    x 5.018830 0.000000 0.000000 
#    y 0.000000 5.018440 0.000000 
#    z 0.000000 0.000000 4.219140 
# 
# 
# High freq. dielectric constant tensor:
#      x y z
#    x 1.940720 0.000000 0.000000 
#    y 0.000000 1.940720 0.000000 
#    z 0.000000 0.000000 1.946620 
# 
# From -- ./inp_files/5538.got.cif
#   From: 2010.03.12/outbox.cif.g09.slc.cpg/sg142_3_cif.got.tgz:5538.got - 2010.04.03 13:27:16.
