data_PCOD8321521
_publ_section_title
;
Structure prediction by ZEFSAII (Michael W. Deem and Ramdas Pophale) SiO2 
 PCOD8321521
Probable space group: R 3
;
_chemical_formula_sum "Si O2"
_cell_formula_units_Z 60
_cell_length_a 18.290373
_cell_length_b 18.290373
_cell_length_c 9.977532
_cell_angle_alpha 90.000000
_cell_angle_beta 90.000000
_cell_angle_gamma 120.000000
_cell_volume 2890.672464
_symmetry_space_group_name_H-M "R 3"
_symmetry_group_IT_number 146
_symmetry_cell_setting 'hexagonal'
loop_
_space_group_symop_operation_xyz
x,y,z
-y,x-y,z
-x+y,-x,z
2/3+x,1/3+y,1/3+z
2/3-y,1/3+x-y,1/3+z
2/3-x+y,1/3-x,1/3+z
1/3+x,2/3+y,2/3+z
1/3-y,2/3+x-y,2/3+z
1/3-x+y,2/3-x,2/3+z
loop_
_atom_site_type_symbol
_atom_site_label
_atom_site_fract_x
_atom_site_fract_y
_atom_site_fract_z
Si Si1 0.666668 0.333334 0.521776
Si Si2 0.333334 0.666668 0.534402
Si Si3 0.576506 0.050698 0.087951
Si Si4 0.510398 0.165151 0.188192
Si Si5 0.712895 0.899486 0.144615
Si Si6 0.328415 0.251715 0.043833
Si Si7 0.510215 0.179658 0.489488
Si Si8 0.656932 0.787998 0.902477
O O1 0.666668 0.333334 0.360622
O O2 0.597789 0.238537 0.569419
O O3 0.240068 0.596470 0.480505
O O4 0.534362 0.109362 0.092540
O O5 0.678082 0.103024 0.076914
O O6 0.556716 0.999828 0.226760
O O7 0.542179 0.988920 0.960989
O O8 0.528671 0.155240 0.342621
O O9 0.410562 0.132620 0.174859
O O10 0.804732 0.908472 0.148985
O O11 0.712312 0.976443 0.066240
O O12 0.660113 0.815249 0.055862
O O13 0.295662 0.174981 0.145289
O O14 0.449015 0.089951 0.562971
#
# Coordination Sequence:
#
# PCOD8321521 Si02
#       8
#     3   3   9   9   9   9   9   9
#     4   9  18  33  63  91 116 157 219 259 305 370
#     4   9  18  36  60  94 119 157 219 268 296 382
#     4  12  23  40  64  98 125 165 219 270 328 380
#     4  10  22  37  64  93 126 168 213 263 324 381
#     4  11  24  39  63  97 127 165 221 268 322 383
#     4  12  22  40  68  93 123 168 220 277 322 382
#     4  10  21  38  63  94 126 167 209 264 318 386
#     4  11  22  41  63  92 130 171 216 263 327 394
#
# _framework density 20.756416000000002
#
# number of rings (size 3 to 8) (size 9 to 14) (size 15 to 20)
#    0.000    1.200    4.500    1.800    4.200    2.400 
#    2.700    0.000    0.000    0.000    0.000    0.000 
#    0.000    0.000    0.000    0.000    0.000    0.000 
#
# Total GULP energy -247799.914245 kJ/mol
# GULP energy per Si atom -12389.995712 kJ/mol
# Density = 2.070917 g / cm^3
# Si number density = 20.756416 Si / 1000 Ang^3
#
#
#
# Elastic Constant Matrix: (Units=GPa)
#
#
# Indices 1 2 3 4 5 6 
#
# 1 111.9609 47.9233 14.8670 9.6855 -2.5031 0.0001
# 2 47.9233 111.9605 14.8670 -9.6858 2.5030 -0.0005
# 3 14.8670 14.8670 92.8672 0.0001 0.0001 0.0000
# 4 9.6855 -9.6858 0.0001 23.2698 -0.0001 2.5032
# 5 -2.5031 2.5030 0.0001 -0.0001 23.2695 9.6854
# 6 0.0001 -0.0005 0.0000 2.5032 9.6854 32.0185
#
#
#
# Elastic Compliance Matrix: (Units=1/GPa)
#
#
# Indices 1 2 3 4 5 6 
#
# 1 0.012243 -0.005796 -0.001032 -0.007508 0.001940 0.000000
# 2 -0.005796 0.012243 -0.001032 0.007508 -0.001940 0.000000
# 3 -0.001032 -0.001032 0.011098 0.000000 0.000000 0.000000
# 4 -0.007508 0.007508 0.000000 0.049642 0.000000 -0.003881
# 5 0.001940 -0.001940 0.000000 0.000000 0.049643 -0.015017
# 6 0.000000 0.000000 0.000000 -0.003881 -0.015017 0.036078
#
#
# Mechanical properties :
#
#
# Convention : Reuss Voigt Hill
#
# Bulk Modulus (GPa) = 50.34389 52.45591 51.39990
# Shear Modulus (GPa) = 25.86817 31.65364 28.76091
#
# Velocity S-wave (km/s) = 3.53409 3.90937 3.72646
# Velocity P-wave (km/s) = 6.40003 6.76051 6.58274
#
# Compressibility (1/GPa) = 0.01986338
#
# Stress axis : x y z
#
# Youngs Moduli (GPa) = 81.68201 81.68150 90.10237
#
# Poissons Ratio (x) = 0.47344 0.09298
# Poissons Ratio (y) = 0.47344 0.09299
# Poissons Ratio (z) = 0.08430 0.08430
#
# Static dielectric constant tensor:
#      x y z
#    x 3.796230 0.000000 0.000000 
#    y 0.000000 3.796230 0.000000 
#    z 0.000000 0.000000 3.520110 
# 
# 
# High freq. dielectric constant tensor:
#      x y z
#    x 1.814010 0.000000 0.000000 
#    y 0.000000 1.814010 0.000000 
#    z 0.000000 0.000000 1.782770 
# 
# From -- ./inp_files/1241.got.cif
#   From: 2010.06.25/outbox.cif.g09.slc.cpg/sg146_cif.got.tgz:1241.got - 2010.06.28 11:17:22.
