data_PCOD8321377
_publ_section_title
;
Structure prediction by ZEFSAII (Michael W. Deem and Ramdas Pophale) SiO2 
 PCOD8321377
Probable space group: P 31
;
_chemical_formula_sum "Si O2"
_cell_formula_units_Z 24
_cell_length_a 10.803224
_cell_length_b 10.803224
_cell_length_c 11.889145
_cell_angle_alpha 90.000000
_cell_angle_beta 90.000000
_cell_angle_gamma 120.000000
_cell_volume 1201.677744
_symmetry_space_group_name_H-M "P 31"
_symmetry_group_IT_number 144
_symmetry_cell_setting 'hexagonal'
loop_
_space_group_symop_operation_xyz
x,y,z
-y,x-y,1/3+z
-x+y,-x,2/3+z
loop_
_atom_site_type_symbol
_atom_site_label
_atom_site_fract_x
_atom_site_fract_y
_atom_site_fract_z
Si Si1 0.761313 0.812871 0.375000
Si Si2 0.812862 0.051538 0.208327
Si Si3 0.412927 0.487402 0.757382
Si Si4 0.169280 0.690611 0.813655
Si Si5 0.478666 0.169338 0.980342
Si Si6 0.323986 0.729593 0.274950
Si Si7 0.594386 0.323988 0.441658
Si Si8 0.587079 0.512594 0.257425
O O1 0.895949 0.816999 0.436271
O O2 0.681245 0.856660 0.469210
O O3 0.649150 0.655627 0.329535
O O4 0.816998 0.921028 0.269589
O O5 0.856616 0.175362 0.302564
O O6 0.655621 0.006429 0.162840
O O7 0.548060 0.519665 0.683562
O O8 0.284898 0.471782 0.675176
O O9 0.465003 0.627374 0.836590
O O10 0.211677 0.671552 0.688549
O O11 0.293431 0.724088 0.902158
O O12 0.028322 0.548012 0.850205
O O13 0.569345 0.293510 0.068827
O O14 0.540097 0.211745 0.855226
O O15 0.534960 0.372634 0.336657
O O16 0.471785 0.186946 0.508613
#
# Coordination Sequence:
#
# PCOD8321377 Si02
#       8
#     3   3   3   3   3   3   3   3
#     4  12  24  45  64  88 135 176 209 262 328 390
#     4  12  24  45  64  88 135 176 209 262 328 390
#     4  11  22  41  67  96 130 161 220 277 318 385
#     4  11  20  41  66  93 129 162 208 269 324 382
#     4  11  20  41  66  93 129 162 208 269 324 382
#     4  10  22  37  65  99 120 163 213 266 330 365
#     4  10  22  37  65  99 120 163 213 266 330 365
#     4  11  22  41  67  96 130 161 220 277 318 385
#
# _framework density 19.972075
#
# number of rings (size 3 to 8) (size 9 to 14) (size 15 to 20)
#    0.000    1.000    5.000    3.000    0.000    0.000 
#    4.500    0.000    0.000    0.000    0.000    0.000 
#    0.000    0.000    0.000    0.000    0.000    0.000 
#
# Total GULP energy -297595.192094 kJ/mol
# GULP energy per Si atom -12399.799671 kJ/mol
# Density = 1.992662 g / cm^3
# Si number density = 19.972075 Si / 1000 Ang^3
#
#
#
# Elastic Constant Matrix: (Units=GPa)
#
#
# Indices 1 2 3 4 5 6 
#
# 1 88.1924 37.5569 39.4164 0.0008 0.0019 0.0000
# 2 37.5569 88.1924 39.4164 -0.0008 -0.0019 0.0000
# 3 39.4164 39.4164 102.3633 0.0000 0.0000 0.0000
# 4 0.0008 -0.0008 0.0000 42.3412 0.0000 -0.0019
# 5 0.0019 -0.0019 0.0000 0.0000 42.3412 0.0008
# 6 0.0000 0.0000 0.0000 -0.0019 0.0008 25.3177
#
#
#
# Elastic Compliance Matrix: (Units=1/GPa)
#
#
# Indices 1 2 3 4 5 6 
#
# 1 0.015116 -0.004633 -0.004037 0.000000 -0.000001 0.000000
# 2 -0.004633 0.015116 -0.004037 0.000000 0.000001 0.000000
# 3 -0.004037 -0.004037 0.012878 0.000000 0.000000 0.000000
# 4 0.000000 0.000000 0.000000 0.023618 0.000000 0.000002
# 5 -0.000001 0.000001 0.000000 0.000000 0.023618 -0.000001
# 6 0.000000 0.000000 0.000000 0.000002 -0.000001 0.039498
#
#
# Mechanical properties :
#
#
# Convention : Reuss Voigt Hill
#
# Bulk Modulus (GPa) = 56.50594 56.83639 56.67116
# Shear Modulus (GPa) = 31.02613 32.82392 31.92502
#
# Velocity S-wave (km/s) = 3.94569 4.05840 4.00244
# Velocity P-wave (km/s) = 7.00799 7.10496 7.05664
#
# Compressibility (1/GPa) = 0.01769725
#
# Stress axis : x y z
#
# Youngs Moduli (GPa) = 66.15535 66.15535 77.65298
#
# Poissons Ratio (x) = 0.30650 0.31345
# Poissons Ratio (y) = 0.30650 0.31345
# Poissons Ratio (z) = 0.26704 0.26704
#
# Static dielectric constant tensor:
#      x y z
#    x 3.566640 0.000000 0.000000 
#    y 0.000000 3.566640 0.000000 
#    z 0.000000 0.000000 3.765220 
# 
# 
# High freq. dielectric constant tensor:
#      x y z
#    x 1.769340 0.000000 0.000000 
#    y 0.000000 1.769340 0.000000 
#    z 0.000000 0.000000 1.792990 
# 
# From -- ./inp_files/683.got.cif
#   From: 2010.03.12/outbox.cif.g09.slc.cpg/sg144_cif.got.tgz:683.got - 2010.04.03 13:34:42.
