data_PCOD8321095
_publ_section_title
;
Structure prediction by ZEFSAII (Michael W. Deem and Ramdas Pophale) SiO2 
 PCOD8321095
Probable space group: I 41/A C D
;
_chemical_formula_sum "Si O2"
_cell_formula_units_Z 160
_cell_length_a 26.850770
_cell_length_b 26.850770
_cell_length_c 9.927964
_cell_angle_alpha 90.000000
_cell_angle_beta 90.000000
_cell_angle_gamma 90.000000
_cell_volume 7157.703144
_symmetry_space_group_name_H-M "I 41/A C D"
_symmetry_group_IT_number 142
_space_group.IT_coordinate_system_code '2'
_symmetry_cell_setting 'tetragonal'
loop_
_space_group_symop_operation_xyz
x,y,z
1/4-y,3/4+x,1/4+z
-x,1/2-y,z
1/4+y,1/4-x,3/4+z
x,-y,1/2-z
1/2-x,y,-z
3/4+y,1/4+x,1/4-z
1/4-y,1/4-x,1/4-z
-x,-y,-z
3/4+y,1/4-x,3/4-z
x,1/2+y,-z
3/4-y,3/4+x,1/4-z
-x,y,1/2+z
1/2+x,-y,z
1/4-y,3/4-x,3/4+z
3/4+y,3/4+x,3/4+z
1/2+x,1/2+y,1/2+z
3/4-y,1/4+x,3/4+z
1/2-x,-y,1/2+z
3/4+y,3/4-x,1/4+z
1/2+x,1/2-y,-z
-x,1/2+y,1/2-z
1/4+y,3/4+x,3/4-z
3/4-y,3/4-x,3/4-z
1/2-x,1/2-y,1/2-z
1/4+y,3/4-x,1/4-z
1/2+x,y,1/2-z
1/4-y,1/4+x,3/4-z
1/2-x,1/2+y,z
x,1/2-y,1/2+z
3/4-y,1/4-x,1/4+z
1/4+y,1/4+x,1/4+z
loop_
_atom_site_type_symbol
_atom_site_label
_atom_site_fract_x
_atom_site_fract_y
_atom_site_fract_z
Si Si1 0.615465 0.161578 0.151468
Si Si2 0.640562 0.390562 0.375000
Si Si3 0.346676 0.096676 0.875000
Si Si4 0.750000 0.236886 0.000000
Si Si5 0.520348 0.601195 0.859711
Si Si6 0.422152 0.531715 0.522571
Si Si7 0.250000 0.370381 0.500000
O O1 0.653268 0.141881 0.267149
O O2 0.617803 0.221123 0.145034
O O3 0.561111 0.140571 0.197615
O O4 0.630046 0.144197 0.002719
O O5 0.630431 0.448406 0.415882
O O6 0.345821 0.047632 0.781191
O O7 0.696544 0.265431 0.006052
O O8 0.744397 0.201213 0.130440
O O9 0.542816 0.580250 0.000200
O O10 0.415381 0.506398 0.378248
#
# Coordination Sequence:
#
# PCOD8321095 Si02
#       7
#    32  16  16  16  32  32  16
#     4  11  25  42  71  98 150 184 241 292 366 431
#     4  10  20  46  59  99 132 186 215 299 344 430
#     4  12  26  46  71 107 142 188 235 313 360 438
#     4  12  23  40  72 103 138 186 241 298 352 429
#     4  11  24  41  66 106 140 190 238 294 359 429
#     4  11  24  41  72 101 141 174 241 292 358 424
#     4  12  25  48  72 109 138 188 235 310 366 437
#
# _framework density 22.353539000000001
#
# number of rings (size 3 to 8) (size 9 to 14) (size 15 to 20)
#    0.000    0.800    6.000    2.400    2.800    0.400 
#    0.000    1.000    0.000    2.400    0.000    0.000 
#    0.000    0.000    0.000    0.000    0.000    0.000 
#
# Total GULP energy -991156.710221 kJ/mol
# GULP energy per Si atom -12389.458878 kJ/mol
# Density = 2.230266 g / cm^3
# Si number density = 22.353539 Si / 1000 Ang^3
#
#
#
# Elastic Constant Matrix: (Units=GPa)
#
#
# Indices 1 2 3 4 5 6 
#
# 1 98.3875 46.0013 27.6383 0.0000 0.0000 0.0000
# 2 46.0013 98.3875 27.6383 0.0000 0.0000 0.0000
# 3 27.6383 27.6383 124.4228 0.0000 0.0000 0.0000
# 4 0.0000 0.0000 0.0000 34.5479 0.0000 0.0000
# 5 0.0000 0.0000 0.0000 0.0000 34.5479 0.0000
# 6 0.0000 0.0000 0.0000 0.0000 0.0000 25.3721
#
#
#
# Elastic Compliance Matrix: (Units=1/GPa)
#
#
# Indices 1 2 3 4 5 6 
#
# 1 0.013329 -0.005760 -0.001681 0.000000 0.000000 0.000000
# 2 -0.005760 0.013329 -0.001681 0.000000 0.000000 0.000000
# 3 -0.001681 -0.001681 0.008784 0.000000 0.000000 0.000000
# 4 0.000000 0.000000 0.000000 0.028945 0.000000 0.000000
# 5 0.000000 0.000000 0.000000 0.000000 0.028945 0.000000
# 6 0.000000 0.000000 0.000000 0.000000 0.000000 0.039413
#
#
# Mechanical properties :
#
#
# Convention : Reuss Voigt Hill
#
# Bulk Modulus (GPa) = 58.14856 58.19483 58.17170
# Shear Modulus (GPa) = 31.90320 33.55492 32.72906
#
# Velocity S-wave (km/s) = 3.78194 3.87861 3.83058
# Velocity P-wave (km/s) = 6.71866 6.79327 6.75607
#
# Compressibility (1/GPa) = 0.01719733
#
# Stress axis : x y z
#
# Youngs Moduli (GPa) = 75.02316 75.02316 113.84197
#
# Poissons Ratio (x) = 0.43212 0.19142
# Poissons Ratio (y) = 0.43212 0.19142
# Poissons Ratio (z) = 0.12615 0.12615
#
# Static dielectric constant tensor:
#      x y z
#    x 4.075010 0.000000 0.000000 
#    y 0.000000 4.075010 0.000000 
#    z 0.000000 0.000000 4.159020 
# 
# 
# High freq. dielectric constant tensor:
#      x y z
#    x 1.866710 0.000000 0.000000 
#    y 0.000000 1.866710 0.000000 
#    z 0.000000 0.000000 1.896830 
# 
# From -- ./inp_files/2271.got.cif
#   From: 2010.03.12/outbox.cif.g09.slc.cpg/sg142_2_cif.got.tgz:2271.got - 2010.04.03 13:27:16.
