data_PCOD8321726
_publ_section_title
;
Structure prediction by ZEFSAII (Michael W. Deem and Ramdas Pophale) SiO2 
 PCOD8321726
Probable space group: R -3
;
_chemical_formula_sum "Si O2"
_cell_formula_units_Z 126
_cell_length_a 26.091657
_cell_length_b 26.091657
_cell_length_c 11.363868
_cell_angle_alpha 90.000000
_cell_angle_beta 90.000000
_cell_angle_gamma 120.000000
_cell_volume 6699.773697
_symmetry_space_group_name_H-M "R -3"
_symmetry_group_IT_number 148
_symmetry_cell_setting 'hexagonal'
loop_
_space_group_symop_operation_xyz
x,y,z
-y,x-y,z
-x+y,-x,z
-x,-y,-z
y,-x+y,-z
x-y,x,-z
2/3+x,1/3+y,1/3+z
2/3-y,1/3+x-y,1/3+z
2/3-x+y,1/3-x,1/3+z
2/3-x,1/3-y,1/3-z
2/3+y,1/3-x+y,1/3-z
2/3+x-y,1/3+x,1/3-z
1/3+x,2/3+y,2/3+z
1/3-y,2/3+x-y,2/3+z
1/3-x+y,2/3-x,2/3+z
1/3-x,2/3-y,2/3-z
1/3+y,2/3-x+y,2/3-z
1/3+x-y,2/3+x,2/3-z
loop_
_atom_site_type_symbol
_atom_site_label
_atom_site_fract_x
_atom_site_fract_y
_atom_site_fract_z
Si Si1 0.555514 0.743160 0.515060
Si Si2 0.436695 0.645480 0.166097
Si Si3 0.799838 0.131803 0.345364
Si Si4 0.908905 0.170945 0.214699
Si Si5 0.151614 0.980202 0.252312
Si Si6 0.091198 0.123140 0.965144
Si Si7 0.456295 0.168489 0.043490
O O1 0.626103 0.775347 0.540430
O O2 0.547076 0.791260 0.441027
O O3 0.520838 0.728044 0.639318
O O4 0.535947 0.683873 0.440733
O O5 0.371300 0.599032 0.125285
O O6 0.456928 0.622287 0.275518
O O7 0.477124 0.657446 0.053541
O O8 0.870584 0.178368 0.320958
O O9 0.762455 0.131208 0.233954
O O10 0.791242 0.065573 0.352083
O O11 0.879086 0.098292 0.199004
O O12 0.979323 0.202176 0.238191
O O13 0.121259 0.005380 0.163283
O O14 0.021958 0.100346 0.950446
#
# Coordination Sequence:
#
# PCOD8321726 Si02
#       7
#    18  18  18  18  18  18  18
#     4  11  21  35  62  96 116 159 206 261 316 367
#     4  12  23  38  57  90 130 181 211 244 287 376
#     4   9  20  36  64  85 114 165 209 259 320 370
#     4   9  18  37  60  88 118 167 202 253 311 372
#     4  11  21  35  61  90 124 161 213 248 306 374
#     4  10  21  31  52  88 130 164 198 257 302 358
#     4  10  21  38  62  82 126 161 209 258 304 372
#
# _framework density 18.806605000000001
#
# number of rings (size 3 to 8) (size 9 to 14) (size 15 to 20)
#    0.857    0.857    4.286    1.143    2.000    0.000 
#    0.000    0.714    3.143    0.000    0.000    0.000 
#    0.000    0.000    0.000    0.000    0.000    0.000 
#
# Total GULP energy -520359.622059 kJ/mol
# GULP energy per Si atom -12389.514811 kJ/mol
# Density = 1.876380 g / cm^3
# Si number density = 18.806605 Si / 1000 Ang^3
#
#
#
# Elastic Constant Matrix: (Units=GPa)
#
#
# Indices 1 2 3 4 5 6 
#
# 1 93.8100 49.5245 15.9431 6.7243 4.7205 -0.0029
# 2 49.5245 93.8087 15.9349 -6.7247 -4.7194 0.0024
# 3 15.9431 15.9349 43.3172 -0.0032 0.0082 -0.0047
# 4 6.7243 -6.7247 -0.0032 22.7805 -0.0030 -4.7133
# 5 4.7205 -4.7194 0.0082 -0.0030 22.7826 6.7225
# 6 -0.0029 0.0024 -0.0047 -4.7133 6.7225 22.1451
#
#
#
# Elastic Compliance Matrix: (Units=1/GPa)
#
#
# Indices 1 2 3 4 5 6 
#
# 1 0.016835 -0.009236 -0.002798 -0.007696 -0.005403 0.000005
# 2 -0.009236 0.016834 -0.002794 0.007694 0.005405 -0.000007
# 3 -0.002798 -0.002794 0.025143 0.000007 -0.000011 0.000010
# 4 -0.007696 0.007694 0.000007 0.050670 0.000015 0.010778
# 5 -0.005403 0.005405 -0.000011 0.000015 0.050670 -0.015380
# 6 0.000005 -0.000007 0.000010 0.010778 -0.015380 0.052120
#
#
# Mechanical properties :
#
#
# Convention : Reuss Voigt Hill
#
# Bulk Modulus (GPa) = 34.29780 43.74897 39.02339
# Shear Modulus (GPa) = 19.86920 23.51052 21.68986
#
# Velocity S-wave (km/s) = 3.25391 3.53954 3.39973
# Velocity P-wave (km/s) = 5.69157 6.32594 6.01712
#
# Compressibility (1/GPa) = 0.02915639
#
# Stress axis : x y z
#
# Youngs Moduli (GPa) = 59.40146 59.40417 39.77229
#
# Poissons Ratio (x) = 0.54864 0.11129
# Poissons Ratio (y) = 0.54861 0.11112
# Poissons Ratio (z) = 0.16621 0.16596
#
# Static dielectric constant tensor:
#      x y z
#    x 3.504510 0.000000 0.000000 
#    y 0.000000 3.504510 0.000000 
#    z 0.000000 0.000000 3.214310 
# 
# 
# High freq. dielectric constant tensor:
#      x y z
#    x 1.719150 0.000000 0.000000 
#    y 0.000000 1.719150 0.000000 
#    z 0.000000 0.000000 1.718110 
# 
# From -- ./inp_files/1613.got.cif
#   From: 2010.03.12/outbox.cif.g09.slc.cpg/sg148_1_cif.got.tgz:1613.got - 2010.04.03 13:38:46.
