data_PCOD8321295
_publ_section_title
;
Structure prediction by ZEFSAII (Michael W. Deem and Ramdas Pophale) SiO2 
 PCOD8321295
Probable space group: I 41/A C D
;
_chemical_formula_sum "Si O2"
_cell_formula_units_Z 136
_cell_length_a 17.441674
_cell_length_b 17.441674
_cell_length_c 18.357737
_cell_angle_alpha 90.000000
_cell_angle_beta 90.000000
_cell_angle_gamma 90.000000
_cell_volume 5584.643740
_symmetry_space_group_name_H-M "I 41/A C D"
_symmetry_group_IT_number 142
_space_group.IT_coordinate_system_code '2'
_symmetry_cell_setting 'tetragonal'
loop_
_space_group_symop_operation_xyz
x,y,z
1/4-y,3/4+x,1/4+z
-x,1/2-y,z
1/4+y,1/4-x,3/4+z
x,-y,1/2-z
1/2-x,y,-z
3/4+y,1/4+x,1/4-z
1/4-y,1/4-x,1/4-z
-x,-y,-z
3/4+y,1/4-x,3/4-z
x,1/2+y,-z
3/4-y,3/4+x,1/4-z
-x,y,1/2+z
1/2+x,-y,z
1/4-y,3/4-x,3/4+z
3/4+y,3/4+x,3/4+z
1/2+x,1/2+y,1/2+z
3/4-y,1/4+x,3/4+z
1/2-x,-y,1/2+z
3/4+y,3/4-x,1/4+z
1/2+x,1/2-y,-z
-x,1/2+y,1/2-z
1/4+y,3/4+x,3/4-z
3/4-y,3/4-x,3/4-z
1/2-x,1/2-y,1/2-z
1/4+y,3/4-x,1/4-z
1/2+x,y,1/2-z
1/4-y,1/4+x,3/4-z
1/2-x,1/2+y,z
x,1/2-y,1/2+z
3/4-y,1/4-x,1/4+z
1/4+y,1/4+x,1/4+z
loop_
_atom_site_type_symbol
_atom_site_label
_atom_site_fract_x
_atom_site_fract_y
_atom_site_fract_z
Si Si1 0.285040 0.244708 0.578593
Si Si2 0.000000 0.750000 0.375000
Si Si3 0.381912 0.396360 0.571712
Si Si4 0.798780 0.574013 0.793793
Si Si5 0.010290 0.908598 0.951648
O O1 0.250000 0.228647 0.500000
O O2 0.346394 0.312946 0.572090
O O3 0.333010 0.168493 0.599643
O O4 0.216758 0.261212 0.635896
O O5 0.072601 0.747660 0.323764
O O6 0.314909 0.456573 0.550934
O O7 0.450225 0.415361 0.516169
O O8 0.830168 0.500000 0.750000
O O9 0.832052 0.582052 0.875000
O O10 0.824338 0.656446 0.761126
#
# Coordination Sequence:
#
# PCOD8321295 Si02
#       5
#    32   8  32  32  32
#     4  11  25  48  76 111 149 197 254 306 373 457
#     4  12  24  48  80 102 148 204 240 302 400 436
#     4  11  27  48  75 108 153 193 242 318 367 448
#     4  11  25  44  75 106 143 193 245 303 370 438
#     4  11  26  50  71 110 151 192 247 312 367 454
#
# _framework density 24.352492000000002
#
# number of rings (size 3 to 8) (size 9 to 14) (size 15 to 20)
#    0.000    0.941    1.176    4.941    6.588    8.000 
#    4.235    0.000    0.000    0.000    0.000    0.000 
#    0.000    0.000    0.000    0.000    0.000    0.000 
#
# Total GULP energy -842839.035548 kJ/mol
# GULP energy per Si atom -12394.691699 kJ/mol
# Density = 2.429707 g / cm^3
# Si number density = 24.352492 Si / 1000 Ang^3
#
#
#
# Elastic Constant Matrix: (Units=GPa)
#
#
# Indices 1 2 3 4 5 6 
#
# 1 132.5500 38.7906 51.8541 0.0000 0.0000 0.0000
# 2 38.7906 132.5500 51.8541 0.0000 0.0000 0.0000
# 3 51.8541 51.8541 135.4503 0.0000 0.0000 0.0000
# 4 0.0000 0.0000 0.0000 39.6427 0.0000 0.0000
# 5 0.0000 0.0000 0.0000 0.0000 39.6427 0.0000
# 6 0.0000 0.0000 0.0000 0.0000 0.0000 21.8981
#
#
#
# Elastic Compliance Matrix: (Units=1/GPa)
#
#
# Indices 1 2 3 4 5 6 
#
# 1 0.009131 -0.001535 -0.002908 0.000000 0.000000 0.000000
# 2 -0.001535 0.009131 -0.002908 0.000000 0.000000 0.000000
# 3 -0.002908 -0.002908 0.009609 0.000000 0.000000 0.000000
# 4 0.000000 0.000000 0.000000 0.025225 0.000000 0.000000
# 5 0.000000 0.000000 0.000000 0.000000 0.025225 0.000000
# 6 0.000000 0.000000 0.000000 0.000000 0.000000 0.045666
#
#
# Mechanical properties :
#
#
# Convention : Reuss Voigt Hill
#
# Bulk Modulus (GPa) = 75.93083 76.17199 76.05141
# Shear Modulus (GPa) = 34.94549 37.44014 36.19282
#
# Velocity S-wave (km/s) = 3.79223 3.92526 3.85932
# Velocity P-wave (km/s) = 7.10086 7.20350 7.15236
#
# Compressibility (1/GPa) = 0.01316988
#
# Stress axis : x y z
#
# Youngs Moduli (GPa) = 109.51601 109.51600 104.06438
#
# Poissons Ratio (x) = 0.16805 0.30264
# Poissons Ratio (y) = 0.16805 0.30264
# Poissons Ratio (z) = 0.31849 0.31849
#
# Static dielectric constant tensor:
#      x y z
#    x 4.885780 0.000000 0.000000 
#    y 0.000000 4.885780 0.000000 
#    z 0.000000 0.000000 4.389170 
# 
# 
# High freq. dielectric constant tensor:
#      x y z
#    x 1.980080 0.000000 0.000000 
#    y 0.000000 1.980080 0.000000 
#    z 0.000000 0.000000 1.974300 
# 
# From -- ./inp_files/8771.got.cif
#   From: 2010.03.12/outbox.cif.g09.slc.cpg/sg142_5_cif.got.tgz:8771.got - 2010.04.03 13:27:16.
