data_PCOD8321889
_publ_section_title
;
Structure prediction by ZEFSAII (Michael W. Deem and Ramdas Pophale) SiO2 
 PCOD8321889
Probable space group: P 3 2 1
;
_chemical_formula_sum "Si O2"
_cell_formula_units_Z 34
_cell_length_a 14.354202
_cell_length_b 14.354202
_cell_length_c 9.226285
_cell_angle_alpha 90.000000
_cell_angle_beta 90.000000
_cell_angle_gamma 120.000000
_cell_volume 1646.325119
_symmetry_space_group_name_H-M "P 3 2 1"
_symmetry_group_IT_number 150
_symmetry_cell_setting 'hexagonal'
loop_
_space_group_symop_operation_xyz
x,y,z
-y,x-y,z
-x+y,-x,z
x-y,-y,-z
-x,-x+y,-z
y,x,-z
loop_
_atom_site_type_symbol
_atom_site_label
_atom_site_fract_x
_atom_site_fract_y
_atom_site_fract_z
Si Si1 0.906487 0.737827 0.406320
Si Si2 0.666668 0.333335 0.666802
Si Si3 0.768477 0.194907 0.653200
Si Si4 0.007200 0.330541 0.658936
Si Si5 0.484907 0.579788 0.881869
Si Si6 0.666668 0.333334 0.008949
Si Si7 0.660524 0.004014 0.166955
O O1 0.868464 0.633350 0.508134
O O2 0.804935 0.750817 0.364550
O O3 0.953084 0.722540 0.256414
O O4 0.000000 0.838051 0.500000
O O5 0.729230 0.276225 0.604651
O O6 0.666668 0.333334 0.838351
O O7 0.887899 0.260086 0.723150
O O8 0.690811 0.115926 0.778230
O O9 0.083518 0.428416 0.762766
O O10 0.000000 0.375693 0.500000
O O11 0.429314 0.645579 0.941586
O O12 0.392226 0.470958 0.808692
O O13 0.545543 0.545543 0.000000
O O14 0.688721 0.000000 0.000000
#
# Coordination Sequence:
#
# PCOD8321889 Si02
#       7
#     6   2   6   6   6   2   6
#     4   9  20  37  58  82 111 147 196 248 298 352
#     4  12  21  36  55  86 124 159 196 239 292 360
#     4  10  21  36  59  85 116 155 197 241 293 358
#     4  10  21  38  58  84 114 150 195 245 298 354
#     4  11  23  37  57  84 120 161 199 244 294 353
#     4  12  24  39  58  89 124 162 208 248 301 375
#     4  10  20  37  57  82 114 156 196 241 295 352
#
# _framework density 20.652058
#
# number of rings (size 3 to 8) (size 9 to 14) (size 15 to 20)
#    0.000    1.765    0.000    5.294    0.000    6.353 
#    0.000    3.529    0.000   38.824    0.000    0.000 
#    0.000    0.000    0.000    0.529    0.000    0.000 
#
# Total GULP energy -421499.401145 kJ/mol
# GULP energy per Si atom -12397.041210 kJ/mol
# Density = 2.060505 g / cm^3
# Si number density = 20.652058 Si / 1000 Ang^3
#
#
#
# Elastic Constant Matrix: (Units=GPa)
#
#
# Indices 1 2 3 4 5 6 
#
# 1 90.0931 16.3257 16.5757 1.2388 0.0000 0.0000
# 2 16.3257 90.0946 16.5756 -1.2373 0.0000 0.0000
# 3 16.5757 16.5756 67.7826 -0.0002 0.0000 0.0000
# 4 1.2388 -1.2373 -0.0002 25.1932 0.0000 0.0000
# 5 0.0000 0.0000 0.0000 0.0000 25.1916 1.2384
# 6 0.0000 0.0000 0.0000 0.0000 1.2384 36.8840
#
#
#
# Elastic Compliance Matrix: (Units=1/GPa)
#
#
# Indices 1 2 3 4 5 6 
#
# 1 0.011875 -0.001703 -0.002487 -0.000668 0.000000 0.000000
# 2 -0.001703 0.011875 -0.002487 0.000667 0.000000 0.000000
# 3 -0.002487 -0.002487 0.015970 0.000000 0.000000 0.000000
# 4 -0.000668 0.000667 0.000000 0.039759 0.000000 0.000000
# 5 0.000000 0.000000 0.000000 0.000000 0.039761 -0.001335
# 6 0.000000 0.000000 0.000000 0.000000 -0.001335 0.027157
#
#
# Mechanical properties :
#
#
# Convention : Reuss Voigt Hill
#
# Bulk Modulus (GPa) = 37.93152 38.54715 38.23934
# Shear Modulus (GPa) = 29.66642 30.68664 30.17653
#
# Velocity S-wave (km/s) = 3.79421 3.85890 3.82670
# Velocity P-wave (km/s) = 6.13201 6.20970 6.17098
#
# Compressibility (1/GPa) = 0.02636330
#
# Stress axis : x y z
#
# Youngs Moduli (GPa) = 84.20961 84.21137 62.61904
#
# Poissons Ratio (x) = 0.14344 0.15576
# Poissons Ratio (y) = 0.14344 0.15575
# Poissons Ratio (z) = 0.20947 0.20946
#
# Static dielectric constant tensor:
#      x y z
#    x 3.838630 0.000000 0.000000 
#    y 0.000000 3.838630 0.000000 
#    z 0.000000 0.000000 3.689060 
# 
# 
# High freq. dielectric constant tensor:
#      x y z
#    x 1.805170 0.000000 0.000000 
#    y 0.000000 1.805170 0.000000 
#    z 0.000000 0.000000 1.806390 
# 
# From -- ./inp_files/677.got.cif
#   From: 2010.03.12/outbox.cif.g09.slc.cpg/sg150_cif.got.tgz:677.got - 2010.04.03 13:41:37.
