data_PCOD8321215
_publ_section_title
;
Structure prediction by ZEFSAII (Michael W. Deem and Ramdas Pophale) SiO2 
 PCOD8321215
Probable space group: I 41/A C D
;
_chemical_formula_sum "Si O2"
_cell_formula_units_Z 168
_cell_length_a 22.127848
_cell_length_b 22.127848
_cell_length_c 15.497580
_cell_angle_alpha 90.000000
_cell_angle_beta 90.000000
_cell_angle_gamma 90.000000
_cell_volume 7588.260752
_symmetry_space_group_name_H-M "I 41/A C D"
_symmetry_group_IT_number 142
_space_group.IT_coordinate_system_code '2'
_symmetry_cell_setting 'tetragonal'
loop_
_space_group_symop_operation_xyz
x,y,z
1/4-y,3/4+x,1/4+z
-x,1/2-y,z
1/4+y,1/4-x,3/4+z
x,-y,1/2-z
1/2-x,y,-z
3/4+y,1/4+x,1/4-z
1/4-y,1/4-x,1/4-z
-x,-y,-z
3/4+y,1/4-x,3/4-z
x,1/2+y,-z
3/4-y,3/4+x,1/4-z
-x,y,1/2+z
1/2+x,-y,z
1/4-y,3/4-x,3/4+z
3/4+y,3/4+x,3/4+z
1/2+x,1/2+y,1/2+z
3/4-y,1/4+x,3/4+z
1/2-x,-y,1/2+z
3/4+y,3/4-x,1/4+z
1/2+x,1/2-y,-z
-x,1/2+y,1/2-z
1/4+y,3/4+x,3/4-z
3/4-y,3/4-x,3/4-z
1/2-x,1/2-y,1/2-z
1/4+y,3/4-x,1/4-z
1/2+x,y,1/2-z
1/4-y,1/4+x,3/4-z
1/2-x,1/2+y,z
x,1/2-y,1/2+z
3/4-y,1/4-x,1/4+z
1/4+y,1/4+x,1/4+z
loop_
_atom_site_type_symbol
_atom_site_label
_atom_site_fract_x
_atom_site_fract_y
_atom_site_fract_z
Si Si1 0.500000 0.750000 0.375000
Si Si2 0.859419 0.606047 0.281064
Si Si3 0.314017 0.435984 0.875000
Si Si4 0.481495 0.932327 0.493549
Si Si5 0.250000 0.525189 0.000000
Si Si6 0.647303 0.192505 0.901963
Si Si7 0.479679 0.378462 0.186534
O O1 0.476166 0.694753 0.315427
O O2 0.879735 0.629735 0.375000
O O3 0.822171 0.659355 0.234885
O O4 0.820218 0.545697 0.298279
O O5 0.917681 0.592932 0.221957
O O6 0.295498 0.481826 0.949626
O O7 0.304919 0.364256 0.897069
O O8 0.504098 0.906062 0.584149
O O9 0.512178 0.901978 0.410407
O O10 0.500000 0.000000 0.500000
O O11 0.581408 0.168593 0.875000
O O12 0.649350 0.216469 0.000184
#
# Coordination Sequence:
#
# PCOD8321215 Si02
#       7
#     8  32  16  32  16  32  32
#     4  12  24  48  74 116 148 198 240 304 386 460
#     4  12  27  47  75 109 150 205 253 309 386 446
#     4  10  26  44  78 101 146 199 246 318 370 456
#     4  12  27  47  73 110 150 194 250 317 366 453
#     4  12  26  50  70 108 150 202 260 304 376 462
#     4  10  25  47  70 109 143 187 248 306 375 445
#     4  12  26  46  79 108 152 197 245 315 385 454
#
# _framework density 22.13946
#
# number of rings (size 3 to 8) (size 9 to 14) (size 15 to 20)
#    0.571    0.000    4.762    2.286    2.667    5.333 
#    0.000    0.000    0.000    0.000    0.000    0.000 
#    0.000    0.000    0.000    0.000    0.000    0.000 
#
# Total GULP energy -1040744.075931 kJ/mol
# GULP energy per Si atom -12389.810428 kJ/mol
# Density = 2.208907 g / cm^3
# Si number density = 22.139460 Si / 1000 Ang^3
#
#
#
# Elastic Constant Matrix: (Units=GPa)
#
#
# Indices 1 2 3 4 5 6 
#
# 1 104.3283 59.0858 28.5644 0.0000 0.0000 0.0000
# 2 59.0858 104.3229 28.5587 0.0000 0.0000 0.0000
# 3 28.5644 28.5587 103.6957 0.0000 0.0000 0.0000
# 4 0.0000 0.0000 0.0000 5.9417 0.0000 0.0000
# 5 0.0000 0.0000 0.0000 0.0000 5.9387 0.0000
# 6 0.0000 0.0000 0.0000 0.0000 0.0000 42.8156
#
#
#
# Elastic Compliance Matrix: (Units=1/GPa)
#
#
# Indices 1 2 3 4 5 6 
#
# 1 0.014438 -0.007666 -0.001866 0.000000 0.000000 0.000000
# 2 -0.007666 0.014438 -0.001865 0.000000 0.000000 0.000000
# 3 -0.001866 -0.001865 0.010671 0.000000 0.000000 0.000000
# 4 0.000000 0.000000 0.000000 0.168301 0.000000 0.000000
# 5 0.000000 0.000000 0.000000 0.000000 0.168386 0.000000
# 6 0.000000 0.000000 0.000000 0.000000 0.000000 0.023356
#
#
# Mechanical properties :
#
#
# Convention : Reuss Voigt Hill
#
# Bulk Modulus (GPa) = 59.68872 60.52941 60.10907
# Shear Modulus (GPa) = 11.68311 24.01506 17.84909
#
# Velocity S-wave (km/s) = 2.29968 3.29708 2.84247
# Velocity P-wave (km/s) = 5.83697 6.47254 6.16295
#
# Compressibility (1/GPa) = 0.01675358
#
# Stress axis : x y z
#
# Youngs Moduli (GPa) = 69.26260 69.26093 93.71149
#
# Poissons Ratio (x) = 0.53099 0.17484
# Poissons Ratio (y) = 0.53100 0.17473
# Poissons Ratio (z) = 0.12922 0.12914
#
# Static dielectric constant tensor:
#      x y z
#    x 3.838790 0.000000 0.000000 
#    y 0.000000 3.838820 0.000000 
#    z 0.000000 0.000000 3.904460 
# 
# 
# High freq. dielectric constant tensor:
#      x y z
#    x 1.875470 0.000000 0.000000 
#    y 0.000000 1.875470 0.000000 
#    z 0.000000 0.000000 1.872700 
# 
# From -- ./inp_files/5619.got.cif
#   From: 2010.03.12/outbox.cif.g09.slc.cpg/sg142_3_cif.got.tgz:5619.got - 2010.04.03 13:27:16.
