data_PCOD8321025
_publ_section_title
;
Structure prediction by ZEFSAII (Michael W. Deem and Ramdas Pophale) SiO2 
 PCOD8321025
Probable space group: I 41/A C D
;
_chemical_formula_sum "Si O2"
_cell_formula_units_Z 184
_cell_length_a 23.142230
_cell_length_b 23.142230
_cell_length_c 17.958237
_cell_angle_alpha 90.000000
_cell_angle_beta 90.000000
_cell_angle_gamma 90.000000
_cell_volume 9617.763859
_symmetry_space_group_name_H-M "I 41/A C D"
_symmetry_group_IT_number 142
_space_group.IT_coordinate_system_code '2'
_symmetry_cell_setting 'tetragonal'
loop_
_space_group_symop_operation_xyz
x,y,z
1/4-y,3/4+x,1/4+z
-x,1/2-y,z
1/4+y,1/4-x,3/4+z
x,-y,1/2-z
1/2-x,y,-z
3/4+y,1/4+x,1/4-z
1/4-y,1/4-x,1/4-z
-x,-y,-z
3/4+y,1/4-x,3/4-z
x,1/2+y,-z
3/4-y,3/4+x,1/4-z
-x,y,1/2+z
1/2+x,-y,z
1/4-y,3/4-x,3/4+z
3/4+y,3/4+x,3/4+z
1/2+x,1/2+y,1/2+z
3/4-y,1/4+x,3/4+z
1/2-x,-y,1/2+z
3/4+y,3/4-x,1/4+z
1/2+x,1/2-y,-z
-x,1/2+y,1/2-z
1/4+y,3/4+x,3/4-z
3/4-y,3/4-x,3/4-z
1/2-x,1/2-y,1/2-z
1/4+y,3/4-x,1/4-z
1/2+x,y,1/2-z
1/4-y,1/4+x,3/4-z
1/2-x,1/2+y,z
x,1/2-y,1/2+z
3/4-y,1/4-x,1/4+z
1/4+y,1/4+x,1/4+z
loop_
_atom_site_type_symbol
_atom_site_label
_atom_site_fract_x
_atom_site_fract_y
_atom_site_fract_z
Si Si1 0.737622 0.512379 0.125000
Si Si2 0.811816 0.646667 0.472624
Si Si3 0.078247 0.655353 0.658655
Si Si4 0.997093 0.417144 0.931809
Si Si5 0.951925 0.965343 0.926137
Si Si6 0.237973 0.417569 0.734860
Si Si7 0.000000 0.250000 0.375000
O O1 0.735650 0.564374 0.185028
O O2 0.729861 0.451303 0.168077
O O3 0.750000 0.669448 0.500000
O O4 0.862195 0.672005 0.522778
O O5 0.820903 0.672400 0.389921
O O6 0.812610 0.578104 0.476265
O O7 0.139721 0.688199 0.645314
O O8 0.054279 0.621603 0.585447
O O9 0.031875 0.704826 0.679502
O O10 0.006762 0.482019 0.899502
O O11 0.987447 0.421195 0.021258
O O12 0.900816 0.995197 0.975233
#
# Coordination Sequence:
#
# PCOD8321025 Si02
#       7
#    16  32  32  32  32  32   8
#     4  10  20  30  52  86 120 167 200 241 304 396
#     4  12  19  33  61  95 122 155 199 266 317 375
#     4  10  20  38  60  87 116 162 208 258 309 370
#     4  10  22  35  59  87 122 156 205 253 313 372
#     4  11  21  35  57  95 123 154 199 266 317 369
#     4  11  19  33  53  86 126 157 205 249 309 376
#     4   8  20  40  60  82 112 168 220 246 300 380
#
# _framework density 19.131267000000001
#
# number of rings (size 3 to 8) (size 9 to 14) (size 15 to 20)
#    0.000    1.391    6.957    0.000    0.000    0.000 
#    0.000    0.000    0.000   38.609    0.000    0.000 
#    0.000    0.000    0.000    0.000    0.000    0.000 
#
# Total GULP energy -1139930.683373 kJ/mol
# GULP energy per Si atom -12390.550906 kJ/mol
# Density = 1.908772 g / cm^3
# Si number density = 19.131267 Si / 1000 Ang^3
#
#
#
# Elastic Constant Matrix: (Units=GPa)
#
#
# Indices 1 2 3 4 5 6 
#
# 1 93.5967 38.7752 43.4430 0.0000 0.0000 0.0000
# 2 38.7752 93.5958 43.4429 0.0000 0.0000 0.0000
# 3 43.4430 43.4429 107.4184 0.0000 0.0000 0.0000
# 4 0.0000 0.0000 0.0000 31.0537 0.0000 0.0000
# 5 0.0000 0.0000 0.0000 0.0000 31.0535 0.0000
# 6 0.0000 0.0000 0.0000 0.0000 0.0000 26.9883
#
#
#
# Elastic Compliance Matrix: (Units=1/GPa)
#
#
# Indices 1 2 3 4 5 6 
#
# 1 0.014263 -0.003978 -0.004159 0.000000 0.000000 0.000000
# 2 -0.003978 0.014263 -0.004159 0.000000 0.000000 0.000000
# 3 -0.004159 -0.004159 0.012674 0.000000 0.000000 0.000000
# 4 0.000000 0.000000 0.000000 0.032202 0.000000 0.000000
# 5 0.000000 0.000000 0.000000 0.000000 0.032202 0.000000
# 6 0.000000 0.000000 0.000000 0.000000 0.000000 0.037053
#
#
# Mechanical properties :
#
#
# Convention : Reuss Voigt Hill
#
# Bulk Modulus (GPa) = 60.22122 60.65926 60.44024
# Shear Modulus (GPa) = 28.93742 29.08242 29.00992
#
# Velocity S-wave (km/s) = 3.89340 3.90314 3.89827
# Velocity P-wave (km/s) = 7.19428 7.21723 7.20576
#
# Compressibility (1/GPa) = 0.01660544
#
# Stress axis : x y z
#
# Youngs Moduli (GPa) = 70.11230 70.11156 78.90332
#
# Poissons Ratio (x) = 0.27892 0.32819
# Poissons Ratio (y) = 0.27893 0.32819
# Poissons Ratio (z) = 0.29162 0.29162
#
# Static dielectric constant tensor:
#      x y z
#    x 3.642700 0.000000 0.000000 
#    y 0.000000 3.642700 0.000000 
#    z 0.000000 0.000000 3.462200 
# 
# 
# High freq. dielectric constant tensor:
#      x y z
#    x 1.737950 0.000000 0.000000 
#    y 0.000000 1.737950 0.000000 
#    z 0.000000 0.000000 1.723290 
# 
# From -- ./inp_files/7669.got.cif
#   From: 2010.03.12/outbox.cif.g09.slc.cpg/sg142_4_cif.got.tgz:7669.got - 2010.04.03 13:27:16.
