data_PCOD8321970
_publ_section_title
;
Structure prediction by ZEFSAII (Michael W. Deem and Ramdas Pophale) SiO2 
 PCOD8321970
Probable space group: P 31 1 2
;
_chemical_formula_sum "Si O2"
_cell_formula_units_Z 42
_cell_length_a 14.651996
_cell_length_b 14.651996
_cell_length_c 12.224417
_cell_angle_alpha 90.000000
_cell_angle_beta 90.000000
_cell_angle_gamma 120.000000
_cell_volume 2272.753686
_symmetry_space_group_name_H-M "P 31 1 2"
_symmetry_group_IT_number 151
_symmetry_cell_setting 'hexagonal'
loop_
_space_group_symop_operation_xyz
x,y,z
-y,x-y,1/3+z
-x+y,-x,2/3+z
-y,-x,2/3-z
-x+y,y,1/3-z
x,x-y,-z
loop_
_atom_site_type_symbol
_atom_site_label
_atom_site_fract_x
_atom_site_fract_y
_atom_site_fract_z
Si Si1 0.655621 0.923757 0.469671
Si Si2 0.207385 0.006278 0.666439
Si Si3 0.095640 0.309119 0.438332
Si Si4 0.470144 0.729332 0.128848
Si Si5 0.211872 0.999075 0.316773
Si Si6 0.384285 0.091937 0.503011
Si Si7 0.471715 0.946959 0.539418
O O1 0.596204 0.798102 0.500000
O O2 0.682517 0.952114 0.343144
O O3 0.585772 0.974526 0.500059
O O4 0.761262 0.972270 0.543049
O O5 0.163300 0.087268 0.671028
O O6 0.324581 0.062976 0.618538
O O7 0.139705 0.910799 0.582870
O O8 0.185121 0.425712 0.474517
O O9 0.001557 0.256509 0.527662
O O10 0.368992 0.737983 0.166667
O O11 0.454360 0.615293 0.152315
O O12 0.487761 0.743881 0.000000
O O13 0.305485 0.033148 0.402509
O O14 0.121400 0.878601 0.333334
O O15 0.439895 0.219948 0.500000
O O16 0.466420 0.050467 0.504554
O O17 0.463533 0.927066 0.666667
#
# Coordination Sequence:
#
# PCOD8321970 Si02
#       7
#     6   6   6   6   6   6   6
#     4  10  21  36  52  83 120 148 185 236 290 358
#     4  10  20  38  54  79 111 149 196 242 280 344
#     4  11  21  38  51  79 120 152 191 239 288 350
#     4  12  23  35  55  86 123 163 197 234 290 357
#     4  11  21  36  59  79 110 153 193 243 297 350
#     4  10  20  36  58  86 109 140 197 249 286 341
#     4  12  19  35  61  84 113 155 198 236 294 349
#
# _framework density 18.479786000000001
#
# number of rings (size 3 to 8) (size 9 to 14) (size 15 to 20)
#    0.000    1.143    4.286    3.857    0.000    0.571 
#    7.714    0.000    0.000    0.000    3.714    0.000 
#    0.000    0.000    0.000    0.000    0.000    0.000 
#
# Total GULP energy -520579.510358 kJ/mol
# GULP energy per Si atom -12394.750247 kJ/mol
# Density = 1.843772 g / cm^3
# Si number density = 18.479786 Si / 1000 Ang^3
#
#
#
# Elastic Constant Matrix: (Units=GPa)
#
#
# Indices 1 2 3 4 5 6 
#
# 1 74.2011 7.3016 18.4018 -0.0006 1.0331 0.0000
# 2 7.3016 74.2011 18.4018 0.0006 -1.0331 0.0000
# 3 18.4018 18.4018 129.1392 0.0000 0.0000 0.0000
# 4 -0.0006 0.0006 0.0000 24.4804 0.0000 -1.0331
# 5 1.0331 -1.0331 0.0000 0.0000 24.4804 -0.0006
# 6 0.0000 0.0000 0.0000 -1.0331 -0.0006 33.4497
#
#
#
# Elastic Compliance Matrix: (Units=1/GPa)
#
#
# Indices 1 2 3 4 5 6 
#
# 1 0.014040 -0.000927 -0.001869 0.000000 -0.000632 0.000000
# 2 -0.000927 0.014040 -0.001869 0.000000 0.000632 0.000000
# 3 -0.001869 -0.001869 0.008276 0.000000 0.000000 0.000000
# 4 0.000000 0.000000 0.000000 0.040902 0.000000 0.001263
# 5 -0.000632 0.000632 0.000000 0.000000 0.040902 0.000001
# 6 0.000000 0.000000 0.000000 0.001263 0.000001 0.029935
#
#
# Mechanical properties :
#
#
# Convention : Reuss Voigt Hill
#
# Bulk Modulus (GPa) = 36.99813 40.63909 38.81861
# Shear Modulus (GPa) = 30.04194 32.04450 31.04322
#
# Velocity S-wave (km/s) = 4.03633 4.16869 4.10304
# Velocity P-wave (km/s) = 6.46428 6.72380 6.59531
#
# Compressibility (1/GPa) = 0.02702839
#
# Stress axis : x y z
#
# Youngs Moduli (GPa) = 71.22344 71.22344 120.82960
#
# Poissons Ratio (x) = 0.06602 0.22578
# Poissons Ratio (y) = 0.06602 0.22578
# Poissons Ratio (z) = 0.13309 0.13309
#
# Static dielectric constant tensor:
#      x y z
#    x 3.270550 0.000000 0.000000 
#    y 0.000000 3.270550 0.000000 
#    z 0.000000 0.000000 3.686590 
# 
# 
# High freq. dielectric constant tensor:
#      x y z
#    x 1.696870 0.000000 0.000000 
#    y 0.000000 1.696870 0.000000 
#    z 0.000000 0.000000 1.740530 
# 
# From -- ./inp_files/2599.got.cif
#   From: 2010.03.12/outbox.cif.g09.slc.cpg/sg151_2_cif.got.tgz:2599.got - 2010.04.03 13:42:29.
