data_PCOD8321497
_publ_section_title
;
Structure prediction by ZEFSAII (Michael W. Deem and Ramdas Pophale) SiO2 
 PCOD8321497
Probable space group: P 32
;
_chemical_formula_sum "Si O2"
_cell_formula_units_Z 24
_cell_length_a 11.566009
_cell_length_b 11.566009
_cell_length_c 8.894527
_cell_angle_alpha 90.000000
_cell_angle_beta 90.000000
_cell_angle_gamma 120.000000
_cell_volume 1030.434857
_symmetry_space_group_name_H-M "P 32"
_symmetry_group_IT_number 145
_symmetry_cell_setting 'hexagonal'
loop_
_space_group_symop_operation_xyz
x,y,z
-y,x-y,2/3+z
-x+y,-x,1/3+z
loop_
_atom_site_type_symbol
_atom_site_label
_atom_site_fract_x
_atom_site_fract_y
_atom_site_fract_z
Si Si1 0.438883 0.610550 0.262220
Si Si2 0.551160 0.693768 0.959871
Si Si3 0.407802 0.237721 0.184187
Si Si4 0.157606 0.039434 0.350741
Si Si5 0.928082 0.467684 0.773241
Si Si6 0.739141 0.994854 0.588171
Si Si7 0.186738 0.041144 0.673936
Si Si8 0.108098 0.608056 0.042400
O O1 0.294664 0.482498 0.289698
O O2 0.543621 0.594529 0.367453
O O3 0.439286 0.749127 0.291919
O O4 0.462752 0.591574 0.089136
O O5 0.699030 0.759545 0.024593
O O6 0.518408 0.616818 0.800272
O O7 0.266362 0.107657 0.221153
O O8 0.461841 0.340006 0.322043
O O9 0.516425 0.194231 0.145060
O O10 0.378410 0.298729 0.035410
O O11 0.232593 0.105769 0.508202
O O12 0.032820 0.060470 0.329071
O O13 0.100551 0.879989 0.345857
O O14 0.984579 0.552739 0.926725
O O15 0.610458 0.900516 0.489915
O O16 0.855536 0.096244 0.476165
#
# Coordination Sequence:
#
# PCOD8321497 Si02
#       8
#     3   3   3   3   3   3   3   3
#     4  12  24  44  70 107 148 187 242 306 381 451
#     4  12  25  42  70 102 147 191 240 303 374 450
#     4  12  27  50  75 105 148 198 255 311 369 452
#     4  12  24  44  70 107 148 187 242 306 381 451
#     4  12  27  50  75 105 148 198 255 311 369 452
#     4  12  26  44  72 108 147 192 247 309 379 450
#     4  12  25  42  70 102 147 191 240 303 374 450
#     4  12  26  44  72 108 147 192 247 309 379 450
#
# _framework density 23.291136999999999
#
# number of rings (size 3 to 8) (size 9 to 14) (size 15 to 20)
#    0.000    0.000    5.000    4.500    3.500    1.000 
#    0.000    1.250    0.000    0.000    0.000    0.000 
#    0.000    0.000    0.000    0.000    0.000    0.000 
#
# Total GULP energy -297634.708450 kJ/mol
# GULP energy per Si atom -12401.446185 kJ/mol
# Density = 2.323813 g / cm^3
# Si number density = 23.291137 Si / 1000 Ang^3
#
#
#
# Elastic Constant Matrix: (Units=GPa)
#
#
# Indices 1 2 3 4 5 6 
#
# 1 78.0299 21.4049 22.3910 2.0984 -4.1824 0.0000
# 2 21.4049 78.0299 22.3910 -2.0984 4.1824 0.0000
# 3 22.3910 22.3910 131.6491 0.0000 0.0000 0.0000
# 4 2.0984 -2.0984 0.0000 36.6056 0.0000 4.1824
# 5 -4.1824 4.1824 0.0000 0.0000 36.6056 2.0984
# 6 0.0000 0.0000 0.0000 4.1824 2.0984 28.3125
#
#
#
# Elastic Compliance Matrix: (Units=1/GPa)
#
#
# Indices 1 2 3 4 5 6 
#
# 1 0.014466 -0.003575 -0.001852 -0.001034 0.002061 0.000000
# 2 -0.003575 0.014466 -0.001852 0.001034 -0.002061 0.000000
# 3 -0.001852 -0.001852 0.008226 0.000000 0.000000 0.000000
# 4 -0.001034 0.001034 0.000000 0.027908 0.000000 -0.004123
# 5 0.002061 -0.002061 0.000000 0.000000 0.027908 -0.002068
# 6 0.000000 0.000000 0.000000 -0.004123 -0.002068 0.036082
#
#
# Mechanical properties :
#
#
# Convention : Reuss Voigt Hill
#
# Bulk Modulus (GPa) = 44.25021 46.67584 45.46302
# Shear Modulus (GPa) = 33.07994 35.07287 34.07641
#
# Velocity S-wave (km/s) = 3.77275 3.88473 3.82915
# Velocity P-wave (km/s) = 6.16589 6.34076 6.25393
#
# Compressibility (1/GPa) = 0.02259876
#
# Stress axis : x y z
#
# Youngs Moduli (GPa) = 69.12687 69.12687 121.56502
#
# Poissons Ratio (x) = 0.24713 0.22518
# Poissons Ratio (y) = 0.24713 0.22518
# Poissons Ratio (z) = 0.12805 0.12805
#
# Static dielectric constant tensor:
#      x y z
#    x 4.009330 0.000000 0.000000 
#    y 0.000000 4.009330 0.000000 
#    z 0.000000 0.000000 4.594600 
# 
# 
# High freq. dielectric constant tensor:
#      x y z
#    x 1.912610 0.000000 0.000000 
#    y 0.000000 1.912610 0.000000 
#    z 0.000000 0.000000 1.948910 
# 
# From -- ./inp_files/437.got.cif
#   From: 2010.03.12/outbox.cif.g09.slc.cpg/sg145_cif.got.tgz:437.got - 2010.04.03 13:35:35.
