data_PCOD8321562
_publ_section_title
;
Structure prediction by ZEFSAII (Michael W. Deem and Ramdas Pophale) SiO2 
 PCOD8321562
Probable space group: R 3
;
_chemical_formula_sum "Si O2"
_cell_formula_units_Z 60
_cell_length_a 11.196174
_cell_length_b 11.196174
_cell_length_c 28.005976
_cell_angle_alpha 90.000000
_cell_angle_beta 90.000000
_cell_angle_gamma 120.000000
_cell_volume 3040.329283
_symmetry_space_group_name_H-M "R 3"
_symmetry_group_IT_number 146
_symmetry_cell_setting 'hexagonal'
loop_
_space_group_symop_operation_xyz
x,y,z
-y,x-y,z
-x+y,-x,z
2/3+x,1/3+y,1/3+z
2/3-y,1/3+x-y,1/3+z
2/3-x+y,1/3-x,1/3+z
1/3+x,2/3+y,2/3+z
1/3-y,2/3+x-y,2/3+z
1/3-x+y,2/3-x,2/3+z
loop_
_atom_site_type_symbol
_atom_site_label
_atom_site_fract_x
_atom_site_fract_y
_atom_site_fract_z
Si Si1 0.667985 0.059924 0.334720
Si Si2 0.667985 0.608061 0.334720
Si Si3 0.667371 0.056903 0.563651
Si Si4 0.333334 0.666668 0.504854
Si Si5 0.000000 0.000000 0.725291
Si Si6 0.722866 0.723569 0.230318
Si Si7 0.978274 0.489138 0.171702
Si Si8 0.644878 0.822439 0.391879
O O1 0.519807 0.039613 0.348742
O O2 0.779840 0.220159 0.339929
O O3 0.664806 0.007564 0.281514
O O4 0.712393 0.976014 0.370731
O O5 0.664807 0.657242 0.281514
O O6 0.712393 0.736379 0.370731
O O7 0.523805 0.047608 0.548970
O O8 0.783848 0.216153 0.563732
O O9 0.711116 0.976731 0.525658
O O10 0.333334 0.666667 0.448468
O O11 0.487959 0.743984 0.524300
O O12 0.154772 0.077386 0.706228
O O13 0.598950 0.643396 0.192325
O O14 0.994542 0.497271 0.115137
#
# Coordination Sequence:
#
# PCOD8321562 Si02
#       8
#     9   9   9   3   3   9   9   9
#     4  11  23  40  64  93 126 164 208 257 311 373
#     4  11  23  40  64  93 126 164 208 257 311 373
#     4  11  23  40  63  92 126 164 208 258 314 372
#     4   9  18  36  60  93 114 156 207 258 303 360
#     4   9  18  33  66  84 114 162 210 249 300 369
#     4  11  23  40  63  92 126 164 208 258 314 372
#     4  11  22  39  66  92 124 164 212 259 309 369
#     4  11  22  40  62  93 128 166 207 256 312 372
#
# _framework density 19.734703
#
# number of rings (size 3 to 8) (size 9 to 14) (size 15 to 20)
#    0.000    1.200    6.000    0.600    0.000    1.200 
#    1.800    1.500    0.000    3.600    0.000    0.000 
#    0.000    0.000    0.000    0.000    0.000    0.000 
#
# Total GULP energy -248068.057380 kJ/mol
# GULP energy per Si atom -12403.402869 kJ/mol
# Density = 1.968979 g / cm^3
# Si number density = 19.734703 Si / 1000 Ang^3
#
#
#
# Elastic Constant Matrix: (Units=GPa)
#
#
# Indices 1 2 3 4 5 6 
#
# 1 91.5694 33.7762 38.7118 -1.0265 0.0000 0.0001
# 2 33.7762 91.5690 38.7119 1.0265 0.0000 0.0000
# 3 38.7118 38.7119 112.4950 0.0000 0.0000 0.0000
# 4 -1.0265 1.0265 0.0000 30.0336 0.0000 0.0000
# 5 0.0000 0.0000 0.0000 0.0000 30.0336 -1.0265
# 6 0.0001 0.0000 0.0000 0.0000 -1.0265 28.8966
#
#
#
# Elastic Compliance Matrix: (Units=1/GPa)
#
#
# Indices 1 2 3 4 5 6 
#
# 1 0.013728 -0.003596 -0.003486 0.000592 0.000000 0.000000
# 2 -0.003596 0.013728 -0.003486 -0.000592 0.000000 0.000000
# 3 -0.003486 -0.003486 0.011289 0.000000 0.000000 0.000000
# 4 0.000592 -0.000592 0.000000 0.033337 0.000000 0.000000
# 5 0.000000 0.000000 0.000000 0.000000 0.033336 0.001184
# 6 0.000000 0.000000 0.000000 0.000000 0.001184 0.034648
#
#
# Mechanical properties :
#
#
# Convention : Reuss Voigt Hill
#
# Bulk Modulus (GPa) = 56.79894 57.55923 57.17909
# Shear Modulus (GPa) = 29.92707 30.08833 30.00770
#
# Velocity S-wave (km/s) = 3.89841 3.90890 3.90366
# Velocity P-wave (km/s) = 7.00765 7.04290 7.02530
#
# Compressibility (1/GPa) = 0.01760596
#
# Stress axis : x y z
#
# Youngs Moduli (GPa) = 72.84494 72.84453 88.58335
#
# Poissons Ratio (x) = 0.26197 0.30884
# Poissons Ratio (y) = 0.26198 0.30884
# Poissons Ratio (z) = 0.25397 0.25397
#
# Static dielectric constant tensor:
#      x y z
#    x 3.584350 0.000000 0.000000 
#    y 0.000000 3.584350 0.000000 
#    z 0.000000 0.000000 3.377050 
# 
# 
# High freq. dielectric constant tensor:
#      x y z
#    x 1.770230 0.000000 0.000000 
#    y 0.000000 1.770230 0.000000 
#    z 0.000000 0.000000 1.761600 
# 
# From -- ./inp_files/2271.got.cif
#   From: 2010.06.25/outbox.cif.g09.slc.cpg/sg146_cif.got.tgz:2271.got - 2010.06.28 11:17:22.
