data_PCOD8321944
_publ_section_title
;
Structure prediction by ZEFSAII (Michael W. Deem and Ramdas Pophale) SiO2 
 PCOD8321944
Probable space group: P 31 1 2
;
_chemical_formula_sum "Si O2"
_cell_formula_units_Z 48
_cell_length_a 11.325741
_cell_length_b 11.325741
_cell_length_c 27.038309
_cell_angle_alpha 90.000000
_cell_angle_beta 90.000000
_cell_angle_gamma 120.000000
_cell_volume 3003.609092
_symmetry_space_group_name_H-M "P 31 1 2"
_symmetry_group_IT_number 151
_symmetry_cell_setting 'hexagonal'
loop_
_space_group_symop_operation_xyz
x,y,z
-y,x-y,1/3+z
-x+y,-x,2/3+z
-y,-x,2/3-z
-x+y,y,1/3-z
x,x-y,-z
loop_
_atom_site_type_symbol
_atom_site_label
_atom_site_fract_x
_atom_site_fract_y
_atom_site_fract_z
Si Si1 0.493040 0.144829 0.961475
Si Si2 0.611695 0.865260 0.366906
Si Si3 0.247887 0.592190 0.112054
Si Si4 0.550334 0.037485 0.745061
Si Si5 0.633080 0.324598 0.777962
Si Si6 0.424334 0.329852 0.702573
Si Si7 0.961615 0.283951 0.009407
Si Si8 0.429818 0.814600 0.040262
O O1 0.564584 0.223104 0.911599
O O2 0.345475 0.018648 0.946516
O O3 0.461798 0.230899 0.000000
O O4 0.597622 0.106044 0.986514
O O5 0.519781 0.767258 0.409918
O O6 0.725843 0.823300 0.353614
O O7 0.531097 0.856622 0.316623
O O8 0.285731 0.571461 0.166667
O O9 0.362412 0.738253 0.091313
O O10 0.098024 0.577222 0.112358
O O11 0.615301 0.173682 0.778379
O O12 0.439705 0.038269 0.708742
O O13 0.672387 0.038000 0.714049
O O14 0.628788 0.371213 0.833334
O O15 0.514150 0.326144 0.747166
O O16 0.312755 0.173819 0.688054
O O17 0.359198 0.420210 0.720680
O O18 0.453310 0.726655 0.000000
#
# Coordination Sequence:
#
# PCOD8321944 Si02
#       8
#     6   6   6   6   6   6   6   6
#     4   9  17  30  45  66  91 118 149 193 230 266
#     4   9  17  29  47  66  90 117 151 190 232 267
#     4  10  19  28  44  69  96 121 147 182 233 278
#     4   9  16  28  44  66  92 116 150 188 225 276
#     4  10  19  28  45  69  96 121 147 184 233 280
#     4   9  17  30  48  66  89 120 155 188 228 271
#     4   9  14  28  49  65  85 118 153 191 226 263
#     4   9  17  31  47  66  91 120 152 192 227 268
#
# _framework density 15.980776000000001
#
# number of rings (size 3 to 8) (size 9 to 14) (size 15 to 20)
#    0.000    2.750    2.500    0.000    1.750    0.500 
#    0.000    0.625    0.000    0.000    0.000    0.000 
#    3.750    0.000    0.000    0.000    0.000    0.000 
#
# Total GULP energy -594887.284073 kJ/mol
# GULP energy per Si atom -12393.485085 kJ/mol
# Density = 1.594440 g / cm^3
# Si number density = 15.980776 Si / 1000 Ang^3
#
#
#
# Elastic Constant Matrix: (Units=GPa)
#
#
# Indices 1 2 3 4 5 6 
#
# 1 91.9326 39.5747 10.0073 0.0000 -1.2072 0.0000
# 2 39.5747 91.9326 10.0073 0.0000 1.2072 0.0000
# 3 10.0073 10.0073 55.9957 0.0000 0.0000 0.0000
# 4 0.0000 0.0000 0.0000 10.0441 0.0000 1.2072
# 5 -1.2072 1.2072 0.0000 0.0000 10.0441 0.0000
# 6 0.0000 0.0000 0.0000 1.2072 0.0000 26.1789
#
#
#
# Elastic Compliance Matrix: (Units=1/GPa)
#
#
# Indices 1 2 3 4 5 6 
#
# 1 0.013511 -0.005695 -0.001397 0.000000 0.002308 0.000000
# 2 -0.005695 0.013511 -0.001397 0.000000 -0.002308 0.000000
# 3 -0.001397 -0.001397 0.018358 0.000000 0.000000 0.000000
# 4 0.000000 0.000000 0.000000 0.100116 0.000000 -0.004617
# 5 0.002308 -0.002308 0.000000 0.000000 0.100116 0.000000
# 6 0.000000 0.000000 0.000000 -0.004617 0.000000 0.038412
#
#
# Mechanical properties :
#
#
# Convention : Reuss Voigt Hill
#
# Bulk Modulus (GPa) = 35.20703 39.89330 37.55016
# Shear Modulus (GPa) = 16.10471 21.27153 18.68812
#
# Velocity S-wave (km/s) = 3.17796 3.65234 3.42338
# Velocity P-wave (km/s) = 5.96193 6.54245 6.25892
#
# Compressibility (1/GPa) = 0.02840342
#
# Stress axis : x y z
#
# Youngs Moduli (GPa) = 74.01234 74.01234 54.47265
#
# Poissons Ratio (x) = 0.42146 0.07610
# Poissons Ratio (y) = 0.42146 0.07610
# Poissons Ratio (z) = 0.10339 0.10339
#
# Static dielectric constant tensor:
#      x y z
#    x 3.098740 0.000000 0.000000 
#    y 0.000000 3.098740 0.000000 
#    z 0.000000 0.000000 2.801330 
# 
# 
# High freq. dielectric constant tensor:
#      x y z
#    x 1.602060 0.000000 0.000000 
#    y 0.000000 1.602060 0.000000 
#    z 0.000000 0.000000 1.594640 
# 
# From -- ./inp_files/4341.got.cif
#   From: 2010.03.12/outbox.cif.g09.slc.cpg/sg151_3_cif.got.tgz:4341.got - 2010.04.03 13:42:29.
