data_PCOD8321235
_publ_section_title
;
Structure prediction by ZEFSAII (Michael W. Deem and Ramdas Pophale) SiO2 
 PCOD8321235
Probable space group: I 41/A C D
;
_chemical_formula_sum "Si O2"
_cell_formula_units_Z 176
_cell_length_a 17.896239
_cell_length_b 17.896239
_cell_length_c 25.325986
_cell_angle_alpha 90.000000
_cell_angle_beta 90.000000
_cell_angle_gamma 90.000000
_cell_volume 8111.289546
_symmetry_space_group_name_H-M "I 41/A C D"
_symmetry_group_IT_number 142
_space_group.IT_coordinate_system_code '2'
_symmetry_cell_setting 'tetragonal'
loop_
_space_group_symop_operation_xyz
x,y,z
1/4-y,3/4+x,1/4+z
-x,1/2-y,z
1/4+y,1/4-x,3/4+z
x,-y,1/2-z
1/2-x,y,-z
3/4+y,1/4+x,1/4-z
1/4-y,1/4-x,1/4-z
-x,-y,-z
3/4+y,1/4-x,3/4-z
x,1/2+y,-z
3/4-y,3/4+x,1/4-z
-x,y,1/2+z
1/2+x,-y,z
1/4-y,3/4-x,3/4+z
3/4+y,3/4+x,3/4+z
1/2+x,1/2+y,1/2+z
3/4-y,1/4+x,3/4+z
1/2-x,-y,1/2+z
3/4+y,3/4-x,1/4+z
1/2+x,1/2-y,-z
-x,1/2+y,1/2-z
1/4+y,3/4+x,3/4-z
3/4-y,3/4-x,3/4-z
1/2-x,1/2-y,1/2-z
1/4+y,3/4-x,1/4-z
1/2+x,y,1/2-z
1/4-y,1/4+x,3/4-z
1/2-x,1/2+y,z
x,1/2-y,1/2+z
3/4-y,1/4-x,1/4+z
1/4+y,1/4+x,1/4+z
loop_
_atom_site_type_symbol
_atom_site_label
_atom_site_fract_x
_atom_site_fract_y
_atom_site_fract_z
Si Si1 0.114955 0.864955 0.875000
Si Si2 0.605978 0.101368 0.521619
Si Si3 0.887345 0.534407 0.634760
Si Si4 0.606972 0.192459 0.766012
Si Si5 0.672517 0.528616 0.969374
Si Si6 0.673531 0.745992 0.969706
O O1 0.197515 0.856480 0.898944
O O2 0.103266 0.802894 0.829614
O O3 0.606444 0.047200 0.572436
O O4 0.524283 0.132776 0.508646
O O5 0.664450 0.165895 0.536340
O O6 0.640809 0.056148 0.471631
O O7 0.809277 0.566138 0.659665
O O8 0.957311 0.575199 0.662417
O O9 0.674975 0.140798 0.748925
O O10 0.530557 0.152351 0.748543
O O11 0.750000 0.536304 0.000000
O O12 0.750000 0.724822 0.000000
#
# Coordination Sequence:
#
# PCOD8321235 Si02
#       6
#    16  32  32  32  32  32
#     4  12  20  42  77  92 128 186 239 272 352 426
#     4  12  26  40  69 103 142 172 236 300 348 413
#     4  11  23  40  71 101 129 185 230 285 350 424
#     4  11  23  43  66  98 135 181 229 282 345 429
#     4  11  21  42  67  99 136 178 230 286 345 418
#     4  11  24  45  64  94 139 182 224 291 352 418
#
# _framework density 21.698152
#
# number of rings (size 3 to 8) (size 9 to 14) (size 15 to 20)
#    0.000    0.727    5.455    2.727    5.091    0.000 
#    0.000    1.818    0.000    0.000    0.000    0.000 
#    0.000    0.000    0.000    0.000    0.000    0.000 
#
# Total GULP energy -1090975.585840 kJ/mol
# GULP energy per Si atom -12397.449839 kJ/mol
# Density = 2.164877 g / cm^3
# Si number density = 21.698152 Si / 1000 Ang^3
#
#
#
# Elastic Constant Matrix: (Units=GPa)
#
#
# Indices 1 2 3 4 5 6 
#
# 1 100.5176 32.2063 24.3728 0.0000 0.0000 0.0000
# 2 32.2063 100.5176 24.3728 0.0000 0.0000 0.0000
# 3 24.3728 24.3728 101.0750 0.0000 0.0000 0.0000
# 4 0.0000 0.0000 0.0000 22.4234 0.0000 0.0000
# 5 0.0000 0.0000 0.0000 0.0000 22.4234 0.0000
# 6 0.0000 0.0000 0.0000 0.0000 0.0000 19.1855
#
#
#
# Elastic Compliance Matrix: (Units=1/GPa)
#
#
# Indices 1 2 3 4 5 6 
#
# 1 0.011453 -0.003186 -0.001993 0.000000 0.000000 0.000000
# 2 -0.003186 0.011453 -0.001993 0.000000 0.000000 0.000000
# 3 -0.001993 -0.001993 0.010855 0.000000 0.000000 0.000000
# 4 0.000000 0.000000 0.000000 0.044596 0.000000 0.000000
# 5 0.000000 0.000000 0.000000 0.000000 0.044596 0.000000
# 6 0.000000 0.000000 0.000000 0.000000 0.000000 0.052123
#
#
# Mechanical properties :
#
#
# Convention : Reuss Voigt Hill
#
# Bulk Modulus (GPa) = 51.50758 51.55714 51.53236
# Shear Modulus (GPa) = 25.52413 27.55033 26.53723
#
# Velocity S-wave (km/s) = 3.43348 3.56716 3.50096
# Velocity P-wave (km/s) = 6.28555 6.38583 6.33589
#
# Compressibility (1/GPa) = 0.01941462
#
# Stress axis : x y z
#
# Youngs Moduli (GPa) = 87.31565 87.31565 92.12354
#
# Poissons Ratio (x) = 0.27820 0.18364
# Poissons Ratio (y) = 0.27820 0.18364
# Poissons Ratio (z) = 0.17405 0.17405
#
# Static dielectric constant tensor:
#      x y z
#    x 3.956950 0.000000 0.000000 
#    y 0.000000 3.956950 0.000000 
#    z 0.000000 0.000000 3.796570 
# 
# 
# High freq. dielectric constant tensor:
#      x y z
#    x 1.854780 0.000000 0.000000 
#    y 0.000000 1.854780 0.000000 
#    z 0.000000 0.000000 1.840220 
# 
# From -- ./inp_files/11414.got.cif
#   From: 2010.03.12/outbox.cif.g09.slc.cpg/sg142_6_cif.got.tgz:11414.got - 2010.04.03 13:27:16.
