data_PCOD8321240
_publ_section_title
;
Structure prediction by ZEFSAII (Michael W. Deem and Ramdas Pophale) SiO2 
 PCOD8321240
Probable space group: I 41/A C D
;
_chemical_formula_sum "Si O2"
_cell_formula_units_Z 96
_cell_length_a 18.002553
_cell_length_b 18.002553
_cell_length_c 14.309649
_cell_angle_alpha 90.000000
_cell_angle_beta 90.000000
_cell_angle_gamma 90.000000
_cell_volume 4637.641540
_symmetry_space_group_name_H-M "I 41/A C D"
_symmetry_group_IT_number 142
_space_group.IT_coordinate_system_code '2'
_symmetry_cell_setting 'tetragonal'
loop_
_space_group_symop_operation_xyz
x,y,z
1/4-y,3/4+x,1/4+z
-x,1/2-y,z
1/4+y,1/4-x,3/4+z
x,-y,1/2-z
1/2-x,y,-z
3/4+y,1/4+x,1/4-z
1/4-y,1/4-x,1/4-z
-x,-y,-z
3/4+y,1/4-x,3/4-z
x,1/2+y,-z
3/4-y,3/4+x,1/4-z
-x,y,1/2+z
1/2+x,-y,z
1/4-y,3/4-x,3/4+z
3/4+y,3/4+x,3/4+z
1/2+x,1/2+y,1/2+z
3/4-y,1/4+x,3/4+z
1/2-x,-y,1/2+z
3/4+y,3/4-x,1/4+z
1/2+x,1/2-y,-z
-x,1/2+y,1/2-z
1/4+y,3/4+x,3/4-z
3/4-y,3/4-x,3/4-z
1/2-x,1/2-y,1/2-z
1/4+y,3/4-x,1/4-z
1/2+x,y,1/2-z
1/4-y,1/4+x,3/4-z
1/2-x,1/2+y,z
x,1/2-y,1/2+z
3/4-y,1/4-x,1/4+z
1/4+y,1/4+x,1/4+z
loop_
_atom_site_type_symbol
_atom_site_label
_atom_site_fract_x
_atom_site_fract_y
_atom_site_fract_z
Si Si1 0.174345 0.808787 0.843854
Si Si2 0.466914 0.409940 0.580008
Si Si3 0.084504 0.724734 0.990902
O O1 0.135538 0.885538 0.875000
O O2 0.168396 0.792064 0.732669
O O3 0.261667 0.815561 0.864888
O O4 0.991048 0.885470 0.849295
O O5 0.409302 0.362820 0.515925
O O6 0.477974 0.362288 0.672124
O O7 0.000000 0.750000 0.970065
#
# Coordination Sequence:
#
# PCOD8321240 Si02
#       3
#    32  32  32
#     4  11  23  37  60  94 128 166 212 269 324 388
#     4  11  22  36  60  94 125 161 217 266 323 375
#     4  12  20  37  65  91 123 164 220 270 310 380
#
# _framework density 20.700175999999999
#
# number of rings (size 3 to 8) (size 9 to 14) (size 15 to 20)
#    0.000    0.667    6.667    2.000    0.000    0.000 
#    0.000    0.000    0.000   24.000    0.000    0.000 
#    0.000    0.000    0.000    0.000    0.000    0.000 
#
# Total GULP energy -594801.701737 kJ/mol
# GULP energy per Si atom -12391.702120 kJ/mol
# Density = 2.065306 g / cm^3
# Si number density = 20.700176 Si / 1000 Ang^3
#
#
#
# Elastic Constant Matrix: (Units=GPa)
#
#
# Indices 1 2 3 4 5 6 
#
# 1 129.2036 62.2511 31.0054 0.0000 0.0000 0.0000
# 2 62.2511 129.2036 31.0054 0.0000 0.0000 0.0000
# 3 31.0054 31.0054 106.8451 0.0000 0.0000 0.0000
# 4 0.0000 0.0000 0.0000 27.6973 0.0000 0.0000
# 5 0.0000 0.0000 0.0000 0.0000 27.6973 0.0000
# 6 0.0000 0.0000 0.0000 0.0000 0.0000 25.5504
#
#
#
# Elastic Compliance Matrix: (Units=1/GPa)
#
#
# Indices 1 2 3 4 5 6 
#
# 1 0.010350 -0.004585 -0.001673 0.000000 0.000000 0.000000
# 2 -0.004585 0.010350 -0.001673 0.000000 0.000000 0.000000
# 3 -0.001673 -0.001673 0.010330 0.000000 0.000000 0.000000
# 4 0.000000 0.000000 0.000000 0.036105 0.000000 0.000000
# 5 0.000000 0.000000 0.000000 0.000000 0.036105 0.000000
# 6 0.000000 0.000000 0.000000 0.000000 0.000000 0.039138
#
#
# Mechanical properties :
#
#
# Convention : Reuss Voigt Hill
#
# Bulk Modulus (GPa) = 65.92599 68.19736 67.06167
# Shear Modulus (GPa) = 30.61895 32.25505 31.43700
#
# Velocity S-wave (km/s) = 3.85016 3.95169 3.90126
# Velocity P-wave (km/s) = 7.18903 7.33743 7.26361
#
# Compressibility (1/GPa) = 0.01516852
#
# Stress axis : x y z
#
# Youngs Moduli (GPa) = 96.61376 96.61376 96.80265
#
# Poissons Ratio (x) = 0.44302 0.16195
# Poissons Ratio (y) = 0.44302 0.16195
# Poissons Ratio (z) = 0.16163 0.16163
#
# Static dielectric constant tensor:
#      x y z
#    x 3.803480 0.000000 0.000000 
#    y 0.000000 3.803480 0.000000 
#    z 0.000000 0.000000 4.180380 
# 
# 
# High freq. dielectric constant tensor:
#      x y z
#    x 1.783630 0.000000 0.000000 
#    y 0.000000 1.783630 0.000000 
#    z 0.000000 0.000000 1.844110 
# 
# From -- ./inp_files/6568.got.cif
#   From: 2010.03.12/outbox.cif.g09.slc.cpg/sg142_4_cif.got.tgz:6568.got - 2010.04.03 13:27:16.
