data_PCOD8321403
_publ_section_title
;
Structure prediction by ZEFSAII (Michael W. Deem and Ramdas Pophale) SiO2 
 PCOD8321403
Probable space group: P 31
;
_chemical_formula_sum "Si O2"
_cell_formula_units_Z 9
_cell_length_a 9.813565
_cell_length_b 9.813565
_cell_length_c 5.298112
_cell_angle_alpha 90.000000
_cell_angle_beta 90.000000
_cell_angle_gamma 120.000000
_cell_volume 441.881046
_symmetry_space_group_name_H-M "P 31"
_symmetry_group_IT_number 144
_symmetry_cell_setting 'hexagonal'
loop_
_space_group_symop_operation_xyz
x,y,z
-y,x-y,1/3+z
-x+y,-x,2/3+z
loop_
_atom_site_type_symbol
_atom_site_label
_atom_site_fract_x
_atom_site_fract_y
_atom_site_fract_z
Si Si1 0.917579 0.646084 0.327990
Si Si2 0.574465 0.574465 0.416088
Si Si3 0.271495 0.353916 0.170853
O O1 0.736143 0.593995 0.316537
O O2 0.936862 0.491077 0.309546
O O3 0.000000 0.741693 0.582755
O O4 1.000000 0.756620 0.082755
O O5 0.593995 0.736143 0.515640
O O6 0.445784 0.508923 0.189298
#
# Coordination Sequence:
#
# PCOD8321403 Si02
#       3
#     3   3   3
#     4  10  26  40  72  95 137 175 225 271 331 399
#     4  10  26  44  70 100 138 174 228 270 342 394
#     4  10  26  40  72  95 137 175 225 271 331 399
#
# _framework density 20.367471999999999
#
# number of rings (size 3 to 8) (size 9 to 14) (size 15 to 20)
#    2.000    0.000    0.000    0.000   18.667    0.000 
#    6.000    0.000    0.000    0.000    0.000    0.000 
#    0.000    0.000    0.000    0.000    0.000    0.000 
#
# Total GULP energy -111523.407987 kJ/mol
# GULP energy per Si atom -12391.489776 kJ/mol
# Density = 2.032112 g / cm^3
# Si number density = 20.367472 Si / 1000 Ang^3
#
#
#
# Elastic Constant Matrix: (Units=GPa)
#
#
# Indices 1 2 3 4 5 6 
#
# 1 135.5679 51.4615 41.9072 11.5052 0.0000 0.0000
# 2 51.4615 135.5679 41.9072 -11.5052 0.0000 0.0000
# 3 41.9072 41.9072 152.7413 0.0000 0.0000 0.0000
# 4 11.5052 -11.5052 0.0000 20.4069 0.0000 0.0000
# 5 0.0000 0.0000 0.0000 0.0000 20.4069 11.5052
# 6 0.0000 0.0000 0.0000 0.0000 11.5052 42.0532
#
#
#
# Elastic Compliance Matrix: (Units=1/GPa)
#
#
# Indices 1 2 3 4 5 6 
#
# 1 0.010077 -0.003981 -0.001673 -0.007926 0.000000 0.000000
# 2 -0.003981 0.010077 -0.001673 0.007926 0.000000 0.000000
# 3 -0.001673 -0.001673 0.007465 0.000000 0.000000 0.000000
# 4 -0.007926 0.007926 0.000000 0.057940 0.000000 0.000000
# 5 0.000000 0.000000 0.000000 0.000000 0.057940 -0.015852
# 6 0.000000 0.000000 0.000000 0.000000 -0.015852 0.028116
#
#
# Mechanical properties :
#
#
# Convention : Reuss Voigt Hill
#
# Bulk Modulus (GPa) = 77.11906 77.15876 77.13891
# Shear Modulus (GPa) = 26.23428 35.81347 31.02388
#
# Velocity S-wave (km/s) = 3.59283 4.19784 3.90706
# Velocity P-wave (km/s) = 7.42680 7.83973 7.63605
#
# Compressibility (1/GPa) = 0.01296696
#
# Stress axis : x y z
#
# Youngs Moduli (GPa) = 99.23378 99.23378 133.96130
#
# Poissons Ratio (x) = 0.39504 0.22407
# Poissons Ratio (y) = 0.39504 0.22407
# Poissons Ratio (z) = 0.16598 0.16598
#
# Static dielectric constant tensor:
#      x y z
#    x 3.473770 0.000000 0.000000 
#    y 0.000000 3.473770 0.000000 
#    z 0.000000 0.000000 3.572280 
# 
# 
# High freq. dielectric constant tensor:
#      x y z
#    x 1.787500 0.000000 0.000000 
#    y 0.000000 1.787500 0.000000 
#    z 0.000000 0.000000 1.794850 
# 
# From -- ./inp_files/37.got.cif
#   From: 2010.03.12/outbox.cif.g09.slc.cpg/sg144_cif.got.tgz:37.got - 2010.04.03 13:34:42.
