data_PCOD8321365
_publ_section_title
;
Structure prediction by ZEFSAII (Michael W. Deem and Ramdas Pophale) SiO2 
 PCOD8321365
Probable space group: P 31
;
_chemical_formula_sum "Si O2"
_cell_formula_units_Z 21
_cell_length_a 9.701149
_cell_length_b 9.701149
_cell_length_c 11.417724
_cell_angle_alpha 90.000000
_cell_angle_beta 90.000000
_cell_angle_gamma 120.000000
_cell_volume 930.586016
_symmetry_space_group_name_H-M "P 31"
_symmetry_group_IT_number 144
_symmetry_cell_setting 'hexagonal'
loop_
_space_group_symop_operation_xyz
x,y,z
-y,x-y,1/3+z
-x+y,-x,2/3+z
loop_
_atom_site_type_symbol
_atom_site_label
_atom_site_fract_x
_atom_site_fract_y
_atom_site_fract_z
Si Si1 0.197497 0.167481 0.894240
Si Si2 0.677764 0.511706 0.612090
Si Si3 0.914162 0.614144 0.999678
Si Si4 0.536768 0.900227 0.059002
Si Si5 0.146642 0.084228 0.145909
Si Si6 0.784256 0.376711 0.803116
Si Si7 0.204144 0.408604 0.489086
O O1 0.311630 0.087683 0.890314
O O2 0.280636 0.336146 0.829102
O O3 0.028155 0.043284 0.836903
O O4 0.170956 0.190476 0.030872
O O5 0.504427 0.453359 0.661575
O O6 0.792256 0.510627 0.715833
O O7 0.667600 0.397646 0.508373
O O8 0.893512 0.467907 0.915802
O O9 0.965550 0.771102 0.924413
O O10 0.747669 0.569000 0.067365
O O11 0.052982 0.650277 0.091907
O O12 0.360977 0.795138 0.111473
O O13 0.573084 0.803211 0.961716
O O14 0.213588 0.963049 0.127099
#
# Coordination Sequence:
#
# PCOD8321365 Si02
#       7
#     3   3   3   3   3   3   3
#     4  12  25  45  75 104 141 191 248 305 380 441
#     4  11  19  40  69  99 141 181 230 295 354 440
#     4  11  22  42  71 108 146 184 250 311 368 451
#     4  12  26  49  71 101 148 193 243 310 381 449
#     4  12  24  46  74 105 144 190 246 312 376 446
#     4  10  21  36  69 112 135 184 240 291 366 440
#     4  12  27  50  69 103 153 193 249 314 375 459
#
# _framework density 22.566427000000001
#
# number of rings (size 3 to 8) (size 9 to 14) (size 15 to 20)
#    0.000    0.571    7.143    0.857    2.000    0.000 
#    7.714    0.000    0.000    0.000    0.000    0.000 
#    0.000    0.000    0.000    0.000    0.000    0.000 
#
# Total GULP energy -260342.312478 kJ/mol
# GULP energy per Si atom -12397.252975 kJ/mol
# Density = 2.251506 g / cm^3
# Si number density = 22.566427 Si / 1000 Ang^3
#
#
#
# Elastic Constant Matrix: (Units=GPa)
#
#
# Indices 1 2 3 4 5 6 
#
# 1 87.5159 23.2607 43.9815 4.2583 -2.5648 0.0000
# 2 23.2607 87.5159 43.9815 -4.2583 2.5648 0.0000
# 3 43.9815 43.9815 136.9214 0.0000 0.0000 0.0000
# 4 4.2583 -4.2583 0.0000 36.0318 0.0000 2.5648
# 5 -2.5648 2.5648 0.0000 0.0000 36.0318 4.2583
# 6 0.0000 0.0000 0.0000 2.5648 4.2583 32.1276
#
#
#
# Elastic Compliance Matrix: (Units=1/GPa)
#
#
# Indices 1 2 3 4 5 6 
#
# 1 0.014010 -0.001892 -0.003893 -0.001879 0.001132 0.000000
# 2 -0.001892 0.014010 -0.003893 0.001879 -0.001132 0.000000
# 3 -0.003893 -0.003893 0.009804 0.000000 0.000000 0.000000
# 4 -0.001879 0.001879 0.000000 0.028359 0.000000 -0.002264
# 5 0.001132 -0.001132 0.000000 0.000000 0.028359 -0.003759
# 6 0.000000 0.000000 0.000000 -0.002264 -0.003759 0.031805
#
#
# Mechanical properties :
#
#
# Convention : Reuss Voigt Hill
#
# Bulk Modulus (GPa) = 54.14135 59.37785 56.75960
# Shear Modulus (GPa) = 32.92552 34.22021 33.57287
#
# Velocity S-wave (km/s) = 3.82389 3.89835 3.86130
# Velocity P-wave (km/s) = 6.59851 6.82879 6.71464
#
# Compressibility (1/GPa) = 0.01847017
#
# Stress axis : x y z
#
# Youngs Moduli (GPa) = 71.37639 71.37639 101.99748
#
# Poissons Ratio (x) = 0.13506 0.39703
# Poissons Ratio (y) = 0.13506 0.39703
# Poissons Ratio (z) = 0.27784 0.27784
#
# Static dielectric constant tensor:
#      x y z
#    x 3.872910 0.000000 0.000000 
#    y 0.000000 3.872910 0.000000 
#    z 0.000000 0.000000 4.329910 
# 
# 
# High freq. dielectric constant tensor:
#      x y z
#    x 1.872540 0.000000 0.000000 
#    y 0.000000 1.872540 0.000000 
#    z 0.000000 0.000000 1.914990 
# 
# From -- ./inp_files/615.got.cif
#   From: 2010.03.12/outbox.cif.g09.slc.cpg/sg144_cif.got.tgz:615.got - 2010.04.03 13:34:42.
