data_PCOD8321382
_publ_section_title
;
Structure prediction by ZEFSAII (Michael W. Deem and Ramdas Pophale) SiO2 
 PCOD8321382
Probable space group: P 31
;
_chemical_formula_sum "Si O2"
_cell_formula_units_Z 18
_cell_length_a 11.037716
_cell_length_b 11.037716
_cell_length_c 8.090446
_cell_angle_alpha 90.000000
_cell_angle_beta 90.000000
_cell_angle_gamma 120.000000
_cell_volume 853.613994
_symmetry_space_group_name_H-M "P 31"
_symmetry_group_IT_number 144
_symmetry_cell_setting 'hexagonal'
loop_
_space_group_symop_operation_xyz
x,y,z
-y,x-y,1/3+z
-x+y,-x,2/3+z
loop_
_atom_site_type_symbol
_atom_site_label
_atom_site_fract_x
_atom_site_fract_y
_atom_site_fract_z
Si Si1 0.020472 0.622561 0.899170
Si Si2 0.193767 0.074657 0.634324
Si Si3 0.621182 0.636231 0.078058
Si Si4 0.713358 0.845040 0.797517
Si Si5 0.709771 0.281300 0.664930
Si Si6 0.852068 0.070310 0.322189
O O1 0.964337 0.676477 0.749658
O O2 0.088057 0.534351 0.822675
O O3 0.887018 0.520967 0.011706
O O4 0.141306 0.748563 0.005691
O O5 0.298579 0.028918 0.561175
O O6 0.165897 0.163566 0.499386
O O7 0.258442 0.171607 0.795592
O O8 0.050510 0.939852 0.690428
O O9 0.631664 0.759227 0.960643
O O10 0.650836 0.527251 0.979729
O O11 0.782095 0.761447 0.716106
O O12 0.671724 0.331494 0.834914
#
# Coordination Sequence:
#
# PCOD8321382 Si02
#       6
#     3   3   3   3   3   3
#     4  11  24  42  65 103 141 179 228 283 351 417
#     4  12  21  37  72 104 135 168 227 292 351 398
#     4  11  24  42  65 103 141 179 228 283 351 417
#     4  12  20  42  68 104 132 174 224 296 340 400
#     4  10  22  42  66 100 142 180 224 278 352 422
#     4  12  21  37  72 104 135 168 227 292 351 398
#
# _framework density 21.086814
#
# number of rings (size 3 to 8) (size 9 to 14) (size 15 to 20)
#    0.000    0.667    8.333    0.000    0.000    5.333 
#    0.000    0.000    3.667    0.000    0.000    0.000 
#    0.000    0.000    0.000    0.000    0.000    0.000 
#
# Total GULP energy -223241.127409 kJ/mol
# GULP energy per Si atom -12402.284856 kJ/mol
# Density = 2.103882 g / cm^3
# Si number density = 21.086814 Si / 1000 Ang^3
#
#
#
# Elastic Constant Matrix: (Units=GPa)
#
#
# Indices 1 2 3 4 5 6 
#
# 1 98.0901 36.0408 42.7017 0.3362 0.4460 0.0000
# 2 36.0408 98.0901 42.7017 -0.3362 -0.4460 0.0000
# 3 42.7017 42.7017 126.3788 0.0000 0.0000 0.0000
# 4 0.3362 -0.3362 0.0000 30.8220 0.0000 -0.4460
# 5 0.4460 -0.4460 0.0000 0.0000 30.8220 0.3362
# 6 0.0000 0.0000 0.0000 -0.4460 0.3362 31.0247
#
#
#
# Elastic Compliance Matrix: (Units=1/GPa)
#
#
# Indices 1 2 3 4 5 6 
#
# 1 0.012810 -0.003311 -0.003210 -0.000176 -0.000233 0.000000
# 2 -0.003311 0.012810 -0.003210 0.000176 0.000233 0.000000
# 3 -0.003210 -0.003210 0.010082 0.000000 0.000000 0.000000
# 4 -0.000176 0.000176 0.000000 0.032455 0.000000 0.000467
# 5 -0.000233 0.000233 0.000000 0.000000 0.032455 -0.000352
# 6 0.000000 0.000000 0.000000 0.000467 -0.000352 0.032243
#
#
# Mechanical properties :
#
#
# Convention : Reuss Voigt Hill
#
# Bulk Modulus (GPa) = 61.57131 62.82749 62.19940
# Shear Modulus (GPa) = 31.69982 31.94138 31.82060
#
# Velocity S-wave (km/s) = 3.88145 3.89621 3.88884
# Velocity P-wave (km/s) = 7.02495 7.07813 7.05159
#
# Compressibility (1/GPa) = 0.01624133
#
# Stress axis : x y z
#
# Youngs Moduli (GPa) = 78.06262 78.06262 99.18999
#
# Poissons Ratio (x) = 0.25848 0.31836
# Poissons Ratio (y) = 0.25848 0.31836
# Poissons Ratio (z) = 0.25055 0.25055
#
# Static dielectric constant tensor:
#      x y z
#    x 3.760300 0.000000 0.000000 
#    y 0.000000 3.760300 0.000000 
#    z 0.000000 0.000000 3.867230 
# 
# 
# High freq. dielectric constant tensor:
#      x y z
#    x 1.809930 0.000000 0.000000 
#    y 0.000000 1.809930 0.000000 
#    z 0.000000 0.000000 1.835040 
# 
# From -- ./inp_files/363.got.cif
#   From: 2010.03.12/outbox.cif.g09.slc.cpg/sg144_cif.got.tgz:363.got - 2010.04.03 13:34:42.
