data_PCOD8321821
_publ_section_title
;
Structure prediction by ZEFSAII (Michael W. Deem and Ramdas Pophale) SiO2 
 PCOD8321821
Probable space group: R -3
;
_chemical_formula_sum "Si O2"
_cell_formula_units_Z 66
_cell_length_a 13.672943
_cell_length_b 13.672943
_cell_length_c 17.724662
_cell_angle_alpha 90.000000
_cell_angle_beta 90.000000
_cell_angle_gamma 120.000000
_cell_volume 2869.674248
_symmetry_space_group_name_H-M "R -3"
_symmetry_group_IT_number 148
_symmetry_cell_setting 'hexagonal'
loop_
_space_group_symop_operation_xyz
x,y,z
-y,x-y,z
-x+y,-x,z
-x,-y,-z
y,-x+y,-z
x-y,x,-z
2/3+x,1/3+y,1/3+z
2/3-y,1/3+x-y,1/3+z
2/3-x+y,1/3-x,1/3+z
2/3-x,1/3-y,1/3-z
2/3+y,1/3-x+y,1/3-z
2/3+x-y,1/3+x,1/3-z
1/3+x,2/3+y,2/3+z
1/3-y,2/3+x-y,2/3+z
1/3-x+y,2/3-x,2/3+z
1/3-x,2/3-y,2/3-z
1/3+y,2/3-x+y,2/3-z
1/3+x-y,2/3+x,2/3-z
loop_
_atom_site_type_symbol
_atom_site_label
_atom_site_fract_x
_atom_site_fract_y
_atom_site_fract_z
Si Si1 0.000000 0.000000 0.910994
Si Si2 0.000000 0.000000 0.589006
Si Si3 0.980660 0.647327 0.583333
Si Si4 0.257720 0.802014 0.985611
Si Si5 0.257720 0.455707 0.485611
O O1 0.950341 0.078626 0.882434
O O2 0.000000 0.000000 0.000000
O O3 0.078626 0.950341 0.617566
O O4 0.000000 0.000000 0.500000
O O5 0.963440 0.534306 0.623223
O O6 0.867639 0.630107 0.543444
O O7 0.020387 0.739331 0.648782
O O8 0.072664 0.687053 0.517884
O O9 0.333333 0.800731 0.916667
#
# Coordination Sequence:
#
# PCOD8321821 Si02
#       5
#     6   6  18  18  18
#     4  12  28  47  79 111 157 209 262 330 388 470
#     4  12  28  47  79 111 157 209 262 330 388 470
#     4  12  30  44  84 110 158 202 266 320 388 474
#     4  12  27  52  75 113 156 209 257 324 399 461
#     4  12  27  52  75 113 156 209 257 324 399 461
#
# _framework density 22.999126
#
# number of rings (size 3 to 8) (size 9 to 14) (size 15 to 20)
#    0.000    0.000    5.455    1.636   11.455    0.000 
#    0.000    0.000    0.000    0.000    0.000    0.000 
#    0.000    0.000    0.000    0.000    0.000    0.000 
#
# Total GULP energy -273027.943445 kJ/mol
# GULP energy per Si atom -12410.361066 kJ/mol
# Density = 2.294678 g / cm^3
# Si number density = 22.999126 Si / 1000 Ang^3
#
#
#
# Elastic Constant Matrix: (Units=GPa)
#
#
# Indices 1 2 3 4 5 6 
#
# 1 155.3623 58.1272 68.6567 -13.3909 0.0000 0.0000
# 2 58.1272 155.3623 68.6567 13.3909 0.0000 0.0000
# 3 68.6567 68.6567 171.2141 0.0000 0.0000 0.0000
# 4 -13.3909 13.3909 0.0000 41.4763 0.0000 0.0000
# 5 0.0000 0.0000 0.0000 0.0000 41.4763 -13.3909
# 6 0.0000 0.0000 0.0000 0.0000 -13.3909 48.6175
#
#
#
# Elastic Compliance Matrix: (Units=1/GPa)
#
#
# Indices 1 2 3 4 5 6 
#
# 1 0.008800 -0.002488 -0.002531 0.003644 0.000000 0.000000
# 2 -0.002488 0.008800 -0.002531 -0.003644 0.000000 0.000000
# 3 -0.002531 -0.002531 0.007871 0.000000 0.000000 0.000000
# 4 0.003644 -0.003644 0.000000 0.026463 0.000000 0.000000
# 5 0.000000 0.000000 0.000000 0.000000 0.026463 0.007289
# 6 0.000000 0.000000 0.000000 0.000000 0.007289 0.022576
#
#
# Mechanical properties :
#
#
# Convention : Reuss Voigt Hill
#
# Bulk Modulus (GPa) = 96.43013 96.97996 96.70505
# Shear Modulus (GPa) = 41.83006 45.41392 43.62199
#
# Velocity S-wave (km/s) = 4.26933 4.44846 4.35981
# Velocity P-wave (km/s) = 8.14381 8.28513 8.21477
#
# Compressibility (1/GPa) = 0.01037020
#
# Stress axis : x y z
#
# Youngs Moduli (GPa) = 113.63498 113.63498 127.05517
#
# Poissons Ratio (x) = 0.28273 0.32159
# Poissons Ratio (y) = 0.28273 0.32159
# Poissons Ratio (z) = 0.28762 0.28762
#
# Static dielectric constant tensor:
#      x y z
#    x 4.156030 0.000000 0.000000 
#    y 0.000000 4.156030 0.000000 
#    z 0.000000 0.000000 4.236070 
# 
# 
# High freq. dielectric constant tensor:
#      x y z
#    x 1.916630 0.000000 0.000000 
#    y 0.000000 1.916630 0.000000 
#    z 0.000000 0.000000 1.921160 
# 
# From -- ./inp_files/2519.got.cif
#   From: 2010.03.12/outbox.cif.g09.slc.cpg/sg148_2_cif.got.tgz:2519.got - 2010.04.03 13:38:46.
