data_PCOD8321456
_publ_section_title
;
Structure prediction by ZEFSAII (Michael W. Deem and Ramdas Pophale) SiO2 
 PCOD8321456
Probable space group: P 31
;
_chemical_formula_sum "Si O2"
_cell_formula_units_Z 12
_cell_length_a 7.573094
_cell_length_b 7.573094
_cell_length_c 9.805449
_cell_angle_alpha 90.000000
_cell_angle_beta 90.000000
_cell_angle_gamma 120.000000
_cell_volume 487.017775
_symmetry_space_group_name_H-M "P 31"
_symmetry_group_IT_number 144
_symmetry_cell_setting 'hexagonal'
loop_
_space_group_symop_operation_xyz
x,y,z
-y,x-y,1/3+z
-x+y,-x,2/3+z
loop_
_atom_site_type_symbol
_atom_site_label
_atom_site_fract_x
_atom_site_fract_y
_atom_site_fract_z
Si Si1 0.572569 0.427431 0.240930
Si Si2 0.535066 0.464934 0.740930
Si Si3 0.101093 0.806315 0.086633
Si Si4 0.193684 0.898907 0.395227
O O1 0.492632 0.201369 0.184888
O O2 0.798631 0.507367 0.296971
O O3 0.423683 0.412715 0.362128
O O4 0.587285 0.576318 0.119733
O O5 0.623518 0.687503 0.668670
O O6 0.312497 0.376481 0.813190
O O7 0.181239 0.818761 0.240930
O O8 0.949932 0.899864 0.074263
#
# Coordination Sequence:
#
# PCOD8321456 Si02
#       4
#     3   3   3   3
#     4  12  26  50  82 118 164 218 278 346 418 492
#     4  12  26  48  76 114 164 204 276 350 400 498
#     4  12  27  51  79 121 160 222 283 335 427 497
#     4  12  27  51  79 121 160 222 283 335 427 497
#
# _framework density 24.639761
#
# number of rings (size 3 to 8) (size 9 to 14) (size 15 to 20)
#    0.000    0.000    7.500    0.000    7.000    0.000 
#    4.500    0.000    0.000    0.000    0.000    0.000 
#    0.000    0.000    0.000    0.000    0.000    0.000 
#
# Total GULP energy -148744.529094 kJ/mol
# GULP energy per Si atom -12395.377424 kJ/mol
# Density = 2.458368 g / cm^3
# Si number density = 24.639761 Si / 1000 Ang^3
#
#
#
# Elastic Constant Matrix: (Units=GPa)
#
#
# Indices 1 2 3 4 5 6 
#
# 1 195.7460 98.4142 50.9817 0.0000 -8.1511 0.0000
# 2 98.4142 195.7460 50.9817 0.0000 8.1511 0.0000
# 3 50.9817 50.9817 130.4953 0.0000 0.0000 0.0000
# 4 0.0000 0.0000 0.0000 32.0615 0.0000 8.1511
# 5 -8.1511 8.1511 0.0000 0.0000 32.0615 0.0000
# 6 0.0000 0.0000 0.0000 8.1511 0.0000 48.6659
#
#
#
# Elastic Compliance Matrix: (Units=1/GPa)
#
#
# Indices 1 2 3 4 5 6 
#
# 1 0.007332 -0.003400 -0.001536 0.000000 0.002728 0.000000
# 2 -0.003400 0.007332 -0.001536 0.000000 -0.002728 0.000000
# 3 -0.001536 -0.001536 0.008863 0.000000 0.000000 0.000000
# 4 0.000000 0.000000 0.000000 0.032577 0.000000 -0.005456
# 5 0.002728 -0.002728 0.000000 0.000000 0.032577 0.000000
# 6 0.000000 0.000000 0.000000 -0.005456 0.000000 0.021462
#
#
# Mechanical properties :
#
#
# Convention : Reuss Voigt Hill
#
# Bulk Modulus (GPa) = 94.49314 102.52695 98.51005
# Shear Modulus (GPa) = 39.49000 43.99843 41.74422
#
# Velocity S-wave (km/s) = 4.00771 4.23030 4.12051
# Velocity P-wave (km/s) = 7.73620 8.09699 7.91865
#
# Compressibility (1/GPa) = 0.01058278
#
# Stress axis : x y z
#
# Youngs Moduli (GPa) = 136.39731 136.39731 112.82372
#
# Poissons Ratio (x) = 0.46369 0.17331
# Poissons Ratio (y) = 0.46369 0.17331
# Poissons Ratio (z) = 0.20953 0.20953
#
# Static dielectric constant tensor:
#      x y z
#    x 4.760600 0.000000 0.000000 
#    y 0.000000 4.760600 0.000000 
#    z 0.000000 0.000000 4.137540 
# 
# 
# High freq. dielectric constant tensor:
#      x y z
#    x 1.995000 0.000000 0.000000 
#    y 0.000000 1.995000 0.000000 
#    z 0.000000 0.000000 1.961420 
# 
# From -- ./inp_files/207.got.cif
#   From: 2010.03.12/outbox.cif.g09.slc.cpg/sg144_cif.got.tgz:207.got - 2010.04.03 13:34:42.
