data_PCOD8321047
_publ_section_title
;
Structure prediction by ZEFSAII (Michael W. Deem and Ramdas Pophale) SiO2 
 PCOD8321047
Probable space group: I 41/A C D
;
_chemical_formula_sum "Si O2"
_cell_formula_units_Z 96
_cell_length_a 18.530094
_cell_length_b 18.530094
_cell_length_c 11.455844
_cell_angle_alpha 90.000000
_cell_angle_beta 90.000000
_cell_angle_gamma 90.000000
_cell_volume 3933.528814
_symmetry_space_group_name_H-M "I 41/A C D"
_symmetry_group_IT_number 142
_space_group.IT_coordinate_system_code '2'
_symmetry_cell_setting 'tetragonal'
loop_
_space_group_symop_operation_xyz
x,y,z
1/4-y,3/4+x,1/4+z
-x,1/2-y,z
1/4+y,1/4-x,3/4+z
x,-y,1/2-z
1/2-x,y,-z
3/4+y,1/4+x,1/4-z
1/4-y,1/4-x,1/4-z
-x,-y,-z
3/4+y,1/4-x,3/4-z
x,1/2+y,-z
3/4-y,3/4+x,1/4-z
-x,y,1/2+z
1/2+x,-y,z
1/4-y,3/4-x,3/4+z
3/4+y,3/4+x,3/4+z
1/2+x,1/2+y,1/2+z
3/4-y,1/4+x,3/4+z
1/2-x,-y,1/2+z
3/4+y,3/4-x,1/4+z
1/2+x,1/2-y,-z
-x,1/2+y,1/2-z
1/4+y,3/4+x,3/4-z
3/4-y,3/4-x,3/4-z
1/2-x,1/2-y,1/2-z
1/4+y,3/4-x,1/4-z
1/2+x,y,1/2-z
1/4-y,1/4+x,3/4-z
1/2-x,1/2+y,z
x,1/2-y,1/2+z
3/4-y,1/4-x,1/4+z
1/4+y,1/4+x,1/4+z
loop_
_atom_site_type_symbol
_atom_site_label
_atom_site_fract_x
_atom_site_fract_y
_atom_site_fract_z
Si Si1 0.196189 0.646098 0.296408
Si Si2 0.013731 0.916377 0.272692
Si Si3 0.861790 0.146987 0.836945
O O1 0.171212 0.578789 0.375000
O O2 0.164057 0.720338 0.353732
O O3 0.171536 0.635353 0.165027
O O4 0.281709 0.644109 0.288083
O O5 0.966848 0.881307 0.167839
O O6 0.083789 0.863300 0.273308
O O7 0.031492 0.000000 0.250000
#
# Coordination Sequence:
#
# PCOD8321047 Si02
#       3
#    32  32  32
#     4   9  19  38  61  86 118 153 198 257 309 367
#     4   9  20  36  56  84 115 152 194 244 302 361
#     4  10  20  37  59  83 118 157 197 247 309 372
#
# _framework density 24.405567000000001
#
# number of rings (size 3 to 8) (size 9 to 14) (size 15 to 20)
#    0.000    2.667    0.000    3.000    0.000    8.667 
#    0.000    5.000    0.000   18.000    0.000    0.000 
#    0.000    0.000    0.000    0.000    0.000    0.000 
#
# Total GULP energy -594739.534731 kJ/mol
# GULP energy per Si atom -12390.406974 kJ/mol
# Density = 2.435002 g / cm^3
# Si number density = 24.405567 Si / 1000 Ang^3
#
#
#
# Elastic Constant Matrix: (Units=GPa)
#
#
# Indices 1 2 3 4 5 6 
#
# 1 62.3244 107.8758 26.1488 0.0000 0.0000 0.0000
# 2 107.8758 62.3389 26.1513 0.0000 0.0000 0.0000
# 3 26.1488 26.1513 78.0480 0.0000 0.0000 0.0000
# 4 0.0000 0.0000 0.0000 20.6936 0.0000 0.0000
# 5 0.0000 0.0000 0.0000 0.0000 20.6914 0.0000
# 6 0.0000 0.0000 0.0000 0.0000 0.0000 30.8208
#
#
#
# Elastic Compliance Matrix: (Units=1/GPa)
#
#
# Indices 1 2 3 4 5 6 
#
# 1 -0.007705 0.014253 -0.002194 0.000000 0.000000 0.000000
# 2 0.014253 -0.007703 -0.002194 0.000000 0.000000 0.000000
# 3 -0.002194 -0.002194 0.014283 0.000000 0.000000 0.000000
# 4 0.000000 0.000000 0.000000 0.048324 0.000000 0.000000
# 5 0.000000 0.000000 0.000000 0.000000 0.048329 0.000000
# 6 0.000000 0.000000 0.000000 0.000000 0.000000 0.032446
#
#
# Mechanical properties :
#
#
# Convention : Reuss Voigt Hill
#
# Bulk Modulus (GPa) = 53.75068 58.11811 55.93439
# Shear Modulus (GPa) = 43.68809 17.27686 30.48247
#
# Velocity S-wave (km/s) = 4.23553 2.66354 3.53795
# Velocity P-wave (km/s) = 6.78170 5.77273 6.29745
#
# Compressibility (1/GPa) = 0.01860442
#
# Stress axis : x y z
#
# Youngs Moduli (GPa) = -129.79337 -129.82454 70.01284
#
# Poissons Ratio (x) = 1.85040 0.15364
# Poissons Ratio (y) = 1.84996 0.15363
# Poissons Ratio (z) = -0.28482 -0.28488
#
# Static dielectric constant tensor:
#      x y z
#    x 4.413950 0.000000 0.000000 
#    y 0.000000 4.413950 0.000000 
#    z 0.000000 0.000000 4.455960 
# 
# 
# High freq. dielectric constant tensor:
#      x y z
#    x 1.964510 0.000000 0.000000 
#    y 0.000000 1.964510 0.000000 
#    z 0.000000 0.000000 1.977180 
# 
# From -- ./inp_files/3150.got.cif
#   From: 2010.03.12/outbox.cif.g09.slc.cpg/sg142_2_cif.got.tgz:3150.got - 2010.04.03 13:27:16.
