data_PCOD8321632
_publ_section_title
;
Structure prediction by ZEFSAII (Michael W. Deem and Ramdas Pophale) SiO2 
 PCOD8321632
Probable space group: P -3
;
_chemical_formula_sum "Si O2"
_cell_formula_units_Z 42
_cell_length_a 8.674007
_cell_length_b 8.674007
_cell_length_c 28.640561
_cell_angle_alpha 90.000000
_cell_angle_beta 90.000000
_cell_angle_gamma 120.000000
_cell_volume 1866.172085
_symmetry_space_group_name_H-M "P -3"
_symmetry_group_IT_number 147
_symmetry_cell_setting 'hexagonal'
loop_
_space_group_symop_operation_xyz
x,y,z
-y,x-y,z
-x+y,-x,z
-x,-y,-z
y,-x+y,-z
x-y,x,-z
loop_
_atom_site_type_symbol
_atom_site_label
_atom_site_fract_x
_atom_site_fract_y
_atom_site_fract_z
Si Si1 0.319221 0.342848 0.481816
Si Si2 0.695415 0.028780 0.156831
Si Si3 0.560996 0.780498 0.750000
Si Si4 0.655003 0.674026 0.123859
Si Si5 0.666635 0.971220 0.656831
Si Si6 0.980977 0.325974 0.623859
Si Si7 0.023627 0.342848 0.018184
O O1 0.500000 0.500000 0.500000
O O2 0.324712 0.162073 0.485328
O O3 0.299809 0.393348 0.428627
O O4 0.658875 0.828890 0.155666
O O5 0.805508 0.127215 0.204285
O O6 0.512798 0.029401 0.147945
O O7 0.840063 0.153196 0.118461
O O8 0.434864 0.869727 0.750000
O O9 0.678293 0.872785 0.704285
O O10 0.606652 0.700191 0.071373
O O11 0.686867 0.846804 0.618461
O O12 0.829984 0.171110 0.655666
O O13 0.483397 0.970599 0.647945
O O14 0.162073 0.324712 0.985328
O O15 0.000000 0.500000 0.000000
#
# Coordination Sequence:
#
# PCOD8321632 Si02
#       7
#     6   6   6   6   6   6   6
#     4  12  25  43  67 100 143 191 241 295 352 421
#     4  12  25  45  73 105 142 184 236 295 358 432
#     4  10  20  48  72 100 132 172 224 282 362 418
#     4  12  24  44  70 103 141 190 240 293 356 424
#     4  12  25  45  73 105 142 184 236 295 358 432
#     4  12  24  44  70 103 141 190 240 293 356 424
#     4  12  25  43  67 100 143 191 241 295 352 421
#
# _framework density 22.505965
#
# number of rings (size 3 to 8) (size 9 to 14) (size 15 to 20)
#    0.286    0.000    2.857    7.714    0.000    1.143 
#    0.000    0.000    0.000    0.000    0.000    0.000 
#    0.000    0.000    0.000    0.000    0.000    0.000 
#
# Total GULP energy -520666.705612 kJ/mol
# GULP energy per Si atom -12396.826324 kJ/mol
# Density = 2.245474 g / cm^3
# Si number density = 22.505965 Si / 1000 Ang^3
#
#
#
# Elastic Constant Matrix: (Units=GPa)
#
#
# Indices 1 2 3 4 5 6 
#
# 1 137.1976 49.9197 29.8780 0.0000 6.0679 0.0000
# 2 49.9197 137.1976 29.8780 0.0000 -6.0679 0.0000
# 3 29.8780 29.8780 145.7542 0.0000 0.0000 0.0000
# 4 0.0000 0.0000 0.0000 36.0019 0.0000 -6.0679
# 5 6.0679 -6.0679 0.0000 0.0000 36.0019 0.0000
# 6 0.0000 0.0000 0.0000 -6.0679 0.0000 43.6390
#
#
#
# Elastic Compliance Matrix: (Units=1/GPa)
#
#
# Indices 1 2 3 4 5 6 
#
# 1 0.008726 -0.003007 -0.001172 0.000000 -0.001977 0.000000
# 2 -0.003007 0.008726 -0.001172 0.000000 0.001977 0.000000
# 3 -0.001172 -0.001172 0.007341 0.000000 0.000000 0.000000
# 4 0.000000 0.000000 0.000000 0.028443 0.000000 0.003955
# 5 -0.001977 0.001977 0.000000 0.000000 0.028443 0.000000
# 6 0.000000 0.000000 0.000000 0.003955 0.000000 0.023465
#
#
# Mechanical properties :
#
#
# Convention : Reuss Voigt Hill
#
# Bulk Modulus (GPa) = 70.97400 71.05563 71.01482
# Shear Modulus (GPa) = 41.47891 43.82680 42.65286
#
# Velocity S-wave (km/s) = 4.29770 4.41766 4.35809
# Velocity P-wave (km/s) = 7.49874 7.59351 7.54627
#
# Compressibility (1/GPa) = 0.01408967
#
# Stress axis : x y z
#
# Youngs Moduli (GPa) = 114.60522 114.60522 136.21258
#
# Poissons Ratio (x) = 0.34462 0.15968
# Poissons Ratio (y) = 0.34462 0.15968
# Poissons Ratio (z) = 0.13435 0.13435
#
# Static dielectric constant tensor:
#      x y z
#    x 3.795220 0.000000 0.000000 
#    y 0.000000 3.795220 0.000000 
#    z 0.000000 0.000000 4.107020 
# 
# 
# High freq. dielectric constant tensor:
#      x y z
#    x 1.889710 0.000000 0.000000 
#    y 0.000000 1.889710 0.000000 
#    z 0.000000 0.000000 1.892990 
# 
# From -- ./inp_files/1130.got.cif
#   From: 2010.03.12/outbox.cif.g09.slc.cpg/sg147_cif.got.tgz:1130.got - 2010.04.03 13:37:56.
