data_PCOD8321489
_publ_section_title
;
Structure prediction by ZEFSAII (Michael W. Deem and Ramdas Pophale) SiO2 
 PCOD8321489
Probable space group: P 32
;
_chemical_formula_sum "Si O2"
_cell_formula_units_Z 24
_cell_length_a 14.138277
_cell_length_b 14.138277
_cell_length_c 6.221480
_cell_angle_alpha 90.000000
_cell_angle_beta 90.000000
_cell_angle_gamma 120.000000
_cell_volume 1077.003993
_symmetry_space_group_name_H-M "P 32"
_symmetry_group_IT_number 145
_symmetry_cell_setting 'hexagonal'
loop_
_space_group_symop_operation_xyz
x,y,z
-y,x-y,2/3+z
-x+y,-x,1/3+z
loop_
_atom_site_type_symbol
_atom_site_label
_atom_site_fract_x
_atom_site_fract_y
_atom_site_fract_z
Si Si1 0.369000 0.120938 0.488130
Si Si2 0.992919 0.489739 0.313370
Si Si3 0.964619 0.117054 0.436735
Si Si4 0.820648 0.963103 0.758800
Si Si5 0.734643 0.773532 0.488638
Si Si6 0.113230 0.621846 0.914876
Si Si7 0.157951 0.481005 0.612928
Si Si8 0.942536 0.626671 0.626005
O O1 0.458591 0.094865 0.591055
O O2 0.266421 0.086246 0.644592
O O3 0.418542 0.250285 0.435375
O O4 0.335465 0.059332 0.259633
O O5 0.929347 0.528374 0.474121
O O6 0.106898 0.503448 0.402086
O O7 0.036448 0.576640 0.121818
O O8 0.060085 0.113657 0.294208
O O9 0.994258 0.156880 0.683371
O O10 0.875964 0.996286 0.518039
O O11 0.725377 0.841535 0.691263
O O12 0.773431 0.040034 0.832029
O O13 0.647092 0.751007 0.306680
O O14 0.121558 0.521847 0.819334
O O15 0.240347 0.713030 0.939773
O O16 0.052055 0.667121 0.765364
#
# Coordination Sequence:
#
# PCOD8321489 Si02
#       8
#     3   3   3   3   3   3   3   3
#     4  11  24  46  74  98 137 190 236 298 364 415
#     4  11  25  47  73 101 141 187 240 303 364 434
#     4  11  25  43  68 101 148 188 231 287 340 433
#     4  11  26  43  67 105 142 191 232 284 348 422
#     4  11  22  42  69  96 139 186 228 279 348 425
#     4  11  26  41  71 103 143 186 232 297 359 435
#     4  11  24  42  67 103 140 181 235 282 361 437
#     4  11  26  46  71 105 136 185 246 292 358 427
#
# _framework density 22.284039
#
# number of rings (size 3 to 8) (size 9 to 14) (size 15 to 20)
#    0.000    1.000    3.750    1.500    8.750    2.000 
#    0.000    0.000    2.750    0.000    0.000    0.000 
#    0.000    0.000    0.000    0.000    0.000    0.000 
#
# Total GULP energy -297339.011207 kJ/mol
# GULP energy per Si atom -12389.125467 kJ/mol
# Density = 2.223332 g / cm^3
# Si number density = 22.284039 Si / 1000 Ang^3
#
#
#
# Elastic Constant Matrix: (Units=GPa)
#
#
# Indices 1 2 3 4 5 6 
#
# 1 103.9021 48.9557 43.4274 2.2726 -1.3059 0.0000
# 2 48.9557 103.9021 43.4274 -2.2726 1.3059 0.0000
# 3 43.4274 43.4274 106.7618 0.0000 0.0000 0.0000
# 4 2.2726 -2.2726 0.0000 37.9299 0.0000 1.3059
# 5 -1.3059 1.3059 0.0000 0.0000 37.9299 2.2726
# 6 0.0000 0.0000 0.0000 1.3059 2.2726 27.4732
#
#
#
# Elastic Compliance Matrix: (Units=1/GPa)
#
#
# Indices 1 2 3 4 5 6 
#
# 1 0.013414 -0.004906 -0.003461 -0.001098 0.000631 0.000000
# 2 -0.004906 0.013414 -0.003461 0.001098 -0.000631 0.000000
# 3 -0.003461 -0.003461 0.012182 0.000000 0.000000 0.000000
# 4 -0.001098 0.001098 0.000000 0.026539 0.000000 -0.001261
# 5 0.000631 -0.000631 0.000000 0.000000 0.026539 -0.002195
# 6 0.000000 0.000000 0.000000 -0.001261 -0.002195 0.036641
#
#
# Mechanical properties :
#
#
# Convention : Reuss Voigt Hill
#
# Bulk Modulus (GPa) = 65.12367 65.13189 65.12778
# Shear Modulus (GPa) = 31.74501 32.58364 32.16433
#
# Velocity S-wave (km/s) = 3.77843 3.82802 3.80331
# Velocity P-wave (km/s) = 6.95149 6.98783 6.96968
#
# Compressibility (1/GPa) = 0.01535540
#
# Stress axis : x y z
#
# Youngs Moduli (GPa) = 74.54635 74.54635 82.08609
#
# Poissons Ratio (x) = 0.36571 0.28410
# Poissons Ratio (y) = 0.36571 0.28410
# Poissons Ratio (z) = 0.25801 0.25801
#
# Static dielectric constant tensor:
#      x y z
#    x 3.931800 0.000000 0.000000 
#    y 0.000000 3.931800 0.000000 
#    z 0.000000 0.000000 4.072180 
# 
# 
# High freq. dielectric constant tensor:
#      x y z
#    x 1.871110 0.000000 0.000000 
#    y 0.000000 1.871110 0.000000 
#    z 0.000000 0.000000 1.891070 
# 
# From -- ./inp_files/146.got.cif
#   From: 2010.03.12/outbox.cif.g09.slc.cpg/sg145_cif.got.tgz:146.got - 2010.04.03 13:35:35.
