data_PCOD8321931
_publ_section_title
;
Structure prediction by ZEFSAII (Michael W. Deem and Ramdas Pophale) SiO2 
 PCOD8321931
Probable space group: P 31 1 2
;
_chemical_formula_sum "Si O2"
_cell_formula_units_Z 39
_cell_length_a 8.568772
_cell_length_b 8.568772
_cell_length_c 30.728520
_cell_angle_alpha 90.000000
_cell_angle_beta 90.000000
_cell_angle_gamma 120.000000
_cell_volume 1953.932018
_symmetry_space_group_name_H-M "P 31 1 2"
_symmetry_group_IT_number 151
_symmetry_cell_setting 'hexagonal'
loop_
_space_group_symop_operation_xyz
x,y,z
-y,x-y,1/3+z
-x+y,-x,2/3+z
-y,-x,2/3-z
-x+y,y,1/3-z
x,x-y,-z
loop_
_atom_site_type_symbol
_atom_site_label
_atom_site_fract_x
_atom_site_fract_y
_atom_site_fract_z
Si Si1 0.591724 0.900036 0.314669
Si Si2 0.841597 0.158404 0.833334
Si Si3 0.824522 0.085113 0.693810
Si Si4 0.519961 0.073660 0.571897
Si Si5 0.679804 0.882461 0.906016
Si Si6 0.876978 0.559406 0.389353
Si Si7 0.430529 0.729438 0.401586
O O1 0.781918 0.905892 0.305291
O O2 0.566881 0.867969 0.366242
O O3 0.426398 0.742921 0.288895
O O4 0.587275 0.080684 0.300440
O O5 0.898838 0.335332 0.861539
O O6 0.010870 0.202631 0.802569
O O7 0.655693 0.074744 0.717946
O O8 0.833090 0.160653 0.645652
O O9 0.011280 0.219085 0.716894
O O10 0.712773 0.250327 0.577390
O O11 0.522638 0.884964 0.569754
O O12 0.658957 0.688643 0.910331
O O13 0.476626 0.850187 0.902230
#
# Coordination Sequence:
#
# PCOD8321931 Si02
#       7
#     6   3   6   6   6   6   6
#     4   9  17  29  53  88 121 139 177 226 300 370
#     4  10  24  44  54  74 114 164 202 238 282 346
#     4  10  18  34  57  87 122 149 178 237 307 364
#     4  10  21  37  59  82 115 155 196 239 290 349
#     4  10  21  37  59  80 113 155 196 239 293 346
#     4  11  19  34  60  90 113 149 188 249 298 351
#     4   9  16  32  56  84 107 149 188 226 281 365
#
# _framework density 19.959755000000001
#
# number of rings (size 3 to 8) (size 9 to 14) (size 15 to 20)
#    0.000    2.154    3.077    0.923    0.000    0.615 
#    0.000   13.846    0.000    0.000    0.000    0.000 
#    0.000    0.000    0.000    0.000    0.000    0.000 
#
# Total GULP energy -483261.807152 kJ/mol
# GULP energy per Si atom -12391.328389 kJ/mol
# Density = 1.991433 g / cm^3
# Si number density = 19.959755 Si / 1000 Ang^3
#
#
#
# Elastic Constant Matrix: (Units=GPa)
#
#
# Indices 1 2 3 4 5 6 
#
# 1 96.8455 33.7053 22.0243 -0.0002 -5.2265 0.0000
# 2 33.7053 96.8455 22.0243 0.0002 5.2265 0.0000
# 3 22.0243 22.0243 81.7859 0.0000 0.0000 0.0000
# 4 -0.0002 0.0002 0.0000 18.1827 0.0000 5.2265
# 5 -5.2265 5.2265 0.0000 0.0000 18.1827 -0.0002
# 6 0.0000 0.0000 0.0000 5.2265 -0.0002 31.5701
#
#
#
# Elastic Compliance Matrix: (Units=1/GPa)
#
#
# Indices 1 2 3 4 5 6 
#
# 1 0.012527 -0.004102 -0.002269 0.000000 0.004780 0.000000
# 2 -0.004102 0.012527 -0.002269 0.000000 -0.004780 0.000000
# 3 -0.002269 -0.002269 0.013449 0.000000 0.000000 0.000000
# 4 0.000000 0.000000 0.000000 0.057745 0.000000 -0.009560
# 5 0.004780 -0.004780 0.000000 0.000000 0.057745 0.000000
# 6 0.000000 0.000000 0.000000 -0.009560 0.000000 0.033258
#
#
# Mechanical properties :
#
#
# Convention : Reuss Voigt Hill
#
# Bulk Modulus (GPa) = 47.11590 47.88718 47.50154
# Shear Modulus (GPa) = 23.62873 26.76860 25.19867
#
# Velocity S-wave (km/s) = 3.44440 3.66612 3.55699
# Velocity P-wave (km/s) = 6.28293 6.47800 6.38121
#
# Compressibility (1/GPa) = 0.02122426
#
# Stress axis : x y z
#
# Youngs Moduli (GPa) = 79.82590 79.82590 74.35479
#
# Poissons Ratio (x) = 0.32744 0.16870
# Poissons Ratio (y) = 0.32744 0.16870
# Poissons Ratio (z) = 0.18112 0.18112
#
# Static dielectric constant tensor:
#      x y z
#    x 3.757220 0.000000 0.000000 
#    y 0.000000 3.757220 0.000000 
#    z 0.000000 0.000000 3.307650 
# 
# 
# High freq. dielectric constant tensor:
#      x y z
#    x 1.775360 0.000000 0.000000 
#    y 0.000000 1.775360 0.000000 
#    z 0.000000 0.000000 1.748640 
# 
# From -- ./inp_files/4928.got.cif
#   From: 2010.03.12/outbox.cif.g09.slc.cpg/sg151_3_cif.got.tgz:4928.got - 2010.04.03 13:42:29.
