data_PCOD8321756
_publ_section_title
;
Structure prediction by ZEFSAII (Michael W. Deem and Ramdas Pophale) SiO2 
 PCOD8321756
Probable space group: R -3
;
_chemical_formula_sum "Si O2"
_cell_formula_units_Z 108
_cell_length_a 19.470425
_cell_length_b 19.470425
_cell_length_c 15.132276
_cell_angle_alpha 90.000000
_cell_angle_beta 90.000000
_cell_angle_gamma 120.000000
_cell_volume 4968.047601
_symmetry_space_group_name_H-M "R -3"
_symmetry_group_IT_number 148
_symmetry_cell_setting 'hexagonal'
loop_
_space_group_symop_operation_xyz
x,y,z
-y,x-y,z
-x+y,-x,z
-x,-y,-z
y,-x+y,-z
x-y,x,-z
2/3+x,1/3+y,1/3+z
2/3-y,1/3+x-y,1/3+z
2/3-x+y,1/3-x,1/3+z
2/3-x,1/3-y,1/3-z
2/3+y,1/3-x+y,1/3-z
2/3+x-y,1/3+x,1/3-z
1/3+x,2/3+y,2/3+z
1/3-y,2/3+x-y,2/3+z
1/3-x+y,2/3-x,2/3+z
1/3-x,2/3-y,2/3-z
1/3+y,2/3-x+y,2/3-z
1/3+x-y,2/3+x,2/3-z
loop_
_atom_site_type_symbol
_atom_site_label
_atom_site_fract_x
_atom_site_fract_y
_atom_site_fract_z
Si Si1 0.319611 0.170961 0.293004
Si Si2 0.917669 0.481473 0.126560
Si Si3 0.583514 0.884311 0.108172
Si Si4 0.689084 0.963502 0.818391
Si Si5 0.249849 0.759500 0.635202
Si Si6 0.801298 0.222559 0.732122
O O1 0.271024 0.162128 0.381578
O O2 0.288326 0.083718 0.253251
O O3 0.311369 0.234777 0.231028
O O4 0.410659 0.203034 0.310675
O O5 0.936882 0.561799 0.179170
O O6 0.860450 0.412763 0.195990
O O7 0.995127 0.476694 0.095938
O O8 0.881692 0.480890 0.029672
O O9 0.540357 0.832854 0.196092
O O10 0.514955 0.893596 0.063492
O O11 0.666575 0.968431 0.117811
O O12 0.333767 0.794437 0.680654
#
# Coordination Sequence:
#
# PCOD8321756 Si02
#       6
#    18  18  18  18  18  18
#     4  11  23  39  64  98 127 172 215 280 326 402
#     4  10  22  41  60  94 128 171 213 269 334 392
#     4  11  24  41  67  95 133 173 222 274 336 398
#     4  10  24  38  63  97 133 166 218 273 339 392
#     4  12  24  42  65  94 132 175 221 271 339 411
#     4  10  24  39  65  93 130 172 214 274 331 395
#
# _framework density 21.738921999999999
#
# number of rings (size 3 to 8) (size 9 to 14) (size 15 to 20)
#    0.000    1.333    3.333    1.167    9.333    1.333 
#    0.000    0.000    0.000    0.333    0.000    0.000 
#    0.000    0.000    0.000    0.000    0.000    0.000 
#
# Total GULP energy -445985.263111 kJ/mol
# GULP energy per Si atom -12388.479531 kJ/mol
# Density = 2.168944 g / cm^3
# Si number density = 21.738922 Si / 1000 Ang^3
#
#
#
# Elastic Constant Matrix: (Units=GPa)
#
#
# Indices 1 2 3 4 5 6 
#
# 1 58.8703 8.3549 13.3472 4.3752 -0.8795 0.0000
# 2 8.3549 58.8703 13.3472 -4.3752 0.8795 0.0000
# 3 13.3472 13.3472 123.2884 0.0000 0.0000 0.0000
# 4 4.3752 -4.3752 0.0000 32.7278 0.0000 0.8795
# 5 -0.8795 0.8795 0.0000 0.0000 32.7278 4.3752
# 6 0.0000 0.0000 0.0000 0.8795 4.3752 25.2577
#
#
#
# Elastic Compliance Matrix: (Units=1/GPa)
#
#
# Indices 1 2 3 4 5 6 
#
# 1 0.017914 -0.002371 -0.001683 -0.002712 0.000545 0.000000
# 2 -0.002371 0.017914 -0.001683 0.002712 -0.000545 0.000000
# 3 -0.001683 -0.001683 0.008475 0.000000 0.000000 0.000000
# 4 -0.002712 0.002712 0.000000 0.031309 0.000000 -0.001090
# 5 0.000545 -0.000545 0.000000 0.000000 0.031309 -0.005423
# 6 0.000000 0.000000 0.000000 -0.001090 -0.005423 0.040569
#
#
# Mechanical properties :
#
#
# Convention : Reuss Voigt Hill
#
# Bulk Modulus (GPa) = 30.45852 34.56976 32.51414
# Shear Modulus (GPa) = 29.42775 31.87465 30.65120
#
# Velocity S-wave (km/s) = 3.68324 3.83332 3.75903
# Velocity P-wave (km/s) = 5.66832 5.96064 5.81631
#
# Compressibility (1/GPa) = 0.03283154
#
# Stress axis : x y z
#
# Youngs Moduli (GPa) = 55.82192 55.82192 117.98838
#
# Poissons Ratio (x) = 0.13233 0.19854
# Poissons Ratio (y) = 0.13233 0.19854
# Poissons Ratio (z) = 0.09393 0.09393
#
# Static dielectric constant tensor:
#      x y z
#    x 3.747010 0.000000 0.000000 
#    y 0.000000 3.747010 0.000000 
#    z 0.000000 0.000000 4.317260 
# 
# 
# High freq. dielectric constant tensor:
#      x y z
#    x 1.837490 0.000000 0.000000 
#    y 0.000000 1.837490 0.000000 
#    z 0.000000 0.000000 1.869820 
# 
# From -- ./inp_files/2063.got.cif
#   From: 2010.03.12/outbox.cif.g09.slc.cpg/sg148_2_cif.got.tgz:2063.got - 2010.04.03 13:38:46.
