data_PCOD8321421
_publ_section_title
;
Structure prediction by ZEFSAII (Michael W. Deem and Ramdas Pophale) SiO2 
 PCOD8321421
Probable space group: P 31
;
_chemical_formula_sum "Si O2"
_cell_formula_units_Z 21
_cell_length_a 8.484363
_cell_length_b 8.484363
_cell_length_c 14.683670
_cell_angle_alpha 90.000000
_cell_angle_beta 90.000000
_cell_angle_gamma 120.000000
_cell_volume 915.384870
_symmetry_space_group_name_H-M "P 31"
_symmetry_group_IT_number 144
_symmetry_cell_setting 'hexagonal'
loop_
_space_group_symop_operation_xyz
x,y,z
-y,x-y,1/3+z
-x+y,-x,2/3+z
loop_
_atom_site_type_symbol
_atom_site_label
_atom_site_fract_x
_atom_site_fract_y
_atom_site_fract_z
Si Si1 0.450271 0.747756 0.260560
Si Si2 0.800249 0.000985 0.693314
Si Si3 0.808943 0.867097 0.358079
Si Si4 0.523663 0.234249 0.458397
Si Si5 0.456081 0.629278 0.736392
Si Si6 0.637808 0.961459 0.512022
Si Si7 0.817350 0.514152 0.330319
O O1 0.666038 0.841701 0.278550
O O2 0.424751 0.854252 0.176569
O O3 0.332602 0.729044 0.352663
O O4 0.365590 0.542854 0.229312
O O5 0.611556 0.838310 0.731724
O O6 0.937516 0.924286 0.689216
O O7 0.862239 0.174270 0.760146
O O8 0.784546 0.065765 0.591793
O O9 0.876552 0.722987 0.347486
O O10 0.706047 0.848186 0.452760
O O11 0.603808 0.098090 0.450084
O O12 0.639435 0.400533 0.391324
O O13 0.544733 0.308030 0.560105
O O14 0.520366 0.501597 0.687804
#
# Coordination Sequence:
#
# PCOD8321421 Si02
#       7
#     3   3   3   3   3   3   3
#     4  11  23  47  71 106 145 190 245 303 372 442
#     4  11  27  47  76 105 148 189 253 305 373 449
#     4  12  27  46  74 110 146 191 246 311 370 448
#     4  12  25  53  70 107 146 200 245 311 379 444
#     4  11  25  46  72 108 142 199 241 304 373 449
#     4  11  25  47  74 105 145 193 243 310 368 444
#     4  12  28  44  77 105 150 196 245 308 375 448
#
# _framework density 22.941171000000001
#
# number of rings (size 3 to 8) (size 9 to 14) (size 15 to 20)
#    0.000    0.571    4.286    2.571   10.000    1.143 
#    5.143    0.000    0.000    0.000    0.000    0.000 
#    0.000    0.000    0.000    0.000    0.000    0.000 
#
# Total GULP energy -260440.494131 kJ/mol
# GULP energy per Si atom -12401.928292 kJ/mol
# Density = 2.288896 g / cm^3
# Si number density = 22.941171 Si / 1000 Ang^3
#
#
#
# Elastic Constant Matrix: (Units=GPa)
#
#
# Indices 1 2 3 4 5 6 
#
# 1 87.1473 19.2674 36.5374 1.0252 1.2785 0.0000
# 2 19.2674 87.1473 36.5374 -1.0252 -1.2785 0.0000
# 3 36.5374 36.5374 128.5541 0.0000 0.0000 0.0000
# 4 1.0252 -1.0252 0.0000 30.5904 0.0000 -1.2785
# 5 1.2785 -1.2785 0.0000 0.0000 30.5904 1.0252
# 6 0.0000 0.0000 0.0000 -1.2785 1.0252 33.9399
#
#
#
# Elastic Compliance Matrix: (Units=1/GPa)
#
#
# Indices 1 2 3 4 5 6 
#
# 1 0.013223 -0.001547 -0.003319 -0.000495 -0.000617 0.000000
# 2 -0.001547 0.013223 -0.003319 0.000495 0.000617 0.000000
# 3 -0.003319 -0.003319 0.009665 0.000000 0.000000 0.000000
# 4 -0.000495 0.000495 0.000000 0.032775 0.000000 0.001235
# 5 -0.000617 0.000617 0.000000 0.000000 0.032775 -0.000990
# 6 0.000000 0.000000 0.000000 0.001235 -0.000990 0.029540
#
#
# Mechanical properties :
#
#
# Convention : Reuss Voigt Hill
#
# Bulk Modulus (GPa) = 50.65054 54.17032 52.41043
# Shear Modulus (GPa) = 32.43587 33.05793 32.74690
#
# Velocity S-wave (km/s) = 3.76423 3.80015 3.78223
# Velocity P-wave (km/s) = 6.40460 6.55125 6.47834
#
# Compressibility (1/GPa) = 0.01974313
#
# Stress axis : x y z
#
# Youngs Moduli (GPa) = 75.62537 75.62537 103.46396
#
# Poissons Ratio (x) = 0.11700 0.34335
# Poissons Ratio (y) = 0.11700 0.34335
# Poissons Ratio (z) = 0.25097 0.25097
#
# Static dielectric constant tensor:
#      x y z
#    x 4.028020 0.000000 0.000000 
#    y 0.000000 4.028020 0.000000 
#    z 0.000000 0.000000 4.565740 
# 
# 
# High freq. dielectric constant tensor:
#      x y z
#    x 1.903830 0.000000 0.000000 
#    y 0.000000 1.903830 0.000000 
#    z 0.000000 0.000000 1.921780 
# 
# From -- ./inp_files/602.got.cif
#   From: 2010.03.12/outbox.cif.g09.slc.cpg/sg144_cif.got.tgz:602.got - 2010.04.03 13:34:42.
