data_PCOD8321652
_publ_section_title
;
Structure prediction by ZEFSAII (Michael W. Deem and Ramdas Pophale) SiO2 
 PCOD8321652
Probable space group: P -3
;
_chemical_formula_sum "Si O2"
_cell_formula_units_Z 34
_cell_length_a 14.982866
_cell_length_b 14.982866
_cell_length_c 7.593164
_cell_angle_alpha 90.000000
_cell_angle_beta 90.000000
_cell_angle_gamma 120.000000
_cell_volume 1476.193207
_symmetry_space_group_name_H-M "P -3"
_symmetry_group_IT_number 147
_symmetry_cell_setting 'hexagonal'
loop_
_space_group_symop_operation_xyz
x,y,z
-y,x-y,z
-x+y,-x,z
-x,-y,-z
y,-x+y,-z
x-y,x,-z
loop_
_atom_site_type_symbol
_atom_site_label
_atom_site_fract_x
_atom_site_fract_y
_atom_site_fract_z
Si Si1 0.549746 0.840764 0.563755
Si Si2 0.666668 0.333335 0.341779
Si Si3 0.599225 0.481375 0.792824
Si Si4 0.004712 0.180367 0.071134
Si Si5 0.666668 0.333335 0.924975
Si Si6 0.121133 0.225989 0.575443
Si Si7 0.382041 0.005423 0.117155
O O1 0.450071 0.727289 0.585112
O O2 0.531603 0.898851 0.400345
O O3 0.651769 0.832190 0.531891
O O4 0.564537 0.901938 0.744345
O O5 0.666668 0.333334 0.133464
O O6 0.671087 0.435855 0.852295
O O7 0.479980 0.390727 0.801391
O O8 0.608104 0.567863 0.926176
O O9 0.918619 0.120014 0.220173
O O10 0.036927 0.299242 0.078771
O O11 0.109886 0.175607 0.094092
O O12 0.179980 0.175247 0.480605
#
# Coordination Sequence:
#
# PCOD8321652 Si02
#       7
#     6   2   6   6   2   6   6
#     4  11  25  45  71 102 140 190 228 291 348 417
#     4  12  25  47  67 103 149 181 250 287 343 415
#     4  11  24  42  70  98 139 181 229 276 354 399
#     4  11  25  43  70  96 135 178 224 281 355 409
#     4  12  25  44  73  97 146 187 226 296 340 415
#     4  11  26  46  71 105 138 179 233 293 348 419
#     4  10  25  43  67 103 134 178 226 291 329 425
#
# _framework density 23.032215000000001
#
# number of rings (size 3 to 8) (size 9 to 14) (size 15 to 20)
#    0.000    1.059    1.765    3.000    7.412    5.647 
#    0.000    0.000    0.000    0.000    0.000    0.000 
#    0.000    0.000    0.000    0.000    0.000    0.000 
#
# Total GULP energy -421563.818661 kJ/mol
# GULP energy per Si atom -12398.935843 kJ/mol
# Density = 2.297979 g / cm^3
# Si number density = 23.032215 Si / 1000 Ang^3
#
#
#
# Elastic Constant Matrix: (Units=GPa)
#
#
# Indices 1 2 3 4 5 6 
#
# 1 89.8211 31.9822 38.9888 0.2077 0.4319 0.0001
# 2 31.9822 89.8242 38.9878 -0.2078 -0.4324 -0.0012
# 3 38.9888 38.9878 68.5781 -0.0001 0.0003 0.0005
# 4 0.2077 -0.2078 -0.0001 25.2357 -0.0001 -0.4317
# 5 0.4319 -0.4324 0.0003 -0.0001 25.2355 0.2077
# 6 0.0001 -0.0012 0.0005 -0.4317 0.2077 28.9204
#
#
#
# Elastic Compliance Matrix: (Units=1/GPa)
#
#
# Indices 1 2 3 4 5 6 
#
# 1 0.015101 -0.002193 -0.007339 -0.000142 -0.000296 0.000000
# 2 -0.002193 0.015101 -0.007338 0.000142 0.000296 0.000001
# 3 -0.007339 -0.007338 0.022926 0.000000 0.000000 -0.000001
# 4 -0.000142 0.000142 0.000000 0.039639 0.000000 0.000592
# 5 -0.000296 0.000296 0.000000 0.000000 0.039639 -0.000285
# 6 0.000000 0.000001 -0.000001 0.000592 -0.000285 0.034589
#
#
# Mechanical properties :
#
#
# Convention : Reuss Voigt Hill
#
# Bulk Modulus (GPa) = 51.57831 52.01567 51.79699
# Shear Modulus (GPa) = 24.13160 25.09597 24.61378
#
# Velocity S-wave (km/s) = 3.24038 3.30449 3.27259
# Velocity P-wave (km/s) = 6.03678 6.09856 6.06775
#
# Compressibility (1/GPa) = 0.01938799
#
# Stress axis : x y z
#
# Youngs Moduli (GPa) = 66.21864 66.22265 43.61874
#
# Poissons Ratio (x) = 0.14525 0.32010
# Poissons Ratio (y) = 0.14524 0.32007
# Poissons Ratio (z) = 0.48596 0.48594
#
# Static dielectric constant tensor:
#      x y z
#    x 4.104840 0.000010 0.000000 
#    y 0.000010 4.104830 0.000000 
#    z 0.000000 0.000000 4.443000 
# 
# 
# High freq. dielectric constant tensor:
#      x y z
#    x 1.911990 0.000000 0.000000 
#    y 0.000000 1.911990 0.000000 
#    z 0.000000 0.000000 1.925330 
# 
# From -- ./inp_files/561.got.cif
#   From: 2010.03.12/outbox.cif.g09.slc.cpg/sg147_cif.got.tgz:561.got - 2010.04.03 13:37:56.
