data_PCOD8321074
_publ_section_title
;
Structure prediction by ZEFSAII (Michael W. Deem and Ramdas Pophale) SiO2 
 PCOD8321074
Probable space group: I 41/A C D
;
_chemical_formula_sum "Si O2"
_cell_formula_units_Z 176
_cell_length_a 17.695372
_cell_length_b 17.695372
_cell_length_c 26.475625
_cell_angle_alpha 90.000000
_cell_angle_beta 90.000000
_cell_angle_gamma 90.000000
_cell_volume 8290.211590
_symmetry_space_group_name_H-M "I 41/A C D"
_symmetry_group_IT_number 142
_space_group.IT_coordinate_system_code '2'
_symmetry_cell_setting 'tetragonal'
loop_
_space_group_symop_operation_xyz
x,y,z
1/4-y,3/4+x,1/4+z
-x,1/2-y,z
1/4+y,1/4-x,3/4+z
x,-y,1/2-z
1/2-x,y,-z
3/4+y,1/4+x,1/4-z
1/4-y,1/4-x,1/4-z
-x,-y,-z
3/4+y,1/4-x,3/4-z
x,1/2+y,-z
3/4-y,3/4+x,1/4-z
-x,y,1/2+z
1/2+x,-y,z
1/4-y,3/4-x,3/4+z
3/4+y,3/4+x,3/4+z
1/2+x,1/2+y,1/2+z
3/4-y,1/4+x,3/4+z
1/2-x,-y,1/2+z
3/4+y,3/4-x,1/4+z
1/2+x,1/2-y,-z
-x,1/2+y,1/2-z
1/4+y,3/4+x,3/4-z
3/4-y,3/4-x,3/4-z
1/2-x,1/2-y,1/2-z
1/4+y,3/4-x,1/4-z
1/2+x,y,1/2-z
1/4-y,1/4+x,3/4-z
1/2-x,1/2+y,z
x,1/2-y,1/2+z
3/4-y,1/4-x,1/4+z
1/4+y,1/4+x,1/4+z
loop_
_atom_site_type_symbol
_atom_site_label
_atom_site_fract_x
_atom_site_fract_y
_atom_site_fract_z
Si Si1 0.370251 0.500000 0.250000
Si Si2 0.000000 0.250000 0.289065
Si Si3 0.639859 0.389859 0.375000
Si Si4 0.603811 0.535536 0.505249
Si Si5 0.095665 0.448300 0.385328
Si Si6 0.137066 0.203550 0.725007
Si Si7 0.153511 0.805337 0.586278
O O1 0.315823 0.564710 0.225483
O O2 0.424097 0.541370 0.289982
O O3 0.059191 0.293421 0.254240
O O4 0.038539 0.183943 0.321596
O O5 0.631346 0.477698 0.360095
O O6 0.585655 0.369856 0.421503
O O7 0.592895 0.550900 0.445852
O O8 0.595747 0.444802 0.509827
O O9 0.537209 0.578560 0.535470
O O10 0.147159 0.374700 0.373412
O O11 0.011675 0.442934 0.364980
#
# Coordination Sequence:
#
# PCOD8321074 Si02
#       7
#    16  16  16  32  32  32  32
#     4  10  20  40  62 100 124 166 228 282 306 398
#     4  12  22  40  66 100 124 172 216 265 331 398
#     4  10  24  41  64  92 134 171 214 268 330 404
#     4   9  20  43  67  86 131 175 216 262 334 389
#     4  10  21  42  61  94 130 168 213 275 319 390
#     4  10  21  41  62  92 127 171 213 261 324 399
#     4  11  23  39  67  95 131 164 224 273 327 383
#
# _framework density 21.229858
#
# number of rings (size 3 to 8) (size 9 to 14) (size 15 to 20)
#    0.000    1.818    3.636    1.091    2.545    0.364 
#    9.818    1.818    0.000    0.000    0.000    0.000 
#    0.000    0.000    0.000    0.000    0.000    0.000 
#
# Total GULP energy -1090663.566099 kJ/mol
# GULP energy per Si atom -12393.904160 kJ/mol
# Density = 2.118154 g / cm^3
# Si number density = 21.229858 Si / 1000 Ang^3
#
#
#
# Elastic Constant Matrix: (Units=GPa)
#
#
# Indices 1 2 3 4 5 6 
#
# 1 150.3951 55.5880 35.0871 0.0000 0.0000 0.0000
# 2 55.5880 150.3951 35.0871 0.0000 0.0000 0.0000
# 3 35.0871 35.0871 51.5228 0.0000 0.0000 0.0000
# 4 0.0000 0.0000 0.0000 29.3326 0.0000 0.0000
# 5 0.0000 0.0000 0.0000 0.0000 29.3326 0.0000
# 6 0.0000 0.0000 0.0000 0.0000 0.0000 40.8775
#
#
#
# Elastic Compliance Matrix: (Units=1/GPa)
#
#
# Indices 1 2 3 4 5 6 
#
# 1 0.008435 -0.002113 -0.004305 0.000000 0.000000 0.000000
# 2 -0.002113 0.008435 -0.004305 0.000000 0.000000 0.000000
# 3 -0.004305 -0.004305 0.025272 0.000000 0.000000 0.000000
# 4 0.000000 0.000000 0.000000 0.034092 0.000000 0.000000
# 5 0.000000 0.000000 0.000000 0.000000 0.034092 0.000000
# 6 0.000000 0.000000 0.000000 0.000000 0.000000 0.024463
#
#
# Mechanical properties :
#
#
# Convention : Reuss Voigt Hill
#
# Bulk Modulus (GPa) = 48.31988 67.09303 57.70646
# Shear Modulus (GPa) = 30.64997 35.01192 32.83095
#
# Velocity S-wave (km/s) = 3.80375 4.06542 3.93676
# Velocity P-wave (km/s) = 6.48854 7.32862 6.92133
#
# Compressibility (1/GPa) = 0.02069541
#
# Stress axis : x y z
#
# Youngs Moduli (GPa) = 118.56024 118.56024 39.56933
#
# Poissons Ratio (x) = 0.25054 0.17034
# Poissons Ratio (y) = 0.25054 0.17034
# Poissons Ratio (z) = 0.51038 0.51038
#
# Static dielectric constant tensor:
#      x y z
#    x 4.384880 0.000000 0.000000 
#    y 0.000000 4.384880 0.000000 
#    z 0.000000 0.000000 3.500760 
# 
# 
# High freq. dielectric constant tensor:
#      x y z
#    x 1.847750 0.000000 0.000000 
#    y 0.000000 1.847750 0.000000 
#    z 0.000000 0.000000 1.801530 
# 
# From -- ./inp_files/11491.got.cif
#   From: 2010.03.12/outbox.cif.g09.slc.cpg/sg142_6_cif.got.tgz:11491.got - 2010.04.03 13:27:16.
