data_PCOD8321592
_publ_section_title
;
Structure prediction by ZEFSAII (Michael W. Deem and Ramdas Pophale) SiO2 
 PCOD8321592
Probable space group: P -3
;
_chemical_formula_sum "Si O2"
_cell_formula_units_Z 42
_cell_length_a 17.139607
_cell_length_b 17.139607
_cell_length_c 9.688713
_cell_angle_alpha 90.000000
_cell_angle_beta 90.000000
_cell_angle_gamma 120.000000
_cell_volume 2464.895105
_symmetry_space_group_name_H-M "P -3"
_symmetry_group_IT_number 147
_symmetry_cell_setting 'hexagonal'
loop_
_space_group_symop_operation_xyz
x,y,z
-y,x-y,z
-x+y,-x,z
-x,-y,-z
y,-x+y,-z
x-y,x,-z
loop_
_atom_site_type_symbol
_atom_site_label
_atom_site_fract_x
_atom_site_fract_y
_atom_site_fract_z
Si Si1 0.821674 0.821674 0.000000
Si Si2 0.150901 0.485358 0.870328
Si Si3 0.665543 0.514642 0.129672
Si Si4 0.093822 0.362863 0.124508
Si Si5 0.591713 0.587087 0.345934
Si Si6 0.730958 0.637137 0.875492
Si Si7 0.412913 0.408287 0.345934
O O1 0.746534 0.781403 0.120667
O O2 0.917384 0.834767 0.053275
O O3 0.781403 0.746534 0.879333
O O4 0.250162 0.500325 0.858855
O O5 0.157033 0.578517 0.916429
O O6 0.103840 0.453352 0.720771
O O7 0.087340 0.407399 0.979402
O O8 0.650488 0.546648 0.279229
O O9 0.679941 0.592601 0.020598
O O10 0.197964 0.395927 0.146546
O O11 0.068174 0.400634 0.254839
O O12 0.487000 0.513000 0.349973
O O13 0.624889 0.624889 0.500000
O O14 0.667540 0.599366 0.745161
#
# Coordination Sequence:
#
# PCOD8321592 Si02
#       7
#     6   6   6   6   6   6   6
#     4  10  19  32  51  76 102 126 158 202 257 308
#     4  10  19  32  51  73  99 129 164 206 250 298
#     4  10  19  32  51  73  99 129 164 206 250 298
#     4  10  19  32  52  75  98 126 166 212 251 297
#     4  10  20  33  49  71 102 137 168 204 249 295
#     4  10  19  32  52  75  98 126 166 212 251 297
#     4  10  20  33  49  71 102 137 168 204 249 295
#
# _framework density 17.039266000000001
#
# number of rings (size 3 to 8) (size 9 to 14) (size 15 to 20)
#    0.000    2.000    2.857    1.286    0.000    3.429 
#    0.000    0.000    0.000    0.571    0.000    0.000 
#    0.000    5.714    0.000    0.000    0.000    0.000 
#
# Total GULP energy -520674.295598 kJ/mol
# GULP energy per Si atom -12397.007038 kJ/mol
# Density = 1.700048 g / cm^3
# Si number density = 17.039266 Si / 1000 Ang^3
#
#
#
# Elastic Constant Matrix: (Units=GPa)
#
#
# Indices 1 2 3 4 5 6 
#
# 1 97.0222 45.9749 48.1348 0.2733 0.0000 0.0000
# 2 45.9749 97.0222 48.1348 -0.2733 0.0000 0.0000
# 3 48.1348 48.1348 128.9187 0.0000 0.0000 0.0000
# 4 0.2733 -0.2733 0.0000 20.1307 0.0000 0.0000
# 5 0.0000 0.0000 0.0000 0.0000 20.1307 0.2733
# 6 0.0000 0.0000 0.0000 0.0000 0.2733 25.5236
#
#
#
# Elastic Compliance Matrix: (Units=1/GPa)
#
#
# Indices 1 2 3 4 5 6 
#
# 1 0.014467 -0.005126 -0.003488 -0.000266 0.000000 0.000000
# 2 -0.005126 0.014467 -0.003488 0.000266 0.000000 0.000000
# 3 -0.003488 -0.003488 0.010361 0.000000 0.000000 0.000000
# 4 -0.000266 0.000266 0.000000 0.049683 0.000000 0.000000
# 5 0.000000 0.000000 0.000000 0.000000 0.049683 -0.000532
# 6 0.000000 0.000000 0.000000 0.000000 -0.000532 0.039185
#
#
# Mechanical properties :
#
#
# Convention : Reuss Voigt Hill
#
# Bulk Modulus (GPa) = 66.25732 67.49470 66.87601
# Shear Modulus (GPa) = 24.14542 25.20490 24.67516
#
# Velocity S-wave (km/s) = 3.76845 3.85024 3.80957
# Velocity P-wave (km/s) = 7.60950 7.71123 7.66053
#
# Compressibility (1/GPa) = 0.01509267
#
# Stress axis : x y z
#
# Youngs Moduli (GPa) = 69.12347 69.12347 96.51295
#
# Poissons Ratio (x) = 0.35430 0.33661
# Poissons Ratio (y) = 0.35430 0.33661
# Poissons Ratio (z) = 0.24109 0.24109
#
# Static dielectric constant tensor:
#      x y z
#    x 3.272920 0.000000 0.000000 
#    y 0.000000 3.272920 0.000000 
#    z 0.000000 0.000000 3.054070 
# 
# 
# High freq. dielectric constant tensor:
#      x y z
#    x 1.667020 0.000000 0.000000 
#    y 0.000000 1.667020 0.000000 
#    z 0.000000 0.000000 1.627380 
# 
# From -- ./inp_files/615.got.cif
#   From: 2010.03.12/outbox.cif.g09.slc.cpg/sg147_cif.got.tgz:615.got - 2010.04.03 13:37:56.
