data_PCOD8321680
_publ_section_title
;
Structure prediction by ZEFSAII (Michael W. Deem and Ramdas Pophale) SiO2 
 PCOD8321680
Probable space group: R -3
;
_chemical_formula_sum "Si O2"
_cell_formula_units_Z 72
_cell_length_a 21.750969
_cell_length_b 21.750969
_cell_length_c 9.877071
_cell_angle_alpha 90.000000
_cell_angle_beta 90.000000
_cell_angle_gamma 120.000000
_cell_volume 4046.839927
_symmetry_space_group_name_H-M "R -3"
_symmetry_group_IT_number 148
_symmetry_cell_setting 'hexagonal'
loop_
_space_group_symop_operation_xyz
x,y,z
-y,x-y,z
-x+y,-x,z
-x,-y,-z
y,-x+y,-z
x-y,x,-z
2/3+x,1/3+y,1/3+z
2/3-y,1/3+x-y,1/3+z
2/3-x+y,1/3-x,1/3+z
2/3-x,1/3-y,1/3-z
2/3+y,1/3-x+y,1/3-z
2/3+x-y,1/3+x,1/3-z
1/3+x,2/3+y,2/3+z
1/3-y,2/3+x-y,2/3+z
1/3-x+y,2/3-x,2/3+z
1/3-x,2/3-y,2/3-z
1/3+y,2/3-x+y,2/3-z
1/3+x-y,2/3+x,2/3-z
loop_
_atom_site_type_symbol
_atom_site_label
_atom_site_fract_x
_atom_site_fract_y
_atom_site_fract_z
Si Si1 0.083404 0.619437 0.395372
Si Si2 0.064121 0.667173 0.670416
Si Si3 0.529199 0.338856 0.834407
Si Si4 0.860837 0.270482 0.058718
O O1 0.104314 0.663328 0.536237
O O2 0.150280 0.660392 0.300730
O O3 0.063174 0.538074 0.421306
O O4 0.017634 0.620975 0.323748
O O5 0.113008 0.683769 0.802877
O O6 0.992440 0.591011 0.680570
O O7 0.605330 0.402607 0.871674
O O8 0.495212 0.353333 0.705034
#
# Coordination Sequence:
#
# PCOD8321680 Si02
#       4
#    18  18  18  18
#     4  10  21  34  52  78 103 132 169 204 249 302
#     4  10  18  34  53  76 107 132 156 204 254 302
#     4  10  21  36  52  72  99 134 174 212 248 290
#     4  10  21  34  52  78 103 132 169 204 249 302
#
# _framework density 17.791661000000001
#
# number of rings (size 3 to 8) (size 9 to 14) (size 15 to 20)
#    0.000    2.000    0.000    6.250    0.000    4.000 
#    0.000    6.250    0.000    0.000    0.000    8.750 
#    0.000    0.000    0.000    0.000    0.000    0.000 
#
# Total GULP energy -297534.471120 kJ/mol
# GULP energy per Si atom -12397.269630 kJ/mol
# Density = 1.775117 g / cm^3
# Si number density = 17.791661 Si / 1000 Ang^3
#
#
#
# Elastic Constant Matrix: (Units=GPa)
#
#
# Indices 1 2 3 4 5 6 
#
# 1 49.3990 11.8694 23.3076 13.1907 3.4520 -0.0002
# 2 11.8694 49.4065 23.3136 -13.1919 -3.4500 0.0005
# 3 23.3076 23.3136 82.2608 0.0006 0.0053 0.0019
# 4 13.1907 -13.1919 0.0006 8.8527 0.0010 -3.4516
# 5 3.4520 -3.4500 0.0053 0.0010 8.8555 13.1922
# 6 -0.0002 0.0005 0.0019 -3.4516 13.1922 18.7654
#
#
#
# Elastic Compliance Matrix: (Units=1/GPa)
#
#
# Indices 1 2 3 4 5 6 
#
# 1 -0.101535 0.122345 -0.005913 0.333446 0.087777 -0.000380
# 2 0.122345 -0.101541 -0.005879 -0.333450 -0.087778 0.000381
# 3 -0.005913 -0.005879 0.015498 0.000037 0.000052 -0.000031
# 4 0.333446 -0.333450 0.000037 -0.948405 -0.001384 -0.173457
# 5 0.087777 -0.087778 0.000052 -0.001384 -0.949315 0.667124
# 6 -0.000380 0.000381 -0.000031 -0.173457 0.667124 -0.447607
#
#
# Mechanical properties :
#
#
# Convention : Reuss Voigt Hill
#
# Bulk Modulus (GPa) = 29.82639 33.11638 31.47139
# Shear Modulus (GPa) = -1.82293 15.46645 6.82176
#
# Velocity S-wave (km/s) = -1.01332 2.95160 1.96025
# Velocity P-wave (km/s) = 3.92830 5.50180 4.78024
#
# Compressibility (1/GPa) = 0.03352736
#
# Stress axis : x y z
#
# Youngs Moduli (GPa) = -9.84878 -9.84825 64.52409
#
# Poissons Ratio (x) = 1.20489 0.38155
# Poissons Ratio (y) = 1.20495 0.37933
# Poissons Ratio (z) = -0.05824 -0.05790
#
# Static dielectric constant tensor:
#      x y z
#    x 3.405910 0.000000 -0.000010 
#    y 0.000000 3.405910 0.000000 
#    z -0.000010 0.000000 3.313580 
# 
# 
# High freq. dielectric constant tensor:
#      x y z
#    x 1.692610 0.000000 0.000000 
#    y 0.000000 1.692610 0.000000 
#    z 0.000000 0.000000 1.696850 
# 
# From -- ./inp_files/805.got.cif
#   From: 2010.03.12/outbox.cif.g09.slc.cpg/sg148_1_cif.got.tgz:805.got - 2010.04.03 13:38:46.
