data_PCOD8321870
_publ_section_title
;
Structure prediction by ZEFSAII (Michael W. Deem and Ramdas Pophale) SiO2 
 PCOD8321870
Probable space group: P 3 2 1
;
_chemical_formula_sum "Si O2"
_cell_formula_units_Z 36
_cell_length_a 18.423385
_cell_length_b 18.423385
_cell_length_c 8.483357
_cell_angle_alpha 90.000000
_cell_angle_beta 90.000000
_cell_angle_gamma 120.000000
_cell_volume 2493.659953
_symmetry_space_group_name_H-M "P 3 2 1"
_symmetry_group_IT_number 150
_symmetry_cell_setting 'hexagonal'
loop_
_space_group_symop_operation_xyz
x,y,z
-y,x-y,z
-x+y,-x,z
x-y,-y,-z
-x,-x+y,-z
y,x,-z
loop_
_atom_site_type_symbol
_atom_site_label
_atom_site_fract_x
_atom_site_fract_y
_atom_site_fract_z
Si Si1 0.180852 0.675618 0.812625
Si Si2 0.514069 0.172734 0.683372
Si Si3 0.675619 0.180852 0.812625
Si Si4 0.658665 0.485931 0.316628
Si Si5 0.589176 0.000000 0.172792
Si Si6 0.582586 0.582586 0.174525
O O1 0.195810 0.598277 0.778321
O O2 0.246655 0.757981 0.722115
O O3 0.088500 0.654660 0.745460
O O4 0.187105 0.690098 1.000000
O O5 0.598278 0.195810 0.778321
O O6 0.488673 0.242018 0.722116
O O7 0.532922 0.172646 0.500000
O O8 0.435026 0.083343 0.732145
O O9 0.654660 0.088500 0.745460
O O10 0.648317 0.564974 0.267855
O O11 0.503085 0.000000 0.157950
O O12 0.624612 0.000000 0.000000
O O13 0.618124 0.618124 0.000000
#
# Coordination Sequence:
#
# PCOD8321870 Si02
#       6
#     6   6   6   6   6   6
#     4  10  18  30  44  58  77 106 139 170 202 243
#     4  11  20  29  41  61  83 104 133 173 210 240
#     4  10  18  30  44  58  77 106 139 170 202 243
#     4  11  20  29  41  61  83 104 133 173 210 240
#     4   7  14  27  43  57  71  95 132 167 196 231
#     4   9  17  31  45  57  75 105 136 163 200 247
#
# _framework density 14.436612999999999
#
# number of rings (size 3 to 8) (size 9 to 14) (size 15 to 20)
#    0.000    2.333    0.000    7.167    0.000    0.000 
#    0.000    2.500    0.000    0.000    0.000    0.000 
#    0.000    0.000    0.000    1.000    0.000   16.333 
#
# Total GULP energy -446087.983159 kJ/mol
# GULP energy per Si atom -12391.332866 kJ/mol
# Density = 1.440375 g / cm^3
# Si number density = 14.436613 Si / 1000 Ang^3
#
#
#
# Elastic Constant Matrix: (Units=GPa)
#
#
# Indices 1 2 3 4 5 6 
#
# 1 79.6154 40.4918 9.2871 0.0000 0.0000 0.0000
# 2 40.4918 79.6154 9.2871 0.0000 0.0000 0.0000
# 3 9.2871 9.2871 52.5757 0.0000 0.0000 0.0000
# 4 0.0000 0.0000 0.0000 17.8698 0.0000 0.0000
# 5 0.0000 0.0000 0.0000 0.0000 17.8698 0.0000
# 6 0.0000 0.0000 0.0000 0.0000 0.0000 19.5618
#
#
#
# Elastic Compliance Matrix: (Units=1/GPa)
#
#
# Indices 1 2 3 4 5 6 
#
# 1 0.017060 -0.008500 -0.001512 0.000000 0.000000 0.000000
# 2 -0.008500 0.017060 -0.001512 0.000000 0.000000 0.000000
# 3 -0.001512 -0.001512 0.019554 0.000000 0.000000 0.000000
# 4 0.000000 0.000000 0.000000 0.055960 0.000000 0.000000
# 5 0.000000 0.000000 0.000000 0.000000 0.055960 0.000000
# 6 0.000000 0.000000 0.000000 0.000000 0.000000 0.051120
#
#
# Mechanical properties :
#
#
# Convention : Reuss Voigt Hill
#
# Bulk Modulus (GPa) = 32.65227 36.65985 34.65606
# Shear Modulus (GPa) = 20.00224 21.24295 20.62260
#
# Velocity S-wave (km/s) = 3.72630 3.84013 3.78364
# Velocity P-wave (km/s) = 6.41720 6.71647 6.56854
#
# Compressibility (1/GPa) = 0.03062574
#
# Stress axis : x y z
#
# Youngs Moduli (GPa) = 58.61706 58.61706 51.13949
#
# Poissons Ratio (x) = 0.49825 0.07732
# Poissons Ratio (y) = 0.49825 0.07732
# Poissons Ratio (z) = 0.08863 0.08863
#
# Static dielectric constant tensor:
#      x y z
#    x 2.865030 0.000000 0.000000 
#    y 0.000000 2.865030 0.000000 
#    z 0.000000 0.000000 2.822170 
# 
# 
# High freq. dielectric constant tensor:
#      x y z
#    x 1.525460 0.000000 0.000000 
#    y 0.000000 1.525460 0.000000 
#    z 0.000000 0.000000 1.557390 
# 
# From -- ./inp_files/705.got.cif
#   From: 2010.03.12/outbox.cif.g09.slc.cpg/sg150_cif.got.tgz:705.got - 2010.04.03 13:41:37.
