data_PCOD8321270
_publ_section_title
;
Structure prediction by ZEFSAII (Michael W. Deem and Ramdas Pophale) SiO2 
 PCOD8321270
Probable space group: I 41/A C D
;
_chemical_formula_sum "Si O2"
_cell_formula_units_Z 96
_cell_length_a 20.700551
_cell_length_b 20.700551
_cell_length_c 10.374054
_cell_angle_alpha 90.000000
_cell_angle_beta 90.000000
_cell_angle_gamma 90.000000
_cell_volume 4445.415048
_symmetry_space_group_name_H-M "I 41/A C D"
_symmetry_group_IT_number 142
_space_group.IT_coordinate_system_code '2'
_symmetry_cell_setting 'tetragonal'
loop_
_space_group_symop_operation_xyz
x,y,z
1/4-y,3/4+x,1/4+z
-x,1/2-y,z
1/4+y,1/4-x,3/4+z
x,-y,1/2-z
1/2-x,y,-z
3/4+y,1/4+x,1/4-z
1/4-y,1/4-x,1/4-z
-x,-y,-z
3/4+y,1/4-x,3/4-z
x,1/2+y,-z
3/4-y,3/4+x,1/4-z
-x,y,1/2+z
1/2+x,-y,z
1/4-y,3/4-x,3/4+z
3/4+y,3/4+x,3/4+z
1/2+x,1/2+y,1/2+z
3/4-y,1/4+x,3/4+z
1/2-x,-y,1/2+z
3/4+y,3/4-x,1/4+z
1/2+x,1/2-y,-z
-x,1/2+y,1/2-z
1/4+y,3/4+x,3/4-z
3/4-y,3/4-x,3/4-z
1/2-x,1/2-y,1/2-z
1/4+y,3/4-x,1/4-z
1/2+x,y,1/2-z
1/4-y,1/4+x,3/4-z
1/2-x,1/2+y,z
x,1/2-y,1/2+z
3/4-y,1/4-x,1/4+z
1/4+y,1/4+x,1/4+z
loop_
_atom_site_type_symbol
_atom_site_label
_atom_site_fract_x
_atom_site_fract_y
_atom_site_fract_z
Si Si1 0.375094 0.811862 0.741670
Si Si2 0.857774 0.491458 0.108467
Si Si3 0.131821 0.835123 0.739887
O O1 0.426402 0.823599 0.625000
O O2 0.313479 0.857023 0.722542
O O3 0.408099 0.829491 0.876907
O O4 0.347920 0.739562 0.750726
O O5 0.889809 0.500000 0.250000
O O6 0.782628 0.467373 0.125000
O O7 0.866468 0.558070 0.032471
O O8 0.100993 0.850993 0.875000
#
# Coordination Sequence:
#
# PCOD8321270 Si02
#       3
#    32  32  32
#     4  11  24  47  70 102 147 185 223 290 349 415
#     4  11  23  47  72  94 138 185 230 296 354 403
#     4  12  26  43  73 108 137 185 238 281 351 425
#
# _framework density 21.595285000000001
#
# number of rings (size 3 to 8) (size 9 to 14) (size 15 to 20)
#    0.000    0.667    6.667    3.000    0.000    6.667 
#    0.000    0.000    0.000    0.000    0.000    0.000 
#    0.000    0.000    0.000    0.000    0.000    0.000 
#
# Total GULP energy -595093.480480 kJ/mol
# GULP energy per Si atom -12397.780843 kJ/mol
# Density = 2.154613 g / cm^3
# Si number density = 21.595285 Si / 1000 Ang^3
#
#
#
# Elastic Constant Matrix: (Units=GPa)
#
#
# Indices 1 2 3 4 5 6 
#
# 1 101.4090 33.8585 29.6537 0.0000 0.0000 0.0000
# 2 33.8585 101.4082 29.6544 0.0000 0.0000 0.0000
# 3 29.6537 29.6544 169.1112 0.0000 0.0000 0.0000
# 4 0.0000 0.0000 0.0000 -327.3994 0.0000 0.0000
# 5 0.0000 0.0000 0.0000 0.0000 -325.6280 0.0000
# 6 0.0000 0.0000 0.0000 0.0000 0.0000 21.3001
#
#
#
# Elastic Compliance Matrix: (Units=1/GPa)
#
#
# Indices 1 2 3 4 5 6 
#
# 1 0.011406 -0.003398 -0.001404 0.000000 0.000000 0.000000
# 2 -0.003398 0.011406 -0.001404 0.000000 0.000000 0.000000
# 3 -0.001404 -0.001404 0.006406 0.000000 0.000000 0.000000
# 4 0.000000 0.000000 0.000000 -0.003054 0.000000 0.000000
# 5 0.000000 0.000000 0.000000 0.000000 -0.003071 0.000000
# 6 0.000000 0.000000 0.000000 0.000000 0.000000 0.046948
#
#
# Mechanical properties :
#
#
# Convention : Reuss Voigt Hill
#
# Bulk Modulus (GPa) = 59.50421 62.02906 60.76663
# Shear Modulus (GPa) = 56.78252 -107.76135 -25.48941
#
# Velocity S-wave (km/s) = 5.13333 -7.07169 -3.43931
# Velocity P-wave (km/s) = 7.92141 6.15569 3.52535
#
# Compressibility (1/GPa) = 0.01680553
#
# Stress axis : x y z
#
# Youngs Moduli (GPa) = 87.67233 87.67136 156.10935
#
# Poissons Ratio (x) = 0.29788 0.21922
# Poissons Ratio (y) = 0.29788 0.21923
# Poissons Ratio (z) = 0.12312 0.12312
#
# Static dielectric constant tensor:
#      x y z
#    x 3.896810 0.000000 0.000000 
#    y 0.000000 3.896820 0.000000 
#    z 0.000000 0.000000 4.194970 
# 
# 
# High freq. dielectric constant tensor:
#      x y z
#    x 1.840510 0.000000 0.000000 
#    y 0.000000 1.840510 0.000000 
#    z 0.000000 0.000000 1.867600 
# 
# From -- ./inp_files/1603.got.cif
#   From: 2010.03.12/outbox.cif.g09.slc.cpg/sg142_1_cif.got.tgz:1603.got - 2010.04.03 13:27:16.
