data_PCOD8321169
_publ_section_title
;
Structure prediction by ZEFSAII (Michael W. Deem and Ramdas Pophale) SiO2 
 PCOD8321169
Probable space group: I 41/A C D
;
_chemical_formula_sum "Si O2"
_cell_formula_units_Z 160
_cell_length_a 30.603729
_cell_length_b 30.603729
_cell_length_c 7.993774
_cell_angle_alpha 90.000000
_cell_angle_beta 90.000000
_cell_angle_gamma 90.000000
_cell_volume 7486.874631
_symmetry_space_group_name_H-M "I 41/A C D"
_symmetry_group_IT_number 142
_space_group.IT_coordinate_system_code '2'
_symmetry_cell_setting 'tetragonal'
loop_
_space_group_symop_operation_xyz
x,y,z
1/4-y,3/4+x,1/4+z
-x,1/2-y,z
1/4+y,1/4-x,3/4+z
x,-y,1/2-z
1/2-x,y,-z
3/4+y,1/4+x,1/4-z
1/4-y,1/4-x,1/4-z
-x,-y,-z
3/4+y,1/4-x,3/4-z
x,1/2+y,-z
3/4-y,3/4+x,1/4-z
-x,y,1/2+z
1/2+x,-y,z
1/4-y,3/4-x,3/4+z
3/4+y,3/4+x,3/4+z
1/2+x,1/2+y,1/2+z
3/4-y,1/4+x,3/4+z
1/2-x,-y,1/2+z
3/4+y,3/4-x,1/4+z
1/2+x,1/2-y,-z
-x,1/2+y,1/2-z
1/4+y,3/4+x,3/4-z
3/4-y,3/4-x,3/4-z
1/2-x,1/2-y,1/2-z
1/4+y,3/4-x,1/4-z
1/2+x,y,1/2-z
1/4-y,1/4+x,3/4-z
1/2-x,1/2+y,z
x,1/2-y,1/2+z
3/4-y,1/4-x,1/4+z
1/4+y,1/4+x,1/4+z
loop_
_atom_site_type_symbol
_atom_site_label
_atom_site_fract_x
_atom_site_fract_y
_atom_site_fract_z
Si Si1 0.750000 0.945062 0.000000
Si Si2 0.118135 0.368135 0.125000
Si Si3 0.201314 0.289212 0.454213
Si Si4 0.444333 0.742391 0.275592
Si Si5 0.022908 0.104342 0.587795
Si Si6 0.865554 0.423913 0.293231
O O1 0.714082 0.915538 0.905844
O O2 0.773641 0.976360 0.875000
O O3 0.126282 0.317346 0.085744
O O4 0.142983 0.382874 0.294202
O O5 0.250000 0.273144 0.500000
O O6 0.162211 0.259636 0.522698
O O7 0.190679 0.285128 0.258626
O O8 0.194270 0.338460 0.512910
O O9 0.467155 0.790873 0.299347
O O10 0.392242 0.747731 0.267454
O O11 0.463076 0.713076 0.125000
O O12 0.850014 0.399987 0.125000
#
# Coordination Sequence:
#
# PCOD8321169 Si02
#       6
#    16  16  32  32  32  32
#     4  10  22  42  74 112 132 172 220 284 360 428
#     4  10  26  44  63 104 136 182 234 280 332 410
#     4  11  24  45  67  94 132 175 224 281 337 412
#     4  11  24  39  61  93 134 176 218 281 333 387
#     4  11  26  41  66  94 133 176 237 276 336 411
#     4  10  23  46  72  98 142 175 222 282 347 411
#
# _framework density 21.370732
#
# number of rings (size 3 to 8) (size 9 to 14) (size 15 to 20)
#    0.000    1.400    1.000    3.000   12.600    2.400 
#    0.000    1.000    0.000    0.000    0.000    0.000 
#    0.000    0.000    0.000    0.000    0.000    0.000 
#
# Total GULP energy -991133.103703 kJ/mol
# GULP energy per Si atom -12389.163796 kJ/mol
# Density = 2.132209 g / cm^3
# Si number density = 21.370732 Si / 1000 Ang^3
#
#
#
# Elastic Constant Matrix: (Units=GPa)
#
#
# Indices 1 2 3 4 5 6 
#
# 1 145.9621 65.7347 49.8646 0.0000 0.0000 0.0000
# 2 65.7347 145.9641 49.8630 0.0000 0.0000 0.0000
# 3 49.8646 49.8630 71.7105 0.0000 0.0000 0.0000
# 4 0.0000 0.0000 0.0000 47.8622 0.0000 0.0000
# 5 0.0000 0.0000 0.0000 0.0000 47.8666 0.0000
# 6 0.0000 0.0000 0.0000 0.0000 0.0000 36.1969
#
#
#
# Elastic Compliance Matrix: (Units=1/GPa)
#
#
# Indices 1 2 3 4 5 6 
#
# 1 0.009745 -0.002720 -0.004885 0.000000 0.000000 0.000000
# 2 -0.002720 0.009744 -0.004884 0.000000 0.000000 0.000000
# 3 -0.004885 -0.004884 0.020738 0.000000 0.000000 0.000000
# 4 0.000000 0.000000 0.000000 0.020893 0.000000 0.000000
# 5 0.000000 0.000000 0.000000 0.000000 0.020891 0.000000
# 6 0.000000 0.000000 0.000000 0.000000 0.000000 0.027627
#
#
# Mechanical properties :
#
#
# Convention : Reuss Voigt Hill
#
# Bulk Modulus (GPa) = 65.57829 77.17346 71.37587
# Shear Modulus (GPa) = 35.79095 39.59676 37.69386
#
# Velocity S-wave (km/s) = 4.09683 4.30914 4.20433
# Velocity P-wave (km/s) = 7.28912 7.80695 7.55248
#
# Compressibility (1/GPa) = 0.01524895
#
# Stress axis : x y z
#
# Youngs Moduli (GPa) = 102.61877 102.62272 48.22040
#
# Poissons Ratio (x) = 0.27911 0.23556
# Poissons Ratio (y) = 0.27910 0.23553
# Poissons Ratio (z) = 0.50129 0.50125
#
# Static dielectric constant tensor:
#      x y z
#    x 3.849740 0.000000 0.000000 
#    y 0.000000 3.849670 0.000000 
#    z 0.000000 0.000000 3.766280 
# 
# 
# High freq. dielectric constant tensor:
#      x y z
#    x 1.846290 0.000000 0.000000 
#    y 0.000000 1.846290 0.000000 
#    z 0.000000 0.000000 1.836790 
# 
# From -- ./inp_files/2242.got.cif
#   From: 2010.03.12/outbox.cif.g09.slc.cpg/sg142_2_cif.got.tgz:2242.got - 2010.04.03 13:27:16.
