data_PCOD8321440
_publ_section_title
;
Structure prediction by ZEFSAII (Michael W. Deem and Ramdas Pophale) SiO2 
 PCOD8321440
Probable space group: P 31
;
_chemical_formula_sum "Si O2"
_cell_formula_units_Z 18
_cell_length_a 11.493916
_cell_length_b 11.493916
_cell_length_c 6.684732
_cell_angle_alpha 90.000000
_cell_angle_beta 90.000000
_cell_angle_gamma 120.000000
_cell_volume 764.804914
_symmetry_space_group_name_H-M "P 31"
_symmetry_group_IT_number 144
_symmetry_cell_setting 'hexagonal'
loop_
_space_group_symop_operation_xyz
x,y,z
-y,x-y,1/3+z
-x+y,-x,2/3+z
loop_
_atom_site_type_symbol
_atom_site_label
_atom_site_fract_x
_atom_site_fract_y
_atom_site_fract_z
Si Si1 0.085824 0.102936 0.745770
Si Si2 0.702471 0.742808 0.829651
Si Si3 0.766012 0.325370 0.999134
Si Si4 0.141689 0.742797 0.826730
Si Si5 0.543163 0.617251 0.207511
Si Si6 0.776737 0.126676 0.265083
O O1 0.017118 0.174265 0.633773
O O2 0.037975 0.959634 0.643021
O O3 0.245428 0.186950 0.749733
O O4 0.663589 0.832059 0.690371
O O5 0.751854 0.658427 0.702655
O O6 0.580604 0.643713 0.972746
O O7 0.722798 0.422867 0.112560
O O8 0.706065 0.197105 0.149591
O O9 0.927272 0.396244 0.975043
O O10 0.240573 0.838172 0.653389
O O11 0.985732 0.668203 0.757162
O O12 0.161734 0.618433 0.887049
#
# Coordination Sequence:
#
# PCOD8321440 Si02
#       6
#     3   3   3   3   3   3
#     4  12  22  40  71 109 149 192 239 310 378 438
#     4  12  26  47  74 111 154 193 250 314 384 454
#     4  12  30  52  78 112 154 208 261 319 387 466
#     4  12  29  50  77 115 151 205 252 319 385 457
#     4  12  30  51  80 111 154 203 259 315 386 464
#     4  12  25  48  76 112 152 197 259 313 382 453
#
# _framework density 23.535412000000001
#
# number of rings (size 3 to 8) (size 9 to 14) (size 15 to 20)
#    0.000    0.000    5.000    4.000   11.667    0.000 
#    0.000    0.000    0.000    0.000    0.000    0.000 
#    0.000    0.000    0.000    0.000    0.000    0.000 
#
# Total GULP energy -223216.428292 kJ/mol
# GULP energy per Si atom -12400.912683 kJ/mol
# Density = 2.348184 g / cm^3
# Si number density = 23.535412 Si / 1000 Ang^3
#
#
#
# Elastic Constant Matrix: (Units=GPa)
#
#
# Indices 1 2 3 4 5 6 
#
# 1 89.1508 16.2585 26.3792 3.0930 -2.9485 0.0000
# 2 16.2585 89.1508 26.3792 -3.0930 2.9485 0.0000
# 3 26.3792 26.3792 107.9852 0.0000 0.0000 0.0000
# 4 3.0930 -3.0930 0.0000 39.5855 0.0000 2.9485
# 5 -2.9485 2.9485 0.0000 0.0000 39.5855 3.0930
# 6 0.0000 0.0000 0.0000 2.9485 3.0930 36.4462
#
#
#
# Elastic Compliance Matrix: (Units=1/GPa)
#
#
# Indices 1 2 3 4 5 6 
#
# 1 0.012352 -0.001543 -0.002640 -0.001086 0.001035 0.000000
# 2 -0.001543 0.012352 -0.002640 0.001086 -0.001035 0.000000
# 3 -0.002640 -0.002640 0.010551 0.000000 0.000000 0.000000
# 4 -0.001086 0.001086 0.000000 0.025586 0.000000 -0.002070
# 5 0.001035 -0.001035 0.000000 0.000000 0.025586 -0.002171
# 6 0.000000 0.000000 0.000000 -0.002070 -0.002171 0.027789
#
#
# Mechanical properties :
#
#
# Convention : Reuss Voigt Hill
#
# Bulk Modulus (GPa) = 46.28366 47.14675 46.71521
# Shear Modulus (GPa) = 37.01953 37.60809 37.31381
#
# Velocity S-wave (km/s) = 3.97032 4.00176 3.98607
# Velocity P-wave (km/s) = 6.38170 6.43644 6.40913
#
# Compressibility (1/GPa) = 0.02160590
#
# Stress axis : x y z
#
# Youngs Moduli (GPa) = 80.96165 80.96165 94.78216
#
# Poissons Ratio (x) = 0.12494 0.25025
# Poissons Ratio (y) = 0.12494 0.25025
# Poissons Ratio (z) = 0.21376 0.21376
#
# Static dielectric constant tensor:
#      x y z
#    x 4.234550 0.000000 0.000000 
#    y 0.000000 4.234550 0.000000 
#    z 0.000000 0.000000 4.336970 
# 
# 
# High freq. dielectric constant tensor:
#      x y z
#    x 1.935300 0.000000 0.000000 
#    y 0.000000 1.935300 0.000000 
#    z 0.000000 0.000000 1.941320 
# 
# From -- ./inp_files/105.got.cif
#   From: 2010.03.12/outbox.cif.g09.slc.cpg/sg144_cif.got.tgz:105.got - 2010.04.03 13:34:42.
