data_PCOD8321342
_publ_section_title
;
Structure prediction by ZEFSAII (Michael W. Deem and Ramdas Pophale) SiO2 
 PCOD8321342
Probable space group: P 3
;
_chemical_formula_sum "Si O2"
_cell_formula_units_Z 13
_cell_length_a 9.293286
_cell_length_b 9.293286
_cell_length_c 8.442344
_cell_angle_alpha 90.000000
_cell_angle_beta 90.000000
_cell_angle_gamma 120.000000
_cell_volume 631.440279
_symmetry_space_group_name_H-M "P 3"
_symmetry_group_IT_number 143
_symmetry_cell_setting 'hexagonal'
loop_
_space_group_symop_operation_xyz
x,y,z
-y,x-y,z
-x+y,-x,z
loop_
_atom_site_type_symbol
_atom_site_label
_atom_site_fract_x
_atom_site_fract_y
_atom_site_fract_z
Si Si1 0.000000 0.000000 0.152655
Si Si2 0.615963 0.586319 0.690986
Si Si3 0.833332 0.666667 0.983765
Si Si4 0.666669 0.333335 0.526722
Si Si5 0.050702 0.747014 0.690985
Si Si6 0.000000 0.000000 0.526719
Si Si7 0.666666 0.333335 0.152657
O O1 0.000000 0.000000 0.340171
O O2 0.858522 0.818695 0.093648
O O3 0.667676 0.596504 0.875368
O O4 0.722458 0.518868 0.594350
O O5 0.428730 0.455164 0.643627
O O6 0.640235 0.762064 0.643628
O O7 0.998986 0.736828 0.875367
O O8 0.808141 0.514641 0.093651
O O9 0.666668 0.333334 0.340173
O O10 0.944210 0.814467 0.594347
#
# Coordination Sequence:
#
# PCOD8321342 Si02
#       7
#     1   3   3   1   3   1   1
#     4  12  28  41  67 108 142 188 232 312 361 407
#     4  12  23  43  69 100 130 185 236 285 344 440
#     4  12  22  44  68  98 138 180 248 282 352 424
#     4  12  25  44  70 102 142 182 241 291 367 422
#     4  12  23  43  69 100 130 185 236 285 344 440
#     4  12  25  44  70 102 142 182 241 291 367 422
#     4  12  28  41  67 108 142 188 232 312 361 407
#
# _framework density 20.587852000000002
#
# number of rings (size 3 to 8) (size 9 to 14) (size 15 to 20)
#    0.000    0.000    9.231    0.462    6.462    0.000 
#    0.000    0.000    0.000    0.000    0.000    0.000 
#    0.000    0.000    0.000    0.000    0.000    0.000 
#
# Total GULP energy -161113.838515 kJ/mol
# GULP energy per Si atom -12393.372193 kJ/mol
# Density = 2.054099 g / cm^3
# Si number density = 20.587852 Si / 1000 Ang^3
#
#
#
# Elastic Constant Matrix: (Units=GPa)
#
#
# Indices 1 2 3 4 5 6 
#
# 1 115.8112 56.7904 39.5821 -0.0004 0.0004 0.0002
# 2 56.7904 115.8121 39.5820 0.0001 0.0004 -0.0004
# 3 39.5821 39.5820 143.7540 0.0001 0.0002 0.0001
# 4 -0.0004 0.0001 0.0001 22.7555 0.0000 0.0000
# 5 0.0004 0.0004 0.0002 0.0000 22.7554 -0.0005
# 6 0.0002 -0.0004 0.0001 0.0000 -0.0005 29.5107
#
#
#
# Elastic Compliance Matrix: (Units=1/GPa)
#
#
# Indices 1 2 3 4 5 6 
#
# 1 0.011787 -0.005156 -0.001826 0.000000 0.000000 0.000000
# 2 -0.005156 0.011787 -0.001826 0.000000 0.000000 0.000000
# 3 -0.001826 -0.001826 0.007962 0.000000 0.000000 0.000000
# 4 0.000000 0.000000 0.000000 0.043945 0.000000 0.000000
# 5 0.000000 0.000000 0.000000 0.000000 0.043946 0.000001
# 6 0.000000 0.000000 0.000000 0.000000 0.000001 0.033886
#
#
# Mechanical properties :
#
#
# Convention : Reuss Voigt Hill
#
# Bulk Modulus (GPa) = 71.83585 71.92070 71.87828
# Shear Modulus (GPa) = 28.47892 30.96585 29.72239
#
# Velocity S-wave (km/s) = 3.72329 3.88246 3.80371
# Velocity P-wave (km/s) = 7.31109 7.42343 7.36747
#
# Compressibility (1/GPa) = 0.01392063
#
# Stress axis : x y z
#
# Youngs Moduli (GPa) = 84.83838 84.83905 125.59967
#
# Poissons Ratio (x) = 0.43743 0.22933
# Poissons Ratio (y) = 0.43742 0.22932
# Poissons Ratio (z) = 0.15490 0.15490
#
# Static dielectric constant tensor:
#      x y z
#    x 4.133620 0.000010 0.000000 
#    y 0.000010 4.133620 -0.000010 
#    z 0.000000 -0.000010 3.388930 
# 
# 
# High freq. dielectric constant tensor:
#      x y z
#    x 1.821650 0.000000 0.000000 
#    y 0.000000 1.821650 0.000000 
#    z 0.000000 0.000000 1.773290 
# 
# From -- ./inp_files/120.got.cif
#   From: 2010.03.12/outbox.cif.g09.slc.cpg/sg143_cif.got.tgz:120.got - 2010.04.03 13:34:35.
