data_PCOD8321928
_publ_section_title
;
Structure prediction by ZEFSAII (Michael W. Deem and Ramdas Pophale) SiO2 
 PCOD8321928
Probable space group: P 31 1 2
;
_chemical_formula_sum "Si O2"
_cell_formula_units_Z 42
_cell_length_a 8.954068
_cell_length_b 8.954068
_cell_length_c 27.740233
_cell_angle_alpha 90.000000
_cell_angle_beta 90.000000
_cell_angle_gamma 120.000000
_cell_volume 1926.111892
_symmetry_space_group_name_H-M "P 31 1 2"
_symmetry_group_IT_number 151
_symmetry_cell_setting 'hexagonal'
loop_
_space_group_symop_operation_xyz
x,y,z
-y,x-y,1/3+z
-x+y,-x,2/3+z
-y,-x,2/3-z
-x+y,y,1/3-z
x,x-y,-z
loop_
_atom_site_type_symbol
_atom_site_label
_atom_site_fract_x
_atom_site_fract_y
_atom_site_fract_z
Si Si1 0.616363 0.775082 0.891506
Si Si2 0.659686 0.905353 0.734798
Si Si3 0.410809 0.293864 0.612324
Si Si4 0.131140 0.573519 0.849583
Si Si5 0.862132 0.036437 0.187706
Si Si6 0.443153 0.883395 0.311283
Si Si7 0.677147 0.468147 0.532096
O O1 0.477589 0.763870 0.854029
O O2 0.758677 0.757957 0.861955
O O3 0.526564 0.609061 0.925637
O O4 0.701464 0.952672 0.921345
O O5 0.478290 0.857529 0.761617
O O6 0.793296 0.919995 0.776542
O O7 0.612468 0.751653 0.695828
O O8 0.749362 0.091889 0.707605
O O9 0.477528 0.427907 0.657215
O O10 0.576681 0.356450 0.578414
O O11 0.222802 0.777199 0.833334
O O12 0.931086 0.471952 0.837908
O O13 0.845160 0.184644 0.215922
O O14 0.050555 0.101109 0.166667
O O15 0.292921 0.707080 0.333334
O O16 0.765034 0.382517 0.500000
#
# Coordination Sequence:
#
# PCOD8321928 Si02
#       7
#     6   6   6   6   6   6   6
#     4   9  19  36  64  90 119 162 215 270 322 390
#     4  11  21  40  68  93 123 176 226 271 335 410
#     4  10  21  43  63  89 131 178 218 265 336 413
#     4  10  18  33  63  92 124 159 209 268 335 399
#     4  11  23  39  64 100 131 162 217 279 344 396
#     4  10  22  41  62  92 124 168 228 272 317 405
#     4  11  23  37  60  97 137 162 207 284 348 390
#
# _framework density 21.805585000000001
#
# number of rings (size 3 to 8) (size 9 to 14) (size 15 to 20)
#    0.000    1.714    4.286    0.429    2.000    0.000 
#    2.571    2.143    0.000    0.000    0.000    0.000 
#    0.000    0.000    0.000    0.000    0.000    0.000 
#
# Total GULP energy -520392.926857 kJ/mol
# GULP energy per Si atom -12390.307782 kJ/mol
# Density = 2.175595 g / cm^3
# Si number density = 21.805585 Si / 1000 Ang^3
#
#
#
# Elastic Constant Matrix: (Units=GPa)
#
#
# Indices 1 2 3 4 5 6 
#
# 1 612.8225 -478.5358 29.9440 -0.0816 1132.0620 0.0001
# 2 -478.5358 612.8226 29.9440 0.0816-1132.0620 -0.0001
# 3 29.9440 29.9440 76.8804 0.0000 0.0000 0.0000
# 4 -0.0816 0.0816 0.0000 2529.4440 -0.0006-1132.0617
# 5 1132.0620-1132.0620 0.0000 -0.0006 2529.4446 -0.0811
# 6 0.0001 -0.0001 0.0000-1132.0617 -0.0811 545.6790
#
#
#
# Elastic Compliance Matrix: (Units=1/GPa)
#
#
# Indices 1 2 3 4 5 6 
#
# 1 0.010913 -0.001901 -0.003510 0.000000 -0.005735 0.000000
# 2 -0.001901 0.010913 -0.003510 0.000000 0.005735 0.000000
# 3 -0.003510 -0.003510 0.015742 0.000000 0.000000 0.000000
# 4 0.000000 0.000000 0.000000 0.005529 0.000000 0.011470
# 5 -0.005735 0.005735 0.000000 0.000000 0.005529 0.000001
# 6 0.000000 0.000000 0.000000 0.011470 0.000001 0.025627
#
#
# Mechanical properties :
#
#
# Convention : Reuss Voigt Hill
#
# Bulk Modulus (GPa) = 50.69622 51.69220 51.19421
# Shear Modulus (GPa) = 50.67442 1235.65842 643.16642
#
# Velocity S-wave (km/s) = 4.82593 23.83067 17.19288
# Velocity P-wave (km/s) = 7.37242 27.94563 20.43662
#
# Compressibility (1/GPa) = 0.01972534
#
# Stress axis : x y z
#
# Youngs Moduli (GPa) = 91.63446 91.63446 63.52629
#
# Poissons Ratio (x) = 0.17418 0.22299
# Poissons Ratio (y) = 0.17418 0.22299
# Poissons Ratio (z) = 0.32165 0.32165
#
# Static dielectric constant tensor:
#      x y z
#    x -44.973760 -0.000010 0.000000 
#    y -0.000010 -44.973770 0.000000 
#    z 0.000000 0.000000 3.747790 
# 
# 
# High freq. dielectric constant tensor:
#      x y z
#    x 1.854440 0.000000 0.000000 
#    y 0.000000 1.854440 0.000000 
#    z 0.000000 0.000000 1.832780 
# 
# From -- ./inp_files/5037.got.cif
#   From: 2010.03.12/outbox.cif.g09.slc.cpg/sg151_3_cif.got.tgz:5037.got - 2010.04.03 13:42:29.
