data_PCOD8321676
_publ_section_title
;
Structure prediction by ZEFSAII (Michael W. Deem and Ramdas Pophale) SiO2 
 PCOD8321676
Probable space group: R -3
;
_chemical_formula_sum "Si O2"
_cell_formula_units_Z 144
_cell_length_a 19.889600
_cell_length_b 19.889600
_cell_length_c 24.871626
_cell_angle_alpha 90.000000
_cell_angle_beta 90.000000
_cell_angle_gamma 120.000000
_cell_volume 8520.928251
_symmetry_space_group_name_H-M "R -3"
_symmetry_group_IT_number 148
_symmetry_cell_setting 'hexagonal'
loop_
_space_group_symop_operation_xyz
x,y,z
-y,x-y,z
-x+y,-x,z
-x,-y,-z
y,-x+y,-z
x-y,x,-z
2/3+x,1/3+y,1/3+z
2/3-y,1/3+x-y,1/3+z
2/3-x+y,1/3-x,1/3+z
2/3-x,1/3-y,1/3-z
2/3+y,1/3-x+y,1/3-z
2/3+x-y,1/3+x,1/3-z
1/3+x,2/3+y,2/3+z
1/3-y,2/3+x-y,2/3+z
1/3-x+y,2/3-x,2/3+z
1/3-x,2/3-y,2/3-z
1/3+y,2/3-x+y,2/3-z
1/3+x-y,2/3+x,2/3-z
loop_
_atom_site_type_symbol
_atom_site_label
_atom_site_fract_x
_atom_site_fract_y
_atom_site_fract_z
Si Si1 0.160058 0.119958 0.016316
Si Si2 0.555936 0.074204 0.933368
Si Si3 0.826725 0.373433 0.849649
Si Si4 0.943385 0.615930 0.867390
Si Si5 0.222602 0.815065 0.766701
Si Si6 0.660788 0.050737 0.299277
Si Si7 0.042168 0.425309 0.965767
Si Si8 0.049808 0.758643 0.799100
O O1 0.178581 0.097179 0.074795
O O2 0.089263 0.136111 0.023199
O O3 0.238049 0.192370 0.993022
O O4 0.569487 0.154753 0.908128
O O5 0.587481 0.033659 0.891009
O O6 0.465583 0.020248 0.942898
O O7 0.604843 0.093199 0.988717
O O8 0.755930 0.286485 0.856533
O O9 0.904716 0.379013 0.826355
O O10 0.939379 0.666667 0.916667
O O11 0.007138 0.671376 0.823660
O O12 0.254147 0.887155 0.724342
O O13 0.132249 0.778668 0.776232
O O14 0.271510 0.844977 0.822050
O O15 0.669096 0.995291 0.343007
O O16 0.097664 0.430997 0.916667
#
# Coordination Sequence:
#
# PCOD8321676 Si02
#       8
#    18  18  18  18  18  18  18  18
#     4  10  19  34  49  72 102 139 176 217 263 311
#     4   9  19  32  49  77 106 135 177 214 262 321
#     4  10  19  34  49  72 102 139 176 217 263 311
#     4   9  18  33  50  75 105 134 175 218 261 321
#     4   9  19  32  49  77 106 135 177 214 262 321
#     4   9  18  33  50  75 105 134 175 218 261 321
#     4  10  17  32  54  76 106 142 168 216 271 316
#     4  10  17  32  54  76 106 142 168 216 271 316
#
# _framework density 16.899567000000001
#
# number of rings (size 3 to 8) (size 9 to 14) (size 15 to 20)
#    0.000    2.500    2.500    0.250    0.000    0.000 
#    9.000    0.000    0.000    0.000    0.000    0.000 
#    0.000    0.000    0.000    0.000    0.000    0.000 
#
# Total GULP energy -594871.230306 kJ/mol
# GULP energy per Si atom -12393.150631 kJ/mol
# Density = 1.686110 g / cm^3
# Si number density = 16.899567 Si / 1000 Ang^3
#
#
#
# Elastic Constant Matrix: (Units=GPa)
#
#
# Indices 1 2 3 4 5 6 
#
# 1 105.8778 51.1052 54.7395 -6.0937 0.0000 0.0000
# 2 51.1052 105.8778 54.7395 6.0937 0.0000 0.0000
# 3 54.7395 54.7395 108.5767 0.0000 0.0000 0.0000
# 4 -6.0937 6.0937 0.0000 25.0134 0.0000 0.0000
# 5 0.0000 0.0000 0.0000 0.0000 25.0134 -6.0937
# 6 0.0000 0.0000 0.0000 0.0000 -6.0937 27.3863
#
#
#
# Elastic Compliance Matrix: (Units=1/GPa)
#
#
# Indices 1 2 3 4 5 6 
#
# 1 0.014564 -0.004740 -0.004953 0.004703 0.000000 0.000000
# 2 -0.004740 0.014564 -0.004953 -0.004703 0.000000 0.000000
# 3 -0.004953 -0.004953 0.014204 0.000000 0.000000 0.000000
# 4 0.004703 -0.004703 0.000000 0.042270 0.000000 0.000000
# 5 0.000000 0.000000 0.000000 0.000000 0.042270 0.009405
# 6 0.000000 0.000000 0.000000 0.000000 0.009405 0.038607
#
#
# Mechanical properties :
#
#
# Convention : Reuss Voigt Hill
#
# Bulk Modulus (GPa) = 71.22040 71.27784 71.24912
# Shear Modulus (GPa) = 24.94376 26.13250 25.53813
#
# Velocity S-wave (km/s) = 3.84604 3.93662 3.89160
# Velocity P-wave (km/s) = 7.87131 7.93294 7.90219
#
# Compressibility (1/GPa) = 0.01404092
#
# Stress axis : x y z
#
# Youngs Moduli (GPa) = 68.66249 68.66249 70.40172
#
# Poissons Ratio (x) = 0.32544 0.34870
# Poissons Ratio (y) = 0.32544 0.34870
# Poissons Ratio (z) = 0.34008 0.34008
#
# Static dielectric constant tensor:
#      x y z
#    x 3.169900 0.000000 0.000000 
#    y 0.000000 3.169900 0.000000 
#    z 0.000000 0.000000 3.438810 
# 
# 
# High freq. dielectric constant tensor:
#      x y z
#    x 1.641320 0.000000 0.000000 
#    y 0.000000 1.641320 0.000000 
#    z 0.000000 0.000000 1.657490 
# 
# From -- ./inp_files/3790.got.cif
#   From: 2010.03.12/outbox.cif.g09.slc.cpg/sg148_2_cif.got.tgz:3790.got - 2010.04.03 13:38:46.
