data_PCOD8321363
_publ_section_title
;
Structure prediction by ZEFSAII (Michael W. Deem and Ramdas Pophale) SiO2 
 PCOD8321363
Probable space group: P 31
;
_chemical_formula_sum "Si O2"
_cell_formula_units_Z 24
_cell_length_a 7.957573
_cell_length_b 7.957573
_cell_length_c 20.165076
_cell_angle_alpha 90.000000
_cell_angle_beta 90.000000
_cell_angle_gamma 120.000000
_cell_volume 1105.838632
_symmetry_space_group_name_H-M "P 31"
_symmetry_group_IT_number 144
_symmetry_cell_setting 'hexagonal'
loop_
_space_group_symop_operation_xyz
x,y,z
-y,x-y,1/3+z
-x+y,-x,2/3+z
loop_
_atom_site_type_symbol
_atom_site_label
_atom_site_fract_x
_atom_site_fract_y
_atom_site_fract_z
Si Si1 0.298364 0.328858 0.910950
Si Si2 0.623812 0.636772 0.332204
Si Si3 0.118602 0.384154 0.790357
Si Si4 0.059484 0.895533 0.334153
Si Si5 0.667622 0.722735 0.875299
Si Si6 0.614308 0.026024 0.546708
Si Si7 0.254251 0.497634 0.413499
Si Si8 0.054351 0.274838 0.288849
O O1 0.142773 0.263545 0.850695
O O2 0.485593 0.516175 0.887493
O O3 0.355001 0.162629 0.926559
O O4 0.208895 0.384261 0.973106
O O5 0.558867 0.468736 0.276264
O O6 0.472000 0.547479 0.393338
O O7 0.847412 0.714656 0.354442
O O8 0.027331 0.238105 0.728717
O O9 0.318507 0.557008 0.765145
O O10 0.990958 0.479137 0.815130
O O11 0.141725 0.832860 0.271410
O O12 0.053594 0.080206 0.308568
O O13 0.836738 0.673610 0.862886
O O14 0.645505 0.829938 0.810468
O O15 0.599159 0.819997 0.567472
O O16 0.098562 0.403757 0.354088
#
# Coordination Sequence:
#
# PCOD8321363 Si02
#       8
#     3   3   3   3   3   3   3   3
#     4   9  19  37  59  82 115 152 192 240 291 350
#     4   9  19  38  58  79 111 154 197 240 290 351
#     4  10  21  37  57  85 117 151 190 236 292 352
#     4  10  21  37  59  83 113 152 197 243 292 349
#     4  10  21  37  56  86 119 150 192 244 299 356
#     4   9  20  38  57  81 116 153 193 241 292 349
#     4  10  21  36  56  84 115 149 192 238 294 350
#     4   9  20  38  60  84 112 151 195 238 288 351
#
# _framework density 21.702988000000001
#
# number of rings (size 3 to 8) (size 9 to 14) (size 15 to 20)
#    0.000    2.500    0.000    0.750    0.000   10.000 
#    0.000   10.000    0.000    0.000    0.000    0.000 
#    0.000    0.000    0.000    0.000    0.000    0.000 
#
# Total GULP energy -297410.355072 kJ/mol
# GULP energy per Si atom -12392.098128 kJ/mol
# Density = 2.165359 g / cm^3
# Si number density = 21.702988 Si / 1000 Ang^3
#
#
#
# Elastic Constant Matrix: (Units=GPa)
#
#
# Indices 1 2 3 4 5 6 
#
# 1 74.3055 19.6298 45.4831 -0.4467 2.4220 0.0000
# 2 19.6298 74.3055 45.4831 0.4467 -2.4220 0.0000
# 3 45.4831 45.4831 125.6342 0.0000 0.0000 0.0000
# 4 -0.4467 0.4467 0.0000 31.8683 0.0000 -2.4220
# 5 2.4220 -2.4220 0.0000 0.0000 31.8683 -0.4467
# 6 0.0000 0.0000 0.0000 -2.4220 -0.4467 27.3379
#
#
#
# Elastic Compliance Matrix: (Units=1/GPa)
#
#
# Indices 1 2 3 4 5 6 
#
# 1 0.017405 -0.001013 -0.005935 0.000258 -0.001400 0.000000
# 2 -0.001013 0.017405 -0.005935 -0.000258 0.001400 0.000000
# 3 -0.005935 -0.005935 0.012257 0.000000 0.000000 0.000000
# 4 0.000258 -0.000258 0.000000 0.031599 0.000000 0.002800
# 5 -0.001400 0.001400 0.000000 0.000000 0.031599 0.000516
# 6 0.000000 0.000000 0.000000 0.002800 0.000516 0.036836
#
#
# Mechanical properties :
#
#
# Convention : Reuss Voigt Hill
#
# Bulk Modulus (GPa) = 46.94068 55.04857 50.99462
# Shear Modulus (GPa) = 27.78305 29.12485 28.45395
#
# Velocity S-wave (km/s) = 3.58180 3.66727 3.62479
# Velocity P-wave (km/s) = 6.22747 6.58418 6.40830
#
# Compressibility (1/GPa) = 0.02130349
#
# Stress axis : x y z
#
# Youngs Moduli (GPa) = 57.45394 57.45394 81.58883
#
# Poissons Ratio (x) = 0.05818 0.48420
# Poissons Ratio (y) = 0.05818 0.48420
# Poissons Ratio (z) = 0.34096 0.34096
#
# Static dielectric constant tensor:
#      x y z
#    x 4.024500 0.000000 0.000000 
#    y 0.000000 4.024500 0.000000 
#    z 0.000000 0.000000 4.537460 
# 
# 
# High freq. dielectric constant tensor:
#      x y z
#    x 1.842130 0.000000 0.000000 
#    y 0.000000 1.842130 0.000000 
#    z 0.000000 0.000000 1.853080 
# 
# From -- ./inp_files/852.got.cif
#   From: 2010.03.12/outbox.cif.g09.slc.cpg/sg144_cif.got.tgz:852.got - 2010.04.03 13:34:42.
