data_PCOD8321799
_publ_section_title
;
Structure prediction by ZEFSAII (Michael W. Deem and Ramdas Pophale) SiO2 
 PCOD8321799
Probable space group: R -3
;
_chemical_formula_sum "Si O2"
_cell_formula_units_Z 60
_cell_length_a 11.135629
_cell_length_b 11.135629
_cell_length_c 27.059676
_cell_angle_alpha 90.000000
_cell_angle_beta 90.000000
_cell_angle_gamma 120.000000
_cell_volume 2905.913822
_symmetry_space_group_name_H-M "R -3"
_symmetry_group_IT_number 148
_symmetry_cell_setting 'hexagonal'
loop_
_space_group_symop_operation_xyz
x,y,z
-y,x-y,z
-x+y,-x,z
-x,-y,-z
y,-x+y,-z
x-y,x,-z
2/3+x,1/3+y,1/3+z
2/3-y,1/3+x-y,1/3+z
2/3-x+y,1/3-x,1/3+z
2/3-x,1/3-y,1/3-z
2/3+y,1/3-x+y,1/3-z
2/3+x-y,1/3+x,1/3-z
1/3+x,2/3+y,2/3+z
1/3-y,2/3+x-y,2/3+z
1/3-x+y,2/3-x,2/3+z
1/3-x,2/3-y,2/3-z
1/3+y,2/3-x+y,2/3-z
1/3+x-y,2/3+x,2/3-z
loop_
_atom_site_type_symbol
_atom_site_label
_atom_site_fract_x
_atom_site_fract_y
_atom_site_fract_z
Si Si1 0.486765 0.973532 0.057698
Si Si2 0.391413 0.333937 0.447493
Si Si3 0.333335 0.666668 0.228291
Si Si4 0.724747 0.724143 0.114159
O O1 0.645509 0.047482 0.075864
O O2 0.409834 0.819679 0.081426
O O3 0.401974 0.047485 0.075864
O O4 0.500000 0.000000 0.000000
O O5 0.375187 0.187593 0.432026
O O6 0.553013 0.446987 0.448310
O O7 0.319915 0.319915 0.500000
O O8 0.333335 0.666668 0.166667
#
# Coordination Sequence:
#
# PCOD8321799 Si02
#       4
#    18  18   6  18
#     4  12  26  42  68 102 137 171 231 295 348 398
#     4  11  23  42  67  97 133 178 230 280 340 421
#     4  12  24  48  84  96 129 198 255 279 340 449
#     4  11  23  42  67  97 133 178 230 280 340 421
#
# _framework density 20.647548
#
# number of rings (size 3 to 8) (size 9 to 14) (size 15 to 20)
#    0.000    0.600    6.000    2.400    4.200    0.000 
#    1.800    0.000    0.000    3.600    0.000    0.000 
#    0.000    0.000    0.000    0.000    0.000    0.000 
#
# Total GULP energy -247903.017268 kJ/mol
# GULP energy per Si atom -12395.150863 kJ/mol
# Density = 2.060055 g / cm^3
# Si number density = 20.647548 Si / 1000 Ang^3
#
#
#
# Elastic Constant Matrix: (Units=GPa)
#
#
# Indices 1 2 3 4 5 6 
#
# 1 92.3021 35.8695 40.5620 3.3768 0.0002 0.0002
# 2 35.8695 92.3017 40.5619 -3.3767 -0.0001 0.0000
# 3 40.5620 40.5619 176.9849 -0.0001 0.0000 0.0000
# 4 3.3768 -3.3767 -0.0001 28.8627 0.0000 0.0000
# 5 0.0002 -0.0001 0.0000 0.0000 28.8626 3.3769
# 6 0.0002 0.0000 0.0000 0.0000 3.3769 28.2164
#
#
#
# Elastic Compliance Matrix: (Units=1/GPa)
#
#
# Indices 1 2 3 4 5 6 
#
# 1 0.013549 -0.004423 -0.002091 -0.002103 0.000000 0.000000
# 2 -0.004423 0.013549 -0.002091 0.002103 0.000000 0.000000
# 3 -0.002091 -0.002091 0.006609 0.000000 0.000000 0.000000
# 4 -0.002103 0.002103 0.000000 0.035139 0.000000 0.000000
# 5 0.000000 0.000000 0.000000 0.000000 0.035139 -0.004205
# 6 0.000000 0.000000 0.000000 0.000000 -0.004205 0.035944
#
#
# Mechanical properties :
#
#
# Convention : Reuss Voigt Hill
#
# Bulk Modulus (GPa) = 60.62603 66.17507 63.40055
# Shear Modulus (GPa) = 30.74307 33.49470 32.11888
#
# Velocity S-wave (km/s) = 3.86287 4.03204 3.94836
# Velocity P-wave (km/s) = 7.02295 7.33457 7.18045
#
# Compressibility (1/GPa) = 0.01649457
#
# Stress axis : x y z
#
# Youngs Moduli (GPa) = 73.80698 73.80663 151.31194
#
# Poissons Ratio (x) = 0.32645 0.31647
# Poissons Ratio (y) = 0.32645 0.31647
# Poissons Ratio (z) = 0.15437 0.15437
#
# Static dielectric constant tensor:
#      x y z
#    x 3.399290 0.000000 -0.000010 
#    y 0.000000 3.399290 -0.000010 
#    z -0.000010 -0.000010 3.664660 
# 
# 
# High freq. dielectric constant tensor:
#      x y z
#    x 1.818960 0.000000 0.000000 
#    y 0.000000 1.818960 0.000000 
#    z 0.000000 0.000000 1.797550 
# 
# From -- ./inp_files/3587.got.cif
#   From: 2010.03.12/outbox.cif.g09.slc.cpg/sg148_2_cif.got.tgz:3587.got - 2010.04.03 13:38:46.
