data_PCOD8321494
_publ_section_title
;
Structure prediction by ZEFSAII (Michael W. Deem and Ramdas Pophale) SiO2 
 PCOD8321494
Probable space group: P 32
;
_chemical_formula_sum "Si O2"
_cell_formula_units_Z 21
_cell_length_a 8.492328
_cell_length_b 8.492328
_cell_length_c 13.035163
_cell_angle_alpha 90.000000
_cell_angle_beta 90.000000
_cell_angle_gamma 120.000000
_cell_volume 814.142858
_symmetry_space_group_name_H-M "P 32"
_symmetry_group_IT_number 145
_symmetry_cell_setting 'hexagonal'
loop_
_space_group_symop_operation_xyz
x,y,z
-y,x-y,2/3+z
-x+y,-x,1/3+z
loop_
_atom_site_type_symbol
_atom_site_label
_atom_site_fract_x
_atom_site_fract_y
_atom_site_fract_z
Si Si1 0.291801 0.854805 0.528910
Si Si2 0.076799 0.045279 0.238128
Si Si3 0.887424 0.280559 0.028336
Si Si4 0.564204 0.697399 0.215754
Si Si5 0.648649 0.110448 0.214619
Si Si6 0.498451 0.084850 0.698394
Si Si7 0.277351 0.086535 0.036745
O O1 0.195938 0.642408 0.522268
O O2 0.167487 0.950903 0.548578
O O3 0.378422 0.935303 0.417806
O O4 0.438344 0.917597 0.619277
O O5 0.200924 0.097303 0.340057
O O6 0.160929 0.004547 0.138251
O O7 0.900425 0.856562 0.270097
O O8 0.716159 0.217975 0.106272
O O9 0.886187 0.352789 0.912901
O O10 0.658935 0.633807 0.130248
O O11 0.601384 0.643120 0.330104
O O12 0.618785 0.908290 0.206229
O O13 0.768483 0.226200 0.311861
O O14 0.708059 0.145642 0.721229
#
# Coordination Sequence:
#
# PCOD8321494 Si02
#       7
#     3   3   3   3   3   3   3
#     4  11  26  49  77 109 161 198 265 321 379 472
#     4  12  25  49  76 114 152 210 250 319 394 470
#     4  11  26  51  78 112 157 204 260 318 396 461
#     4  12  28  48  78 116 151 212 257 322 398 463
#     4  11  29  48  81 111 158 203 259 328 392 469
#     4  11  27  51  72 112 158 197 262 326 383 472
#     4  12  29  46  80 114 159 202 261 322 390 475
#
# _framework density 25.793994999999999
#
# number of rings (size 3 to 8) (size 9 to 14) (size 15 to 20)
#    0.000    0.571    2.857    2.571   16.000    1.143 
#    0.000    0.000    0.000    0.000    0.000    0.000 
#    0.000    0.000    0.000    0.000    0.000    0.000 
#
# Total GULP energy -260160.806750 kJ/mol
# GULP energy per Si atom -12388.609845 kJ/mol
# Density = 2.573529 g / cm^3
# Si number density = 25.793995 Si / 1000 Ang^3
#
#
#
# Elastic Constant Matrix: (Units=GPa)
#
#
# Indices 1 2 3 4 5 6 
#
# 1 91.4297 30.3124 16.8637 -0.3896 4.8480 0.0000
# 2 30.3124 91.4297 16.8637 0.3896 -4.8480 0.0000
# 3 16.8637 16.8637 80.2567 0.0000 0.0000 0.0000
# 4 -0.3896 0.3896 0.0000 45.1174 0.0000 -4.8480
# 5 4.8480 -4.8480 0.0000 0.0000 45.1174 -0.3896
# 6 0.0000 0.0000 0.0000 -4.8480 -0.3896 30.5586
#
#
#
# Elastic Compliance Matrix: (Units=1/GPa)
#
#
# Indices 1 2 3 4 5 6 
#
# 1 0.012685 -0.003963 -0.001833 0.000144 -0.001789 0.000000
# 2 -0.003963 0.012685 -0.001833 -0.000144 0.001789 0.000000
# 3 -0.001833 -0.001833 0.013230 0.000000 0.000000 0.000000
# 4 0.000144 -0.000144 0.000000 0.022551 0.000000 0.003578
# 5 -0.001789 0.001789 0.000000 0.000000 0.022551 0.000287
# 6 0.000000 0.000000 0.000000 0.003578 0.000287 0.033295
#
#
# Mechanical properties :
#
#
# Convention : Reuss Voigt Hill
#
# Bulk Modulus (GPa) = 42.83902 43.46619 43.15261
# Shear Modulus (GPa) = 35.70539 37.43044 36.56791
#
# Velocity S-wave (km/s) = 3.72459 3.81350 3.76931
# Velocity P-wave (km/s) = 5.92798 6.02314 5.97575
#
# Compressibility (1/GPa) = 0.02334320
#
# Stress axis : x y z
#
# Youngs Moduli (GPa) = 78.83507 78.83507 75.58473
#
# Poissons Ratio (x) = 0.31242 0.13852
# Poissons Ratio (y) = 0.31242 0.13852
# Poissons Ratio (z) = 0.14448 0.14448
#
# Static dielectric constant tensor:
#      x y z
#    x 4.831040 0.000000 0.000000 
#    y 0.000000 4.831040 0.000000 
#    z 0.000000 0.000000 4.946570 
# 
# 
# High freq. dielectric constant tensor:
#      x y z
#    x 2.034160 0.000000 0.000000 
#    y 0.000000 2.034160 0.000000 
#    z 0.000000 0.000000 2.052680 
# 
# From -- ./inp_files/618.got.cif
#   From: 2010.03.12/outbox.cif.g09.slc.cpg/sg145_cif.got.tgz:618.got - 2010.04.03 13:35:35.
