data_PCOD8321359
_publ_section_title
;
Structure prediction by ZEFSAII (Michael W. Deem and Ramdas Pophale) SiO2 
 PCOD8321359
Probable space group: P 31
;
_chemical_formula_sum "Si O2"
_cell_formula_units_Z 15
_cell_length_a 10.872323
_cell_length_b 10.872323
_cell_length_c 7.575277
_cell_angle_alpha 90.000000
_cell_angle_beta 90.000000
_cell_angle_gamma 120.000000
_cell_volume 775.485786
_symmetry_space_group_name_H-M "P 31"
_symmetry_group_IT_number 144
_symmetry_cell_setting 'hexagonal'
loop_
_space_group_symop_operation_xyz
x,y,z
-y,x-y,1/3+z
-x+y,-x,2/3+z
loop_
_atom_site_type_symbol
_atom_site_label
_atom_site_fract_x
_atom_site_fract_y
_atom_site_fract_z
Si Si1 0.678973 0.430085 0.540260
Si Si2 0.438499 0.504894 0.563739
Si Si3 0.333333 0.323745 0.904963
Si Si4 0.600271 0.828440 0.579521
Si Si5 0.987695 0.084447 0.269669
O O1 0.615113 0.296851 0.672454
O O2 0.585353 0.505614 0.539676
O O3 0.836533 0.533643 0.611635
O O4 0.358674 0.425458 0.740758
O O5 0.473105 0.666667 0.571632
O O6 0.333338 0.421927 0.404960
O O7 0.200313 0.169863 0.864959
O O8 0.307988 0.400117 0.069164
O O9 0.746405 0.827722 0.603592
O O10 0.984927 0.036481 0.470808
#
# Coordination Sequence:
#
# PCOD8321359 Si02
#       5
#     3   3   3   3   3
#     4  10  20  39  62  85 113 148 193 241 285 334
#     4  11  24  39  59  86 118 153 192 232 285 341
#     4  10  22  40  60  86 114 150 192 238 286 338
#     4  11  24  39  59  86 118 153 192 232 285 341
#     4  10  20  39  62  85 113 148 193 241 285 334
#
# _framework density 19.342714999999998
#
# number of rings (size 3 to 8) (size 9 to 14) (size 15 to 20)
#    0.000    1.600    2.000    2.400    2.800    0.000 
#    0.000    0.000    0.000    0.000    0.000    0.000 
#    0.000    0.000    0.000    0.000    0.000    0.000 
#
# Total GULP energy -186054.701954 kJ/mol
# GULP energy per Si atom -12403.646797 kJ/mol
# Density = 1.929869 g / cm^3
# Si number density = 19.342715 Si / 1000 Ang^3
#
#
#
# Elastic Constant Matrix: (Units=GPa)
#
#
# Indices 1 2 3 4 5 6 
#
# 1 94.4973 39.2439 61.6133 4.0710 -0.0001 0.0000
# 2 39.2439 94.4973 61.6133 -4.0710 0.0001 0.0000
# 3 61.6133 61.6133 131.6150 0.0000 0.0000 0.0000
# 4 4.0710 -4.0710 0.0000 29.0554 0.0000 0.0001
# 5 -0.0001 0.0001 0.0000 0.0000 29.0554 4.0710
# 6 0.0000 0.0000 0.0000 0.0001 4.0710 27.6267
#
#
#
# Elastic Compliance Matrix: (Units=1/GPa)
#
#
# Indices 1 2 3 4 5 6 
#
# 1 0.015814 -0.002666 -0.006155 -0.002589 0.000000 0.000000
# 2 -0.002666 0.015814 -0.006155 0.002589 0.000000 0.000000
# 3 -0.006155 -0.006155 0.013361 0.000000 0.000000 0.000000
# 4 -0.002589 0.002589 0.000000 0.035143 0.000000 0.000000
# 5 0.000000 0.000000 0.000000 0.000000 0.035143 -0.005179
# 6 0.000000 0.000000 0.000000 0.000000 -0.005179 0.036960
#
#
# Mechanical properties :
#
#
# Convention : Reuss Voigt Hill
#
# Bulk Modulus (GPa) = 66.50335 71.72785 69.11560
# Shear Modulus (GPa) = 26.70952 27.69009 27.19981
#
# Velocity S-wave (km/s) = 3.72002 3.78769 3.75401
# Velocity P-wave (km/s) = 7.27376 7.50279 7.38917
#
# Compressibility (1/GPa) = 0.01503684
#
# Stress axis : x y z
#
# Youngs Moduli (GPa) = 63.23429 63.23429 74.84559
#
# Poissons Ratio (x) = 0.16857 0.46069
# Poissons Ratio (y) = 0.16857 0.46069
# Poissons Ratio (z) = 0.38922 0.38922
#
# Static dielectric constant tensor:
#      x y z
#    x 3.517690 0.000000 0.000000 
#    y 0.000000 3.517690 0.000000 
#    z 0.000000 0.000000 3.700870 
# 
# 
# High freq. dielectric constant tensor:
#      x y z
#    x 1.759190 0.000000 0.000000 
#    y 0.000000 1.759190 0.000000 
#    z 0.000000 0.000000 1.758660 
# 
# From -- ./inp_files/55.got.cif
#   From: 2010.03.12/outbox.cif.g09.slc.cpg/sg144_cif.got.tgz:55.got - 2010.04.03 13:34:42.
