data_PCOD8321636
_publ_section_title
;
Structure prediction by ZEFSAII (Michael W. Deem and Ramdas Pophale) SiO2 
 PCOD8321636
Probable space group: P -3
;
_chemical_formula_sum "Si O2"
_cell_formula_units_Z 34
_cell_length_a 14.692711
_cell_length_b 14.692711
_cell_length_c 8.477379
_cell_angle_alpha 90.000000
_cell_angle_beta 90.000000
_cell_angle_gamma 120.000000
_cell_volume 1584.878974
_symmetry_space_group_name_H-M "P -3"
_symmetry_group_IT_number 147
_symmetry_cell_setting 'hexagonal'
loop_
_space_group_symop_operation_xyz
x,y,z
-y,x-y,z
-x+y,-x,z
-x,-y,-z
y,-x+y,-z
x-y,x,-z
loop_
_atom_site_type_symbol
_atom_site_label
_atom_site_fract_x
_atom_site_fract_y
_atom_site_fract_z
Si Si1 0.666668 0.333335 0.854664
Si Si2 0.784744 0.922284 0.934041
Si Si3 0.205579 0.450153 0.673909
Si Si4 0.340221 0.415364 0.894529
Si Si5 0.501800 0.639927 0.000391
Si Si6 0.775403 0.862941 0.578016
Si Si7 0.666668 0.333334 0.484438
O O1 0.666668 0.333334 0.669633
O O2 0.549936 0.297573 0.919468
O O3 0.665128 0.892446 0.974007
O O4 0.799007 0.887884 0.761423
O O5 0.815853 0.862656 0.061192
O O6 0.309345 0.443115 0.724772
O O7 0.141739 0.453484 0.828147
O O8 0.131573 0.350148 0.563877
O O9 0.241476 0.554964 0.575458
O O10 0.408344 0.519192 0.995293
O O11 0.406465 0.354210 0.886744
O O12 0.838910 0.807617 0.518210
#
# Coordination Sequence:
#
# PCOD8321636 Si02
#       7
#     2   6   6   6   6   6   2
#     4  12  25  41  67  96 130 170 217 282 331 398
#     4  11  23  41  67  98 133 175 228 276 336 397
#     4  11  22  46  71  92 138 182 220 274 344 412
#     4  10  21  37  70  99 122 162 227 282 324 388
#     4  11  21  42  68  96 124 170 227 280 330 382
#     4  11  25  45  68  99 140 183 223 278 340 411
#     4  12  25  44  61  96 142 179 214 270 346 419
#
# _framework density 21.452742000000001
#
# number of rings (size 3 to 8) (size 9 to 14) (size 15 to 20)
#    0.000    1.059    3.529    3.529    0.000    2.824 
#    9.529    1.765    0.000    0.000    0.000    0.000 
#    0.000    0.000    0.000    0.000    0.000    0.000 
#
# Total GULP energy -421434.729696 kJ/mol
# GULP energy per Si atom -12395.139109 kJ/mol
# Density = 2.140391 g / cm^3
# Si number density = 21.452742 Si / 1000 Ang^3
#
#
#
# Elastic Constant Matrix: (Units=GPa)
#
#
# Indices 1 2 3 4 5 6 
#
# 1 110.4186 38.7861 29.1869 -4.4054 1.0510 0.0004
# 2 38.7861 110.4193 29.1870 4.4061 -1.0519 0.0009
# 3 29.1869 29.1870 62.4062 0.0003 -0.0003 0.0004
# 4 -4.4054 4.4061 0.0003 18.2985 0.0001 -1.0514
# 5 1.0510 -1.0519 -0.0003 0.0001 18.2985 -4.4057
# 6 0.0004 0.0009 0.0004 -1.0514 -4.4057 35.8169
#
#
#
# Elastic Compliance Matrix: (Units=1/GPa)
#
#
# Indices 1 2 3 4 5 6 
#
# 1 0.011307 -0.003104 -0.003837 0.003470 -0.000828 0.000000
# 2 -0.003104 0.011307 -0.003837 -0.003470 0.000828 0.000000
# 3 -0.003837 -0.003837 0.019613 0.000000 0.000000 0.000000
# 4 0.003470 -0.003470 0.000000 0.056415 0.000000 0.001656
# 5 -0.000828 0.000828 0.000000 0.000000 0.056415 0.006939
# 6 0.000000 0.000000 0.000000 0.001656 0.006939 0.028822
#
#
# Mechanical properties :
#
#
# Convention : Reuss Voigt Hill
#
# Bulk Modulus (GPa) = 48.37272 53.06266 50.71769
# Shear Modulus (GPa) = 23.54884 26.88840 25.21862
#
# Velocity S-wave (km/s) = 3.31676 3.54415 3.43234
# Velocity P-wave (km/s) = 6.10453 6.44487 6.27701
#
# Compressibility (1/GPa) = 0.02067281
#
# Stress axis : x y z
#
# Youngs Moduli (GPa) = 88.43920 88.43947 50.98733
#
# Poissons Ratio (x) = 0.27452 0.19562
# Poissons Ratio (y) = 0.27452 0.19562
# Poissons Ratio (z) = 0.33930 0.33930
#
# Static dielectric constant tensor:
#      x y z
#    x 4.216690 0.000000 0.000000 
#    y 0.000000 4.216670 0.000000 
#    z 0.000000 0.000000 3.531170 
# 
# 
# High freq. dielectric constant tensor:
#      x y z
#    x 1.860670 0.000000 0.000000 
#    y 0.000000 1.860670 0.000000 
#    z 0.000000 0.000000 1.801770 
# 
# From -- ./inp_files/560.got.cif
#   From: 2010.03.12/outbox.cif.g09.slc.cpg/sg147_cif.got.tgz:560.got - 2010.04.03 13:37:56.
