data_PCOD8321694
_publ_section_title
;
Structure prediction by ZEFSAII (Michael W. Deem and Ramdas Pophale) SiO2 
 PCOD8321694
Probable space group: R -3
;
_chemical_formula_sum "Si O2"
_cell_formula_units_Z 108
_cell_length_a 21.959271
_cell_length_b 21.959271
_cell_length_c 14.791175
_cell_angle_alpha 90.000000
_cell_angle_beta 90.000000
_cell_angle_gamma 120.000000
_cell_volume 6176.879710
_symmetry_space_group_name_H-M "R -3"
_symmetry_group_IT_number 148
_symmetry_cell_setting 'hexagonal'
loop_
_space_group_symop_operation_xyz
x,y,z
-y,x-y,z
-x+y,-x,z
-x,-y,-z
y,-x+y,-z
x-y,x,-z
2/3+x,1/3+y,1/3+z
2/3-y,1/3+x-y,1/3+z
2/3-x+y,1/3-x,1/3+z
2/3-x,1/3-y,1/3-z
2/3+y,1/3-x+y,1/3-z
2/3+x-y,1/3+x,1/3-z
1/3+x,2/3+y,2/3+z
1/3-y,2/3+x-y,2/3+z
1/3-x+y,2/3-x,2/3+z
1/3-x,2/3-y,2/3-z
1/3+y,2/3-x+y,2/3-z
1/3+x-y,2/3+x,2/3-z
loop_
_atom_site_type_symbol
_atom_site_label
_atom_site_fract_x
_atom_site_fract_y
_atom_site_fract_z
Si Si1 0.903980 0.384818 0.276095
Si Si2 0.327889 0.008918 0.347990
Si Si3 0.133543 0.905648 0.896422
Si Si4 0.846301 0.613748 0.068309
Si Si5 0.269744 0.021862 0.525413
Si Si6 0.836875 0.125108 0.449346
O O1 0.836304 0.324011 0.222205
O O2 0.876622 0.423038 0.344306
O O3 0.934449 0.343916 0.334586
O O4 0.962737 0.441796 0.207847
O O5 0.308862 0.937223 0.295693
O O6 0.271627 0.030087 0.309636
O O7 0.317581 0.004857 0.456697
O O8 0.194471 0.885765 0.888946
O O9 0.084925 0.865464 0.808915
O O10 0.792773 0.607735 0.990277
O O11 0.272057 0.094608 0.506213
O O12 0.191047 0.954477 0.516278
#
# Coordination Sequence:
#
# PCOD8321694 Si02
#       6
#    18  18  18  18  18  18
#     4   9  17  27  44  69  93 122 158 191 233 286
#     4   9  17  29  47  69  96 124 154 194 237 282
#     4   9  15  26  43  63  90 120 156 193 226 271
#     4   8  15  27  43  63  89 124 155 184 225 278
#     4  10  19  32  48  70  98 124 156 197 240 283
#     4   9  19  31  45  67  94 124 159 193 235 286
#
# _framework density 17.484556999999999
#
# number of rings (size 3 to 8) (size 9 to 14) (size 15 to 20)
#    0.000    3.000    0.000    2.000    0.000    8.667 
#    0.000    0.000    0.000    0.667    0.000    0.000 
#    0.000    0.000    0.000    0.000    0.000    0.000 
#
# Total GULP energy -445977.956117 kJ/mol
# GULP energy per Si atom -12388.276559 kJ/mol
# Density = 1.744476 g / cm^3
# Si number density = 17.484557 Si / 1000 Ang^3
#
#
#
# Elastic Constant Matrix: (Units=GPa)
#
#
# Indices 1 2 3 4 5 6 
#
# 1 80.3484 34.9424 12.9630 3.3995 0.9268 0.0000
# 2 34.9424 80.3484 12.9630 -3.3995 -0.9268 0.0000
# 3 12.9630 12.9630 22.9689 0.0000 0.0000 0.0000
# 4 3.3995 -3.3995 0.0000 21.3489 0.0000 -0.9268
# 5 0.9268 -0.9268 0.0000 0.0000 21.3489 3.3995
# 6 0.0000 0.0000 0.0000 -0.9268 3.3995 22.7030
#
#
#
# Elastic Compliance Matrix: (Units=1/GPa)
#
#
# Indices 1 2 3 4 5 6 
#
# 1 0.016269 -0.006334 -0.005607 -0.003599 -0.000981 0.000000
# 2 -0.006334 0.016269 -0.005607 0.003599 0.000981 0.000000
# 3 -0.005607 -0.005607 0.049866 0.000000 0.000000 0.000000
# 4 -0.003599 0.003599 0.000000 0.048072 0.000000 0.001962
# 5 -0.000981 0.000981 0.000000 0.000000 0.048072 -0.007198
# 6 0.000000 0.000000 0.000000 0.001962 -0.007198 0.045205
#
#
# Mechanical properties :
#
#
# Convention : Reuss Voigt Hill
#
# Bulk Modulus (GPa) = 21.13817 33.93361 27.53589
# Shear Modulus (GPa) = 18.20720 21.26663 19.73692
#
# Velocity S-wave (km/s) = 3.23047 3.49135 3.36344
# Velocity P-wave (km/s) = 5.10200 5.97516 5.55576
#
# Compressibility (1/GPa) = 0.04730779
#
# Stress axis : x y z
#
# Youngs Moduli (GPa) = 61.46843 61.46843 20.05382
#
# Poissons Ratio (x) = 0.38934 0.11244
# Poissons Ratio (y) = 0.38934 0.11244
# Poissons Ratio (z) = 0.34464 0.34464
#
# Static dielectric constant tensor:
#      x y z
#    x 3.111240 0.000000 0.000000 
#    y 0.000000 3.111240 0.000000 
#    z 0.000000 0.000000 3.343660 
# 
# 
# High freq. dielectric constant tensor:
#      x y z
#    x 1.642460 0.000000 0.000000 
#    y 0.000000 1.642460 0.000000 
#    z 0.000000 0.000000 1.671920 
# 
# From -- ./inp_files/2053.got.cif
#   From: 2010.03.12/outbox.cif.g09.slc.cpg/sg148_2_cif.got.tgz:2053.got - 2010.04.03 13:38:46.
