data_PCOD8321956
_publ_section_title
;
Structure prediction by ZEFSAII (Michael W. Deem and Ramdas Pophale) SiO2 
 PCOD8321956
Probable space group: P 31 1 2
;
_chemical_formula_sum "Si O2"
_cell_formula_units_Z 36
_cell_length_a 8.866822
_cell_length_b 8.866822
_cell_length_c 25.789151
_cell_angle_alpha 90.000000
_cell_angle_beta 90.000000
_cell_angle_gamma 120.000000
_cell_volume 1755.915680
_symmetry_space_group_name_H-M "P 31 1 2"
_symmetry_group_IT_number 151
_symmetry_cell_setting 'hexagonal'
loop_
_space_group_symop_operation_xyz
x,y,z
-y,x-y,1/3+z
-x+y,-x,2/3+z
-y,-x,2/3-z
-x+y,y,1/3-z
x,x-y,-z
loop_
_atom_site_type_symbol
_atom_site_label
_atom_site_fract_x
_atom_site_fract_y
_atom_site_fract_z
Si Si1 0.672827 0.916192 0.446050
Si Si2 0.615702 0.257639 0.887308
Si Si3 0.918857 0.655659 0.294301
Si Si4 0.277285 0.665943 0.278001
Si Si5 0.937683 0.960338 0.891413
Si Si6 0.392054 0.354986 0.744747
O O1 0.699181 0.849591 0.500000
O O2 0.499114 0.751951 0.422220
O O3 0.854003 0.962988 0.417671
O O4 0.658496 0.087108 0.450347
O O5 0.716973 0.283028 0.833334
O O6 0.726958 0.239382 0.933769
O O7 0.597544 0.424029 0.898627
O O8 0.898727 0.646328 0.356295
O O9 0.094132 0.654617 0.284057
O O10 0.932734 0.826683 0.267459
O O11 0.351647 0.648354 0.333334
O O12 0.403042 0.858881 0.255176
O O13 0.778486 0.762484 0.884835
O O14 0.960513 0.039488 0.833334
#
# Coordination Sequence:
#
# PCOD8321956 Si02
#       6
#     6   6   6   6   6   6
#     4  10  21  37  55  82 118 150 189 242 293 353
#     4  11  21  36  59  85 114 153 198 245 295 357
#     4   9  19  37  60  82 112 152 196 243 295 356
#     4   8  17  36  59  79 108 149 191 236 290 348
#     4  10  19  36  58  83 117 154 192 240 298 355
#     4  10  20  38  60  85 114 152 196 244 298 359
#
# _framework density 20.502123999999998
#
# number of rings (size 3 to 8) (size 9 to 14) (size 15 to 20)
#    0.000    2.333    0.000    4.500    0.000    0.667 
#    0.000   20.000    0.000    0.000    0.000    0.000 
#    0.000    0.000    0.000    0.000    0.000    0.000 
#
# Total GULP energy -446091.962790 kJ/mol
# GULP energy per Si atom -12391.443411 kJ/mol
# Density = 2.045546 g / cm^3
# Si number density = 20.502124 Si / 1000 Ang^3
#
#
#
# Elastic Constant Matrix: (Units=GPa)
#
#
# Indices 1 2 3 4 5 6 
#
# 1 83.9389 31.3816 25.3215 0.0000 -2.8721 0.0000
# 2 31.3816 83.9389 25.3215 0.0000 2.8721 0.0000
# 3 25.3215 25.3215 84.9561 0.0000 0.0000 0.0000
# 4 0.0000 0.0000 0.0000 22.8467 0.0000 2.8721
# 5 -2.8721 2.8721 0.0000 0.0000 22.8467 0.0000
# 6 0.0000 0.0000 0.0000 2.8721 0.0000 26.2786
#
#
#
# Elastic Compliance Matrix: (Units=1/GPa)
#
#
# Indices 1 2 3 4 5 6 
#
# 1 0.014635 -0.004657 -0.002974 0.000000 0.002425 0.000000
# 2 -0.004657 0.014635 -0.002974 0.000000 -0.002425 0.000000
# 3 -0.002974 -0.002974 0.013543 0.000000 0.000000 0.000000
# 4 0.000000 0.000000 0.000000 0.044380 0.000000 -0.004850
# 5 0.002425 -0.002425 0.000000 0.000000 0.044380 0.000000
# 6 0.000000 0.000000 0.000000 -0.004850 0.000000 0.038584
#
#
# Mechanical properties :
#
#
# Convention : Reuss Voigt Hill
#
# Bulk Modulus (GPa) = 46.28965 46.32037 46.30501
# Shear Modulus (GPa) = 25.18045 25.78171 25.48108
#
# Velocity S-wave (km/s) = 3.50835 3.54999 3.52923
# Velocity P-wave (km/s) = 6.24807 6.28055 6.26433
#
# Compressibility (1/GPa) = 0.02160310
#
# Stress axis : x y z
#
# Youngs Moduli (GPa) = 68.33086 68.33086 73.83618
#
# Poissons Ratio (x) = 0.31823 0.21958
# Poissons Ratio (y) = 0.31823 0.21958
# Poissons Ratio (z) = 0.20320 0.20320
#
# Static dielectric constant tensor:
#      x y z
#    x 4.025750 0.000000 0.000000 
#    y 0.000000 4.025750 0.000000 
#    z 0.000000 0.000000 4.095620 
# 
# 
# High freq. dielectric constant tensor:
#      x y z
#    x 1.796590 0.000000 0.000000 
#    y 0.000000 1.796590 0.000000 
#    z 0.000000 0.000000 1.798090 
# 
# From -- ./inp_files/4630.got.cif
#   From: 2010.03.12/outbox.cif.g09.slc.cpg/sg151_3_cif.got.tgz:4630.got - 2010.04.03 13:42:29.
