data_PCOD8321842
_publ_section_title
;
Structure prediction by ZEFSAII (Michael W. Deem and Ramdas Pophale) SiO2 
 PCOD8321842
Probable space group: P 3 1 2
;
_chemical_formula_sum "Si O2"
_cell_formula_units_Z 36
_cell_length_a 12.614602
_cell_length_b 12.614602
_cell_length_c 15.568747
_cell_angle_alpha 90.000000
_cell_angle_beta 90.000000
_cell_angle_gamma 120.000000
_cell_volume 2145.514226
_symmetry_space_group_name_H-M "P 3 1 2"
_symmetry_group_IT_number 149
_symmetry_cell_setting 'hexagonal'
loop_
_space_group_symop_operation_xyz
x,y,z
-y,x-y,z
-x+y,-x,z
-y,-x,-z
-x+y,y,-z
x,x-y,-z
loop_
_atom_site_type_symbol
_atom_site_label
_atom_site_fract_x
_atom_site_fract_y
_atom_site_fract_z
Si Si1 0.581421 0.668407 0.500000
Si Si2 0.000631 0.247788 0.659651
Si Si3 0.915305 0.579579 0.814006
Si Si4 0.665039 0.571059 1.000000
Si Si5 0.000631 0.752843 0.659651
Si Si6 0.664274 0.084695 0.185994
O O1 0.462946 0.537055 0.500000
O O2 0.541248 0.770624 0.500000
O O3 0.659700 0.679663 0.583576
O O4 0.659699 0.679663 0.416423
O O5 0.107885 0.215769 0.664177
O O6 0.997739 0.309911 0.748964
O O7 0.875809 0.124190 0.641477
O O8 0.978418 0.622064 0.909476
O O9 0.912849 0.456424 0.783966
O O10 0.776008 0.552016 0.815956
O O11 0.997739 0.687828 0.748964
O O12 0.575855 0.424146 0.000000
O O13 0.803798 0.607596 0.000000
O O14 0.643646 0.622064 0.909476
#
# Coordination Sequence:
#
# PCOD8321842 Si02
#       6
#     6   6   6   6   6   6
#     4  10  20  34  52  72  92 114 144 186 234 280
#     4  10  20  33  49  68  93 126 161 193 222 261
#     4   9  16  27  45  69  95 121 151 191 239 286
#     4   8  13  22  39  64  92 120 150 186 232 284
#     4  10  20  33  49  68  93 126 161 193 222 261
#     4   9  16  27  45  69  95 121 151 191 239 286
#
# _framework density 16.779192999999999
#
# number of rings (size 3 to 8) (size 9 to 14) (size 15 to 20)
#    0.000    2.667    0.000    2.500    0.000    2.667 
#    0.000    2.500    0.000    5.333    0.000    2.333 
#    0.000    0.000    0.000    0.000    0.000    0.000 
#
# Total GULP energy -446104.555308 kJ/mol
# GULP energy per Si atom -12391.793203 kJ/mol
# Density = 1.674100 g / cm^3
# Si number density = 16.779193 Si / 1000 Ang^3
#
#
#
# Elastic Constant Matrix: (Units=GPa)
#
#
# Indices 1 2 3 4 5 6 
#
# 1 85.6287 48.7890 60.0740 0.0000 -0.0001 0.0000
# 2 48.7890 85.6287 60.0740 0.0000 0.0001 0.0000
# 3 60.0740 60.0740 146.9280 0.0000 0.0000 0.0000
# 4 0.0000 0.0000 0.0000 17.0593 0.0000 0.0001
# 5 -0.0001 0.0001 0.0000 0.0000 17.0593 0.0000
# 6 0.0000 0.0000 0.0000 0.0001 0.0000 18.4198
#
#
#
# Elastic Compliance Matrix: (Units=1/GPa)
#
#
# Indices 1 2 3 4 5 6 
#
# 1 0.019434 -0.007710 -0.004794 0.000000 0.000000 0.000000
# 2 -0.007710 0.019434 -0.004794 0.000000 0.000000 0.000000
# 3 -0.004794 -0.004794 0.010726 0.000000 0.000000 0.000000
# 4 0.000000 0.000000 0.000000 0.058619 0.000000 0.000000
# 5 0.000000 0.000000 0.000000 0.000000 0.058619 0.000000
# 6 0.000000 0.000000 0.000000 0.000000 0.000000 0.054289
#
#
# Mechanical properties :
#
#
# Convention : Reuss Voigt Hill
#
# Bulk Modulus (GPa) = 66.66724 72.89550 69.78137
# Shear Modulus (GPa) = 19.17785 20.45757 19.81771
#
# Velocity S-wave (km/s) = 3.38443 3.49552 3.44043
# Velocity P-wave (km/s) = 7.42232 7.73498 7.58026
#
# Compressibility (1/GPa) = 0.01499987
#
# Stress axis : x y z
#
# Youngs Moduli (GPa) = 51.45496 51.45496 93.23137
#
# Poissons Ratio (x) = 0.39673 0.44692
# Poissons Ratio (y) = 0.39673 0.44692
# Poissons Ratio (z) = 0.24666 0.24666
#
# Static dielectric constant tensor:
#      x y z
#    x 2.926080 0.000000 0.000000 
#    y 0.000000 2.926080 0.000000 
#    z 0.000000 0.000000 3.666920 
# 
# 
# High freq. dielectric constant tensor:
#      x y z
#    x 1.626930 0.000000 0.000000 
#    y 0.000000 1.626930 0.000000 
#    z 0.000000 0.000000 1.672290 
# 
# From -- ./inp_files/1005.got.cif
#   From: 2010.03.12/outbox.cif.g09.slc.cpg/sg149_cif.got.tgz:1005.got - 2010.04.03 13:40:41.
