data_PCOD8321499
_publ_section_title
;
Structure prediction by ZEFSAII (Michael W. Deem and Ramdas Pophale) SiO2 
 PCOD8321499
Probable space group: P 32
;
_chemical_formula_sum "Si O2"
_cell_formula_units_Z 18
_cell_length_a 11.777662
_cell_length_b 11.777662
_cell_length_c 6.151946
_cell_angle_alpha 90.000000
_cell_angle_beta 90.000000
_cell_angle_gamma 120.000000
_cell_volume 739.028726
_symmetry_space_group_name_H-M "P 32"
_symmetry_group_IT_number 145
_symmetry_cell_setting 'hexagonal'
loop_
_space_group_symop_operation_xyz
x,y,z
-y,x-y,2/3+z
-x+y,-x,1/3+z
loop_
_atom_site_type_symbol
_atom_site_label
_atom_site_fract_x
_atom_site_fract_y
_atom_site_fract_z
Si Si1 0.022834 0.811446 0.970070
Si Si2 0.201771 0.810579 0.630198
Si Si3 0.871039 0.348001 0.766870
Si Si4 0.851370 0.520157 0.124029
Si Si5 0.463360 0.523435 0.105042
Si Si6 0.981376 0.182657 0.987754
O O1 0.137918 0.793530 0.866886
O O2 0.957585 0.847625 0.768889
O O3 0.088867 0.928002 0.147500
O O4 0.915655 0.674708 0.073932
O O5 0.343192 0.825185 0.668600
O O6 0.115653 0.688728 0.477305
O O7 0.218762 0.937948 0.512187
O O8 0.761336 0.283142 0.581356
O O9 0.009278 0.453290 0.660170
O O10 0.821900 0.428550 0.913855
O O11 0.890338 0.235817 0.883385
O O12 0.943062 0.487452 0.269616
#
# Coordination Sequence:
#
# PCOD8321499 Si02
#       6
#     3   3   3   3   3   3
#     4  12  28  52  77 113 158 206 264 324 397 472
#     4  12  26  48  80 118 156 206 266 328 394 468
#     4  12  28  52  77 113 158 206 264 324 397 472
#     4  12  28  52  77 113 158 206 264 324 397 472
#     4  12  26  48  80 118 156 206 266 328 394 468
#     4  12  28  52  77 113 158 206 264 324 397 472
#
# _framework density 24.356293000000001
#
# number of rings (size 3 to 8) (size 9 to 14) (size 15 to 20)
#    0.000    0.000    6.667    2.000    0.000    5.333 
#    0.000    0.000    0.000    0.000    0.000    0.000 
#    0.000    0.000    0.000    0.000    0.000    0.000 
#
# Total GULP energy -223315.892847 kJ/mol
# GULP energy per Si atom -12406.438492 kJ/mol
# Density = 2.430086 g / cm^3
# Si number density = 24.356293 Si / 1000 Ang^3
#
#
#
# Elastic Constant Matrix: (Units=GPa)
#
#
# Indices 1 2 3 4 5 6 
#
# 1 110.3137 36.9689 41.3432 -1.4563 -0.3878 0.0000
# 2 36.9689 110.3137 41.3432 1.4563 0.3878 0.0000
# 3 41.3432 41.3432 100.4937 0.0000 0.0000 0.0000
# 4 -1.4563 1.4563 0.0000 53.7170 0.0000 0.3878
# 5 -0.3878 0.3878 0.0000 0.0000 53.7170 -1.4563
# 6 0.0000 0.0000 0.0000 0.3878 -1.4563 36.6724
#
#
#
# Elastic Compliance Matrix: (Units=1/GPa)
#
#
# Indices 1 2 3 4 5 6 
#
# 1 0.011239 -0.002411 -0.003632 0.000370 0.000099 0.000000
# 2 -0.002411 0.011239 -0.003632 -0.000370 -0.000099 0.000000
# 3 -0.003632 -0.003632 0.012939 0.000000 0.000000 0.000000
# 4 0.000370 -0.000370 0.000000 0.018638 0.000000 -0.000197
# 5 0.000099 -0.000099 0.000000 0.000000 0.018638 0.000740
# 6 0.000000 0.000000 0.000000 -0.000197 0.000740 0.027300
#
#
# Mechanical properties :
#
#
# Convention : Reuss Voigt Hill
#
# Bulk Modulus (GPa) = 62.23416 62.27019 62.25218
# Shear Modulus (GPa) = 40.09644 42.25233 41.17438
#
# Velocity S-wave (km/s) = 4.06180 4.16956 4.11603
# Velocity P-wave (km/s) = 6.89961 6.98586 6.94287
#
# Compressibility (1/GPa) = 0.01606835
#
# Stress axis : x y z
#
# Youngs Moduli (GPa) = 88.97268 88.97268 77.28307
#
# Poissons Ratio (x) = 0.21448 0.28071
# Poissons Ratio (y) = 0.21448 0.28071
# Poissons Ratio (z) = 0.32317 0.32317
#
# Static dielectric constant tensor:
#      x y z
#    x 4.339510 0.000000 0.000000 
#    y 0.000000 4.339510 0.000000 
#    z 0.000000 0.000000 4.518400 
# 
# 
# High freq. dielectric constant tensor:
#      x y z
#    x 1.974680 0.000000 0.000000 
#    y 0.000000 1.974680 0.000000 
#    z 0.000000 0.000000 1.979520 
# 
# From -- ./inp_files/116.got.cif
#   From: 2010.03.12/outbox.cif.g09.slc.cpg/sg145_cif.got.tgz:116.got - 2010.04.03 13:35:35.
