data_PCOD8321273
_publ_section_title
;
Structure prediction by ZEFSAII (Michael W. Deem and Ramdas Pophale) SiO2 
 PCOD8321273
Probable space group: I 41/A C D
;
_chemical_formula_sum "Si O2"
_cell_formula_units_Z 176
_cell_length_a 16.045919
_cell_length_b 16.045919
_cell_length_c 30.097505
_cell_angle_alpha 90.000000
_cell_angle_beta 90.000000
_cell_angle_gamma 90.000000
_cell_volume 7749.250257
_symmetry_space_group_name_H-M "I 41/A C D"
_symmetry_group_IT_number 142
_space_group.IT_coordinate_system_code '2'
_symmetry_cell_setting 'tetragonal'
loop_
_space_group_symop_operation_xyz
x,y,z
1/4-y,3/4+x,1/4+z
-x,1/2-y,z
1/4+y,1/4-x,3/4+z
x,-y,1/2-z
1/2-x,y,-z
3/4+y,1/4+x,1/4-z
1/4-y,1/4-x,1/4-z
-x,-y,-z
3/4+y,1/4-x,3/4-z
x,1/2+y,-z
3/4-y,3/4+x,1/4-z
-x,y,1/2+z
1/2+x,-y,z
1/4-y,3/4-x,3/4+z
3/4+y,3/4+x,3/4+z
1/2+x,1/2+y,1/2+z
3/4-y,1/4+x,3/4+z
1/2-x,-y,1/2+z
3/4+y,3/4-x,1/4+z
1/2+x,1/2-y,-z
-x,1/2+y,1/2-z
1/4+y,3/4+x,3/4-z
3/4-y,3/4-x,3/4-z
1/2-x,1/2-y,1/2-z
1/4+y,3/4-x,1/4-z
1/2+x,y,1/2-z
1/4-y,1/4+x,3/4-z
1/2-x,1/2+y,z
x,1/2-y,1/2+z
3/4-y,1/4-x,1/4+z
1/4+y,1/4+x,1/4+z
loop_
_atom_site_type_symbol
_atom_site_label
_atom_site_fract_x
_atom_site_fract_y
_atom_site_fract_z
Si Si1 0.027549 0.340331 0.771097
Si Si2 0.921104 0.899147 0.309914
Si Si3 0.871066 0.734403 0.113100
Si Si4 0.292235 0.834454 0.731763
Si Si5 0.197768 0.233398 0.650121
Si Si6 0.750000 0.065069 0.000000
O O1 0.123591 0.348809 0.758775
O O2 0.000000 0.250000 0.789330
O O3 0.971828 0.357433 0.728961
O O4 0.007911 0.403000 0.811984
O O5 0.845581 0.839085 0.322446
O O6 0.986910 0.909510 0.350352
O O7 0.875156 0.982832 0.292589
O O8 0.907845 0.815852 0.136800
O O9 0.793264 0.707579 0.142940
O O10 0.250000 0.750000 0.750000
O O11 0.309878 0.819010 0.678749
O O12 0.237845 0.917851 0.737785
#
# Coordination Sequence:
#
# PCOD8321273 Si02
#       6
#    32  32  32  32  32  16
#     4  12  23  47  74 102 144 196 247 299 375 453
#     4  11  26  46  70 105 146 201 242 301 371 450
#     4  11  24  39  69 107 137 183 242 305 365 432
#     4  12  26  48  74 107 148 195 243 314 376 441
#     4  11  25  45  69 102 149 187 243 303 364 440
#     4  12  26  46  76 110 152 198 250 310 384 444
#
# _framework density 22.711874999999999
#
# number of rings (size 3 to 8) (size 9 to 14) (size 15 to 20)
#    0.000    0.545    5.455    2.182    5.091    2.909 
#    0.000    0.000    0.000    0.000    0.000    0.000 
#    0.000    0.000    0.000    0.000    0.000    0.000 
#
# Total GULP energy -1090722.801696 kJ/mol
# GULP energy per Si atom -12394.577292 kJ/mol
# Density = 2.266018 g / cm^3
# Si number density = 22.711875 Si / 1000 Ang^3
#
#
#
# Elastic Constant Matrix: (Units=GPa)
#
#
# Indices 1 2 3 4 5 6 
#
# 1 102.5028 29.2685 46.8563 0.0000 0.0000 0.0000
# 2 29.2685 102.5028 46.8563 0.0000 0.0000 0.0000
# 3 46.8563 46.8563 175.0845 0.0000 0.0000 0.0000
# 4 0.0000 0.0000 0.0000 27.4489 0.0000 0.0000
# 5 0.0000 0.0000 0.0000 0.0000 27.4489 0.0000
# 6 0.0000 0.0000 0.0000 0.0000 0.0000 28.3978
#
#
#
# Elastic Compliance Matrix: (Units=1/GPa)
#
#
# Indices 1 2 3 4 5 6 
#
# 1 0.011514 -0.002141 -0.002508 0.000000 0.000000 0.000000
# 2 -0.002141 0.011514 -0.002508 0.000000 0.000000 0.000000
# 3 -0.002508 -0.002508 0.007054 0.000000 0.000000 0.000000
# 4 0.000000 0.000000 0.000000 0.036431 0.000000 0.000000
# 5 0.000000 0.000000 0.000000 0.000000 0.036431 0.000000
# 6 0.000000 0.000000 0.000000 0.000000 0.000000 0.035214
#
#
# Mechanical properties :
#
#
# Convention : Reuss Voigt Hill
#
# Bulk Modulus (GPa) = 63.42656 69.56135 66.49396
# Shear Modulus (GPa) = 31.69990 33.79972 32.74981
#
# Velocity S-wave (km/s) = 3.74002 3.86190 3.80145
# Velocity P-wave (km/s) = 6.82917 7.11196 6.97200
#
# Compressibility (1/GPa) = 0.01576627
#
# Stress axis : x y z
#
# Youngs Moduli (GPa) = 86.85229 86.85229 141.76139
#
# Poissons Ratio (x) = 0.18595 0.35559
# Poissons Ratio (y) = 0.18595 0.35559
# Poissons Ratio (z) = 0.21786 0.21786
#
# Static dielectric constant tensor:
#      x y z
#    x 4.198500 0.000000 0.000000 
#    y 0.000000 4.198500 0.000000 
#    z 0.000000 0.000000 4.695360 
# 
# 
# High freq. dielectric constant tensor:
#      x y z
#    x 1.889750 0.000000 0.000000 
#    y 0.000000 1.889750 0.000000 
#    z 0.000000 0.000000 1.924340 
# 
# From -- ./inp_files/11462.got.cif
#   From: 2010.03.12/outbox.cif.g09.slc.cpg/sg142_6_cif.got.tgz:11462.got - 2010.04.03 13:27:16.
