data_PCOD8321981
_publ_section_title
;
Structure prediction by ZEFSAII (Michael W. Deem and Ramdas Pophale) SiO2 
 PCOD8321981
Probable space group: P 31 1 2
;
_chemical_formula_sum "Si O2"
_cell_formula_units_Z 24
_cell_length_a 15.571711
_cell_length_b 15.571711
_cell_length_c 5.977648
_cell_angle_alpha 90.000000
_cell_angle_beta 90.000000
_cell_angle_gamma 120.000000
_cell_volume 1255.259853
_symmetry_space_group_name_H-M "P 31 1 2"
_symmetry_group_IT_number 151
_symmetry_cell_setting 'hexagonal'
loop_
_space_group_symop_operation_xyz
x,y,z
-y,x-y,1/3+z
-x+y,-x,2/3+z
-y,-x,2/3-z
-x+y,y,1/3-z
x,x-y,-z
loop_
_atom_site_type_symbol
_atom_site_label
_atom_site_fract_x
_atom_site_fract_y
_atom_site_fract_z
Si Si1 0.623741 0.557641 0.446433
Si Si2 0.088017 0.911984 0.333334
Si Si3 0.165577 0.082789 0.000000
Si Si4 0.501090 0.250545 0.500000
Si Si5 0.578651 0.421350 0.833334
Si Si6 0.042926 0.775693 0.946434
O O1 0.520636 0.479365 0.333334
O O2 0.719794 0.563887 0.323862
O O3 0.617688 0.527267 0.708338
O O4 0.637099 0.666667 0.416666
O O5 0.193933 0.951021 0.458327
O O6 0.011535 0.905940 0.518193
O O7 0.230553 0.053127 0.842803
O O8 0.572606 0.344868 0.648476
O O9 0.146031 0.853970 0.833334
#
# Coordination Sequence:
#
# PCOD8321981 Si02
#       6
#     6   3   3   3   3   6
#     4  10  23  38  57  84 114 157 197 246 292 349
#     4  10  22  37  54  84 116 156 202 234 291 344
#     4  10  22  33  56  82 120 156 196 238 289 344
#     4  10  22  33  56  82 120 156 196 238 289 344
#     4  10  22  37  54  84 116 156 202 234 291 344
#     4  10  23  38  57  84 114 157 197 246 292 349
#
# _framework density 19.119547000000001
#
# number of rings (size 3 to 8) (size 9 to 14) (size 15 to 20)
#    0.000    2.000    0.000    1.500    7.000   26.000 
#    0.000    0.000    0.000    0.000    6.500    0.000 
#    0.000    0.000    0.000    0.000    0.000    0.000 
#
# Total GULP energy -297547.208124 kJ/mol
# GULP energy per Si atom -12397.800338 kJ/mol
# Density = 1.907603 g / cm^3
# Si number density = 19.119547 Si / 1000 Ang^3
#
#
#
# Elastic Constant Matrix: (Units=GPa)
#
#
# Indices 1 2 3 4 5 6 
#
# 1 94.6142 58.6480 42.9034 -0.0002 -0.0002 0.0000
# 2 58.6480 94.6142 42.9034 0.0002 0.0002 0.0000
# 3 42.9034 42.9034 129.8002 0.0000 0.0000 0.0000
# 4 -0.0002 0.0002 0.0000 20.2700 0.0000 0.0002
# 5 -0.0002 0.0002 0.0000 0.0000 20.2700 -0.0002
# 6 0.0000 0.0000 0.0000 0.0002 -0.0002 17.9831
#
#
#
# Elastic Compliance Matrix: (Units=1/GPa)
#
#
# Indices 1 2 3 4 5 6 
#
# 1 0.017905 -0.009899 -0.002646 0.000000 0.000000 0.000000
# 2 -0.009899 0.017905 -0.002646 0.000000 0.000000 0.000000
# 3 -0.002646 -0.002646 0.009454 0.000000 0.000000 0.000000
# 4 0.000000 0.000000 0.000000 0.049334 0.000000 -0.000001
# 5 0.000000 0.000000 0.000000 0.000000 0.049334 0.000000
# 6 0.000000 0.000000 0.000000 -0.000001 0.000000 0.055608
#
#
# Mechanical properties :
#
#
# Convention : Reuss Voigt Hill
#
# Bulk Modulus (GPa) = 67.20053 67.54869 67.37461
# Shear Modulus (GPa) = 21.28721 23.34288 22.31504
#
# Velocity S-wave (km/s) = 3.34035 3.49792 3.42004
# Velocity P-wave (km/s) = 7.07821 7.19168 7.13517
#
# Compressibility (1/GPa) = 0.01488083
#
# Stress axis : x y z
#
# Youngs Moduli (GPa) = 55.84992 55.84992 105.77995
#
# Poissons Ratio (x) = 0.55284 0.27993
# Poissons Ratio (y) = 0.55284 0.27993
# Poissons Ratio (z) = 0.14780 0.14780
#
# Static dielectric constant tensor:
#      x y z
#    x 3.240130 0.000000 0.000000 
#    y 0.000000 3.240130 0.000000 
#    z 0.000000 0.000000 4.148910 
# 
# 
# High freq. dielectric constant tensor:
#      x y z
#    x 1.713620 0.000000 0.000000 
#    y 0.000000 1.713620 0.000000 
#    z 0.000000 0.000000 1.767480 
# 
# From -- ./inp_files/305.got.cif
#   From: 2010.03.12/outbox.cif.g09.slc.cpg/sg151_1_cif.got.tgz:305.got - 2010.04.03 13:42:29.
