data_PCOD8321859
_publ_section_title
;
Structure prediction by ZEFSAII (Michael W. Deem and Ramdas Pophale) SiO2 
 PCOD8321859
Probable space group: P 3 1 2
;
_chemical_formula_sum "Si O2"
_cell_formula_units_Z 40
_cell_length_a 11.456872
_cell_length_b 11.456872
_cell_length_c 18.127850
_cell_angle_alpha 90.000000
_cell_angle_beta 90.000000
_cell_angle_gamma 120.000000
_cell_volume 2060.672867
_symmetry_space_group_name_H-M "P 3 1 2"
_symmetry_group_IT_number 149
_symmetry_cell_setting 'hexagonal'
loop_
_space_group_symop_operation_xyz
x,y,z
-y,x-y,z
-x+y,-x,z
-y,-x,-z
-x+y,y,-z
x,x-y,-z
loop_
_atom_site_type_symbol
_atom_site_label
_atom_site_fract_x
_atom_site_fract_y
_atom_site_fract_z
Si Si1 0.666667 0.333334 0.912736
Si Si2 0.999540 0.266870 0.664303
Si Si3 0.999543 0.266871 0.335697
Si Si4 0.267329 0.000459 0.835697
Si Si5 0.514669 0.485333 0.087492
Si Si6 0.666667 0.333334 0.587264
Si Si7 0.999543 0.732672 0.835697
Si Si8 0.970663 0.485333 0.587492
O O1 0.591093 0.408906 0.882740
O O2 0.666668 0.333334 0.000000
O O3 0.990682 0.295203 0.750000
O O4 0.038927 0.402749 0.619175
O O5 0.114396 0.228794 0.649675
O O6 0.858443 0.141555 0.636183
O O7 0.990684 0.295204 0.250000
O O8 0.038932 0.402751 0.380825
O O9 0.363821 0.961071 0.880824
O O10 0.283113 0.141557 0.863816
O O11 0.114398 0.885604 0.850325
O O12 0.597250 0.636181 0.119176
O O13 0.508128 0.491873 0.000000
O O14 0.666668 0.333334 0.500000
O O15 0.817813 0.408913 0.617260
O O16 0.983744 0.491872 0.500000
#
# Coordination Sequence:
#
# PCOD8321859 Si02
#       8
#     2   6   6   6   6   2   6   6
#     4   9  18  33  55  83 115 144 175 230 283 327
#     4  10  21  38  60  86 115 149 190 237 287 339
#     4  10  21  38  60  86 115 149 190 237 287 339
#     4  10  21  38  60  86 115 149 190 237 287 339
#     4  11  21  37  59  85 117 150 187 234 285 339
#     4   9  18  33  55  83 115 144 175 230 283 327
#     4  10  21  38  60  86 115 149 190 237 287 339
#     4  11  21  37  59  85 117 150 187 234 285 339
#
# _framework density 19.411135999999999
#
# number of rings (size 3 to 8) (size 9 to 14) (size 15 to 20)
#    0.000    1.800    3.000    1.500    0.000    3.600 
#    1.800    0.000    0.000    3.600    0.000    0.000 
#    0.000    0.000    0.000    0.000    0.000    0.000 
#
# Total GULP energy -496128.492469 kJ/mol
# GULP energy per Si atom -12403.212312 kJ/mol
# Density = 1.936696 g / cm^3
# Si number density = 19.411136 Si / 1000 Ang^3
#
#
#
# Elastic Constant Matrix: (Units=GPa)
#
#
# Indices 1 2 3 4 5 6 
#
# 1 98.2481 33.7152 44.6399 0.0000 0.0000 -0.0001
# 2 33.7152 98.2479 44.6400 0.0000 0.0000 -0.0001
# 3 44.6399 44.6400 74.3459 0.0000 0.0000 0.0000
# 4 0.0000 0.0000 0.0000 26.1241 0.0000 0.0000
# 5 0.0000 0.0000 0.0000 0.0000 26.1241 0.0000
# 6 -0.0001 -0.0001 0.0000 0.0000 0.0000 32.2665
#
#
#
# Elastic Compliance Matrix: (Units=1/GPa)
#
#
# Indices 1 2 3 4 5 6 
#
# 1 0.014129 -0.001367 -0.007663 0.000000 0.000000 0.000000
# 2 -0.001367 0.014129 -0.007663 0.000000 0.000000 0.000000
# 3 -0.007663 -0.007663 0.022653 0.000000 0.000000 0.000000
# 4 0.000000 0.000000 0.000000 0.038279 0.000000 0.000000
# 5 0.000000 0.000000 0.000000 0.000000 0.038279 0.000000
# 6 0.000000 0.000000 0.000000 0.000000 0.000000 0.030992
#
#
# Mechanical properties :
#
#
# Convention : Reuss Voigt Hill
#
# Bulk Modulus (GPa) = 57.05924 57.42580 57.24252
# Shear Modulus (GPa) = 25.29241 26.75939 26.02590
#
# Velocity S-wave (km/s) = 3.61360 3.71692 3.66563
# Velocity P-wave (km/s) = 6.84615 6.93317 6.88980
#
# Compressibility (1/GPa) = 0.01752565
#
# Stress axis : x y z
#
# Youngs Moduli (GPa) = 70.77600 70.77573 44.14466
#
# Poissons Ratio (x) = 0.09674 0.33827
# Poissons Ratio (y) = 0.09674 0.33828
# Poissons Ratio (z) = 0.54235 0.54235
#
# Static dielectric constant tensor:
#      x y z
#    x 3.500550 0.000000 0.000000 
#    y 0.000000 3.500550 0.000000 
#    z 0.000000 0.000000 3.292100 
# 
# 
# High freq. dielectric constant tensor:
#      x y z
#    x 1.754880 0.000000 0.000000 
#    y 0.000000 1.754880 0.000000 
#    z 0.000000 0.000000 1.741890 
# 
# From -- ./inp_files/1107.got.cif
#   From: 2010.03.12/outbox.cif.g09.slc.cpg/sg149_cif.got.tgz:1107.got - 2010.04.03 13:40:41.
