data_PCOD8321423
_publ_section_title
;
Structure prediction by ZEFSAII (Michael W. Deem and Ramdas Pophale) SiO2 
 PCOD8321423
Probable space group: P 31
;
_chemical_formula_sum "Si O2"
_cell_formula_units_Z 15
_cell_length_a 8.080904
_cell_length_b 8.080904
_cell_length_c 11.593447
_cell_angle_alpha 90.000000
_cell_angle_beta 90.000000
_cell_angle_gamma 120.000000
_cell_volume 655.636476
_symmetry_space_group_name_H-M "P 31"
_symmetry_group_IT_number 144
_symmetry_cell_setting 'hexagonal'
loop_
_space_group_symop_operation_xyz
x,y,z
-y,x-y,1/3+z
-x+y,-x,2/3+z
loop_
_atom_site_type_symbol
_atom_site_label
_atom_site_fract_x
_atom_site_fract_y
_atom_site_fract_z
Si Si1 0.333333 0.182583 0.998180
Si Si2 0.461525 0.345146 0.603161
Si Si3 0.481939 0.465623 0.199819
Si Si4 0.783046 0.988187 0.726532
Si Si5 0.184728 0.317017 0.796541
O O1 0.470963 0.139297 0.920093
O O2 0.198137 0.222638 0.915571
O O3 0.468530 0.357835 0.080788
O O4 0.195704 0.001668 0.076267
O O5 0.482597 0.157175 0.603161
O O6 0.333333 0.344114 0.498180
O O7 0.370293 0.367761 0.721424
O O8 0.296373 0.330801 0.274936
O O9 0.494358 0.666667 0.164847
O O10 0.992088 0.176158 0.726532
#
# Coordination Sequence:
#
# PCOD8321423 Si02
#       5
#     3   3   3   3   3
#     4  12  24  40  68 100 134 174 222 278 334 396
#     4  11  24  42  66  95 133 176 222 274 334 396
#     4  11  24  44  68  95 133 176 224 275 332 396
#     4  11  24  42  66  95 133 176 222 274 334 396
#     4  11  24  44  68  95 133 176 224 275 332 396
#
# _framework density 22.878533000000001
#
# number of rings (size 3 to 8) (size 9 to 14) (size 15 to 20)
#    0.000    0.800    0.000    9.600    0.000    6.400 
#    0.000    0.000    0.000    0.000    0.000    0.000 
#    0.000    0.000    0.000    0.000    0.000    0.000 
#
# Total GULP energy -186071.814797 kJ/mol
# GULP energy per Si atom -12404.787653 kJ/mol
# Density = 2.282646 g / cm^3
# Si number density = 22.878533 Si / 1000 Ang^3
#
#
#
# Elastic Constant Matrix: (Units=GPa)
#
#
# Indices 1 2 3 4 5 6 
#
# 1 121.1538 42.5528 45.0265 2.0870 0.0000 0.0000
# 2 42.5528 121.1538 45.0265 -2.0870 0.0000 0.0000
# 3 45.0265 45.0265 100.6029 0.0000 0.0000 0.0000
# 4 2.0870 -2.0870 0.0000 38.5153 0.0000 0.0000
# 5 0.0000 0.0000 0.0000 0.0000 38.5153 2.0870
# 6 0.0000 0.0000 0.0000 0.0000 2.0870 39.3005
#
#
#
# Elastic Compliance Matrix: (Units=1/GPa)
#
#
# Indices 1 2 3 4 5 6 
#
# 1 0.010431 -0.002328 -0.003627 -0.000691 0.000000 0.000000
# 2 -0.002328 0.010431 -0.003627 0.000691 0.000000 0.000000
# 3 -0.003627 -0.003627 0.013187 0.000000 0.000000 0.000000
# 4 -0.000691 0.000691 0.000000 0.026039 0.000000 0.000000
# 5 0.000000 0.000000 0.000000 0.000000 0.026039 -0.001383
# 6 0.000000 0.000000 0.000000 0.000000 -0.001383 0.025518
#
#
# Mechanical properties :
#
#
# Convention : Reuss Voigt Hill
#
# Bulk Modulus (GPa) = 67.17616 67.56911 67.37264
# Shear Modulus (GPa) = 36.82690 37.28655 37.05672
#
# Velocity S-wave (km/s) = 4.01642 4.04141 4.02894
# Velocity P-wave (km/s) = 7.13686 7.16766 7.15227
#
# Compressibility (1/GPa) = 0.01488623
#
# Stress axis : x y z
#
# Youngs Moduli (GPa) = 95.86443 95.86443 75.83434
#
# Poissons Ratio (x) = 0.22315 0.27504
# Poissons Ratio (y) = 0.22315 0.27504
# Poissons Ratio (z) = 0.34769 0.34769
#
# Static dielectric constant tensor:
#      x y z
#    x 4.119520 0.000000 0.000000 
#    y 0.000000 4.119520 0.000000 
#    z 0.000000 0.000000 4.030100 
# 
# 
# High freq. dielectric constant tensor:
#      x y z
#    x 1.906390 0.000000 0.000000 
#    y 0.000000 1.906390 0.000000 
#    z 0.000000 0.000000 1.903690 
# 
# From -- ./inp_files/471.got.cif
#   From: 2010.03.12/outbox.cif.g09.slc.cpg/sg144_cif.got.tgz:471.got - 2010.04.03 13:34:42.
