data_PCOD8321719
_publ_section_title
;
Structure prediction by ZEFSAII (Michael W. Deem and Ramdas Pophale) SiO2 
 PCOD8321719
Probable space group: R -3
;
_chemical_formula_sum "Si O2"
_cell_formula_units_Z 108
_cell_length_a 14.466358
_cell_length_b 14.466358
_cell_length_c 33.445122
_cell_angle_alpha 90.000000
_cell_angle_beta 90.000000
_cell_angle_gamma 120.000000
_cell_volume 6061.524055
_symmetry_space_group_name_H-M "R -3"
_symmetry_group_IT_number 148
_symmetry_cell_setting 'hexagonal'
loop_
_space_group_symop_operation_xyz
x,y,z
-y,x-y,z
-x+y,-x,z
-x,-y,-z
y,-x+y,-z
x-y,x,-z
2/3+x,1/3+y,1/3+z
2/3-y,1/3+x-y,1/3+z
2/3-x+y,1/3-x,1/3+z
2/3-x,1/3-y,1/3-z
2/3+y,1/3-x+y,1/3-z
2/3+x-y,1/3+x,1/3-z
1/3+x,2/3+y,2/3+z
1/3-y,2/3+x-y,2/3+z
1/3-x+y,2/3-x,2/3+z
1/3-x,2/3-y,2/3-z
1/3+y,2/3-x+y,2/3-z
1/3+x-y,2/3+x,2/3-z
loop_
_atom_site_type_symbol
_atom_site_label
_atom_site_fract_x
_atom_site_fract_y
_atom_site_fract_z
Si Si1 0.868619 0.965514 0.295118
Si Si2 0.032953 0.574670 0.256972
Si Si3 0.667932 0.578859 0.967801
Si Si4 0.656632 0.809330 0.421862
Si Si5 0.338761 0.874001 0.677796
Si Si6 0.551118 0.466856 0.829519
O O1 0.797711 0.947142 0.255486
O O2 0.913357 0.882268 0.295119
O O3 0.794889 0.944979 0.333643
O O4 0.094819 0.526064 0.280870
O O5 0.107652 0.701000 0.259271
O O6 0.017802 0.537091 0.210882
O O7 0.917464 0.535455 0.277405
O O8 0.583530 0.566956 0.934606
O O9 0.706802 0.691838 0.988761
O O10 0.662826 0.827799 0.469283
O O11 0.426723 0.861630 0.652323
O O12 0.673313 0.510423 0.841567
#
# Coordination Sequence:
#
# PCOD8321719 Si02
#       6
#    18  18  18  18  18  18
#     4  10  23  35  56  83 120 149 186 234 297 348
#     4  10  21  36  56  85 114 155 189 235 293 348
#     4  11  20  35  55  89 112 152 184 239 292 355
#     4  11  21  35  58  80 123 150 196 234 285 354
#     4  10  22  36  60  82 115 144 192 239 299 339
#     4  10  20  37  56  82 116 155 195 237 286 342
#
# _framework density 17.817301
#
# number of rings (size 3 to 8) (size 9 to 14) (size 15 to 20)
#    0.333    1.333    3.333    1.833    4.667    0.000 
#    1.000    0.000    7.333    3.000    0.000    0.000 
#    0.000    0.000    0.000    0.000    0.000    0.000 
#
# Total GULP energy -446383.795944 kJ/mol
# GULP energy per Si atom -12399.549887 kJ/mol
# Density = 1.777675 g / cm^3
# Si number density = 17.817301 Si / 1000 Ang^3
#
#
#
# Elastic Constant Matrix: (Units=GPa)
#
#
# Indices 1 2 3 4 5 6 
#
# 1 93.7519 35.2370 53.5897 6.9034 -1.6222 0.0000
# 2 35.2370 93.7519 53.5897 -6.9034 1.6222 0.0000
# 3 53.5897 53.5897 119.9641 0.0000 0.0000 0.0000
# 4 6.9034 -6.9034 0.0000 24.9828 0.0000 1.6222
# 5 -1.6222 1.6222 0.0000 0.0000 24.9828 6.9034
# 6 0.0000 0.0000 0.0000 1.6222 6.9034 29.2574
#
#
#
# Elastic Compliance Matrix: (Units=1/GPa)
#
#
# Indices 1 2 3 4 5 6 
#
# 1 0.015341 -0.003012 -0.005507 -0.005071 0.001192 0.000000
# 2 -0.003012 0.015341 -0.005507 0.005071 -0.001192 0.000000
# 3 -0.005507 -0.005507 0.013256 0.000000 0.000000 0.000000
# 4 -0.005071 0.005071 0.000000 0.042985 0.000000 -0.002383
# 5 0.001192 -0.001192 0.000000 0.000000 0.042985 -0.010143
# 6 0.000000 0.000000 0.000000 -0.002383 -0.010143 0.036705
#
#
# Mechanical properties :
#
#
# Convention : Reuss Voigt Hill
#
# Bulk Modulus (GPa) = 62.95570 65.81120 64.38345
# Shear Modulus (GPa) = 25.00495 26.84804 25.92649
#
# Velocity S-wave (km/s) = 3.75027 3.88603 3.81876
# Velocity P-wave (km/s) = 7.35958 7.55988 7.46041
#
# Compressibility (1/GPa) = 0.01588419
#
# Stress axis : x y z
#
# Youngs Moduli (GPa) = 65.18644 65.18644 75.43533
#
# Poissons Ratio (x) = 0.19632 0.41546
# Poissons Ratio (y) = 0.19632 0.41546
# Poissons Ratio (z) = 0.35901 0.35901
#
# Static dielectric constant tensor:
#      x y z
#    x 3.271780 0.000000 0.000000 
#    y 0.000000 3.271780 0.000000 
#    z 0.000000 0.000000 3.357660 
# 
# 
# High freq. dielectric constant tensor:
#      x y z
#    x 1.685900 0.000000 0.000000 
#    y 0.000000 1.685900 0.000000 
#    z 0.000000 0.000000 1.682590 
# 
# From -- ./inp_files/3993.got.cif
#   From: 2010.03.12/outbox.cif.g09.slc.cpg/sg148_2_cif.got.tgz:3993.got - 2010.04.03 13:38:46.
