data_PCOD8321714
_publ_section_title
;
Structure prediction by ZEFSAII (Michael W. Deem and Ramdas Pophale) SiO2 
 PCOD8321714
Probable space group: R -3
;
_chemical_formula_sum "Si O2"
_cell_formula_units_Z 78
_cell_length_a 21.851998
_cell_length_b 21.851998
_cell_length_c 8.032653
_cell_angle_alpha 90.000000
_cell_angle_beta 90.000000
_cell_angle_gamma 120.000000
_cell_volume 3321.788233
_symmetry_space_group_name_H-M "R -3"
_symmetry_group_IT_number 148
_symmetry_cell_setting 'hexagonal'
loop_
_space_group_symop_operation_xyz
x,y,z
-y,x-y,z
-x+y,-x,z
-x,-y,-z
y,-x+y,-z
x-y,x,-z
2/3+x,1/3+y,1/3+z
2/3-y,1/3+x-y,1/3+z
2/3-x+y,1/3-x,1/3+z
2/3-x,1/3-y,1/3-z
2/3+y,1/3-x+y,1/3-z
2/3+x-y,1/3+x,1/3-z
1/3+x,2/3+y,2/3+z
1/3-y,2/3+x-y,2/3+z
1/3-x+y,2/3-x,2/3+z
1/3-x,2/3-y,2/3-z
1/3+y,2/3-x+y,2/3-z
1/3+x-y,2/3+x,2/3-z
loop_
_atom_site_type_symbol
_atom_site_label
_atom_site_fract_x
_atom_site_fract_y
_atom_site_fract_z
Si Si1 0.350232 0.044006 0.940718
Si Si2 0.561859 0.722877 0.126896
Si Si3 0.815144 0.178488 0.477843
Si Si4 0.000000 0.000000 0.299064
Si Si5 0.773549 0.279583 0.606935
O O1 0.434463 0.097290 0.925004
O O2 0.306200 0.083595 0.934105
O O3 0.331210 0.993362 0.779823
O O4 0.639344 0.779899 0.051177
O O5 0.520144 0.755311 0.223123
O O6 0.514230 0.684207 0.967844
O O7 0.833334 0.166667 0.666667
O O8 0.792175 0.238408 0.464216
O O9 0.035400 0.080688 0.228975
O O10 0.000000 0.000000 0.500000
#
# Coordination Sequence:
#
# PCOD8321714 Si02
#       5
#    18  18  18   6  18
#     4  12  23  39  64  94 132 176 223 278 344 410
#     4  11  17  34  59  89 127 171 213 271 347 399
#     4  10  20  35  60  85 129 182 209 275 347 392
#     4  12  21  27  51  93 132 162 229 288 336 427
#     4  11  19  32  53  92 131 165 222 284 339 405
#
# _framework density 23.481328000000001
#
# number of rings (size 3 to 8) (size 9 to 14) (size 15 to 20)
#    0.000    0.923   11.538    0.000    0.000    0.000 
#    0.000    1.154    0.000    2.769    0.000    0.000 
#    0.000    4.154    0.000    0.000    0.000    0.000 
#
# Total GULP energy -322134.821012 kJ/mol
# GULP energy per Si atom -12389.800808 kJ/mol
# Density = 2.342788 g / cm^3
# Si number density = 23.481328 Si / 1000 Ang^3
#
#
#
# Elastic Constant Matrix: (Units=GPa)
#
#
# Indices 1 2 3 4 5 6 
#
# 1 176.5565 76.9839 22.5032 1.9654 -3.2663 0.0054
# 2 76.9839 176.5504 22.5028 -1.9531 3.2814 0.0022
# 3 22.5032 22.5028 47.6853 0.0311 -0.0016 0.0175
# 4 1.9654 -1.9531 0.0311 18.7682 0.0149 3.2796
# 5 -3.2663 3.2814 -0.0016 0.0149 18.7765 1.9661
# 6 0.0054 0.0022 0.0175 3.2796 1.9661 49.7840
#
#
#
# Elastic Compliance Matrix: (Units=1/GPa)
#
#
# Indices 1 2 3 4 5 6 
#
# 1 0.007253 -0.002949 -0.002031 -0.001064 0.001778 0.000000
# 2 -0.002949 0.007254 -0.002032 0.001068 -0.001782 0.000001
# 3 -0.002031 -0.002032 0.022888 -0.000036 0.000005 -0.000006
# 4 -0.001064 0.001068 -0.000036 0.054127 -0.000042 -0.003564
# 5 0.001778 -0.001782 0.000005 -0.000042 0.054102 -0.002134
# 6 0.000000 0.000001 -0.000006 -0.003564 -0.002134 0.020406
#
#
# Mechanical properties :
#
#
# Convention : Reuss Voigt Hill
#
# Bulk Modulus (GPa) = 42.78641 71.64133 57.21387
# Shear Modulus (GPa) = 26.61779 36.05256 31.33518
#
# Velocity S-wave (km/s) = 3.37051 3.92263 3.65701
# Velocity P-wave (km/s) = 5.77998 7.14788 6.50001
#
# Compressibility (1/GPa) = 0.02337191
#
# Stress axis : x y z
#
# Youngs Moduli (GPa) = 137.87053 137.85788 43.69070
#
# Poissons Ratio (x) = 0.40650 0.08872
# Poissons Ratio (y) = 0.40654 0.08879
# Poissons Ratio (z) = 0.27996 0.28017
#
# Static dielectric constant tensor:
#      x y z
#    x 4.777770 0.000070 -0.000040 
#    y 0.000070 4.778030 -0.000060 
#    z -0.000040 -0.000060 3.496630 
# 
# 
# High freq. dielectric constant tensor:
#      x y z
#    x 1.945470 0.000000 0.000000 
#    y 0.000000 1.945470 0.000000 
#    z 0.000000 0.000000 1.852340 
# 
# From -- ./inp_files/967.got.cif
#   From: 2010.03.12/outbox.cif.g09.slc.cpg/sg148_1_cif.got.tgz:967.got - 2010.04.03 13:38:46.
