data_PCOD8321115
_publ_section_title
;
Structure prediction by ZEFSAII (Michael W. Deem and Ramdas Pophale) SiO2 
 PCOD8321115
Probable space group: I 41/A C D
;
_chemical_formula_sum "Si O2"
_cell_formula_units_Z 136
_cell_length_a 22.333947
_cell_length_b 22.333947
_cell_length_c 12.750058
_cell_angle_alpha 90.000000
_cell_angle_beta 90.000000
_cell_angle_gamma 90.000000
_cell_volume 6359.795085
_symmetry_space_group_name_H-M "I 41/A C D"
_symmetry_group_IT_number 142
_space_group.IT_coordinate_system_code '2'
_symmetry_cell_setting 'tetragonal'
loop_
_space_group_symop_operation_xyz
x,y,z
1/4-y,3/4+x,1/4+z
-x,1/2-y,z
1/4+y,1/4-x,3/4+z
x,-y,1/2-z
1/2-x,y,-z
3/4+y,1/4+x,1/4-z
1/4-y,1/4-x,1/4-z
-x,-y,-z
3/4+y,1/4-x,3/4-z
x,1/2+y,-z
3/4-y,3/4+x,1/4-z
-x,y,1/2+z
1/2+x,-y,z
1/4-y,3/4-x,3/4+z
3/4+y,3/4+x,3/4+z
1/2+x,1/2+y,1/2+z
3/4-y,1/4+x,3/4+z
1/2-x,-y,1/2+z
3/4+y,3/4-x,1/4+z
1/2+x,1/2-y,-z
-x,1/2+y,1/2-z
1/4+y,3/4+x,3/4-z
3/4-y,3/4-x,3/4-z
1/2-x,1/2-y,1/2-z
1/4+y,3/4-x,1/4-z
1/2+x,y,1/2-z
1/4-y,1/4+x,3/4-z
1/2-x,1/2+y,z
x,1/2-y,1/2+z
3/4-y,1/4-x,1/4+z
1/4+y,1/4+x,1/4+z
loop_
_atom_site_type_symbol
_atom_site_label
_atom_site_fract_x
_atom_site_fract_y
_atom_site_fract_z
Si Si1 0.221891 0.124526 0.217395
Si Si2 0.095192 0.276750 0.037162
Si Si3 0.000000 0.250000 0.375000
Si Si4 0.830609 0.500000 0.250000
Si Si5 0.796404 0.859382 0.410241
Si Si6 0.100336 0.850336 0.375000
O O1 0.252209 0.124118 0.101987
O O2 0.260795 0.161323 0.303921
O O3 0.155772 0.152079 0.205835
O O4 0.213734 0.056225 0.254211
O O5 0.053573 0.303573 0.125000
O O6 0.159970 0.309133 0.039641
O O7 0.104969 0.206947 0.052331
O O8 0.054520 0.283509 0.934297
O O9 0.750000 0.877837 0.500000
O O10 0.832884 0.917117 0.375000
#
# Coordination Sequence:
#
# PCOD8321115 Si02
#       6
#    32  32   8  16  32  16
#     4  10  21  38  64  93 136 177 218 288 346 423
#     4  11  24  46  69 102 129 182 243 287 347 423
#     4  12  22  44  84  86 132 196 238 296 348 426
#     4   8  18  36  60  94 124 184 230 252 348 432
#     4  11  26  42  66 104 144 180 230 292 359 427
#     4  10  21  44  66  94 136 170 236 286 356 413
#
# _framework density 21.384336999999999
#
# number of rings (size 3 to 8) (size 9 to 14) (size 15 to 20)
#    0.000    1.882    2.353    1.412    8.235    0.941 
#   12.706    0.000    0.000    0.000    0.000    0.000 
#    0.000    0.000    0.000    0.000    0.000    0.000 
#
# Total GULP energy -842623.516516 kJ/mol
# GULP energy per Si atom -12391.522302 kJ/mol
# Density = 2.133567 g / cm^3
# Si number density = 21.384337 Si / 1000 Ang^3
#
#
#
# Elastic Constant Matrix: (Units=GPa)
#
#
# Indices 1 2 3 4 5 6 
#
# 1 83.5286 56.0824 47.3374 0.0000 0.0000 0.0000
# 2 56.0824 83.5268 47.3357 0.0000 0.0000 0.0000
# 3 47.3374 47.3357 140.9526 0.0000 0.0000 0.0000
# 4 0.0000 0.0000 0.0000 96.1012 0.0000 0.0000
# 5 0.0000 0.0000 0.0000 0.0000 96.1268 0.0000
# 6 0.0000 0.0000 0.0000 0.0000 0.0000 28.8725
#
#
#
# Elastic Compliance Matrix: (Units=1/GPa)
#
#
# Indices 1 2 3 4 5 6 
#
# 1 0.022855 -0.013580 -0.003115 0.000000 0.000000 0.000000
# 2 -0.013580 0.022856 -0.003115 0.000000 0.000000 0.000000
# 3 -0.003115 -0.003115 0.009187 0.000000 0.000000 0.000000
# 4 0.000000 0.000000 0.000000 0.010406 0.000000 0.000000
# 5 0.000000 0.000000 0.000000 0.000000 0.010403 0.000000
# 6 0.000000 0.000000 0.000000 0.000000 0.000000 0.034635
#
#
# Mechanical properties :
#
#
# Convention : Reuss Voigt Hill
#
# Bulk Modulus (GPa) = 65.45619 67.72432 66.59025
# Shear Modulus (GPa) = 32.24672 54.70360 43.47516
#
# Velocity S-wave (km/s) = 3.88746 5.06327 4.51381
# Velocity P-wave (km/s) = 7.12921 8.11918 7.64025
#
# Compressibility (1/GPa) = 0.01527739
#
# Stress axis : x y z
#
# Youngs Moduli (GPa) = 43.75322 43.75278 108.85250
#
# Poissons Ratio (x) = 0.59418 0.33908
# Poissons Ratio (y) = 0.59419 0.33904
# Poissons Ratio (z) = 0.13629 0.13628
#
# Static dielectric constant tensor:
#      x y z
#    x 3.930600 0.000000 0.000000 
#    y 0.000000 3.930620 0.000000 
#    z 0.000000 0.000000 3.899560 
# 
# 
# High freq. dielectric constant tensor:
#      x y z
#    x 1.833120 0.000000 0.000000 
#    y 0.000000 1.833120 0.000000 
#    z 0.000000 0.000000 1.844410 
# 
# From -- ./inp_files/3672.got.cif
#   From: 2010.03.12/outbox.cif.g09.slc.cpg/sg142_2_cif.got.tgz:3672.got - 2010.04.03 13:27:16.
