data_PCOD8321236
_publ_section_title
;
Structure prediction by ZEFSAII (Michael W. Deem and Ramdas Pophale) SiO2 
 PCOD8321236
Probable space group: I 41/A C D
;
_chemical_formula_sum "Si O2"
_cell_formula_units_Z 112
_cell_length_a 13.919760
_cell_length_b 13.919760
_cell_length_c 26.593158
_cell_angle_alpha 90.000000
_cell_angle_beta 90.000000
_cell_angle_gamma 90.000000
_cell_volume 5152.682807
_symmetry_space_group_name_H-M "I 41/A C D"
_symmetry_group_IT_number 142
_space_group.IT_coordinate_system_code '2'
_symmetry_cell_setting 'tetragonal'
loop_
_space_group_symop_operation_xyz
x,y,z
1/4-y,3/4+x,1/4+z
-x,1/2-y,z
1/4+y,1/4-x,3/4+z
x,-y,1/2-z
1/2-x,y,-z
3/4+y,1/4+x,1/4-z
1/4-y,1/4-x,1/4-z
-x,-y,-z
3/4+y,1/4-x,3/4-z
x,1/2+y,-z
3/4-y,3/4+x,1/4-z
-x,y,1/2+z
1/2+x,-y,z
1/4-y,3/4-x,3/4+z
3/4+y,3/4+x,3/4+z
1/2+x,1/2+y,1/2+z
3/4-y,1/4+x,3/4+z
1/2-x,-y,1/2+z
3/4+y,3/4-x,1/4+z
1/2+x,1/2-y,-z
-x,1/2+y,1/2-z
1/4+y,3/4+x,3/4-z
3/4-y,3/4-x,3/4-z
1/2-x,1/2-y,1/2-z
1/4+y,3/4-x,1/4-z
1/2+x,y,1/2-z
1/4-y,1/4+x,3/4-z
1/2-x,1/2+y,z
x,1/2-y,1/2+z
3/4-y,1/4-x,1/4+z
1/4+y,1/4+x,1/4+z
loop_
_atom_site_type_symbol
_atom_site_label
_atom_site_fract_x
_atom_site_fract_y
_atom_site_fract_z
Si Si1 0.212000 0.921121 0.428558
Si Si2 0.750000 0.910814 0.500000
Si Si3 0.098669 0.171757 0.905529
Si Si4 0.002935 0.356015 0.735260
O O1 0.160186 0.910186 0.375000
O O2 0.323964 0.910109 0.414906
O O3 0.170586 0.839169 0.464212
O O4 0.202649 0.023567 0.456274
O O5 0.835053 0.845622 0.476500
O O6 0.127785 0.248394 0.861497
O O7 0.087981 0.232602 0.956108
O O8 0.000000 0.250000 0.709027
#
# Coordination Sequence:
#
# PCOD8321236 Si02
#       4
#    32  16  32  32
#     4  12  27  45  71 111 143 188 252 301 377 447
#     4  12  24  50  74  98 152 192 238 318 362 440
#     4  11  21  42  74 100 135 189 244 290 356 445
#     4  12  25  47  72 105 147 188 246 309 361 440
#
# _framework density 21.736249000000001
#
# number of rings (size 3 to 8) (size 9 to 14) (size 15 to 20)
#    0.000    0.286    8.571    1.714    0.000    4.000 
#    0.000    0.000    0.000    0.000    0.000    0.000 
#    0.000    0.000    0.000    0.000    0.000    0.000 
#
# Total GULP energy -694016.694789 kJ/mol
# GULP energy per Si atom -12393.155264 kJ/mol
# Density = 2.168678 g / cm^3
# Si number density = 21.736249 Si / 1000 Ang^3
#
#
#
# Elastic Constant Matrix: (Units=GPa)
#
#
# Indices 1 2 3 4 5 6 
#
# 1 131.4741 60.5554 30.4592 0.0000 0.0000 0.0000
# 2 60.5554 131.4741 30.4592 0.0000 0.0000 0.0000
# 3 30.4592 30.4592 116.9722 0.0000 0.0000 0.0000
# 4 0.0000 0.0000 0.0000 24.8489 0.0000 0.0000
# 5 0.0000 0.0000 0.0000 0.0000 24.8489 0.0000
# 6 0.0000 0.0000 0.0000 0.0000 0.0000 23.7773
#
#
#
# Elastic Compliance Matrix: (Units=1/GPa)
#
#
# Indices 1 2 3 4 5 6 
#
# 1 0.009889 -0.004212 -0.001478 0.000000 0.000000 0.000000
# 2 -0.004212 0.009889 -0.001478 0.000000 0.000000 0.000000
# 3 -0.001478 -0.001478 0.009319 0.000000 0.000000 0.000000
# 4 0.000000 0.000000 0.000000 0.040243 0.000000 0.000000
# 5 0.000000 0.000000 0.000000 0.000000 0.040243 0.000000
# 6 0.000000 0.000000 0.000000 0.000000 0.000000 0.042057
#
#
# Mechanical properties :
#
#
# Convention : Reuss Voigt Hill
#
# Bulk Modulus (GPa) = 67.75427 69.20756 68.48092
# Shear Modulus (GPa) = 29.25760 31.92480 30.59120
#
# Velocity S-wave (km/s) = 3.67281 3.83657 3.75558
# Velocity P-wave (km/s) = 7.01604 7.17875 7.09786
#
# Compressibility (1/GPa) = 0.01475922
#
# Stress axis : x y z
#
# Youngs Moduli (GPa) = 101.12703 101.12703 107.30952
#
# Poissons Ratio (x) = 0.42596 0.15862
# Poissons Ratio (y) = 0.42596 0.15862
# Poissons Ratio (z) = 0.14948 0.14948
#
# Static dielectric constant tensor:
#      x y z
#    x 3.995700 0.000000 0.000000 
#    y 0.000000 3.995700 0.000000 
#    z 0.000000 0.000000 4.132190 
# 
# 
# High freq. dielectric constant tensor:
#      x y z
#    x 1.851570 0.000000 0.000000 
#    y 0.000000 1.851570 0.000000 
#    z 0.000000 0.000000 1.856800 
# 
# From -- ./inp_files/9751.got.cif
#   From: 2010.03.12/outbox.cif.g09.slc.cpg/sg142_5_cif.got.tgz:9751.got - 2010.04.03 13:27:16.
