data_PCOD8321654
_publ_section_title
;
Structure prediction by ZEFSAII (Michael W. Deem and Ramdas Pophale) SiO2 
 PCOD8321654
Probable space group: P -3
;
_chemical_formula_sum "Si O2"
_cell_formula_units_Z 18
_cell_length_a 11.481928
_cell_length_b 11.481928
_cell_length_c 7.430374
_cell_angle_alpha 90.000000
_cell_angle_beta 90.000000
_cell_angle_gamma 120.000000
_cell_volume 848.341952
_symmetry_space_group_name_H-M "P -3"
_symmetry_group_IT_number 147
_symmetry_cell_setting 'hexagonal'
loop_
_space_group_symop_operation_xyz
x,y,z
-y,x-y,z
-x+y,-x,z
-x,-y,-z
y,-x+y,-z
x-y,x,-z
loop_
_atom_site_type_symbol
_atom_site_label
_atom_site_fract_x
_atom_site_fract_y
_atom_site_fract_z
Si Si1 0.203745 0.903974 0.545493
Si Si2 0.700230 0.796254 0.954506
Si Si3 0.194128 0.509229 0.249999
O O1 0.207413 0.860584 0.750000
O O2 0.308329 0.880749 0.428841
O O3 0.057508 0.816257 0.460103
O O4 0.816258 0.758749 0.960101
O O5 0.572421 0.691670 0.071159
O O6 0.350507 0.542767 0.249998
#
# Coordination Sequence:
#
# PCOD8321654 Si02
#       3
#     6   6   6
#     4  12  23  43  71 101 129 166 213 277 336 380
#     4  12  23  43  71 101 129 166 213 277 336 380
#     4  10  26  46  60 100 130 174 232 250 310 402
#
# _framework density 21.217856999999999
#
# number of rings (size 3 to 8) (size 9 to 14) (size 15 to 20)
#    0.667    0.000    6.667    0.667    0.000    5.333 
#    0.000    0.000    0.000    0.000    0.000    0.000 
#    0.000    0.000    0.000    0.000    0.000    0.000 
#
# Total GULP energy -223272.133196 kJ/mol
# GULP energy per Si atom -12404.007400 kJ/mol
# Density = 2.116956 g / cm^3
# Si number density = 21.217857 Si / 1000 Ang^3
#
#
#
# Elastic Constant Matrix: (Units=GPa)
#
#
# Indices 1 2 3 4 5 6 
#
# 1 47.5480 -31.5197 15.1907 0.0003 0.0002 0.0000
# 2 -31.5197 47.5480 15.1907 -0.0003 -0.0002 0.0000
# 3 15.1907 15.1907 168.4003 0.0000 0.0000 0.0000
# 4 0.0003 -0.0003 0.0000 16.7269 0.0000 -0.0002
# 5 0.0002 -0.0002 0.0000 0.0000 16.7269 0.0003
# 6 0.0000 0.0000 0.0000 -0.0002 0.0003 39.5339
#
#
#
# Elastic Compliance Matrix: (Units=1/GPa)
#
#
# Indices 1 2 3 4 5 6 
#
# 1 0.043953 0.031305 -0.006789 0.000000 0.000000 0.000000
# 2 0.031305 0.043953 -0.006789 0.000000 0.000000 0.000000
# 3 -0.006789 -0.006789 0.007163 0.000000 0.000000 0.000000
# 4 0.000000 0.000000 0.000000 0.059784 0.000000 0.000000
# 5 0.000000 0.000000 0.000000 0.000000 0.059784 0.000000
# 6 0.000000 0.000000 0.000000 0.000000 0.000000 0.025295
#
#
# Mechanical properties :
#
#
# Convention : Reuss Voigt Hill
#
# Bulk Modulus (GPa) = 7.66144 29.02440 18.34292
# Shear Modulus (GPa) = 20.16265 32.23983 26.20124
#
# Velocity S-wave (km/s) = 3.08599 3.90226 3.51788
# Velocity P-wave (km/s) = 4.03936 5.83202 5.01642
#
# Compressibility (1/GPa) = 0.13052369
#
# Stress axis : x y z
#
# Youngs Moduli (GPa) = 22.75180 22.75180 139.60647
#
# Poissons Ratio (x) = -0.71225 0.94775
# Poissons Ratio (y) = -0.71225 0.94775
# Poissons Ratio (z) = 0.15445 0.15445
#
# Static dielectric constant tensor:
#      x y z
#    x 3.664720 0.000000 0.000000 
#    y 0.000000 3.664720 0.000000 
#    z 0.000000 0.000000 4.009140 
# 
# 
# High freq. dielectric constant tensor:
#      x y z
#    x 1.824740 0.000000 0.000000 
#    y 0.000000 1.824740 0.000000 
#    z 0.000000 0.000000 1.848560 
# 
# From -- ./inp_files/335.got.cif
#   From: 2010.03.12/outbox.cif.g09.slc.cpg/sg147_cif.got.tgz:335.got - 2010.04.03 13:37:56.
