data_PCOD8321727
_publ_section_title
;
Structure prediction by ZEFSAII (Michael W. Deem and Ramdas Pophale) SiO2 
 PCOD8321727
Probable space group: R -3
;
_chemical_formula_sum "Si O2"
_cell_formula_units_Z 72
_cell_length_a 23.576272
_cell_length_b 23.576272
_cell_length_c 9.091607
_cell_angle_alpha 90.000000
_cell_angle_beta 90.000000
_cell_angle_gamma 120.000000
_cell_volume 4376.445784
_symmetry_space_group_name_H-M "R -3"
_symmetry_group_IT_number 148
_symmetry_cell_setting 'hexagonal'
loop_
_space_group_symop_operation_xyz
x,y,z
-y,x-y,z
-x+y,-x,z
-x,-y,-z
y,-x+y,-z
x-y,x,-z
2/3+x,1/3+y,1/3+z
2/3-y,1/3+x-y,1/3+z
2/3-x+y,1/3-x,1/3+z
2/3-x,1/3-y,1/3-z
2/3+y,1/3-x+y,1/3-z
2/3+x-y,1/3+x,1/3-z
1/3+x,2/3+y,2/3+z
1/3-y,2/3+x-y,2/3+z
1/3-x+y,2/3-x,2/3+z
1/3-x,2/3-y,2/3-z
1/3+y,2/3-x+y,2/3-z
1/3+x-y,2/3+x,2/3-z
loop_
_atom_site_type_symbol
_atom_site_label
_atom_site_fract_x
_atom_site_fract_y
_atom_site_fract_z
Si Si1 0.987658 0.546725 0.896858
Si Si2 0.207676 0.397807 0.929847
Si Si3 0.413084 0.092456 0.230843
Si Si4 0.755240 0.741207 0.225771
O O1 0.947435 0.505060 0.758817
O O2 0.056164 0.607079 0.839495
O O3 0.944728 0.571216 0.982862
O O4 0.000000 0.500000 0.000000
O O5 0.166667 0.333334 0.833334
O O6 0.277553 0.440836 0.847965
O O7 0.163331 0.432057 0.942201
O O8 0.336108 0.047951 0.199081
O O9 0.425808 0.108123 0.403217
#
# Coordination Sequence:
#
# PCOD8321727 Si02
#       4
#    18  18  18  18
#     4  12  22  32  55  77 108 148 185 217 274 325
#     4  10  21  34  49  76 105 145 181 218 263 322
#     4  11  20  34  51  73 111 147 177 219 262 318
#     4  11  21  35  51  74 111 146 178 218 268 321
#
# _framework density 16.451706000000001
#
# number of rings (size 3 to 8) (size 9 to 14) (size 15 to 20)
#    0.000    1.000    7.500    3.000    3.500    0.000 
#    0.000    0.000    0.000    0.000    0.000    0.000 
#    2.500    4.000    0.000    0.000    0.000    0.000 
#
# Total GULP energy -297508.033584 kJ/mol
# GULP energy per Si atom -12396.168066 kJ/mol
# Density = 1.641426 g / cm^3
# Si number density = 16.451706 Si / 1000 Ang^3
#
#
#
# Elastic Constant Matrix: (Units=GPa)
#
#
# Indices 1 2 3 4 5 6 
#
# 1 49.5653 11.1090 19.8865 2.6412 -0.3182 -0.0001
# 2 11.1090 49.5627 19.8899 -2.6371 0.3216 0.0002
# 3 19.8865 19.8899 109.3163 0.0001 0.0010 0.0009
# 4 2.6412 -2.6371 0.0001 28.9151 -0.0007 0.3185
# 5 -0.3182 0.3216 0.0010 -0.0007 28.9150 2.6407
# 6 -0.0001 0.0002 0.0009 0.3185 2.6407 19.2269
#
#
#
# Elastic Compliance Matrix: (Units=1/GPa)
#
#
# Indices 1 2 3 4 5 6 
#
# 1 0.022526 -0.003813 -0.003404 -0.002405 0.000290 0.000000
# 2 -0.003813 0.022527 -0.003405 0.002403 -0.000292 0.000000
# 3 -0.003404 -0.003405 0.010387 0.000000 0.000000 0.000000
# 4 -0.002405 0.002403 0.000000 0.035029 0.000001 -0.000580
# 5 0.000290 -0.000292 0.000000 0.000001 0.035030 -0.004811
# 6 0.000000 0.000000 0.000000 -0.000580 -0.004811 0.052681
#
#
# Mechanical properties :
#
#
# Convention : Reuss Voigt Hill
#
# Bulk Modulus (GPa) = 29.24348 34.46835 31.85592
# Shear Modulus (GPa) = 23.71667 25.91534 24.81600
#
# Velocity S-wave (km/s) = 3.80095 3.97323 3.88805
# Velocity P-wave (km/s) = 6.08908 6.48425 6.28977
#
# Compressibility (1/GPa) = 0.03419566
#
# Stress axis : x y z
#
# Youngs Moduli (GPa) = 44.39366 44.39051 96.27781
#
# Poissons Ratio (x) = 0.16925 0.32774
# Poissons Ratio (y) = 0.16926 0.32785
# Poissons Ratio (z) = 0.15112 0.15116
#
# Static dielectric constant tensor:
#      x y z
#    x 4.562480 0.001740 0.000380 
#    y 0.001740 4.564860 0.000220 
#    z 0.000380 0.000220 3.470890 
# 
# 
# High freq. dielectric constant tensor:
#      x y z
#    x 1.605530 0.000000 0.000000 
#    y 0.000000 1.605530 0.000000 
#    z 0.000000 0.000000 1.663540 
# 
# From -- ./inp_files/798.got.cif
#   From: 2010.03.12/outbox.cif.g09.slc.cpg/sg148_1_cif.got.tgz:798.got - 2010.04.03 13:38:46.
