data_PCOD8321080
_publ_section_title
;
Structure prediction by ZEFSAII (Michael W. Deem and Ramdas Pophale) SiO2 
 PCOD8321080
Probable space group: I 41/A C D
;
_chemical_formula_sum "Si O2"
_cell_formula_units_Z 136
_cell_length_a 20.775975
_cell_length_b 20.775975
_cell_length_c 14.429020
_cell_angle_alpha 90.000000
_cell_angle_beta 90.000000
_cell_angle_gamma 90.000000
_cell_volume 6228.158601
_symmetry_space_group_name_H-M "I 41/A C D"
_symmetry_group_IT_number 142
_space_group.IT_coordinate_system_code '2'
_symmetry_cell_setting 'tetragonal'
loop_
_space_group_symop_operation_xyz
x,y,z
1/4-y,3/4+x,1/4+z
-x,1/2-y,z
1/4+y,1/4-x,3/4+z
x,-y,1/2-z
1/2-x,y,-z
3/4+y,1/4+x,1/4-z
1/4-y,1/4-x,1/4-z
-x,-y,-z
3/4+y,1/4-x,3/4-z
x,1/2+y,-z
3/4-y,3/4+x,1/4-z
-x,y,1/2+z
1/2+x,-y,z
1/4-y,3/4-x,3/4+z
3/4+y,3/4+x,3/4+z
1/2+x,1/2+y,1/2+z
3/4-y,1/4+x,3/4+z
1/2-x,-y,1/2+z
3/4+y,3/4-x,1/4+z
1/2+x,1/2-y,-z
-x,1/2+y,1/2-z
1/4+y,3/4+x,3/4-z
3/4-y,3/4-x,3/4-z
1/2-x,1/2-y,1/2-z
1/4+y,3/4-x,1/4-z
1/2+x,y,1/2-z
1/4-y,1/4+x,3/4-z
1/2-x,1/2+y,z
x,1/2-y,1/2+z
3/4-y,1/4-x,1/4+z
1/4+y,1/4+x,1/4+z
loop_
_atom_site_type_symbol
_atom_site_label
_atom_site_fract_x
_atom_site_fract_y
_atom_site_fract_z
Si Si1 0.972799 0.431136 0.325184
Si Si2 0.685847 0.833447 0.112570
Si Si3 0.854723 0.895278 0.375000
Si Si4 0.500000 0.250000 0.375000
Si Si5 0.593053 0.000000 0.750000
Si Si6 0.873300 0.767226 0.266702
O O1 0.950151 0.400502 0.226981
O O2 0.919615 0.487105 0.348063
O O3 0.974395 0.377722 0.405297
O O4 0.045616 0.457452 0.314413
O O5 0.655416 0.905416 0.125000
O O6 0.674508 0.789985 0.203315
O O7 0.791616 0.892321 0.438656
O O8 0.851105 0.833744 0.309890
O O9 0.497969 0.307708 0.446670
#
# Coordination Sequence:
#
# PCOD8321080 Si02
#       6
#    32  32  16   8  16  32
#     4  10  22  41  67  94 126 189 214 248 360 404
#     4  10  20  40  63  98 130 161 228 271 307 410
#     4  11  22  41  64  91 130 170 224 275 328 405
#     4  10  24  40  62 106 138 152 216 284 328 392
#     4  10  22  42  68  92 124 170 230 264 326 416
#     4  11  21  41  65  94 134 172 207 274 336 400
#
# _framework density 21.836310000000001
#
# number of rings (size 3 to 8) (size 9 to 14) (size 15 to 20)
#    0.000    1.882    5.882    0.706    0.000    1.882 
#    0.000    1.176    2.588    1.412    3.059    0.000 
#    0.000    0.000    0.000    0.000    0.000    0.000 
#
# Total GULP energy -842714.533019 kJ/mol
# GULP energy per Si atom -12392.860780 kJ/mol
# Density = 2.178661 g / cm^3
# Si number density = 21.836310 Si / 1000 Ang^3
#
#
#
# Elastic Constant Matrix: (Units=GPa)
#
#
# Indices 1 2 3 4 5 6 
#
# 1 68.5690 51.1157 32.4231 0.0000 0.0000 0.0000
# 2 51.1157 68.5682 32.4231 0.0000 0.0000 0.0000
# 3 32.4231 32.4231 127.3451 0.0000 0.0000 0.0000
# 4 0.0000 0.0000 0.0000 33.4898 0.0000 0.0000
# 5 0.0000 0.0000 0.0000 0.0000 33.4905 0.0000
# 6 0.0000 0.0000 0.0000 0.0000 0.0000 31.0769
#
#
#
# Elastic Compliance Matrix: (Units=1/GPa)
#
#
# Indices 1 2 3 4 5 6 
#
# 1 0.033494 -0.023802 -0.002468 0.000000 0.000000 0.000000
# 2 -0.023802 0.033495 -0.002468 0.000000 0.000000 0.000000
# 3 -0.002468 -0.002468 0.009109 0.000000 0.000000 0.000000
# 4 0.000000 0.000000 0.000000 0.029860 0.000000 0.000000
# 5 0.000000 0.000000 0.000000 0.000000 0.029859 0.000000
# 6 0.000000 0.000000 0.000000 0.000000 0.000000 0.032178
#
#
# Mechanical properties :
#
#
# Convention : Reuss Voigt Hill
#
# Bulk Modulus (GPa) = 53.69701 55.15625 54.42663
# Shear Modulus (GPa) = 21.58158 29.51280 25.54719
#
# Velocity S-wave (km/s) = 3.14719 3.68033 3.42415
# Velocity P-wave (km/s) = 6.15227 6.58586 6.37276
#
# Compressibility (1/GPa) = 0.01862301
#
# Stress axis : x y z
#
# Youngs Moduli (GPa) = 29.85574 29.85535 109.77791
#
# Poissons Ratio (x) = 0.71062 0.27090
# Poissons Ratio (y) = 0.71063 0.27091
# Poissons Ratio (z) = 0.07368 0.07368
#
# Static dielectric constant tensor:
#      x y z
#    x 3.799620 0.000000 0.000000 
#    y 0.000000 3.799590 0.000000 
#    z 0.000000 0.000000 4.121360 
# 
# 
# High freq. dielectric constant tensor:
#      x y z
#    x 1.835610 0.000000 0.000000 
#    y 0.000000 1.835610 0.000000 
#    z 0.000000 0.000000 1.869680 
# 
# From -- ./inp_files/5341.got.cif
#   From: 2010.03.12/outbox.cif.g09.slc.cpg/sg142_3_cif.got.tgz:5341.got - 2010.04.03 13:27:16.
