data_PCOD8321790
_publ_section_title
;
Structure prediction by ZEFSAII (Michael W. Deem and Ramdas Pophale) SiO2 
 PCOD8321790
Probable space group: R -3
;
_chemical_formula_sum "Si O2"
_cell_formula_units_Z 84
_cell_length_a 13.557486
_cell_length_b 13.557486
_cell_length_c 25.054656
_cell_angle_alpha 90.000000
_cell_angle_beta 90.000000
_cell_angle_gamma 120.000000
_cell_volume 3988.204372
_symmetry_space_group_name_H-M "R -3"
_symmetry_group_IT_number 148
_symmetry_cell_setting 'hexagonal'
loop_
_space_group_symop_operation_xyz
x,y,z
-y,x-y,z
-x+y,-x,z
-x,-y,-z
y,-x+y,-z
x-y,x,-z
2/3+x,1/3+y,1/3+z
2/3-y,1/3+x-y,1/3+z
2/3-x+y,1/3-x,1/3+z
2/3-x,1/3-y,1/3-z
2/3+y,1/3-x+y,1/3-z
2/3+x-y,1/3+x,1/3-z
1/3+x,2/3+y,2/3+z
1/3-y,2/3+x-y,2/3+z
1/3-x+y,2/3-x,2/3+z
1/3-x,2/3-y,2/3-z
1/3+y,2/3-x+y,2/3-z
1/3+x-y,2/3+x,2/3-z
loop_
_atom_site_type_symbol
_atom_site_label
_atom_site_fract_x
_atom_site_fract_y
_atom_site_fract_z
Si Si1 0.461642 0.345628 0.314041
Si Si2 0.000000 0.000000 0.327150
Si Si3 0.025751 0.614394 0.533786
Si Si4 0.861773 0.290634 0.651211
Si Si5 0.785029 0.575940 0.535685
Si Si6 0.000000 0.000000 0.799719
O O1 0.587581 0.456550 0.311871
O O2 0.417477 0.282790 0.256818
O O3 0.379020 0.388526 0.335571
O O4 0.881603 0.891583 0.347646
O O5 0.000000 0.000000 0.263934
O O6 0.919267 0.634562 0.545193
O O7 0.000000 0.500000 0.500000
O O8 0.104506 0.735826 0.505000
O O9 0.833334 0.166667 0.666667
O O10 0.844324 0.290482 0.588250
O O11 0.755335 0.455220 0.510181
#
# Coordination Sequence:
#
# PCOD8321790 Si02
#       6
#    18   6  18  18  18   6
#     4  12  28  46  70 103 140 179 228 293 360 411
#     4   9  21  36  66  99 130 179 229 288 339 405
#     4  12  26  44  70 101 139 186 227 281 347 423
#     4  11  21  43  69  99 136 178 240 286 340 413
#     4  11  23  41  66 101 136 180 231 279 346 413
#     4   9  18  36  66  93 124 164 232 276 315 405
#
# _framework density 21.062109
#
# number of rings (size 3 to 8) (size 9 to 14) (size 15 to 20)
#    0.000    0.857    4.286    2.786    9.000    0.000 
#    0.000    0.000    0.000    0.429    0.000    0.000 
#    0.000    0.000    0.000    0.000    0.000    0.000 
#
# Total GULP energy -346878.157379 kJ/mol
# GULP energy per Si atom -12388.505621 kJ/mol
# Density = 2.101417 g / cm^3
# Si number density = 21.062109 Si / 1000 Ang^3
#
#
#
# Elastic Constant Matrix: (Units=GPa)
#
#
# Indices 1 2 3 4 5 6 
#
# 1 151.6914 65.9065 32.3810 1.9273 -0.9711 0.0000
# 2 65.9065 151.6914 32.3810 -1.9273 0.9711 0.0000
# 3 32.3810 32.3810 76.8760 0.0000 0.0000 0.0000
# 4 1.9273 -1.9273 0.0000 34.5159 0.0000 0.9711
# 5 -0.9711 0.9711 0.0000 0.0000 34.5159 1.9273
# 6 0.0000 0.0000 0.0000 0.9711 1.9273 42.8924
#
#
#
# Elastic Compliance Matrix: (Units=1/GPa)
#
#
# Indices 1 2 3 4 5 6 
#
# 1 0.008474 -0.003220 -0.002213 -0.000653 0.000329 0.000000
# 2 -0.003220 0.008474 -0.002213 0.000653 -0.000329 0.000000
# 3 -0.002213 -0.002213 0.014872 0.000000 0.000000 0.000000
# 4 -0.000653 0.000653 0.000000 0.029064 0.000000 -0.000658
# 5 0.000329 -0.000329 0.000000 0.000000 0.029064 -0.001306
# 6 0.000000 0.000000 0.000000 -0.000658 -0.001306 0.023388
#
#
# Mechanical properties :
#
#
# Convention : Reuss Voigt Hill
#
# Bulk Modulus (GPa) = 60.50217 71.28840 65.89528
# Shear Modulus (GPa) = 37.27527 39.02419 38.14973
#
# Velocity S-wave (km/s) = 4.21144 4.30910 4.26055
# Velocity P-wave (km/s) = 7.24129 7.66016 7.45367
#
# Compressibility (1/GPa) = 0.01652833
#
# Stress axis : x y z
#
# Youngs Moduli (GPa) = 118.00677 118.00677 67.23867
#
# Poissons Ratio (x) = 0.37995 0.14881
# Poissons Ratio (y) = 0.37995 0.14881
# Poissons Ratio (z) = 0.26117 0.26117
#
# Static dielectric constant tensor:
#      x y z
#    x 2.848440 0.000000 0.000000 
#    y 0.000000 2.848440 0.000000 
#    z 0.000000 0.000000 3.823510 
# 
# 
# High freq. dielectric constant tensor:
#      x y z
#    x 1.836840 0.000000 0.000000 
#    y 0.000000 1.836840 0.000000 
#    z 0.000000 0.000000 1.802720 
# 
# From -- ./inp_files/3354.got.cif
#   From: 2010.03.12/outbox.cif.g09.slc.cpg/sg148_2_cif.got.tgz:3354.got - 2010.04.03 13:38:46.
