data_PCOD8321460
_publ_section_title
;
Structure prediction by ZEFSAII (Michael W. Deem and Ramdas Pophale) SiO2 
 PCOD8321460
Probable space group: P 32
;
_chemical_formula_sum "Si O2"
_cell_formula_units_Z 18
_cell_length_a 7.730311
_cell_length_b 7.730311
_cell_length_c 13.450620
_cell_angle_alpha 90.000000
_cell_angle_beta 90.000000
_cell_angle_gamma 120.000000
_cell_volume 696.092361
_symmetry_space_group_name_H-M "P 32"
_symmetry_group_IT_number 145
_symmetry_cell_setting 'hexagonal'
loop_
_space_group_symop_operation_xyz
x,y,z
-y,x-y,2/3+z
-x+y,-x,1/3+z
loop_
_atom_site_type_symbol
_atom_site_label
_atom_site_fract_x
_atom_site_fract_y
_atom_site_fract_z
Si Si1 0.017381 0.821127 0.493980
Si Si2 0.797266 0.359536 0.213632
Si Si3 0.509516 0.879315 0.401016
Si Si4 0.979862 0.106559 0.363283
Si Si5 0.475108 0.047101 0.769503
Si Si6 0.418502 0.964726 0.195905
O O1 0.088956 0.663614 0.461947
O O2 0.786652 0.707679 0.525826
O O3 0.145290 0.964035 0.583661
O O4 0.057276 0.959803 0.397587
O O5 0.838669 0.392366 0.330884
O O6 0.674209 0.472017 0.192144
O O7 0.000031 0.452883 0.148269
O O8 0.653193 0.126471 0.183053
O O9 0.382264 0.851006 0.301626
O O10 0.457800 0.662887 0.443826
O O11 0.743244 0.006101 0.375455
O O12 0.078775 0.311637 0.430118
#
# Coordination Sequence:
#
# PCOD8321460 Si02
#       6
#     3   3   3   3   3   3
#     4  10  24  41  77 108 146 204 249 308 402 456
#     4  10  19  42  73 101 144 199 242 305 391 446
#     4  10  22  43  78 106 149 196 254 314 385 468
#     4  10  22  45  73 107 148 195 248 318 381 463
#     4  10  22  41  74 107 138 202 252 305 384 476
#     4  10  21  44  75 109 145 200 249 318 379 469
#
# _framework density 25.858640000000001
#
# number of rings (size 3 to 8) (size 9 to 14) (size 15 to 20)
#    0.000    2.000    3.333    0.000    7.000    1.333 
#    0.000    1.667    7.333    4.000    0.000    0.000 
#    0.000    0.000    0.000    0.000    0.000    0.000 
#
# Total GULP energy -223121.301403 kJ/mol
# GULP energy per Si atom -12395.627856 kJ/mol
# Density = 2.579978 g / cm^3
# Si number density = 25.858640 Si / 1000 Ang^3
#
#
#
# Elastic Constant Matrix: (Units=GPa)
#
#
# Indices 1 2 3 4 5 6 
#
# 1 90.5481 19.6144 26.7258 -1.7876 -5.1369 0.0000
# 2 19.6144 90.5481 26.7258 1.7876 5.1369 0.0000
# 3 26.7258 26.7258 75.8956 0.0000 0.0000 0.0000
# 4 -1.7876 1.7876 0.0000 44.1474 0.0000 5.1369
# 5 -5.1369 5.1369 0.0000 0.0000 44.1474 -1.7876
# 6 0.0000 0.0000 0.0000 5.1369 -1.7876 35.4669
#
#
#
# Elastic Compliance Matrix: (Units=1/GPa)
#
#
# Indices 1 2 3 4 5 6 
#
# 1 0.012659 -0.001711 -0.003855 0.000582 0.001672 0.000000
# 2 -0.001711 0.012659 -0.003855 -0.000582 -0.001672 0.000000
# 3 -0.003855 -0.003855 0.015891 0.000000 0.000000 0.000000
# 4 0.000582 -0.000582 0.000000 0.023088 0.000000 -0.003344
# 5 0.001672 -0.001672 0.000000 0.000000 0.023088 0.001164
# 6 0.000000 0.000000 0.000000 -0.003344 0.001164 0.028738
#
#
# Mechanical properties :
#
#
# Convention : Reuss Voigt Hill
#
# Bulk Modulus (GPa) = 44.71001 44.79151 44.75076
# Shear Modulus (GPa) = 35.10756 37.01404 36.06080
#
# Velocity S-wave (km/s) = 3.68866 3.78749 3.73840
# Velocity P-wave (km/s) = 5.95561 6.04037 5.99814
#
# Compressibility (1/GPa) = 0.02236636
#
# Stress axis : x y z
#
# Youngs Moduli (GPa) = 78.99753 78.99753 62.92810
#
# Poissons Ratio (x) = 0.13513 0.24260
# Poissons Ratio (y) = 0.13513 0.24260
# Poissons Ratio (z) = 0.30455 0.30455
#
# Static dielectric constant tensor:
#      x y z
#    x 4.888930 0.000000 0.000000 
#    y 0.000000 4.888930 0.000000 
#    z 0.000000 0.000000 4.549670 
# 
# 
# High freq. dielectric constant tensor:
#      x y z
#    x 2.041380 0.000000 0.000000 
#    y 0.000000 2.041380 0.000000 
#    z 0.000000 0.000000 2.028080 
# 
# From -- ./inp_files/577.got.cif
#   From: 2010.03.12/outbox.cif.g09.slc.cpg/sg145_cif.got.tgz:577.got - 2010.04.03 13:35:35.
