data_PCOD8321186
_publ_section_title
;
Structure prediction by ZEFSAII (Michael W. Deem and Ramdas Pophale) SiO2 
 PCOD8321186
Probable space group: I 41/A C D
;
_chemical_formula_sum "Si O2"
_cell_formula_units_Z 96
_cell_length_a 13.619215
_cell_length_b 13.619215
_cell_length_c 22.649199
_cell_angle_alpha 90.000000
_cell_angle_beta 90.000000
_cell_angle_gamma 90.000000
_cell_volume 4201.041768
_symmetry_space_group_name_H-M "I 41/A C D"
_symmetry_group_IT_number 142
_space_group.IT_coordinate_system_code '2'
_symmetry_cell_setting 'tetragonal'
loop_
_space_group_symop_operation_xyz
x,y,z
1/4-y,3/4+x,1/4+z
-x,1/2-y,z
1/4+y,1/4-x,3/4+z
x,-y,1/2-z
1/2-x,y,-z
3/4+y,1/4+x,1/4-z
1/4-y,1/4-x,1/4-z
-x,-y,-z
3/4+y,1/4-x,3/4-z
x,1/2+y,-z
3/4-y,3/4+x,1/4-z
-x,y,1/2+z
1/2+x,-y,z
1/4-y,3/4-x,3/4+z
3/4+y,3/4+x,3/4+z
1/2+x,1/2+y,1/2+z
3/4-y,1/4+x,3/4+z
1/2-x,-y,1/2+z
3/4+y,3/4-x,1/4+z
1/2+x,1/2-y,-z
-x,1/2+y,1/2-z
1/4+y,3/4+x,3/4-z
3/4-y,3/4-x,3/4-z
1/2-x,1/2-y,1/2-z
1/4+y,3/4-x,1/4-z
1/2+x,y,1/2-z
1/4-y,1/4+x,3/4-z
1/2-x,1/2+y,z
x,1/2-y,1/2+z
3/4-y,1/4-x,1/4+z
1/4+y,1/4+x,1/4+z
loop_
_atom_site_type_symbol
_atom_site_label
_atom_site_fract_x
_atom_site_fract_y
_atom_site_fract_z
Si Si1 0.452149 0.918361 0.792312
Si Si2 0.655214 0.114082 0.752245
Si Si3 0.283319 0.225949 0.666899
O O1 0.538915 0.868912 0.754215
O O2 0.379664 0.835800 0.815101
O O3 0.506226 0.971835 0.847273
O O4 0.400023 0.000000 0.750000
O O5 0.714461 0.169240 0.699845
O O6 0.688348 0.162889 0.814195
O O7 0.684241 0.000000 0.750000
#
# Coordination Sequence:
#
# PCOD8321186 Si02
#       3
#    32  32  32
#     4  11  23  41  70 102 131 186 227 277 353 413
#     4  10  23  40  66 102 133 177 225 279 343 405
#     4  11  22  44  68  99 138 176 229 284 338 420
#
# _framework density 22.851475000000001
#
# number of rings (size 3 to 8) (size 9 to 14) (size 15 to 20)
#    0.000    1.333    3.333    2.000    0.000    5.333 
#    6.000    5.000    0.000   16.000    0.000    0.000 
#    0.000    0.000    0.000    0.000    0.000    0.000 
#
# Total GULP energy -595164.070014 kJ/mol
# GULP energy per Si atom -12399.251459 kJ/mol
# Density = 2.279946 g / cm^3
# Si number density = 22.851475 Si / 1000 Ang^3
#
#
#
# Elastic Constant Matrix: (Units=GPa)
#
#
# Indices 1 2 3 4 5 6 
#
# 1 87.5147 -2.9538 51.4773 0.0000 0.0000 0.0000
# 2 -2.9538 87.5147 51.4773 0.0000 0.0000 0.0000
# 3 51.4773 51.4773 132.0179 0.0000 0.0000 0.0000
# 4 0.0000 0.0000 0.0000 27.4195 0.0000 0.0000
# 5 0.0000 0.0000 0.0000 0.0000 27.4195 0.0000
# 6 0.0000 0.0000 0.0000 0.0000 0.0000 14.2106
#
#
#
# Elastic Compliance Matrix: (Units=1/GPa)
#
#
# Indices 1 2 3 4 5 6 
#
# 1 0.016784 0.005730 -0.008779 0.000000 0.000000 0.000000
# 2 0.005730 0.016784 -0.008779 0.000000 0.000000 0.000000
# 3 -0.008779 -0.008779 0.014421 0.000000 0.000000 0.000000
# 4 0.000000 0.000000 0.000000 0.036470 0.000000 0.000000
# 5 0.000000 0.000000 0.000000 0.000000 0.036470 0.000000
# 6 0.000000 0.000000 0.000000 0.000000 0.000000 0.070370
#
#
# Mechanical properties :
#
#
# Convention : Reuss Voigt Hill
#
# Bulk Modulus (GPa) = 41.09488 56.33877 48.71682
# Shear Modulus (GPa) = 22.41491 27.61302 25.01396
#
# Velocity S-wave (km/s) = 3.13532 3.47993 3.31211
# Velocity P-wave (km/s) = 5.57938 6.39175 5.99933
#
# Compressibility (1/GPa) = 0.02433393
#
# Stress axis : x y z
#
# Youngs Moduli (GPa) = 59.58072 59.58072 69.34329
#
# Poissons Ratio (x) = -0.34142 0.60876
# Poissons Ratio (y) = -0.34142 0.60876
# Poissons Ratio (z) = 0.52306 0.52306
#
# Static dielectric constant tensor:
#      x y z
#    x 4.131830 0.000000 0.000000 
#    y 0.000000 4.131830 0.000000 
#    z 0.000000 0.000000 4.247420 
# 
# 
# High freq. dielectric constant tensor:
#      x y z
#    x 1.900390 0.000000 0.000000 
#    y 0.000000 1.900390 0.000000 
#    z 0.000000 0.000000 1.899860 
# 
# From -- ./inp_files/8353.got.cif
#   From: 2010.03.12/outbox.cif.g09.slc.cpg/sg142_5_cif.got.tgz:8353.got - 2010.04.03 13:27:16.
