data_PCOD8321050
_publ_section_title
;
Structure prediction by ZEFSAII (Michael W. Deem and Ramdas Pophale) SiO2 
 PCOD8321050
Probable space group: I 41/A C D
;
_chemical_formula_sum "Si O2"
_cell_formula_units_Z 184
_cell_length_a 23.997250
_cell_length_b 23.997250
_cell_length_c 17.725833
_cell_angle_alpha 90.000000
_cell_angle_beta 90.000000
_cell_angle_gamma 90.000000
_cell_volume 10207.740132
_symmetry_space_group_name_H-M "I 41/A C D"
_symmetry_group_IT_number 142
_space_group.IT_coordinate_system_code '2'
_symmetry_cell_setting 'tetragonal'
loop_
_space_group_symop_operation_xyz
x,y,z
1/4-y,3/4+x,1/4+z
-x,1/2-y,z
1/4+y,1/4-x,3/4+z
x,-y,1/2-z
1/2-x,y,-z
3/4+y,1/4+x,1/4-z
1/4-y,1/4-x,1/4-z
-x,-y,-z
3/4+y,1/4-x,3/4-z
x,1/2+y,-z
3/4-y,3/4+x,1/4-z
-x,y,1/2+z
1/2+x,-y,z
1/4-y,3/4-x,3/4+z
3/4+y,3/4+x,3/4+z
1/2+x,1/2+y,1/2+z
3/4-y,1/4+x,3/4+z
1/2-x,-y,1/2+z
3/4+y,3/4-x,1/4+z
1/2+x,1/2-y,-z
-x,1/2+y,1/2-z
1/4+y,3/4+x,3/4-z
3/4-y,3/4-x,3/4-z
1/2-x,1/2-y,1/2-z
1/4+y,3/4-x,1/4-z
1/2+x,y,1/2-z
1/4-y,1/4+x,3/4-z
1/2-x,1/2+y,z
x,1/2-y,1/2+z
3/4-y,1/4-x,1/4+z
1/4+y,1/4+x,1/4+z
loop_
_atom_site_type_symbol
_atom_site_label
_atom_site_fract_x
_atom_site_fract_y
_atom_site_fract_z
Si Si1 0.221390 0.167126 0.163506
Si Si2 0.000000 0.750000 0.625000
Si Si3 0.898545 0.432224 0.923824
Si Si4 0.689899 0.480038 0.664016
Si Si5 0.496706 0.038474 0.178694
Si Si6 0.945284 0.846071 0.715913
Si Si7 0.905420 0.344580 0.125000
O O1 0.216605 0.169503 0.253643
O O2 0.253484 0.112792 0.135716
O O3 0.256338 0.220193 0.136754
O O4 0.160148 0.166454 0.128840
O O5 0.014573 0.697218 0.675525
O O6 0.835437 0.449472 0.909116
O O7 0.903437 0.366296 0.932722
O O8 0.935614 0.448013 0.852232
O O9 0.680991 0.500000 0.750000
O O10 0.743828 0.506173 0.625000
O O11 0.529213 0.093024 0.205935
O O12 0.488345 0.000000 0.250000
O O13 0.940601 0.825334 0.802540
#
# Coordination Sequence:
#
# PCOD8321050 Si02
#       7
#    32   8  32  32  32  32  16
#     4  11  20  37  64  92 121 157 211 256 309 366
#     4  12  24  42  64  88 120 166 220 260 308 358
#     4  11  24  39  61  94 125 163 207 258 316 376
#     4  12  21  37  64  94 124 161 209 261 309 375
#     4  12  23  40  63  92 130 165 204 261 322 381
#     4  11  22  39  66  89 121 166 211 256 307 372
#     4  10  20  37  62  96 120 154 204 264 306 363
#
# _framework density 18.025537
#
# number of rings (size 3 to 8) (size 9 to 14) (size 15 to 20)
#    0.000    0.696    7.826    2.087    0.000    1.043 
#    0.000    0.000    0.000    0.000    0.000    0.000 
#    0.000    0.000    0.000    0.000    0.000    0.000 
#
# Total GULP energy -1140970.341589 kJ/mol
# GULP energy per Si atom -12401.851539 kJ/mol
# Density = 1.798451 g / cm^3
# Si number density = 18.025537 Si / 1000 Ang^3
#
#
#
# Elastic Constant Matrix: (Units=GPa)
#
#
# Indices 1 2 3 4 5 6 
#
# 1 100.2529 38.8988 58.4899 0.0000 0.0000 0.0000
# 2 38.8988 100.2520 58.4878 0.0000 0.0000 0.0000
# 3 58.4899 58.4878 104.7382 0.0000 0.0000 0.0000
# 4 0.0000 0.0000 0.0000 33.1363 0.0000 0.0000
# 5 0.0000 0.0000 0.0000 0.0000 33.1334 0.0000
# 6 0.0000 0.0000 0.0000 0.0000 0.0000 32.0912
#
#
#
# Elastic Compliance Matrix: (Units=1/GPa)
#
#
# Indices 1 2 3 4 5 6 
#
# 1 0.014922 -0.001377 -0.007564 0.000000 0.000000 0.000000
# 2 -0.001377 0.014922 -0.007564 0.000000 0.000000 0.000000
# 3 -0.007564 -0.007564 0.017995 0.000000 0.000000 0.000000
# 4 0.000000 0.000000 0.000000 0.030178 0.000000 0.000000
# 5 0.000000 0.000000 0.000000 0.000000 0.030181 0.000000
# 6 0.000000 0.000000 0.000000 0.000000 0.000000 0.031161
#
#
# Mechanical properties :
#
#
# Convention : Reuss Voigt Hill
#
# Bulk Modulus (GPa) = 67.43185 68.55514 67.99349
# Shear Modulus (GPa) = 28.19870 29.62994 28.91432
#
# Velocity S-wave (km/s) = 3.95951 4.05875 4.00944
# Velocity P-wave (km/s) = 7.64159 7.75109 7.69653
#
# Compressibility (1/GPa) = 0.01482979
#
# Stress axis : x y z
#
# Youngs Moduli (GPa) = 67.01442 67.01581 55.56952
#
# Poissons Ratio (x) = 0.09228 0.42034
# Poissons Ratio (y) = 0.09227 0.42031
# Poissons Ratio (z) = 0.50691 0.50689
#
# Static dielectric constant tensor:
#      x y z
#    x 3.425190 0.000000 0.000000 
#    y 0.000000 3.425130 0.000000 
#    z 0.000000 0.000000 3.441380 
# 
# 
# High freq. dielectric constant tensor:
#      x y z
#    x 1.700240 0.000000 0.000000 
#    y 0.000000 1.700240 0.000000 
#    z 0.000000 0.000000 1.706200 
# 
# From -- ./inp_files/7630.got.cif
#   From: 2010.03.12/outbox.cif.g09.slc.cpg/sg142_4_cif.got.tgz:7630.got - 2010.04.03 13:27:16.
