data_PCOD8321712
_publ_section_title
;
Structure prediction by ZEFSAII (Michael W. Deem and Ramdas Pophale) SiO2 
 PCOD8321712
Probable space group: R -3
;
_chemical_formula_sum "Si O2"
_cell_formula_units_Z 108
_cell_length_a 21.691039
_cell_length_b 21.691039
_cell_length_c 12.910466
_cell_angle_alpha 90.000000
_cell_angle_beta 90.000000
_cell_angle_gamma 120.000000
_cell_volume 5260.575529
_symmetry_space_group_name_H-M "R -3"
_symmetry_group_IT_number 148
_symmetry_cell_setting 'hexagonal'
loop_
_space_group_symop_operation_xyz
x,y,z
-y,x-y,z
-x+y,-x,z
-x,-y,-z
y,-x+y,-z
x-y,x,-z
2/3+x,1/3+y,1/3+z
2/3-y,1/3+x-y,1/3+z
2/3-x+y,1/3-x,1/3+z
2/3-x,1/3-y,1/3-z
2/3+y,1/3-x+y,1/3-z
2/3+x-y,1/3+x,1/3-z
1/3+x,2/3+y,2/3+z
1/3-y,2/3+x-y,2/3+z
1/3-x+y,2/3-x,2/3+z
1/3-x,2/3-y,2/3-z
1/3+y,2/3-x+y,2/3-z
1/3+x-y,2/3+x,2/3-z
loop_
_atom_site_type_symbol
_atom_site_label
_atom_site_fract_x
_atom_site_fract_y
_atom_site_fract_z
Si Si1 0.009884 0.742504 0.771012
Si Si2 0.526251 0.333525 0.449486
Si Si3 0.140416 0.140608 0.883847
Si Si4 0.452831 0.400536 0.785782
Si Si5 0.452831 0.052295 0.785783
Si Si6 0.009884 0.267381 0.771013
O O1 0.018509 0.818262 0.798222
O O2 0.033890 0.742978 0.653258
O O3 0.069476 0.736143 0.833333
O O4 0.930038 0.680183 0.803684
O O5 0.497253 0.333334 0.333333
O O6 0.515092 0.257546 0.479053
O O7 0.609477 0.390523 0.454606
O O8 0.484929 0.351843 0.535111
O O9 0.529924 0.470076 0.771876
O O10 0.457843 0.333333 0.833333
O O11 0.409645 0.367224 0.680075
O O12 0.403295 0.416811 0.862982
#
# Coordination Sequence:
#
# PCOD8321712 Si02
#       6
#    18  18  18  18  18  18
#     4  11  22  38  61  89 121 157 203 258 314 368
#     4  10  20  34  54  82 118 160 205 254 308 367
#     4  10  20  34  54  82 118 160 205 254 308 367
#     4  11  24  41  63  91 123 162 206 253 309 370
#     4  11  24  41  63  91 123 162 206 253 309 370
#     4  11  22  38  61  89 121 157 203 258 314 368
#
# _framework density 20.530073000000002
#
# number of rings (size 3 to 8) (size 9 to 14) (size 15 to 20)
#    0.000    1.333    0.000    8.333    0.000   10.667 
#    0.000    0.000    0.000    0.333    0.000    0.000 
#    0.000    0.000    0.000    0.000    0.000    0.000 
#
# Total GULP energy -446043.945208 kJ/mol
# GULP energy per Si atom -12390.109589 kJ/mol
# Density = 2.048335 g / cm^3
# Si number density = 20.530073 Si / 1000 Ang^3
#
#
#
# Elastic Constant Matrix: (Units=GPa)
#
#
# Indices 1 2 3 4 5 6 
#
# 1 109.4831 47.9928 42.8292 2.6037 0.0000 0.0000
# 2 47.9928 109.4831 42.8292 -2.6037 0.0000 0.0000
# 3 42.8292 42.8292 93.8674 0.0000 0.0000 0.0000
# 4 2.6037 -2.6037 0.0000 29.1652 0.0000 0.0000
# 5 0.0000 0.0000 0.0000 0.0000 29.1652 2.6037
# 6 0.0000 0.0000 0.0000 0.0000 2.6037 30.7451
#
#
#
# Elastic Compliance Matrix: (Units=1/GPa)
#
#
# Indices 1 2 3 4 5 6 
#
# 1 0.012417 -0.003970 -0.003854 -0.001463 0.000000 0.000000
# 2 -0.003970 0.012417 -0.003854 0.001463 0.000000 0.000000
# 3 -0.003854 -0.003854 0.014170 0.000000 0.000000 0.000000
# 4 -0.001463 0.001463 0.000000 0.034549 0.000000 0.000000
# 5 0.000000 0.000000 0.000000 0.000000 0.034549 -0.002926
# 6 0.000000 0.000000 0.000000 0.000000 -0.002926 0.032773
#
#
# Mechanical properties :
#
#
# Convention : Reuss Voigt Hill
#
# Bulk Modulus (GPa) = 63.90776 64.45953 64.18365
# Shear Modulus (GPa) = 29.50802 29.76060 29.63431
#
# Velocity S-wave (km/s) = 3.79530 3.81150 3.80341
# Velocity P-wave (km/s) = 7.09945 7.12993 7.11470
#
# Compressibility (1/GPa) = 0.01564755
#
# Stress axis : x y z
#
# Youngs Moduli (GPa) = 80.53762 80.53763 70.57072
#
# Poissons Ratio (x) = 0.31974 0.27197
# Poissons Ratio (y) = 0.31974 0.27197
# Poissons Ratio (z) = 0.31038 0.31038
#
# Static dielectric constant tensor:
#      x y z
#    x 3.640010 0.000000 0.000000 
#    y 0.000000 3.640010 0.000000 
#    z 0.000000 0.000000 3.867380 
# 
# 
# High freq. dielectric constant tensor:
#      x y z
#    x 1.797760 0.000000 0.000000 
#    y 0.000000 1.797760 0.000000 
#    z 0.000000 0.000000 1.805950 
# 
# From -- ./inp_files/1514.got.cif
#   From: 2010.03.12/outbox.cif.g09.slc.cpg/sg148_1_cif.got.tgz:1514.got - 2010.04.03 13:38:46.
