data_PCOD8321581
_publ_section_title
;
Structure prediction by ZEFSAII (Michael W. Deem and Ramdas Pophale) SiO2 
 PCOD8321581
Probable space group: R 3
;
_chemical_formula_sum "Si O2"
_cell_formula_units_Z 15
_cell_length_a 9.594934
_cell_length_b 9.594934
_cell_length_c 7.534843
_cell_angle_alpha 90.000000
_cell_angle_beta 90.000000
_cell_angle_gamma 120.000000
_cell_volume 600.743143
_symmetry_space_group_name_H-M "R 3"
_symmetry_group_IT_number 146
_symmetry_cell_setting 'hexagonal'
loop_
_space_group_symop_operation_xyz
x,y,z
-y,x-y,z
-x+y,-x,z
2/3+x,1/3+y,1/3+z
2/3-y,1/3+x-y,1/3+z
2/3-x+y,1/3-x,1/3+z
1/3+x,2/3+y,2/3+z
1/3-y,2/3+x-y,2/3+z
1/3-x+y,2/3-x,2/3+z
loop_
_atom_site_type_symbol
_atom_site_label
_atom_site_fract_x
_atom_site_fract_y
_atom_site_fract_z
Si Si1 0.890209 0.223544 0.723740
Si Si2 0.666667 0.333334 0.601572
Si Si3 0.000000 0.000000 0.845935
O O1 0.126132 0.176494 0.348206
O O2 0.999976 0.311876 0.557055
O O3 0.873884 0.050380 0.765968
O O4 0.666668 0.333334 0.390420
#
# Coordination Sequence:
#
# PCOD8321581 Si02
#       3
#     9   3   3
#     4  12  26  50  82 112 154 206 254 316 386 454
#     4  12  28  53  79 115 155 205 256 317 385 457
#     4  12  28  53  79 115 155 205 256 317 385 457
#
# _framework density 24.969076999999999
#
# number of rings (size 3 to 8) (size 9 to 14) (size 15 to 20)
#    0.000    0.000    6.000    3.600    0.000    9.600 
#   10.800    0.000    0.000    2.400    0.000    0.000 
#    0.000    0.000    0.000    0.000    0.000    0.000 
#
# Total GULP energy -62014.099301 kJ/mol
# GULP energy per Si atom -12402.819860 kJ/mol
# Density = 2.491225 g / cm^3
# Si number density = 24.969077 Si / 1000 Ang^3
#
#
#
# Elastic Constant Matrix: (Units=GPa)
#
#
# Indices 1 2 3 4 5 6 
#
# 1 137.0037 66.3622 48.4223 -4.8129 -0.0019 0.0003
# 2 66.3622 137.0052 48.4230 4.8138 0.0012 0.0005
# 3 48.4223 48.4230 199.6912 0.0002 0.0004 0.0001
# 4 -4.8129 4.8138 0.0002 28.0857 0.0005 0.0020
# 5 -0.0019 0.0012 0.0004 0.0005 28.0850 -4.8129
# 6 0.0003 0.0005 0.0001 0.0020 -4.8129 35.3206
#
#
#
# Elastic Compliance Matrix: (Units=1/GPa)
#
#
# Indices 1 2 3 4 5 6 
#
# 1 0.010027 -0.004468 -0.001348 0.002484 0.000001 0.000000
# 2 -0.004468 0.010027 -0.001348 -0.002484 -0.000001 0.000000
# 3 -0.001348 -0.001348 0.005661 0.000000 0.000000 0.000000
# 4 0.002484 -0.002484 0.000000 0.036457 -0.000001 -0.000002
# 5 0.000001 -0.000001 0.000000 -0.000001 0.036458 0.004968
# 6 0.000000 0.000000 0.000000 -0.000002 0.004968 0.028989
#
#
# Mechanical properties :
#
#
# Convention : Reuss Voigt Hill
#
# Bulk Modulus (GPa) = 87.81393 88.90169 88.35781
# Shear Modulus (GPa) = 34.30732 38.99777 36.65255
#
# Velocity S-wave (km/s) = 3.71076 3.95630 3.83550
# Velocity P-wave (km/s) = 7.32155 7.52009 7.42149
#
# Compressibility (1/GPa) = 0.01138771
#
# Stress axis : x y z
#
# Youngs Moduli (GPa) = 99.73280 99.73350 176.63187
#
# Poissons Ratio (x) = 0.44557 0.23810
# Poissons Ratio (y) = 0.44556 0.23811
# Poissons Ratio (z) = 0.13444 0.13445
#
# Static dielectric constant tensor:
#      x y z
#    x 4.415960 -0.000010 0.000000 
#    y -0.000010 4.415930 -0.000010 
#    z 0.000000 -0.000010 4.887140 
# 
# 
# High freq. dielectric constant tensor:
#      x y z
#    x 1.980950 0.000000 0.000000 
#    y 0.000000 1.980950 0.000000 
#    z 0.000000 0.000000 2.038120 
# 
# From -- ./inp_files/35.got.cif
#   From: 2010.06.25/outbox.cif.g09.slc.cpg/sg146_cif.got.tgz:35.got - 2010.06.28 11:17:22.
