data_PCOD8321948
_publ_section_title
;
Structure prediction by ZEFSAII (Michael W. Deem and Ramdas Pophale) SiO2 
 PCOD8321948
Probable space group: P 31 1 2
;
_chemical_formula_sum "Si O2"
_cell_formula_units_Z 24
_cell_length_a 16.315016
_cell_length_b 16.315016
_cell_length_c 4.955872
_cell_angle_alpha 90.000000
_cell_angle_beta 90.000000
_cell_angle_gamma 120.000000
_cell_volume 1142.419798
_symmetry_space_group_name_H-M "P 31 1 2"
_symmetry_group_IT_number 151
_symmetry_cell_setting 'hexagonal'
loop_
_space_group_symop_operation_xyz
x,y,z
-y,x-y,1/3+z
-x+y,-x,2/3+z
-y,-x,2/3-z
-x+y,y,1/3-z
x,x-y,-z
loop_
_atom_site_type_symbol
_atom_site_label
_atom_site_fract_x
_atom_site_fract_y
_atom_site_fract_z
Si Si1 0.459868 0.429221 0.574568
Si Si2 0.778339 0.665815 0.916308
Si Si3 0.025922 0.863833 0.590662
Si Si4 0.465588 0.821210 0.910141
O O1 0.536581 0.463420 0.333334
O O2 0.418198 0.319230 0.634725
O O3 0.374426 0.449195 0.490745
O O4 0.512404 0.487597 0.833334
O O5 0.813530 0.627059 0.666667
O O6 0.766679 0.753043 0.806956
O O7 0.851555 0.703110 0.166667
O O8 0.073899 0.926102 0.333334
O O9 0.939127 0.878254 0.666667
O O10 0.102116 0.897885 0.833334
O O11 0.388539 0.777078 0.666667
O O12 0.418125 0.836250 0.166667
O O13 0.505918 0.752959 0.000000
#
# Coordination Sequence:
#
# PCOD8321948 Si02
#       4
#     6   6   6   6
#     4  10  22  40  61  85 115 152 192 239 301 361
#     4  11  23  40  62  88 117 155 201 250 306 362
#     4  11  21  34  54  83 122 165 205 242 283 336
#     4  10  19  32  52  80 115 154 192 229 272 329
#
# _framework density 21.008040000000001
#
# number of rings (size 3 to 8) (size 9 to 14) (size 15 to 20)
#    0.000    1.500    0.000    7.500    0.000    1.000 
#    0.000    5.000    0.000    7.500    0.000    0.000 
#    0.000    0.000    0.000    0.000    0.000    0.000 
#
# Total GULP energy -297564.452012 kJ/mol
# GULP energy per Si atom -12398.518834 kJ/mol
# Density = 2.096023 g / cm^3
# Si number density = 21.008040 Si / 1000 Ang^3
#
#
#
# Elastic Constant Matrix: (Units=GPa)
#
#
# Indices 1 2 3 4 5 6 
#
# 1 93.3011 49.1348 43.3723 -0.0002 3.4810 0.0000
# 2 49.1348 93.3011 43.3723 0.0002 -3.4810 0.0000
# 3 43.3723 43.3723 155.1619 0.0000 0.0000 0.0000
# 4 -0.0002 0.0002 0.0000 36.4091 0.0000 -3.4810
# 5 3.4810 -3.4810 0.0000 0.0000 36.4091 -0.0002
# 6 0.0000 0.0000 0.0000 -3.4810 -0.0002 22.0831
#
#
#
# Elastic Compliance Matrix: (Units=1/GPa)
#
#
# Indices 1 2 3 4 5 6 
#
# 1 0.015725 -0.007264 -0.002365 0.000000 -0.002198 0.000000
# 2 -0.007264 0.015725 -0.002365 0.000000 0.002198 0.000000
# 3 -0.002365 -0.002365 0.007767 0.000000 0.000000 0.000000
# 4 0.000000 0.000000 0.000000 0.027886 0.000000 0.004396
# 5 -0.002198 0.002198 0.000000 0.000000 0.027886 0.000000
# 6 0.000000 0.000000 0.000000 0.004396 0.000000 0.045976
#
#
# Mechanical properties :
#
#
# Convention : Reuss Voigt Hill
#
# Bulk Modulus (GPa) = 65.66507 68.16924 66.91716
# Shear Modulus (GPa) = 29.40683 32.70589 31.05636
#
# Velocity S-wave (km/s) = 3.74543 3.94995 3.84905
# Velocity P-wave (km/s) = 7.07314 7.30221 7.18859
#
# Compressibility (1/GPa) = 0.01522880
#
# Stress axis : x y z
#
# Youngs Moduli (GPa) = 63.59448 63.59448 128.74780
#
# Poissons Ratio (x) = 0.46192 0.30450
# Poissons Ratio (y) = 0.46192 0.30450
# Poissons Ratio (z) = 0.15041 0.15041
#
# Static dielectric constant tensor:
#      x y z
#    x 3.589130 0.000000 0.000000 
#    y 0.000000 3.589130 0.000000 
#    z 0.000000 0.000000 4.102970 
# 
# 
# High freq. dielectric constant tensor:
#      x y z
#    x 1.797800 0.000000 0.000000 
#    y 0.000000 1.797800 0.000000 
#    z 0.000000 0.000000 1.852250 
# 
# From -- ./inp_files/163.got.cif
#   From: 2010.03.12/outbox.cif.g09.slc.cpg/sg151_1_cif.got.tgz:163.got - 2010.04.03 13:42:29.
