data_PCOD8321854
_publ_section_title
;
Structure prediction by ZEFSAII (Michael W. Deem and Ramdas Pophale) SiO2 
 PCOD8321854
Probable space group: P 3 1 2
;
_chemical_formula_sum "Si O2"
_cell_formula_units_Z 44
_cell_length_a 11.978725
_cell_length_b 11.978725
_cell_length_c 16.713560
_cell_angle_alpha 90.000000
_cell_angle_beta 90.000000
_cell_angle_gamma 120.000000
_cell_volume 2076.924866
_symmetry_space_group_name_H-M "P 3 1 2"
_symmetry_group_IT_number 149
_symmetry_cell_setting 'hexagonal'
loop_
_space_group_symop_operation_xyz
x,y,z
-y,x-y,z
-x+y,-x,z
-y,-x,-z
-x+y,y,-z
x,x-y,-z
loop_
_atom_site_type_symbol
_atom_site_label
_atom_site_fract_x
_atom_site_fract_y
_atom_site_fract_z
Si Si1 0.420821 0.077986 0.267045
Si Si2 0.581183 0.668543 0.981116
Si Si3 0.258305 0.231368 0.876984
Si Si4 0.026197 0.766695 0.166688
Si Si5 0.000000 0.000000 0.405705
Si Si6 0.595487 0.647628 0.536936
Si Si7 0.208913 0.916115 0.389061
Si Si8 0.676173 0.581066 0.692448
O O1 0.456594 0.213541 0.307291
O O2 0.546403 0.065803 0.264117
O O3 0.388099 0.079319 0.174340
O O4 0.302001 0.958798 0.312603
O O5 0.709907 0.717471 0.034474
O O6 0.477624 0.522377 0.000000
O O7 0.522381 0.761191 0.000000
O O8 0.616751 0.674804 0.887811
O O9 0.219535 0.083395 0.880051
O O10 0.149008 0.242270 0.828161
O O11 0.989102 0.714673 0.257896
O O12 0.853590 0.907659 0.374565
O O13 0.000000 0.000000 0.500000
O O14 0.453672 0.546329 0.500000
O O15 0.701497 0.705676 0.466046
O O16 0.601964 0.766948 0.588384
O O17 0.644167 0.580251 0.599276
#
# Coordination Sequence:
#
# PCOD8321854 Si02
#       8
#     6   6   6   6   2   6   6   6
#     4  11  23  40  60  87 123 162 210 257 318 382
#     4  10  20  36  59  87 121 162 202 247 299 366
#     4  10  21  37  61  90 121 159 199 256 313 369
#     4  10  21  38  61  90 123 156 205 253 315 372
#     4  12  21  39  66  96 120 156 213 271 330 375
#     4  11  22  41  59  85 121 157 205 251 313 381
#     4  11  24  40  64  91 121 162 206 265 321 378
#     4  11  23  39  59  84 118 161 200 258 307 375
#
# _framework density 21.185165999999999
#
# number of rings (size 3 to 8) (size 9 to 14) (size 15 to 20)
#    0.000    1.364    2.727    3.545    0.000    1.091 
#    3.273    1.364    0.000    6.000    0.000    0.000 
#    0.000    0.000    0.000    0.000    0.000    0.000 
#
# Total GULP energy -545451.169272 kJ/mol
# GULP energy per Si atom -12396.617483 kJ/mol
# Density = 2.113695 g / cm^3
# Si number density = 21.185166 Si / 1000 Ang^3
#
#
#
# Elastic Constant Matrix: (Units=GPa)
#
#
# Indices 1 2 3 4 5 6 
#
# 1 90.5758 38.1337 9.5025 0.0001 -3.7205 0.0000
# 2 38.1337 90.5758 9.5025 -0.0001 3.7205 0.0000
# 3 9.5025 9.5025 65.7752 0.0000 0.0000 0.0000
# 4 0.0001 -0.0001 0.0000 10.7576 0.0000 3.7205
# 5 -3.7205 3.7205 0.0000 0.0000 10.7576 0.0001
# 6 0.0000 0.0000 0.0000 3.7205 0.0001 26.2211
#
#
#
# Elastic Compliance Matrix: (Units=1/GPa)
#
#
# Indices 1 2 3 4 5 6 
#
# 1 0.013996 -0.006057 -0.001147 0.000000 0.006935 0.000000
# 2 -0.006057 0.013996 -0.001147 0.000000 -0.006935 0.000000
# 3 -0.001147 -0.001147 0.015535 0.000000 0.000000 0.000000
# 4 0.000000 0.000000 0.000000 0.097755 0.000000 -0.013871
# 5 0.006935 -0.006935 0.000000 0.000000 0.097755 0.000000
# 6 0.000000 0.000000 0.000000 -0.013871 0.000000 0.040105
#
#
# Mechanical properties :
#
#
# Convention : Reuss Voigt Hill
#
# Bulk Modulus (GPa) = 37.27918 40.13378 38.70648
# Shear Modulus (GPa) = 16.40505 22.19978 19.30242
#
# Velocity S-wave (km/s) = 2.78576 3.24063 3.02177
# Velocity P-wave (km/s) = 5.28983 5.74349 5.52132
#
# Compressibility (1/GPa) = 0.02682463
#
# Stress axis : x y z
#
# Youngs Moduli (GPa) = 71.45030 71.45030 64.37205
#
# Poissons Ratio (x) = 0.43277 0.07383
# Poissons Ratio (y) = 0.43277 0.07383
# Poissons Ratio (z) = 0.08195 0.08195
#
# Static dielectric constant tensor:
#      x y z
#    x 3.772280 0.000000 0.000000 
#    y 0.000000 3.772280 0.000000 
#    z 0.000000 0.000000 3.896660 
# 
# 
# High freq. dielectric constant tensor:
#      x y z
#    x 1.823210 0.000000 0.000000 
#    y 0.000000 1.823210 0.000000 
#    z 0.000000 0.000000 1.839690 
# 
# From -- ./inp_files/1115.got.cif
#   From: 2010.03.12/outbox.cif.g09.slc.cpg/sg149_cif.got.tgz:1115.got - 2010.04.03 13:40:41.
