data_PCOD8321721
_publ_section_title
;
Structure prediction by ZEFSAII (Michael W. Deem and Ramdas Pophale) SiO2 
 PCOD8321721
Probable space group: R -3
;
_chemical_formula_sum "Si O2"
_cell_formula_units_Z 66
_cell_length_a 16.076314
_cell_length_b 16.076314
_cell_length_c 13.838779
_cell_angle_alpha 90.000000
_cell_angle_beta 90.000000
_cell_angle_gamma 120.000000
_cell_volume 3097.429041
_symmetry_space_group_name_H-M "R -3"
_symmetry_group_IT_number 148
_symmetry_cell_setting 'hexagonal'
loop_
_space_group_symop_operation_xyz
x,y,z
-y,x-y,z
-x+y,-x,z
-x,-y,-z
y,-x+y,-z
x-y,x,-z
2/3+x,1/3+y,1/3+z
2/3-y,1/3+x-y,1/3+z
2/3-x+y,1/3-x,1/3+z
2/3-x,1/3-y,1/3-z
2/3+y,1/3-x+y,1/3-z
2/3+x-y,1/3+x,1/3-z
1/3+x,2/3+y,2/3+z
1/3-y,2/3+x-y,2/3+z
1/3-x+y,2/3-x,2/3+z
1/3-x,2/3-y,2/3-z
1/3+y,2/3-x+y,2/3-z
1/3+x-y,2/3+x,2/3-z
loop_
_atom_site_type_symbol
_atom_site_label
_atom_site_fract_x
_atom_site_fract_y
_atom_site_fract_z
Si Si1 0.666667 0.333334 0.220027
Si Si2 0.903938 0.830901 0.243464
Si Si3 0.578894 0.603402 0.891188
Si Si4 0.620291 0.714014 0.433827
Si Si5 0.666668 0.333334 0.717213
O O1 0.666668 0.333335 0.333334
O O2 0.752993 0.432322 0.178300
O O3 0.790928 0.760484 0.254917
O O4 0.955756 0.772304 0.211256
O O5 0.948202 0.891101 0.342790
O O6 0.659810 0.630698 0.810025
O O7 0.477677 0.515027 0.853379
O O8 0.610566 0.569375 0.985493
O O9 0.666668 0.333335 0.833334
#
# Coordination Sequence:
#
# PCOD8321721 Si02
#       5
#     6  18  18  18   6
#     4  10  20  37  67  92 133 172 212 259 328 386
#     4  10  21  46  61 101 135 162 227 271 306 410
#     4  11  25  44  67  98 134 172 220 275 332 395
#     4  11  25  44  67  98 134 172 220 275 332 395
#     4  10  20  37  70 101 142 181 209 268 340 386
#
# _framework density 21.307994000000001
#
# number of rings (size 3 to 8) (size 9 to 14) (size 15 to 20)
#    0.000    1.636    5.455    0.818    3.818    4.364 
#    0.000    0.000    0.000    0.545    0.000    0.000 
#    0.000    0.000    0.000    0.000    0.000    0.000 
#
# Total GULP energy -272798.305908 kJ/mol
# GULP energy per Si atom -12399.922996 kJ/mol
# Density = 2.125950 g / cm^3
# Si number density = 21.307994 Si / 1000 Ang^3
#
#
#
# Elastic Constant Matrix: (Units=GPa)
#
#
# Indices 1 2 3 4 5 6 
#
# 1 103.6932 41.5614 12.5259 -7.5863 2.3247 0.0003
# 2 41.5614 103.6927 12.5255 7.5860 -2.3249 0.0002
# 3 12.5259 12.5255 110.3765 -0.0008 -0.0003 0.0001
# 4 -7.5863 7.5860 -0.0008 23.8997 0.0002 -2.3251
# 5 2.3247 -2.3249 -0.0003 0.0002 23.8999 -7.5863
# 6 0.0003 0.0002 0.0001 -2.3251 -7.5863 31.0656
#
#
#
# Elastic Compliance Matrix: (Units=1/GPa)
#
#
# Indices 1 2 3 4 5 6 
#
# 1 0.012304 -0.005282 -0.000797 0.005582 -0.001711 0.000000
# 2 -0.005282 0.012304 -0.000797 -0.005582 0.001711 0.000000
# 3 -0.000797 -0.000797 0.009241 0.000000 0.000000 0.000000
# 4 0.005582 -0.005582 0.000000 0.045718 0.000000 0.003422
# 5 -0.001711 0.001711 0.000000 0.000000 0.045718 0.011164
# 6 0.000000 0.000000 0.000000 0.003422 0.011164 0.035172
#
#
# Mechanical properties :
#
#
# Convention : Reuss Voigt Hill
#
# Bulk Modulus (GPa) = 49.75833 50.10978 49.93406
# Shear Modulus (GPa) = 27.63842 32.51635 30.07738
#
# Velocity S-wave (km/s) = 3.60542 3.91066 3.76114
# Velocity P-wave (km/s) = 6.38238 6.63016 6.50745
#
# Compressibility (1/GPa) = 0.02009714
#
# Stress axis : x y z
#
# Youngs Moduli (GPa) = 81.27468 81.27432 108.21627
#
# Poissons Ratio (x) = 0.42930 0.08623
# Poissons Ratio (y) = 0.42930 0.08623
# Poissons Ratio (z) = 0.06476 0.06476
#
# Static dielectric constant tensor:
#      x y z
#    x 3.895860 -0.000010 0.000000 
#    y -0.000010 3.895860 0.000010 
#    z 0.000000 0.000010 3.482030 
# 
# 
# High freq. dielectric constant tensor:
#      x y z
#    x 1.840870 0.000000 0.000000 
#    y 0.000000 1.840870 0.000000 
#    z 0.000000 0.000000 1.808440 
# 
# From -- ./inp_files/1891.got.cif
#   From: 2010.03.12/outbox.cif.g09.slc.cpg/sg148_1_cif.got.tgz:1891.got - 2010.04.03 13:38:46.
