data_PCOD8321991
_publ_section_title
;
Structure prediction by ZEFSAII (Michael W. Deem and Ramdas Pophale) SiO2 
 PCOD8321991
Probable space group: P 31 1 2
;
_chemical_formula_sum "Si O2"
_cell_formula_units_Z 18
_cell_length_a 8.381322
_cell_length_b 8.381322
_cell_length_c 10.382508
_cell_angle_alpha 90.000000
_cell_angle_beta 90.000000
_cell_angle_gamma 120.000000
_cell_volume 631.623032
_symmetry_space_group_name_H-M "P 31 1 2"
_symmetry_group_IT_number 151
_symmetry_cell_setting 'hexagonal'
loop_
_space_group_symop_operation_xyz
x,y,z
-y,x-y,1/3+z
-x+y,-x,2/3+z
-y,-x,2/3-z
-x+y,y,1/3-z
x,x-y,-z
loop_
_atom_site_type_symbol
_atom_site_label
_atom_site_fract_x
_atom_site_fract_y
_atom_site_fract_z
Si Si1 0.321674 0.832701 0.540289
Si Si2 0.505172 0.154712 0.372821
Si Si3 0.179056 0.158395 0.792226
O O1 0.450386 0.900772 0.666667
O O2 0.248725 0.624363 0.500000
O O3 0.132999 0.841380 0.564476
O O4 0.449704 0.948981 0.416446
O O5 0.720282 0.279719 0.333334
O O6 0.447175 0.223588 0.500000
O O7 0.390896 0.165837 0.247371
O O8 0.100252 0.200504 0.666667
O O9 0.057076 0.942925 0.833334
#
# Coordination Sequence:
#
# PCOD8321991 Si02
#       3
#     6   6   6
#     4  11  23  44  74 112 155 200 249 306 371 449
#     4  11  25  48  77 109 150 198 257 315 372 445
#     4  10  22  46  75 107 148 194 248 313 375 444
#
# _framework density 28.498007999999999
#
# number of rings (size 3 to 8) (size 9 to 14) (size 15 to 20)
#    0.000    1.333    0.000    8.000    0.000    4.000 
#    0.000   33.333    0.000    0.000    0.000    2.333 
#    0.000    0.000    0.000    0.000    0.000    0.000 
#
# Total GULP energy -223035.116442 kJ/mol
# GULP energy per Si atom -12390.839802 kJ/mol
# Density = 2.843314 g / cm^3
# Si number density = 28.498008 Si / 1000 Ang^3
#
#
#
# Elastic Constant Matrix: (Units=GPa)
#
#
# Indices 1 2 3 4 5 6 
#
# 1 99.5499 33.9519 30.1036 0.0004 -0.0974 0.0000
# 2 33.9519 99.5499 30.1036 -0.0004 0.0974 0.0000
# 3 30.1036 30.1036 115.1347 0.0000 0.0000 0.0000
# 4 0.0004 -0.0004 0.0000 44.2301 0.0000 0.0974
# 5 -0.0974 0.0974 0.0000 0.0000 44.2301 0.0004
# 6 0.0000 0.0000 0.0000 0.0974 0.0004 32.7990
#
#
#
# Elastic Compliance Matrix: (Units=1/GPa)
#
#
# Indices 1 2 3 4 5 6 
#
# 1 0.011868 -0.003376 -0.002220 0.000000 0.000034 0.000000
# 2 -0.003376 0.011868 -0.002220 0.000000 -0.000034 0.000000
# 3 -0.002220 -0.002220 0.009847 0.000000 0.000000 0.000000
# 4 0.000000 0.000000 0.000000 0.022609 0.000000 -0.000067
# 5 0.000034 -0.000034 0.000000 0.000000 0.022609 0.000000
# 6 0.000000 0.000000 0.000000 -0.000067 0.000000 0.030489
#
#
# Mechanical properties :
#
#
# Convention : Reuss Voigt Hill
#
# Bulk Modulus (GPa) = 55.71341 55.83920 55.77631
# Shear Modulus (GPa) = 38.19503 38.92353 38.55928
#
# Velocity S-wave (km/s) = 3.66494 3.69973 3.68238
# Velocity P-wave (km/s) = 6.12384 6.15526 6.13957
#
# Compressibility (1/GPa) = 0.01794900
#
# Stress axis : x y z
#
# Youngs Moduli (GPa) = 84.25895 84.25895 101.55847
#
# Poissons Ratio (x) = 0.28448 0.22549
# Poissons Ratio (y) = 0.28448 0.22549
# Poissons Ratio (z) = 0.18708 0.18708
#
# Static dielectric constant tensor:
#      x y z
#    x 5.511090 0.000000 0.000000 
#    y 0.000000 5.511090 0.000000 
#    z 0.000000 0.000000 5.511250 
# 
# 
# High freq. dielectric constant tensor:
#      x y z
#    x 2.145000 0.000000 0.000000 
#    y 0.000000 2.145000 0.000000 
#    z 0.000000 0.000000 2.152640 
# 
# From -- ./inp_files/2178.got.cif
#   From: 2010.03.12/outbox.cif.g09.slc.cpg/sg151_2_cif.got.tgz:2178.got - 2010.04.03 13:42:29.
