data_PCOD8321952
_publ_section_title
;
Structure prediction by ZEFSAII (Michael W. Deem and Ramdas Pophale) SiO2 
 PCOD8321952
Probable space group: P 31 1 2
;
_chemical_formula_sum "Si O2"
_cell_formula_units_Z 45
_cell_length_a 12.874453
_cell_length_b 12.874453
_cell_length_c 16.619620
_cell_angle_alpha 90.000000
_cell_angle_beta 90.000000
_cell_angle_gamma 120.000000
_cell_volume 2385.664091
_symmetry_space_group_name_H-M "P 31 1 2"
_symmetry_group_IT_number 151
_symmetry_cell_setting 'hexagonal'
loop_
_space_group_symop_operation_xyz
x,y,z
-y,x-y,1/3+z
-x+y,-x,2/3+z
-y,-x,2/3-z
-x+y,y,1/3-z
x,x-y,-z
loop_
_atom_site_type_symbol
_atom_site_label
_atom_site_fract_x
_atom_site_fract_y
_atom_site_fract_z
Si Si1 0.355328 0.836972 0.025656
Si Si2 0.249423 0.424265 0.750968
Si Si3 0.403153 0.036805 0.144642
Si Si4 0.548918 0.892590 0.483015
Si Si5 0.117546 0.452489 0.899343
Si Si6 0.843210 0.567257 0.845644
Si Si7 0.717320 0.434639 0.166667
Si Si8 0.682094 0.127348 0.690484
O O1 0.437741 0.792938 0.070364
O O2 0.219133 0.731595 0.033909
O O3 0.368353 0.957463 0.064442
O O4 0.389062 0.861694 0.932484
O O5 0.183384 0.366768 0.666667
O O6 0.313812 0.353175 0.782907
O O7 0.153444 0.416678 0.815368
O O8 0.541114 0.082227 0.166667
O O9 0.388798 0.152314 0.131037
O O10 0.588367 0.794184 0.500000
O O11 0.466482 0.898615 0.553320
O O12 0.666567 0.023129 0.477045
O O13 0.995354 0.340654 0.933367
O O14 0.785178 0.425951 0.828833
O O15 0.843212 0.598914 0.940507
O O16 0.763224 0.516692 0.086349
O O17 0.554526 0.109052 0.666667
#
# Coordination Sequence:
#
# PCOD8321952 Si02
#       8
#     6   6   6   6   6   6   3   6
#     4  10  22  35  52  87 119 153 192 237 293 361
#     4  10  19  33  56  85 115 151 191 236 293 359
#     4   9  20  37  54  81 117 149 189 238 297 349
#     4  12  23  34  58  87 113 156 196 236 301 350
#     4  11  20  35  53  81 124 149 186 237 291 351
#     4  11  22  39  57  83 114 156 197 241 293 352
#     4  10  20  36  54  82 112 154 194 234 290 340
#     4  10  21  35  52  81 114 151 192 236 282 346
#
# _framework density 18.862670999999999
#
# number of rings (size 3 to 8) (size 9 to 14) (size 15 to 20)
#    0.000    1.600    4.667    2.800    0.000    3.733 
#    2.400    0.000    0.000    0.000   17.333    0.000 
#    0.000    0.000    0.000    0.000    0.000    0.000 
#
# Total GULP energy -557937.796470 kJ/mol
# GULP energy per Si atom -12398.617699 kJ/mol
# Density = 1.881974 g / cm^3
# Si number density = 18.862671 Si / 1000 Ang^3
#
#
#
# Elastic Constant Matrix: (Units=GPa)
#
#
# Indices 1 2 3 4 5 6 
#
# 1 85.6454 35.9714 17.7032 0.0001 0.1918 0.0000
# 2 35.9714 85.6454 17.7032 -0.0001 -0.1918 0.0000
# 3 17.7032 17.7032 84.8455 0.0000 0.0000 0.0000
# 4 0.0001 -0.0001 0.0000 26.2274 0.0000 -0.1918
# 5 0.1918 -0.1918 0.0000 0.0000 26.2274 0.0001
# 6 0.0000 0.0000 0.0000 -0.1918 0.0001 24.8370
#
#
#
# Elastic Compliance Matrix: (Units=1/GPa)
#
#
# Indices 1 2 3 4 5 6 
#
# 1 0.014443 -0.005689 -0.001827 0.000000 -0.000147 0.000000
# 2 -0.005689 0.014443 -0.001827 0.000000 0.000147 0.000000
# 3 -0.001827 -0.001827 0.012548 0.000000 0.000000 0.000000
# 4 0.000000 0.000000 0.000000 0.038130 0.000000 0.000294
# 5 -0.000147 0.000147 0.000000 0.000000 0.038130 0.000000
# 6 0.000000 0.000000 0.000000 0.000294 0.000000 0.040265
#
#
# Mechanical properties :
#
#
# Convention : Reuss Voigt Hill
#
# Bulk Modulus (GPa) = 43.95488 44.32132 44.13810
# Shear Modulus (GPa) = 27.14020 27.77557 27.45789
#
# Velocity S-wave (km/s) = 3.79731 3.84150 3.81947
# Velocity P-wave (km/s) = 6.52528 6.57450 6.54993
#
# Compressibility (1/GPa) = 0.02275060
#
# Stress axis : x y z
#
# Youngs Moduli (GPa) = 69.23590 69.23590 79.69160
#
# Poissons Ratio (x) = 0.39389 0.14557
# Poissons Ratio (y) = 0.39389 0.14557
# Poissons Ratio (z) = 0.12647 0.12647
#
# Static dielectric constant tensor:
#      x y z
#    x 3.265220 0.000000 0.000000 
#    y 0.000000 3.265220 0.000000 
#    z 0.000000 0.000000 3.863000 
# 
# 
# High freq. dielectric constant tensor:
#      x y z
#    x 1.708090 0.000000 0.000000 
#    y 0.000000 1.708090 0.000000 
#    z 0.000000 0.000000 1.747010 
# 
# From -- ./inp_files/3567.got.cif
#   From: 2010.03.12/outbox.cif.g09.slc.cpg/sg151_2_cif.got.tgz:3567.got - 2010.04.03 13:42:29.
