data_PCOD8321809
_publ_section_title
;
Structure prediction by ZEFSAII (Michael W. Deem and Ramdas Pophale) SiO2 
 PCOD8321809
Probable space group: R -3
;
_chemical_formula_sum "Si O2"
_cell_formula_units_Z 60
_cell_length_a 16.350106
_cell_length_b 16.350106
_cell_length_c 11.748257
_cell_angle_alpha 90.000000
_cell_angle_beta 90.000000
_cell_angle_gamma 120.000000
_cell_volume 2719.851641
_symmetry_space_group_name_H-M "R -3"
_symmetry_group_IT_number 148
_symmetry_cell_setting 'hexagonal'
loop_
_space_group_symop_operation_xyz
x,y,z
-y,x-y,z
-x+y,-x,z
-x,-y,-z
y,-x+y,-z
x-y,x,-z
2/3+x,1/3+y,1/3+z
2/3-y,1/3+x-y,1/3+z
2/3-x+y,1/3-x,1/3+z
2/3-x,1/3-y,1/3-z
2/3+y,1/3-x+y,1/3-z
2/3+x-y,1/3+x,1/3-z
1/3+x,2/3+y,2/3+z
1/3-y,2/3+x-y,2/3+z
1/3-x+y,2/3-x,2/3+z
1/3-x,2/3-y,2/3-z
1/3+y,2/3-x+y,2/3-z
1/3+x-y,2/3+x,2/3-z
loop_
_atom_site_type_symbol
_atom_site_label
_atom_site_fract_x
_atom_site_fract_y
_atom_site_fract_z
Si Si1 0.305496 0.201560 0.820392
Si Si2 0.000000 0.000000 0.632835
Si Si3 0.369482 0.510015 0.991562
Si Si4 0.179799 0.284273 0.725387
O O1 0.412112 0.262664 0.773440
O O2 0.260889 0.091222 0.782840
O O3 0.238810 0.235196 0.762112
O O4 0.307901 0.211205 0.956924
O O5 0.108312 0.060062 0.674798
O O6 0.000000 0.000000 0.500000
O O7 0.257496 0.450132 0.987676
O O8 0.166667 0.333334 0.833334
#
# Coordination Sequence:
#
# PCOD8321809 Si02
#       4
#    18   6  18  18
#     4  11  27  47  70 108 144 191 244 302 364 436
#     4  12  21  42  72 106 137 187 240 297 361 431
#     4  11  25  45  71 105 144 185 243 301 361 426
#     4  12  27  46  74 102 146 193 239 298 367 438
#
# _framework density 22.060026000000001
#
# number of rings (size 3 to 8) (size 9 to 14) (size 15 to 20)
#    0.000    0.600    3.000    3.600   16.800    0.000 
#    0.000    0.000    0.000    3.600    0.000    0.000 
#    0.000    0.000    0.000    0.000    0.000    0.000 
#
# Total GULP energy -247950.129431 kJ/mol
# GULP energy per Si atom -12397.506472 kJ/mol
# Density = 2.200982 g / cm^3
# Si number density = 22.060026 Si / 1000 Ang^3
#
#
#
# Elastic Constant Matrix: (Units=GPa)
#
#
# Indices 1 2 3 4 5 6 
#
# 1 119.8056 45.5477 41.7168 -2.6141 5.1717 0.0000
# 2 45.5477 119.8056 41.7168 2.6141 -5.1717 0.0000
# 3 41.7168 41.7168 162.4416 0.0000 0.0000 0.0000
# 4 -2.6141 2.6141 0.0000 32.7463 0.0000 -5.1717
# 5 5.1717 -5.1717 0.0000 0.0000 32.7463 -2.6141
# 6 0.0000 0.0000 0.0000 -5.1717 -2.6141 37.1290
#
#
#
# Elastic Compliance Matrix: (Units=1/GPa)
#
#
# Indices 1 2 3 4 5 6 
#
# 1 0.010399 -0.003451 -0.001784 0.001106 -0.002187 0.000000
# 2 -0.003451 0.010399 -0.001784 -0.001106 0.002187 0.000000
# 3 -0.001784 -0.001784 0.007073 0.000000 0.000000 0.000000
# 4 0.001106 -0.001106 0.000000 0.031405 0.000000 0.004374
# 5 -0.002187 0.002187 0.000000 0.000000 0.031405 0.002211
# 6 0.000000 0.000000 0.000000 0.004374 0.002211 0.027698
#
#
# Mechanical properties :
#
#
# Convention : Reuss Voigt Hill
#
# Bulk Modulus (GPa) = 72.30022 73.33504 72.81763
# Shear Modulus (GPa) = 36.48923 38.72910 37.60916
#
# Velocity S-wave (km/s) = 4.07146 4.19456 4.13347
# Velocity P-wave (km/s) = 7.41268 7.53490 7.47404
#
# Compressibility (1/GPa) = 0.01383122
#
# Stress axis : x y z
#
# Youngs Moduli (GPa) = 96.16749 96.16749 141.39218
#
# Poissons Ratio (x) = 0.33183 0.25229
# Poissons Ratio (y) = 0.33183 0.25229
# Poissons Ratio (z) = 0.17159 0.17159
#
# Static dielectric constant tensor:
#      x y z
#    x 4.541320 0.000000 0.000000 
#    y 0.000000 4.541320 0.000000 
#    z 0.000000 0.000000 3.845750 
# 
# 
# High freq. dielectric constant tensor:
#      x y z
#    x 1.882050 0.000000 0.000000 
#    y 0.000000 1.882050 0.000000 
#    z 0.000000 0.000000 1.859000 
# 
# From -- ./inp_files/1337.got.cif
#   From: 2010.03.12/outbox.cif.g09.slc.cpg/sg148_1_cif.got.tgz:1337.got - 2010.04.03 13:38:46.
