data_PCOD8321511
_publ_section_title
;
Structure prediction by ZEFSAII (Michael W. Deem and Ramdas Pophale) SiO2 
 PCOD8321511
Probable space group: R 3
;
_chemical_formula_sum "Si O2"
_cell_formula_units_Z 60
_cell_length_a 11.824030
_cell_length_b 11.824030
_cell_length_c 20.039309
_cell_angle_alpha 90.000000
_cell_angle_beta 90.000000
_cell_angle_gamma 120.000000
_cell_volume 2426.299561
_symmetry_space_group_name_H-M "R 3"
_symmetry_group_IT_number 146
_symmetry_cell_setting 'hexagonal'
loop_
_space_group_symop_operation_xyz
x,y,z
-y,x-y,z
-x+y,-x,z
2/3+x,1/3+y,1/3+z
2/3-y,1/3+x-y,1/3+z
2/3-x+y,1/3-x,1/3+z
1/3+x,2/3+y,2/3+z
1/3-y,2/3+x-y,2/3+z
1/3-x+y,2/3-x,2/3+z
loop_
_atom_site_type_symbol
_atom_site_label
_atom_site_fract_x
_atom_site_fract_y
_atom_site_fract_z
Si Si1 0.921361 0.329246 0.384530
Si Si2 0.661768 0.076605 0.384650
Si Si3 0.000000 0.000000 0.590251
Si Si4 0.593077 0.913925 0.877438
Si Si5 0.333334 0.666668 0.413194
Si Si6 0.716438 0.864885 0.545322
Si Si7 0.295509 0.147897 0.736467
Si Si8 0.918120 0.323517 0.544310
O O1 0.796539 0.197575 0.357923
O O2 0.914780 0.453573 0.355834
O O3 0.923973 0.330703 0.464488
O O4 0.057927 0.340447 0.358993
O O5 0.654949 0.076286 0.464244
O O6 0.649885 0.939706 0.359699
O O7 0.861046 0.970447 0.565547
O O8 0.000000 0.000000 0.668247
O O9 0.578374 0.780610 0.906323
O O10 0.473309 0.930830 0.903244
O O11 0.734698 0.032948 0.902474
O O12 0.483539 0.736511 0.436598
O O13 0.726440 0.865047 0.465276
O O14 0.668357 0.719339 0.573626
#
# Coordination Sequence:
#
# PCOD8321511 Si02
#       8
#     9   9   3   9   3   9   9   9
#     4   9  16  27  45  75 112 151 198 262 313 364
#     4   9  16  27  45  75 112 151 198 262 313 364
#     4  12  24  42  66  96 132 174 213 267 334 404
#     4   9  16  27  45  75 112 151 198 262 313 364
#     4  12  24  42  66  96 132 174 213 267 334 404
#     4  10  20  34  56  88 124 158 220 265 313 370
#     4  10  20  34  56  88 124 158 220 265 313 370
#     4   9  16  27  45  75 112 151 198 262 313 364
#
# _framework density 24.729018
#
# number of rings (size 3 to 8) (size 9 to 14) (size 15 to 20)
#    0.000    2.400    3.000    0.600    4.200    2.400 
#    1.800    0.000    0.000    1.800    0.000    0.000 
#    0.000    0.000    0.000    0.000    0.000    0.000 
#
# Total GULP energy -247968.333287 kJ/mol
# GULP energy per Si atom -12398.416664 kJ/mol
# Density = 2.467273 g / cm^3
# Si number density = 24.729018 Si / 1000 Ang^3
#
#
#
# Elastic Constant Matrix: (Units=GPa)
#
#
# Indices 1 2 3 4 5 6 
#
# 1 218.2911 99.4046 5.4578 10.0510 -1.5682 0.0000
# 2 99.4046 218.2908 5.4583 -10.0512 1.5682 -0.0002
# 3 5.4578 5.4583 22.2525 -0.0002 0.0000 0.0000
# 4 10.0510 -10.0512 -0.0002 19.0137 0.0000 1.5681
# 5 -1.5682 1.5682 0.0000 0.0000 19.0137 10.0510
# 6 0.0000 -0.0002 0.0000 1.5681 10.0510 59.4434
#
#
#
# Elastic Compliance Matrix: (Units=1/GPa)
#
#
# Indices 1 2 3 4 5 6 
#
# 1 0.006217 -0.003042 -0.000779 -0.004895 0.000764 0.000000
# 2 -0.003042 0.006217 -0.000779 0.004895 -0.000764 0.000000
# 3 -0.000779 -0.000779 0.045321 0.000000 0.000000 0.000000
# 4 -0.004895 0.004895 0.000000 0.057895 0.000000 -0.001527
# 5 0.000764 -0.000764 0.000000 0.000000 0.057894 -0.009789
# 6 0.000000 0.000000 0.000000 -0.001527 -0.009789 0.018518
#
#
# Mechanical properties :
#
#
# Convention : Reuss Voigt Hill
#
# Bulk Modulus (GPa) = 20.59513 75.49729 48.04621
# Shear Modulus (GPa) = 22.99425 42.72840 32.86132
#
# Velocity S-wave (km/s) = 3.05265 4.16127 3.64930
# Velocity P-wave (km/s) = 4.55755 7.32696 6.10146
#
# Compressibility (1/GPa) = 0.04855516
#
# Stress axis : x y z
#
# Youngs Moduli (GPa) = 160.85501 160.85448 22.06493
#
# Poissons Ratio (x) = 0.48938 0.01718
# Poissons Ratio (y) = 0.48938 0.01718
# Poissons Ratio (z) = 0.12523 0.12526
#
# Static dielectric constant tensor:
#      x y z
#    x 4.662240 0.000000 0.000000 
#    y 0.000000 4.662250 0.000000 
#    z 0.000000 0.000000 3.826190 
# 
# 
# High freq. dielectric constant tensor:
#      x y z
#    x 1.990900 0.000000 0.000000 
#    y 0.000000 1.990900 0.000000 
#    z 0.000000 0.000000 1.963460 
# 
# From -- ./inp_files/2270.got.cif
#   From: 2010.06.25/outbox.cif.g09.slc.cpg/sg146_cif.got.tgz:2270.got - 2010.06.28 11:17:22.
