data_PCOD8321614
_publ_section_title
;
Structure prediction by ZEFSAII (Michael W. Deem and Ramdas Pophale) SiO2 
 PCOD8321614
Probable space group: P -3
;
_chemical_formula_sum "Si O2"
_cell_formula_units_Z 48
_cell_length_a 12.517848
_cell_length_b 12.517848
_cell_length_c 20.382559
_cell_angle_alpha 90.000000
_cell_angle_beta 90.000000
_cell_angle_gamma 120.000000
_cell_volume 2765.977782
_symmetry_space_group_name_H-M "P -3"
_symmetry_group_IT_number 147
_symmetry_cell_setting 'hexagonal'
loop_
_space_group_symop_operation_xyz
x,y,z
-y,x-y,z
-x+y,-x,z
-x,-y,-z
y,-x+y,-z
x-y,x,-z
loop_
_atom_site_type_symbol
_atom_site_label
_atom_site_fract_x
_atom_site_fract_y
_atom_site_fract_z
Si Si1 0.082892 0.667076 0.438337
Si Si2 0.754646 0.754726 0.074477
Si Si3 0.584184 0.667076 0.438337
Si Si4 0.418078 0.085844 0.808131
Si Si5 0.999921 0.245275 0.925523
Si Si6 0.914155 0.581922 0.808131
Si Si7 0.248283 0.998466 0.314162
Si Si8 0.751717 0.750183 0.685838
O O1 0.216561 0.783439 0.448690
O O2 0.098379 0.549190 0.431128
O O3 0.017805 0.677436 0.373270
O O4 0.000000 0.658134 0.500000
O O5 0.796985 0.898493 0.083159
O O6 0.639568 0.670456 0.120934
O O7 0.869089 0.738178 0.094597
O O8 0.711718 0.711719 1.000000
O O9 0.659630 0.677436 0.373270
O O10 0.360431 0.030886 0.879066
O O11 0.458931 0.229465 0.802935
O O12 0.535947 0.071893 0.796779
O O13 0.317183 0.007452 0.753566
O O14 0.992548 0.682817 0.753567
O O15 0.260202 0.130101 0.320485
O O16 0.104906 0.895093 0.316499
#
# Coordination Sequence:
#
# PCOD8321614 Si02
#       8
#     6   6   6   6   6   6   6   6
#     4  10  20  34  53  76 103 135 169 204 241 285
#     4   9  17  30  50  75 100 126 158 199 246 292
#     4  10  20  34  53  76 103 135 169 204 241 285
#     4  10  20  33  50  71  97 130 166 203 241 286
#     4   9  17  30  50  75 100 126 158 199 246 292
#     4  10  20  33  50  71  97 130 166 203 241 286
#     4  10  20  34  53  76 100 126 159 202 251 297
#     4  10  20  34  53  76 100 126 159 202 251 297
#
# _framework density 17.353719000000002
#
# number of rings (size 3 to 8) (size 9 to 14) (size 15 to 20)
#    0.000    2.250    0.000    3.250    0.000    1.500 
#    0.000    5.000    0.000   14.500    0.000    0.000 
#    0.000    0.000    0.000    0.000    0.000    0.000 
#
# Total GULP energy -595363.591269 kJ/mol
# GULP energy per Si atom -12403.408151 kJ/mol
# Density = 1.731422 g / cm^3
# Si number density = 17.353719 Si / 1000 Ang^3
#
#
#
# Elastic Constant Matrix: (Units=GPa)
#
#
# Indices 1 2 3 4 5 6 
#
# 1 81.8311 46.5011 42.9459 0.5592 -0.0001 0.0000
# 2 46.5011 81.8311 42.9459 -0.5592 0.0001 0.0000
# 3 42.9459 42.9459 112.2427 0.0000 0.0000 0.0000
# 4 0.5592 -0.5592 0.0000 23.0324 0.0000 0.0001
# 5 -0.0001 0.0001 0.0000 0.0000 23.0324 0.5592
# 6 0.0000 0.0000 0.0000 0.0001 0.5592 17.6650
#
#
#
# Elastic Compliance Matrix: (Units=1/GPa)
#
#
# Indices 1 2 3 4 5 6 
#
# 1 0.019400 -0.008926 -0.004008 -0.000688 0.000000 0.000000
# 2 -0.008926 0.019400 -0.004008 0.000688 0.000000 0.000000
# 3 -0.004008 -0.004008 0.011976 0.000000 0.000000 0.000000
# 4 -0.000688 0.000688 0.000000 0.043451 0.000000 0.000000
# 5 0.000000 0.000000 0.000000 0.000000 0.043451 -0.001376
# 6 0.000000 0.000000 0.000000 0.000000 -0.001376 0.056653
#
#
# Mechanical properties :
#
#
# Convention : Reuss Voigt Hill
#
# Bulk Modulus (GPa) = 59.19136 60.07672 59.63404
# Shear Modulus (GPa) = 21.38169 22.31343 21.84756
#
# Velocity S-wave (km/s) = 3.51395 3.58970 3.55203
# Velocity P-wave (km/s) = 7.11664 7.20245 7.15968
#
# Compressibility (1/GPa) = 0.01689436
#
# Stress axis : x y z
#
# Youngs Moduli (GPa) = 51.54517 51.54517 83.49935
#
# Poissons Ratio (x) = 0.46008 0.33465
# Poissons Ratio (y) = 0.46008 0.33465
# Poissons Ratio (z) = 0.20658 0.20658
#
# Static dielectric constant tensor:
#      x y z
#    x 3.098030 0.000000 0.000000 
#    y 0.000000 3.098030 0.000000 
#    z 0.000000 0.000000 3.491390 
# 
# 
# High freq. dielectric constant tensor:
#      x y z
#    x 1.665000 0.000000 0.000000 
#    y 0.000000 1.665000 0.000000 
#    z 0.000000 0.000000 1.689600 
# 
# From -- ./inp_files/1072.got.cif
#   From: 2010.03.12/outbox.cif.g09.slc.cpg/sg147_cif.got.tgz:1072.got - 2010.04.03 13:37:56.
