data_PCOD8321480
_publ_section_title
;
Structure prediction by ZEFSAII (Michael W. Deem and Ramdas Pophale) SiO2 
 PCOD8321480
Probable space group: P 32
;
_chemical_formula_sum "Si O2"
_cell_formula_units_Z 18
_cell_length_a 12.219373
_cell_length_b 12.219373
_cell_length_c 5.146845
_cell_angle_alpha 90.000000
_cell_angle_beta 90.000000
_cell_angle_gamma 120.000000
_cell_volume 665.532955
_symmetry_space_group_name_H-M "P 32"
_symmetry_group_IT_number 145
_symmetry_cell_setting 'hexagonal'
loop_
_space_group_symop_operation_xyz
x,y,z
-y,x-y,2/3+z
-x+y,-x,1/3+z
loop_
_atom_site_type_symbol
_atom_site_label
_atom_site_fract_x
_atom_site_fract_y
_atom_site_fract_z
Si Si1 0.877796 0.613904 0.000000
Si Si2 0.700134 0.896960 0.009726
Si Si3 0.582009 0.653745 0.344513
Si Si4 0.898468 0.023620 0.602710
Si Si5 0.442055 0.769845 0.804929
Si Si6 0.608277 0.529001 0.844627
O O1 0.743880 0.538415 0.855718
O O2 0.982134 0.679625 0.781025
O O3 0.890215 0.726245 0.195051
O O4 0.895444 0.506886 0.138563
O O5 0.669736 0.797527 0.243009
O O6 0.592763 0.843876 0.782109
O O7 0.829157 0.934608 0.854865
O O8 0.433954 0.614012 0.370401
O O9 0.624780 0.631272 0.625230
O O10 0.584838 0.560871 0.131678
O O11 0.888560 0.934286 0.358174
O O12 0.375569 0.778018 0.542580
#
# Coordination Sequence:
#
# PCOD8321480 Si02
#       6
#     3   3   3   3   3   3
#     4  12  31  54  87 119 179 227 303 355 445 530
#     4  11  27  47  82 121 171 223 283 360 435 529
#     4  11  28  48  83 122 168 216 287 352 439 514
#     4  12  30  53  87 129 172 235 298 380 452 531
#     4  10  23  44  73 112 162 215 269 342 423 517
#     4  12  31  56  84 127 168 238 286 361 436 529
#
# _framework density 27.045997
#
# number of rings (size 3 to 8) (size 9 to 14) (size 15 to 20)
#    0.000    0.667    1.667    2.000   16.333    2.667 
#    0.000    0.000    0.000    0.000    0.000    0.000 
#    0.000    0.000    0.000    0.000    0.000    0.000 
#
# Total GULP energy -223137.181133 kJ/mol
# GULP energy per Si atom -12396.510063 kJ/mol
# Density = 2.698444 g / cm^3
# Si number density = 27.045997 Si / 1000 Ang^3
#
#
#
# Elastic Constant Matrix: (Units=GPa)
#
#
# Indices 1 2 3 4 5 6 
#
# 1 155.1719 54.6445 31.4591 6.3104 2.4887 0.0000
# 2 54.6445 155.1719 31.4591 -6.3104 -2.4887 0.0000
# 3 31.4591 31.4591 95.7233 0.0000 0.0000 0.0000
# 4 6.3104 -6.3104 0.0000 32.2367 0.0000 -2.4887
# 5 2.4887 -2.4887 0.0000 0.0000 32.2367 6.3104
# 6 0.0000 0.0000 0.0000 -2.4887 6.3104 50.2637
#
#
#
# Elastic Compliance Matrix: (Units=1/GPa)
#
#
# Indices 1 2 3 4 5 6 
#
# 1 0.007763 -0.002476 -0.001738 -0.002004 -0.000790 0.000000
# 2 -0.002476 0.007763 -0.001738 0.002004 0.000790 0.000000
# 3 -0.001738 -0.001738 0.011589 0.000000 0.000000 0.000000
# 4 -0.002004 0.002004 0.000000 0.031927 0.000000 0.001581
# 5 -0.000790 0.000790 0.000000 0.000000 0.031927 -0.004008
# 6 0.000000 0.000000 0.000000 0.001581 -0.004008 0.020477
#
#
# Mechanical properties :
#
#
# Convention : Reuss Voigt Hill
#
# Bulk Modulus (GPa) = 65.73426 71.24359 68.48893
# Shear Modulus (GPa) = 38.93542 42.18106 40.55824
#
# Velocity S-wave (km/s) = 3.79832 3.95347 3.87667
# Velocity P-wave (km/s) = 6.60255 6.87304 6.73915
#
# Compressibility (1/GPa) = 0.01521277
#
# Stress axis : x y z
#
# Youngs Moduli (GPa) = 128.82101 128.82101 86.28965
#
# Poissons Ratio (x) = 0.31891 0.14994
# Poissons Ratio (y) = 0.31891 0.14994
# Poissons Ratio (z) = 0.22384 0.22384
#
# Static dielectric constant tensor:
#      x y z
#    x 5.170180 0.000000 0.000000 
#    y 0.000000 5.170180 0.000000 
#    z 0.000000 0.000000 4.621510 
# 
# 
# High freq. dielectric constant tensor:
#      x y z
#    x 2.099480 0.000000 0.000000 
#    y 0.000000 2.099480 0.000000 
#    z 0.000000 0.000000 2.093150 
# 
# From -- ./inp_files/129.got.cif
#   From: 2010.03.12/outbox.cif.g09.slc.cpg/sg145_cif.got.tgz:129.got - 2010.04.03 13:35:35.
