data_PCOD8321094
_publ_section_title
;
Structure prediction by ZEFSAII (Michael W. Deem and Ramdas Pophale) SiO2 
 PCOD8321094
Probable space group: I 41/A C D
;
_chemical_formula_sum "Si O2"
_cell_formula_units_Z 176
_cell_length_a 18.315360
_cell_length_b 18.315360
_cell_length_c 25.042523
_cell_angle_alpha 90.000000
_cell_angle_beta 90.000000
_cell_angle_gamma 90.000000
_cell_volume 8400.574741
_symmetry_space_group_name_H-M "I 41/A C D"
_symmetry_group_IT_number 142
_space_group.IT_coordinate_system_code '2'
_symmetry_cell_setting 'tetragonal'
loop_
_space_group_symop_operation_xyz
x,y,z
1/4-y,3/4+x,1/4+z
-x,1/2-y,z
1/4+y,1/4-x,3/4+z
x,-y,1/2-z
1/2-x,y,-z
3/4+y,1/4+x,1/4-z
1/4-y,1/4-x,1/4-z
-x,-y,-z
3/4+y,1/4-x,3/4-z
x,1/2+y,-z
3/4-y,3/4+x,1/4-z
-x,y,1/2+z
1/2+x,-y,z
1/4-y,3/4-x,3/4+z
3/4+y,3/4+x,3/4+z
1/2+x,1/2+y,1/2+z
3/4-y,1/4+x,3/4+z
1/2-x,-y,1/2+z
3/4+y,3/4-x,1/4+z
1/2+x,1/2-y,-z
-x,1/2+y,1/2-z
1/4+y,3/4+x,3/4-z
3/4-y,3/4-x,3/4-z
1/2-x,1/2-y,1/2-z
1/4+y,3/4-x,1/4-z
1/2+x,y,1/2-z
1/4-y,1/4+x,3/4-z
1/2-x,1/2+y,z
x,1/2-y,1/2+z
3/4-y,1/4-x,1/4+z
1/4+y,1/4+x,1/4+z
loop_
_atom_site_type_symbol
_atom_site_label
_atom_site_fract_x
_atom_site_fract_y
_atom_site_fract_z
Si Si1 0.032842 0.999331 0.116733
Si Si2 0.363231 0.487165 0.911941
Si Si3 0.191966 0.188254 0.759524
Si Si4 0.618522 0.437718 0.707029
Si Si5 0.067256 0.209790 0.237253
Si Si6 0.411019 0.161019 0.875000
O O1 0.072874 0.945417 0.073482
O O2 0.047637 0.964366 0.174527
O O3 0.073894 0.076521 0.112095
O O4 0.945524 0.005750 0.110762
O O5 0.317714 0.432287 0.875000
O O6 0.322469 0.564815 0.915432
O O7 0.366439 0.458808 0.973834
O O8 0.250000 0.250000 0.750000
O O9 0.119411 0.221085 0.735469
O O10 0.638446 0.500000 0.750000
O O11 0.600224 0.359464 0.732402
O O12 0.044220 0.185416 0.177384
O O13 0.000000 0.250000 0.266528
#
# Coordination Sequence:
#
# PCOD8321094 Si02
#       6
#    32  32  32  32  32  16
#     4  11  24  42  71  98 139 180 232 284 352 418
#     4  11  25  44  71 103 137 184 234 285 347 421
#     4  10  20  45  66  92 138 179 219 283 348 408
#     4  12  26  46  68 102 144 184 232 285 351 430
#     4  12  25  42  70 105 135 179 230 285 357 411
#     4  12  21  40  74 102 126 170 230 303 340 398
#
# _framework density 20.950946999999999
#
# number of rings (size 3 to 8) (size 9 to 14) (size 15 to 20)
#    0.000    0.727    9.091    0.273    3.818    1.455 
#    0.000    0.909    0.000    0.000    0.000    0.000 
#    0.000    0.000    0.000    0.000    0.000    0.000 
#
# Total GULP energy -1090344.170923 kJ/mol
# GULP energy per Si atom -12390.274670 kJ/mol
# Density = 2.090326 g / cm^3
# Si number density = 20.950947 Si / 1000 Ang^3
#
#
#
# Elastic Constant Matrix: (Units=GPa)
#
#
# Indices 1 2 3 4 5 6 
#
# 1 95.4407 49.6865 41.1821 0.0000 0.0000 0.0000
# 2 49.6865 95.4417 41.1827 0.0000 0.0000 0.0000
# 3 41.1821 41.1827 109.8486 0.0000 0.0000 0.0000
# 4 0.0000 0.0000 0.0000 35.0935 0.0000 0.0000
# 5 0.0000 0.0000 0.0000 0.0000 35.0932 0.0000
# 6 0.0000 0.0000 0.0000 0.0000 0.0000 34.7064
#
#
#
# Elastic Compliance Matrix: (Units=1/GPa)
#
#
# Indices 1 2 3 4 5 6 
#
# 1 0.015304 -0.006551 -0.003281 0.000000 0.000000 0.000000
# 2 -0.006551 0.015304 -0.003281 0.000000 0.000000 0.000000
# 3 -0.003281 -0.003281 0.011564 0.000000 0.000000 0.000000
# 4 0.000000 0.000000 0.000000 0.028495 0.000000 0.000000
# 5 0.000000 0.000000 0.000000 0.000000 0.028496 0.000000
# 6 0.000000 0.000000 0.000000 0.000000 0.000000 0.028813
#
#
# Mechanical properties :
#
#
# Convention : Reuss Voigt Hill
#
# Bulk Modulus (GPa) = 62.72059 62.75929 62.73994
# Shear Modulus (GPa) = 31.34411 32.22393 31.78402
#
# Velocity S-wave (km/s) = 3.87210 3.92607 3.89918
# Velocity P-wave (km/s) = 7.07056 7.11143 7.09102
#
# Compressibility (1/GPa) = 0.01594373
#
# Stress axis : x y z
#
# Youngs Moduli (GPa) = 65.34109 65.34152 86.47626
#
# Poissons Ratio (x) = 0.42808 0.28376
# Poissons Ratio (y) = 0.42808 0.28377
# Poissons Ratio (z) = 0.21441 0.21442
#
# Static dielectric constant tensor:
#      x y z
#    x 3.672480 0.000000 0.000000 
#    y 0.000000 3.672480 0.000000 
#    z 0.000000 0.000000 5.141870 
# 
# 
# High freq. dielectric constant tensor:
#      x y z
#    x 1.817050 0.000000 0.000000 
#    y 0.000000 1.817050 0.000000 
#    z 0.000000 0.000000 1.827250 
# 
# From -- ./inp_files/11447.got.cif
#   From: 2010.03.12/outbox.cif.g09.slc.cpg/sg142_6_cif.got.tgz:11447.got - 2010.04.03 13:27:16.
