data_PCOD8321660
_publ_section_title
;
Structure prediction by ZEFSAII (Michael W. Deem and Ramdas Pophale) SiO2 
 PCOD8321660
Probable space group: P -3
;
_chemical_formula_sum "Si O2"
_cell_formula_units_Z 48
_cell_length_a 16.226929
_cell_length_b 16.226929
_cell_length_c 9.181810
_cell_angle_alpha 90.000000
_cell_angle_beta 90.000000
_cell_angle_gamma 120.000000
_cell_volume 2093.782691
_symmetry_space_group_name_H-M "P -3"
_symmetry_group_IT_number 147
_symmetry_cell_setting 'hexagonal'
loop_
_space_group_symop_operation_xyz
x,y,z
-y,x-y,z
-x+y,-x,z
-x,-y,-z
y,-x+y,-z
x-y,x,-z
loop_
_atom_site_type_symbol
_atom_site_label
_atom_site_fract_x
_atom_site_fract_y
_atom_site_fract_z
Si Si1 0.160585 0.499262 0.544139
Si Si2 0.828510 0.681014 0.183833
Si Si3 0.657353 0.521289 0.843352
Si Si4 0.518985 0.844574 0.649549
Si Si5 0.695934 0.012732 0.979785
Si Si6 0.485607 0.331828 0.794986
Si Si7 0.357437 0.030172 0.581915
Si Si8 0.070741 0.862643 0.521193
O O1 0.152342 0.573245 0.655782
O O2 0.263560 0.510148 0.548234
O O3 0.144523 0.507939 0.373647
O O4 0.083275 0.394110 0.602731
O O5 0.739120 0.570762 0.206562
O O6 0.789918 0.737117 0.083888
O O7 0.865184 0.737334 0.334859
O O8 0.916718 0.680292 0.105208
O O9 0.570789 0.417565 0.883486
O O10 0.753532 0.517409 0.843262
O O11 0.643552 0.554308 0.685821
O O12 0.654547 0.593493 0.957187
O O13 0.598154 0.943871 0.579830
O O14 0.680042 0.065505 0.844048
O O15 0.279393 0.063733 0.595417
O O16 0.963743 0.837741 0.560350
#
# Coordination Sequence:
#
# PCOD8321660 Si02
#       8
#     6   6   6   6   6   6   6   6
#     4  12  22  41  68 104 141 177 228 299 364 427
#     4  11  27  47  73 103 142 191 244 293 352 435
#     4  12  25  44  70 101 140 190 242 295 347 435
#     4  11  23  41  65 105 139 175 227 298 366 410
#     4  12  26  49  69 100 144 199 247 289 348 435
#     4  12  24  43  71 104 142 189 245 293 358 433
#     4  11  22  38  67  99 137 178 234 283 358 429
#     4  11  24  43  72 106 143 174 229 306 379 424
#
# _framework density 22.925014000000001
#
# number of rings (size 3 to 8) (size 9 to 14) (size 15 to 20)
#    0.000    0.500    3.750    5.875    3.500    1.000 
#    2.250    0.000    0.000    1.000    0.000    0.000 
#    0.000    0.000    0.000    0.000    0.000    0.000 
#
# Total GULP energy -594941.096346 kJ/mol
# GULP energy per Si atom -12394.606174 kJ/mol
# Density = 2.287284 g / cm^3
# Si number density = 22.925014 Si / 1000 Ang^3
#
#
#
# Elastic Constant Matrix: (Units=GPa)
#
#
# Indices 1 2 3 4 5 6 
#
# 1 114.2191 44.4126 29.0056 1.2148 7.1306 0.0000
# 2 44.4126 114.2191 29.0056 -1.2148 -7.1306 0.0000
# 3 29.0056 29.0056 70.0205 0.0000 0.0000 0.0000
# 4 1.2148 -1.2148 0.0000 32.1310 0.0000 -7.1306
# 5 7.1306 -7.1306 0.0000 0.0000 32.1310 1.2148
# 6 0.0000 0.0000 0.0000 -7.1306 1.2148 34.9033
#
#
#
# Elastic Compliance Matrix: (Units=1/GPa)
#
#
# Indices 1 2 3 4 5 6 
#
# 1 0.011228 -0.003798 -0.003078 -0.000568 -0.003335 0.000000
# 2 -0.003798 0.011228 -0.003078 0.000568 0.003335 0.000000
# 3 -0.003078 -0.003078 0.016831 0.000000 0.000000 0.000000
# 4 -0.000568 0.000568 0.000000 0.032646 0.000000 0.006669
# 5 -0.003335 0.003335 0.000000 0.000000 0.032646 -0.001136
# 6 0.000000 0.000000 0.000000 0.006669 -0.001136 0.030053
#
#
# Mechanical properties :
#
#
# Convention : Reuss Voigt Hill
#
# Bulk Modulus (GPa) = 51.60034 55.92292 53.76163
# Shear Modulus (GPa) = 31.05625 32.90205 31.97915
#
# Velocity S-wave (km/s) = 3.68460 3.79252 3.73895
# Velocity P-wave (km/s) = 6.37643 6.60488 6.49166
#
# Compressibility (1/GPa) = 0.01937972
#
# Stress axis : x y z
#
# Youngs Moduli (GPa) = 89.06417 89.06417 59.41322
#
# Poissons Ratio (x) = 0.33831 0.18285
# Poissons Ratio (y) = 0.33831 0.18285
# Poissons Ratio (z) = 0.27410 0.27410
#
# Static dielectric constant tensor:
#      x y z
#    x 4.249980 0.000000 0.000000 
#    y 0.000000 4.249980 0.000000 
#    z 0.000000 0.000000 3.997870 
# 
# 
# High freq. dielectric constant tensor:
#      x y z
#    x 1.915470 0.000000 0.000000 
#    y 0.000000 1.915470 0.000000 
#    z 0.000000 0.000000 1.886500 
# 
# From -- ./inp_files/673.got.cif
#   From: 2010.03.12/outbox.cif.g09.slc.cpg/sg147_cif.got.tgz:673.got - 2010.04.03 13:37:56.
