data_PCOD8321601
_publ_section_title
;
Structure prediction by ZEFSAII (Michael W. Deem and Ramdas Pophale) SiO2 
 PCOD8321601
Probable space group: P -3
;
_chemical_formula_sum "Si O2"
_cell_formula_units_Z 48
_cell_length_a 12.795180
_cell_length_b 12.795180
_cell_length_c 20.110561
_cell_angle_alpha 90.000000
_cell_angle_beta 90.000000
_cell_angle_gamma 120.000000
_cell_volume 2851.330877
_symmetry_space_group_name_H-M "P -3"
_symmetry_group_IT_number 147
_symmetry_cell_setting 'hexagonal'
loop_
_space_group_symop_operation_xyz
x,y,z
-y,x-y,z
-x+y,-x,z
-x,-y,-z
y,-x+y,-z
x-y,x,-z
loop_
_atom_site_type_symbol
_atom_site_label
_atom_site_fract_x
_atom_site_fract_y
_atom_site_fract_z
Si Si1 0.333031 0.909951 0.120795
Si Si2 0.906335 0.333176 0.235150
Si Si3 0.426482 0.333133 0.386215
Si Si4 0.333176 0.906335 0.764850
Si Si5 0.000000 0.244115 0.000000
Si Si6 0.093349 0.666867 0.613785
Si Si7 0.000000 0.755911 0.500000
Si Si8 0.909951 0.333031 0.879205
O O1 0.226296 0.773704 0.129297
O O2 0.454230 0.908460 0.102881
O O3 0.344811 0.979513 0.189217
O O4 0.307093 0.979022 0.062946
O O5 0.794684 0.205316 0.213103
O O6 0.864405 0.432203 0.228084
O O7 0.946491 0.329658 0.310612
O O8 0.383167 0.329658 0.310612
O O9 0.539225 0.460775 0.404969
O O10 0.465215 0.232608 0.396748
O O11 0.318108 0.311369 0.434261
O O12 0.365298 0.020487 0.810783
O O13 0.979022 0.307093 0.937054
O O14 0.114083 0.228165 0.985138
O O15 0.006740 0.688631 0.565739
O O16 0.885786 0.771572 0.508591
#
# Coordination Sequence:
#
# PCOD8321601 Si02
#       8
#     6   6   6   6   6   6   6   6
#     4  10  20  33  49  69  95 126 157 188 223 267
#     4   9  17  30  49  72  95 119 149 187 231 275
#     4   9  17  30  49  71  93 117 148 189 234 276
#     4   9  17  30  49  72  95 119 149 187 231 275
#     4  10  20  34  52  72  94 120 152 192 234 274
#     4   9  17  30  49  71  93 117 148 189 234 276
#     4  10  20  32  46  64  90 124 158 190 224 268
#     4  10  20  33  49  69  95 126 157 188 223 267
#
# _framework density 16.834243000000001
#
# number of rings (size 3 to 8) (size 9 to 14) (size 15 to 20)
#    0.000    2.500    0.000    2.500    0.000    3.000 
#    0.000    0.000    0.000    9.000    0.000    0.000 
#    0.000    0.000    0.000    0.000    0.000    0.000 
#
# Total GULP energy -595305.244650 kJ/mol
# GULP energy per Si atom -12402.192597 kJ/mol
# Density = 1.679593 g / cm^3
# Si number density = 16.834243 Si / 1000 Ang^3
#
#
#
# Elastic Constant Matrix: (Units=GPa)
#
#
# Indices 1 2 3 4 5 6 
#
# 1 112.4682 71.8060 68.7026 1.5479 0.0000 0.0000
# 2 71.8060 112.4682 68.7026 -1.5479 0.0000 0.0000
# 3 68.7026 68.7026 111.0347 0.0000 0.0000 0.0000
# 4 1.5479 -1.5479 0.0000 27.0253 0.0000 0.0000
# 5 0.0000 0.0000 0.0000 0.0000 27.0253 1.5479
# 6 0.0000 0.0000 0.0000 0.0000 1.5479 20.3311
#
#
#
# Elastic Compliance Matrix: (Units=1/GPa)
#
#
# Indices 1 2 3 4 5 6 
#
# 1 0.017388 -0.007313 -0.006234 -0.001415 0.000000 0.000000
# 2 -0.007313 0.017388 -0.006234 0.001415 0.000000 0.000000
# 3 -0.006234 -0.006234 0.016721 0.000000 0.000000 0.000000
# 4 -0.001415 0.001415 0.000000 0.037164 0.000000 0.000000
# 5 0.000000 0.000000 0.000000 0.000000 0.037164 -0.002829
# 6 0.000000 0.000000 0.000000 0.000000 -0.002829 0.049401
#
#
# Mechanical properties :
#
#
# Convention : Reuss Voigt Hill
#
# Bulk Modulus (GPa) = 83.78671 83.82148 83.80410
# Shear Modulus (GPa) = 22.85549 23.32702 23.09125
#
# Velocity S-wave (km/s) = 3.68867 3.72652 3.70764
# Velocity P-wave (km/s) = 8.24750 8.27141 8.25947
#
# Compressibility (1/GPa) = 0.01193507
#
# Stress axis : x y z
#
# Youngs Moduli (GPa) = 57.51149 57.51149 59.80626
#
# Poissons Ratio (x) = 0.42057 0.37283
# Poissons Ratio (y) = 0.42057 0.37283
# Poissons Ratio (z) = 0.35852 0.35852
#
# Static dielectric constant tensor:
#      x y z
#    x 3.102220 0.000000 0.000000 
#    y 0.000000 3.102220 0.000000 
#    z 0.000000 0.000000 3.290430 
# 
# 
# High freq. dielectric constant tensor:
#      x y z
#    x 1.649560 0.000000 0.000000 
#    y 0.000000 1.649560 0.000000 
#    z 0.000000 0.000000 1.657400 
# 
# From -- ./inp_files/1076.got.cif
#   From: 2010.03.12/outbox.cif.g09.slc.cpg/sg147_cif.got.tgz:1076.got - 2010.04.03 13:37:56.
