data_PCOD8321590
_publ_section_title
;
Structure prediction by ZEFSAII (Michael W. Deem and Ramdas Pophale) SiO2 
 PCOD8321590
Probable space group: P -3
;
_chemical_formula_sum "Si O2"
_cell_formula_units_Z 40
_cell_length_a 17.567865
_cell_length_b 17.567865
_cell_length_c 9.974905
_cell_angle_alpha 90.000000
_cell_angle_beta 90.000000
_cell_angle_gamma 120.000000
_cell_volume 2666.105746
_symmetry_space_group_name_H-M "P -3"
_symmetry_group_IT_number 147
_symmetry_cell_setting 'hexagonal'
loop_
_space_group_symop_operation_xyz
x,y,z
-y,x-y,z
-x+y,-x,z
-x,-y,-z
y,-x+y,-z
x-y,x,-z
loop_
_atom_site_type_symbol
_atom_site_label
_atom_site_fract_x
_atom_site_fract_y
_atom_site_fract_z
Si Si1 0.052776 0.439142 0.146021
Si Si2 0.666667 0.333335 0.479803
Si Si3 0.235796 0.468235 0.202631
Si Si4 0.617102 0.551653 0.394562
Si Si5 0.769665 0.531920 0.477028
Si Si6 0.666668 0.333335 0.796268
Si Si7 0.062017 0.446181 0.634239
Si Si8 0.051339 0.615383 0.120513
O O1 0.138616 0.428168 0.138695
O O2 0.080679 0.542182 0.144933
O O3 0.004712 0.392949 0.283820
O O4 0.984723 0.387731 0.027667
O O5 0.724083 0.431867 0.427867
O O6 0.666668 0.333334 0.638192
O O7 0.229666 0.459519 0.362974
O O8 0.290070 0.567885 0.151009
O O9 0.286945 0.420318 0.145129
O O10 0.717594 0.574083 0.404541
O O11 0.593832 0.570868 0.540710
O O12 0.551974 0.448464 0.361318
O O13 0.868353 0.580451 0.419873
O O14 0.028803 0.404162 0.780281
#
# Coordination Sequence:
#
# PCOD8321590 Si02
#       8
#     6   2   6   6   6   2   6   6
#     4  10  21  34  47  68  98 129 163 204 248 288
#     4   9  18  24  39  76  92 124 174 208 236 271
#     4  11  18  31  51  69  91 129 170 210 240 286
#     4  10  19  30  46  69  94 122 162 207 244 278
#     4  11  18  29  49  71  96 126 170 214 239 275
#     4   9  18  24  45  73  89 118 180 208 230 280
#     4  10  19  30  46  69  94 122 162 207 244 278
#     4  10  21  34  47  68  98 129 163 204 248 288
#
# _framework density 15.003156000000001
#
# number of rings (size 3 to 8) (size 9 to 14) (size 15 to 20)
#    0.000    1.800    6.000    0.000    0.000    1.200 
#    0.000    0.000    0.000    0.000    0.000    0.000 
#    0.000    0.000    0.000   18.000    0.000    0.000 
#
# Total GULP energy -495918.651737 kJ/mol
# GULP energy per Si atom -12397.966293 kJ/mol
# Density = 1.496901 g / cm^3
# Si number density = 15.003156 Si / 1000 Ang^3
#
#
#
# Elastic Constant Matrix: (Units=GPa)
#
#
# Indices 1 2 3 4 5 6 
#
# 1 72.7542 26.2382 15.8262 -0.2181 -2.6725 -0.0002
# 2 26.2382 72.7551 15.8262 0.2182 2.6723 -0.0001
# 3 15.8262 15.8262 53.8860 0.0001 0.0000 0.0000
# 4 -0.2181 0.2182 0.0001 18.0377 0.0000 2.6723
# 5 -2.6725 2.6723 0.0000 0.0000 18.0377 -0.2181
# 6 -0.0002 -0.0001 0.0000 2.6723 -0.2181 23.2578
#
#
#
# Elastic Compliance Matrix: (Units=1/GPa)
#
#
# Indices 1 2 3 4 5 6 
#
# 1 0.016511 -0.005362 -0.003274 0.000264 0.003241 0.000000
# 2 -0.005362 0.016511 -0.003274 -0.000265 -0.003241 0.000000
# 3 -0.003274 -0.003274 0.020481 0.000000 0.000000 0.000000
# 4 0.000264 -0.000265 0.000000 0.056406 0.000000 -0.006481
# 5 0.003241 -0.003241 0.000000 0.000000 0.056406 0.000529
# 6 0.000000 0.000000 0.000000 -0.006481 0.000529 0.043746
#
#
# Mechanical properties :
#
#
# Convention : Reuss Voigt Hill
#
# Bulk Modulus (GPa) = 33.69155 35.01961 34.35558
# Shear Modulus (GPa) = 20.51072 21.30031 20.90551
#
# Velocity S-wave (km/s) = 3.70143 3.77201 3.73689
# Velocity P-wave (km/s) = 6.38534 6.50868 6.44730
#
# Compressibility (1/GPa) = 0.02968104
#
# Stress axis : x y z
#
# Youngs Moduli (GPa) = 60.56662 60.56741 48.82570
#
# Poissons Ratio (x) = 0.32476 0.15987
# Poissons Ratio (y) = 0.32476 0.15987
# Poissons Ratio (z) = 0.19832 0.19832
#
# Static dielectric constant tensor:
#      x y z
#    x 2.717550 0.000000 0.000000 
#    y 0.000000 2.717540 0.000000 
#    z 0.000000 0.000000 2.784110 
# 
# 
# High freq. dielectric constant tensor:
#      x y z
#    x 1.549730 0.000000 0.000000 
#    y 0.000000 1.549730 0.000000 
#    z 0.000000 0.000000 1.571580 
# 
# From -- ./inp_files/659.got.cif
#   From: 2010.03.12/outbox.cif.g09.slc.cpg/sg147_cif.got.tgz:659.got - 2010.04.03 13:37:56.
