data_PCOD8321665
_publ_section_title
;
Structure prediction by ZEFSAII (Michael W. Deem and Ramdas Pophale) SiO2 
 PCOD8321665
Probable space group: P -3
;
_chemical_formula_sum "Si O2"
_cell_formula_units_Z 48
_cell_length_a 16.637572
_cell_length_b 16.637572
_cell_length_c 13.344082
_cell_angle_alpha 90.000000
_cell_angle_beta 90.000000
_cell_angle_gamma 120.000000
_cell_volume 3198.889435
_symmetry_space_group_name_H-M "P -3"
_symmetry_group_IT_number 147
_symmetry_cell_setting 'hexagonal'
loop_
_space_group_symop_operation_xyz
x,y,z
-y,x-y,z
-x+y,-x,z
-x,-y,-z
y,-x+y,-z
x-y,x,-z
loop_
_atom_site_type_symbol
_atom_site_label
_atom_site_fract_x
_atom_site_fract_y
_atom_site_fract_z
Si Si1 0.743467 0.074064 0.916522
Si Si2 0.520954 0.667879 0.250000
Si Si3 0.256533 0.925937 0.416522
Si Si4 0.669404 0.925937 0.416522
Si Si5 0.520954 0.853076 0.250000
Si Si6 0.256533 0.330597 0.083478
Si Si7 0.002111 0.822257 0.250000
Si Si8 0.822257 0.002111 0.750000
O O1 0.678382 0.098758 0.849825
O O2 0.830482 0.169518 0.960621
O O3 0.783163 0.023019 0.849127
O O4 0.679314 1.000000 1.000000
O O5 0.579626 0.678383 0.349824
O O6 0.489864 0.744932 0.250001
O O7 0.432839 0.567161 0.250001
O O8 0.169518 0.830482 0.460620
O O9 0.216836 0.976982 0.349128
O O10 0.320685 1.000000 0.500000
O O11 0.579626 0.901243 0.349824
O O12 0.760146 0.976982 0.349127
O O13 0.579624 0.901242 0.150175
O O14 0.216837 0.239856 0.150873
O O15 0.895243 0.790487 0.249999
O O16 0.066216 0.933784 0.249999
#
# Coordination Sequence:
#
# PCOD8321665 Si02
#       8
#     6   6   6   6   6   6   6   6
#     4   9  17  28  42  61  84 109 136 166 201 238
#     4   9  18  31  46  63  81 103 132 167 206 245
#     4   9  17  28  42  61  84 109 136 166 201 238
#     4   9  17  28  42  61  84 109 136 166 201 238
#     4   9  18  31  46  63  81 103 132 167 206 245
#     4   9  17  28  42  61  84 109 136 166 201 238
#     4   9  16  25  38  57  83 115 146 171 194 225
#     4   9  16  25  38  57  83 115 146 171 194 225
#
# _framework density 15.005208
#
# number of rings (size 3 to 8) (size 9 to 14) (size 15 to 20)
#    0.000    3.000    0.000    5.000    0.000    1.000 
#    0.000    0.000    0.000    8.000    0.000    0.000 
#    0.000    0.000    0.000   10.000    0.000    0.000 
#
# Total GULP energy -594903.324926 kJ/mol
# GULP energy per Si atom -12393.819269 kJ/mol
# Density = 1.497106 g / cm^3
# Si number density = 15.005208 Si / 1000 Ang^3
#
#
#
# Elastic Constant Matrix: (Units=GPa)
#
#
# Indices 1 2 3 4 5 6 
#
# 1 107.1121 58.1570 45.0662 -0.0007 0.0013 0.0000
# 2 58.1570 107.1121 45.0662 0.0007 -0.0013 0.0000
# 3 45.0662 45.0662 79.7365 0.0000 0.0000 0.0000
# 4 -0.0007 0.0007 0.0000 -68.5949 0.0000 -0.0013
# 5 0.0013 -0.0013 0.0000 0.0000 -68.5949 -0.0007
# 6 0.0000 0.0000 0.0000 -0.0013 -0.0007 24.4775
#
#
#
# Elastic Compliance Matrix: (Units=1/GPa)
#
#
# Indices 1 2 3 4 5 6 
#
# 1 0.014587 -0.005840 -0.004944 0.000000 0.000000 0.000000
# 2 -0.005840 0.014587 -0.004944 0.000000 0.000000 0.000000
# 3 -0.004944 -0.004944 0.018129 0.000000 0.000000 0.000000
# 4 0.000000 0.000000 0.000000 -0.014578 0.000000 -0.000001
# 5 0.000000 0.000000 0.000000 0.000000 -0.014578 0.000000
# 6 0.000000 0.000000 0.000000 -0.000001 0.000000 0.040854
#
#
# Mechanical properties :
#
#
# Convention : Reuss Voigt Hill
#
# Bulk Modulus (GPa) = 63.09681 65.61552 64.35617
# Shear Modulus (GPa) = 52.22607 -12.83105 19.69751
#
# Velocity S-wave (km/s) = 5.90600 -2.92739 3.62707
# Velocity P-wave (km/s) = 9.41536 5.69186 7.77966
#
# Compressibility (1/GPa) = 0.01584866
#
# Stress axis : x y z
#
# Youngs Moduli (GPa) = 68.55489 68.55489 55.15886
#
# Poissons Ratio (x) = 0.40036 0.27268
# Poissons Ratio (y) = 0.40036 0.27268
# Poissons Ratio (z) = 0.33891 0.33891
#
# Static dielectric constant tensor:
#      x y z
#    x 2.760980 0.000000 0.000000 
#    y 0.000000 2.760980 0.000000 
#    z 0.000000 0.000000 2.919460 
# 
# 
# High freq. dielectric constant tensor:
#      x y z
#    x 1.567060 0.000000 0.000000 
#    y 0.000000 1.567060 0.000000 
#    z 0.000000 0.000000 1.567420 
# 
# From -- ./inp_files/881.got.cif
#   From: 2010.03.12/outbox.cif.g09.slc.cpg/sg147_cif.got.tgz:881.got - 2010.04.03 13:37:56.
