data_PCOD8321302
_publ_section_title
;
Structure prediction by ZEFSAII (Michael W. Deem and Ramdas Pophale) SiO2 
 PCOD8321302
Probable space group: I 41/A C D
;
_chemical_formula_sum "Si O2"
_cell_formula_units_Z 240
_cell_length_a 26.970313
_cell_length_b 26.970313
_cell_length_c 17.000229
_cell_angle_alpha 90.000000
_cell_angle_beta 90.000000
_cell_angle_gamma 90.000000
_cell_volume 12365.928890
_symmetry_space_group_name_H-M "I 41/A C D"
_symmetry_group_IT_number 142
_space_group.IT_coordinate_system_code '2'
_symmetry_cell_setting 'tetragonal'
loop_
_space_group_symop_operation_xyz
x,y,z
1/4-y,3/4+x,1/4+z
-x,1/2-y,z
1/4+y,1/4-x,3/4+z
x,-y,1/2-z
1/2-x,y,-z
3/4+y,1/4+x,1/4-z
1/4-y,1/4-x,1/4-z
-x,-y,-z
3/4+y,1/4-x,3/4-z
x,1/2+y,-z
3/4-y,3/4+x,1/4-z
-x,y,1/2+z
1/2+x,-y,z
1/4-y,3/4-x,3/4+z
3/4+y,3/4+x,3/4+z
1/2+x,1/2+y,1/2+z
3/4-y,1/4+x,3/4+z
1/2-x,-y,1/2+z
3/4+y,3/4-x,1/4+z
1/2+x,1/2-y,-z
-x,1/2+y,1/2-z
1/4+y,3/4+x,3/4-z
3/4-y,3/4-x,3/4-z
1/2-x,1/2-y,1/2-z
1/4+y,3/4-x,1/4-z
1/2+x,y,1/2-z
1/4-y,1/4+x,3/4-z
1/2-x,1/2+y,z
x,1/2-y,1/2+z
3/4-y,1/4-x,1/4+z
1/4+y,1/4+x,1/4+z
loop_
_atom_site_type_symbol
_atom_site_label
_atom_site_fract_x
_atom_site_fract_y
_atom_site_fract_z
Si Si1 0.802944 0.813278 0.171543
Si Si2 0.439244 0.555836 0.088132
Si Si3 0.948582 0.718805 0.509559
Si Si4 0.591086 0.658915 0.625000
Si Si5 0.946265 0.443743 0.910654
Si Si6 0.405868 0.653899 0.392599
Si Si7 0.697437 0.305669 0.350535
Si Si8 0.101942 0.308495 0.053715
O O1 0.749336 0.828675 0.135436
O O2 0.811203 0.754979 0.163662
O O3 0.845897 0.839796 0.119585
O O4 0.807663 0.828913 0.263326
O O5 0.415477 0.599904 0.140005
O O6 0.497500 0.559587 0.095478
O O7 0.423371 0.561687 0.997394
O O8 0.945070 0.672999 0.448257
O O9 0.938610 0.694963 0.595395
O O10 0.902285 0.753191 0.482333
O O11 0.000000 0.750000 0.508122
O O12 0.923284 0.399995 0.859724
O O13 0.931602 0.496554 0.870847
O O14 0.418733 0.655715 0.485235
O O15 0.656444 0.324392 0.413576
O O16 0.062963 0.312963 0.125000
#
# Coordination Sequence:
#
# PCOD8321302 Si02
#       8
#    32  32  32  16  32  32  32  32
#     4   9  19  37  57  84 116 155 192 250 306 349
#     4   9  18  35  62  82 113 151 201 246 298 355
#     4  12  28  38  53  85 130 168 196 239 288 365
#     4  12  19  40  64  86 112 160 208 240 300 374
#     4   9  19  36  59  83 114 152 195 246 302 353
#     4  12  24  38  57  85 120 157 200 246 305 353
#     4   9  18  38  59  82 110 153 201 247 289 354
#     4  12  24  38  57  84 118 161 202 236 280 362
#
# _framework density 19.408166999999999
#
# number of rings (size 3 to 8) (size 9 to 14) (size 15 to 20)
#    0.000    1.600    4.000    3.400    3.733    0.533 
#    0.000    0.667    0.000    0.000    1.733    0.000 
#    0.000    0.000    0.000    0.000    0.000    0.000 
#
# Total GULP energy -1486727.445815 kJ/mol
# GULP energy per Si atom -12389.395382 kJ/mol
# Density = 1.936399 g / cm^3
# Si number density = 19.408167 Si / 1000 Ang^3
#
#
#
# Elastic Constant Matrix: (Units=GPa)
#
#
# Indices 1 2 3 4 5 6 
#
# 1 115.9661 46.9412 33.2328 0.0000 0.0000 0.0000
# 2 46.9412 115.9647 33.2328 0.0000 0.0000 0.0000
# 3 33.2328 33.2328 81.4089 0.0000 0.0000 0.0000
# 4 0.0000 0.0000 0.0000 21.9618 0.0000 0.0000
# 5 0.0000 0.0000 0.0000 0.0000 21.9617 0.0000
# 6 0.0000 0.0000 0.0000 0.0000 0.0000 19.1226
#
#
#
# Elastic Compliance Matrix: (Units=1/GPa)
#
#
# Indices 1 2 3 4 5 6 
#
# 1 0.010926 -0.003561 -0.003007 0.000000 0.000000 0.000000
# 2 -0.003561 0.010927 -0.003007 0.000000 0.000000 0.000000
# 3 -0.003007 -0.003007 0.014738 0.000000 0.000000 0.000000
# 4 0.000000 0.000000 0.000000 0.045534 0.000000 0.000000
# 5 0.000000 0.000000 0.000000 0.000000 0.045534 0.000000
# 6 0.000000 0.000000 0.000000 0.000000 0.000000 0.052294
#
#
# Mechanical properties :
#
#
# Convention : Reuss Voigt Hill
#
# Bulk Modulus (GPa) = 57.33194 60.01703 58.67448
# Shear Modulus (GPa) = 24.40024 25.93807 25.16916
#
# Velocity S-wave (km/s) = 3.54957 3.65972 3.60506
# Velocity P-wave (km/s) = 6.81201 6.98919 6.90117
#
# Compressibility (1/GPa) = 0.01744229
#
# Stress axis : x y z
#
# Youngs Moduli (GPa) = 91.52184 91.52059 67.84997
#
# Poissons Ratio (x) = 0.32593 0.20400
# Poissons Ratio (y) = 0.32593 0.20400
# Poissons Ratio (z) = 0.27517 0.27517
#
# Static dielectric constant tensor:
#      x y z
#    x 3.639580 0.000000 0.000000 
#    y 0.000000 3.639600 0.000000 
#    z 0.000000 0.000000 3.588530 
# 
# 
# High freq. dielectric constant tensor:
#      x y z
#    x 1.736180 0.000000 0.000000 
#    y 0.000000 1.736190 0.000000 
#    z 0.000000 0.000000 1.748240 
# 
# From -- ./inp_files/7811.got.cif
#   From: 2010.03.12/outbox.cif.g09.slc.cpg/sg142_4_cif.got.tgz:7811.got - 2010.04.03 13:27:16.
