data_PCOD8321299
_publ_section_title
;
Structure prediction by ZEFSAII (Michael W. Deem and Ramdas Pophale) SiO2 
 PCOD8321299
Probable space group: I 41/A C D
;
_chemical_formula_sum "Si O2"
_cell_formula_units_Z 96
_cell_length_a 18.929565
_cell_length_b 18.929565
_cell_length_c 11.378972
_cell_angle_alpha 90.000000
_cell_angle_beta 90.000000
_cell_angle_gamma 90.000000
_cell_volume 4077.409184
_symmetry_space_group_name_H-M "I 41/A C D"
_symmetry_group_IT_number 142
_space_group.IT_coordinate_system_code '2'
_symmetry_cell_setting 'tetragonal'
loop_
_space_group_symop_operation_xyz
x,y,z
1/4-y,3/4+x,1/4+z
-x,1/2-y,z
1/4+y,1/4-x,3/4+z
x,-y,1/2-z
1/2-x,y,-z
3/4+y,1/4+x,1/4-z
1/4-y,1/4-x,1/4-z
-x,-y,-z
3/4+y,1/4-x,3/4-z
x,1/2+y,-z
3/4-y,3/4+x,1/4-z
-x,y,1/2+z
1/2+x,-y,z
1/4-y,3/4-x,3/4+z
3/4+y,3/4+x,3/4+z
1/2+x,1/2+y,1/2+z
3/4-y,1/4+x,3/4+z
1/2-x,-y,1/2+z
3/4+y,3/4-x,1/4+z
1/2+x,1/2-y,-z
-x,1/2+y,1/2-z
1/4+y,3/4+x,3/4-z
3/4-y,3/4-x,3/4-z
1/2-x,1/2-y,1/2-z
1/4+y,3/4-x,1/4-z
1/2+x,y,1/2-z
1/4-y,1/4+x,3/4-z
1/2-x,1/2+y,z
x,1/2-y,1/2+z
3/4-y,1/4-x,1/4+z
1/4+y,1/4+x,1/4+z
loop_
_atom_site_type_symbol
_atom_site_label
_atom_site_fract_x
_atom_site_fract_y
_atom_site_fract_z
Si Si1 0.787415 0.962586 0.375000
Si Si2 0.363435 0.113435 0.875000
Si Si3 0.064760 0.840882 0.142484
Si Si4 0.268846 0.832192 0.265147
O O1 0.750000 0.985819 0.500000
O O2 0.767480 0.879377 0.354467
O O3 0.397666 0.151304 0.765193
O O4 0.280206 0.131312 0.865723
O O5 0.091059 0.768657 0.083571
O O6 0.089934 0.901544 0.056643
O O7 0.250000 0.750000 0.250000
#
# Coordination Sequence:
#
# PCOD8321299 Si02
#       4
#    16  16  32  32
#     4  12  29  52  84 120 166 214 272 336 409 494
#     4  12  25  49  80 109 160 203 262 341 399 490
#     4  11  26  47  76 113 155 209 266 327 408 487
#     4  12  27  49  78 117 155 208 268 333 405 488
#
# _framework density 23.544364000000002
#
# number of rings (size 3 to 8) (size 9 to 14) (size 15 to 20)
#    0.000    0.333    3.333    4.000    4.667    2.667 
#    0.000    0.000    0.000    0.000    0.000    0.000 
#    0.000    0.000    0.000    0.000    0.000    0.000 
#
# Total GULP energy -594919.889497 kJ/mol
# GULP energy per Si atom -12394.164365 kJ/mol
# Density = 2.349078 g / cm^3
# Si number density = 23.544364 Si / 1000 Ang^3
#
#
#
# Elastic Constant Matrix: (Units=GPa)
#
#
# Indices 1 2 3 4 5 6 
#
# 1 123.2587 34.1054 21.7370 0.0000 0.0000 0.0000
# 2 34.1054 123.2561 21.7365 0.0000 0.0000 0.0000
# 3 21.7370 21.7365 88.1794 0.0000 0.0000 0.0000
# 4 0.0000 0.0000 0.0000 37.8798 0.0000 0.0000
# 5 0.0000 0.0000 0.0000 0.0000 37.8804 0.0000
# 6 0.0000 0.0000 0.0000 0.0000 0.0000 37.0160
#
#
#
# Elastic Compliance Matrix: (Units=1/GPa)
#
#
# Indices 1 2 3 4 5 6 
#
# 1 0.009018 -0.002199 -0.001681 0.000000 0.000000 0.000000
# 2 -0.002199 0.009018 -0.001681 0.000000 0.000000 0.000000
# 3 -0.001681 -0.001681 0.012169 0.000000 0.000000 0.000000
# 4 0.000000 0.000000 0.000000 0.026399 0.000000 0.000000
# 5 0.000000 0.000000 0.000000 0.000000 0.026399 0.000000
# 6 0.000000 0.000000 0.000000 0.000000 0.000000 0.027015
#
#
# Mechanical properties :
#
#
# Convention : Reuss Voigt Hill
#
# Bulk Modulus (GPa) = 52.40077 54.42799 53.41438
# Shear Modulus (GPa) = 39.21525 39.69626 39.45576
#
# Velocity S-wave (km/s) = 4.08559 4.11057 4.09810
# Velocity P-wave (km/s) = 6.67537 6.75992 6.71778
#
# Compressibility (1/GPa) = 0.01908369
#
# Stress axis : x y z
#
# Youngs Moduli (GPa) = 110.89086 110.88865 82.17433
#
# Poissons Ratio (x) = 0.24383 0.13813
# Poissons Ratio (y) = 0.24383 0.13813
# Poissons Ratio (z) = 0.18640 0.18640
#
# Static dielectric constant tensor:
#      x y z
#    x 4.590520 0.000000 0.000000 
#    y 0.000000 4.590570 0.000000 
#    z 0.000000 0.000000 3.910510 
# 
# 
# High freq. dielectric constant tensor:
#      x y z
#    x 1.954730 0.000000 0.000000 
#    y 0.000000 1.954730 0.000000 
#    z 0.000000 0.000000 1.913850 
# 
# From -- ./inp_files/3231.got.cif
#   From: 2010.03.12/outbox.cif.g09.slc.cpg/sg142_2_cif.got.tgz:3231.got - 2010.04.03 13:27:16.
