data_PCOD8321360
_publ_section_title
;
Structure prediction by ZEFSAII (Michael W. Deem and Ramdas Pophale) SiO2 
 PCOD8321360
Probable space group: P 31
;
_chemical_formula_sum "Si O2"
_cell_formula_units_Z 24
_cell_length_a 15.973404
_cell_length_b 15.973404
_cell_length_c 5.125043
_cell_angle_alpha 90.000000
_cell_angle_beta 90.000000
_cell_angle_gamma 120.000000
_cell_volume 1132.460590
_symmetry_space_group_name_H-M "P 31"
_symmetry_group_IT_number 144
_symmetry_cell_setting 'hexagonal'
loop_
_space_group_symop_operation_xyz
x,y,z
-y,x-y,1/3+z
-x+y,-x,2/3+z
loop_
_atom_site_type_symbol
_atom_site_label
_atom_site_fract_x
_atom_site_fract_y
_atom_site_fract_z
Si Si1 0.509138 0.730748 0.342190
Si Si2 0.169720 0.274740 0.937362
Si Si3 0.981082 0.773714 0.088390
Si Si4 0.915438 0.909797 0.282232
Si Si5 0.157530 0.554944 0.534435
Si Si6 0.576464 0.248771 0.261026
Si Si7 0.561645 0.058592 0.272560
Si Si8 0.685583 0.125964 0.788199
O O1 0.619430 0.813922 0.356287
O O2 0.472124 0.666676 0.604995
O O3 0.440337 0.773669 0.271632
O O4 0.508724 0.666658 0.104997
O O5 0.200648 0.264507 0.643095
O O6 0.054561 0.200296 0.989719
O O7 0.229084 0.249395 0.139082
O O8 0.941687 0.849050 0.080552
O O9 0.889700 0.666666 0.104962
O O10 0.980538 0.924855 0.534321
O O11 0.047238 0.527824 0.520302
O O12 0.686129 0.277650 0.342269
O O13 0.520931 0.133037 0.220205
O O14 0.515717 0.275022 0.462706
O O15 0.602808 0.068826 0.566825
O O16 0.646353 0.083937 0.070838
#
# Coordination Sequence:
#
# PCOD8321360 Si02
#       8
#     3   3   3   3   3   3   3   3
#     4  12  25  44  68  95 129 169 217 271 335 399
#     4  11  24  41  65  93 129 166 218 268 324 385
#     4  11  22  38  63  92 129 170 217 267 320 382
#     4  10  20  39  63  91 129 173 219 255 325 382
#     4  12  25  44  68  95 129 169 217 271 335 399
#     4  10  20  39  63  91 129 173 219 255 325 382
#     4  11  24  41  65  93 129 166 218 268 324 385
#     4  11  22  38  63  92 129 170 217 267 320 382
#
# _framework density 21.192789999999999
#
# number of rings (size 3 to 8) (size 9 to 14) (size 15 to 20)
#    0.000    1.000    2.500    5.250    0.000    1.000 
#    0.000    5.000    0.000    0.000    0.000    0.000 
#    0.000    0.000    0.000    0.000    0.000    0.000 
#
# Total GULP energy -297385.184647 kJ/mol
# GULP energy per Si atom -12391.049360 kJ/mol
# Density = 2.114455 g / cm^3
# Si number density = 21.192790 Si / 1000 Ang^3
#
#
#
# Elastic Constant Matrix: (Units=GPa)
#
#
# Indices 1 2 3 4 5 6 
#
# 1 -53.1818 189.8440 16.7793 44.9302 -0.0574 0.0000
# 2 189.8440 -53.1818 16.7793 -44.9302 0.0574 0.0000
# 3 16.7793 16.7793 97.4233 0.0000 0.0000 0.0000
# 4 44.9302 -44.9302 0.0000 15.4089 0.0000 0.0574
# 5 -0.0574 0.0574 0.0000 0.0000 15.4089 44.9302
# 6 0.0000 0.0000 0.0000 0.0574 44.9302 -121.5129
#
#
#
# Elastic Compliance Matrix: (Units=1/GPa)
#
#
# Indices 1 2 3 4 5 6 
#
# 1 0.002830 0.004810 -0.001316 0.005773 -0.000007 0.000000
# 2 0.004810 0.002830 -0.001316 -0.005773 0.000007 0.000000
# 3 -0.001316 -0.001316 0.010718 0.000000 0.000000 0.000000
# 4 0.005773 -0.005773 0.000000 0.031228 0.000000 0.000015
# 5 -0.000007 0.000007 0.000000 0.000000 0.031228 0.011547
# 6 0.000000 0.000000 0.000000 0.000015 0.011547 -0.003960
#
#
# Mechanical properties :
#
#
# Convention : Reuss Voigt Hill
#
# Bulk Modulus (GPa) = 48.22769 48.65167 48.43968
# Shear Modulus (GPa) = 64.57468 -33.62855 15.47306
#
# Velocity S-wave (km/s) = 5.52596 -3.98778 2.70499
# Velocity P-wave (km/s) = 7.97001 1.34290 5.71509
#
# Compressibility (1/GPa) = 0.02073497
#
# Stress axis : x y z
#
# Youngs Moduli (GPa) = 353.32966 353.32966 93.30302
#
# Poissons Ratio (x) = -1.69960 0.12278
# Poissons Ratio (y) = -1.69960 0.12278
# Poissons Ratio (z) = 0.46495 0.46495
#
# Static dielectric constant tensor:
#      x y z
#    x 4.147120 0.000000 0.000000 
#    y 0.000000 4.147120 0.000000 
#    z 0.000000 0.000000 3.816120 
# 
# 
# High freq. dielectric constant tensor:
#      x y z
#    x 1.831220 0.000000 0.000000 
#    y 0.000000 1.831220 0.000000 
#    z 0.000000 0.000000 1.838820 
# 
# From -- ./inp_files/128.got.cif
#   From: 2010.03.12/outbox.cif.g09.slc.cpg/sg144_cif.got.tgz:128.got - 2010.04.03 13:34:42.
