data_PCOD8321158
_publ_section_title
;
Structure prediction by ZEFSAII (Michael W. Deem and Ramdas Pophale) SiO2 
 PCOD8321158
Probable space group: I 41/A C D
;
_chemical_formula_sum "Si O2"
_cell_formula_units_Z 112
_cell_length_a 13.484621
_cell_length_b 13.484621
_cell_length_c 28.411170
_cell_angle_alpha 90.000000
_cell_angle_beta 90.000000
_cell_angle_gamma 90.000000
_cell_volume 5166.145197
_symmetry_space_group_name_H-M "I 41/A C D"
_symmetry_group_IT_number 142
_space_group.IT_coordinate_system_code '2'
_symmetry_cell_setting 'tetragonal'
loop_
_space_group_symop_operation_xyz
x,y,z
1/4-y,3/4+x,1/4+z
-x,1/2-y,z
1/4+y,1/4-x,3/4+z
x,-y,1/2-z
1/2-x,y,-z
3/4+y,1/4+x,1/4-z
1/4-y,1/4-x,1/4-z
-x,-y,-z
3/4+y,1/4-x,3/4-z
x,1/2+y,-z
3/4-y,3/4+x,1/4-z
-x,y,1/2+z
1/2+x,-y,z
1/4-y,3/4-x,3/4+z
3/4+y,3/4+x,3/4+z
1/2+x,1/2+y,1/2+z
3/4-y,1/4+x,3/4+z
1/2-x,-y,1/2+z
3/4+y,3/4-x,1/4+z
1/2+x,1/2-y,-z
-x,1/2+y,1/2-z
1/4+y,3/4+x,3/4-z
3/4-y,3/4-x,3/4-z
1/2-x,1/2-y,1/2-z
1/4+y,3/4-x,1/4-z
1/2+x,y,1/2-z
1/4-y,1/4+x,3/4-z
1/2-x,1/2+y,z
x,1/2-y,1/2+z
3/4-y,1/4-x,1/4+z
1/4+y,1/4+x,1/4+z
loop_
_atom_site_type_symbol
_atom_site_label
_atom_site_fract_x
_atom_site_fract_y
_atom_site_fract_z
Si Si1 0.670571 0.112434 0.745938
Si Si2 0.184390 0.657655 0.668712
Si Si3 0.500000 0.750000 0.783368
Si Si4 0.894340 0.994155 0.893846
O O1 0.744628 0.143401 0.786961
O O2 0.570418 0.178688 0.748012
O O3 0.734613 0.126736 0.698768
O O4 0.634840 0.000000 0.750000
O O5 0.072645 0.685863 0.683833
O O6 0.232285 0.740739 0.634376
O O7 0.178983 0.560139 0.637857
O O8 0.866805 0.883196 0.875000
#
# Coordination Sequence:
#
# PCOD8321158 Si02
#       4
#    32  32  16  32
#     4  11  23  43  65  97 137 172 226 284 343 405
#     4  11  23  43  65  99 130 175 232 271 338 417
#     4  10  22  41  66  95 128 176 228 273 336 411
#     4  11  21  40  65  92 129 173 218 281 333 403
#
# _framework density 21.679608000000002
#
# number of rings (size 3 to 8) (size 9 to 14) (size 15 to 20)
#    0.000    1.143    2.857    6.857    0.000    2.286 
#   15.429    0.000    0.000    0.000    0.000    0.000 
#    0.000    0.000    0.000    0.000    0.000    0.000 
#
# Total GULP energy -694158.166243 kJ/mol
# GULP energy per Si atom -12395.681540 kJ/mol
# Density = 2.163026 g / cm^3
# Si number density = 21.679608 Si / 1000 Ang^3
#
#
#
# Elastic Constant Matrix: (Units=GPa)
#
#
# Indices 1 2 3 4 5 6 
#
# 1 79.8094 63.7333 38.3952 0.0000 0.0000 0.0000
# 2 63.7333 79.8129 38.3949 0.0000 0.0000 0.0000
# 3 38.3952 38.3949 97.8034 0.0000 0.0000 0.0000
# 4 0.0000 0.0000 0.0000 34.1541 0.0000 0.0000
# 5 0.0000 0.0000 0.0000 0.0000 34.1540 0.0000
# 6 0.0000 0.0000 0.0000 0.0000 0.0000 34.0771
#
#
#
# Elastic Compliance Matrix: (Units=1/GPa)
#
#
# Indices 1 2 3 4 5 6 
#
# 1 0.035509 -0.026689 -0.003462 0.000000 0.000000 0.000000
# 2 -0.026689 0.035507 -0.003461 0.000000 0.000000 0.000000
# 3 -0.003462 -0.003461 0.012943 0.000000 0.000000 0.000000
# 4 0.000000 0.000000 0.000000 0.029279 0.000000 0.000000
# 5 0.000000 0.000000 0.000000 0.000000 0.029279 0.000000
# 6 0.000000 0.000000 0.000000 0.000000 0.000000 0.029345
#
#
# Mechanical properties :
#
#
# Convention : Reuss Voigt Hill
#
# Bulk Modulus (GPa) = 59.76565 59.83027 59.79796
# Shear Modulus (GPa) = 20.43603 28.27052 24.35328
#
# Velocity S-wave (km/s) = 3.07357 3.61503 3.35524
# Velocity P-wave (km/s) = 6.34219 6.71431 6.53090
#
# Compressibility (1/GPa) = 0.01673202
#
# Stress axis : x y z
#
# Youngs Moduli (GPa) = 28.16190 28.16353 77.26373
#
# Poissons Ratio (x) = 0.75167 0.26752
# Poissons Ratio (y) = 0.75163 0.26744
# Poissons Ratio (z) = 0.09751 0.09748
#
# Static dielectric constant tensor:
#      x y z
#    x 4.143260 0.000000 0.000000 
#    y 0.000000 4.143250 0.000000 
#    z 0.000000 0.000000 3.799590 
# 
# 
# High freq. dielectric constant tensor:
#      x y z
#    x 1.857590 0.000000 0.000000 
#    y 0.000000 1.857590 0.000000 
#    z 0.000000 0.000000 1.846620 
# 
# From -- ./inp_files/12214.got.cif
#   From: 2010.03.12/outbox.cif.g09.slc.cpg/sg142_7_cif.got.tgz:12214.got - 2010.04.03 13:27:16.
