data_PCOD8321284
_publ_section_title
;
Structure prediction by ZEFSAII (Michael W. Deem and Ramdas Pophale) SiO2 
 PCOD8321284
Probable space group: I 41/A C D
;
_chemical_formula_sum "Si O2"
_cell_formula_units_Z 176
_cell_length_a 22.806070
_cell_length_b 22.806070
_cell_length_c 14.819378
_cell_angle_alpha 90.000000
_cell_angle_beta 90.000000
_cell_angle_gamma 90.000000
_cell_volume 7707.807891
_symmetry_space_group_name_H-M "I 41/A C D"
_symmetry_group_IT_number 142
_space_group.IT_coordinate_system_code '2'
_symmetry_cell_setting 'tetragonal'
loop_
_space_group_symop_operation_xyz
x,y,z
1/4-y,3/4+x,1/4+z
-x,1/2-y,z
1/4+y,1/4-x,3/4+z
x,-y,1/2-z
1/2-x,y,-z
3/4+y,1/4+x,1/4-z
1/4-y,1/4-x,1/4-z
-x,-y,-z
3/4+y,1/4-x,3/4-z
x,1/2+y,-z
3/4-y,3/4+x,1/4-z
-x,y,1/2+z
1/2+x,-y,z
1/4-y,3/4-x,3/4+z
3/4+y,3/4+x,3/4+z
1/2+x,1/2+y,1/2+z
3/4-y,1/4+x,3/4+z
1/2-x,-y,1/2+z
3/4+y,3/4-x,1/4+z
1/2+x,1/2-y,-z
-x,1/2+y,1/2-z
1/4+y,3/4+x,3/4-z
3/4-y,3/4-x,3/4-z
1/2-x,1/2-y,1/2-z
1/4+y,3/4-x,1/4-z
1/2+x,y,1/2-z
1/4-y,1/4+x,3/4-z
1/2-x,1/2+y,z
x,1/2-y,1/2+z
3/4-y,1/4-x,1/4+z
1/4+y,1/4+x,1/4+z
loop_
_atom_site_type_symbol
_atom_site_label
_atom_site_fract_x
_atom_site_fract_y
_atom_site_fract_z
Si Si1 0.556352 0.673930 0.381981
Si Si2 0.784175 0.712691 0.825340
Si Si3 0.258708 0.599142 0.105082
Si Si4 0.565847 0.891773 0.068163
Si Si5 0.911182 0.000000 0.250000
Si Si6 0.365140 0.596927 0.475030
O O1 0.490118 0.673942 0.343573
O O2 0.565893 0.627809 0.463641
O O3 0.597410 0.654359 0.300255
O O4 0.750000 0.750000 0.750000
O O5 0.841631 0.750571 0.850477
O O6 0.805278 0.649032 0.794424
O O7 0.742290 0.703016 0.912145
O O8 0.284317 0.534317 0.125000
O O9 0.301563 0.643413 0.160074
O O10 0.192287 0.600793 0.138369
O O11 0.250000 0.614629 0.000000
O O12 0.585881 0.835881 0.125000
O O13 0.870430 0.944304 0.268762
#
# Coordination Sequence:
#
# PCOD8321284 Si02
#       6
#    32  32  32  32  16  32
#     4  11  25  48  76 110 149 203 251 324 391 462
#     4  12  26  50  76 113 150 202 261 318 387 478
#     4  11  26  44  76 113 151 203 260 321 390 465
#     4  11  24  45  75 110 147 195 263 317 385 467
#     4  12  32  44  76 110 158 204 244 324 400 454
#     4  12  26  48  75 108 159 193 257 316 391 463
#
# _framework density 22.833988000000002
#
# number of rings (size 3 to 8) (size 9 to 14) (size 15 to 20)
#    0.000    0.545    3.636    3.818    7.636    0.000 
#    0.000    1.818    0.000    0.000    0.000    0.000 
#    0.000    0.000    0.000    0.000    0.000    0.000 
#
# Total GULP energy -1091003.453497 kJ/mol
# GULP energy per Si atom -12397.766517 kJ/mol
# Density = 2.278202 g / cm^3
# Si number density = 22.833988 Si / 1000 Ang^3
#
#
#
# Elastic Constant Matrix: (Units=GPa)
#
#
# Indices 1 2 3 4 5 6 
#
# 1 122.2734 45.7131 47.6957 0.0000 0.0000 0.0000
# 2 45.7131 122.2734 47.6957 0.0000 0.0000 0.0000
# 3 47.6957 47.6957 128.0361 0.0000 0.0000 0.0000
# 4 0.0000 0.0000 0.0000 38.3804 0.0000 0.0000
# 5 0.0000 0.0000 0.0000 0.0000 38.3804 0.0000
# 6 0.0000 0.0000 0.0000 0.0000 0.0000 50.0174
#
#
#
# Elastic Compliance Matrix: (Units=1/GPa)
#
#
# Indices 1 2 3 4 5 6 
#
# 1 0.010306 -0.002756 -0.002812 0.000000 0.000000 0.000000
# 2 -0.002756 0.010306 -0.002812 0.000000 0.000000 0.000000
# 3 -0.002812 -0.002812 0.009906 0.000000 0.000000 0.000000
# 4 0.000000 0.000000 0.000000 0.026055 0.000000 0.000000
# 5 0.000000 0.000000 0.000000 0.000000 0.026055 0.000000
# 6 0.000000 0.000000 0.000000 0.000000 0.000000 0.019993
#
#
# Mechanical properties :
#
#
# Convention : Reuss Voigt Hill
#
# Bulk Modulus (GPa) = 72.69748 72.75463 72.72605
# Shear Modulus (GPa) = 40.33330 40.78752 40.56041
#
# Velocity S-wave (km/s) = 4.20738 4.23101 4.21921
# Velocity P-wave (km/s) = 7.45045 7.46995 7.46021
#
# Compressibility (1/GPa) = 0.01375564
#
# Stress axis : x y z
#
# Youngs Moduli (GPa) = 97.03309 97.03309 100.95206
#
# Poissons Ratio (x) = 0.26741 0.28393
# Poissons Ratio (y) = 0.26741 0.28393
# Poissons Ratio (z) = 0.27290 0.27290
#
# Static dielectric constant tensor:
#      x y z
#    x 4.438140 0.000000 0.000000 
#    y 0.000000 4.438140 0.000000 
#    z 0.000000 0.000000 4.033100 
# 
# 
# High freq. dielectric constant tensor:
#      x y z
#    x 1.910090 0.000000 0.000000 
#    y 0.000000 1.910090 0.000000 
#    z 0.000000 0.000000 1.896170 
# 
# From -- ./inp_files/5542.got.cif
#   From: 2010.03.12/outbox.cif.g09.slc.cpg/sg142_3_cif.got.tgz:5542.got - 2010.04.03 13:27:16.
