data_PCOD8321716
_publ_section_title
;
Structure prediction by ZEFSAII (Michael W. Deem and Ramdas Pophale) SiO2 
 PCOD8321716
Probable space group: R -3
;
_chemical_formula_sum "Si O2"
_cell_formula_units_Z 126
_cell_length_a 25.460049
_cell_length_b 25.460049
_cell_length_c 11.910133
_cell_angle_alpha 90.000000
_cell_angle_beta 90.000000
_cell_angle_gamma 120.000000
_cell_volume 6685.989855
_symmetry_space_group_name_H-M "R -3"
_symmetry_group_IT_number 148
_symmetry_cell_setting 'hexagonal'
loop_
_space_group_symop_operation_xyz
x,y,z
-y,x-y,z
-x+y,-x,z
-x,-y,-z
y,-x+y,-z
x-y,x,-z
2/3+x,1/3+y,1/3+z
2/3-y,1/3+x-y,1/3+z
2/3-x+y,1/3-x,1/3+z
2/3-x,1/3-y,1/3-z
2/3+y,1/3-x+y,1/3-z
2/3+x-y,1/3+x,1/3-z
1/3+x,2/3+y,2/3+z
1/3-y,2/3+x-y,2/3+z
1/3-x+y,2/3-x,2/3+z
1/3-x,2/3-y,2/3-z
1/3+y,2/3-x+y,2/3-z
1/3+x-y,2/3+x,2/3-z
loop_
_atom_site_type_symbol
_atom_site_label
_atom_site_fract_x
_atom_site_fract_y
_atom_site_fract_z
Si Si1 0.889296 0.729277 0.059289
Si Si2 0.066887 0.598082 0.453090
Si Si3 0.890386 0.747895 0.568931
Si Si4 0.801139 0.191172 0.514145
Si Si5 0.994085 0.683982 0.912127
Si Si6 0.422517 0.081302 0.195276
Si Si7 0.200660 0.228383 0.557100
O O1 0.861227 0.657881 0.076928
O O2 0.844837 0.754037 0.102330
O O3 0.950439 0.765972 0.131832
O O4 0.903239 0.739156 0.924968
O O5 0.054124 0.652619 0.481442
O O6 0.115272 0.622526 0.350995
O O7 0.857809 0.680771 0.519137
O O8 0.894321 0.747782 0.704195
O O9 0.851650 0.779135 0.529231
O O10 0.959564 0.782917 0.524510
O O11 0.730776 0.155275 0.482581
O O12 0.926026 0.629858 0.886757
O O13 0.042012 0.659443 0.911339
O O14 0.003642 0.715793 0.030699
#
# Coordination Sequence:
#
# PCOD8321716 Si02
#       7
#    18  18  18  18  18  18  18
#     4  10  20  36  52  81 116 154 201 233 285 349
#     4  10  21  33  54  77 112 157 194 238 280 341
#     4  11  27  38  59  80 121 153 198 257 292 360
#     4  11  22  37  53  89 114 155 201 240 289 351
#     4  11  20  33  52  81 111 161 193 236 284 344
#     4  11  22  32  57  77 119 160 200 238 286 352
#     4  12  24  41  58  84 116 157 203 245 303 351
#
# _framework density 18.845376999999999
#
# number of rings (size 3 to 8) (size 9 to 14) (size 15 to 20)
#    0.000    1.143    7.143    0.000    8.000    1.143 
#    0.000    0.000    0.000    0.286    0.000    0.000 
#    0.000    0.000    0.000    4.429    0.000    0.000 
#
# Total GULP energy -520523.335680 kJ/mol
# GULP energy per Si atom -12393.412754 kJ/mol
# Density = 1.880248 g / cm^3
# Si number density = 18.845377 Si / 1000 Ang^3
#
#
#
# Elastic Constant Matrix: (Units=GPa)
#
#
# Indices 1 2 3 4 5 6 
#
# 1 65.7607 29.8827 11.9322 -1.4674 0.4773 0.0000
# 2 29.8827 65.7607 11.9312 1.4676 -0.4773 0.0000
# 3 11.9322 11.9312 65.4648 0.0016 -0.0010 0.0002
# 4 -1.4674 1.4676 0.0016 22.6349 0.0005 -0.4771
# 5 0.4773 -0.4773 -0.0010 0.0005 22.6342 -1.4676
# 6 0.0000 0.0000 0.0002 -0.4771 -1.4676 17.9390
#
#
#
# Elastic Compliance Matrix: (Units=1/GPa)
#
#
# Indices 1 2 3 4 5 6 
#
# 1 0.019495 -0.008542 -0.001997 0.001818 -0.000591 0.000000
# 2 -0.008542 0.019495 -0.001996 -0.001818 0.000591 0.000000
# 3 -0.001997 -0.001996 0.016003 -0.000001 0.000001 0.000000
# 4 0.001818 -0.001818 -0.000001 0.044440 -0.000001 0.001182
# 5 -0.000591 0.000591 0.000001 -0.000001 0.044442 0.003636
# 6 0.000000 0.000000 0.000000 0.001182 0.003636 0.056073
#
#
# Mechanical properties :
#
#
# Convention : Reuss Voigt Hill
#
# Bulk Modulus (GPa) = 33.41723 33.83093 33.62408
# Shear Modulus (GPa) = 21.27730 22.19096 21.73413
#
# Velocity S-wave (km/s) = 3.36377 3.43524 3.39969
# Velocity P-wave (km/s) = 5.73214 5.80735 5.76987
#
# Compressibility (1/GPa) = 0.02992469
#
# Stress axis : x y z
#
# Youngs Moduli (GPa) = 51.29462 51.29495 62.48775
#
# Poissons Ratio (x) = 0.43814 0.12477
# Poissons Ratio (y) = 0.43813 0.12473
# Poissons Ratio (z) = 0.10242 0.10239
#
# Static dielectric constant tensor:
#      x y z
#    x 3.340470 0.000000 0.000000 
#    y 0.000000 3.340470 0.000000 
#    z 0.000000 0.000000 3.818690 
# 
# 
# High freq. dielectric constant tensor:
#      x y z
#    x 1.697870 0.000000 0.000000 
#    y 0.000000 1.697870 0.000000 
#    z 0.000000 0.000000 1.751650 
# 
# From -- ./inp_files/1603.got.cif
#   From: 2010.03.12/outbox.cif.g09.slc.cpg/sg148_1_cif.got.tgz:1603.got - 2010.04.03 13:38:46.
