data_PCOD8321671
_publ_section_title
;
Structure prediction by ZEFSAII (Michael W. Deem and Ramdas Pophale) SiO2 
 PCOD8321671
Probable space group: R -3
;
_chemical_formula_sum "Si O2"
_cell_formula_units_Z 120
_cell_length_a 17.870967
_cell_length_b 17.870967
_cell_length_c 28.407742
_cell_angle_alpha 90.000000
_cell_angle_beta 90.000000
_cell_angle_gamma 120.000000
_cell_volume 7857.121201
_symmetry_space_group_name_H-M "R -3"
_symmetry_group_IT_number 148
_symmetry_cell_setting 'hexagonal'
loop_
_space_group_symop_operation_xyz
x,y,z
-y,x-y,z
-x+y,-x,z
-x,-y,-z
y,-x+y,-z
x-y,x,-z
2/3+x,1/3+y,1/3+z
2/3-y,1/3+x-y,1/3+z
2/3-x+y,1/3-x,1/3+z
2/3-x,1/3-y,1/3-z
2/3+y,1/3-x+y,1/3-z
2/3+x-y,1/3+x,1/3-z
1/3+x,2/3+y,2/3+z
1/3-y,2/3+x-y,2/3+z
1/3-x+y,2/3-x,2/3+z
1/3-x,2/3-y,2/3-z
1/3+y,2/3-x+y,2/3-z
1/3+x-y,2/3+x,2/3-z
loop_
_atom_site_type_symbol
_atom_site_label
_atom_site_fract_x
_atom_site_fract_y
_atom_site_fract_z
Si Si1 0.516091 0.677098 0.170937
Si Si2 0.273647 0.485672 0.406690
Si Si3 0.404185 0.088973 0.743728
Si Si4 0.666667 0.333334 0.984472
Si Si5 0.987052 0.233849 0.686602
Si Si6 0.462361 0.035727 0.922662
Si Si7 0.213065 0.474607 0.006912
Si Si8 0.000000 0.000000 0.236984
O O1 0.423977 0.589791 0.172133
O O2 0.579658 0.673440 0.131544
O O3 0.566592 0.687129 0.219641
O O4 0.198150 0.471287 0.370942
O O5 0.246057 0.394727 0.433013
O O6 0.356991 0.510342 0.375510
O O7 0.295528 0.565067 0.443771
O O8 0.407672 0.178508 0.732429
O O9 0.473884 0.083911 0.711093
O O10 0.308727 0.011803 0.728223
O O11 0.719581 0.433419 0.967663
O O12 0.666668 0.333334 0.040350
O O13 0.081422 0.253807 0.672062
O O14 0.944224 0.248040 0.639716
#
# Coordination Sequence:
#
# PCOD8321671 Si02
#       8
#    18  18  18   6  18  18  18   6
#     4  10  21  34  45  63  90 124 154 178 208 260
#     4  10  15  25  41  64  89 107 141 184 225 255
#     4  10  19  29  42  63  88 117 152 178 217 263
#     4   9  15  21  36  66  89 108 135 177 220 253
#     4  11  17  26  43  65  87 115 148 185 220 257
#     4  10  18  29  42  61  89 122 146 179 219 260
#     4  11  15  25  41  63  89 110 140 186 216 251
#     4   9  15  24  39  69  85 103 144 189 230 252
#
# _framework density 15.27277
#
# number of rings (size 3 to 8) (size 9 to 14) (size 15 to 20)
#    0.000    1.800    7.500    1.950    0.000    1.200 
#    0.000    0.000    0.000    0.900    0.000    0.000 
#    0.000    0.000    0.000    0.450    0.300    0.000 
#
# Total GULP energy -495604.096068 kJ/mol
# GULP energy per Si atom -12390.102402 kJ/mol
# Density = 1.523801 g / cm^3
# Si number density = 15.272770 Si / 1000 Ang^3
#
#
#
# Elastic Constant Matrix: (Units=GPa)
#
#
# Indices 1 2 3 4 5 6 
#
# 1 67.5814 28.9614 21.1737 5.1675 -4.0017 0.0000
# 2 28.9614 67.5817 21.1737 -5.1676 4.0016 0.0000
# 3 21.1737 21.1737 48.6402 0.0000 0.0000 0.0000
# 4 5.1675 -5.1676 0.0000 18.1232 0.0000 4.0016
# 5 -4.0017 4.0016 0.0000 0.0000 18.1232 5.1675
# 6 0.0000 0.0000 0.0000 4.0016 5.1675 19.3101
#
#
#
# Elastic Compliance Matrix: (Units=1/GPa)
#
#
# Indices 1 2 3 4 5 6 
#
# 1 0.021148 -0.008345 -0.005573 -0.008410 0.006512 0.000000
# 2 -0.008345 0.021148 -0.005573 0.008410 -0.006512 0.000000
# 3 -0.005573 -0.005573 0.025411 0.000000 0.000000 0.000000
# 4 -0.008410 0.008410 0.000000 0.062849 0.000000 -0.013024
# 5 0.006512 -0.006512 0.000000 0.000000 0.062849 -0.016819
# 6 0.000000 0.000000 0.000000 -0.013024 -0.016819 0.058986
#
#
# Mechanical properties :
#
#
# Convention : Reuss Voigt Hill
#
# Bulk Modulus (GPa) = 34.81416 36.26900 35.54158
# Shear Modulus (GPa) = 16.61406 18.61094 17.61250
#
# Velocity S-wave (km/s) = 3.30179 3.49459 3.39956
# Velocity P-wave (km/s) = 6.11393 6.33103 6.22343
#
# Compressibility (1/GPa) = 0.02872395
#
# Stress axis : x y z
#
# Youngs Moduli (GPa) = 47.28583 47.28609 39.35266
#
# Poissons Ratio (x) = 0.39461 0.21932
# Poissons Ratio (y) = 0.39461 0.21932
# Poissons Ratio (z) = 0.26353 0.26353
#
# Static dielectric constant tensor:
#      x y z
#    x 2.992890 0.000000 0.000000 
#    y 0.000000 2.992890 0.000000 
#    z 0.000000 0.000000 2.713360 
# 
# 
# High freq. dielectric constant tensor:
#      x y z
#    x 1.567360 0.000000 0.000000 
#    y 0.000000 1.567360 0.000000 
#    z 0.000000 0.000000 1.548660 
# 
# From -- ./inp_files/3737.got.cif
#   From: 2010.03.12/outbox.cif.g09.slc.cpg/sg148_2_cif.got.tgz:3737.got - 2010.04.03 13:38:46.
