data_PCOD8321791
_publ_section_title
;
Structure prediction by ZEFSAII (Michael W. Deem and Ramdas Pophale) SiO2 
 PCOD8321791
Probable space group: R -3
;
_chemical_formula_sum "Si O2"
_cell_formula_units_Z 78
_cell_length_a 16.533362
_cell_length_b 16.533362
_cell_length_c 17.417204
_cell_angle_alpha 90.000000
_cell_angle_beta 90.000000
_cell_angle_gamma 120.000000
_cell_volume 4123.171695
_symmetry_space_group_name_H-M "R -3"
_symmetry_group_IT_number 148
_symmetry_cell_setting 'hexagonal'
loop_
_space_group_symop_operation_xyz
x,y,z
-y,x-y,z
-x+y,-x,z
-x,-y,-z
y,-x+y,-z
x-y,x,-z
2/3+x,1/3+y,1/3+z
2/3-y,1/3+x-y,1/3+z
2/3-x+y,1/3-x,1/3+z
2/3-x,1/3-y,1/3-z
2/3+y,1/3-x+y,1/3-z
2/3+x-y,1/3+x,1/3-z
1/3+x,2/3+y,2/3+z
1/3-y,2/3+x-y,2/3+z
1/3-x+y,2/3-x,2/3+z
1/3-x,2/3-y,2/3-z
1/3+y,2/3-x+y,2/3-z
1/3+x-y,2/3+x,2/3-z
loop_
_atom_site_type_symbol
_atom_site_label
_atom_site_fract_x
_atom_site_fract_y
_atom_site_fract_z
Si Si1 0.318363 0.063777 0.001524
Si Si2 0.115807 0.192842 0.655745
Si Si3 0.541295 0.587508 0.943150
Si Si4 0.000000 0.000000 0.590406
Si Si5 0.698128 0.802531 0.100493
O O1 0.411274 0.156994 0.033617
O O2 0.263254 0.098487 0.944791
O O3 0.350165 0.003088 0.951040
O O4 0.250939 0.003376 0.071275
O O5 0.176454 0.164043 0.709335
O O6 0.027467 0.101956 0.621384
O O7 0.183437 0.254451 0.585410
O O8 0.512232 0.552053 0.857028
O O9 0.500000 0.500000 0.000000
O O10 0.000000 0.000000 0.500000
#
# Coordination Sequence:
#
# PCOD8321791 Si02
#       5
#    18  18  18   6  18
#     4   9  21  40  58  89 118 160 209 239 319 348
#     4   9  23  36  57  90 113 166 195 247 310 362
#     4  11  22  37  61  91 124 156 207 253 310 371
#     4  12  24  36  57  84 132 157 188 253 315 378
#     4   9  22  39  62  88 117 165 201 259 298 370
#
# _framework density 18.917477000000002
#
# number of rings (size 3 to 8) (size 9 to 14) (size 15 to 20)
#    1.385    0.923    0.000    1.385   12.923    0.923 
#    0.000    0.000    0.000    0.462    0.000    0.000 
#    0.000    0.000    0.000    0.000    0.000    0.000 
#
# Total GULP energy -322156.876948 kJ/mol
# GULP energy per Si atom -12390.649113 kJ/mol
# Density = 1.887442 g / cm^3
# Si number density = 18.917477 Si / 1000 Ang^3
#
#
#
# Elastic Constant Matrix: (Units=GPa)
#
#
# Indices 1 2 3 4 5 6 
#
# 1 96.4006 21.5364 39.6493 4.5195 4.4624 0.0000
# 2 21.5364 96.4006 39.6493 -4.5195 -4.4624 0.0000
# 3 39.6493 39.6493 125.7206 0.0000 0.0000 0.0000
# 4 4.5195 -4.5195 0.0000 22.0865 0.0000 -4.4624
# 5 4.4624 -4.4624 0.0000 0.0000 22.0865 4.5195
# 6 0.0000 0.0000 0.0000 -4.4624 4.5195 37.4321
#
#
#
# Elastic Compliance Matrix: (Units=1/GPa)
#
#
# Indices 1 2 3 4 5 6 
#
# 1 0.012402 -0.001641 -0.003394 -0.002874 -0.002837 0.000000
# 2 -0.001641 0.012402 -0.003394 0.002874 0.002837 0.000000
# 3 -0.003394 -0.003394 0.010095 0.000000 0.000000 0.000000
# 4 -0.002874 0.002874 0.000000 0.047599 0.000000 0.005674
# 5 -0.002837 0.002837 0.000000 0.000000 0.047599 -0.005747
# 6 0.000000 0.000000 0.000000 0.005674 -0.005747 0.028085
#
#
# Mechanical properties :
#
#
# Convention : Reuss Voigt Hill
#
# Bulk Modulus (GPa) = 55.42708 57.79908 56.61308
# Shear Modulus (GPa) = 27.61625 30.83346 29.22485
#
# Velocity S-wave (km/s) = 3.82491 4.04157 3.93473
# Velocity P-wave (km/s) = 6.99068 7.23869 7.11577
#
# Compressibility (1/GPa) = 0.01804172
#
# Stress axis : x y z
#
# Youngs Moduli (GPa) = 80.63309 80.63309 99.06122
#
# Poissons Ratio (x) = 0.13231 0.33619
# Poissons Ratio (y) = 0.13231 0.33619
# Poissons Ratio (z) = 0.27365 0.27365
#
# Static dielectric constant tensor:
#      x y z
#    x 3.440570 0.000000 0.000000 
#    y 0.000000 3.440570 0.000000 
#    z 0.000000 0.000000 3.102590 
# 
# 
# High freq. dielectric constant tensor:
#      x y z
#    x 1.731810 0.000000 0.000000 
#    y 0.000000 1.731810 0.000000 
#    z 0.000000 0.000000 1.705770 
# 
# From -- ./inp_files/2636.got.cif
#   From: 2010.03.12/outbox.cif.g09.slc.cpg/sg148_2_cif.got.tgz:2636.got - 2010.04.03 13:38:46.
