data_PCOD8321389
_publ_section_title
;
Structure prediction by ZEFSAII (Michael W. Deem and Ramdas Pophale) SiO2 
 PCOD8321389
Probable space group: P 31
;
_chemical_formula_sum "Si O2"
_cell_formula_units_Z 9
_cell_length_a 7.805817
_cell_length_b 7.805817
_cell_length_c 7.941045
_cell_angle_alpha 90.000000
_cell_angle_beta 90.000000
_cell_angle_gamma 120.000000
_cell_volume 419.029906
_symmetry_space_group_name_H-M "P 31"
_symmetry_group_IT_number 144
_symmetry_cell_setting 'hexagonal'
loop_
_space_group_symop_operation_xyz
x,y,z
-y,x-y,1/3+z
-x+y,-x,2/3+z
loop_
_atom_site_type_symbol
_atom_site_label
_atom_site_fract_x
_atom_site_fract_y
_atom_site_fract_z
Si Si1 0.974841 0.297891 0.747910
Si Si2 0.795597 0.575335 0.744654
Si Si3 0.925970 0.665154 0.397761
O O1 0.938050 0.481365 0.760263
O O2 0.870895 0.170147 0.579861
O O3 0.208404 0.373795 0.729251
O O4 0.891956 0.159292 0.911188
O O5 0.855218 0.710232 0.577051
O O6 0.567628 0.409648 0.721080
#
# Coordination Sequence:
#
# PCOD8321389 Si02
#       3
#     3   3   3
#     4  11  22  40  70 100 135 192 229 280 362 408
#     4  10  22  48  66  96 152 178 228 310 336 408
#     4  11  22  40  70 100 135 192 229 280 362 408
#
# _framework density 21.478183000000001
#
# number of rings (size 3 to 8) (size 9 to 14) (size 15 to 20)
#    0.000    1.333    6.667    0.000    4.667    0.000 
#    0.000   26.667    0.000    0.000    0.000    0.000 
#    0.000    0.000    0.000    0.000    0.000    0.000 
#
# Total GULP energy -111546.078878 kJ/mol
# GULP energy per Si atom -12394.008764 kJ/mol
# Density = 2.142930 g / cm^3
# Si number density = 21.478183 Si / 1000 Ang^3
#
#
#
# Elastic Constant Matrix: (Units=GPa)
#
#
# Indices 1 2 3 4 5 6 
#
# 1 59.2697 5.6268 13.4459 4.4025 3.4200 0.0000
# 2 5.6268 59.2697 13.4459 -4.4025 -3.4200 0.0000
# 3 13.4459 13.4459 203.8557 0.0000 0.0000 0.0000
# 4 4.4025 -4.4025 0.0000 4.2267 0.0000 -3.4200
# 5 3.4200 -3.4200 0.0000 0.0000 4.2267 4.4025
# 6 0.0000 0.0000 0.0000 -3.4200 4.4025 26.8215
#
#
#
# Elastic Compliance Matrix: (Units=1/GPa)
#
#
# Indices 1 2 3 4 5 6 
#
# 1 0.020762 -0.004920 -0.001045 -0.026751 -0.020780 0.000000
# 2 -0.004920 0.020762 -0.001045 0.026751 0.020780 0.000000
# 3 -0.001045 -0.001045 0.005043 0.000000 0.000000 0.000000
# 4 -0.026751 0.026751 0.000000 0.325947 0.000000 0.041561
# 5 -0.020780 0.020780 0.000000 0.000000 0.325947 -0.053501
# 6 0.000000 0.000000 0.000000 0.041561 -0.053501 0.051365
#
#
# Mechanical properties :
#
#
# Convention : Reuss Voigt Hill
#
# Bulk Modulus (GPa) = 30.72395 43.04804 36.88600
# Shear Modulus (GPa) = 6.45415 26.38006 16.41711
#
# Velocity S-wave (km/s) = 1.73537 3.50841 2.76771
# Velocity P-wave (km/s) = 4.28382 6.04137 5.23685
#
# Compressibility (1/GPa) = 0.03254790
#
# Stress axis : x y z
#
# Youngs Moduli (GPa) = 48.16436 48.16436 198.28395
#
# Poissons Ratio (x) = 0.23697 0.20719
# Poissons Ratio (y) = 0.23697 0.20719
# Poissons Ratio (z) = 0.05033 0.05033
#
# Static dielectric constant tensor:
#      x y z
#    x 3.569560 0.000000 0.000000 
#    y 0.000000 3.569560 0.000000 
#    z 0.000000 0.000000 4.868640 
# 
# 
# High freq. dielectric constant tensor:
#      x y z
#    x 1.820120 0.000000 0.000000 
#    y 0.000000 1.820120 0.000000 
#    z 0.000000 0.000000 1.882080 
# 
# From -- ./inp_files/43.got.cif
#   From: 2010.03.12/outbox.cif.g09.slc.cpg/sg144_cif.got.tgz:43.got - 2010.04.03 13:34:42.
