data_PCOD8321907
_publ_section_title
;
Structure prediction by ZEFSAII (Michael W. Deem and Ramdas Pophale) SiO2 
 PCOD8321907
Probable space group: P 3 2 1
;
_chemical_formula_sum "Si O2"
_cell_formula_units_Z 33
_cell_length_a 15.102523
_cell_length_b 15.102523
_cell_length_c 8.719460
_cell_angle_alpha 90.000000
_cell_angle_beta 90.000000
_cell_angle_gamma 120.000000
_cell_volume 1722.341369
_symmetry_space_group_name_H-M "P 3 2 1"
_symmetry_group_IT_number 150
_symmetry_cell_setting 'hexagonal'
loop_
_space_group_symop_operation_xyz
x,y,z
-y,x-y,z
-x+y,-x,z
x-y,-y,-z
-x,-x+y,-z
y,x,-z
loop_
_atom_site_type_symbol
_atom_site_label
_atom_site_fract_x
_atom_site_fract_y
_atom_site_fract_z
Si Si1 0.666668 0.333334 0.927239
Si Si2 0.209760 0.030344 0.766051
Si Si3 0.000000 0.000000 0.319756
Si Si4 0.500202 0.816684 0.862755
Si Si5 0.000000 0.318165 0.500000
Si Si6 0.666668 0.333334 0.563487
Si Si7 0.365095 0.838737 0.648429
Si Si8 0.113813 0.835178 0.955579
O O1 0.666668 0.333334 0.745204
O O2 0.655695 0.226926 0.987063
O O3 0.116729 0.051954 0.738308
O O4 0.282147 0.057917 0.617738
O O5 0.157739 0.910368 0.809665
O O6 0.285389 0.103322 0.898086
O O7 0.000000 0.000000 0.500000
O O8 0.468306 0.884254 0.753875
O O9 0.482465 0.722900 0.758106
O O10 0.616175 0.883782 0.918751
O O11 0.926368 0.342879 0.401943
O O12 0.591309 0.218444 0.502741
O O13 0.000000 0.806743 0.000000
#
# Coordination Sequence:
#
# PCOD8321907 Si02
#       8
#     2   6   2   6   3   2   6   6
#     4   9  19  35  64  84 115 149 202 246 289 386
#     4  11  24  36  62  87 123 165 208 257 299 375
#     4  12  21  40  59  91 126 172 209 244 324 367
#     4   9  19  41  58  83 116 164 191 246 317 363
#     4  12  22  40  60  94 118 156 208 266 306 358
#     4   9  19  38  61  84 106 164 196 237 286 383
#     4   9  20  39  62  78 121 157 197 243 317 363
#     4  11  22  39  59  87 121 161 205 253 303 366
#
# _framework density 19.159965
#
# number of rings (size 3 to 8) (size 9 to 14) (size 15 to 20)
#    0.000    1.818    4.545    1.455    2.545    0.000 
#    3.273    0.000    2.000    0.000    0.000    0.000 
#    0.000    0.000    0.000    0.000    0.000    0.000 
#
# Total GULP energy -409068.142024 kJ/mol
# GULP energy per Si atom -12396.004304 kJ/mol
# Density = 1.911636 g / cm^3
# Si number density = 19.159965 Si / 1000 Ang^3
#
#
#
# Elastic Constant Matrix: (Units=GPa)
#
#
# Indices 1 2 3 4 5 6 
#
# 1 77.0500 26.6470 34.6518 0.0724 0.0000 0.0000
# 2 26.6470 77.0497 34.6519 -0.0724 0.0000 0.0000
# 3 34.6518 34.6519 125.2118 -0.0001 0.0000 0.0000
# 4 0.0724 -0.0724 -0.0001 26.5432 0.0000 0.0000
# 5 0.0000 0.0000 0.0000 0.0000 26.5430 0.0724
# 6 0.0000 0.0000 0.0000 0.0000 0.0724 25.2013
#
#
#
# Elastic Compliance Matrix: (Units=1/GPa)
#
#
# Indices 1 2 3 4 5 6 
#
# 1 0.015836 -0.004004 -0.003274 -0.000054 0.000000 0.000000
# 2 -0.004004 0.015836 -0.003274 0.000054 0.000000 0.000000
# 3 -0.003274 -0.003274 0.009799 0.000000 0.000000 0.000000
# 4 -0.000054 0.000054 0.000000 0.037675 0.000000 0.000000
# 5 0.000000 0.000000 0.000000 0.000000 0.037675 -0.000108
# 6 0.000000 0.000000 0.000000 0.000000 -0.000108 0.039681
#
#
# Mechanical properties :
#
#
# Convention : Reuss Voigt Hill
#
# Bulk Modulus (GPa) = 49.10409 52.35700 50.73055
# Shear Modulus (GPa) = 27.11555 27.88154 27.49855
#
# Velocity S-wave (km/s) = 3.76602 3.81884 3.79252
# Velocity P-wave (km/s) = 6.67792 6.84327 6.76110
#
# Compressibility (1/GPa) = 0.02036490
#
# Stress axis : x y z
#
# Youngs Moduli (GPa) = 63.14699 63.14673 102.05289
#
# Poissons Ratio (x) = 0.25285 0.33416
# Poissons Ratio (y) = 0.25285 0.33417
# Poissons Ratio (z) = 0.20677 0.20677
#
# Static dielectric constant tensor:
#      x y z
#    x 3.691940 0.000000 0.000000 
#    y 0.000000 3.691970 0.000000 
#    z 0.000000 0.000000 3.591510 
# 
# 
# High freq. dielectric constant tensor:
#      x y z
#    x 1.731230 0.000000 0.000000 
#    y 0.000000 1.731230 0.000000 
#    z 0.000000 0.000000 1.754850 
# 
# From -- ./inp_files/685.got.cif
#   From: 2010.03.12/outbox.cif.g09.slc.cpg/sg150_cif.got.tgz:685.got - 2010.04.03 13:41:37.
