data_PCOD8321957
_publ_section_title
;
Structure prediction by ZEFSAII (Michael W. Deem and Ramdas Pophale) SiO2 
 PCOD8321957
Probable space group: P 31 1 2
;
_chemical_formula_sum "Si O2"
_cell_formula_units_Z 30
_cell_length_a 8.227308
_cell_length_b 8.227308
_cell_length_c 24.575872
_cell_angle_alpha 90.000000
_cell_angle_beta 90.000000
_cell_angle_gamma 120.000000
_cell_volume 1440.638710
_symmetry_space_group_name_H-M "P 31 1 2"
_symmetry_group_IT_number 151
_symmetry_cell_setting 'hexagonal'
loop_
_space_group_symop_operation_xyz
x,y,z
-y,x-y,1/3+z
-x+y,-x,2/3+z
-y,-x,2/3-z
-x+y,y,1/3-z
x,x-y,-z
loop_
_atom_site_type_symbol
_atom_site_label
_atom_site_fract_x
_atom_site_fract_y
_atom_site_fract_z
Si Si1 0.186964 0.449938 0.314770
Si Si2 0.186972 0.967659 0.778607
Si Si3 0.058434 0.349434 0.716510
Si Si4 0.643736 0.925638 0.148403
Si Si5 0.056349 0.866439 0.079376
O O1 0.353658 0.646343 0.333334
O O2 0.273577 0.384104 0.265869
O O3 0.024604 0.499981 0.297241
O O4 0.111745 0.305102 0.363940
O O5 0.151716 0.848285 0.833334
O O6 0.997166 0.932867 0.750425
O O7 0.312394 0.186531 0.793783
O O8 0.145224 0.290447 0.666667
O O9 0.206012 0.427060 0.766099
O O10 0.865113 0.160550 0.734185
O O11 0.483826 0.967652 0.166667
O O12 0.702280 0.831432 0.196788
#
# Coordination Sequence:
#
# PCOD8321957 Si02
#       5
#     6   6   6   6   6
#     4  11  22  35  56  86 117 148 187 243 299 344
#     4   9  20  38  59  81 111 153 194 235 288 352
#     4  10  20  35  57  84 115 152 195 238 285 347
#     4  10  19  36  63  87 112 151 198 240 290 363
#     4  10  20  38  60  82 110 154 201 232 282 358
#
# _framework density 20.824095
#
# number of rings (size 3 to 8) (size 9 to 14) (size 15 to 20)
#    0.000    2.000    0.000    7.200    0.000    2.400 
#    0.000    6.000    0.000    1.200    0.000    0.000 
#    0.000    0.000    0.000    0.000    0.000    0.000 
#
# Total GULP energy -371832.186869 kJ/mol
# GULP energy per Si atom -12394.406229 kJ/mol
# Density = 2.077670 g / cm^3
# Si number density = 20.824095 Si / 1000 Ang^3
#
#
#
# Elastic Constant Matrix: (Units=GPa)
#
#
# Indices 1 2 3 4 5 6 
#
# 1 88.6566 43.5028 47.3333 -0.0002 -7.2777 0.0000
# 2 43.5028 88.6566 47.3333 0.0002 7.2777 0.0000
# 3 47.3333 47.3333 140.2181 0.0000 0.0000 0.0000
# 4 -0.0002 0.0002 0.0000 31.3007 0.0000 7.2777
# 5 -7.2777 7.2777 0.0000 0.0000 31.3007 -0.0002
# 6 0.0000 0.0000 0.0000 7.2777 -0.0002 22.5769
#
#
#
# Elastic Compliance Matrix: (Units=1/GPa)
#
#
# Indices 1 2 3 4 5 6 
#
# 1 0.016960 -0.006981 -0.003369 0.000000 0.005566 0.000000
# 2 -0.006981 0.016960 -0.003369 0.000000 -0.005566 0.000000
# 3 -0.003369 -0.003369 0.009406 0.000000 0.000000 0.000000
# 4 0.000000 0.000000 0.000000 0.034537 0.000000 -0.011133
# 5 0.005566 -0.005566 0.000000 0.000000 0.034537 0.000000
# 6 0.000000 0.000000 0.000000 -0.011133 0.000000 0.047882
#
#
# Mechanical properties :
#
#
# Convention : Reuss Voigt Hill
#
# Bulk Modulus (GPa) = 62.93158 65.98556 64.45857
# Shear Modulus (GPa) = 25.90472 28.99314 27.44893
#
# Velocity S-wave (km/s) = 3.53083 3.73539 3.63455
# Velocity P-wave (km/s) = 6.84898 7.09648 6.97383
#
# Compressibility (1/GPa) = 0.01589027
#
# Stress axis : x y z
#
# Youngs Moduli (GPa) = 58.96119 58.96119 106.31304
#
# Poissons Ratio (x) = 0.41158 0.35815
# Poissons Ratio (y) = 0.41158 0.35815
# Poissons Ratio (z) = 0.19863 0.19863
#
# Static dielectric constant tensor:
#      x y z
#    x 3.686620 0.000000 0.000000 
#    y 0.000000 3.686620 0.000000 
#    z 0.000000 0.000000 4.217120 
# 
# 
# High freq. dielectric constant tensor:
#      x y z
#    x 1.791800 0.000000 0.000000 
#    y 0.000000 1.791800 0.000000 
#    z 0.000000 0.000000 1.847870 
# 
# From -- ./inp_files/4174.got.cif
#   From: 2010.03.12/outbox.cif.g09.slc.cpg/sg151_3_cif.got.tgz:4174.got - 2010.04.03 13:42:29.
