data_PCOD8321332
_publ_section_title
;
Structure prediction by ZEFSAII (Michael W. Deem and Ramdas Pophale) SiO2 
 PCOD8321332
Probable space group: P 3
;
_chemical_formula_sum "Si O2"
_cell_formula_units_Z 18
_cell_length_a 12.389104
_cell_length_b 12.389104
_cell_length_c 7.117130
_cell_angle_alpha 90.000000
_cell_angle_beta 90.000000
_cell_angle_gamma 120.000000
_cell_volume 946.052696
_symmetry_space_group_name_H-M "P 3"
_symmetry_group_IT_number 143
_symmetry_cell_setting 'hexagonal'
loop_
_space_group_symop_operation_xyz
x,y,z
-y,x-y,z
-x+y,-x,z
loop_
_atom_site_type_symbol
_atom_site_label
_atom_site_fract_x
_atom_site_fract_y
_atom_site_fract_z
Si Si1 0.233734 0.981715 0.849040
Si Si2 0.918685 0.567067 0.586572
Si Si3 0.766266 0.018285 0.919905
Si Si4 0.567067 0.648382 0.182373
Si Si5 0.900400 0.315049 0.515706
Si Si6 0.585352 0.900400 0.253239
O O1 0.094942 0.867589 0.821055
O O2 0.227353 0.094941 0.947890
O O3 0.293929 0.019317 0.643956
O O4 0.314016 0.941278 0.977289
O O5 0.941278 0.627262 0.791655
O O6 0.894019 0.428275 0.614557
O O7 0.799078 0.560687 0.487722
O O8 0.039405 0.647349 0.458322
O O9 0.706071 0.980683 0.124989
O O10 0.647349 0.607944 0.310623
O O11 0.560687 0.761609 0.281223
O O12 0.428275 0.534256 0.154388
#
# Coordination Sequence:
#
# PCOD8321332 Si02
#       6
#     3   3   3   3   3   3
#     4  10  20  34  52  74 100 130 164 202 244 290
#     4  10  20  34  52  74 100 130 164 202 244 290
#     4  10  20  34  52  74 100 130 164 202 244 290
#     4  10  20  34  52  74 100 130 164 202 244 290
#     4  10  20  34  52  74 100 130 164 202 244 290
#     4  10  20  34  52  74 100 130 164 202 244 290
#
# _framework density 19.026423999999999
#
# number of rings (size 3 to 8) (size 9 to 14) (size 15 to 20)
#    0.000    2.000    0.000    4.000    0.000    0.000 
#    0.000    0.000    0.000   32.000    0.000    0.000 
#    0.000    0.000    0.000    0.000    0.000    0.000 
#
# Total GULP energy -223312.106928 kJ/mol
# GULP energy per Si atom -12406.228163 kJ/mol
# Density = 1.898312 g / cm^3
# Si number density = 19.026424 Si / 1000 Ang^3
#
#
#
# Elastic Constant Matrix: (Units=GPa)
#
#
# Indices 1 2 3 4 5 6 
#
# 1 72.5893 33.7191 -6.5186 2.5427 -8.0744 0.0000
# 2 33.7191 72.5893 -6.5186 -2.5427 8.0744 0.0000
# 3 -6.5186 -6.5186 21.1929 0.0000 0.0000 0.0000
# 4 2.5427 -2.5427 0.0000 15.2493 0.0000 8.0744
# 5 -8.0744 8.0744 0.0000 0.0000 15.2493 2.5427
# 6 0.0000 0.0000 0.0000 8.0744 2.5427 19.4351
#
#
#
# Elastic Compliance Matrix: (Units=1/GPa)
#
#
# Indices 1 2 3 4 5 6 
#
# 1 0.021853 -0.012078 0.003007 -0.005658 0.017966 0.000000
# 2 -0.012078 0.021853 0.003007 0.005658 -0.017966 0.000000
# 3 0.003007 0.003007 0.049035 0.000000 0.000000 0.000000
# 4 -0.005658 0.005658 0.000000 0.086490 0.000000 -0.035932
# 5 0.017966 -0.017966 0.000000 0.000000 0.086490 -0.011316
# 6 0.000000 0.000000 0.000000 -0.035932 -0.011316 0.067862
#
#
# Mechanical properties :
#
#
# Convention : Reuss Voigt Hill
#
# Bulk Modulus (GPa) = 12.40497 23.08169 17.74333
# Shear Modulus (GPa) = 13.41984 19.69938 16.55961
#
# Velocity S-wave (km/s) = 2.65868 3.22121 2.95337
# Velocity P-wave (km/s) = 3.99485 5.09830 4.57992
#
# Compressibility (1/GPa) = 0.08061285
#
# Stress axis : x y z
#
# Youngs Moduli (GPa) = 45.75993 45.75993 20.39351
#
# Poissons Ratio (x) = 0.55268 -0.06132
# Poissons Ratio (y) = 0.55268 -0.06132
# Poissons Ratio (z) = -0.13759 -0.13759
#
# Static dielectric constant tensor:
#      x y z
#    x 3.569480 0.000000 0.000000 
#    y 0.000000 3.569480 0.000000 
#    z 0.000000 0.000000 3.130680 
# 
# 
# High freq. dielectric constant tensor:
#      x y z
#    x 1.750910 0.000000 0.000000 
#    y 0.000000 1.750910 0.000000 
#    z 0.000000 0.000000 1.726770 
# 
# From -- ./inp_files/159.got.cif
#   From: 2010.03.12/outbox.cif.g09.slc.cpg/sg143_cif.got.tgz:159.got - 2010.04.03 13:34:35.
