data_PCOD8321786
_publ_section_title
;
Structure prediction by ZEFSAII (Michael W. Deem and Ramdas Pophale) SiO2 
 PCOD8321786
Probable space group: R -3
;
_chemical_formula_sum "Si O2"
_cell_formula_units_Z 126
_cell_length_a 17.329670
_cell_length_b 17.329670
_cell_length_c 26.116711
_cell_angle_alpha 90.000000
_cell_angle_beta 90.000000
_cell_angle_gamma 120.000000
_cell_volume 6792.500835
_symmetry_space_group_name_H-M "R -3"
_symmetry_group_IT_number 148
_symmetry_cell_setting 'hexagonal'
loop_
_space_group_symop_operation_xyz
x,y,z
-y,x-y,z
-x+y,-x,z
-x,-y,-z
y,-x+y,-z
x-y,x,-z
2/3+x,1/3+y,1/3+z
2/3-y,1/3+x-y,1/3+z
2/3-x+y,1/3-x,1/3+z
2/3-x,1/3-y,1/3-z
2/3+y,1/3-x+y,1/3-z
2/3+x-y,1/3+x,1/3-z
1/3+x,2/3+y,2/3+z
1/3-y,2/3+x-y,2/3+z
1/3-x+y,2/3-x,2/3+z
1/3-x,2/3-y,2/3-z
1/3+y,2/3-x+y,2/3-z
1/3+x-y,2/3+x,2/3-z
loop_
_atom_site_type_symbol
_atom_site_label
_atom_site_fract_x
_atom_site_fract_y
_atom_site_fract_z
Si Si1 0.507235 0.664998 0.241664
Si Si2 0.092859 0.457754 0.983155
Si Si3 0.492765 0.157763 0.758336
Si Si4 0.666667 0.645329 0.833333
Si Si5 0.178417 0.180813 0.792644
Si Si6 0.154916 0.669063 0.874023
Si Si7 0.124422 0.426193 0.350178
O O1 0.515779 0.757890 0.224843
O O2 0.415154 0.584846 0.220045
O O3 0.589763 0.660315 0.217398
O O4 0.505788 0.655540 0.303066
O O5 0.133816 0.443142 0.931346
O O6 0.071581 0.535790 0.970111
O O7 0.160878 0.483086 0.030267
O O8 0.999999 0.370800 1.000000
O O9 0.410237 0.070551 0.782602
O O10 0.578715 0.654174 0.836162
O O11 0.754618 0.742126 0.830505
O O12 0.087715 0.175430 0.811734
O O13 0.164673 0.082336 0.794135
O O14 0.133817 0.690674 0.931346
#
# Coordination Sequence:
#
# PCOD8321786 Si02
#       7
#    18  18  18  18  18  18  18
#     4  11  21  34  53  79 110 145 181 219 266 326
#     4   9  17  33  55  77 104 138 175 218 267 317
#     4  11  21  34  53  79 110 145 181 219 266 326
#     4  12  23  36  53  76 112 150 178 218 271 326
#     4  11  22  38  58  81 107 140 184 231 275 319
#     4  11  22  38  58  81 107 140 184 231 275 319
#     4   9  17  33  55  77 104 138 175 218 267 317
#
# _framework density 18.549869000000001
#
# number of rings (size 3 to 8) (size 9 to 14) (size 15 to 20)
#    0.000    1.429    2.857    4.429    0.000    0.000 
#    0.000    4.286    0.000    0.000    0.000    0.000 
#    0.000    0.000    0.000   12.286    0.000    0.000 
#
# Total GULP energy -520736.428829 kJ/mol
# GULP energy per Si atom -12398.486401 kJ/mol
# Density = 1.850765 g / cm^3
# Si number density = 18.549869 Si / 1000 Ang^3
#
#
#
# Elastic Constant Matrix: (Units=GPa)
#
#
# Indices 1 2 3 4 5 6 
#
# 1 125.2943 60.2915 29.4530 2.2729 0.0000 0.0000
# 2 60.2915 125.2943 29.4530 -2.2729 0.0000 0.0000
# 3 29.4530 29.4530 50.6491 0.0000 0.0000 0.0000
# 4 2.2729 -2.2729 0.0000 21.4409 0.0000 0.0000
# 5 0.0000 0.0000 0.0000 0.0000 21.4409 2.2729
# 6 0.0000 0.0000 0.0000 0.0000 2.2729 32.5014
#
#
#
# Elastic Compliance Matrix: (Units=1/GPa)
#
#
# Indices 1 2 3 4 5 6 
#
# 1 0.011053 -0.004445 -0.003843 -0.001643 0.000000 0.000000
# 2 -0.004445 0.011053 -0.003843 0.001643 0.000000 0.000000
# 3 -0.003843 -0.003843 0.024213 0.000000 0.000000 0.000000
# 4 -0.001643 0.001643 0.000000 0.046988 0.000000 0.000000
# 5 0.000000 0.000000 0.000000 0.000000 0.046988 -0.003286
# 6 0.000000 0.000000 0.000000 0.000000 -0.003286 0.030998
#
#
# Mechanical properties :
#
#
# Convention : Reuss Voigt Hill
#
# Bulk Modulus (GPa) = 45.33452 59.95918 52.64685
# Shear Modulus (GPa) = 24.64173 27.21264 25.92719
#
# Velocity S-wave (km/s) = 3.64868 3.83430 3.74264
# Velocity P-wave (km/s) = 6.49945 7.21082 6.86435
#
# Compressibility (1/GPa) = 0.02205825
#
# Stress axis : x y z
#
# Youngs Moduli (GPa) = 90.46962 90.46962 41.30062
#
# Poissons Ratio (x) = 0.40218 0.15870
# Poissons Ratio (y) = 0.40218 0.15870
# Poissons Ratio (z) = 0.34764 0.34764
#
# Static dielectric constant tensor:
#      x y z
#    x 3.293720 0.000000 0.000000 
#    y 0.000000 3.293720 0.000000 
#    z 0.000000 0.000000 3.374310 
# 
# 
# High freq. dielectric constant tensor:
#      x y z
#    x 1.708490 0.000000 0.000000 
#    y 0.000000 1.708490 0.000000 
#    z 0.000000 0.000000 1.714730 
# 
# From -- ./inp_files/3465.got.cif
#   From: 2010.03.12/outbox.cif.g09.slc.cpg/sg148_2_cif.got.tgz:3465.got - 2010.04.03 13:38:46.
