data_PCOD8321289
_publ_section_title
;
Structure prediction by ZEFSAII (Michael W. Deem and Ramdas Pophale) SiO2 
 PCOD8321289
Probable space group: I 41/A C D
;
_chemical_formula_sum "Si O2"
_cell_formula_units_Z 112
_cell_length_a 14.548942
_cell_length_b 14.548942
_cell_length_c 23.189816
_cell_angle_alpha 90.000000
_cell_angle_beta 90.000000
_cell_angle_gamma 90.000000
_cell_volume 4908.628084
_symmetry_space_group_name_H-M "I 41/A C D"
_symmetry_group_IT_number 142
_space_group.IT_coordinate_system_code '2'
_symmetry_cell_setting 'tetragonal'
loop_
_space_group_symop_operation_xyz
x,y,z
1/4-y,3/4+x,1/4+z
-x,1/2-y,z
1/4+y,1/4-x,3/4+z
x,-y,1/2-z
1/2-x,y,-z
3/4+y,1/4+x,1/4-z
1/4-y,1/4-x,1/4-z
-x,-y,-z
3/4+y,1/4-x,3/4-z
x,1/2+y,-z
3/4-y,3/4+x,1/4-z
-x,y,1/2+z
1/2+x,-y,z
1/4-y,3/4-x,3/4+z
3/4+y,3/4+x,3/4+z
1/2+x,1/2+y,1/2+z
3/4-y,1/4+x,3/4+z
1/2-x,-y,1/2+z
3/4+y,3/4-x,1/4+z
1/2+x,1/2-y,-z
-x,1/2+y,1/2-z
1/4+y,3/4+x,3/4-z
3/4-y,3/4-x,3/4-z
1/2-x,1/2-y,1/2-z
1/4+y,3/4-x,1/4-z
1/2+x,y,1/2-z
1/4-y,1/4+x,3/4-z
1/2-x,1/2+y,z
x,1/2-y,1/2+z
3/4-y,1/4-x,1/4+z
1/4+y,1/4+x,1/4+z
loop_
_atom_site_type_symbol
_atom_site_label
_atom_site_fract_x
_atom_site_fract_y
_atom_site_fract_z
Si Si1 0.500000 0.250000 0.778102
Si Si2 0.896293 0.853708 0.875000
Si Si3 0.629605 0.653227 0.946596
Si Si4 0.755092 0.000000 0.750000
Si Si5 0.800680 0.340118 0.911930
O O1 0.552719 0.322657 0.817394
O O2 0.579001 0.205879 0.738711
O O3 0.788365 0.834643 0.871011
O O4 0.679695 0.561477 0.967771
O O5 0.598927 0.637857 0.880495
O O6 0.691670 0.745744 0.948426
O O7 0.821244 0.950083 0.703859
#
# Coordination Sequence:
#
# PCOD8321289 Si02
#       5
#    16  16  32  16  32
#     4  11  26  45  74 106 146 199 245 320 380 440
#     4  11  24  48  70 106 146 195 254 306 370 457
#     4  12  26  45  74 105 149 193 247 312 378 451
#     4  12  24  46  72 108 142 198 246 306 374 454
#     4  12  26  47  73 112 148 193 254 305 376 461
#
# _framework density 22.816966000000001
#
# number of rings (size 3 to 8) (size 9 to 14) (size 15 to 20)
#    0.000    0.286    2.857    6.000    4.000    1.143 
#    0.000    0.000    0.000    0.000    0.000    0.000 
#    0.000    0.000    0.000    0.000    0.000    0.000 
#
# Total GULP energy -694455.168484 kJ/mol
# GULP energy per Si atom -12400.985151 kJ/mol
# Density = 2.276503 g / cm^3
# Si number density = 22.816966 Si / 1000 Ang^3
#
#
#
# Elastic Constant Matrix: (Units=GPa)
#
#
# Indices 1 2 3 4 5 6 
#
# 1 132.1885 47.3238 58.8946 0.0000 0.0000 0.0000
# 2 47.3238 132.1898 58.8947 0.0000 0.0000 0.0000
# 3 58.8946 58.8947 142.7978 0.0000 0.0000 0.0000
# 4 0.0000 0.0000 0.0000 42.8432 0.0000 0.0000
# 5 0.0000 0.0000 0.0000 0.0000 42.8429 0.0000
# 6 0.0000 0.0000 0.0000 0.0000 0.0000 39.9497
#
#
#
# Elastic Compliance Matrix: (Units=1/GPa)
#
#
# Indices 1 2 3 4 5 6 
#
# 1 0.009711 -0.002073 -0.003150 0.000000 0.000000 0.000000
# 2 -0.002073 0.009710 -0.003150 0.000000 0.000000 0.000000
# 3 -0.003150 -0.003150 0.009601 0.000000 0.000000 0.000000
# 4 0.000000 0.000000 0.000000 0.023341 0.000000 0.000000
# 5 0.000000 0.000000 0.000000 0.000000 0.023341 0.000000
# 6 0.000000 0.000000 0.000000 0.000000 0.000000 0.025031
#
#
# Mechanical properties :
#
#
# Convention : Reuss Voigt Hill
#
# Bulk Modulus (GPa) = 81.45732 81.93359 81.69545
# Shear Modulus (GPa) = 41.12739 41.26468 41.19604
#
# Velocity S-wave (km/s) = 4.25018 4.25727 4.25373
# Velocity P-wave (km/s) = 7.73713 7.75582 7.74648
#
# Compressibility (1/GPa) = 0.01227637
#
# Stress axis : x y z
#
# Youngs Moduli (GPa) = 102.98130 102.98247 104.15344
#
# Poissons Ratio (x) = 0.21348 0.32808
# Poissons Ratio (y) = 0.21347 0.32808
# Poissons Ratio (z) = 0.32439 0.32439
#
# Static dielectric constant tensor:
#      x y z
#    x 4.178130 0.000000 0.000000 
#    y 0.000000 4.178090 0.000000 
#    z 0.000000 0.000000 4.301900 
# 
# 
# High freq. dielectric constant tensor:
#      x y z
#    x 1.905770 0.000000 0.000000 
#    y 0.000000 1.905770 0.000000 
#    z 0.000000 0.000000 1.919690 
# 
# From -- ./inp_files/9791.got.cif
#   From: 2010.03.12/outbox.cif.g09.slc.cpg/sg142_5_cif.got.tgz:9791.got - 2010.04.03 13:27:16.
