data_PCOD8321688
_publ_section_title
;
Structure prediction by ZEFSAII (Michael W. Deem and Ramdas Pophale) SiO2 
 PCOD8321688
Probable space group: R -3
;
_chemical_formula_sum "Si O2"
_cell_formula_units_Z 108
_cell_length_a 16.935466
_cell_length_b 16.935466
_cell_length_c 26.820228
_cell_angle_alpha 90.000000
_cell_angle_beta 90.000000
_cell_angle_gamma 120.000000
_cell_volume 6661.735722
_symmetry_space_group_name_H-M "R -3"
_symmetry_group_IT_number 148
_symmetry_cell_setting 'hexagonal'
loop_
_space_group_symop_operation_xyz
x,y,z
-y,x-y,z
-x+y,-x,z
-x,-y,-z
y,-x+y,-z
x-y,x,-z
2/3+x,1/3+y,1/3+z
2/3-y,1/3+x-y,1/3+z
2/3-x+y,1/3-x,1/3+z
2/3-x,1/3-y,1/3-z
2/3+y,1/3-x+y,1/3-z
2/3+x-y,1/3+x,1/3-z
1/3+x,2/3+y,2/3+z
1/3-y,2/3+x-y,2/3+z
1/3-x+y,2/3-x,2/3+z
1/3-x,2/3-y,2/3-z
1/3+y,2/3-x+y,2/3-z
1/3+x-y,2/3+x,2/3-z
loop_
_atom_site_type_symbol
_atom_site_label
_atom_site_fract_x
_atom_site_fract_y
_atom_site_fract_z
Si Si1 0.820969 0.820260 0.755000
Si Si2 0.902978 0.275547 0.482406
Si Si3 0.374734 0.279366 0.282686
Si Si4 0.179739 0.179031 0.755000
Si Si5 0.294098 0.057786 0.850928
Si Si6 0.762035 0.053968 0.050647
O O1 0.734095 0.761367 0.719745
O O2 0.903003 0.806007 0.735660
O O3 0.795357 0.788688 0.812104
O O4 0.852966 0.926483 0.752424
O O5 0.907486 0.318002 0.428726
O O6 0.871309 0.326664 0.521229
O O7 0.832308 0.167692 0.480733
O O8 1.000000 0.288652 0.500000
O O9 0.412705 0.333333 0.333333
O O10 0.398540 0.199270 0.279301
O O11 0.238633 0.265905 0.719745
O O12 0.256151 0.015331 0.904607
#
# Coordination Sequence:
#
# PCOD8321688 Si02
#       6
#    18  18  18  18  18  18
#     4   9  17  29  46  67  89 114 146 185 224 259
#     4   9  17  30  48  68  89 115 148 183 218 258
#     4  10  19  30  45  65  90 120 149 177 215 263
#     4   9  17  29  46  67  89 114 146 185 224 259
#     4   9  17  30  48  68  89 115 148 183 218 258
#     4  10  19  30  45  65  90 120 149 177 215 263
#
# _framework density 16.21199
#
# number of rings (size 3 to 8) (size 9 to 14) (size 15 to 20)
#    0.000    2.667    0.000    2.333    0.000    4.667 
#    0.000    0.000    0.000    8.333    0.000    0.000 
#    0.000    0.000    0.000    0.000    0.000    0.000 
#
# Total GULP energy -446400.089999 kJ/mol
# GULP energy per Si atom -12400.002500 kJ/mol
# Density = 1.617509 g / cm^3
# Si number density = 16.211990 Si / 1000 Ang^3
#
#
#
# Elastic Constant Matrix: (Units=GPa)
#
#
# Indices 1 2 3 4 5 6 
#
# 1 96.7433 52.1960 34.2833 -2.0257 0.0000 0.0000
# 2 52.1960 96.7433 34.2833 2.0257 0.0000 0.0000
# 3 34.2833 34.2833 85.0186 0.0000 0.0000 0.0000
# 4 -2.0257 2.0257 0.0000 19.4046 0.0000 0.0000
# 5 0.0000 0.0000 0.0000 0.0000 19.4046 -2.0257
# 6 0.0000 0.0000 0.0000 0.0000 -2.0257 22.2737
#
#
#
# Elastic Compliance Matrix: (Units=1/GPa)
#
#
# Indices 1 2 3 4 5 6 
#
# 1 0.015454 -0.007209 -0.003325 0.002366 0.000000 0.000000
# 2 -0.007209 0.015454 -0.003325 -0.002366 0.000000 0.000000
# 3 -0.003325 -0.003325 0.014443 0.000000 0.000000 0.000000
# 4 0.002366 -0.002366 0.000000 0.052028 0.000000 0.000000
# 5 0.000000 0.000000 0.000000 0.000000 0.052028 0.004732
# 6 0.000000 0.000000 0.000000 0.000000 0.004732 0.045326
#
#
# Mechanical properties :
#
#
# Convention : Reuss Voigt Hill
#
# Bulk Modulus (GPa) = 56.70774 57.78116 57.24445
# Shear Modulus (GPa) = 21.89822 22.73275 22.31548
#
# Velocity S-wave (km/s) = 3.67923 3.74868 3.71412
# Velocity P-wave (km/s) = 7.28724 7.37938 7.33345
#
# Compressibility (1/GPa) = 0.01763428
#
# Stress axis : x y z
#
# Youngs Moduli (GPa) = 64.70846 64.70846 69.23570
#
# Poissons Ratio (x) = 0.46650 0.23018
# Poissons Ratio (y) = 0.46650 0.23018
# Poissons Ratio (z) = 0.21513 0.21513
#
# Static dielectric constant tensor:
#      x y z
#    x 3.092180 0.000000 0.000000 
#    y 0.000000 3.092180 0.000000 
#    z 0.000000 0.000000 2.943740 
# 
# 
# High freq. dielectric constant tensor:
#      x y z
#    x 1.621560 0.000000 0.000000 
#    y 0.000000 1.621560 0.000000 
#    z 0.000000 0.000000 1.616120 
# 
# From -- ./inp_files/3387.got.cif
#   From: 2010.03.12/outbox.cif.g09.slc.cpg/sg148_2_cif.got.tgz:3387.got - 2010.04.03 13:38:46.
