data_PCOD8321352
_publ_section_title
;
Structure prediction by ZEFSAII (Michael W. Deem and Ramdas Pophale) SiO2 
 PCOD8321352
Probable space group: P 31
;
_chemical_formula_sum "Si O2"
_cell_formula_units_Z 18
_cell_length_a 8.998631
_cell_length_b 8.998631
_cell_length_c 12.688048
_cell_angle_alpha 90.000000
_cell_angle_beta 90.000000
_cell_angle_gamma 120.000000
_cell_volume 889.771173
_symmetry_space_group_name_H-M "P 31"
_symmetry_group_IT_number 144
_symmetry_cell_setting 'hexagonal'
loop_
_space_group_symop_operation_xyz
x,y,z
-y,x-y,1/3+z
-x+y,-x,2/3+z
loop_
_atom_site_type_symbol
_atom_site_label
_atom_site_fract_x
_atom_site_fract_y
_atom_site_fract_z
Si Si1 0.396801 0.898297 0.672800
Si Si2 0.709216 0.452996 0.393389
Si Si3 0.405591 0.597286 0.575890
Si Si4 0.051927 0.798968 0.347475
Si Si5 0.856390 0.276963 0.286337
Si Si6 0.823259 0.916487 0.250322
O O1 0.398361 0.771427 0.586155
O O2 0.422131 0.834811 0.785195
O O3 0.216470 0.894023 0.662038
O O4 0.544920 0.099548 0.660262
O O5 0.728234 0.285105 0.373760
O O6 0.674166 0.465350 0.514638
O O7 0.888394 0.613589 0.359788
O O8 0.235359 0.429436 0.623537
O O9 0.577072 0.630335 0.636423
O O10 0.121268 0.893618 0.460256
O O11 0.998943 0.912538 0.273155
O O12 0.849434 0.098208 0.285226
#
# Coordination Sequence:
#
# PCOD8321352 Si02
#       6
#     3   3   3   3   3   3
#     4  10  20  34  54  80 110 145 188 234 288 349
#     4   8  17  33  52  74 105 142 175 221 281 335
#     4  10  20  36  55  79 111 148 187 236 289 346
#     4   9  19  36  56  77 111 149 183 231 291 342
#     4   9  18  34  54  75 105 142 182 227 279 337
#     4  10  20  37  57  81 110 148 191 237 288 347
#
# _framework density 20.229922999999999
#
# number of rings (size 3 to 8) (size 9 to 14) (size 15 to 20)
#    0.000    2.667    0.000    2.000    0.000    2.667 
#    0.000    5.000    0.000    0.000    0.000    0.000 
#    0.000    0.000    0.000    0.000    0.000    0.000 
#
# Total GULP energy -223022.682236 kJ/mol
# GULP energy per Si atom -12390.149013 kJ/mol
# Density = 2.018388 g / cm^3
# Si number density = 20.229923 Si / 1000 Ang^3
#
#
#
# Elastic Constant Matrix: (Units=GPa)
#
#
# Indices 1 2 3 4 5 6 
#
# 1 75.6728 18.6763 13.3031 2.6497 3.1620 0.0000
# 2 18.6763 75.6728 13.3031 -2.6497 -3.1620 0.0000
# 3 13.3031 13.3031 53.0304 0.0000 0.0000 0.0000
# 4 2.6497 -2.6497 0.0000 30.6383 0.0000 -3.1620
# 5 3.1620 -3.1620 0.0000 0.0000 30.6383 2.6497
# 6 0.0000 0.0000 0.0000 -3.1620 2.6497 28.4982
#
#
#
# Elastic Compliance Matrix: (Units=1/GPa)
#
#
# Indices 1 2 3 4 5 6 
#
# 1 0.014650 -0.003244 -0.002861 -0.001547 -0.001847 0.000000
# 2 -0.003244 0.014650 -0.002861 0.001547 0.001847 0.000000
# 3 -0.002861 -0.002861 0.020293 0.000000 0.000000 0.000000
# 4 -0.001547 0.001547 0.000000 0.033288 0.000000 0.003693
# 5 -0.001847 0.001847 0.000000 0.000000 0.033288 -0.003095
# 6 0.000000 0.000000 0.000000 0.003693 -0.003095 0.035787
#
#
# Mechanical properties :
#
#
# Convention : Reuss Voigt Hill
#
# Bulk Modulus (GPa) = 31.58628 32.77120 32.17874
# Shear Modulus (GPa) = 27.70989 28.56120 28.13555
#
# Velocity S-wave (km/s) = 3.70503 3.76151 3.73337
# Velocity P-wave (km/s) = 5.82671 5.92451 5.87581
#
# Compressibility (1/GPa) = 0.03165932
#
# Stress axis : x y z
#
# Youngs Moduli (GPa) = 68.26053 68.26053 49.27896
#
# Poissons Ratio (x) = 0.22143 0.14100
# Poissons Ratio (y) = 0.22143 0.14100
# Poissons Ratio (z) = 0.19531 0.19531
#
# Static dielectric constant tensor:
#      x y z
#    x 3.747470 0.000000 0.000000 
#    y 0.000000 3.747470 0.000000 
#    z 0.000000 0.000000 3.628400 
# 
# 
# High freq. dielectric constant tensor:
#      x y z
#    x 1.782410 0.000000 0.000000 
#    y 0.000000 1.782410 0.000000 
#    z 0.000000 0.000000 1.780890 
# 
# From -- ./inp_files/496.got.cif
#   From: 2010.03.12/outbox.cif.g09.slc.cpg/sg144_cif.got.tgz:496.got - 2010.04.03 13:34:42.
