data_PCOD8321415
_publ_section_title
;
Structure prediction by ZEFSAII (Michael W. Deem and Ramdas Pophale) SiO2 
 PCOD8321415
Probable space group: P 31
;
_chemical_formula_sum "Si O2"
_cell_formula_units_Z 18
_cell_length_a 8.782858
_cell_length_b 8.782858
_cell_length_c 11.236509
_cell_angle_alpha 90.000000
_cell_angle_beta 90.000000
_cell_angle_gamma 120.000000
_cell_volume 750.643551
_symmetry_space_group_name_H-M "P 31"
_symmetry_group_IT_number 144
_symmetry_cell_setting 'hexagonal'
loop_
_space_group_symop_operation_xyz
x,y,z
-y,x-y,1/3+z
-x+y,-x,2/3+z
loop_
_atom_site_type_symbol
_atom_site_label
_atom_site_fract_x
_atom_site_fract_y
_atom_site_fract_z
Si Si1 0.121611 0.401864 0.544270
Si Si2 0.612585 0.514217 0.081197
Si Si3 0.327709 0.957953 0.780692
Si Si4 0.429835 0.799575 0.577485
Si Si5 0.874488 0.352033 0.348221
Si Si6 0.886385 0.679782 0.274089
O O1 0.273886 0.597798 0.576058
O O2 0.173150 0.255799 0.577345
O O3 0.943010 0.350765 0.615929
O O4 0.054218 0.376806 0.408267
O O5 0.519003 0.605768 0.149461
O O6 0.497519 0.302875 0.071578
O O7 0.793533 0.579966 0.151846
O O8 0.443574 0.884781 0.709292
O O9 0.187524 0.798378 0.863651
O O10 0.236723 0.021462 0.681288
O O11 0.443830 0.114611 0.872413
O O12 0.876931 0.534718 0.365913
#
# Coordination Sequence:
#
# PCOD8321415 Si02
#       6
#     3   3   3   3   3   3
#     4  12  24  48  76 108 142 200 257 312 377 464
#     4  11  25  46  71 109 151 195 249 311 385 455
#     4  11  23  44  73 108 147 191 253 308 373 453
#     4  11  22  45  76 106 140 202 253 308 375 466
#     4  12  25  44  73 107 151 199 249 308 382 456
#     4  11  25  45  73 108 149 195 247 317 374 452
#
# _framework density 23.979424999999999
#
# number of rings (size 3 to 8) (size 9 to 14) (size 15 to 20)
#    0.000    0.667    3.333    5.000    0.000    1.333 
#    3.000    0.000    0.000    0.000    0.000    0.000 
#    0.000    0.000    0.000    0.000    0.000    0.000 
#
# Total GULP energy -223045.651500 kJ/mol
# GULP energy per Si atom -12391.425083 kJ/mol
# Density = 2.392485 g / cm^3
# Si number density = 23.979425 Si / 1000 Ang^3
#
#
#
# Elastic Constant Matrix: (Units=GPa)
#
#
# Indices 1 2 3 4 5 6 
#
# 1 106.6579 45.6231 45.1493 3.1400 0.9606 0.0000
# 2 45.6231 106.6579 45.1493 -3.1400 -0.9606 0.0000
# 3 45.1493 45.1493 132.7121 0.0000 0.0000 0.0000
# 4 3.1400 -3.1400 0.0000 38.8189 0.0000 -0.9606
# 5 0.9606 -0.9606 0.0000 0.0000 38.8189 3.1400
# 6 0.0000 0.0000 0.0000 -0.9606 3.1400 30.5174
#
#
#
# Elastic Compliance Matrix: (Units=1/GPa)
#
#
# Indices 1 2 3 4 5 6 
#
# 1 0.012380 -0.004154 -0.002799 -0.001337 -0.000409 0.000000
# 2 -0.004154 0.012380 -0.002799 0.001337 0.000409 0.000000
# 3 -0.002799 -0.002799 0.009439 0.000000 0.000000 0.000000
# 4 -0.001337 0.001337 0.000000 0.025997 0.000000 0.000818
# 5 -0.000409 0.000409 0.000000 0.000000 0.025997 -0.002675
# 6 0.000000 0.000000 0.000000 0.000818 -0.002675 0.033069
#
#
# Mechanical properties :
#
#
# Convention : Reuss Voigt Hill
#
# Bulk Modulus (GPa) = 68.03908 68.65236 68.34572
# Shear Modulus (GPa) = 34.80295 35.63810 35.22052
#
# Velocity S-wave (km/s) = 3.81381 3.85930 3.83663
# Velocity P-wave (km/s) = 6.91586 6.96784 6.94190
#
# Compressibility (1/GPa) = 0.01469743
#
# Stress axis : x y z
#
# Youngs Moduli (GPa) = 80.77242 80.77242 105.93980
#
# Poissons Ratio (x) = 0.33554 0.29649
# Poissons Ratio (y) = 0.33554 0.29649
# Poissons Ratio (z) = 0.22605 0.22605
#
# Static dielectric constant tensor:
#      x y z
#    x 4.126670 0.000000 0.000000 
#    y 0.000000 4.126670 0.000000 
#    z 0.000000 0.000000 4.680870 
# 
# 
# High freq. dielectric constant tensor:
#      x y z
#    x 1.934530 0.000000 0.000000 
#    y 0.000000 1.934530 0.000000 
#    z 0.000000 0.000000 1.980220 
# 
# From -- ./inp_files/502.got.cif
#   From: 2010.03.12/outbox.cif.g09.slc.cpg/sg144_cif.got.tgz:502.got - 2010.04.03 13:34:42.
