data_PCOD8321849
_publ_section_title
;
Structure prediction by ZEFSAII (Michael W. Deem and Ramdas Pophale) SiO2 
 PCOD8321849
Probable space group: P 3 1 2
;
_chemical_formula_sum "Si O2"
_cell_formula_units_Z 42
_cell_length_a 12.541622
_cell_length_b 12.541622
_cell_length_c 17.821533
_cell_angle_alpha 90.000000
_cell_angle_beta 90.000000
_cell_angle_gamma 120.000000
_cell_volume 2427.633406
_symmetry_space_group_name_H-M "P 3 1 2"
_symmetry_group_IT_number 149
_symmetry_cell_setting 'hexagonal'
loop_
_space_group_symop_operation_xyz
x,y,z
-y,x-y,z
-x+y,-x,z
-y,-x,-z
-x+y,y,-z
x,x-y,-z
loop_
_atom_site_type_symbol
_atom_site_label
_atom_site_fract_x
_atom_site_fract_y
_atom_site_fract_z
Si Si1 0.083605 0.665028 0.359027
Si Si2 0.419328 0.333765 0.218950
Si Si3 0.417459 0.334699 0.500000
Si Si4 0.914437 0.580671 0.781051
Si Si5 0.334972 0.418577 0.640973
Si Si6 0.244928 0.000149 0.085160
Si Si7 0.755221 0.755072 0.914839
O O1 0.122774 0.561387 0.364174
O O2 0.203723 0.796277 0.364283
O O3 0.015376 0.656222 0.281593
O O4 0.994718 0.651910 0.426919
O O5 0.414350 0.207175 0.238757
O O6 0.560620 0.439380 0.216602
O O7 0.359024 0.329575 0.138621
O O8 0.559548 0.440453 0.500000
O O9 0.411167 0.205584 0.500000
O O10 0.348090 0.342807 0.573082
O O11 0.015376 0.656222 0.718408
O O12 0.970551 0.640975 0.861379
O O13 0.129921 0.870079 0.108136
O O14 0.203803 0.101901 0.094680
O O15 0.287224 0.998114 1.000000
#
# Coordination Sequence:
#
# PCOD8321849 Si02
#       7
#     6   6   6   6   6   6   6
#     4  10  20  34  53  75  99 128 163 204 247 290
#     4  10  20  33  50  72  99 131 165 202 244 291
#     4  10  20  34  54  78 104 134 166 200 238 284
#     4  10  20  33  50  72  99 131 165 202 244 291
#     4  10  20  34  53  75  99 128 163 204 247 290
#     4   9  17  30  49  72  97 126 161 201 244 290
#     4   9  17  30  49  72  97 126 161 201 244 290
#
# _framework density 17.300801
#
# number of rings (size 3 to 8) (size 9 to 14) (size 15 to 20)
#    0.000    2.286    0.000    3.143    0.000    1.714 
#    0.000    4.286    0.000   12.000    0.000    0.000 
#    0.000    0.000    0.000    0.000    0.000    0.000 
#
# Total GULP energy -520919.032585 kJ/mol
# GULP energy per Si atom -12402.834109 kJ/mol
# Density = 1.726142 g / cm^3
# Si number density = 17.300801 Si / 1000 Ang^3
#
#
#
# Elastic Constant Matrix: (Units=GPa)
#
#
# Indices 1 2 3 4 5 6 
#
# 1 112.3702 68.0728 55.0675 0.0000 -0.0008 0.0000
# 2 68.0728 112.3702 55.0675 0.0000 0.0008 0.0000
# 3 55.0675 55.0675 111.1027 0.0000 0.0000 0.0000
# 4 0.0000 0.0000 0.0000 9.9282 0.0000 0.0008
# 5 -0.0008 0.0008 0.0000 0.0000 9.9282 0.0000
# 6 0.0000 0.0000 0.0000 0.0008 0.0000 22.1487
#
#
#
# Elastic Compliance Matrix: (Units=1/GPa)
#
#
# Indices 1 2 3 4 5 6 
#
# 1 0.015260 -0.007315 -0.003938 0.000000 0.000002 0.000000
# 2 -0.007315 0.015260 -0.003938 0.000000 -0.000002 0.000000
# 3 -0.003938 -0.003938 0.012905 0.000000 0.000000 0.000000
# 4 0.000000 0.000000 0.000000 0.100723 0.000000 -0.000004
# 5 0.000002 -0.000002 0.000000 0.000000 0.100723 0.000000
# 6 0.000000 0.000000 0.000000 -0.000004 0.000000 0.045149
#
#
# Mechanical properties :
#
#
# Convention : Reuss Voigt Hill
#
# Bulk Modulus (GPa) = 76.66942 76.91763 76.79353
# Shear Modulus (GPa) = 15.39647 18.91005 17.15326
#
# Velocity S-wave (km/s) = 2.98640 3.30967 3.15218
# Velocity P-wave (km/s) = 7.50355 7.69160 7.59815
#
# Compressibility (1/GPa) = 0.01304301
#
# Stress axis : x y z
#
# Youngs Moduli (GPa) = 65.53011 65.53011 77.49173
#
# Poissons Ratio (x) = 0.47932 0.30518
# Poissons Ratio (y) = 0.47932 0.30518
# Poissons Ratio (z) = 0.25807 0.25807
#
# Static dielectric constant tensor:
#      x y z
#    x 3.118170 0.000000 0.000000 
#    y 0.000000 3.118170 0.000000 
#    z 0.000000 0.000000 3.459560 
# 
# 
# High freq. dielectric constant tensor:
#      x y z
#    x 1.664890 0.000000 0.000000 
#    y 0.000000 1.664890 0.000000 
#    z 0.000000 0.000000 1.684740 
# 
# From -- ./inp_files/1087.got.cif
#   From: 2010.03.12/outbox.cif.g09.slc.cpg/sg149_cif.got.tgz:1087.got - 2010.04.03 13:40:41.
