data_PCOD8321814
_publ_section_title
;
Structure prediction by ZEFSAII (Michael W. Deem and Ramdas Pophale) SiO2 
 PCOD8321814
Probable space group: R -3
;
_chemical_formula_sum "Si O2"
_cell_formula_units_Z 60
_cell_length_a 11.368486
_cell_length_b 11.368486
_cell_length_c 21.058411
_cell_angle_alpha 90.000000
_cell_angle_beta 90.000000
_cell_angle_gamma 120.000000
_cell_volume 2357.010363
_symmetry_space_group_name_H-M "R -3"
_symmetry_group_IT_number 148
_symmetry_cell_setting 'hexagonal'
loop_
_space_group_symop_operation_xyz
x,y,z
-y,x-y,z
-x+y,-x,z
-x,-y,-z
y,-x+y,-z
x-y,x,-z
2/3+x,1/3+y,1/3+z
2/3-y,1/3+x-y,1/3+z
2/3-x+y,1/3-x,1/3+z
2/3-x,1/3-y,1/3-z
2/3+y,1/3-x+y,1/3-z
2/3+x-y,1/3+x,1/3-z
1/3+x,2/3+y,2/3+z
1/3-y,2/3+x-y,2/3+z
1/3-x+y,2/3-x,2/3+z
1/3-x,2/3-y,2/3-z
1/3+y,2/3-x+y,2/3-z
1/3+x-y,2/3+x,2/3-z
loop_
_atom_site_type_symbol
_atom_site_label
_atom_site_fract_x
_atom_site_fract_y
_atom_site_fract_z
Si Si1 0.389055 0.303256 0.854170
Si Si2 0.635415 0.858753 0.760157
Si Si3 0.023469 0.707080 0.314926
Si Si4 0.000000 0.000000 0.924705
O O1 0.520934 0.449805 0.845510
O O2 0.255243 0.309244 0.826812
O O3 0.379020 0.279841 0.929946
O O4 0.741302 0.821667 0.724650
O O5 0.485681 0.729179 0.768629
O O6 0.618802 0.960554 0.712091
O O7 0.166667 0.833334 0.333334
O O8 0.000000 0.000000 0.000000
#
# Coordination Sequence:
#
# PCOD8321814 Si02
#       4
#    18  18  18   6
#     4  12  26  45  71 107 150 201 254 315 382 462
#     4  12  24  47  72 109 142 193 256 313 386 456
#     4  12  25  46  72 103 147 190 244 316 384 458
#     4  12  21  42  84  99 135 195 246 313 380 463
#
# _framework density 25.455974999999999
#
# number of rings (size 3 to 8) (size 9 to 14) (size 15 to 20)
#    0.000    0.000    6.000    4.800    0.000    0.000 
#    1.800    0.000    0.000    0.000    0.000    0.000 
#    0.000    0.000    0.000    0.000    0.000    0.000 
#
# Total GULP energy -247902.346965 kJ/mol
# GULP energy per Si atom -12395.117348 kJ/mol
# Density = 2.539804 g / cm^3
# Si number density = 25.455975 Si / 1000 Ang^3
#
#
#
# Elastic Constant Matrix: (Units=GPa)
#
#
# Indices 1 2 3 4 5 6 
#
# 1 142.1154 50.7607 20.5763 7.2098 4.0857 0.0000
# 2 50.7607 142.1154 20.5763 -7.2098 -4.0857 0.0000
# 3 20.5763 20.5763 148.5492 0.0000 0.0000 0.0000
# 4 7.2098 -7.2098 0.0000 37.2951 0.0000 -4.0857
# 5 4.0857 -4.0857 0.0000 0.0000 37.2951 7.2098
# 6 0.0000 0.0000 0.0000 -4.0857 7.2098 45.6773
#
#
#
# Elastic Compliance Matrix: (Units=1/GPa)
#
#
# Indices 1 2 3 4 5 6 
#
# 1 0.008374 -0.003032 -0.000740 -0.002205 -0.001250 0.000000
# 2 -0.003032 0.008374 -0.000740 0.002205 0.001250 0.000000
# 3 -0.000740 -0.000740 0.006937 0.000000 0.000000 0.000000
# 4 -0.002205 0.002205 0.000000 0.027939 0.000000 0.002499
# 5 -0.001250 0.001250 0.000000 0.000000 0.027939 -0.004410
# 6 0.000000 0.000000 0.000000 0.002499 -0.004410 0.022812
#
#
# Mechanical properties :
#
#
# Convention : Reuss Voigt Hill
#
# Bulk Modulus (GPa) = 68.20435 68.51183 68.35809
# Shear Modulus (GPa) = 42.99680 46.77796 44.88738
#
# Velocity S-wave (km/s) = 4.11428 4.29138 4.20376
# Velocity P-wave (km/s) = 7.03001 7.17822 7.10450
#
# Compressibility (1/GPa) = 0.01466182
#
# Stress axis : x y z
#
# Youngs Moduli (GPa) = 119.41204 119.41204 144.15895
#
# Poissons Ratio (x) = 0.36203 0.10668
# Poissons Ratio (y) = 0.36203 0.10668
# Poissons Ratio (z) = 0.08837 0.08837
#
# Static dielectric constant tensor:
#      x y z
#    x 4.623660 0.000000 0.000000 
#    y 0.000000 4.623660 0.000000 
#    z 0.000000 0.000000 5.314370 
# 
# 
# High freq. dielectric constant tensor:
#      x y z
#    x 2.013730 0.000000 0.000000 
#    y 0.000000 2.013730 0.000000 
#    z 0.000000 0.000000 2.060410 
# 
# From -- ./inp_files/3593.got.cif
#   From: 2010.03.12/outbox.cif.g09.slc.cpg/sg148_2_cif.got.tgz:3593.got - 2010.04.03 13:38:46.
