data_PCOD8321703
_publ_section_title
;
Structure prediction by ZEFSAII (Michael W. Deem and Ramdas Pophale) SiO2 
 PCOD8321703
Probable space group: R -3
;
_chemical_formula_sum "Si O2"
_cell_formula_units_Z 72
_cell_length_a 15.242617
_cell_length_b 15.242617
_cell_length_c 15.046421
_cell_angle_alpha 90.000000
_cell_angle_beta 90.000000
_cell_angle_gamma 120.000000
_cell_volume 3027.491382
_symmetry_space_group_name_H-M "R -3"
_symmetry_group_IT_number 148
_symmetry_cell_setting 'hexagonal'
loop_
_space_group_symop_operation_xyz
x,y,z
-y,x-y,z
-x+y,-x,z
-x,-y,-z
y,-x+y,-z
x-y,x,-z
2/3+x,1/3+y,1/3+z
2/3-y,1/3+x-y,1/3+z
2/3-x+y,1/3-x,1/3+z
2/3-x,1/3-y,1/3-z
2/3+y,1/3-x+y,1/3-z
2/3+x-y,1/3+x,1/3-z
1/3+x,2/3+y,2/3+z
1/3-y,2/3+x-y,2/3+z
1/3-x+y,2/3-x,2/3+z
1/3-x,2/3-y,2/3-z
1/3+y,2/3-x+y,2/3-z
1/3+x-y,2/3+x,2/3-z
loop_
_atom_site_type_symbol
_atom_site_label
_atom_site_fract_x
_atom_site_fract_y
_atom_site_fract_z
Si Si1 0.400303 0.237223 0.538774
Si Si2 0.163256 0.971310 0.952978
Si Si3 0.339975 0.927456 0.989927
Si Si4 0.137002 0.564726 0.208287
O O1 0.496590 0.322005 0.482611
O O2 0.419698 0.148322 0.571705
O O3 0.361513 0.279356 0.619468
O O4 0.312520 0.188154 0.465011
O O5 0.179779 0.054054 0.028256
O O6 0.246768 0.937918 0.958767
O O7 0.302618 0.822533 0.043112
O O8 0.176749 0.638941 0.119881
#
# Coordination Sequence:
#
# PCOD8321703 Si02
#       4
#    18  18  18  18
#     4  10  22  42  67 103 137 176 240 283 341 424
#     4  12  26  45  69  98 140 190 233 291 352 416
#     4  10  21  41  70  99 136 185 228 289 343 418
#     4  10  19  36  65 100 136 173 223 288 348 408
#
# _framework density 23.782066
#
# number of rings (size 3 to 8) (size 9 to 14) (size 15 to 20)
#    0.000    1.500    2.500    3.500    0.000    1.000 
#    0.000    0.000    0.000    0.000    0.000    0.000 
#    0.000    0.000    0.000    0.000    0.000    0.000 
#
# Total GULP energy -297453.987295 kJ/mol
# GULP energy per Si atom -12393.916137 kJ/mol
# Density = 2.372794 g / cm^3
# Si number density = 23.782066 Si / 1000 Ang^3
#
#
#
# Elastic Constant Matrix: (Units=GPa)
#
#
# Indices 1 2 3 4 5 6 
#
# 1 60.8015 18.0329 9.2614 7.2800 0.2345 0.0000
# 2 18.0329 60.8015 9.2614 -7.2800 -0.2345 0.0000
# 3 9.2614 9.2614 73.9418 0.0000 0.0000 0.0000
# 4 7.2800 -7.2800 0.0000 23.8588 0.0000 -0.2345
# 5 0.2345 -0.2345 0.0000 0.0000 23.8588 7.2800
# 6 0.0000 0.0000 0.0000 -0.2345 7.2800 21.3843
#
#
#
# Elastic Compliance Matrix: (Units=1/GPa)
#
#
# Indices 1 2 3 4 5 6 
#
# 1 0.019582 -0.006513 -0.001637 -0.007962 -0.000256 0.000000
# 2 -0.006513 0.019582 -0.001637 0.007962 0.000256 0.000000
# 3 -0.001637 -0.001637 0.013934 0.000000 0.000000 0.000000
# 4 -0.007962 0.007962 0.000000 0.046777 0.000000 0.000513
# 5 -0.000256 0.000256 0.000000 0.000000 0.046777 -0.015925
# 6 0.000000 0.000000 0.000000 0.000513 -0.015925 0.052190
#
#
# Mechanical properties :
#
#
# Convention : Reuss Voigt Hill
#
# Bulk Modulus (GPa) = 29.82834 29.85070 29.83952
# Shear Modulus (GPa) = 21.77775 24.41968 23.09871
#
# Velocity S-wave (km/s) = 3.02937 3.20786 3.11990
# Velocity P-wave (km/s) = 4.98053 5.12831 5.05496
#
# Compressibility (1/GPa) = 0.03352517
#
# Stress axis : x y z
#
# Youngs Moduli (GPa) = 51.06662 51.06662 71.76581
#
# Poissons Ratio (x) = 0.33259 0.11748
# Poissons Ratio (y) = 0.33259 0.11748
# Poissons Ratio (z) = 0.08359 0.08359
#
# Static dielectric constant tensor:
#      x y z
#    x 4.332030 0.000000 0.000000 
#    y 0.000000 4.332030 0.000000 
#    z 0.000000 0.000000 4.165120 
# 
# 
# High freq. dielectric constant tensor:
#      x y z
#    x 1.941300 0.000000 0.000000 
#    y 0.000000 1.941300 0.000000 
#    z 0.000000 0.000000 1.922020 
# 
# From -- ./inp_files/1871.got.cif
#   From: 2010.03.12/outbox.cif.g09.slc.cpg/sg148_1_cif.got.tgz:1871.got - 2010.04.03 13:38:46.
