data_PCOD8321277
_publ_section_title
;
Structure prediction by ZEFSAII (Michael W. Deem and Ramdas Pophale) SiO2 
 PCOD8321277
Probable space group: I 41/A C D
;
_chemical_formula_sum "Si O2"
_cell_formula_units_Z 128
_cell_length_a 22.543178
_cell_length_b 22.543178
_cell_length_c 11.803539
_cell_angle_alpha 90.000000
_cell_angle_beta 90.000000
_cell_angle_gamma 90.000000
_cell_volume 5998.498019
_symmetry_space_group_name_H-M "I 41/A C D"
_symmetry_group_IT_number 142
_space_group.IT_coordinate_system_code '2'
_symmetry_cell_setting 'tetragonal'
loop_
_space_group_symop_operation_xyz
x,y,z
1/4-y,3/4+x,1/4+z
-x,1/2-y,z
1/4+y,1/4-x,3/4+z
x,-y,1/2-z
1/2-x,y,-z
3/4+y,1/4+x,1/4-z
1/4-y,1/4-x,1/4-z
-x,-y,-z
3/4+y,1/4-x,3/4-z
x,1/2+y,-z
3/4-y,3/4+x,1/4-z
-x,y,1/2+z
1/2+x,-y,z
1/4-y,3/4-x,3/4+z
3/4+y,3/4+x,3/4+z
1/2+x,1/2+y,1/2+z
3/4-y,1/4+x,3/4+z
1/2-x,-y,1/2+z
3/4+y,3/4-x,1/4+z
1/2+x,1/2-y,-z
-x,1/2+y,1/2-z
1/4+y,3/4+x,3/4-z
3/4-y,3/4-x,3/4-z
1/2-x,1/2-y,1/2-z
1/4+y,3/4-x,1/4-z
1/2+x,y,1/2-z
1/4-y,1/4+x,3/4-z
1/2-x,1/2+y,z
x,1/2-y,1/2+z
3/4-y,1/4-x,1/4+z
1/4+y,1/4+x,1/4+z
loop_
_atom_site_type_symbol
_atom_site_label
_atom_site_fract_x
_atom_site_fract_y
_atom_site_fract_z
Si Si1 0.587709 0.781687 0.887298
Si Si2 0.772328 0.881316 0.874398
Si Si3 0.901772 0.918958 0.465579
Si Si4 0.310868 0.236440 0.931368
O O1 0.566938 0.721546 0.821895
O O2 0.619312 0.826735 0.802431
O O3 0.630360 0.763669 0.990965
O O4 0.808115 0.941886 0.875000
O O5 0.720075 0.883749 0.782435
O O6 0.812698 0.822867 0.852798
O O7 0.750000 0.872045 0.000000
O O8 0.856022 0.893979 0.375000
O O9 0.958569 0.943730 0.402031
O O10 0.250000 0.239551 0.000000
#
# Coordination Sequence:
#
# PCOD8321277 Si02
#       4
#    32  32  32  32
#     4  11  24  43  68 107 147 182 237 297 368 451
#     4  11  26  45  70  98 134 184 239 295 356 431
#     4  12  25  44  72 103 139 189 241 301 367 436
#     4  11  24  42  69  99 139 188 236 290 366 438
#
# _framework density 21.338676
#
# number of rings (size 3 to 8) (size 9 to 14) (size 15 to 20)
#    0.000    0.750    7.500    0.750    3.500    3.000 
#    0.000    0.000    0.000    0.000    0.000    0.000 
#    0.000    0.000    0.000    0.000    0.000    0.000 
#
# Total GULP energy -793291.978270 kJ/mol
# GULP energy per Si atom -12395.187160 kJ/mol
# Density = 2.129011 g / cm^3
# Si number density = 21.338676 Si / 1000 Ang^3
#
#
#
# Elastic Constant Matrix: (Units=GPa)
#
#
# Indices 1 2 3 4 5 6 
#
# 1 127.4189 78.3122 49.2362 0.0000 0.0000 0.0000
# 2 78.3122 127.4125 49.2368 0.0000 0.0000 0.0000
# 3 49.2362 49.2368 99.6976 0.0000 0.0000 0.0000
# 4 0.0000 0.0000 0.0000 27.6749 0.0000 0.0000
# 5 0.0000 0.0000 0.0000 0.0000 27.6640 0.0000
# 6 0.0000 0.0000 0.0000 0.0000 0.0000 37.3639
#
#
#
# Elastic Compliance Matrix: (Units=1/GPa)
#
#
# Indices 1 2 3 4 5 6 
#
# 1 0.013365 -0.007000 -0.003143 0.000000 0.000000 0.000000
# 2 -0.007000 0.013366 -0.003144 0.000000 0.000000 0.000000
# 3 -0.003143 -0.003144 0.013135 0.000000 0.000000 0.000000
# 4 0.000000 0.000000 0.000000 0.036134 0.000000 0.000000
# 5 0.000000 0.000000 0.000000 0.000000 0.036148 0.000000
# 6 0.000000 0.000000 0.000000 0.000000 0.000000 0.026764
#
#
# Mechanical properties :
#
#
# Convention : Reuss Voigt Hill
#
# Bulk Modulus (GPa) = 75.23456 78.67772 76.95614
# Shear Modulus (GPa) = 29.42619 30.39013 29.90816
#
# Velocity S-wave (km/s) = 3.71753 3.77793 3.74785
# Velocity P-wave (km/s) = 7.33216 7.48206 7.40749
#
# Compressibility (1/GPa) = 0.01329176
#
# Stress axis : x y z
#
# Youngs Moduli (GPa) = 74.82296 74.81792 76.13023
#
# Poissons Ratio (x) = 0.52371 0.23931
# Poissons Ratio (y) = 0.52375 0.23935
# Poissons Ratio (z) = 0.23520 0.23522
#
# Static dielectric constant tensor:
#      x y z
#    x 4.127930 0.000000 0.000000 
#    y 0.000000 4.128180 0.000000 
#    z 0.000000 0.000000 3.812270 
# 
# 
# High freq. dielectric constant tensor:
#      x y z
#    x 1.849460 0.000000 0.000000 
#    y 0.000000 1.849460 0.000000 
#    z 0.000000 0.000000 1.827110 
# 
# From -- ./inp_files/3458.got.cif
#   From: 2010.03.12/outbox.cif.g09.slc.cpg/sg142_2_cif.got.tgz:3458.got - 2010.04.03 13:27:16.
