data_PCOD8321934
_publ_section_title
;
Structure prediction by ZEFSAII (Michael W. Deem and Ramdas Pophale) SiO2 
 PCOD8321934
Probable space group: P 31 1 2
;
_chemical_formula_sum "Si O2"
_cell_formula_units_Z 39
_cell_length_a 9.264317
_cell_length_b 9.264317
_cell_length_c 28.282531
_cell_angle_alpha 90.000000
_cell_angle_beta 90.000000
_cell_angle_gamma 120.000000
_cell_volume 2102.208160
_symmetry_space_group_name_H-M "P 31 1 2"
_symmetry_group_IT_number 151
_symmetry_cell_setting 'hexagonal'
loop_
_space_group_symop_operation_xyz
x,y,z
-y,x-y,1/3+z
-x+y,-x,2/3+z
-y,-x,2/3-z
-x+y,y,1/3-z
x,x-y,-z
loop_
_atom_site_type_symbol
_atom_site_label
_atom_site_fract_x
_atom_site_fract_y
_atom_site_fract_z
Si Si1 0.271490 0.700103 0.887828
Si Si2 0.247078 0.974338 0.163716
Si Si3 0.646817 0.253508 0.281015
Si Si4 0.388912 0.317751 0.121995
Si Si5 0.452587 0.530596 0.760839
Si Si6 0.869364 0.738727 0.166667
Si Si7 0.523827 0.096161 0.548791
O O1 0.315569 0.684432 0.833334
O O2 0.407060 0.677976 0.919526
O O3 0.085705 0.560289 0.901886
O O4 0.291857 0.880804 0.895546
O O5 0.305168 0.904757 0.119885
O O6 0.372360 0.005814 0.206547
O O7 0.061439 0.849745 0.182028
O O8 0.256901 0.145488 0.147058
O O9 0.674997 0.325004 0.333334
O O10 0.819521 0.291829 0.257470
O O11 0.561187 0.336174 0.250504
O O12 0.526841 0.051481 0.282780
O O13 0.531158 0.419255 0.160781
O O14 0.762003 0.630900 0.212210
#
# Coordination Sequence:
#
# PCOD8321934 Si02
#       7
#     6   6   6   6   6   3   6
#     4  10  19  33  59  91 113 138 183 235 285 337
#     4  10  19  30  53  87 112 143 170 232 277 332
#     4  11  23  38  57  78 111 154 194 230 279 336
#     4  10  20  36  59  84 113 143 185 232 282 335
#     4  10  18  36  52  78 115 143 184 219 282 325
#     4  12  20  30  56  94 114 136 186 230 288 328
#     4  11  20  36  56  86 113 144 182 235 282 334
#
# _framework density 18.551922999999999
#
# number of rings (size 3 to 8) (size 9 to 14) (size 15 to 20)
#    0.000    1.538    6.154    0.923    3.231    0.000 
#    0.000    2.308    0.000    0.000    0.000    0.000 
#    0.000    0.000    0.000    0.000    0.000    0.000 
#
# Total GULP energy -483348.598918 kJ/mol
# GULP energy per Si atom -12393.553818 kJ/mol
# Density = 1.850970 g / cm^3
# Si number density = 18.551923 Si / 1000 Ang^3
#
#
#
# Elastic Constant Matrix: (Units=GPa)
#
#
# Indices 1 2 3 4 5 6 
#
# 1 121.8481 56.1533 19.4061 0.0001 1.6033 0.0000
# 2 56.1533 121.8481 19.4061 -0.0001 -1.6033 0.0000
# 3 19.4061 19.4061 42.4103 0.0000 0.0000 0.0000
# 4 0.0001 -0.0001 0.0000 10.1737 0.0000 -1.6033
# 5 1.6033 -1.6033 0.0000 0.0000 10.1737 0.0001
# 6 0.0000 0.0000 0.0000 -1.6033 0.0001 32.8474
#
#
#
# Elastic Compliance Matrix: (Units=1/GPa)
#
#
# Indices 1 2 3 4 5 6 
#
# 1 0.010790 -0.004550 -0.002856 0.000000 -0.002417 0.000000
# 2 -0.004550 0.010790 -0.002856 0.000000 0.002417 0.000000
# 3 -0.002856 -0.002856 0.026192 0.000000 0.000000 0.000000
# 4 0.000000 0.000000 0.000000 0.099055 0.000000 0.004835
# 5 -0.002417 0.002417 0.000000 0.000000 0.099055 0.000000
# 6 0.000000 0.000000 0.000000 0.004835 0.000000 0.030680
#
#
# Mechanical properties :
#
#
# Convention : Reuss Voigt Hill
#
# Bulk Modulus (GPa) = 36.69540 52.89306 44.79423
# Shear Modulus (GPa) = 16.33089 23.38166 19.85628
#
# Velocity S-wave (km/s) = 2.97017 3.55397 3.27511
# Velocity P-wave (km/s) = 5.62008 6.73897 6.20480
#
# Compressibility (1/GPa) = 0.02725137
#
# Stress axis : x y z
#
# Youngs Moduli (GPa) = 92.67632 92.67632 38.17887
#
# Poissons Ratio (x) = 0.42165 0.10902
# Poissons Ratio (y) = 0.42165 0.10902
# Poissons Ratio (z) = 0.26464 0.26464
#
# Static dielectric constant tensor:
#      x y z
#    x 3.581800 0.000000 0.000000 
#    y 0.000000 3.581800 0.000000 
#    z 0.000000 0.000000 2.780400 
# 
# 
# High freq. dielectric constant tensor:
#      x y z
#    x 1.736240 0.000000 0.000000 
#    y 0.000000 1.736240 0.000000 
#    z 0.000000 0.000000 1.642410 
# 
# From -- ./inp_files/4954.got.cif
#   From: 2010.03.12/outbox.cif.g09.slc.cpg/sg151_3_cif.got.tgz:4954.got - 2010.04.03 13:42:29.
