data_PCOD8321447
_publ_section_title
;
Structure prediction by ZEFSAII (Michael W. Deem and Ramdas Pophale) SiO2 
 PCOD8321447
Probable space group: P 31
;
_chemical_formula_sum "Si O2"
_cell_formula_units_Z 24
_cell_length_a 13.506642
_cell_length_b 13.506642
_cell_length_c 6.372689
_cell_angle_alpha 90.000000
_cell_angle_beta 90.000000
_cell_angle_gamma 120.000000
_cell_volume 1006.811422
_symmetry_space_group_name_H-M "P 31"
_symmetry_group_IT_number 144
_symmetry_cell_setting 'hexagonal'
loop_
_space_group_symop_operation_xyz
x,y,z
-y,x-y,1/3+z
-x+y,-x,2/3+z
loop_
_atom_site_type_symbol
_atom_site_label
_atom_site_fract_x
_atom_site_fract_y
_atom_site_fract_z
Si Si1 0.596299 0.952752 0.193870
Si Si2 0.946727 0.054867 0.979822
Si Si3 0.779667 0.560297 0.845558
Si Si4 0.530635 0.104405 0.461281
Si Si5 0.235523 0.612452 0.370557
Si Si6 0.735804 0.011887 0.802803
Si Si7 0.607221 0.803050 0.525545
Si Si8 0.938186 0.272891 0.124072
O O1 0.485230 0.889535 0.049425
O O2 0.631543 0.864347 0.297434
O O3 0.568951 0.013719 0.385018
O O4 0.696011 0.035156 0.031267
O O5 0.838099 0.982122 0.828852
O O6 0.061549 0.071255 0.869074
O O7 0.937866 0.170153 0.994811
O O8 0.789473 0.444985 0.852917
O O9 0.782057 0.612705 0.617019
O O10 0.655361 0.523736 0.931108
O O11 0.878184 0.655428 0.990368
O O12 0.438541 0.067253 0.650145
O O13 0.265112 0.589981 0.604804
O O14 0.238985 0.525967 0.202482
O O15 0.635303 0.897432 0.703086
O O16 0.671450 0.732081 0.570223
#
# Coordination Sequence:
#
# PCOD8321447 Si02
#       8
#     3   3   3   3   3   3   3   3
#     4  12  27  46  75 110 156 201 260 320 390 474
#     4  12  28  48  81 111 155 198 258 320 400 472
#     4  12  30  50  79 111 154 204 267 326 394 468
#     4  12  30  49  81 110 155 202 267 326 399 465
#     4  12  25  42  67 106 148 196 247 302 381 460
#     4  12  27  49  74 112 151 205 257 325 388 472
#     4  12  27  44  75 105 156 200 253 320 391 462
#     4  12  30  50  78 117 153 204 269 321 403 479
#
# _framework density 23.837631999999999
#
# number of rings (size 3 to 8) (size 9 to 14) (size 15 to 20)
#    0.000    0.000    5.000    3.000   14.000    2.000 
#    0.000    0.000    0.000    0.000    0.000    0.000 
#    0.000    0.000    0.000    0.000    0.000    0.000 
#
# Total GULP energy -297395.565818 kJ/mol
# GULP energy per Si atom -12391.481909 kJ/mol
# Density = 2.378338 g / cm^3
# Si number density = 23.837632 Si / 1000 Ang^3
#
#
#
# Elastic Constant Matrix: (Units=GPa)
#
#
# Indices 1 2 3 4 5 6 
#
# 1 113.8525 29.4009 44.4306 -4.1714 -0.4400 0.0000
# 2 29.4009 113.8525 44.4306 4.1714 0.4400 0.0000
# 3 44.4306 44.4306 114.8485 0.0000 0.0000 0.0000
# 4 -4.1714 4.1714 0.0000 47.8011 0.0000 0.4400
# 5 -0.4400 0.4400 0.0000 0.0000 47.8011 -4.1714
# 6 0.0000 0.0000 0.0000 0.4400 -4.1714 42.2258
#
#
#
# Elastic Compliance Matrix: (Units=1/GPa)
#
#
# Indices 1 2 3 4 5 6 
#
# 1 0.010565 -0.001380 -0.003553 0.001042 0.000110 0.000000
# 2 -0.001380 0.010565 -0.003553 -0.001042 -0.000110 0.000000
# 3 -0.003553 -0.003553 0.011456 0.000000 0.000000 0.000000
# 4 0.001042 -0.001042 0.000000 0.021104 0.000000 -0.000220
# 5 0.000110 -0.000110 0.000000 0.000000 0.021104 0.002085
# 6 0.000000 0.000000 0.000000 -0.000220 0.002085 0.023890
#
#
# Mechanical properties :
#
#
# Convention : Reuss Voigt Hill
#
# Bulk Modulus (GPa) = 64.04963 64.34197 64.19580
# Shear Modulus (GPa) = 41.36935 42.51835 41.94385
#
# Velocity S-wave (km/s) = 4.17041 4.22793 4.19927
# Velocity P-wave (km/s) = 7.07935 7.13332 7.10638
#
# Compressibility (1/GPa) = 0.01561289
#
# Stress axis : x y z
#
# Youngs Moduli (GPa) = 94.65232 94.65232 87.28787
#
# Poissons Ratio (x) = 0.13064 0.31015
# Poissons Ratio (y) = 0.13064 0.31015
# Poissons Ratio (z) = 0.33632 0.33632
#
# Static dielectric constant tensor:
#      x y z
#    x 4.577530 0.000000 0.000000 
#    y 0.000000 4.577530 0.000000 
#    z 0.000000 0.000000 4.162120 
# 
# 
# High freq. dielectric constant tensor:
#      x y z
#    x 1.953760 0.000000 0.000000 
#    y 0.000000 1.953760 0.000000 
#    z 0.000000 0.000000 1.944330 
# 
# From -- ./inp_files/143.got.cif
#   From: 2010.03.12/outbox.cif.g09.slc.cpg/sg144_cif.got.tgz:143.got - 2010.04.03 13:34:42.
