data_PCOD8321753
_publ_section_title
;
Structure prediction by ZEFSAII (Michael W. Deem and Ramdas Pophale) SiO2 
 PCOD8321753
Probable space group: R -3
;
_chemical_formula_sum "Si O2"
_cell_formula_units_Z 54
_cell_length_a 16.089864
_cell_length_b 16.089864
_cell_length_c 11.729802
_cell_angle_alpha 90.000000
_cell_angle_beta 90.000000
_cell_angle_gamma 120.000000
_cell_volume 2629.820215
_symmetry_space_group_name_H-M "R -3"
_symmetry_group_IT_number 148
_symmetry_cell_setting 'hexagonal'
loop_
_space_group_symop_operation_xyz
x,y,z
-y,x-y,z
-x+y,-x,z
-x,-y,-z
y,-x+y,-z
x-y,x,-z
2/3+x,1/3+y,1/3+z
2/3-y,1/3+x-y,1/3+z
2/3-x+y,1/3-x,1/3+z
2/3-x,1/3-y,1/3-z
2/3+y,1/3-x+y,1/3-z
2/3+x-y,1/3+x,1/3-z
1/3+x,2/3+y,2/3+z
1/3-y,2/3+x-y,2/3+z
1/3-x+y,2/3-x,2/3+z
1/3-x,2/3-y,2/3-z
1/3+y,2/3-x+y,2/3-z
1/3+x-y,2/3+x,2/3-z
loop_
_atom_site_type_symbol
_atom_site_label
_atom_site_fract_x
_atom_site_fract_y
_atom_site_fract_z
Si Si1 0.053446 0.386780 0.916667
Si Si2 0.193872 0.011757 0.480873
Si Si3 0.472794 0.151218 0.352461
O O1 0.120945 0.434117 0.808173
O O2 0.949466 0.375545 0.898721
O O3 0.100783 0.454279 0.025160
O O4 0.042213 0.282800 0.934613
O O5 0.100778 0.924095 0.537225
O O6 0.489984 0.257429 0.370558
#
# Coordination Sequence:
#
# PCOD8321753 Si02
#       3
#    18  18  18
#     4  10  22  40  62  86 120 160 196 236 294 362
#     4  11  23  40  62  90 119 155 198 246 294 345
#     4  11  23  40  62  90 119 155 198 246 294 345
#
# _framework density 20.533722000000001
#
# number of rings (size 3 to 8) (size 9 to 14) (size 15 to 20)
#    0.000    1.333    0.000    6.667    0.000    8.000 
#    0.000    0.000    0.000    0.000    0.000    0.000 
#    0.000    0.000    0.000    0.000    0.000    0.000 
#
# Total GULP energy -223331.867420 kJ/mol
# GULP energy per Si atom -12407.325968 kJ/mol
# Density = 2.048699 g / cm^3
# Si number density = 20.533722 Si / 1000 Ang^3
#
#
#
# Elastic Constant Matrix: (Units=GPa)
#
#
# Indices 1 2 3 4 5 6 
#
# 1 106.6503 69.0635 53.7405 -6.4906 0.0001 0.0000
# 2 69.0635 106.6503 53.7405 6.4906 -0.0001 0.0000
# 3 53.7405 53.7405 135.3313 0.0000 0.0000 0.0000
# 4 -6.4906 6.4906 0.0000 13.5797 0.0000 -0.0001
# 5 0.0001 -0.0001 0.0000 0.0000 13.5797 -6.4906
# 6 0.0000 0.0000 0.0000 -0.0001 -6.4906 18.7934
#
#
#
# Elastic Compliance Matrix: (Units=1/GPa)
#
#
# Indices 1 2 3 4 5 6 
#
# 1 0.019691 -0.012174 -0.002985 0.015230 0.000000 0.000000
# 2 -0.012174 0.019691 -0.002985 -0.015230 0.000000 0.000000
# 3 -0.002985 -0.002985 0.009760 0.000000 0.000000 0.000000
# 4 0.015230 -0.015230 0.000000 0.088199 0.000000 0.000001
# 5 0.000000 0.000000 0.000000 0.000000 0.088199 0.030461
# 6 0.000000 0.000000 0.000000 0.000001 0.030461 0.063730
#
#
# Mechanical properties :
#
#
# Convention : Reuss Voigt Hill
#
# Bulk Modulus (GPa) = 77.79764 77.96899 77.88332
# Shear Modulus (GPa) = 15.15874 20.66304 17.91089
#
# Velocity S-wave (km/s) = 2.72000 3.17566 2.95662
# Velocity P-wave (km/s) = 6.91625 7.17635 7.04750
#
# Compressibility (1/GPa) = 0.01285386
#
# Stress axis : x y z
#
# Youngs Moduli (GPa) = 50.78449 50.78449 102.45918
#
# Poissons Ratio (x) = 0.61826 0.30584
# Poissons Ratio (y) = 0.61826 0.30584
# Poissons Ratio (z) = 0.15159 0.15159
#
# Static dielectric constant tensor:
#      x y z
#    x 3.747690 0.000000 0.000000 
#    y 0.000000 3.747690 0.000000 
#    z 0.000000 0.000000 3.628040 
# 
# 
# High freq. dielectric constant tensor:
#      x y z
#    x 1.812770 0.000000 0.000000 
#    y 0.000000 1.812770 0.000000 
#    z 0.000000 0.000000 1.799220 
# 
# From -- ./inp_files/1279.got.cif
#   From: 2010.03.12/outbox.cif.g09.slc.cpg/sg148_1_cif.got.tgz:1279.got - 2010.04.03 13:38:46.
