data_PCOD8321397
_publ_section_title
;
Structure prediction by ZEFSAII (Michael W. Deem and Ramdas Pophale) SiO2 
 PCOD8321397
Probable space group: P 31
;
_chemical_formula_sum "Si O2"
_cell_formula_units_Z 21
_cell_length_a 9.149811
_cell_length_b 9.149811
_cell_length_c 12.534782
_cell_angle_alpha 90.000000
_cell_angle_beta 90.000000
_cell_angle_gamma 120.000000
_cell_volume 908.807000
_symmetry_space_group_name_H-M "P 31"
_symmetry_group_IT_number 144
_symmetry_cell_setting 'hexagonal'
loop_
_space_group_symop_operation_xyz
x,y,z
-y,x-y,1/3+z
-x+y,-x,2/3+z
loop_
_atom_site_type_symbol
_atom_site_label
_atom_site_fract_x
_atom_site_fract_y
_atom_site_fract_z
Si Si1 0.935332 0.213614 0.813070
Si Si2 0.028899 0.051060 0.630328
Si Si3 0.554811 0.108477 0.064025
Si Si4 0.281128 0.513371 0.845189
Si Si5 0.906681 0.758286 0.769721
Si Si6 0.565754 0.131469 0.811201
Si Si7 0.537243 0.744013 0.416052
O O1 0.754947 0.181543 0.769892
O O2 0.026397 0.137380 0.740158
O O3 0.080952 0.407607 0.815715
O O4 0.911643 0.128402 0.930941
O O5 0.971199 0.127821 0.536997
O O6 0.917768 0.850638 0.656497
O O7 0.424505 0.170098 0.097021
O O8 0.723383 0.248750 0.117829
O O9 0.522052 0.932134 0.112109
O O10 0.558095 0.096555 0.936735
O O11 0.330045 0.703737 0.823877
O O12 0.301334 0.494024 0.969880
O O13 0.086584 0.776145 0.799541
O O14 0.419404 0.978820 0.743846
#
# Coordination Sequence:
#
# PCOD8321397 Si02
#       7
#     3   3   3   3   3   3   3
#     4  11  24  45  72 103 142 186 240 297 367 430
#     4  10  24  40  76 102 138 178 242 294 362 426
#     4  12  28  47  74 107 148 193 249 306 375 441
#     4  12  27  45  72 104 148 191 245 304 369 437
#     4  11  24  45  72 103 142 186 240 297 367 430
#     4  12  28  47  74 107 148 193 249 306 375 441
#     4  12  27  45  72 104 148 191 245 304 369 437
#
# _framework density 23.107216000000001
#
# number of rings (size 3 to 8) (size 9 to 14) (size 15 to 20)
#    0.000    0.571    1.429    5.143   14.000    0.000 
#    0.000    0.000    0.000    0.000    0.000    0.000 
#    0.000    0.000    0.000    0.000    0.000    0.000 
#
# Total GULP energy -260255.710602 kJ/mol
# GULP energy per Si atom -12393.129076 kJ/mol
# Density = 2.305462 g / cm^3
# Si number density = 23.107216 Si / 1000 Ang^3
#
#
#
# Elastic Constant Matrix: (Units=GPa)
#
#
# Indices 1 2 3 4 5 6 
#
# 1 117.6465 27.8290 3.0480 4.0068 -7.7618 0.0000
# 2 27.8290 117.6465 3.0480 -4.0068 7.7618 0.0000
# 3 3.0480 3.0480 84.0646 0.0000 0.0000 0.0000
# 4 4.0068 -4.0068 0.0000 32.1380 0.0000 7.7618
# 5 -7.7618 7.7618 0.0000 0.0000 32.1380 4.0068
# 6 0.0000 0.0000 0.0000 7.7618 4.0068 44.9087
#
#
#
# Elastic Compliance Matrix: (Units=1/GPa)
#
#
# Indices 1 2 3 4 5 6 
#
# 1 0.009320 -0.002435 -0.000250 -0.001466 0.002839 0.000000
# 2 -0.002435 0.009320 -0.000250 0.001466 -0.002839 0.000000
# 3 -0.000250 -0.000250 0.011914 0.000000 0.000000 0.000000
# 4 -0.001466 0.001466 0.000000 0.032853 0.000000 -0.005678
# 5 0.002839 -0.002839 0.000000 0.000000 0.032853 -0.002931
# 6 0.000000 0.000000 0.000000 -0.005678 -0.002931 0.023510
#
#
# Mechanical properties :
#
#
# Convention : Reuss Voigt Hill
#
# Bulk Modulus (GPa) = 40.51180 43.02311 41.76745
# Shear Modulus (GPa) = 37.35077 40.86577 39.10827
#
# Velocity S-wave (km/s) = 4.02482 4.20995 4.11843
# Velocity P-wave (km/s) = 6.25852 6.50314 6.38201
#
# Compressibility (1/GPa) = 0.02468417
#
# Stress axis : x y z
#
# Youngs Moduli (GPa) = 107.29843 107.29843 83.93691
#
# Poissons Ratio (x) = 0.26131 0.02095
# Poissons Ratio (y) = 0.26131 0.02095
# Poissons Ratio (z) = 0.02678 0.02678
#
# Static dielectric constant tensor:
#      x y z
#    x 4.257850 0.000000 0.000000 
#    y 0.000000 4.257850 0.000000 
#    z 0.000000 0.000000 4.188930 
# 
# 
# High freq. dielectric constant tensor:
#      x y z
#    x 1.921740 0.000000 0.000000 
#    y 0.000000 1.921740 0.000000 
#    z 0.000000 0.000000 1.916510 
# 
# From -- ./inp_files/599.got.cif
#   From: 2010.03.12/outbox.cif.g09.slc.cpg/sg144_cif.got.tgz:599.got - 2010.04.03 13:34:42.
