data_PCOD8321628
_publ_section_title
;
Structure prediction by ZEFSAII (Michael W. Deem and Ramdas Pophale) SiO2 
 PCOD8321628
Probable space group: P -3
;
_chemical_formula_sum "Si O2"
_cell_formula_units_Z 30
_cell_length_a 8.804371
_cell_length_b 8.804371
_cell_length_c 21.731314
_cell_angle_alpha 90.000000
_cell_angle_beta 90.000000
_cell_angle_gamma 120.000000
_cell_volume 1458.858896
_symmetry_space_group_name_H-M "P -3"
_symmetry_group_IT_number 147
_symmetry_cell_setting 'hexagonal'
loop_
_space_group_symop_operation_xyz
x,y,z
-y,x-y,z
-x+y,-x,z
-x,-y,-z
y,-x+y,-z
x-y,x,-z
loop_
_atom_site_type_symbol
_atom_site_label
_atom_site_fract_x
_atom_site_fract_y
_atom_site_fract_z
Si Si1 0.987519 0.323556 0.786976
Si Si2 0.013703 0.675792 0.976081
Si Si3 0.324423 0.336761 0.476138
Si Si4 0.326616 0.339853 0.833637
Si Si5 0.149806 0.687933 0.344185
O O1 0.815586 0.185154 0.824108
O O2 0.037265 0.516473 0.808381
O O3 0.952360 0.300073 0.714383
O O4 0.148320 0.291225 0.798416
O O5 0.065501 0.702378 0.904891
O O6 0.000000 0.500000 0.000000
O O7 0.831892 0.671526 0.984036
O O8 0.500000 0.500000 0.500000
O O9 0.169377 0.329652 0.516060
O O10 0.296694 0.351472 0.404152
O O11 0.151984 0.504088 0.343467
#
# Coordination Sequence:
#
# PCOD8321628 Si02
#       5
#     6   6   6   6   6
#     4  12  25  43  70  97 134 175 222 282 337 398
#     4  12  25  43  67  95 135 174 222 277 336 404
#     4  12  24  43  71 105 142 184 226 284 337 399
#     4  12  24  44  66 101 130 176 225 275 339 407
#     4  10  20  44  71  98 136 176 230 274 340 409
#
# _framework density 20.564018000000001
#
# number of rings (size 3 to 8) (size 9 to 14) (size 15 to 20)
#    0.400    0.000    4.000    6.000    0.000    3.200 
#    0.000    0.000    0.000    0.000    0.000    0.000 
#    0.000    0.000    0.000    0.000    0.000    0.000 
#
# Total GULP energy -372202.749092 kJ/mol
# GULP energy per Si atom -12406.758303 kJ/mol
# Density = 2.051721 g / cm^3
# Si number density = 20.564018 Si / 1000 Ang^3
#
#
#
# Elastic Constant Matrix: (Units=GPa)
#
#
# Indices 1 2 3 4 5 6 
#
# 1 119.8453 39.7421 38.4758 -1.7823 0.8794 0.0000
# 2 39.7421 119.8453 38.4758 1.7823 -0.8794 0.0000
# 3 38.4758 38.4758 165.1475 0.0000 0.0000 0.0000
# 4 -1.7823 1.7823 0.0000 32.8613 0.0000 -0.8794
# 5 0.8794 -0.8794 0.0000 0.0000 32.8613 -1.7823
# 6 0.0000 0.0000 0.0000 -0.8794 -1.7823 40.0516
#
#
#
# Elastic Compliance Matrix: (Units=1/GPa)
#
#
# Indices 1 2 3 4 5 6 
#
# 1 0.009790 -0.002731 -0.001645 0.000679 -0.000335 0.000000
# 2 -0.002731 0.009790 -0.001645 -0.000679 0.000335 0.000000
# 3 -0.001645 -0.001645 0.006822 0.000000 0.000000 0.000000
# 4 0.000679 -0.000679 0.000000 0.030523 0.000000 0.000670
# 5 -0.000335 0.000335 0.000000 0.000000 0.030523 0.001358
# 6 0.000000 0.000000 0.000000 0.000670 0.001358 0.025043
#
#
# Mechanical properties :
#
#
# Convention : Reuss Voigt Hill
#
# Bulk Modulus (GPa) = 69.63137 70.91396 70.27267
# Shear Modulus (GPa) = 38.66432 40.36445 39.51439
#
# Velocity S-wave (km/s) = 4.34082 4.43523 4.38828
# Velocity P-wave (km/s) = 7.68492 7.79665 7.74098
#
# Compressibility (1/GPa) = 0.01436134
#
# Stress axis : x y z
#
# Youngs Moduli (GPa) = 102.14155 102.14155 146.59477
#
# Poissons Ratio (x) = 0.27896 0.24110
# Poissons Ratio (y) = 0.27896 0.24110
# Poissons Ratio (z) = 0.16799 0.16799
#
# Static dielectric constant tensor:
#      x y z
#    x 3.789190 0.000000 0.000000 
#    y 0.000000 3.789190 0.000000 
#    z 0.000000 0.000000 3.871660 
# 
# 
# High freq. dielectric constant tensor:
#      x y z
#    x 1.810190 0.000000 0.000000 
#    y 0.000000 1.810190 0.000000 
#    z 0.000000 0.000000 1.819970 
# 
# From -- ./inp_files/1099.got.cif
#   From: 2010.03.12/outbox.cif.g09.slc.cpg/sg147_cif.got.tgz:1099.got - 2010.04.03 13:37:56.
