data_PCOD8321986
_publ_section_title
;
Structure prediction by ZEFSAII (Michael W. Deem and Ramdas Pophale) SiO2 
 PCOD8321986
Probable space group: P 31 1 2
;
_chemical_formula_sum "Si O2"
_cell_formula_units_Z 30
_cell_length_a 13.535133
_cell_length_b 13.535133
_cell_length_c 8.855221
_cell_angle_alpha 90.000000
_cell_angle_beta 90.000000
_cell_angle_gamma 120.000000
_cell_volume 1404.931310
_symmetry_space_group_name_H-M "P 31 1 2"
_symmetry_group_IT_number 151
_symmetry_cell_setting 'hexagonal'
loop_
_space_group_symop_operation_xyz
x,y,z
-y,x-y,1/3+z
-x+y,-x,2/3+z
-y,-x,2/3-z
-x+y,y,1/3-z
x,x-y,-z
loop_
_atom_site_type_symbol
_atom_site_label
_atom_site_fract_x
_atom_site_fract_y
_atom_site_fract_z
Si Si1 0.823955 0.433462 0.165957
Si Si2 0.913514 0.281547 0.247857
Si Si3 0.502863 0.621372 0.688606
Si Si4 0.938373 0.681095 0.103595
Si Si5 0.539882 0.830483 0.848363
O O1 0.687162 0.374323 0.166667
O O2 0.856208 0.360352 0.275353
O O3 0.882497 0.566578 0.209360
O O4 0.872335 0.436168 0.000000
O O5 0.839163 0.160837 0.333334
O O6 0.038800 0.361994 0.318548
O O7 0.916443 0.252323 0.074327
O O8 0.463250 0.536751 0.833334
O O9 0.487165 0.730507 0.722403
O O10 0.425563 0.549787 0.543804
O O11 0.874554 0.749108 0.166667
O O12 0.072997 0.739693 0.131549
O O13 0.556459 0.778229 0.000000
#
# Coordination Sequence:
#
# PCOD8321986 Si02
#       5
#     6   6   6   6   6
#     4   9  17  30  49  81 119 164 203 250 313 386
#     4  11  23  36  61  96 134 175 218 284 337 414
#     4  10  23  42  64  99 138 186 231 284 343 418
#     4  10  22  40  63  89 130 175 225 274 343 401
#     4  10  22  44  66  98 136 183 234 285 344 413
#
# _framework density 21.353356000000002
#
# number of rings (size 3 to 8) (size 9 to 14) (size 15 to 20)
#    0.000    2.000    2.000    0.600    5.600    3.200 
#   21.600    0.000    0.000    1.200    0.000    0.000 
#    0.000    0.000    0.000    0.000    0.000    0.000 
#
# Total GULP energy -371709.471738 kJ/mol
# GULP energy per Si atom -12390.315725 kJ/mol
# Density = 2.130476 g / cm^3
# Si number density = 21.353356 Si / 1000 Ang^3
#
#
#
# Elastic Constant Matrix: (Units=GPa)
#
#
# Indices 1 2 3 4 5 6 
#
# 1 94.8174 22.6839 33.6048 0.0000 3.9892 0.0000
# 2 22.6839 94.8174 33.6048 0.0000 -3.9892 0.0000
# 3 33.6048 33.6048 65.7925 0.0000 0.0000 0.0000
# 4 0.0000 0.0000 0.0000 25.6694 0.0000 -3.9892
# 5 3.9892 -3.9892 0.0000 0.0000 25.6694 0.0000
# 6 0.0000 0.0000 0.0000 -3.9892 0.0000 36.0667
#
#
#
# Elastic Compliance Matrix: (Units=1/GPa)
#
#
# Indices 1 2 3 4 5 6 
#
# 1 0.013064 -0.001041 -0.006141 0.000000 -0.002192 0.000000
# 2 -0.001041 0.013064 -0.006141 0.000000 0.002192 0.000000
# 3 -0.006141 -0.006141 0.021473 0.000000 0.000000 0.000000
# 4 0.000000 0.000000 0.000000 0.039638 0.000000 0.004384
# 5 -0.002192 0.002192 0.000000 0.000000 0.039638 0.000000
# 6 0.000000 0.000000 0.000000 0.004384 0.000000 0.028211
#
#
# Mechanical properties :
#
#
# Convention : Reuss Voigt Hill
#
# Bulk Modulus (GPa) = 47.72196 48.35714 48.03955
# Shear Modulus (GPa) = 26.49416 28.51670 27.50543
#
# Velocity S-wave (km/s) = 3.52625 3.65837 3.59292
# Velocity P-wave (km/s) = 6.24311 6.36712 6.30542
#
# Compressibility (1/GPa) = 0.02095471
#
# Stress axis : x y z
#
# Youngs Moduli (GPa) = 76.54381 76.54381 46.57089
#
# Poissons Ratio (x) = 0.07970 0.28600
# Poissons Ratio (y) = 0.07970 0.28600
# Poissons Ratio (z) = 0.47006 0.47006
#
# Static dielectric constant tensor:
#      x y z
#    x 3.870610 0.000000 0.000000 
#    y 0.000000 3.870610 0.000000 
#    z 0.000000 0.000000 3.719310 
# 
# 
# High freq. dielectric constant tensor:
#      x y z
#    x 1.815830 0.000000 0.000000 
#    y 0.000000 1.815830 0.000000 
#    z 0.000000 0.000000 1.830300 
# 
# From -- ./inp_files/1518.got.cif
#   From: 2010.03.12/outbox.cif.g09.slc.cpg/sg151_1_cif.got.tgz:1518.got - 2010.04.03 13:42:29.
