data_PCOD8321364
_publ_section_title
;
Structure prediction by ZEFSAII (Michael W. Deem and Ramdas Pophale) SiO2 
 PCOD8321364
Probable space group: P 31
;
_chemical_formula_sum "Si O2"
_cell_formula_units_Z 24
_cell_length_a 14.490915
_cell_length_b 14.490915
_cell_length_c 6.143565
_cell_angle_alpha 90.000000
_cell_angle_beta 90.000000
_cell_angle_gamma 120.000000
_cell_volume 1117.230304
_symmetry_space_group_name_H-M "P 31"
_symmetry_group_IT_number 144
_symmetry_cell_setting 'hexagonal'
loop_
_space_group_symop_operation_xyz
x,y,z
-y,x-y,1/3+z
-x+y,-x,2/3+z
loop_
_atom_site_type_symbol
_atom_site_label
_atom_site_fract_x
_atom_site_fract_y
_atom_site_fract_z
Si Si1 0.327146 0.467758 0.173890
Si Si2 0.870955 0.168379 0.426817
Si Si3 0.895669 0.922593 0.712866
Si Si4 0.477513 0.476852 0.818674
Si Si5 0.363024 0.884938 0.757062
Si Si6 0.748723 0.164404 0.040729
Si Si7 0.006772 0.746169 0.085705
Si Si8 0.400563 0.068355 0.455209
O O1 0.216395 0.465585 0.142085
O O2 0.420911 0.580755 0.261484
O O3 0.308835 0.386196 0.370838
O O4 0.364803 0.441815 0.941912
O O5 0.804153 0.204477 0.275679
O O6 0.941150 0.256626 0.608289
O O7 0.953177 0.148662 0.279387
O O8 0.785104 0.058076 0.531149
O O9 0.791968 0.921484 0.809365
O O10 0.956107 0.022838 0.562312
O O11 0.503953 0.569729 0.645061
O O12 0.486531 0.379449 0.708676
O O13 0.562295 0.509891 0.010654
O O14 0.346174 0.976765 0.641522
O O15 0.810411 0.267976 0.885735
O O16 0.768684 0.070651 0.957316
#
# Coordination Sequence:
#
# PCOD8321364 Si02
#       8
#     3   3   3   3   3   3   3   3
#     4  11  25  43  67 102 136 182 233 285 347 419
#     4  10  21  40  64  91 128 172 215 269 330 399
#     4  10  21  36  56  91 132 164 214 261 316 392
#     4  11  24  45  70  96 138 177 231 288 352 415
#     4  11  26  45  69 101 140 182 231 292 350 415
#     4  11  21  42  71  89 132 174 218 279 342 404
#     4  10  21  38  61  96 124 174 221 264 333 403
#     4  10  25  41  68 100 128 175 229 280 342 419
#
# _framework density 21.481694000000001
#
# number of rings (size 3 to 8) (size 9 to 14) (size 15 to 20)
#    0.000    1.500    2.500    1.500    5.250    2.000 
#    4.500    0.000   13.750    0.000    0.000    0.000 
#    0.000    0.000    0.000    0.000    0.000    0.000 
#
# Total GULP energy -297372.705651 kJ/mol
# GULP energy per Si atom -12390.529402 kJ/mol
# Density = 2.143280 g / cm^3
# Si number density = 21.481694 Si / 1000 Ang^3
#
#
#
# Elastic Constant Matrix: (Units=GPa)
#
#
# Indices 1 2 3 4 5 6 
#
# 1 106.3929 44.8885 32.4420 0.9357 -0.4144 0.0000
# 2 44.8885 106.3929 32.4420 -0.9357 0.4144 0.0000
# 3 32.4420 32.4420 84.2109 0.0000 0.0000 0.0000
# 4 0.9357 -0.9357 0.0000 32.0358 0.0000 0.4144
# 5 -0.4144 0.4144 0.0000 0.0000 32.0358 0.9357
# 6 0.0000 0.0000 0.0000 0.4144 0.9357 30.7522
#
#
#
# Elastic Compliance Matrix: (Units=1/GPa)
#
#
# Indices 1 2 3 4 5 6 
#
# 1 0.012097 -0.004179 -0.003051 -0.000475 0.000211 0.000000
# 2 -0.004179 0.012097 -0.003051 0.000475 -0.000211 0.000000
# 3 -0.003051 -0.003051 0.014225 0.000000 0.000000 0.000000
# 4 -0.000475 0.000475 0.000000 0.031248 0.000000 -0.000421
# 5 0.000211 -0.000211 0.000000 0.000000 0.031248 -0.000951
# 6 0.000000 0.000000 0.000000 -0.000421 -0.000951 0.032553
#
#
# Mechanical properties :
#
#
# Convention : Reuss Voigt Hill
#
# Bulk Modulus (GPa) = 55.99055 57.39352 56.69204
# Shear Modulus (GPa) = 31.25330 31.44637 31.34984
#
# Velocity S-wave (km/s) = 3.81843 3.83020 3.82432
# Velocity P-wave (km/s) = 6.74992 6.80706 6.77855
#
# Compressibility (1/GPa) = 0.01786016
#
# Stress axis : x y z
#
# Youngs Moduli (GPa) = 82.66211 82.66211 70.29673
#
# Poissons Ratio (x) = 0.34543 0.21445
# Poissons Ratio (y) = 0.34543 0.21445
# Poissons Ratio (z) = 0.25217 0.25217
#
# Static dielectric constant tensor:
#      x y z
#    x 4.049540 0.000000 0.000000 
#    y 0.000000 4.049540 0.000000 
#    z 0.000000 0.000000 3.836500 
# 
# 
# High freq. dielectric constant tensor:
#      x y z
#    x 1.841690 0.000000 0.000000 
#    y 0.000000 1.841690 0.000000 
#    z 0.000000 0.000000 1.842510 
# 
# From -- ./inp_files/150.got.cif
#   From: 2010.03.12/outbox.cif.g09.slc.cpg/sg144_cif.got.tgz:150.got - 2010.04.03 13:34:42.
