data_PCOD8321139
_publ_section_title
;
Structure prediction by ZEFSAII (Michael W. Deem and Ramdas Pophale) SiO2 
 PCOD8321139
Probable space group: I 41/A C D
;
_chemical_formula_sum "Si O2"
_cell_formula_units_Z 176
_cell_length_a 23.459869
_cell_length_b 23.459869
_cell_length_c 16.058087
_cell_angle_alpha 90.000000
_cell_angle_beta 90.000000
_cell_angle_gamma 90.000000
_cell_volume 8837.816334
_symmetry_space_group_name_H-M "I 41/A C D"
_symmetry_group_IT_number 142
_space_group.IT_coordinate_system_code '2'
_symmetry_cell_setting 'tetragonal'
loop_
_space_group_symop_operation_xyz
x,y,z
1/4-y,3/4+x,1/4+z
-x,1/2-y,z
1/4+y,1/4-x,3/4+z
x,-y,1/2-z
1/2-x,y,-z
3/4+y,1/4+x,1/4-z
1/4-y,1/4-x,1/4-z
-x,-y,-z
3/4+y,1/4-x,3/4-z
x,1/2+y,-z
3/4-y,3/4+x,1/4-z
-x,y,1/2+z
1/2+x,-y,z
1/4-y,3/4-x,3/4+z
3/4+y,3/4+x,3/4+z
1/2+x,1/2+y,1/2+z
3/4-y,1/4+x,3/4+z
1/2-x,-y,1/2+z
3/4+y,3/4-x,1/4+z
1/2+x,1/2-y,-z
-x,1/2+y,1/2-z
1/4+y,3/4+x,3/4-z
3/4-y,3/4-x,3/4-z
1/2-x,1/2-y,1/2-z
1/4+y,3/4-x,1/4-z
1/2+x,y,1/2-z
1/4-y,1/4+x,3/4-z
1/2-x,1/2+y,z
x,1/2-y,1/2+z
3/4-y,1/4-x,1/4+z
1/4+y,1/4+x,1/4+z
loop_
_atom_site_type_symbol
_atom_site_label
_atom_site_fract_x
_atom_site_fract_y
_atom_site_fract_z
Si Si1 0.128415 0.844508 0.785226
Si Si2 0.193052 0.713295 0.960584
Si Si3 0.240148 0.793828 0.822843
Si Si4 0.094572 0.344572 0.625000
Si Si5 0.352427 0.801119 0.913571
Si Si6 0.566041 0.265399 0.723168
O O1 0.100342 0.850342 0.875000
O O2 0.197593 0.843968 0.790849
O O3 0.105803 0.894273 0.724727
O O4 0.106920 0.786378 0.745195
O O5 0.209889 0.765126 0.901203
O O6 0.159736 0.666014 0.905234
O O7 0.250000 0.684520 0.000000
O O8 0.156701 0.742141 0.035292
O O9 0.250000 0.750000 0.750000
O O10 0.301335 0.817616 0.850878
O O11 0.059235 0.323665 0.547098
O O12 0.411574 0.793240 0.863171
O O13 0.500000 0.250000 0.713548
#
# Coordination Sequence:
#
# PCOD8321139 Si02
#       6
#    32  32  32  16  32  32
#     4  12  23  39  60  92 129 174 218 275 330 389
#     4  10  22  38  59  84 127 173 221 270 332 408
#     4  11  21  43  60  85 135 172 221 270 332 406
#     4  12  21  40  56  88 130 176 218 268 340 394
#     4  11  24  38  59  91 130 180 221 270 331 408
#     4  12  25  35  57  93 140 172 207 254 332 419
#
# _framework density 19.914421000000001
#
# number of rings (size 3 to 8) (size 9 to 14) (size 15 to 20)
#    0.000    0.727    5.455    2.455    5.091    0.000 
#    0.000    0.000    0.000    0.000    0.000    0.000 
#   65.455    0.000    0.000    0.000    0.000    0.000 
#
# Total GULP energy -1090976.265914 kJ/mol
# GULP energy per Si atom -12397.457567 kJ/mol
# Density = 1.986910 g / cm^3
# Si number density = 19.914421 Si / 1000 Ang^3
#
#
#
# Elastic Constant Matrix: (Units=GPa)
#
#
# Indices 1 2 3 4 5 6 
#
# 1 93.1474 57.3842 43.6774 0.0000 0.0000 0.0000
# 2 57.3842 93.1474 43.6774 0.0000 0.0000 0.0000
# 3 43.6774 43.6774 128.9039 0.0000 0.0000 0.0000
# 4 0.0000 0.0000 0.0000 38.7038 0.0000 0.0000
# 5 0.0000 0.0000 0.0000 0.0000 38.7038 0.0000
# 6 0.0000 0.0000 0.0000 0.0000 0.0000 22.7040
#
#
#
# Elastic Compliance Matrix: (Units=1/GPa)
#
#
# Indices 1 2 3 4 5 6 
#
# 1 0.018115 -0.009846 -0.002802 0.000000 0.000000 0.000000
# 2 -0.009846 0.018115 -0.002802 0.000000 0.000000 0.000000
# 3 -0.002802 -0.002802 0.009656 0.000000 0.000000 0.000000
# 4 0.000000 0.000000 0.000000 0.025837 0.000000 0.000000
# 5 0.000000 0.000000 0.000000 0.000000 0.025837 0.000000
# 6 0.000000 0.000000 0.000000 0.000000 0.000000 0.044045
#
#
# Mechanical properties :
#
#
# Convention : Reuss Voigt Hill
#
# Bulk Modulus (GPa) = 66.72387 67.18632 66.95509
# Shear Modulus (GPa) = 28.16857 31.38630 29.77743
#
# Velocity S-wave (km/s) = 3.76504 3.97427 3.87107
# Velocity P-wave (km/s) = 7.24422 7.40746 7.32630
#
# Compressibility (1/GPa) = 0.01498714
#
# Stress axis : x y z
#
# Youngs Moduli (GPa) = 55.20161 55.20161 103.55747
#
# Poissons Ratio (x) = 0.54353 0.29015
# Poissons Ratio (y) = 0.54353 0.29015
# Poissons Ratio (z) = 0.15467 0.15467
#
# Static dielectric constant tensor:
#      x y z
#    x 3.843220 0.000000 0.000000 
#    y 0.000000 3.843220 0.000000 
#    z 0.000000 0.000000 3.930360 
# 
# 
# High freq. dielectric constant tensor:
#      x y z
#    x 1.750770 0.000000 0.000000 
#    y 0.000000 1.750770 0.000000 
#    z 0.000000 0.000000 1.813690 
# 
# From -- ./inp_files/5579.got.cif
#   From: 2010.03.12/outbox.cif.g09.slc.cpg/sg142_3_cif.got.tgz:5579.got - 2010.04.03 13:27:16.
