data_PCOD8321246
_publ_section_title
;
Structure prediction by ZEFSAII (Michael W. Deem and Ramdas Pophale) SiO2 
 PCOD8321246
Probable space group: I 41/A C D
;
_chemical_formula_sum "Si O2"
_cell_formula_units_Z 176
_cell_length_a 23.744763
_cell_length_b 23.744763
_cell_length_c 15.258984
_cell_angle_alpha 90.000000
_cell_angle_beta 90.000000
_cell_angle_gamma 90.000000
_cell_volume 8603.225294
_symmetry_space_group_name_H-M "I 41/A C D"
_symmetry_group_IT_number 142
_space_group.IT_coordinate_system_code '2'
_symmetry_cell_setting 'tetragonal'
loop_
_space_group_symop_operation_xyz
x,y,z
1/4-y,3/4+x,1/4+z
-x,1/2-y,z
1/4+y,1/4-x,3/4+z
x,-y,1/2-z
1/2-x,y,-z
3/4+y,1/4+x,1/4-z
1/4-y,1/4-x,1/4-z
-x,-y,-z
3/4+y,1/4-x,3/4-z
x,1/2+y,-z
3/4-y,3/4+x,1/4-z
-x,y,1/2+z
1/2+x,-y,z
1/4-y,3/4-x,3/4+z
3/4+y,3/4+x,3/4+z
1/2+x,1/2+y,1/2+z
3/4-y,1/4+x,3/4+z
1/2-x,-y,1/2+z
3/4+y,3/4-x,1/4+z
1/2+x,1/2-y,-z
-x,1/2+y,1/2-z
1/4+y,3/4+x,3/4-z
3/4-y,3/4-x,3/4-z
1/2-x,1/2-y,1/2-z
1/4+y,3/4-x,1/4-z
1/2+x,y,1/2-z
1/4-y,1/4+x,3/4-z
1/2-x,1/2+y,z
x,1/2-y,1/2+z
3/4-y,1/4-x,1/4+z
1/4+y,1/4+x,1/4+z
loop_
_atom_site_type_symbol
_atom_site_label
_atom_site_fract_x
_atom_site_fract_y
_atom_site_fract_z
Si Si1 0.910042 0.839958 0.375000
Si Si2 0.767298 0.059769 0.212957
Si Si3 0.449070 0.370962 0.192722
Si Si4 0.934169 0.748751 0.227722
Si Si5 0.839674 0.596975 0.119353
Si Si6 0.944912 0.932274 0.250497
O O1 0.916782 0.789496 0.306134
O O2 0.915157 0.902911 0.334559
O O3 0.804448 0.054448 0.125000
O O4 0.710505 0.092406 0.189308
O O5 0.803352 0.089538 0.288514
O O6 0.748033 0.000000 0.250000
O O7 0.481346 0.349482 0.107037
O O8 0.422926 0.317801 0.247085
O O9 0.398328 0.412854 0.168563
O O10 0.491848 0.408459 0.249423
O O11 0.000000 0.750000 0.209217
O O12 0.838069 0.660863 0.084482
O O13 0.942713 0.000000 0.250000
#
# Coordination Sequence:
#
# PCOD8321246 Si02
#       6
#    16  32  32  32  32  32
#     4  12  25  40  72  94 124 170 224 272 304 392
#     4   9  20  39  66  91 117 164 225 264 300 381
#     4  12  22  41  65  92 135 170 202 272 322 390
#     4  12  19  39  68  95 117 163 226 253 309 373
#     4  11  22  40  68  89 126 169 215 261 321 381
#     4  12  27  41  61  99 136 163 210 272 330 380
#
# _framework density 20.457443999999999
#
# number of rings (size 3 to 8) (size 9 to 14) (size 15 to 20)
#    0.000    0.727    7.273    1.909    3.818    0.727 
#    3.273    1.818    0.000    0.000    0.000    0.000 
#    0.000    0.000    0.000    0.000    0.000    0.000 
#
# Total GULP energy -1090681.498728 kJ/mol
# GULP energy per Si atom -12394.107940 kJ/mol
# Density = 2.041088 g / cm^3
# Si number density = 20.457444 Si / 1000 Ang^3
#
#
#
# Elastic Constant Matrix: (Units=GPa)
#
#
# Indices 1 2 3 4 5 6 
#
# 1 116.2991 61.6136 36.4529 0.0000 0.0000 0.0000
# 2 61.6136 116.3003 36.4526 0.0000 0.0000 0.0000
# 3 36.4529 36.4526 64.4367 0.0000 0.0000 0.0000
# 4 0.0000 0.0000 0.0000 22.9517 0.0000 0.0000
# 5 0.0000 0.0000 0.0000 0.0000 22.9492 0.0000
# 6 0.0000 0.0000 0.0000 0.0000 0.0000 34.1697
#
#
#
# Elastic Compliance Matrix: (Units=1/GPa)
#
#
# Indices 1 2 3 4 5 6 
#
# 1 0.012802 -0.005485 -0.004139 0.000000 0.000000 0.000000
# 2 -0.005485 0.012801 -0.004139 0.000000 0.000000 0.000000
# 3 -0.004139 -0.004139 0.020202 0.000000 0.000000 0.000000
# 4 0.000000 0.000000 0.000000 0.043570 0.000000 0.000000
# 5 0.000000 0.000000 0.000000 0.000000 0.043574 0.000000
# 6 0.000000 0.000000 0.000000 0.000000 0.000000 0.029266
#
#
# Mechanical properties :
#
#
# Convention : Reuss Voigt Hill
#
# Bulk Modulus (GPa) = 54.70726 62.89713 58.80220
# Shear Modulus (GPa) = 25.53173 26.84860 26.19016
#
# Velocity S-wave (km/s) = 3.53659 3.62665 3.58191
# Velocity P-wave (km/s) = 6.59369 6.95334 6.77590
#
# Compressibility (1/GPa) = 0.01827911
#
# Stress axis : x y z
#
# Youngs Moduli (GPa) = 78.11499 78.11616 49.49909
#
# Poissons Ratio (x) = 0.42844 0.20489
# Poissons Ratio (y) = 0.42843 0.20489
# Poissons Ratio (z) = 0.32335 0.32334
#
# Static dielectric constant tensor:
#      x y z
#    x 3.921040 0.000000 0.000000 
#    y 0.000000 3.921000 0.000000 
#    z 0.000000 0.000000 3.805680 
# 
# 
# High freq. dielectric constant tensor:
#      x y z
#    x 1.799870 0.000000 0.000000 
#    y 0.000000 1.799870 0.000000 
#    z 0.000000 0.000000 1.788090 
# 
# From -- ./inp_files/5551.got.cif
#   From: 2010.03.12/outbox.cif.g09.slc.cpg/sg142_3_cif.got.tgz:5551.got - 2010.04.03 13:27:16.
