data_PCOD8321297
_publ_section_title
;
Structure prediction by ZEFSAII (Michael W. Deem and Ramdas Pophale) SiO2 
 PCOD8321297
Probable space group: I 41/A C D
;
_chemical_formula_sum "Si O2"
_cell_formula_units_Z 64
_cell_length_a 9.701245
_cell_length_b 9.701245
_cell_length_c 24.618557
_cell_angle_alpha 90.000000
_cell_angle_beta 90.000000
_cell_angle_gamma 90.000000
_cell_volume 2316.954678
_symmetry_space_group_name_H-M "I 41/A C D"
_symmetry_group_IT_number 142
_space_group.IT_coordinate_system_code '2'
_symmetry_cell_setting 'tetragonal'
loop_
_space_group_symop_operation_xyz
x,y,z
1/4-y,3/4+x,1/4+z
-x,1/2-y,z
1/4+y,1/4-x,3/4+z
x,-y,1/2-z
1/2-x,y,-z
3/4+y,1/4+x,1/4-z
1/4-y,1/4-x,1/4-z
-x,-y,-z
3/4+y,1/4-x,3/4-z
x,1/2+y,-z
3/4-y,3/4+x,1/4-z
-x,y,1/2+z
1/2+x,-y,z
1/4-y,3/4-x,3/4+z
3/4+y,3/4+x,3/4+z
1/2+x,1/2+y,1/2+z
3/4-y,1/4+x,3/4+z
1/2-x,-y,1/2+z
3/4+y,3/4-x,1/4+z
1/2+x,1/2-y,-z
-x,1/2+y,1/2-z
1/4+y,3/4+x,3/4-z
3/4-y,3/4-x,3/4-z
1/2-x,1/2-y,1/2-z
1/4+y,3/4-x,1/4-z
1/2+x,y,1/2-z
1/4-y,1/4+x,3/4-z
1/2-x,1/2+y,z
x,1/2-y,1/2+z
3/4-y,1/4-x,1/4+z
1/4+y,1/4+x,1/4+z
loop_
_atom_site_type_symbol
_atom_site_label
_atom_site_fract_x
_atom_site_fract_y
_atom_site_fract_z
Si Si1 0.588989 0.366416 0.214726
Si Si2 0.505049 0.469905 0.382376
O O1 0.500000 0.250000 0.247727
O O2 0.631092 0.500000 0.250000
O O3 0.489972 0.414811 0.164615
O O4 0.721693 0.284110 0.191844
O O5 0.663049 0.413049 0.375000
O O6 0.405170 0.344831 0.375000
#
# Coordination Sequence:
#
# PCOD8321297 Si02
#       2
#    32  32
#     4  12  27  49  80 119 167 224 289 358 442 523
#     4  11  25  50  79 113 167 223 276 365 436 514
#
# _framework density 27.622464999999998
#
# number of rings (size 3 to 8) (size 9 to 14) (size 15 to 20)
#    0.000    0.500    5.000    1.500    7.000    4.000 
#    0.000    0.000    0.000    0.000    0.000    0.000 
#    0.000    0.000    0.000    0.000    0.000    0.000 
#
# Total GULP energy -396554.736037 kJ/mol
# GULP energy per Si atom -12392.335501 kJ/mol
# Density = 2.755959 g / cm^3
# Si number density = 27.622465 Si / 1000 Ang^3
#
#
#
# Elastic Constant Matrix: (Units=GPa)
#
#
# Indices 1 2 3 4 5 6 
#
# 1 136.6886 83.9810 44.7083 0.0000 0.0000 0.0000
# 2 83.9810 136.6909 44.7080 0.0000 0.0000 0.0000
# 3 44.7083 44.7080 113.3263 0.0000 0.0000 0.0000
# 4 0.0000 0.0000 0.0000 401.1634 0.0000 0.0000
# 5 0.0000 0.0000 0.0000 0.0000 402.6954 0.0000
# 6 0.0000 0.0000 0.0000 0.0000 0.0000 40.3087
#
#
#
# Elastic Compliance Matrix: (Units=1/GPa)
#
#
# Indices 1 2 3 4 5 6 
#
# 1 0.012183 -0.006789 -0.002128 0.000000 0.000000 0.000000
# 2 -0.006789 0.012183 -0.002128 0.000000 0.000000 0.000000
# 3 -0.002128 -0.002128 0.010503 0.000000 0.000000 0.000000
# 4 0.000000 0.000000 0.000000 0.002493 0.000000 0.000000
# 5 0.000000 0.000000 0.000000 0.000000 0.002483 0.000000
# 6 0.000000 0.000000 0.000000 0.000000 0.000000 0.024809
#
#
# Mechanical properties :
#
#
# Convention : Reuss Voigt Hill
#
# Bulk Modulus (GPa) = 78.25283 81.50004 79.87644
# Shear Modulus (GPa) = 54.94303 183.05407 118.99855
#
# Velocity S-wave (km/s) = 4.46474 8.14947 6.57068
# Velocity P-wave (km/s) = 7.41414 10.86834 9.30296
#
# Compressibility (1/GPa) = 0.01277909
#
# Stress axis : x y z
#
# Youngs Moduli (GPa) = 82.08058 82.08227 95.21048
#
# Poissons Ratio (x) = 0.55727 0.20261
# Poissons Ratio (y) = 0.55726 0.20259
# Poissons Ratio (z) = 0.17467 0.17466
#
# Static dielectric constant tensor:
#      x y z
#    x 5.485260 0.000000 0.000000 
#    y 0.000000 5.485250 0.000000 
#    z 0.000000 0.000000 4.765800 
# 
# 
# High freq. dielectric constant tensor:
#      x y z
#    x 2.131490 0.000000 0.000000 
#    y 0.000000 2.131490 0.000000 
#    z 0.000000 0.000000 2.092250 
# 
# From -- ./inp_files/9476.got.cif
#   From: 2010.03.12/outbox.cif.g09.slc.cpg/sg142_5_cif.got.tgz:9476.got - 2010.04.03 13:27:16.
