data_PCOD8321824
_publ_section_title
;
Structure prediction by ZEFSAII (Michael W. Deem and Ramdas Pophale) SiO2 
 PCOD8321824
Probable space group: R -3
;
_chemical_formula_sum "Si O2"
_cell_formula_units_Z 48
_cell_length_a 30.000000
_cell_length_b 30.000000
_cell_length_c 9.000000
_cell_angle_alpha 90.000000
_cell_angle_beta 90.000000
_cell_angle_gamma 120.000000
_cell_volume 7014.805771
_symmetry_space_group_name_H-M "R -3"
_symmetry_group_IT_number 148
_symmetry_cell_setting 'hexagonal'
loop_
_space_group_symop_operation_xyz
x,y,z
-y,x-y,z
-x+y,-x,z
-x,-y,-z
y,-x+y,-z
x-y,x,-z
2/3+x,1/3+y,1/3+z
2/3-y,1/3+x-y,1/3+z
2/3-x+y,1/3-x,1/3+z
2/3-x,1/3-y,1/3-z
2/3+y,1/3-x+y,1/3-z
2/3+x-y,1/3+x,1/3-z
1/3+x,2/3+y,2/3+z
1/3-y,2/3+x-y,2/3+z
1/3-x+y,2/3-x,2/3+z
1/3-x,2/3-y,2/3-z
1/3+y,2/3-x+y,2/3-z
1/3+x-y,2/3+x,2/3-z
loop_
_atom_site_type_symbol
_atom_site_label
_atom_site_fract_x
_atom_site_fract_y
_atom_site_fract_z
Si Si1 0.547485 0.056396 0.683293
Si Si2 0.804910 0.102840 0.025088
Si Si3 0.958106 0.897323 0.909792
Si Si4 0.363606 0.013997 0.644084
Si Si5 0.264438 0.570671 0.252639
Si Si6 0.786971 0.027133 0.559170
Si Si7 0.786391 0.932893 0.442900
Si Si8 0.880471 0.466770 0.127436
O O1 0.565797 0.064113 0.512471
O O2 0.591641 0.056117 0.786029
O O3 0.537675 0.101852 0.741831
O O4 0.494459 0.002745 0.693500
O O5 0.743525 0.069892 0.035558
O O6 0.823717 0.078911 0.899768
O O7 0.958628 0.920131 0.746901
O O8 0.935211 0.836400 0.892154
O O9 0.923146 0.907588 0.024998
O O10 0.337048 0.003113 0.475608
O O11 0.392805 0.075271 0.658728
O O12 0.242303 0.607636 0.215636
O O13 0.218123 0.513409 0.250202
O O14 0.837143 0.039714 0.659332
O O15 0.770490 0.976619 0.457788
O O16 0.763568 0.899546 0.290527
#
# Coordination Sequence:
#
# PCOD8321824 Si02
#       8
#    18  18  18  18  18  18  18  18
#     4  10  23  40  66  92 131 174 224 281 347 409
#     4  11  23  44  64 100 134 176 227 281 353 419
#     4  11  24  42  62  95 134 174 216 281 342 398
#     4  12  25  45  72 104 144 182 232 291 357 423
#     4  11  22  38  61  89 122 169 223 269 331 404
#     4  11  22  43  66  95 131 176 227 286 337 416
#     4  10  21  40  65  93 124 172 222 280 334 403
#     4  10  24  41  66  94 131 174 228 274 343 416
#
# _framework density 6.84267
#
# number of rings (size 3 to 8) (size 9 to 14) (size 15 to 20)
#    0.000    1.250    2.500    4.000    0.000    8.000 
#    0.000    2.500    0.000    0.000    0.000    0.000 
#    0.000    0.000    0.000    0.000    0.000    0.000 
#
# Total GULP energy -594701.710423 kJ/mol
# GULP energy per Si atom -12389.618967 kJ/mol
# Density = 0.682710 g / cm^3
# Si number density = 6.842670 Si / 1000 Ang^3
#
#
#
# Elastic Constant Matrix: (Units=GPa)
#
#
# Indices 1 2 3 4 5 6 
#
# 1 80.1675 24.8199 42.2037 3.3294 0.8402 -0.0129
# 2 24.8199 80.1561 42.2345 -3.3858 -0.8375 -0.0210
# 3 42.2037 42.2345 133.7452 -0.0612 0.0625 -0.0300
# 4 3.3294 -3.3858 -0.0612 38.4787 -0.0388 -0.8325
# 5 0.8402 -0.8375 0.0625 -0.0388 38.5211 3.3551
# 6 -0.0129 -0.0210 -0.0300 -0.8325 3.3551 27.6841
#
#
#
# Elastic Compliance Matrix: (Units=1/GPa)
#
#
# Indices 1 2 3 4 5 6 
#
# 1 0.015517 -0.002754 -0.004027 -0.001592 -0.000393 0.000001
# 2 -0.002754 0.015525 -0.004033 0.001598 0.000405 0.000005
# 3 -0.004027 -0.004033 0.010021 0.000010 -0.000017 0.000008
# 4 -0.001592 0.001598 0.000010 0.026284 0.000027 0.000788
# 5 -0.000393 0.000405 -0.000017 0.000027 0.026254 -0.003181
# 6 0.000001 0.000005 0.000008 0.000788 -0.003181 0.036531
#
#
# Mechanical properties :
#
#
# Convention : Reuss Voigt Hill
#
# Bulk Modulus (GPa) = 51.45433 56.95387 54.20410
# Shear Modulus (GPa) = 31.59769 33.25750 32.42759
#
# Velocity S-wave (km/s) = 3.92758 4.02942 3.97882
# Velocity P-wave (km/s) = 6.75927 7.03228 6.89713
#
# Compressibility (1/GPa) = 0.01943471
#
# Stress axis : x y z
#
# Youngs Moduli (GPa) = 64.44584 64.41144 99.78763
#
# Poissons Ratio (x) = 0.17740 0.40187
# Poissons Ratio (y) = 0.17749 0.40244
# Poissons Ratio (z) = 0.25954 0.25977
#
# Static dielectric constant tensor:
#      x y z
#    x 3.726220 -0.000020 -0.000430 
#    y -0.000020 3.726460 -0.000020 
#    z -0.000430 -0.000020 4.238850 
# 
# 
# High freq. dielectric constant tensor:
#      x y z
#    x 1.804950 0.000000 -0.000040 
#    y 0.000000 1.804960 0.000000 
#    z -0.000040 0.000000 1.830250 
# 
# From -- ./inp_files/1120.got.cif
#   From: 2010.03.12/outbox.ucp.g09.slc.cvg/sg148_1_cif.got.tgz:1120.got - 2010.05.04 20:34:32.
