data_PCOD8321473
_publ_section_title
;
Structure prediction by ZEFSAII (Michael W. Deem and Ramdas Pophale) SiO2 
 PCOD8321473
Probable space group: P 32
;
_chemical_formula_sum "Si O2"
_cell_formula_units_Z 24
_cell_length_a 8.808082
_cell_length_b 8.808082
_cell_length_c 16.152179
_cell_angle_alpha 90.000000
_cell_angle_beta 90.000000
_cell_angle_gamma 120.000000
_cell_volume 1085.236642
_symmetry_space_group_name_H-M "P 32"
_symmetry_group_IT_number 145
_symmetry_cell_setting 'hexagonal'
loop_
_space_group_symop_operation_xyz
x,y,z
-y,x-y,2/3+z
-x+y,-x,1/3+z
loop_
_atom_site_type_symbol
_atom_site_label
_atom_site_fract_x
_atom_site_fract_y
_atom_site_fract_z
Si Si1 0.232995 0.966742 0.418880
Si Si2 0.004986 0.927142 0.134872
Si Si3 0.678467 0.217288 0.057445
Si Si4 0.372934 0.642954 0.805313
Si Si5 0.731109 0.401104 0.229950
Si Si6 0.621375 0.716668 0.359585
Si Si7 0.099218 0.739561 0.262660
Si Si8 0.336758 0.965388 0.842479
O O1 0.340187 0.904708 0.477257
O O2 0.144054 0.801726 0.356037
O O3 0.091894 0.975907 0.477184
O O4 0.344718 0.155922 0.373575
O O5 0.133473 0.939655 0.061550
O O6 0.070294 0.887119 0.219658
O O7 0.799953 0.780864 0.118771
O O8 0.718971 0.279358 0.153467
O O9 0.483568 0.050605 0.050903
O O10 0.699201 0.355168 0.984900
O O11 0.280665 0.533536 0.723208
O O12 0.269826 0.530296 0.886351
O O13 0.371984 0.824077 0.797609
O O14 0.609430 0.476576 0.196439
O O15 0.924513 0.553581 0.252580
O O16 0.645725 0.758210 0.262848
#
# Coordination Sequence:
#
# PCOD8321473 Si02
#       8
#     3   3   3   3   3   3   3   3
#     4  12  24  41  67 101 127 178 234 277 340 426
#     4  10  22  41  67  92 131 173 220 273 345 409
#     4  11  24  42  69 100 134 175 235 277 350 414
#     4  11  23  41  67  93 134 169 226 277 347 398
#     4  10  23  44  66 100 134 180 224 287 348 413
#     4  10  23  44  65  94 135 171 217 285 345 406
#     4  10  23  45  63  94 138 176 217 290 346 405
#     4  10  22  42  64  94 131 172 223 272 341 413
#
# _framework density 22.114991
#
# number of rings (size 3 to 8) (size 9 to 14) (size 15 to 20)
#    0.000    1.500    1.250    3.750    7.000    1.000 
#    2.250    6.250    0.000    0.000    0.000    0.000 
#    0.000    0.000    0.000    0.000    0.000    0.000 
#
# Total GULP energy -297388.415334 kJ/mol
# GULP energy per Si atom -12391.183972 kJ/mol
# Density = 2.206466 g / cm^3
# Si number density = 22.114991 Si / 1000 Ang^3
#
#
#
# Elastic Constant Matrix: (Units=GPa)
#
#
# Indices 1 2 3 4 5 6 
#
# 1 110.7540 45.9022 16.5520 -2.3322 -4.8068 0.0000
# 2 45.9022 110.7540 16.5520 2.3322 4.8068 0.0000
# 3 16.5520 16.5520 64.9814 0.0000 0.0000 0.0000
# 4 -2.3322 2.3322 0.0000 26.1712 0.0000 4.8068
# 5 -4.8068 4.8068 0.0000 0.0000 26.1712 -2.3322
# 6 0.0000 0.0000 0.0000 4.8068 -2.3322 32.4259
#
#
#
# Elastic Compliance Matrix: (Units=1/GPa)
#
#
# Indices 1 2 3 4 5 6 
#
# 1 0.011352 -0.004605 -0.001718 0.001422 0.002931 0.000000
# 2 -0.004605 0.011352 -0.001718 -0.001422 -0.002931 0.000000
# 3 -0.001718 -0.001718 0.016264 0.000000 0.000000 0.000000
# 4 0.001422 -0.001422 0.000000 0.039540 0.000000 -0.005861
# 5 0.002931 -0.002931 0.000000 0.000000 0.039540 0.002844
# 6 0.000000 0.000000 0.000000 -0.005861 0.002844 0.031913
#
#
# Mechanical properties :
#
#
# Convention : Reuss Voigt Hill
#
# Bulk Modulus (GPa) = 43.69927 49.38909 46.54418
# Shear Modulus (GPa) = 28.78990 30.78589 29.78789
#
# Velocity S-wave (km/s) = 3.61200 3.73511 3.67407
# Velocity P-wave (km/s) = 6.09904 6.40178 6.25224
#
# Compressibility (1/GPa) = 0.02288368
#
# Stress axis : x y z
#
# Youngs Moduli (GPa) = 88.09397 88.09397 61.48366
#
# Poissons Ratio (x) = 0.40567 0.10566
# Poissons Ratio (y) = 0.40567 0.10566
# Poissons Ratio (z) = 0.15139 0.15139
#
# Static dielectric constant tensor:
#      x y z
#    x 4.048240 0.000000 0.000000 
#    y 0.000000 4.048240 0.000000 
#    z 0.000000 0.000000 3.925550 
# 
# 
# High freq. dielectric constant tensor:
#      x y z
#    x 1.873790 0.000000 0.000000 
#    y 0.000000 1.873790 0.000000 
#    z 0.000000 0.000000 1.860840 
# 
# From -- ./inp_files/865.got.cif
#   From: 2010.03.12/outbox.cif.g09.slc.cpg/sg145_cif.got.tgz:865.got - 2010.04.03 13:35:35.
