data_PCOD8321769
_publ_section_title
;
Structure prediction by ZEFSAII (Michael W. Deem and Ramdas Pophale) SiO2 
 PCOD8321769
Probable space group: R -3
;
_chemical_formula_sum "Si O2"
_cell_formula_units_Z 60
_cell_length_a 14.153788
_cell_length_b 14.153788
_cell_length_c 16.657949
_cell_angle_alpha 90.000000
_cell_angle_beta 90.000000
_cell_angle_gamma 120.000000
_cell_volume 2889.997935
_symmetry_space_group_name_H-M "R -3"
_symmetry_group_IT_number 148
_symmetry_cell_setting 'hexagonal'
loop_
_space_group_symop_operation_xyz
x,y,z
-y,x-y,z
-x+y,-x,z
-x,-y,-z
y,-x+y,-z
x-y,x,-z
2/3+x,1/3+y,1/3+z
2/3-y,1/3+x-y,1/3+z
2/3-x+y,1/3-x,1/3+z
2/3-x,1/3-y,1/3-z
2/3+y,1/3-x+y,1/3-z
2/3+x-y,1/3+x,1/3-z
1/3+x,2/3+y,2/3+z
1/3-y,2/3+x-y,2/3+z
1/3-x+y,2/3-x,2/3+z
1/3-x,2/3-y,2/3-z
1/3+y,2/3-x+y,2/3-z
1/3+x-y,2/3+x,2/3-z
loop_
_atom_site_type_symbol
_atom_site_label
_atom_site_fract_x
_atom_site_fract_y
_atom_site_fract_z
Si Si1 0.509210 0.991057 0.833997
Si Si2 0.666668 0.333334 0.930210
Si Si3 0.990415 0.198720 0.380734
Si Si4 0.983087 0.395942 0.548155
O O1 0.529900 0.096071 0.783206
O O2 0.570741 0.025053 0.920000
O O3 0.378267 0.921218 0.845471
O O4 0.567136 0.933308 0.787857
O O5 0.666668 0.333335 0.833334
O O6 0.634776 0.218313 0.971623
O O7 0.932452 0.223887 0.308017
O O8 0.000000 0.500000 0.500000
#
# Coordination Sequence:
#
# PCOD8321769 Si02
#       4
#    18   6  18  18
#     4  10  23  44  63  95 133 174 232 284 349 408
#     4  12  18  36  63 108 126 160 215 292 351 399
#     4  11  22  39  69  95 135 171 228 289 350 407
#     4  11  26  42  67  97 136 188 230 283 352 420
#
# _framework density 20.761261000000001
#
# number of rings (size 3 to 8) (size 9 to 14) (size 15 to 20)
#    0.000    1.200    3.000    2.700   12.600    0.000 
#    1.800    0.000    0.000    1.800    0.000    0.000 
#    0.000    0.000    0.000    0.000    0.000    0.000 
#
# Total GULP energy -247831.823287 kJ/mol
# GULP energy per Si atom -12391.591164 kJ/mol
# Density = 2.071401 g / cm^3
# Si number density = 20.761261 Si / 1000 Ang^3
#
#
#
# Elastic Constant Matrix: (Units=GPa)
#
#
# Indices 1 2 3 4 5 6 
#
# 1 126.4022 47.5975 45.5862 4.6792 -6.8901 0.0001
# 2 47.5975 126.4023 45.5861 -4.6790 6.8904 0.0002
# 3 45.5862 45.5861 113.4235 -0.0001 0.0001 0.0000
# 4 4.6792 -4.6790 -0.0001 36.0271 0.0001 6.8902
# 5 -6.8901 6.8904 0.0001 0.0001 36.0274 4.6792
# 6 0.0001 0.0002 0.0000 6.8902 4.6792 39.4026
#
#
#
# Elastic Compliance Matrix: (Units=1/GPa)
#
#
# Indices 1 2 3 4 5 6 
#
# 1 0.010311 -0.003031 -0.002926 -0.001733 0.002552 0.000000
# 2 -0.003031 0.010311 -0.002926 0.001733 -0.002552 0.000000
# 3 -0.002926 -0.002926 0.011169 0.000000 0.000000 0.000000
# 4 -0.001733 0.001733 0.000000 0.029183 0.000000 -0.005103
# 5 0.002552 -0.002552 0.000000 0.000000 0.029183 -0.003466
# 6 0.000000 0.000000 0.000000 -0.005103 -0.003466 0.026683
#
#
# Mechanical properties :
#
#
# Convention : Reuss Voigt Hill
#
# Bulk Modulus (GPa) = 71.30120 71.52973 71.41546
# Shear Modulus (GPa) = 35.89903 37.45528 36.67715
#
# Velocity S-wave (km/s) = 4.16280 4.25207 4.20767
# Velocity P-wave (km/s) = 7.58440 7.65735 7.62096
#
# Compressibility (1/GPa) = 0.01402501
#
# Stress axis : x y z
#
# Youngs Moduli (GPa) = 96.98440 96.98449 89.53725
#
# Poissons Ratio (x) = 0.29392 0.26199
# Poissons Ratio (y) = 0.29392 0.26199
# Poissons Ratio (z) = 0.28378 0.28378
#
# Static dielectric constant tensor:
#      x y z
#    x 3.762250 0.000000 0.000000 
#    y 0.000000 3.762250 0.000000 
#    z 0.000000 0.000000 3.731270 
# 
# 
# High freq. dielectric constant tensor:
#      x y z
#    x 1.810450 0.000000 0.000000 
#    y 0.000000 1.810450 0.000000 
#    z 0.000000 0.000000 1.803620 
# 
# From -- ./inp_files/1827.got.cif
#   From: 2010.03.12/outbox.cif.g09.slc.cpg/sg148_1_cif.got.tgz:1827.got - 2010.04.03 13:38:46.
