data_PCOD8321230
_publ_section_title
;
Structure prediction by ZEFSAII (Michael W. Deem and Ramdas Pophale) SiO2 
 PCOD8321230
Probable space group: I 41/A C D
;
_chemical_formula_sum "Si O2"
_cell_formula_units_Z 160
_cell_length_a 20.540132
_cell_length_b 20.540132
_cell_length_c 15.960918
_cell_angle_alpha 90.000000
_cell_angle_beta 90.000000
_cell_angle_gamma 90.000000
_cell_volume 6733.863782
_symmetry_space_group_name_H-M "I 41/A C D"
_symmetry_group_IT_number 142
_space_group.IT_coordinate_system_code '2'
_symmetry_cell_setting 'tetragonal'
loop_
_space_group_symop_operation_xyz
x,y,z
1/4-y,3/4+x,1/4+z
-x,1/2-y,z
1/4+y,1/4-x,3/4+z
x,-y,1/2-z
1/2-x,y,-z
3/4+y,1/4+x,1/4-z
1/4-y,1/4-x,1/4-z
-x,-y,-z
3/4+y,1/4-x,3/4-z
x,1/2+y,-z
3/4-y,3/4+x,1/4-z
-x,y,1/2+z
1/2+x,-y,z
1/4-y,3/4-x,3/4+z
3/4+y,3/4+x,3/4+z
1/2+x,1/2+y,1/2+z
3/4-y,1/4+x,3/4+z
1/2-x,-y,1/2+z
3/4+y,3/4-x,1/4+z
1/2+x,1/2-y,-z
-x,1/2+y,1/2-z
1/4+y,3/4+x,3/4-z
3/4-y,3/4-x,3/4-z
1/2-x,1/2-y,1/2-z
1/4+y,3/4-x,1/4-z
1/2+x,y,1/2-z
1/4-y,1/4+x,3/4-z
1/2-x,1/2+y,z
x,1/2-y,1/2+z
3/4-y,1/4-x,1/4+z
1/4+y,1/4+x,1/4+z
loop_
_atom_site_type_symbol
_atom_site_label
_atom_site_fract_x
_atom_site_fract_y
_atom_site_fract_z
Si Si1 0.520529 0.010889 0.843927
Si Si2 0.111973 0.725510 0.823409
Si Si3 0.878315 0.452140 0.975636
Si Si4 0.118203 0.050562 0.382797
Si Si5 0.072213 0.804477 0.669726
O O1 0.511352 0.086852 0.865514
O O2 0.546828 0.000000 0.750000
O O3 0.573428 0.983673 0.908159
O O4 0.450895 0.975570 0.851327
O O5 0.053301 0.696700 0.875000
O O6 0.145284 0.667754 0.771250
O O7 0.077664 0.776931 0.762758
O O8 0.810189 0.422780 0.939500
O O9 0.854992 0.506048 0.042505
O O10 0.110933 0.125037 0.412793
O O11 0.084700 0.748963 0.597914
#
# Coordination Sequence:
#
# PCOD8321230 Si02
#       5
#    32  32  32  32  32
#     4  11  22  38  67 101 137 181 238 287 353 425
#     4  11  21  37  65  99 137 181 233 289 355 422
#     4  11  22  41  72  96 140 189 237 296 351 420
#     4  11  20  42  69 102 134 188 234 289 346 415
#     4  11  21  37  66  97 145 181 223 293 357 423
#
# _framework density 23.760505999999999
#
# number of rings (size 3 to 8) (size 9 to 14) (size 15 to 20)
#    0.000    1.000    6.000    2.400    0.000    0.000 
#    0.000    3.000    0.000   18.000    0.000    0.000 
#    0.000    0.000    0.000    0.000    0.000    0.000 
#
# Total GULP energy -991938.481538 kJ/mol
# GULP energy per Si atom -12399.231019 kJ/mol
# Density = 2.370643 g / cm^3
# Si number density = 23.760506 Si / 1000 Ang^3
#
#
#
# Elastic Constant Matrix: (Units=GPa)
#
#
# Indices 1 2 3 4 5 6 
#
# 1 53.1907 12.9536 14.2425 0.0000 0.0000 0.0000
# 2 12.9536 53.1932 14.2471 0.0000 0.0000 0.0000
# 3 14.2425 14.2471 120.3401 0.0000 0.0000 0.0000
# 4 0.0000 0.0000 0.0000 39.2301 0.0000 0.0000
# 5 0.0000 0.0000 0.0000 0.0000 39.2311 0.0000
# 6 0.0000 0.0000 0.0000 0.0000 0.0000 22.3984
#
#
#
# Elastic Compliance Matrix: (Units=1/GPa)
#
#
# Indices 1 2 3 4 5 6 
#
# 1 0.020391 -0.004461 -0.001885 0.000000 0.000000 0.000000
# 2 -0.004461 0.020391 -0.001886 0.000000 0.000000 0.000000
# 3 -0.001885 -0.001886 0.008756 0.000000 0.000000 0.000000
# 4 0.000000 0.000000 0.000000 0.025491 0.000000 0.000000
# 5 0.000000 0.000000 0.000000 0.000000 0.025490 0.000000
# 6 0.000000 0.000000 0.000000 0.000000 0.000000 0.044646
#
#
# Mechanical properties :
#
#
# Convention : Reuss Voigt Hill
#
# Bulk Modulus (GPa) = 30.23508 34.40116 32.31812
# Shear Modulus (GPa) = 28.95965 32.52399 30.74182
#
# Velocity S-wave (km/s) = 3.49494 3.70378 3.60087
# Velocity P-wave (km/s) = 5.38876 5.72716 5.56053
#
# Compressibility (1/GPa) = 0.03307416
#
# Stress axis : x y z
#
# Youngs Moduli (GPa) = 49.04028 49.04159 114.20473
#
# Poissons Ratio (x) = 0.21876 0.21531
# Poissons Ratio (y) = 0.21876 0.21541
# Poissons Ratio (z) = 0.09245 0.09250
#
# Static dielectric constant tensor:
#      x y z
#    x 4.289540 0.000000 0.000000 
#    y 0.000000 4.289540 0.000000 
#    z 0.000000 0.000000 4.634160 
# 
# 
# High freq. dielectric constant tensor:
#      x y z
#    x 1.934360 0.000000 0.000000 
#    y 0.000000 1.934360 0.000000 
#    z 0.000000 0.000000 1.949450 
# 
# From -- ./inp_files/5413.got.cif
#   From: 2010.03.12/outbox.cif.g09.slc.cpg/sg142_3_cif.got.tgz:5413.got - 2010.04.03 13:27:16.
