data_PCOD8321752
_publ_section_title
;
Structure prediction by ZEFSAII (Michael W. Deem and Ramdas Pophale) SiO2 
 PCOD8321752
Probable space group: R -3
;
_chemical_formula_sum "Si O2"
_cell_formula_units_Z 114
_cell_length_a 23.026536
_cell_length_b 23.026536
_cell_length_c 12.407203
_cell_angle_alpha 90.000000
_cell_angle_beta 90.000000
_cell_angle_gamma 120.000000
_cell_volume 5697.203588
_symmetry_space_group_name_H-M "R -3"
_symmetry_group_IT_number 148
_symmetry_cell_setting 'hexagonal'
loop_
_space_group_symop_operation_xyz
x,y,z
-y,x-y,z
-x+y,-x,z
-x,-y,-z
y,-x+y,-z
x-y,x,-z
2/3+x,1/3+y,1/3+z
2/3-y,1/3+x-y,1/3+z
2/3-x+y,1/3-x,1/3+z
2/3-x,1/3-y,1/3-z
2/3+y,1/3-x+y,1/3-z
2/3+x-y,1/3+x,1/3-z
1/3+x,2/3+y,2/3+z
1/3-y,2/3+x-y,2/3+z
1/3-x+y,2/3-x,2/3+z
1/3-x,2/3-y,2/3-z
1/3+y,2/3-x+y,2/3-z
1/3+x-y,2/3+x,2/3-z
loop_
_atom_site_type_symbol
_atom_site_label
_atom_site_fract_x
_atom_site_fract_y
_atom_site_fract_z
Si Si1 0.666668 0.333334 0.460199
Si Si2 0.336811 0.233293 0.961623
Si Si3 0.124729 0.558410 0.745685
Si Si4 0.438207 0.809466 0.534880
Si Si5 0.269791 0.154870 0.235613
Si Si6 0.940041 0.367380 0.133063
Si Si7 0.668968 0.698738 0.254658
O O1 0.666668 0.333335 0.333334
O O2 0.630113 0.256719 0.500585
O O3 0.261465 0.173148 0.991084
O O4 0.326319 0.253201 0.842311
O O5 0.382687 0.197923 0.976461
O O6 0.368570 0.297133 0.041993
O O7 0.174535 0.615181 0.662717
O O8 0.166835 0.536478 0.821719
O O9 0.090546 0.588148 0.824779
O O10 0.444915 0.868427 0.463023
O O11 0.333334 0.166667 0.166667
O O12 0.262955 0.219808 0.225080
O O13 0.996987 0.376062 0.218614
O O14 0.973808 0.391238 0.016434
#
# Coordination Sequence:
#
# PCOD8321752 Si02
#       7
#     6  18  18  18  18  18  18
#     4  12  21  36  54  84 129 162 190 264 318 369
#     4  11  22  38  61  88 124 162 209 254 318 371
#     4  12  22  35  59  90 125 165 203 257 314 388
#     4  12  22  35  57  88 124 159 206 251 321 378
#     4  12  22  37  61  89 117 162 209 257 313 382
#     4  11  23  38  60  89 124 162 210 258 317 379
#     4  10  22  40  60  88 124 163 207 262 310 384
#
# _framework density 20.009816000000001
#
# number of rings (size 3 to 8) (size 9 to 14) (size 15 to 20)
#    0.000    0.632    4.737    4.737    2.211    0.632 
#    0.000    1.579    0.000    0.000    0.000    0.000 
#    0.000    3.789    0.000    0.000    0.000    0.000 
#
# Total GULP energy -470755.649871 kJ/mol
# GULP energy per Si atom -12388.306576 kJ/mol
# Density = 1.996427 g / cm^3
# Si number density = 20.009816 Si / 1000 Ang^3
#
#
#
# Elastic Constant Matrix: (Units=GPa)
#
#
# Indices 1 2 3 4 5 6 
#
# 1 104.3637 30.6909 23.6700 4.2561 -4.8901 0.0005
# 2 30.6909 104.3631 23.6699 -4.2558 4.8905 0.0002
# 3 23.6700 23.6699 64.4714 0.0001 0.0002 0.0000
# 4 4.2561 -4.2558 0.0001 25.8640 0.0001 4.8905
# 5 -4.8901 4.8905 0.0002 0.0001 25.8637 4.2559
# 6 0.0005 0.0002 0.0000 4.8905 4.2559 36.8362
#
#
#
# Elastic Compliance Matrix: (Units=1/GPa)
#
#
# Indices 1 2 3 4 5 6 
#
# 1 0.011349 -0.002851 -0.003120 -0.002337 0.002685 0.000000
# 2 -0.002851 0.011349 -0.003120 0.002337 -0.002685 0.000000
# 3 -0.003120 -0.003120 0.017802 0.000000 0.000000 0.000000
# 4 -0.002337 0.002337 0.000000 0.040448 0.000000 -0.005370
# 5 0.002685 -0.002685 0.000000 0.000000 0.040449 -0.004673
# 6 0.000000 0.000000 0.000000 -0.005370 -0.004673 0.028400
#
#
# Mechanical properties :
#
#
# Convention : Reuss Voigt Hill
#
# Bulk Modulus (GPa) = 44.80705 47.69555 46.25130
# Shear Modulus (GPa) = 28.50341 30.72394 29.61367
#
# Velocity S-wave (km/s) = 3.77831 3.92272 3.85119
# Velocity P-wave (km/s) = 6.44013 6.66370 6.55287
#
# Compressibility (1/GPa) = 0.02231792
#
# Stress axis : x y z
#
# Youngs Moduli (GPa) = 88.11355 88.11295 56.17449
#
# Poissons Ratio (x) = 0.25121 0.17526
# Poissons Ratio (y) = 0.25121 0.17526
# Poissons Ratio (z) = 0.27491 0.27491
#
# Static dielectric constant tensor:
#      x y z
#    x 3.863260 0.000000 0.000020 
#    y 0.000000 3.863180 -0.000010 
#    z 0.000020 -0.000010 3.343520 
# 
# 
# High freq. dielectric constant tensor:
#      x y z
#    x 1.790710 0.000000 0.000000 
#    y 0.000000 1.790710 0.000000 
#    z 0.000000 0.000000 1.744570 
# 
# From -- ./inp_files/2110.got.cif
#   From: 2010.03.12/outbox.cif.g09.slc.cpg/sg148_2_cif.got.tgz:2110.got - 2010.04.03 13:38:46.
