data_PCOD8321681
_publ_section_title
;
Structure prediction by ZEFSAII (Michael W. Deem and Ramdas Pophale) SiO2 
 PCOD8321681
Probable space group: R -3
;
_chemical_formula_sum "Si O2"
_cell_formula_units_Z 90
_cell_length_a 17.511800
_cell_length_b 17.511800
_cell_length_c 14.388078
_cell_angle_alpha 90.000000
_cell_angle_beta 90.000000
_cell_angle_gamma 120.000000
_cell_volume 3821.157972
_symmetry_space_group_name_H-M "R -3"
_symmetry_group_IT_number 148
_symmetry_cell_setting 'hexagonal'
loop_
_space_group_symop_operation_xyz
x,y,z
-y,x-y,z
-x+y,-x,z
-x,-y,-z
y,-x+y,-z
x-y,x,-z
2/3+x,1/3+y,1/3+z
2/3-y,1/3+x-y,1/3+z
2/3-x+y,1/3-x,1/3+z
2/3-x,1/3-y,1/3-z
2/3+y,1/3-x+y,1/3-z
2/3+x-y,1/3+x,1/3-z
1/3+x,2/3+y,2/3+z
1/3-y,2/3+x-y,2/3+z
1/3-x+y,2/3-x,2/3+z
1/3-x,2/3-y,2/3-z
1/3+y,2/3-x+y,2/3-z
1/3+x-y,2/3+x,2/3-z
loop_
_atom_site_type_symbol
_atom_site_label
_atom_site_fract_x
_atom_site_fract_y
_atom_site_fract_z
Si Si1 0.492327 0.155212 0.472407
Si Si2 0.663115 0.169803 0.685372
Si Si3 0.023936 0.666669 0.916668
Si Si4 0.169817 0.663146 0.814628
Si Si5 0.662851 0.155195 0.972408
O O1 0.488766 0.240254 0.433908
O O2 0.581629 0.160505 0.433592
O O3 0.475740 0.142426 0.583332
O O4 0.418125 0.071898 0.417557
O O5 0.663980 0.077567 0.675153
O O6 0.666654 0.210263 0.583333
O O7 0.573558 0.155425 0.732756
O O8 0.751676 0.245525 0.733075
O O9 0.077586 0.664019 0.824848
O O10 0.928132 0.581840 0.917561
#
# Coordination Sequence:
#
# PCOD8321681 Si02
#       5
#    18  18  18  18  18
#     4  10  18  35  55  79 107 142 186 221 265 326
#     4   8  18  31  53  75 101 139 181 223 257 319
#     4  10  20  32  50  84 104 134 176 226 282 300
#     4   8  18  31  53  75 101 139 181 223 257 319
#     4  10  18  35  55  79 107 142 186 221 265 326
#
# _framework density 23.553069000000001
#
# number of rings (size 3 to 8) (size 9 to 14) (size 15 to 20)
#    1.200    1.600    0.000    2.000    0.000    3.200 
#    3.600    0.000    0.000    0.000    0.000    2.800 
#    0.000    0.000    0.000    0.000    0.000    0.000 
#
# Total GULP energy -371645.229762 kJ/mol
# GULP energy per Si atom -12388.174325 kJ/mol
# Density = 2.349946 g / cm^3
# Si number density = 23.553069 Si / 1000 Ang^3
#
#
#
# Elastic Constant Matrix: (Units=GPa)
#
#
# Indices 1 2 3 4 5 6 
#
# 1 240.8045 120.9175 1.3756 -3.3963 0.0003 0.0000
# 2 120.9175 240.8045 1.3756 3.3963 -0.0003 0.0000
# 3 1.3756 1.3756 28.6916 0.0000 0.0000 0.0000
# 4 -3.3963 3.3963 0.0000 5.8581 0.0000 -0.0003
# 5 0.0003 -0.0003 0.0000 0.0000 5.8581 -3.3963
# 6 0.0000 0.0000 0.0000 -0.0003 -3.3963 59.9435
#
#
#
# Elastic Compliance Matrix: (Units=1/GPa)
#
#
# Indices 1 2 3 4 5 6 
#
# 1 0.005695 -0.002929 -0.000133 0.005000 -0.000001 0.000000
# 2 -0.002929 0.005695 -0.000133 -0.005000 0.000001 0.000000
# 3 -0.000133 -0.000133 0.034866 0.000000 0.000000 0.000000
# 4 0.005000 -0.005000 0.000000 0.176502 0.000000 0.000001
# 5 -0.000001 0.000001 0.000000 0.000000 0.176502 0.010000
# 6 0.000000 0.000000 0.000000 0.000001 0.010000 0.017249
#
#
# Mechanical properties :
#
#
# Convention : Reuss Voigt Hill
#
# Bulk Modulus (GPa) = 25.08347 84.18199 54.63273
# Shear Modulus (GPa) = 11.46294 40.10740 25.78517
#
# Velocity S-wave (km/s) = 2.20849 4.13104 3.31232
# Velocity P-wave (km/s) = 4.14441 7.65330 6.15423
#
# Compressibility (1/GPa) = 0.03986689
#
# Stress axis : x y z
#
# Youngs Moduli (GPa) = 175.59200 175.59200 28.68113
#
# Poissons Ratio (x) = 0.51439 0.00380
# Poissons Ratio (y) = 0.51439 0.00380
# Poissons Ratio (z) = 0.02328 0.02328
#
# Static dielectric constant tensor:
#      x y z
#    x 4.192890 0.000000 0.000000 
#    y 0.000000 4.192890 0.000000 
#    z 0.000000 0.000000 3.494830 
# 
# 
# High freq. dielectric constant tensor:
#      x y z
#    x 1.939640 0.000000 0.000000 
#    y 0.000000 1.939640 0.000000 
#    z 0.000000 0.000000 1.881230 
# 
# From -- ./inp_files/2654.got.cif
#   From: 2010.03.12/outbox.cif.g09.slc.cpg/sg148_2_cif.got.tgz:2654.got - 2010.04.03 13:38:46.
