data_PCOD8321167
_publ_section_title
;
Structure prediction by ZEFSAII (Michael W. Deem and Ramdas Pophale) SiO2 
 PCOD8321167
Probable space group: I 41/A C D
;
_chemical_formula_sum "Si O2"
_cell_formula_units_Z 176
_cell_length_a 27.539687
_cell_length_b 27.539687
_cell_length_c 10.336702
_cell_angle_alpha 90.000000
_cell_angle_beta 90.000000
_cell_angle_gamma 90.000000
_cell_volume 7839.709966
_symmetry_space_group_name_H-M "I 41/A C D"
_symmetry_group_IT_number 142
_space_group.IT_coordinate_system_code '2'
_symmetry_cell_setting 'tetragonal'
loop_
_space_group_symop_operation_xyz
x,y,z
1/4-y,3/4+x,1/4+z
-x,1/2-y,z
1/4+y,1/4-x,3/4+z
x,-y,1/2-z
1/2-x,y,-z
3/4+y,1/4+x,1/4-z
1/4-y,1/4-x,1/4-z
-x,-y,-z
3/4+y,1/4-x,3/4-z
x,1/2+y,-z
3/4-y,3/4+x,1/4-z
-x,y,1/2+z
1/2+x,-y,z
1/4-y,3/4-x,3/4+z
3/4+y,3/4+x,3/4+z
1/2+x,1/2+y,1/2+z
3/4-y,1/4+x,3/4+z
1/2-x,-y,1/2+z
3/4+y,3/4-x,1/4+z
1/2+x,1/2-y,-z
-x,1/2+y,1/2-z
1/4+y,3/4+x,3/4-z
3/4-y,3/4-x,3/4-z
1/2-x,1/2-y,1/2-z
1/4+y,3/4-x,1/4-z
1/2+x,y,1/2-z
1/4-y,1/4+x,3/4-z
1/2-x,1/2+y,z
x,1/2-y,1/2+z
3/4-y,1/4-x,1/4+z
1/4+y,1/4+x,1/4+z
loop_
_atom_site_type_symbol
_atom_site_label
_atom_site_fract_x
_atom_site_fract_y
_atom_site_fract_z
Si Si1 0.438296 0.040797 0.640923
Si Si2 0.922784 0.752163 0.899963
Si Si3 0.159282 0.590719 0.375000
Si Si4 0.985994 0.617511 0.592426
Si Si5 0.374381 0.109880 0.109340
Si Si6 0.110829 0.502969 0.101324
O O1 0.491938 0.065002 0.631464
O O2 0.398755 0.082952 0.682894
O O3 0.428986 0.014647 0.503333
O O4 0.438144 0.000000 0.750000
O O5 0.963893 0.713893 0.875000
O O6 0.880928 0.740051 0.795305
O O7 0.944091 0.805910 0.875000
O O8 0.905259 0.750525 0.046965
O O9 0.141597 0.626580 0.486426
O O10 0.155008 0.534494 0.411254
O O11 0.928793 0.620703 0.565105
O O12 0.364916 0.054474 0.061929
O O13 0.089863 0.500000 0.250000
#
# Coordination Sequence:
#
# PCOD8321167 Si02
#       6
#    32  32  16  32  32  32
#     4  11  26  45  65 105 144 179 230 289 354 415
#     4  11  24  44  68 100 135 178 235 291 343 404
#     4   8  18  38  66  98 123 170 234 284 332 404
#     4  12  27  42  72  98 138 183 232 281 348 417
#     4  10  22  42  70  94 138 185 227 282 350 411
#     4   9  20  40  70  97 132 180 233 283 341 420
#
# _framework density 22.449808999999998
#
# number of rings (size 3 to 8) (size 9 to 14) (size 15 to 20)
#    0.000    1.636    0.000    3.273   11.455    5.091 
#    0.000    4.545    0.000    0.000    0.000    0.000 
#    0.000    0.000    0.000    0.000    0.000    0.000 
#
# Total GULP energy -1090200.799085 kJ/mol
# GULP energy per Si atom -12388.645444 kJ/mol
# Density = 2.239871 g / cm^3
# Si number density = 22.449809 Si / 1000 Ang^3
#
#
#
# Elastic Constant Matrix: (Units=GPa)
#
#
# Indices 1 2 3 4 5 6 
#
# 1 92.6444 36.4866 35.2238 0.0000 0.0000 0.0000
# 2 36.4866 92.6414 35.2237 0.0000 0.0000 0.0000
# 3 35.2238 35.2237 102.2120 0.0000 0.0000 0.0000
# 4 0.0000 0.0000 0.0000 27.7084 0.0000 0.0000
# 5 0.0000 0.0000 0.0000 0.0000 27.7092 0.0000
# 6 0.0000 0.0000 0.0000 0.0000 0.0000 30.8053
#
#
#
# Elastic Compliance Matrix: (Units=1/GPa)
#
#
# Indices 1 2 3 4 5 6 
#
# 1 0.013672 -0.004135 -0.003287 0.000000 0.000000 0.000000
# 2 -0.004135 0.013673 -0.003287 0.000000 0.000000 0.000000
# 3 -0.003287 -0.003287 0.012049 0.000000 0.000000 0.000000
# 4 0.000000 0.000000 0.000000 0.036090 0.000000 0.000000
# 5 0.000000 0.000000 0.000000 0.000000 0.036089 0.000000
# 6 0.000000 0.000000 0.000000 0.000000 0.000000 0.032462
#
#
# Mechanical properties :
#
#
# Convention : Reuss Voigt Hill
#
# Bulk Modulus (GPa) = 55.62775 55.70733 55.66754
# Shear Modulus (GPa) = 29.16406 29.28215 29.22311
#
# Velocity S-wave (km/s) = 3.60818 3.61548 3.61183
# Velocity P-wave (km/s) = 6.49547 6.50361 6.49954
#
# Compressibility (1/GPa) = 0.01797664
#
# Stress axis : x y z
#
# Youngs Moduli (GPa) = 73.14164 73.13902 82.99543
#
# Poissons Ratio (x) = 0.30244 0.27277
# Poissons Ratio (y) = 0.30245 0.27278
# Poissons Ratio (z) = 0.24039 0.24039
#
# Static dielectric constant tensor:
#      x y z
#    x 4.290980 0.000000 0.000000 
#    y 0.000000 4.291010 0.000000 
#    z 0.000000 0.000000 4.675250 
# 
# 
# High freq. dielectric constant tensor:
#      x y z
#    x 1.883760 0.000000 0.000000 
#    y 0.000000 1.883760 0.000000 
#    z 0.000000 0.000000 1.887510 
# 
# From -- ./inp_files/3960.got.cif
#   From: 2010.03.12/outbox.cif.g09.slc.cpg/sg142_2_cif.got.tgz:3960.got - 2010.04.03 13:27:16.
