data_PCOD8321678
_publ_section_title
;
Structure prediction by ZEFSAII (Michael W. Deem and Ramdas Pophale) SiO2 
 PCOD8321678
Probable space group: R -3
;
_chemical_formula_sum "Si O2"
_cell_formula_units_Z 126
_cell_length_a 25.117178
_cell_length_b 25.117178
_cell_length_c 11.649212
_cell_angle_alpha 90.000000
_cell_angle_beta 90.000000
_cell_angle_gamma 120.000000
_cell_volume 6364.567068
_symmetry_space_group_name_H-M "R -3"
_symmetry_group_IT_number 148
_symmetry_cell_setting 'hexagonal'
loop_
_space_group_symop_operation_xyz
x,y,z
-y,x-y,z
-x+y,-x,z
-x,-y,-z
y,-x+y,-z
x-y,x,-z
2/3+x,1/3+y,1/3+z
2/3-y,1/3+x-y,1/3+z
2/3-x+y,1/3-x,1/3+z
2/3-x,1/3-y,1/3-z
2/3+y,1/3-x+y,1/3-z
2/3+x-y,1/3+x,1/3-z
1/3+x,2/3+y,2/3+z
1/3-y,2/3+x-y,2/3+z
1/3-x+y,2/3-x,2/3+z
1/3-x,2/3-y,2/3-z
1/3+y,2/3-x+y,2/3-z
1/3+x-y,2/3+x,2/3-z
loop_
_atom_site_type_symbol
_atom_site_label
_atom_site_fract_x
_atom_site_fract_y
_atom_site_fract_z
Si Si1 0.930573 0.316587 0.460186
Si Si2 0.089408 0.683082 0.150593
Si Si3 0.774053 0.084643 0.097169
Si Si4 0.401975 0.575831 0.297638
Si Si5 0.450038 0.955060 0.341208
Si Si6 0.703411 0.203205 0.716799
Si Si7 0.127457 0.503760 0.958924
O O1 0.920812 0.307004 0.322158
O O2 0.963002 0.387105 0.501960
O O3 0.861920 0.283151 0.512726
O O4 0.972540 0.288734 0.501753
O O5 0.114819 0.648296 0.072247
O O6 0.123672 0.699720 0.271794
O O7 0.104670 0.745733 0.081246
O O8 0.819522 0.145714 0.024598
O O9 0.813446 0.080502 0.202456
O O10 0.445981 0.547080 0.285129
O O11 0.440332 0.646109 0.343979
O O12 0.381214 0.575302 0.166738
O O13 0.345921 0.531787 0.380708
O O14 0.763437 0.229686 0.637435
#
# Coordination Sequence:
#
# PCOD8321678 Si02
#       7
#    18  18  18  18  18  18  18
#     4  12  22  39  58  87 123 158 210 248 313 365
#     4  10  21  36  58  84 122 160 196 257 310 369
#     4  11  23  38  60  85 116 166 208 254 302 371
#     4  10  17  35  57  83 121 158 194 255 311 362
#     4  10  20  39  57  80 119 161 203 247 312 361
#     4  10  18  33  58  87 119 158 198 241 321 367
#     4  11  21  36  59  87 125 157 199 260 306 373
#
# _framework density 19.797105999999999
#
# number of rings (size 3 to 8) (size 9 to 14) (size 15 to 20)
#    0.000    1.429    7.143    1.714    0.000    0.571 
#    0.857    5.000    0.000    0.000    0.000    0.000 
#    0.000    1.143    0.000    0.000    0.000    0.000 
#
# Total GULP energy -520396.366192 kJ/mol
# GULP energy per Si atom -12390.389671 kJ/mol
# Density = 1.975205 g / cm^3
# Si number density = 19.797106 Si / 1000 Ang^3
#
#
#
# Elastic Constant Matrix: (Units=GPa)
#
#
# Indices 1 2 3 4 5 6 
#
# 1 67.7561 11.7975 18.8863 5.1348 -2.7549 0.0006
# 2 11.7975 67.7574 18.8854 -5.1344 2.7543 0.0001
# 3 18.8863 18.8854 69.5456 0.0002 0.0011 0.0010
# 4 5.1348 -5.1344 0.0002 21.0284 0.0001 2.7548
# 5 -2.7549 2.7543 0.0011 0.0001 21.0283 5.1350
# 6 0.0006 0.0001 0.0010 2.7548 5.1350 27.9796
#
#
#
# Elastic Compliance Matrix: (Units=1/GPa)
#
#
# Indices 1 2 3 4 5 6 
#
# 1 0.016698 -0.002267 -0.003919 -0.004631 0.002485 0.000000
# 2 -0.002267 0.016697 -0.003919 0.004630 -0.002484 0.000000
# 3 -0.003919 -0.003919 0.016507 0.000000 -0.000001 0.000000
# 4 -0.004631 0.004630 0.000000 0.050467 0.000000 -0.004969
# 5 0.002485 -0.002484 -0.000001 0.000000 0.050467 -0.009262
# 6 0.000000 0.000000 0.000000 -0.004969 -0.009262 0.037929
#
#
# Mechanical properties :
#
#
# Convention : Reuss Voigt Hill
#
# Bulk Modulus (GPa) = 33.67733 33.79971 33.73852
# Shear Modulus (GPa) = 22.84424 24.37325 23.60875
#
# Velocity S-wave (km/s) = 3.40062 3.51258 3.45706
# Velocity P-wave (km/s) = 5.69800 5.79320 5.74579
#
# Compressibility (1/GPa) = 0.02969356
#
# Stress axis : x y z
#
# Youngs Moduli (GPa) = 59.88777 59.89001 60.57872
#
# Poissons Ratio (x) = 0.13577 0.23741
# Poissons Ratio (y) = 0.13576 0.23738
# Poissons Ratio (z) = 0.23470 0.23468
#
# Static dielectric constant tensor:
#      x y z
#    x 3.685150 0.000000 0.000000 
#    y 0.000000 3.685150 0.000000 
#    z 0.000000 0.000000 3.570390 
# 
# 
# High freq. dielectric constant tensor:
#      x y z
#    x 1.764540 0.000000 0.000000 
#    y 0.000000 1.764540 0.000000 
#    z 0.000000 0.000000 1.744070 
# 
# From -- ./inp_files/1608.got.cif
#   From: 2010.03.12/outbox.cif.g09.slc.cpg/sg148_1_cif.got.tgz:1608.got - 2010.04.03 13:38:46.
