data_PCOD8321539
_publ_section_title
;
Structure prediction by ZEFSAII (Michael W. Deem and Ramdas Pophale) SiO2 
 PCOD8321539
Probable space group: R 3
;
_chemical_formula_sum "Si O2"
_cell_formula_units_Z 60
_cell_length_a 15.998343
_cell_length_b 15.998343
_cell_length_c 12.640006
_cell_angle_alpha 90.000000
_cell_angle_beta 90.000000
_cell_angle_gamma 120.000000
_cell_volume 2801.740572
_symmetry_space_group_name_H-M "R 3"
_symmetry_group_IT_number 146
_symmetry_cell_setting 'hexagonal'
loop_
_space_group_symop_operation_xyz
x,y,z
-y,x-y,z
-x+y,-x,z
2/3+x,1/3+y,1/3+z
2/3-y,1/3+x-y,1/3+z
2/3-x+y,1/3-x,1/3+z
1/3+x,2/3+y,2/3+z
1/3-y,2/3+x-y,2/3+z
1/3-x+y,2/3-x,2/3+z
loop_
_atom_site_type_symbol
_atom_site_label
_atom_site_fract_x
_atom_site_fract_y
_atom_site_fract_z
Si Si1 0.666434 0.750966 0.719450
Si Si2 0.788627 0.943375 0.833835
Si Si3 0.666668 0.333335 0.416088
Si Si4 0.463877 0.205564 0.391292
Si Si5 0.333335 0.666667 0.495501
Si Si6 0.344799 0.245226 0.734155
Si Si7 0.226323 0.382526 0.166875
Si Si8 0.031056 0.257109 0.493090
O O1 0.697855 0.849488 0.782743
O O2 0.553077 0.694217 0.688903
O O3 0.731808 0.784625 0.616528
O O4 0.682740 0.677624 0.789876
O O5 0.779451 0.038013 0.816390
O O6 0.782356 0.924983 0.958459
O O7 0.891227 0.962184 0.787066
O O8 0.558410 0.276729 0.457468
O O9 0.666668 0.333334 0.288324
O O10 0.383686 0.181024 0.477380
O O11 0.294343 0.219441 0.618655
O O12 0.427427 0.356845 0.748899
O O13 0.400321 0.187255 0.759521
O O14 0.185206 0.456673 0.150183
#
# Coordination Sequence:
#
# PCOD8321539 Si02
#       8
#     9   9   3   9   3   9   9   9
#     4  11  21  39  67  94 132 174 218 273 335 401
#     4  11  22  39  69  98 131 169 217 282 336 394
#     4   9  21  39  60  93 124 152 214 273 336 390
#     4  10  23  39  65  96 130 167 217 277 340 400
#     4   9  21  36  60  99 124 155 211 270 324 393
#     4  12  25  45  68  97 133 174 227 278 338 397
#     4  11  26  45  65  97 133 173 229 273 333 412
#     4  11  23  44  66  92 133 178 219 272 334 407
#
# _framework density 21.41526
#
# number of rings (size 3 to 8) (size 9 to 14) (size 15 to 20)
#    0.000    1.200    3.000    2.700    6.300    0.000 
#    3.600    0.000    0.000    0.000    0.000    0.000 
#    0.000    0.000    0.000    0.000    0.000    0.000 
#
# Total GULP energy -247921.236187 kJ/mol
# GULP energy per Si atom -12396.061809 kJ/mol
# Density = 2.136652 g / cm^3
# Si number density = 21.415260 Si / 1000 Ang^3
#
#
#
# Elastic Constant Matrix: (Units=GPa)
#
#
# Indices 1 2 3 4 5 6 
#
# 1 100.7845 34.6383 13.1818 -3.1340 -6.6967 0.0004
# 2 34.6383 100.7857 13.1814 3.1336 6.6970 0.0000
# 3 13.1818 13.1814 34.3048 -0.0003 -0.0003 -0.0005
# 4 -3.1340 3.1336 -0.0003 28.7006 0.0002 6.6962
# 5 -6.6967 6.6970 -0.0003 0.0002 28.7005 -3.1340
# 6 0.0004 0.0000 -0.0005 6.6962 -3.1340 33.0732
#
#
#
# Elastic Compliance Matrix: (Units=1/GPa)
#
#
# Indices 1 2 3 4 5 6 
#
# 1 0.012012 -0.004030 -0.003067 0.001752 0.003743 0.000000
# 2 -0.004030 0.012011 -0.003067 -0.001752 -0.003743 0.000000
# 3 -0.003067 -0.003067 0.031507 0.000000 0.000000 0.000000
# 4 0.001752 -0.001752 0.000000 0.036971 0.000000 -0.007485
# 5 0.003743 -0.003743 0.000000 0.000000 0.036972 0.003503
# 6 0.000000 0.000000 0.000000 -0.007485 0.003503 0.032083
#
#
# Mechanical properties :
#
#
# Convention : Reuss Voigt Hill
#
# Bulk Modulus (GPa) = 28.40696 39.76423 34.08560
# Shear Modulus (GPa) = 25.82388 29.75308 27.78848
#
# Velocity S-wave (km/s) = 3.47632 3.73143 3.60613
# Velocity P-wave (km/s) = 5.42279 6.09699 5.76975
#
# Compressibility (1/GPa) = 0.03520264
#
# Stress axis : x y z
#
# Youngs Moduli (GPa) = 83.25275 83.25397 31.73866
#
# Poissons Ratio (x) = 0.33554 0.09734
# Poissons Ratio (y) = 0.33553 0.09733
# Poissons Ratio (z) = 0.25533 0.25532
#
# Static dielectric constant tensor:
#      x y z
#    x 4.089410 0.000000 0.000000 
#    y 0.000000 4.089390 0.000000 
#    z 0.000000 0.000000 3.600800 
# 
# 
# High freq. dielectric constant tensor:
#      x y z
#    x 1.845940 0.000000 0.000000 
#    y 0.000000 1.845940 0.000000 
#    z 0.000000 0.000000 1.822410 
# 
# From -- ./inp_files/1550.got.cif
#   From: 2010.06.25/outbox.cif.g09.slc.cpg/sg146_cif.got.tgz:1550.got - 2010.06.28 11:17:22.
