data_PCOD8321141
_publ_section_title
;
Structure prediction by ZEFSAII (Michael W. Deem and Ramdas Pophale) SiO2 
 PCOD8321141
Probable space group: I 41/A C D
;
_chemical_formula_sum "Si O2"
_cell_formula_units_Z 192
_cell_length_a 19.184290
_cell_length_b 19.184290
_cell_length_c 25.851067
_cell_angle_alpha 90.000000
_cell_angle_beta 90.000000
_cell_angle_gamma 90.000000
_cell_volume 9514.148701
_symmetry_space_group_name_H-M "I 41/A C D"
_symmetry_group_IT_number 142
_space_group.IT_coordinate_system_code '2'
_symmetry_cell_setting 'tetragonal'
loop_
_space_group_symop_operation_xyz
x,y,z
1/4-y,3/4+x,1/4+z
-x,1/2-y,z
1/4+y,1/4-x,3/4+z
x,-y,1/2-z
1/2-x,y,-z
3/4+y,1/4+x,1/4-z
1/4-y,1/4-x,1/4-z
-x,-y,-z
3/4+y,1/4-x,3/4-z
x,1/2+y,-z
3/4-y,3/4+x,1/4-z
-x,y,1/2+z
1/2+x,-y,z
1/4-y,3/4-x,3/4+z
3/4+y,3/4+x,3/4+z
1/2+x,1/2+y,1/2+z
3/4-y,1/4+x,3/4+z
1/2-x,-y,1/2+z
3/4+y,3/4-x,1/4+z
1/2+x,1/2-y,-z
-x,1/2+y,1/2-z
1/4+y,3/4+x,3/4-z
3/4-y,3/4-x,3/4-z
1/2-x,1/2-y,1/2-z
1/4+y,3/4-x,1/4-z
1/2+x,y,1/2-z
1/4-y,1/4+x,3/4-z
1/2-x,1/2+y,z
x,1/2-y,1/2+z
3/4-y,1/4-x,1/4+z
1/4+y,1/4+x,1/4+z
loop_
_atom_site_type_symbol
_atom_site_label
_atom_site_fract_x
_atom_site_fract_y
_atom_site_fract_z
Si Si1 0.180855 0.119954 0.472627
Si Si2 0.441623 0.510156 0.869399
Si Si3 0.012743 0.434216 0.720887
Si Si4 0.069857 0.789697 0.264050
Si Si5 0.695729 0.197984 0.775447
Si Si6 0.511355 0.348921 0.102003
O O1 0.250000 0.088770 0.500000
O O2 0.202532 0.128079 0.411958
O O3 0.162390 0.196881 0.493835
O O4 0.113167 0.072237 0.483879
O O5 0.484337 0.454669 0.835575
O O6 0.412641 0.473287 0.921437
O O7 0.496188 0.569524 0.887284
O O8 0.049636 0.500000 0.750000
O O9 0.065793 0.369559 0.715548
O O10 0.130300 0.745738 0.291697
O O11 0.084997 0.794495 0.203425
O O12 0.000000 0.750000 0.278261
O O13 0.750000 0.250000 0.750000
O O14 0.435596 0.312920 0.105143
#
# Coordination Sequence:
#
# PCOD8321141 Si02
#       6
#    32  32  32  32  32  32
#     4   9  20  41  64  86 126 171 227 258 321 413
#     4  10  22  38  61  92 131 180 214 273 346 403
#     4   9  20  38  61  90 129 177 222 273 330 416
#     4  12  21  38  61  97 132 163 220 292 337 394
#     4  12  24  40  63 102 138 165 221 290 338 399
#     4  11  19  31  63  97 125 165 223 270 333 399
#
# _framework density 20.18047
#
# number of rings (size 3 to 8) (size 9 to 14) (size 15 to 20)
#    0.000    1.833    5.000    3.000    0.000    3.333 
#    0.000    1.667    0.000    2.000    0.000    0.000 
#    0.000    0.000    0.000    0.000    0.000    0.000 
#
# Total GULP energy -1189800.584518 kJ/mol
# GULP energy per Si atom -12393.756089 kJ/mol
# Density = 2.013454 g / cm^3
# Si number density = 20.180470 Si / 1000 Ang^3
#
#
#
# Elastic Constant Matrix: (Units=GPa)
#
#
# Indices 1 2 3 4 5 6 
#
# 1 116.2989 45.3089 39.1545 0.0000 0.0000 0.0000
# 2 45.3089 116.2989 39.1545 0.0000 0.0000 0.0000
# 3 39.1545 39.1545 118.7006 0.0000 0.0000 0.0000
# 4 0.0000 0.0000 0.0000 25.4133 0.0000 0.0000
# 5 0.0000 0.0000 0.0000 0.0000 25.4133 0.0000
# 6 0.0000 0.0000 0.0000 0.0000 0.0000 30.4213
#
#
#
# Elastic Compliance Matrix: (Units=1/GPa)
#
#
# Indices 1 2 3 4 5 6 
#
# 1 0.010726 -0.003361 -0.002429 0.000000 0.000000 0.000000
# 2 -0.003361 0.010726 -0.002429 0.000000 0.000000 0.000000
# 3 -0.002429 -0.002429 0.010027 0.000000 0.000000 0.000000
# 4 0.000000 0.000000 0.000000 0.039349 0.000000 0.000000
# 5 0.000000 0.000000 0.000000 0.000000 0.039349 0.000000
# 6 0.000000 0.000000 0.000000 0.000000 0.000000 0.032872
#
#
# Mechanical properties :
#
#
# Convention : Reuss Voigt Hill
#
# Bulk Modulus (GPa) = 66.49088 66.50379 66.49733
# Shear Modulus (GPa) = 30.39482 31.42830 30.91156
#
# Velocity S-wave (km/s) = 3.88513 3.95062 3.91801
# Velocity P-wave (km/s) = 7.29008 7.33730 7.31373
#
# Compressibility (1/GPa) = 0.01503966
#
# Stress axis : x y z
#
# Youngs Moduli (GPa) = 93.23348 93.23348 99.72786
#
# Poissons Ratio (x) = 0.31333 0.24228
# Poissons Ratio (y) = 0.31333 0.24228
# Poissons Ratio (z) = 0.22650 0.22650
#
# Static dielectric constant tensor:
#      x y z
#    x 3.788020 0.000000 0.000000 
#    y 0.000000 3.788020 0.000000 
#    z 0.000000 0.000000 3.749580 
# 
# 
# High freq. dielectric constant tensor:
#      x y z
#    x 1.770340 0.000000 0.000000 
#    y 0.000000 1.770340 0.000000 
#    z 0.000000 0.000000 1.787210 
# 
# From -- ./inp_files/11588.got.cif
#   From: 2010.03.12/outbox.cif.g09.slc.cpg/sg142_6_cif.got.tgz:11588.got - 2010.04.03 13:27:16.
