data_PCOD8321212
_publ_section_title
;
Structure prediction by ZEFSAII (Michael W. Deem and Ramdas Pophale) SiO2 
 PCOD8321212
Probable space group: I 41/A C D
;
_chemical_formula_sum "Si O2"
_cell_formula_units_Z 112
_cell_length_a 17.907474
_cell_length_b 17.907474
_cell_length_c 16.222811
_cell_angle_alpha 90.000000
_cell_angle_beta 90.000000
_cell_angle_gamma 90.000000
_cell_volume 5202.292503
_symmetry_space_group_name_H-M "I 41/A C D"
_symmetry_group_IT_number 142
_space_group.IT_coordinate_system_code '2'
_symmetry_cell_setting 'tetragonal'
loop_
_space_group_symop_operation_xyz
x,y,z
1/4-y,3/4+x,1/4+z
-x,1/2-y,z
1/4+y,1/4-x,3/4+z
x,-y,1/2-z
1/2-x,y,-z
3/4+y,1/4+x,1/4-z
1/4-y,1/4-x,1/4-z
-x,-y,-z
3/4+y,1/4-x,3/4-z
x,1/2+y,-z
3/4-y,3/4+x,1/4-z
-x,y,1/2+z
1/2+x,-y,z
1/4-y,3/4-x,3/4+z
3/4+y,3/4+x,3/4+z
1/2+x,1/2+y,1/2+z
3/4-y,1/4+x,3/4+z
1/2-x,-y,1/2+z
3/4+y,3/4-x,1/4+z
1/2+x,1/2-y,-z
-x,1/2+y,1/2-z
1/4+y,3/4+x,3/4-z
3/4-y,3/4-x,3/4-z
1/2-x,1/2-y,1/2-z
1/4+y,3/4-x,1/4-z
1/2+x,y,1/2-z
1/4-y,1/4+x,3/4-z
1/2-x,1/2+y,z
x,1/2-y,1/2+z
3/4-y,1/4-x,1/4+z
1/4+y,1/4+x,1/4+z
loop_
_atom_site_type_symbol
_atom_site_label
_atom_site_fract_x
_atom_site_fract_y
_atom_site_fract_z
Si Si1 0.726738 0.664213 0.237884
Si Si2 0.584435 0.834435 0.625000
Si Si3 0.500133 0.163796 0.721517
Si Si4 0.635312 0.111448 0.616926
O O1 0.750000 0.750000 0.250000
O O2 0.650918 0.665908 0.188550
O O3 0.783985 0.614924 0.183611
O O4 0.709509 0.623545 0.326205
O O5 0.509656 0.838190 0.679775
O O6 0.500000 0.250000 0.691314
O O7 0.563250 0.116451 0.675047
O O8 0.423756 0.121130 0.703498
#
# Coordination Sequence:
#
# PCOD8321212 Si02
#       4
#    32  16  32  32
#     4  11  23  42  69 103 133 188 232 291 354 428
#     4  10  25  38  70  96 136 178 236 281 364 410
#     4  11  18  36  65 100 128 174 228 300 335 407
#     4  11  20  39  69  95 141 174 236 284 358 417
#
# _framework density 21.528969
#
# number of rings (size 3 to 8) (size 9 to 14) (size 15 to 20)
#    0.000    1.143    5.714    2.143    0.000    4.571 
#    0.000    0.000   18.857    0.000    0.000    0.000 
#    0.000    0.000    0.000    0.000    0.000    0.000 
#
# Total GULP energy -694034.113502 kJ/mol
# GULP energy per Si atom -12393.466313 kJ/mol
# Density = 2.147997 g / cm^3
# Si number density = 21.528969 Si / 1000 Ang^3
#
#
#
# Elastic Constant Matrix: (Units=GPa)
#
#
# Indices 1 2 3 4 5 6 
#
# 1 57.2935 18.6382 50.6068 0.0000 0.0000 0.0000
# 2 18.6382 57.2935 50.6068 0.0000 0.0000 0.0000
# 3 50.6068 50.6068 165.1825 0.0000 0.0000 0.0000
# 4 0.0000 0.0000 0.0000 29.7055 0.0000 0.0000
# 5 0.0000 0.0000 0.0000 0.0000 29.7055 0.0000
# 6 0.0000 0.0000 0.0000 0.0000 0.0000 29.5128
#
#
#
# Elastic Compliance Matrix: (Units=1/GPa)
#
#
# Indices 1 2 3 4 5 6 
#
# 1 0.024065 -0.001805 -0.006820 0.000000 0.000000 0.000000
# 2 -0.001805 0.024065 -0.006820 0.000000 0.000000 0.000000
# 3 -0.006820 -0.006820 0.010233 0.000000 0.000000 0.000000
# 4 0.000000 0.000000 0.000000 0.033664 0.000000 0.000000
# 5 0.000000 0.000000 0.000000 0.000000 0.033664 0.000000
# 6 0.000000 0.000000 0.000000 0.000000 0.000000 0.033884
#
#
# Mechanical properties :
#
#
# Convention : Reuss Voigt Hill
#
# Bulk Modulus (GPa) = 36.39823 57.71922 47.05873
# Shear Modulus (GPa) = 25.04750 28.44594 26.74672
#
# Velocity S-wave (km/s) = 3.41461 3.63889 3.52854
# Velocity P-wave (km/s) = 5.69995 6.67260 6.20536
#
# Compressibility (1/GPa) = 0.02747386
#
# Stress axis : x y z
#
# Youngs Moduli (GPa) = 41.55413 41.55413 97.72592
#
# Poissons Ratio (x) = 0.07499 0.66648
# Poissons Ratio (y) = 0.07499 0.66648
# Poissons Ratio (z) = 0.28339 0.28339
#
# Static dielectric constant tensor:
#      x y z
#    x 3.877380 0.000000 0.000000 
#    y 0.000000 3.877380 0.000000 
#    z 0.000000 0.000000 4.331130 
# 
# 
# High freq. dielectric constant tensor:
#      x y z
#    x 1.825970 0.000000 0.000000 
#    y 0.000000 1.825970 0.000000 
#    z 0.000000 0.000000 1.870010 
# 
# From -- ./inp_files/6850.got.cif
#   From: 2010.03.12/outbox.cif.g09.slc.cpg/sg142_4_cif.got.tgz:6850.got - 2010.04.03 13:27:16.
