data_PCOD8321856
_publ_section_title
;
Structure prediction by ZEFSAII (Michael W. Deem and Ramdas Pophale) SiO2 
 PCOD8321856
Probable space group: P 3 1 2
;
_chemical_formula_sum "Si O2"
_cell_formula_units_Z 42
_cell_length_a 8.579793
_cell_length_b 8.579793
_cell_length_c 28.781400
_cell_angle_alpha 90.000000
_cell_angle_beta 90.000000
_cell_angle_gamma 120.000000
_cell_volume 1834.831414
_symmetry_space_group_name_H-M "P 3 1 2"
_symmetry_group_IT_number 149
_symmetry_cell_setting 'hexagonal'
loop_
_space_group_symop_operation_xyz
x,y,z
-y,x-y,z
-x+y,-x,z
-y,-x,-z
-x+y,y,-z
x,x-y,-z
loop_
_atom_site_type_symbol
_atom_site_label
_atom_site_fract_x
_atom_site_fract_y
_atom_site_fract_z
Si Si1 0.315046 0.320929 0.373453
Si Si2 0.637822 0.638161 0.407221
Si Si3 0.310114 0.986896 0.731987
Si Si4 0.655121 0.012761 0.767815
Si Si5 0.896785 0.448393 0.500000
Si Si6 0.988169 0.340353 0.126454
Si Si7 0.302918 0.972810 0.907697
Si Si8 0.217720 0.435440 0.000000
O O1 0.490634 0.518660 0.368518
O O2 0.158469 0.315493 0.405300
O O3 0.243678 0.269348 0.321121
O O4 0.372928 0.189489 0.398311
O O5 0.525599 0.541524 0.454523
O O6 0.139612 0.850785 0.762672
O O7 0.471053 0.944202 0.739206
O O8 0.389012 0.190340 0.747784
O O9 0.631910 0.055916 0.821128
O O10 0.769363 0.538725 0.500000
O O11 0.042799 0.518511 0.096338
O O12 0.158470 0.309552 0.131056
O O13 0.822100 0.177743 0.099676
O O14 0.191308 0.881606 0.955495
O O15 0.435604 0.564397 0.000000
#
# Coordination Sequence:
#
# PCOD8321856 Si02
#       8
#     6   6   6   6   3   6   6   3
#     4  12  24  44  70 103 141 190 240 291 357 422
#     4  12  25  45  73 105 142 184 236 296 355 433
#     4  12  25  43  67 100 143 191 241 295 350 422
#     4  12  25  43  67 100 143 191 241 295 352 417
#     4  10  20  48  72 100 132 172 224 282 362 418
#     4  12  24  44  70 103 141 190 240 293 356 423
#     4  12  25  45  73 105 142 184 236 295 356 431
#     4  10  20  48  72 100 132 172 224 280 358 414
#
# _framework density 22.890387
#
# number of rings (size 3 to 8) (size 9 to 14) (size 15 to 20)
#    0.286    0.000    2.857    7.714    0.000    1.143 
#    0.000    0.000    0.000    0.000    0.000    0.000 
#    0.000    0.000    0.000    0.000    0.000    0.000 
#
# Total GULP energy -520735.038543 kJ/mol
# GULP energy per Si atom -12398.453299 kJ/mol
# Density = 2.283829 g / cm^3
# Si number density = 22.890387 Si / 1000 Ang^3
#
#
#
# Elastic Constant Matrix: (Units=GPa)
#
#
# Indices 1 2 3 4 5 6 
#
# 1 107.9258 20.4038 35.7920 0.0000 -6.3260 0.0000
# 2 20.4038 107.9258 35.7920 0.0000 6.3260 0.0000
# 3 35.7920 35.7920 152.5512 0.0000 0.0000 0.0000
# 4 0.0000 0.0000 0.0000 33.4162 0.0000 6.3260
# 5 -6.3260 6.3260 0.0000 0.0000 33.4162 0.0000
# 6 0.0000 0.0000 0.0000 6.3260 0.0000 43.7610
#
#
#
# Elastic Compliance Matrix: (Units=1/GPa)
#
#
# Indices 1 2 3 4 5 6 
#
# 1 0.010357 -0.001391 -0.002104 0.000000 0.002224 0.000000
# 2 -0.001391 0.010357 -0.002104 0.000000 -0.002224 0.000000
# 3 -0.002104 -0.002104 0.007542 0.000000 0.000000 0.000000
# 4 0.000000 0.000000 0.000000 0.030768 0.000000 -0.004448
# 5 0.002224 -0.002224 0.000000 0.000000 0.030768 0.000000
# 6 0.000000 0.000000 0.000000 -0.004448 0.000000 0.023494
#
#
# Mechanical properties :
#
#
# Convention : Reuss Voigt Hill
#
# Bulk Modulus (GPa) = 58.61799 61.37536 59.99667
# Shear Modulus (GPa) = 38.41215 40.54634 39.47924
#
# Velocity S-wave (km/s) = 4.10089 4.21328 4.15747
# Velocity P-wave (km/s) = 6.93447 7.10914 7.02235
#
# Compressibility (1/GPa) = 0.01705961
#
# Stress axis : x y z
#
# Youngs Moduli (GPa) = 96.55760 96.55760 132.58598
#
# Poissons Ratio (x) = 0.13428 0.27891
# Poissons Ratio (y) = 0.13428 0.27891
# Poissons Ratio (z) = 0.20312 0.20312
#
# Static dielectric constant tensor:
#      x y z
#    x 3.946200 0.000000 0.000000 
#    y 0.000000 3.946200 0.000000 
#    z 0.000000 0.000000 4.064010 
# 
# 
# High freq. dielectric constant tensor:
#      x y z
#    x 1.902290 0.000000 0.000000 
#    y 0.000000 1.902290 0.000000 
#    z 0.000000 0.000000 1.908420 
# 
# From -- ./inp_files/1176.got.cif
#   From: 2010.03.12/outbox.cif.g09.slc.cpg/sg149_cif.got.tgz:1176.got - 2010.04.03 13:40:41.
