data_PCOD8321661
_publ_section_title
;
Structure prediction by ZEFSAII (Michael W. Deem and Ramdas Pophale) SiO2 
 PCOD8321661
Probable space group: P -3
;
_chemical_formula_sum "Si O2"
_cell_formula_units_Z 30
_cell_length_a 13.138667
_cell_length_b 13.138667
_cell_length_c 10.170508
_cell_angle_alpha 90.000000
_cell_angle_beta 90.000000
_cell_angle_gamma 120.000000
_cell_volume 1520.463113
_symmetry_space_group_name_H-M "P -3"
_symmetry_group_IT_number 147
_symmetry_cell_setting 'hexagonal'
loop_
_space_group_symop_operation_xyz
x,y,z
-y,x-y,z
-x+y,-x,z
-x,-y,-z
y,-x+y,-z
x-y,x,-z
loop_
_atom_site_type_symbol
_atom_site_label
_atom_site_fract_x
_atom_site_fract_y
_atom_site_fract_z
Si Si1 0.524481 0.876677 0.146680
Si Si2 0.647805 0.524481 0.146681
Si Si3 0.277862 0.192708 0.500000
Si Si4 0.429765 0.314699 0.754395
Si Si5 0.429767 0.314700 0.245607
O O1 0.550734 0.772230 0.155328
O O2 0.430891 0.870143 0.256490
O O3 0.648527 0.994462 0.170370
O O4 0.476969 0.877363 1.000000
O O5 0.654067 0.648528 0.170369
O O6 0.560749 0.430893 0.256493
O O7 0.778503 0.550729 0.155328
O O8 0.171671 0.222432 0.499997
O O9 0.367229 0.252033 0.619958
O O10 0.367230 0.252029 0.380042
#
# Coordination Sequence:
#
# PCOD8321661 Si02
#       5
#     6   6   6   6   6
#     4  11  22  40  64  97 132 165 213 269 329 392
#     4  11  22  40  64  97 132 165 213 269 329 392
#     4  12  25  47  69  93 131 170 224 274 320 381
#     4  11  23  39  66  92 129 176 212 263 326 384
#     4  11  23  39  66  92 129 176 212 263 326 384
#
# _framework density 19.730827999999999
#
# number of rings (size 3 to 8) (size 9 to 14) (size 15 to 20)
#    0.000    0.800    4.000    5.800    0.000    4.800 
#    0.000    0.000    0.000    0.000    0.000    5.600 
#    0.000    0.000    0.000    0.000    0.000    0.000 
#
# Total GULP energy -371662.530756 kJ/mol
# GULP energy per Si atom -12388.751025 kJ/mol
# Density = 1.968592 g / cm^3
# Si number density = 19.730828 Si / 1000 Ang^3
#
#
#
# Elastic Constant Matrix: (Units=GPa)
#
#
# Indices 1 2 3 4 5 6 
#
# 1 114.8581 43.1819 33.7541 0.0004 0.0004 0.0000
# 2 43.1819 114.8581 33.7541 -0.0004 -0.0004 0.0000
# 3 33.7541 33.7541 102.5481 0.0000 0.0000 0.0000
# 4 0.0004 -0.0004 0.0000 27.1271 0.0000 -0.0004
# 5 0.0004 -0.0004 0.0000 0.0000 27.1271 0.0004
# 6 0.0000 0.0000 0.0000 -0.0004 0.0004 35.8381
#
#
#
# Elastic Compliance Matrix: (Units=1/GPa)
#
#
# Indices 1 2 3 4 5 6 
#
# 1 0.010657 -0.003294 -0.002423 0.000000 0.000000 0.000000
# 2 -0.003294 0.010657 -0.002423 0.000000 0.000000 0.000000
# 3 -0.002423 -0.002423 0.011347 0.000000 0.000000 0.000000
# 4 0.000000 0.000000 0.000000 0.036863 0.000000 0.000000
# 5 0.000000 0.000000 0.000000 0.000000 0.036863 0.000000
# 6 0.000000 0.000000 0.000000 0.000000 0.000000 0.027903
#
#
# Mechanical properties :
#
#
# Convention : Reuss Voigt Hill
#
# Bulk Modulus (GPa) = 61.05572 61.51604 61.28588
# Shear Modulus (GPa) = 32.04435 32.79008 32.41722
#
# Velocity S-wave (km/s) = 4.03435 4.08103 4.05776
# Velocity P-wave (km/s) = 7.26036 7.31107 7.28576
#
# Compressibility (1/GPa) = 0.01637848
#
# Stress axis : x y z
#
# Youngs Moduli (GPa) = 93.83348 93.83348 88.12979
#
# Poissons Ratio (x) = 0.30913 0.21358
# Poissons Ratio (y) = 0.30913 0.21358
# Poissons Ratio (z) = 0.22740 0.22740
#
# Static dielectric constant tensor:
#      x y z
#    x 3.792350 0.000000 0.000000 
#    y 0.000000 3.792350 0.000000 
#    z 0.000000 0.000000 3.464550 
# 
# 
# High freq. dielectric constant tensor:
#      x y z
#    x 1.783090 0.000000 0.000000 
#    y 0.000000 1.783090 0.000000 
#    z 0.000000 0.000000 1.756890 
# 
# From -- ./inp_files/493.got.cif
#   From: 2010.03.12/outbox.cif.g09.slc.cpg/sg147_cif.got.tgz:493.got - 2010.04.03 13:37:56.
