data_PCOD8321747
_publ_section_title
;
Structure prediction by ZEFSAII (Michael W. Deem and Ramdas Pophale) SiO2 
 PCOD8321747
Probable space group: R -3
;
_chemical_formula_sum "Si O2"
_cell_formula_units_Z 126
_cell_length_a 18.752072
_cell_length_b 18.752072
_cell_length_c 17.914510
_cell_angle_alpha 90.000000
_cell_angle_beta 90.000000
_cell_angle_gamma 120.000000
_cell_volume 5455.494084
_symmetry_space_group_name_H-M "R -3"
_symmetry_group_IT_number 148
_symmetry_cell_setting 'hexagonal'
loop_
_space_group_symop_operation_xyz
x,y,z
-y,x-y,z
-x+y,-x,z
-x,-y,-z
y,-x+y,-z
x-y,x,-z
2/3+x,1/3+y,1/3+z
2/3-y,1/3+x-y,1/3+z
2/3-x+y,1/3-x,1/3+z
2/3-x,1/3-y,1/3-z
2/3+y,1/3-x+y,1/3-z
2/3+x-y,1/3+x,1/3-z
1/3+x,2/3+y,2/3+z
1/3-y,2/3+x-y,2/3+z
1/3-x+y,2/3-x,2/3+z
1/3-x,2/3-y,2/3-z
1/3+y,2/3-x+y,2/3-z
1/3+x-y,2/3+x,2/3-z
loop_
_atom_site_type_symbol
_atom_site_label
_atom_site_fract_x
_atom_site_fract_y
_atom_site_fract_z
Si Si1 0.763106 0.602453 0.614101
Si Si2 0.856531 0.037011 0.423189
Si Si3 0.945257 0.309594 0.477132
Si Si4 0.299507 0.864674 0.497178
Si Si5 0.468630 0.921141 0.549622
Si Si6 0.838808 0.677575 0.955898
Si Si7 0.366586 0.836546 0.079702
O O1 0.833334 0.666667 0.666667
O O2 0.728039 0.647256 0.560486
O O3 0.799302 0.554467 0.566076
O O4 0.688711 0.543309 0.670404
O O5 0.827265 0.085476 0.367950
O O6 0.824590 0.041664 0.507827
O O7 0.955951 0.079324 0.424390
O O8 0.824879 0.945388 0.396306
O O9 0.893439 0.356212 0.456750
O O10 0.915008 0.235034 0.417746
O O11 0.042516 0.369830 0.470347
O O12 0.378953 0.854764 0.516740
O O13 0.248441 0.842793 0.572856
O O14 0.458038 0.944828 0.633227
O O15 0.500000 0.000000 0.500000
#
# Coordination Sequence:
#
# PCOD8321747 Si02
#       7
#    18  18  18  18  18  18  18
#     4  11  25  39  63  95 129 163 209 268 323 397
#     4  10  23  37  61  89 127 176 223 267 329 396
#     4  10  24  41  63  93 129 166 215 269 333 393
#     4  10  24  41  63  93 129 166 215 269 333 393
#     4  10  23  40  61  87 120 166 211 267 328 391
#     4  11  23  39  63  92 124 172 217 278 327 395
#     4  10  22  39  57  87 126 172 218 262 326 398
#
# _framework density 23.095984000000001
#
# number of rings (size 3 to 8) (size 9 to 14) (size 15 to 20)
#    0.000    1.714    0.000    2.857   16.000    1.143 
#    0.000    0.000    0.000    4.571    0.000    8.000 
#    0.000    0.000    0.000    0.000    0.000    0.000 
#
# Total GULP energy -520633.887956 kJ/mol
# GULP energy per Si atom -12396.044951 kJ/mol
# Density = 2.304342 g / cm^3
# Si number density = 23.095984 Si / 1000 Ang^3
#
#
#
# Elastic Constant Matrix: (Units=GPa)
#
#
# Indices 1 2 3 4 5 6 
#
# 1 37.2185 -27.2152 7.4934 5.0230 -0.8934 0.0000
# 2 -27.2152 37.2185 7.4934 -5.0230 0.8934 0.0000
# 3 7.4934 7.4934 117.6790 0.0000 0.0000 0.0000
# 4 5.0230 -5.0230 0.0000 30.2587 0.0000 0.8934
# 5 -0.8934 0.8934 0.0000 0.0000 30.2587 5.0230
# 6 0.0000 0.0000 0.0000 0.8934 5.0230 32.2168
#
#
#
# Elastic Compliance Matrix: (Units=1/GPa)
#
#
# Indices 1 2 3 4 5 6 
#
# 1 0.063228 0.047282 -0.007037 -0.002647 0.000471 0.000000
# 2 0.047282 0.063228 -0.007037 0.002647 -0.000471 0.000000
# 3 -0.007037 -0.007037 0.009394 0.000000 0.000000 0.000000
# 4 -0.002647 0.002647 0.000000 0.033955 0.000000 -0.000942
# 5 0.000471 -0.000471 0.000000 0.000000 0.033955 -0.005294
# 6 0.000000 0.000000 0.000000 -0.000942 -0.005294 0.031891
#
#
# Mechanical properties :
#
#
# Convention : Reuss Voigt Hill
#
# Bulk Modulus (GPa) = 4.94397 18.62877 11.78637
# Shear Modulus (GPa) = 21.12772 32.16979 26.64876
#
# Velocity S-wave (km/s) = 3.02781 3.73617 3.40049
# Velocity P-wave (km/s) = 3.79062 5.16675 4.53123
#
# Compressibility (1/GPa) = 0.20226640
#
# Stress axis : x y z
#
# Youngs Moduli (GPa) = 15.81583 15.81583 106.45255
#
# Poissons Ratio (x) = -0.74781 0.74909
# Poissons Ratio (y) = -0.74781 0.74909
# Poissons Ratio (z) = 0.11129 0.11129
#
# Static dielectric constant tensor:
#      x y z
#    x 4.521620 0.000000 0.000000 
#    y 0.000000 4.521620 0.000000 
#    z 0.000000 0.000000 6.754460 
# 
# 
# High freq. dielectric constant tensor:
#      x y z
#    x 1.902980 0.000000 0.000000 
#    y 0.000000 1.902980 0.000000 
#    z 0.000000 0.000000 1.919090 
# 
# From -- ./inp_files/2748.got.cif
#   From: 2010.03.12/outbox.cif.g09.slc.cpg/sg148_2_cif.got.tgz:2748.got - 2010.04.03 13:38:46.
