data_PCOD8321561
_publ_section_title
;
Structure prediction by ZEFSAII (Michael W. Deem and Ramdas Pophale) SiO2 
 PCOD8321561
Probable space group: R 3
;
_chemical_formula_sum "Si O2"
_cell_formula_units_Z 60
_cell_length_a 20.736712
_cell_length_b 20.736712
_cell_length_c 8.700702
_cell_angle_alpha 90.000000
_cell_angle_beta 90.000000
_cell_angle_gamma 120.000000
_cell_volume 3240.147031
_symmetry_space_group_name_H-M "R 3"
_symmetry_group_IT_number 146
_symmetry_cell_setting 'hexagonal'
loop_
_space_group_symop_operation_xyz
x,y,z
-y,x-y,z
-x+y,-x,z
2/3+x,1/3+y,1/3+z
2/3-y,1/3+x-y,1/3+z
2/3-x+y,1/3-x,1/3+z
1/3+x,2/3+y,2/3+z
1/3-y,2/3+x-y,2/3+z
1/3-x+y,2/3-x,2/3+z
loop_
_atom_site_type_symbol
_atom_site_label
_atom_site_fract_x
_atom_site_fract_y
_atom_site_fract_z
Si Si1 0.333334 0.666667 0.673126
Si Si2 0.119950 0.129531 0.442967
Si Si3 0.845725 0.890161 0.169510
Si Si4 0.847609 0.634130 0.382195
Si Si5 0.762377 0.024958 0.611354
Si Si6 0.436888 0.369243 0.275243
Si Si7 0.887770 0.113486 0.208665
Si Si8 0.333334 0.666667 0.302927
O O1 0.248346 0.618035 0.734122
O O2 0.333334 0.666667 0.487784
O O3 0.062116 0.144545 0.346958
O O4 0.182756 0.202166 0.529299
O O5 0.161696 0.106192 0.320445
O O6 0.077233 0.067033 0.571807
O O7 0.764416 0.869855 0.115639
O O8 0.836746 0.808644 0.152301
O O9 0.909842 0.673495 0.512586
O O10 0.876837 0.595840 0.263775
O O11 0.835556 0.696169 0.295492
O O12 0.802924 0.064959 0.771367
O O13 0.679097 0.963717 0.654718
O O14 0.501905 0.404758 0.399261
#
# Coordination Sequence:
#
# PCOD8321561 Si02
#       8
#     3   9   9   9   9   9   9   3
#     4  12  25  35  70  99 121 158 211 267 310 380
#     4  11  22  39  61  88 124 165 200 254 320 375
#     4  12  22  43  65  87 124 171 212 249 319 378
#     4  11  22  39  63  90 121 168 205 254 316 380
#     4  11  23  35  61  96 123 155 203 263 322 366
#     4  12  20  36  61  95 126 149 204 260 317 368
#     4  11  23  39  64  89 121 172 206 253 315 378
#     4  12  25  38  55  96 130 152 205 264 313 371
#
# _framework density 18.517679000000001
#
# number of rings (size 3 to 8) (size 9 to 14) (size 15 to 20)
#    0.000    0.600    7.500    0.900    4.200    0.000 
#    0.000    0.000    6.600    0.000    0.000    0.000 
#    0.000    0.000    0.000    0.000    0.000    0.000 
#
# Total GULP energy -247914.879834 kJ/mol
# GULP energy per Si atom -12395.743992 kJ/mol
# Density = 1.847553 g / cm^3
# Si number density = 18.517679 Si / 1000 Ang^3
#
#
#
# Elastic Constant Matrix: (Units=GPa)
#
#
# Indices 1 2 3 4 5 6 
#
# 1 107.1930 49.7471 41.4826 2.9994 3.0751 0.0011
# 2 49.7471 107.1929 41.4733 -3.0009 -3.0884 0.0026
# 3 41.4826 41.4733 119.5498 -0.0107 -0.0315 -0.0011
# 4 2.9994 -3.0009 -0.0107 26.5374 -0.0079 -3.0812
# 5 3.0751 -3.0884 -0.0315 -0.0079 26.5253 2.9989
# 6 0.0011 0.0026 -0.0011 -3.0812 2.9989 28.7241
#
#
#
# Elastic Compliance Matrix: (Units=1/GPa)
#
#
# Indices 1 2 3 4 5 6 
#
# 1 0.012823 -0.005019 -0.002709 -0.002019 -0.002075 0.000000
# 2 -0.005019 0.012821 -0.002706 0.002017 0.002072 -0.000001
# 3 -0.002709 -0.002706 0.010243 0.000004 0.000011 0.000000
# 4 -0.002019 0.002017 0.000004 0.038620 0.000012 0.004141
# 5 -0.002075 0.002072 0.000011 0.000012 0.038638 -0.004033
# 6 0.000000 -0.000001 0.000000 0.004141 -0.004033 0.035679
#
#
# Mechanical properties :
#
#
# Convention : Reuss Voigt Hill
#
# Bulk Modulus (GPa) = 66.57738 66.59352 66.58545
# Shear Modulus (GPa) = 28.62097 29.77289 29.19693
#
# Velocity S-wave (km/s) = 3.93568 4.01410 3.97508
# Velocity P-wave (km/s) = 7.52889 7.58447 7.55673
#
# Compressibility (1/GPa) = 0.01502012
#
# Stress axis : x y z
#
# Youngs Moduli (GPa) = 77.98766 77.99588 97.62526
#
# Poissons Ratio (x) = 0.39146 0.26445
# Poissons Ratio (y) = 0.39142 0.26413
# Poissons Ratio (z) = 0.21126 0.21102
#
# Static dielectric constant tensor:
#      x y z
#    x 3.432700 0.000000 -0.000020 
#    y 0.000000 3.432710 0.000000 
#    z -0.000020 0.000000 3.597140 
# 
# 
# High freq. dielectric constant tensor:
#      x y z
#    x 1.709200 0.000000 0.000000 
#    y 0.000000 1.709200 0.000000 
#    z 0.000000 0.000000 1.731660 
# 
# From -- ./inp_files/852.got.cif
#   From: 2010.06.25/outbox.cif.g09.slc.cpg/sg146_cif.got.tgz:852.got - 2010.06.28 11:17:22.
