data_PCOD8321543
_publ_section_title
;
Structure prediction by ZEFSAII (Michael W. Deem and Ramdas Pophale) SiO2 
 PCOD8321543
Probable space group: R 3
;
_chemical_formula_sum "Si O2"
_cell_formula_units_Z 63
_cell_length_a 16.816638
_cell_length_b 16.816638
_cell_length_c 11.111374
_cell_angle_alpha 90.000000
_cell_angle_beta 90.000000
_cell_angle_gamma 120.000000
_cell_volume 2721.302049
_symmetry_space_group_name_H-M "R 3"
_symmetry_group_IT_number 146
_symmetry_cell_setting 'hexagonal'
loop_
_space_group_symop_operation_xyz
x,y,z
-y,x-y,z
-x+y,-x,z
2/3+x,1/3+y,1/3+z
2/3-y,1/3+x-y,1/3+z
2/3-x+y,1/3-x,1/3+z
1/3+x,2/3+y,2/3+z
1/3-y,2/3+x-y,2/3+z
1/3-x+y,2/3-x,2/3+z
loop_
_atom_site_type_symbol
_atom_site_label
_atom_site_fract_x
_atom_site_fract_y
_atom_site_fract_z
Si Si1 0.705922 0.257012 0.327870
Si Si2 0.244745 0.864390 0.243646
Si Si3 0.209434 0.306603 0.426249
Si Si4 0.191831 0.000445 0.150031
Si Si5 0.391765 0.269729 0.180414
Si Si6 0.774595 0.648299 0.982491
Si Si7 0.522021 0.418509 0.676347
O O1 0.770196 0.370046 0.328165
O O2 0.757227 0.246592 0.445525
O O3 0.709601 0.203063 0.212700
O O4 0.153283 0.787829 0.310369
O O5 0.336463 0.897420 0.323651
O O6 0.248002 0.818219 0.118273
O O7 0.241092 0.957872 0.228334
O O8 0.308384 0.357076 0.489814
O O9 0.135152 0.312493 0.511402
O O10 0.180595 0.201746 0.388339
O O11 0.255385 0.042514 0.029856
O O12 0.179274 0.074458 0.231226
O O13 0.366646 0.212266 0.060178
O O14 0.329963 0.218797 0.295321
#
# Coordination Sequence:
#
# PCOD8321543 Si02
#       7
#     9   9   9   9   9   9   9
#     4  10  24  38  64  96 127 174 220 279 340 400
#     4  12  25  42  70  99 136 180 226 288 344 407
#     4  12  26  43  70  99 139 181 228 282 345 411
#     4  11  23  43  69  98 134 174 231 285 338 413
#     4  11  23  44  67  98 134 178 231 281 337 413
#     4  11  25  41  69 100 132 177 225 284 339 407
#     4  11  24  43  69 100 134 178 229 285 345 405
#
# _framework density 23.150682
#
# number of rings (size 3 to 8) (size 9 to 14) (size 15 to 20)
#    0.286    0.571    1.429    6.000    8.000    2.286 
#    0.000    0.000    0.000    2.286    0.000    0.000 
#    0.000    0.000    0.000    0.000    0.000    0.000 
#
# Total GULP energy -260188.936068 kJ/mol
# GULP energy per Si atom -12389.949337 kJ/mol
# Density = 2.309799 g / cm^3
# Si number density = 23.150682 Si / 1000 Ang^3
#
#
#
# Elastic Constant Matrix: (Units=GPa)
#
#
# Indices 1 2 3 4 5 6 
#
# 1 69.9643 -2.5026 13.5773 4.6204 3.6698 0.0000
# 2 -2.5026 69.9643 13.5773 -4.6204 -3.6698 0.0000
# 3 13.5773 13.5773 82.9400 0.0000 0.0000 0.0000
# 4 4.6204 -4.6204 0.0000 36.7690 0.0000 -3.6698
# 5 3.6698 -3.6698 0.0000 0.0000 36.7690 4.6204
# 6 0.0000 0.0000 0.0000 -3.6698 4.6204 36.2335
#
#
#
# Elastic Compliance Matrix: (Units=1/GPa)
#
#
# Indices 1 2 3 4 5 6 
#
# 1 0.015019 0.000850 -0.002598 -0.001781 -0.001414 0.000000
# 2 0.000850 0.015019 -0.002598 0.001781 0.001414 0.000000
# 3 -0.002598 -0.002598 0.012907 0.000000 0.000000 0.000000
# 4 -0.001781 0.001781 0.000000 0.027927 0.000000 0.002828
# 5 -0.001414 0.001414 0.000000 0.000000 0.027927 -0.003561
# 6 0.000000 0.000000 0.000000 0.002828 -0.003561 0.028339
#
#
# Mechanical properties :
#
#
# Convention : Reuss Voigt Hill
#
# Bulk Modulus (GPa) = 29.19353 30.24141 29.71747
# Shear Modulus (GPa) = 33.95621 35.16872 34.56246
#
# Velocity S-wave (km/s) = 3.83397 3.90182 3.86804
# Velocity P-wave (km/s) = 5.67774 5.77842 5.72830
#
# Compressibility (1/GPa) = 0.03425417
#
# Stress axis : x y z
#
# Youngs Moduli (GPa) = 66.58112 66.58112 77.47482
#
# Poissons Ratio (x) = -0.05657 0.20126
# Poissons Ratio (y) = -0.05657 0.20126
# Poissons Ratio (z) = 0.17296 0.17296
#
# Static dielectric constant tensor:
#      x y z
#    x 4.083050 0.000000 0.000000 
#    y 0.000000 4.083050 0.000000 
#    z 0.000000 0.000000 4.072390 
# 
# 
# High freq. dielectric constant tensor:
#      x y z
#    x 1.912570 0.000000 0.000000 
#    y 0.000000 1.912570 0.000000 
#    z 0.000000 0.000000 1.917260 
# 
# From -- ./inp_files/1211.got.cif
#   From: 2010.06.25/outbox.cif.g09.slc.cpg/sg146_cif.got.tgz:1211.got - 2010.06.28 11:17:22.
