data_PCOD8321231
_publ_section_title
;
Structure prediction by ZEFSAII (Michael W. Deem and Ramdas Pophale) SiO2 
 PCOD8321231
Probable space group: I 41/A C D
;
_chemical_formula_sum "Si O2"
_cell_formula_units_Z 160
_cell_length_a 23.236721
_cell_length_b 23.236721
_cell_length_c 14.916965
_cell_angle_alpha 90.000000
_cell_angle_beta 90.000000
_cell_angle_gamma 90.000000
_cell_volume 8054.343693
_symmetry_space_group_name_H-M "I 41/A C D"
_symmetry_group_IT_number 142
_space_group.IT_coordinate_system_code '2'
_symmetry_cell_setting 'tetragonal'
loop_
_space_group_symop_operation_xyz
x,y,z
1/4-y,3/4+x,1/4+z
-x,1/2-y,z
1/4+y,1/4-x,3/4+z
x,-y,1/2-z
1/2-x,y,-z
3/4+y,1/4+x,1/4-z
1/4-y,1/4-x,1/4-z
-x,-y,-z
3/4+y,1/4-x,3/4-z
x,1/2+y,-z
3/4-y,3/4+x,1/4-z
-x,y,1/2+z
1/2+x,-y,z
1/4-y,3/4-x,3/4+z
3/4+y,3/4+x,3/4+z
1/2+x,1/2+y,1/2+z
3/4-y,1/4+x,3/4+z
1/2-x,-y,1/2+z
3/4+y,3/4-x,1/4+z
1/2+x,1/2-y,-z
-x,1/2+y,1/2-z
1/4+y,3/4+x,3/4-z
3/4-y,3/4-x,3/4-z
1/2-x,1/2-y,1/2-z
1/4+y,3/4-x,1/4-z
1/2+x,y,1/2-z
1/4-y,1/4+x,3/4-z
1/2-x,1/2+y,z
x,1/2-y,1/2+z
3/4-y,1/4-x,1/4+z
1/4+y,1/4+x,1/4+z
loop_
_atom_site_type_symbol
_atom_site_label
_atom_site_fract_x
_atom_site_fract_y
_atom_site_fract_z
Si Si1 0.197161 0.533807 0.663330
Si Si2 0.365893 0.318960 0.799681
Si Si3 0.937451 0.616592 0.446151
Si Si4 0.932043 0.186482 0.875251
Si Si5 0.887110 0.500342 0.488607
O O1 0.173043 0.500000 0.750000
O O2 0.253953 0.503953 0.625000
O O3 0.148513 0.533360 0.587545
O O4 0.215496 0.597868 0.690150
O O5 0.387807 0.362194 0.875000
O O6 0.380883 0.253562 0.827202
O O7 0.396853 0.336133 0.707697
O O8 0.297129 0.325226 0.790044
O O9 0.895803 0.645803 0.375000
O O10 0.920664 0.640774 0.543333
O O11 0.928404 0.547821 0.443507
O O12 0.924154 0.252590 0.904872
#
# Coordination Sequence:
#
# PCOD8321231 Si02
#       5
#    32  32  32  32  32
#     4   9  18  33  55  79 108 152 195 232 279 337
#     4  11  23  38  58  86 118 151 188 236 289 340
#     4  11  22  38  61  86 114 150 193 237 284 340
#     4   9  19  37  60  85 115 153 194 234 281 339
#     4  11  21  36  56  82 115 149 191 238 285 338
#
# _framework density 19.865057
#
# number of rings (size 3 to 8) (size 9 to 14) (size 15 to 20)
#    0.000    1.800    0.000    5.400    0.000    2.000 
#    0.000    3.000    0.000   12.000    0.000    0.000 
#    0.000    0.000    0.000    0.000    0.000    0.000 
#
# Total GULP energy -992302.385769 kJ/mol
# GULP energy per Si atom -12403.779822 kJ/mol
# Density = 1.981984 g / cm^3
# Si number density = 19.865057 Si / 1000 Ang^3
#
#
#
# Elastic Constant Matrix: (Units=GPa)
#
#
# Indices 1 2 3 4 5 6 
#
# 1 96.6910 36.6919 47.1731 0.0000 0.0000 0.0000
# 2 36.6919 96.6909 47.1718 0.0000 0.0000 0.0000
# 3 47.1731 47.1718 87.5454 0.0000 0.0000 0.0000
# 4 0.0000 0.0000 0.0000 27.1744 0.0000 0.0000
# 5 0.0000 0.0000 0.0000 0.0000 27.1745 0.0000
# 6 0.0000 0.0000 0.0000 0.0000 0.0000 22.7389
#
#
#
# Elastic Compliance Matrix: (Units=1/GPa)
#
#
# Indices 1 2 3 4 5 6 
#
# 1 0.014391 -0.002276 -0.006528 0.000000 0.000000 0.000000
# 2 -0.002276 0.014391 -0.006527 0.000000 0.000000 0.000000
# 3 -0.006528 -0.006527 0.018457 0.000000 0.000000 0.000000
# 4 0.000000 0.000000 0.000000 0.036799 0.000000 0.000000
# 5 0.000000 0.000000 0.000000 0.000000 0.036799 0.000000
# 6 0.000000 0.000000 0.000000 0.000000 0.000000 0.043978
#
#
# Mechanical properties :
#
#
# Convention : Reuss Voigt Hill
#
# Bulk Modulus (GPa) = 60.33012 60.33342 60.33177
# Shear Modulus (GPa) = 24.87527 25.41027 25.14277
#
# Velocity S-wave (km/s) = 3.54250 3.58039 3.56150
# Velocity P-wave (km/s) = 6.86792 6.89419 6.88107
#
# Compressibility (1/GPa) = 0.01657547
#
# Stress axis : x y z
#
# Youngs Moduli (GPa) = 69.48897 69.49025 54.17917
#
# Poissons Ratio (x) = 0.15818 0.35367
# Poissons Ratio (y) = 0.15818 0.35365
# Poissons Ratio (z) = 0.45361 0.45359
#
# Static dielectric constant tensor:
#      x y z
#    x 3.535770 0.000000 0.000000 
#    y 0.000000 3.535770 0.000000 
#    z 0.000000 0.000000 3.941620 
# 
# 
# High freq. dielectric constant tensor:
#      x y z
#    x 1.775400 0.000000 0.000000 
#    y 0.000000 1.775400 0.000000 
#    z 0.000000 0.000000 1.771690 
# 
# From -- ./inp_files/5412.got.cif
#   From: 2010.03.12/outbox.cif.g09.slc.cpg/sg142_3_cif.got.tgz:5412.got - 2010.04.03 13:27:16.
