data_PCOD8321943
_publ_section_title
;
Structure prediction by ZEFSAII (Michael W. Deem and Ramdas Pophale) SiO2 
 PCOD8321943
Probable space group: P 31 1 2
;
_chemical_formula_sum "Si O2"
_cell_formula_units_Z 30
_cell_length_a 23.345620
_cell_length_b 23.345620
_cell_length_c 5.127869
_cell_angle_alpha 90.000000
_cell_angle_beta 90.000000
_cell_angle_gamma 120.000000
_cell_volume 2420.351144
_symmetry_space_group_name_H-M "P 31 1 2"
_symmetry_group_IT_number 151
_symmetry_cell_setting 'hexagonal'
loop_
_space_group_symop_operation_xyz
x,y,z
-y,x-y,1/3+z
-x+y,-x,2/3+z
-y,-x,2/3-z
-x+y,y,1/3-z
x,x-y,-z
loop_
_atom_site_type_symbol
_atom_site_label
_atom_site_fract_x
_atom_site_fract_y
_atom_site_fract_z
Si Si1 0.685718 0.239249 0.593738
Si Si2 0.611650 0.088351 0.638340
Si Si3 0.576121 0.560064 0.860267
Si Si4 0.133016 0.498670 0.531647
Si Si5 0.206612 0.670920 0.960438
O O1 0.719851 0.280150 0.333334
O O2 0.624132 0.248263 0.666667
O O3 0.664487 0.162960 0.558432
O O4 0.735922 0.264079 0.833334
O O5 0.539893 0.079786 0.666667
O O6 0.614257 0.041330 0.413737
O O7 0.625155 0.064196 0.914436
O O8 0.510121 0.489880 0.833334
O O9 0.558531 0.617007 0.926309
O O10 0.137616 0.568808 0.500000
O O11 0.153232 0.485429 0.247864
O O12 0.183159 0.499855 0.756680
O O13 0.275921 0.724080 0.833334
O O14 0.209254 0.604627 0.000000
#
# Coordination Sequence:
#
# PCOD8321943 Si02
#       5
#     6   6   6   6   6
#     4  11  20  29  38  50  68  90 111 129 153 191
#     4   9  17  26  38  52  64  80 102 129 160 188
#     4   9  15  26  40  52  64  76  98 133 164 188
#     4   9  17  27  39  52  64  81 104 130 160 188
#     4  10  19  28  37  50  68  89 109 127 151 189
#
# _framework density 12.394894000000001
#
# number of rings (size 3 to 8) (size 9 to 14) (size 15 to 20)
#    0.000    2.400    0.000    4.200    0.000   10.400 
#    0.000    0.000    0.000    0.000    0.000    0.000 
#    0.000    0.000    0.000    0.000    0.000    0.000 
#
# Total GULP energy -371644.291465 kJ/mol
# GULP energy per Si atom -12388.143049 kJ/mol
# Density = 1.236668 g / cm^3
# Si number density = 12.394894 Si / 1000 Ang^3
#
#
#
# Elastic Constant Matrix: (Units=GPa)
#
#
# Indices 1 2 3 4 5 6 
#
# 1 27.9398 27.2304 31.0467 0.0010 -4.4216 0.0000
# 2 27.2304 27.9398 31.0467 -0.0010 4.4216 0.0000
# 3 31.0467 31.0467 111.2090 0.0000 0.0000 0.0000
# 4 0.0010 -0.0010 0.0000 11.5544 0.0000 4.4216
# 5 -4.4216 4.4216 0.0000 0.0000 11.5544 0.0010
# 6 0.0000 0.0000 0.0000 4.4216 0.0010 0.3547
#
#
#
# Elastic Compliance Matrix: (Units=1/GPa)
#
#
# Indices 1 2 3 4 5 6 
#
# 1 -0.173723 0.200153 -0.007379 0.000031 -0.143074 0.000000
# 2 0.200153 -0.173723 -0.007379 -0.000031 0.143074 0.000000
# 3 -0.007379 -0.007379 0.013112 0.000000 0.000000 0.000000
# 4 0.000031 -0.000031 0.000000 -0.022955 0.000000 0.286148
# 5 -0.143074 0.143074 0.000000 0.000000 -0.022955 0.000062
# 6 0.000000 0.000000 0.000000 0.286148 0.000062 -0.747752
#
#
# Mechanical properties :
#
#
# Convention : Reuss Voigt Hill
#
# Bulk Modulus (GPa) = 27.42888 38.41512 32.92200
# Shear Modulus (GPa) = -3.36330 9.87704 3.25687
#
# Velocity S-wave (km/s) = -1.64904 2.82594 1.62274
# Velocity P-wave (km/s) = 4.30714 6.45816 5.48905
#
# Compressibility (1/GPa) = 0.03645792
#
# Stress axis : x y z
#
# Youngs Moduli (GPa) = -5.75630 -5.75630 76.26643
#
# Poissons Ratio (x) = 1.15214 0.56274
# Poissons Ratio (y) = 1.15214 0.56274
# Poissons Ratio (z) = -0.04247 -0.04247
#
# Static dielectric constant tensor:
#      x y z
#    x 2.360990 0.000000 0.000000 
#    y 0.000000 2.360990 0.000000 
#    z 0.000000 0.000000 2.943670 
# 
# 
# High freq. dielectric constant tensor:
#      x y z
#    x 1.425420 0.000000 0.000000 
#    y 0.000000 1.425420 0.000000 
#    z 0.000000 0.000000 1.501330 
# 
# From -- ./inp_files/562.got.cif
#   From: 2010.03.12/outbox.cif.g09.slc.cpg/sg151_1_cif.got.tgz:562.got - 2010.04.03 13:42:29.
