data_PCOD8321036
_publ_section_title
;
Structure prediction by ZEFSAII (Michael W. Deem and Ramdas Pophale) SiO2 
 PCOD8321036
Probable space group: I 41/A C D
;
_chemical_formula_sum "Si O2"
_cell_formula_units_Z 160
_cell_length_a 16.653308
_cell_length_b 16.653308
_cell_length_c 27.708936
_cell_angle_alpha 90.000000
_cell_angle_beta 90.000000
_cell_angle_gamma 90.000000
_cell_volume 7684.593130
_symmetry_space_group_name_H-M "I 41/A C D"
_symmetry_group_IT_number 142
_space_group.IT_coordinate_system_code '2'
_symmetry_cell_setting 'tetragonal'
loop_
_space_group_symop_operation_xyz
x,y,z
1/4-y,3/4+x,1/4+z
-x,1/2-y,z
1/4+y,1/4-x,3/4+z
x,-y,1/2-z
1/2-x,y,-z
3/4+y,1/4+x,1/4-z
1/4-y,1/4-x,1/4-z
-x,-y,-z
3/4+y,1/4-x,3/4-z
x,1/2+y,-z
3/4-y,3/4+x,1/4-z
-x,y,1/2+z
1/2+x,-y,z
1/4-y,3/4-x,3/4+z
3/4+y,3/4+x,3/4+z
1/2+x,1/2+y,1/2+z
3/4-y,1/4+x,3/4+z
1/2-x,-y,1/2+z
3/4+y,3/4-x,1/4+z
1/2+x,1/2-y,-z
-x,1/2+y,1/2-z
1/4+y,3/4+x,3/4-z
3/4-y,3/4-x,3/4-z
1/2-x,1/2-y,1/2-z
1/4+y,3/4-x,1/4-z
1/2+x,y,1/2-z
1/4-y,1/4+x,3/4-z
1/2-x,1/2+y,z
x,1/2-y,1/2+z
3/4-y,1/4-x,1/4+z
1/4+y,1/4+x,1/4+z
loop_
_atom_site_type_symbol
_atom_site_label
_atom_site_fract_x
_atom_site_fract_y
_atom_site_fract_z
Si Si1 0.667672 0.198810 0.398640
Si Si2 0.787263 0.904779 0.050358
Si Si3 0.882845 0.726294 0.500753
Si Si4 0.031490 0.120888 0.488308
Si Si5 0.250521 0.192351 0.679017
O O1 0.585544 0.164457 0.375000
O O2 0.720964 0.118602 0.409678
O O3 0.652826 0.245681 0.448411
O O4 0.707379 0.269886 0.367163
O O5 0.852422 0.962776 0.076350
O O6 0.750000 0.942128 0.000000
O O7 0.823352 0.817956 0.036766
O O8 0.904724 0.810532 0.526549
O O9 0.955787 0.666215 0.488927
O O10 0.005406 0.071432 0.441169
O O11 0.067808 0.060959 0.527247
#
# Coordination Sequence:
#
# PCOD8321036 Si02
#       5
#    32  32  32  32  32
#     4  11  21  37  58  85 121 154 191 246 296 335
#     4   9  21  39  57  77 120 161 191 236 301 353
#     4   9  18  37  58  82 109 152 195 244 283 339
#     4   9  18  34  60  83 108 147 196 234 285 344
#     4  10  20  36  58  87 115 152 195 234 292 354
#
# _framework density 20.820882000000001
#
# number of rings (size 3 to 8) (size 9 to 14) (size 15 to 20)
#    0.000    2.400    2.000    0.000    2.800    2.400 
#    3.600    3.000    0.000    0.000    0.000    0.000 
#    0.000    0.000    0.000    0.000    0.000    0.000 
#
# Total GULP energy -991226.587017 kJ/mol
# GULP energy per Si atom -12390.332338 kJ/mol
# Density = 2.077349 g / cm^3
# Si number density = 20.820882 Si / 1000 Ang^3
#
#
#
# Elastic Constant Matrix: (Units=GPa)
#
#
# Indices 1 2 3 4 5 6 
#
# 1 66.7276 22.1518 9.7894 0.0000 0.0000 0.0000
# 2 22.1518 66.7258 9.7891 0.0000 0.0000 0.0000
# 3 9.7894 9.7891 41.2201 0.0000 0.0000 0.0000
# 4 0.0000 0.0000 0.0000 25.0288 0.0000 0.0000
# 5 0.0000 0.0000 0.0000 0.0000 25.0290 0.0000
# 6 0.0000 0.0000 0.0000 0.0000 0.0000 32.6316
#
#
#
# Elastic Compliance Matrix: (Units=1/GPa)
#
#
# Indices 1 2 3 4 5 6 
#
# 1 0.017153 -0.005281 -0.002820 0.000000 0.000000 0.000000
# 2 -0.005281 0.017154 -0.002820 0.000000 0.000000 0.000000
# 3 -0.002820 -0.002820 0.025599 0.000000 0.000000 0.000000
# 4 0.000000 0.000000 0.000000 0.039954 0.000000 0.000000
# 5 0.000000 0.000000 0.000000 0.000000 0.039954 0.000000
# 6 0.000000 0.000000 0.000000 0.000000 0.000000 0.030645
#
#
# Mechanical properties :
#
#
# Convention : Reuss Voigt Hill
#
# Bulk Modulus (GPa) = 26.27026 28.68156 27.47591
# Shear Modulus (GPa) = 24.39178 25.40076 24.89627
#
# Velocity S-wave (km/s) = 3.42644 3.49659 3.46169
# Velocity P-wave (km/s) = 5.31965 5.48697 5.40395
#
# Compressibility (1/GPa) = 0.03806586
#
# Stress axis : x y z
#
# Youngs Moduli (GPa) = 58.29860 58.29711 39.06368
#
# Poissons Ratio (x) = 0.30786 0.11014
# Poissons Ratio (y) = 0.30787 0.11014
# Poissons Ratio (z) = 0.16438 0.16437
#
# Static dielectric constant tensor:
#      x y z
#    x 3.872050 0.000000 0.000000 
#    y 0.000000 3.872060 0.000000 
#    z 0.000000 0.000000 3.406950 
# 
# 
# High freq. dielectric constant tensor:
#      x y z
#    x 1.812690 0.000000 0.000000 
#    y 0.000000 1.812690 0.000000 
#    z 0.000000 0.000000 1.790830 
# 
# From -- ./inp_files/12407.got.cif
#   From: 2010.03.12/outbox.cif.g09.slc.cpg/sg142_7_cif.got.tgz:12407.got - 2010.04.03 13:27:16.
