data_PCOD8321123
_publ_section_title
;
Structure prediction by ZEFSAII (Michael W. Deem and Ramdas Pophale) SiO2 
 PCOD8321123
Probable space group: I 41/A C D
;
_chemical_formula_sum "Si O2"
_cell_formula_units_Z 136
_cell_length_a 23.376577
_cell_length_b 23.376577
_cell_length_c 12.531225
_cell_angle_alpha 90.000000
_cell_angle_beta 90.000000
_cell_angle_gamma 90.000000
_cell_volume 6847.867752
_symmetry_space_group_name_H-M "I 41/A C D"
_symmetry_group_IT_number 142
_space_group.IT_coordinate_system_code '2'
_symmetry_cell_setting 'tetragonal'
loop_
_space_group_symop_operation_xyz
x,y,z
1/4-y,3/4+x,1/4+z
-x,1/2-y,z
1/4+y,1/4-x,3/4+z
x,-y,1/2-z
1/2-x,y,-z
3/4+y,1/4+x,1/4-z
1/4-y,1/4-x,1/4-z
-x,-y,-z
3/4+y,1/4-x,3/4-z
x,1/2+y,-z
3/4-y,3/4+x,1/4-z
-x,y,1/2+z
1/2+x,-y,z
1/4-y,3/4-x,3/4+z
3/4+y,3/4+x,3/4+z
1/2+x,1/2+y,1/2+z
3/4-y,1/4+x,3/4+z
1/2-x,-y,1/2+z
3/4+y,3/4-x,1/4+z
1/2+x,1/2-y,-z
-x,1/2+y,1/2-z
1/4+y,3/4+x,3/4-z
3/4-y,3/4-x,3/4-z
1/2-x,1/2-y,1/2-z
1/4+y,3/4-x,1/4-z
1/2+x,y,1/2-z
1/4-y,1/4+x,3/4-z
1/2-x,1/2+y,z
x,1/2-y,1/2+z
3/4-y,1/4-x,1/4+z
1/4+y,1/4+x,1/4+z
loop_
_atom_site_type_symbol
_atom_site_label
_atom_site_fract_x
_atom_site_fract_y
_atom_site_fract_z
Si Si1 0.500000 0.750000 0.875000
Si Si2 0.725587 0.394500 0.310373
Si Si3 0.851721 0.604358 0.130630
Si Si4 0.432153 0.399489 0.814329
Si Si5 0.951436 0.351274 0.229667
O O1 0.478155 0.802056 0.803128
O O2 0.697965 0.447965 0.375000
O O3 0.793345 0.400372 0.302323
O O4 0.702773 0.391531 0.189723
O O5 0.707021 0.336596 0.373050
O O6 0.904655 0.610601 0.210098
O O7 0.848726 0.659984 0.056468
O O8 0.405454 0.344547 0.875000
O O9 0.500118 0.395205 0.810127
O O10 0.925583 0.324418 0.125000
#
# Coordination Sequence:
#
# PCOD8321123 Si02
#       5
#     8  32  32  32  32
#     4  12  22  40  68  82 132 176 198 256 312 382
#     4   9  19  39  69  89 117 163 215 257 317 383
#     4  10  21  40  63  93 121 164 210 261 314 378
#     4   9  18  36  61  92 120 162 211 255 306 375
#     4  12  24  37  61  95 127 163 213 256 310 373
#
# _framework density 19.860196999999999
#
# number of rings (size 3 to 8) (size 9 to 14) (size 15 to 20)
#    0.000    2.353    2.353    4.588    3.294    0.000 
#    0.000   11.765    0.000    0.000    0.000    0.000 
#    0.000    0.000    0.000    0.000    0.000    0.000 
#
# Total GULP energy -843143.934093 kJ/mol
# GULP energy per Si atom -12399.175501 kJ/mol
# Density = 1.981499 g / cm^3
# Si number density = 19.860197 Si / 1000 Ang^3
#
#
#
# Elastic Constant Matrix: (Units=GPa)
#
#
# Indices 1 2 3 4 5 6 
#
# 1 235.4356 -73.8642 32.5180 0.0000 0.0000 0.0000
# 2 -73.8642 235.3894 32.4761 0.0000 0.0000 0.0000
# 3 32.5180 32.4761 76.8324 0.0000 0.0000 0.0000
# 4 0.0000 0.0000 0.0000 18.3714 0.0000 0.0000
# 5 0.0000 0.0000 0.0000 0.0000 18.3706 0.0000
# 6 0.0000 0.0000 0.0000 0.0000 0.0000 11.3774
#
#
#
# Elastic Compliance Matrix: (Units=1/GPa)
#
#
# Indices 1 2 3 4 5 6 
#
# 1 0.005346 0.002113 -0.003156 0.000000 0.000000 0.000000
# 2 0.002113 0.005347 -0.003154 0.000000 0.000000 0.000000
# 3 -0.003156 -0.003154 0.015684 0.000000 0.000000 0.000000
# 4 0.000000 0.000000 0.000000 0.054432 0.000000 0.000000
# 5 0.000000 0.000000 0.000000 0.000000 0.054435 0.000000
# 6 0.000000 0.000000 0.000000 0.000000 0.000000 0.087893
#
#
# Mechanical properties :
#
#
# Convention : Reuss Voigt Hill
#
# Bulk Modulus (GPa) = 55.60821 58.87968 57.24395
# Shear Modulus (GPa) = 21.05031 46.72571 33.88801
#
# Velocity S-wave (km/s) = 3.25918 4.85576 4.13525
# Velocity P-wave (km/s) = 6.49797 7.81980 7.18933
#
# Compressibility (1/GPa) = 0.01798296
#
# Stress axis : x y z
#
# Youngs Moduli (GPa) = 187.04641 187.03736 63.75813
#
# Poissons Ratio (x) = -0.39522 0.20121
# Poissons Ratio (y) = -0.39524 0.20111
# Poissons Ratio (z) = 0.59030 0.58996
#
# Static dielectric constant tensor:
#      x y z
#    x 3.674510 0.000000 0.000000 
#    y 0.000000 3.674590 0.000000 
#    z 0.000000 0.000000 3.634640 
# 
# 
# High freq. dielectric constant tensor:
#      x y z
#    x 1.761950 0.000000 0.000000 
#    y 0.000000 1.761950 0.000000 
#    z 0.000000 0.000000 1.777310 
# 
# From -- ./inp_files/3567.got.cif
#   From: 2010.03.12/outbox.cif.g09.slc.cpg/sg142_2_cif.got.tgz:3567.got - 2010.04.03 13:27:16.
