data_PCOD8321591
_publ_section_title
;
Structure prediction by ZEFSAII (Michael W. Deem and Ramdas Pophale) SiO2 
 PCOD8321591
Probable space group: P -3
;
_chemical_formula_sum "Si O2"
_cell_formula_units_Z 40
_cell_length_a 13.042363
_cell_length_b 13.042363
_cell_length_c 15.487730
_cell_angle_alpha 90.000000
_cell_angle_beta 90.000000
_cell_angle_gamma 120.000000
_cell_volume 2281.555132
_symmetry_space_group_name_H-M "P -3"
_symmetry_group_IT_number 147
_symmetry_cell_setting 'hexagonal'
loop_
_space_group_symop_operation_xyz
x,y,z
-y,x-y,z
-x+y,-x,z
-x,-y,-z
y,-x+y,-z
x-y,x,-z
loop_
_atom_site_type_symbol
_atom_site_label
_atom_site_fract_x
_atom_site_fract_y
_atom_site_fract_z
Si Si1 0.271310 0.135656 1.000000
Si Si2 0.333335 0.666668 0.103342
Si Si3 0.666666 0.333334 0.103344
Si Si4 0.140599 0.279447 0.313066
Si Si5 0.140597 0.861151 0.686935
Si Si6 0.135526 0.714164 0.158567
Si Si7 0.714164 0.135526 0.158567
Si Si8 0.727903 0.863952 0.500000
O O1 0.352804 0.154311 0.918969
O O2 0.188603 0.188604 0.975087
O O3 0.352808 0.198496 0.081028
O O4 0.211868 0.651427 0.140774
O O5 0.333334 0.666667 0.999999
O O6 0.651424 0.211866 0.140776
O O7 0.181730 0.181730 0.301320
O O8 0.208388 0.385920 0.245788
O O9 0.180968 0.342322 0.408829
O O10 0.000001 0.215708 0.297035
O O11 0.208385 0.822467 0.754214
O O12 0.180965 0.838644 0.591171
O O13 1.000000 0.609914 0.165826
O O14 0.812950 0.812951 0.484009
#
# Coordination Sequence:
#
# PCOD8321591 Si02
#       8
#     6   2   2   6   6   6   6   6
#     4  10  19  32  50  76 107 138 168 204 252 306
#     4  12  24  42  60  76  95 133 171 222 267 304
#     4  12  24  42  60  76  95 133 171 222 267 304
#     4   9  16  28  48  78 112 145 177 213 256 305
#     4   9  16  28  48  78 112 145 177 213 256 305
#     4  10  22  36  53  76 102 132 171 214 259 310
#     4  10  22  36  53  76 102 132 171 214 259 310
#     4   8  13  22  42  72 108 144 177 210 250 300
#
# _framework density 17.531901999999999
#
# number of rings (size 3 to 8) (size 9 to 14) (size 15 to 20)
#    0.000    2.400    1.500    1.500    0.000    5.400 
#    0.000    3.000    0.000    1.800    0.000    8.400 
#    0.000    0.000    0.000    0.000    0.000    0.000 
#
# Total GULP energy -495695.029087 kJ/mol
# GULP energy per Si atom -12392.375727 kJ/mol
# Density = 1.749200 g / cm^3
# Si number density = 17.531902 Si / 1000 Ang^3
#
#
#
# Elastic Constant Matrix: (Units=GPa)
#
#
# Indices 1 2 3 4 5 6 
#
# 1 71.1841 40.7969 39.0180 0.0020 3.0900 0.0007
# 2 40.7969 71.1843 39.0184 -0.0022 -3.0898 -0.0002
# 3 39.0180 39.0184 136.9520 0.0009 -0.0001 0.0003
# 4 0.0020 -0.0022 0.0009 1.4539 0.0006 -3.0904
# 5 3.0900 -3.0898 -0.0001 0.0006 1.4544 0.0027
# 6 0.0007 -0.0002 0.0003 -3.0904 0.0027 15.1940
#
#
#
# Elastic Compliance Matrix: (Units=1/GPa)
#
#
# Indices 1 2 3 4 5 6 
#
# 1 0.034543 -0.023401 -0.003175 0.000023 -0.123107 0.000025
# 2 -0.023401 0.034543 -0.003174 -0.000014 0.123104 -0.000023
# 3 -0.003175 -0.003174 0.009111 -0.000011 0.000001 -0.000002
# 4 0.000023 -0.000014 -0.000011 1.211599 -0.001043 0.246435
# 5 -0.123107 0.123104 0.000001 -0.001043 1.210680 -0.000419
# 6 0.000025 -0.000023 -0.000002 0.246435 -0.000419 0.115939
#
#
# Mechanical properties :
#
#
# Convention : Reuss Voigt Hill
#
# Bulk Modulus (GPa) = 53.48360 57.44298 55.46329
# Shear Modulus (GPa) = 1.86418 14.31960 8.09189
#
# Velocity S-wave (km/s) = 1.03229 2.86103 2.15071
# Velocity P-wave (km/s) = 5.65628 6.61437 6.15400
#
# Compressibility (1/GPa) = 0.01869732
#
# Stress axis : x y z
#
# Youngs Moduli (GPa) = 28.94908 28.94959 109.76128
#
# Poissons Ratio (x) = 0.67744 0.34844
# Poissons Ratio (y) = 0.67743 0.34843
# Poissons Ratio (z) = 0.09190 0.09190
#
# Static dielectric constant tensor:
#      x y z
#    x 3.029150 -0.000010 0.000000 
#    y -0.000010 3.029140 0.000000 
#    z 0.000000 0.000000 3.648540 
# 
# 
# High freq. dielectric constant tensor:
#      x y z
#    x 1.653000 0.000000 0.000000 
#    y 0.000000 1.653000 0.000000 
#    z 0.000000 0.000000 1.702360 
# 
# From -- ./inp_files/1052.got.cif
#   From: 2010.03.12/outbox.cif.g09.slc.cpg/sg147_cif.got.tgz:1052.got - 2010.04.03 13:37:56.
