data_PCOD8321120
_publ_section_title
;
Structure prediction by ZEFSAII (Michael W. Deem and Ramdas Pophale) SiO2 
 PCOD8321120
Probable space group: I 41/A C D
;
_chemical_formula_sum "Si O2"
_cell_formula_units_Z 176
_cell_length_a 24.462845
_cell_length_b 24.462845
_cell_length_c 13.911186
_cell_angle_alpha 90.000000
_cell_angle_beta 90.000000
_cell_angle_gamma 90.000000
_cell_volume 8324.881965
_symmetry_space_group_name_H-M "I 41/A C D"
_symmetry_group_IT_number 142
_space_group.IT_coordinate_system_code '2'
_symmetry_cell_setting 'tetragonal'
loop_
_space_group_symop_operation_xyz
x,y,z
1/4-y,3/4+x,1/4+z
-x,1/2-y,z
1/4+y,1/4-x,3/4+z
x,-y,1/2-z
1/2-x,y,-z
3/4+y,1/4+x,1/4-z
1/4-y,1/4-x,1/4-z
-x,-y,-z
3/4+y,1/4-x,3/4-z
x,1/2+y,-z
3/4-y,3/4+x,1/4-z
-x,y,1/2+z
1/2+x,-y,z
1/4-y,3/4-x,3/4+z
3/4+y,3/4+x,3/4+z
1/2+x,1/2+y,1/2+z
3/4-y,1/4+x,3/4+z
1/2-x,-y,1/2+z
3/4+y,3/4-x,1/4+z
1/2+x,1/2-y,-z
-x,1/2+y,1/2-z
1/4+y,3/4+x,3/4-z
3/4-y,3/4-x,3/4-z
1/2-x,1/2-y,1/2-z
1/4+y,3/4-x,1/4-z
1/2+x,y,1/2-z
1/4-y,1/4+x,3/4-z
1/2-x,1/2+y,z
x,1/2-y,1/2+z
3/4-y,1/4-x,1/4+z
1/4+y,1/4+x,1/4+z
loop_
_atom_site_type_symbol
_atom_site_label
_atom_site_fract_x
_atom_site_fract_y
_atom_site_fract_z
Si Si1 0.636771 0.756100 0.296928
Si Si2 0.673933 0.580484 0.428700
Si Si3 0.032996 0.631390 0.348776
Si Si4 0.433935 0.860489 0.790200
Si Si5 0.704017 0.545984 0.625000
Si Si6 0.927188 0.554200 0.694019
O O1 0.652949 0.724982 0.198319
O O2 0.598654 0.717222 0.361999
O O3 0.604026 0.809703 0.266683
O O4 0.687737 0.775206 0.363679
O O5 0.664142 0.646148 0.436391
O O6 0.664246 0.559461 0.536691
O O7 0.733222 0.559998 0.396969
O O8 0.631795 0.552103 0.355508
O O9 0.059189 0.690812 0.375000
O O10 0.073904 0.601962 0.274458
O O11 0.973429 0.633775 0.300656
O O12 0.941929 0.500000 0.750000
#
# Coordination Sequence:
#
# PCOD8321120 Si02
#       6
#    32  32  32  32  16  32
#     4  10  21  39  62  90 135 176 222 282 330 403
#     4  10  23  43  67  98 131 164 221 287 334 417
#     4  11  23  40  65  96 132 183 231 278 346 404
#     4  10  22  39  62  97 133 171 225 279 335 402
#     4  10  24  44  70 100 119 178 222 272 371 402
#     4  10  24  41  62  97 134 174 225 277 342 411
#
# _framework density 21.141442000000001
#
# number of rings (size 3 to 8) (size 9 to 14) (size 15 to 20)
#    0.000    1.818    0.000    3.818    7.636    6.909 
#   13.091    0.000    0.000    0.000    0.000    0.000 
#    0.000    0.000    0.000    0.000    0.000    0.000 
#
# Total GULP energy -1090438.505510 kJ/mol
# GULP energy per Si atom -12391.346654 kJ/mol
# Density = 2.109332 g / cm^3
# Si number density = 21.141442 Si / 1000 Ang^3
#
#
#
# Elastic Constant Matrix: (Units=GPa)
#
#
# Indices 1 2 3 4 5 6 
#
# 1 91.4587 50.8845 49.4147 0.0000 0.0000 0.0000
# 2 50.8845 91.4571 49.4146 0.0000 0.0000 0.0000
# 3 49.4147 49.4146 178.1492 0.0000 0.0000 0.0000
# 4 0.0000 0.0000 0.0000 33.3884 0.0000 0.0000
# 5 0.0000 0.0000 0.0000 0.0000 33.3889 0.0000
# 6 0.0000 0.0000 0.0000 0.0000 0.0000 20.5468
#
#
#
# Elastic Compliance Matrix: (Units=1/GPa)
#
#
# Indices 1 2 3 4 5 6 
#
# 1 0.016674 -0.007973 -0.002413 0.000000 0.000000 0.000000
# 2 -0.007973 0.016674 -0.002414 0.000000 0.000000 0.000000
# 3 -0.002413 -0.002414 0.006952 0.000000 0.000000 0.000000
# 4 0.000000 0.000000 0.000000 0.029951 0.000000 0.000000
# 5 0.000000 0.000000 0.000000 0.000000 0.029950 0.000000
# 6 0.000000 0.000000 0.000000 0.000000 0.000000 0.048669
#
#
# Mechanical properties :
#
#
# Convention : Reuss Voigt Hill
#
# Bulk Modulus (GPa) = 68.02587 73.38809 70.70698
# Shear Modulus (GPa) = 27.87541 31.55489 29.71515
#
# Velocity S-wave (km/s) = 3.63508 3.86756 3.75312
# Velocity P-wave (km/s) = 7.06150 7.39813 7.23177
#
# Compressibility (1/GPa) = 0.01470029
#
# Stress axis : x y z
#
# Youngs Moduli (GPa) = 59.97475 59.97355 143.84028
#
# Poissons Ratio (x) = 0.47816 0.34715
# Poissons Ratio (y) = 0.47817 0.34716
# Poissons Ratio (z) = 0.14474 0.14475
#
# Static dielectric constant tensor:
#      x y z
#    x 3.717440 0.000000 0.000000 
#    y 0.000000 3.717470 0.000000 
#    z 0.000000 0.000000 4.325040 
# 
# 
# High freq. dielectric constant tensor:
#      x y z
#    x 1.812380 0.000000 0.000000 
#    y 0.000000 1.812380 0.000000 
#    z 0.000000 0.000000 1.860410 
# 
# From -- ./inp_files/5562.got.cif
#   From: 2010.03.12/outbox.cif.g09.slc.cpg/sg142_3_cif.got.tgz:5562.got - 2010.04.03 13:27:16.
