data_PCOD8321519
_publ_section_title
;
Structure prediction by ZEFSAII (Michael W. Deem and Ramdas Pophale) SiO2 
 PCOD8321519
Probable space group: R 3
;
_chemical_formula_sum "Si O2"
_cell_formula_units_Z 48
_cell_length_a 12.270870
_cell_length_b 12.270870
_cell_length_c 18.992822
_cell_angle_alpha 90.000000
_cell_angle_beta 90.000000
_cell_angle_gamma 120.000000
_cell_volume 2476.685377
_symmetry_space_group_name_H-M "R 3"
_symmetry_group_IT_number 146
_symmetry_cell_setting 'hexagonal'
loop_
_space_group_symop_operation_xyz
x,y,z
-y,x-y,z
-x+y,-x,z
2/3+x,1/3+y,1/3+z
2/3-y,1/3+x-y,1/3+z
2/3-x+y,1/3-x,1/3+z
1/3+x,2/3+y,2/3+z
1/3-y,2/3+x-y,2/3+z
1/3-x+y,2/3-x,2/3+z
loop_
_atom_site_type_symbol
_atom_site_label
_atom_site_fract_x
_atom_site_fract_y
_atom_site_fract_z
Si Si1 0.607481 0.780999 0.659510
Si Si2 0.666668 0.333334 0.487064
Si Si3 0.472240 0.413582 0.473878
Si Si4 0.000000 0.000000 0.545263
Si Si5 0.333334 0.666668 0.654287
Si Si6 0.333333 0.666666 0.378777
Si Si7 0.748469 0.144607 0.853247
Si Si8 0.910433 0.344377 0.098439
O O1 0.593340 0.864943 0.721878
O O2 0.468704 0.690067 0.626764
O O3 0.697760 0.869963 0.599510
O O4 0.673049 0.707430 0.696546
O O5 0.564781 0.372526 0.512108
O O6 0.666668 0.333334 0.403904
O O7 0.334396 0.327920 0.503991
O O8 0.522822 0.562301 0.488709
O O9 0.997384 0.876537 0.514916
O O10 0.000000 0.000000 0.628893
O O11 0.470641 0.708971 0.408239
O O12 0.863762 0.217652 0.799280
#
# Coordination Sequence:
#
# PCOD8321519 Si02
#       8
#     9   3   9   3   3   3   9   9
#     4   9  21  36  59  95 124 166 212 287 314 381
#     4   9  18  39  58  77 121 165 195 256 329 364
#     4   9  21  38  61  87 122 165 208 269 320 378
#     4  12  27  39  64  92 139 174 214 251 343 411
#     4   9  18  31  58  84 124 154 213 262 335 358
#     4  12  18  46  58  93 130 169 211 278 328 357
#     4  12  24  38  64  97 124 176 218 261 334 396
#     4  10  21  37  64  89 128 167 213 270 321 379
#
# _framework density 19.380742999999999
#
# number of rings (size 3 to 8) (size 9 to 14) (size 15 to 20)
#    1.125    0.750    3.750    0.000    5.250    0.000 
#    0.000    0.000    0.000    0.000    0.000    0.000 
#    0.000    0.000    0.000    0.000    0.000    0.000 
#
# Total GULP energy -198244.962670 kJ/mol
# GULP energy per Si atom -12390.310167 kJ/mol
# Density = 1.933663 g / cm^3
# Si number density = 19.380743 Si / 1000 Ang^3
#
#
#
# Elastic Constant Matrix: (Units=GPa)
#
#
# Indices 1 2 3 4 5 6 
#
# 1 100.5279 36.3862 21.7240 -7.5035 0.9634 0.0001
# 2 36.3862 100.5265 21.7237 7.5031 -0.9630 -0.0002
# 3 21.7240 21.7237 55.2729 0.0000 0.0000 -0.0001
# 4 -7.5035 7.5031 0.0000 19.4925 0.0000 -0.9632
# 5 0.9634 -0.9630 0.0000 0.0000 19.4923 -7.5033
# 6 0.0001 -0.0002 -0.0001 -0.9632 -7.5033 32.0711
#
#
#
# Elastic Compliance Matrix: (Units=1/GPa)
#
#
# Indices 1 2 3 4 5 6 
#
# 1 0.012753 -0.004409 -0.003280 0.006606 -0.000848 0.000000
# 2 -0.004409 0.012753 -0.003280 -0.006606 0.000848 0.000000
# 3 -0.003280 -0.003280 0.020670 0.000000 0.000000 0.000000
# 4 0.006606 -0.006606 0.000000 0.056471 0.000000 0.001696
# 5 -0.000848 0.000848 0.000000 0.000000 0.056472 0.013212
# 6 0.000000 0.000000 0.000000 0.001696 0.013212 0.034323
#
#
# Mechanical properties :
#
#
# Convention : Reuss Voigt Hill
#
# Bulk Modulus (GPa) = 41.25307 46.22169 43.73738
# Shear Modulus (GPa) = 22.37551 25.97740 24.17645
#
# Velocity S-wave (km/s) = 3.40151 3.66508 3.53575
# Velocity P-wave (km/s) = 6.06291 6.46618 6.26779
#
# Compressibility (1/GPa) = 0.02424062
#
# Stress axis : x y z
#
# Youngs Moduli (GPa) = 78.41220 78.41143 48.37907
#
# Poissons Ratio (x) = 0.34568 0.15867
# Poissons Ratio (y) = 0.34568 0.15867
# Poissons Ratio (z) = 0.25717 0.25716
#
# Static dielectric constant tensor:
#      x y z
#    x 3.654980 0.000000 0.000000 
#    y 0.000000 3.654980 0.000000 
#    z 0.000000 0.000000 3.245710 
# 
# 
# High freq. dielectric constant tensor:
#      x y z
#    x 1.750610 0.000000 0.000000 
#    y 0.000000 1.750610 0.000000 
#    z 0.000000 0.000000 1.727010 
# 
# From -- ./inp_files/2134.got.cif
#   From: 2010.06.25/outbox.cif.g09.slc.cpg/sg146_cif.got.tgz:2134.got - 2010.06.28 11:17:22.
