data_PCOD8321030
_publ_section_title
;
Structure prediction by ZEFSAII (Michael W. Deem and Ramdas Pophale) SiO2 
 PCOD8321030
Probable space group: I 41/A C D
;
_chemical_formula_sum "Si O2"
_cell_formula_units_Z 168
_cell_length_a 24.059237
_cell_length_b 24.059237
_cell_length_c 15.734966
_cell_angle_alpha 90.000000
_cell_angle_beta 90.000000
_cell_angle_gamma 90.000000
_cell_volume 9108.136055
_symmetry_space_group_name_H-M "I 41/A C D"
_symmetry_group_IT_number 142
_space_group.IT_coordinate_system_code '2'
_symmetry_cell_setting 'tetragonal'
loop_
_space_group_symop_operation_xyz
x,y,z
1/4-y,3/4+x,1/4+z
-x,1/2-y,z
1/4+y,1/4-x,3/4+z
x,-y,1/2-z
1/2-x,y,-z
3/4+y,1/4+x,1/4-z
1/4-y,1/4-x,1/4-z
-x,-y,-z
3/4+y,1/4-x,3/4-z
x,1/2+y,-z
3/4-y,3/4+x,1/4-z
-x,y,1/2+z
1/2+x,-y,z
1/4-y,3/4-x,3/4+z
3/4+y,3/4+x,3/4+z
1/2+x,1/2+y,1/2+z
3/4-y,1/4+x,3/4+z
1/2-x,-y,1/2+z
3/4+y,3/4-x,1/4+z
1/2+x,1/2-y,-z
-x,1/2+y,1/2-z
1/4+y,3/4+x,3/4-z
3/4-y,3/4-x,3/4-z
1/2-x,1/2-y,1/2-z
1/4+y,3/4-x,1/4-z
1/2+x,y,1/2-z
1/4-y,1/4+x,3/4-z
1/2-x,1/2+y,z
x,1/2-y,1/2+z
3/4-y,1/4-x,1/4+z
1/4+y,1/4+x,1/4+z
loop_
_atom_site_type_symbol
_atom_site_label
_atom_site_fract_x
_atom_site_fract_y
_atom_site_fract_z
Si Si1 0.000000 0.750000 0.875000
Si Si2 0.572674 0.967861 0.832755
Si Si3 0.560108 0.042209 0.177489
Si Si4 0.443963 0.532688 0.508869
Si Si5 0.397761 0.657521 0.358684
Si Si6 0.401764 0.764579 0.253879
O O1 0.998544 0.694993 0.930701
O O2 0.506537 0.957516 0.825985
O O3 0.604480 0.909072 0.839388
O O4 0.594579 0.000000 0.750000
O O5 0.590405 0.005191 0.914396
O O6 0.581889 0.104424 0.196402
O O7 0.582004 0.000000 0.250000
O O8 0.585452 0.027555 0.083913
O O9 0.500000 0.500000 0.500000
O O10 0.455919 0.596865 0.533434
O O11 0.383665 0.706184 0.293478
O O12 0.445342 0.677740 0.424222
#
# Coordination Sequence:
#
# PCOD8321030 Si02
#       6
#     8  32  32  32  32  32
#     4  12  28  30  48  84 124 166 172 220 316 366
#     4  10  20  34  58  79 110 153 197 236 279 344
#     4   9  19  34  57  80 112 149 188 238 283 337
#     4   9  17  36  53  76 107 143 197 238 260 321
#     4  11  19  39  55  81 114 159 185 242 300 343
#     4  11  23  35  52  80 124 150 188 231 289 367
#
# _framework density 18.445048
#
# number of rings (size 3 to 8) (size 9 to 14) (size 15 to 20)
#    0.000    1.905    5.714    1.143    2.667    3.048 
#    0.000    0.000    0.000    0.000    0.000   16.000 
#    0.000    0.000    0.000    0.000    0.000    0.000 
#
# Total GULP energy -1041087.381138 kJ/mol
# GULP energy per Si atom -12393.897394 kJ/mol
# Density = 1.840307 g / cm^3
# Si number density = 18.445048 Si / 1000 Ang^3
#
#
#
# Elastic Constant Matrix: (Units=GPa)
#
#
# Indices 1 2 3 4 5 6 
#
# 1 91.6163 12.0855 44.0202 0.0000 0.0000 0.0000
# 2 12.0855 91.6163 44.0202 0.0000 0.0000 0.0000
# 3 44.0202 44.0202 118.4765 0.0000 0.0000 0.0000
# 4 0.0000 0.0000 0.0000 26.8546 0.0000 0.0000
# 5 0.0000 0.0000 0.0000 0.0000 26.8546 0.0000
# 6 0.0000 0.0000 0.0000 0.0000 0.0000 13.0388
#
#
#
# Elastic Compliance Matrix: (Units=1/GPa)
#
#
# Indices 1 2 3 4 5 6 
#
# 1 0.013330 0.000756 -0.005234 0.000000 0.000000 0.000000
# 2 0.000756 0.013330 -0.005234 0.000000 0.000000 0.000000
# 3 -0.005234 -0.005234 0.012330 0.000000 0.000000 0.000000
# 4 0.000000 0.000000 0.000000 0.037238 0.000000 0.000000
# 5 0.000000 0.000000 0.000000 0.000000 0.037238 0.000000
# 6 0.000000 0.000000 0.000000 0.000000 0.000000 0.076694
#
#
# Mechanical properties :
#
#
# Convention : Reuss Voigt Hill
#
# Bulk Modulus (GPa) = 51.10570 55.77342 53.43956
# Shear Modulus (GPa) = 23.13699 26.78849 24.96274
#
# Velocity S-wave (km/s) = 3.54556 3.81509 3.68279
# Velocity P-wave (km/s) = 6.67296 7.05052 6.86434
#
# Compressibility (1/GPa) = 0.01956729
#
# Stress axis : x y z
#
# Youngs Moduli (GPa) = 75.01820 75.01820 81.10444
#
# Poissons Ratio (x) = -0.05674 0.42449
# Poissons Ratio (y) = -0.05674 0.42449
# Poissons Ratio (z) = 0.39263 0.39263
#
# Static dielectric constant tensor:
#      x y z
#    x 3.294690 0.000000 0.000000 
#    y 0.000000 3.294690 0.000000 
#    z 0.000000 0.000000 3.836670 
# 
# 
# High freq. dielectric constant tensor:
#      x y z
#    x 1.693430 0.000000 0.000000 
#    y 0.000000 1.693430 0.000000 
#    z 0.000000 0.000000 1.720490 
# 
# From -- ./inp_files/5595.got.cif
#   From: 2010.03.12/outbox.cif.g09.slc.cpg/sg142_3_cif.got.tgz:5595.got - 2010.04.03 13:27:16.
