data_PCOD8321669
_publ_section_title
;
Structure prediction by ZEFSAII (Michael W. Deem and Ramdas Pophale) SiO2 
 PCOD8321669
Probable space group: P -3
;
_chemical_formula_sum "Si O2"
_cell_formula_units_Z 36
_cell_length_a 16.298149
_cell_length_b 16.298149
_cell_length_c 9.301331
_cell_angle_alpha 90.000000
_cell_angle_beta 90.000000
_cell_angle_gamma 120.000000
_cell_volume 2139.697105
_symmetry_space_group_name_H-M "P -3"
_symmetry_group_IT_number 147
_symmetry_cell_setting 'hexagonal'
loop_
_space_group_symop_operation_xyz
x,y,z
-y,x-y,z
-x+y,-x,z
-x,-y,-z
y,-x+y,-z
x-y,x,-z
loop_
_atom_site_type_symbol
_atom_site_label
_atom_site_fract_x
_atom_site_fract_y
_atom_site_fract_z
Si Si1 0.604348 0.893312 0.165976
Si Si2 0.443839 0.556161 0.661143
Si Si3 0.395652 0.288965 0.834024
Si Si4 0.288965 0.893313 0.834024
Si Si5 0.288964 0.395652 0.834024
Si Si6 0.443839 0.556161 0.338857
O O1 0.646379 0.823190 0.193238
O O2 0.507845 0.853316 0.256531
O O3 0.683437 1.000000 0.212897
O O4 0.576986 0.892267 1.000000
O O5 0.507846 0.654529 0.743469
O O6 0.345471 0.492154 0.743469
O O7 0.422747 0.577253 0.500000
O O8 0.500000 0.500000 0.658507
O O9 0.316563 0.316563 0.787103
O O10 0.492154 0.345471 0.743468
O O11 0.423014 0.315281 1.000000
O O12 0.176810 0.823190 0.806762
#
# Coordination Sequence:
#
# PCOD8321669 Si02
#       6
#     6   6   6   6   6   6
#     4   9  17  30  48  68  91 121 155 188 223 267
#     4   9  17  29  45  65  89 115 145 185 229 269
#     4   9  17  30  48  68  91 121 155 188 223 267
#     4   9  17  30  48  68  91 121 155 188 223 267
#     4   9  17  30  48  68  91 121 155 188 223 267
#     4   9  17  29  45  65  89 115 145 185 229 269
#
# _framework density 16.824811
#
# number of rings (size 3 to 8) (size 9 to 14) (size 15 to 20)
#    0.000    3.000    0.000    1.000    0.000    5.333 
#    2.000    0.000    0.000    0.667    0.000    4.667 
#    0.000    0.000    0.000   16.667    0.000   17.333 
#
# Total GULP energy -446218.769146 kJ/mol
# GULP energy per Si atom -12394.965810 kJ/mol
# Density = 1.678652 g / cm^3
# Si number density = 16.824811 Si / 1000 Ang^3
#
#
#
# Elastic Constant Matrix: (Units=GPa)
#
#
# Indices 1 2 3 4 5 6 
#
# 1 97.5789 54.6404 38.9416 0.0000 0.0000 0.0000
# 2 54.6404 97.5789 38.9416 0.0000 0.0000 0.0000
# 3 38.9416 38.9416 75.5570 0.0000 0.0000 0.0000
# 4 0.0000 0.0000 0.0000 14.1626 0.0000 0.0000
# 5 0.0000 0.0000 0.0000 0.0000 14.1626 0.0000
# 6 0.0000 0.0000 0.0000 0.0000 0.0000 21.4692
#
#
#
# Elastic Compliance Matrix: (Units=1/GPa)
#
#
# Indices 1 2 3 4 5 6 
#
# 1 0.016106 -0.007183 -0.004598 0.000000 0.000000 0.000000
# 2 -0.007183 0.016106 -0.004598 0.000000 0.000000 0.000000
# 3 -0.004598 -0.004598 0.017975 0.000000 0.000000 0.000000
# 4 0.000000 0.000000 0.000000 0.070608 0.000000 0.000000
# 5 0.000000 0.000000 0.000000 0.000000 0.070608 0.000000
# 6 0.000000 0.000000 0.000000 0.000000 0.000000 0.046578
#
#
# Mechanical properties :
#
#
# Convention : Reuss Voigt Hill
#
# Bulk Modulus (GPa) = 57.38642 59.52911 58.45777
# Shear Modulus (GPa) = 18.07987 19.17166 18.62576
#
# Velocity S-wave (km/s) = 3.28166 3.37929 3.33083
# Velocity P-wave (km/s) = 6.96716 7.11932 7.04365
#
# Compressibility (1/GPa) = 0.01742572
#
# Stress axis : x y z
#
# Youngs Moduli (GPa) = 62.08977 62.08978 55.63253
#
# Poissons Ratio (x) = 0.44602 0.25583
# Poissons Ratio (y) = 0.44602 0.25583
# Poissons Ratio (z) = 0.28552 0.28552
#
# Static dielectric constant tensor:
#      x y z
#    x 3.064970 0.000000 0.000000 
#    y 0.000000 3.064970 0.000000 
#    z 0.000000 0.000000 3.352040 
# 
# 
# High freq. dielectric constant tensor:
#      x y z
#    x 1.628080 0.000000 0.000000 
#    y 0.000000 1.628080 0.000000 
#    z 0.000000 0.000000 1.651680 
# 
# From -- ./inp_files/591.got.cif
#   From: 2010.03.12/outbox.cif.g09.slc.cpg/sg147_cif.got.tgz:591.got - 2010.04.03 13:37:56.
