data_PCOD8321641
_publ_section_title
;
Structure prediction by ZEFSAII (Michael W. Deem and Ramdas Pophale) SiO2 
 PCOD8321641
Probable space group: P -3
;
_chemical_formula_sum "Si O2"
_cell_formula_units_Z 40
_cell_length_a 14.086116
_cell_length_b 14.086116
_cell_length_c 11.387865
_cell_angle_alpha 90.000000
_cell_angle_beta 90.000000
_cell_angle_gamma 120.000000
_cell_volume 1956.840656
_symmetry_space_group_name_H-M "P -3"
_symmetry_group_IT_number 147
_symmetry_cell_setting 'hexagonal'
loop_
_space_group_symop_operation_xyz
x,y,z
-y,x-y,z
-x+y,-x,z
-x,-y,-z
y,-x+y,-z
x-y,x,-z
loop_
_atom_site_type_symbol
_atom_site_label
_atom_site_fract_x
_atom_site_fract_y
_atom_site_fract_z
Si Si1 0.997194 0.415189 0.841489
Si Si2 0.333334 0.666668 0.017848
Si Si3 0.887224 0.436974 0.354706
Si Si4 0.333335 0.666667 0.739968
Si Si5 0.014096 0.813931 0.445576
Si Si6 0.661386 0.072933 0.558008
Si Si7 0.185188 0.348354 0.259739
Si Si8 0.887270 0.550053 0.925249
O O1 0.894991 0.305273 0.793933
O O2 0.959010 0.502041 0.871172
O O3 0.086562 0.466890 0.738798
O O4 0.056920 0.393833 0.951004
O O5 0.333334 0.666667 0.878422
O O6 0.238063 0.548532 0.061798
O O7 0.773347 0.333262 0.312947
O O8 0.875729 0.476990 0.483684
O O9 0.982552 0.406360 0.351824
O O10 0.074768 0.846164 0.316318
O O11 0.898507 0.811110 0.450398
O O12 0.992698 0.693707 0.475000
O O13 0.758977 0.172757 0.629577
O O14 0.108005 0.351898 0.155565
#
# Coordination Sequence:
#
# PCOD8321641 Si02
#       8
#     6   2   6   2   6   6   6   6
#     4  11  22  39  63  86 130 164 214 266 308 372
#     4  12  21  39  58  86 121 162 225 253 299 382
#     4  11  23  40  57  93 136 167 208 256 312 392
#     4  12  27  36  61  92 133 180 201 259 329 379
#     4  10  22  40  64  92 119 154 208 257 320 380
#     4  10  23  39  64  92 129 164 209 258 316 386
#     4  11  22  40  63  91 122 166 205 259 322 370
#     4  11  23  39  59  90 120 169 216 258 310 378
#
# _framework density 20.441113000000001
#
# number of rings (size 3 to 8) (size 9 to 14) (size 15 to 20)
#    0.000    1.200    6.000    0.150    4.200    0.000 
#    0.000    1.500    0.000    0.000    0.000    4.200 
#    0.000    0.000    0.000    0.000    0.000    0.000 
#
# Total GULP energy -495676.842499 kJ/mol
# GULP energy per Si atom -12391.921062 kJ/mol
# Density = 2.039459 g / cm^3
# Si number density = 20.441113 Si / 1000 Ang^3
#
#
#
# Elastic Constant Matrix: (Units=GPa)
#
#
# Indices 1 2 3 4 5 6 
#
# 1 63.3675 12.5581 30.0374 -6.0836 -3.4318 -0.0001
# 2 12.5581 63.3687 30.0378 6.0832 3.4318 0.0007
# 3 30.0374 30.0378 89.8305 0.0001 -0.0001 0.0005
# 4 -6.0836 6.0832 0.0001 34.2590 0.0003 3.4315
# 5 -3.4318 3.4318 -0.0001 0.0003 34.2588 -6.0832
# 6 -0.0001 0.0007 0.0005 3.4315 -6.0832 25.4047
#
#
#
# Elastic Compliance Matrix: (Units=1/GPa)
#
#
# Indices 1 2 3 4 5 6 
#
# 1 0.019380 -0.001470 -0.005988 0.003702 0.002089 0.000000
# 2 -0.001470 0.019379 -0.005988 -0.003702 -0.002089 -0.000001
# 3 -0.005988 -0.005988 0.015137 0.000000 0.000000 0.000000
# 4 0.003702 -0.003702 0.000000 0.030923 0.000000 -0.004177
# 5 0.002089 -0.002089 0.000000 0.000000 0.030923 0.007405
# 6 0.000000 -0.000001 0.000000 -0.004177 0.007405 0.041700
#
#
# Mechanical properties :
#
#
# Convention : Reuss Voigt Hill
#
# Bulk Modulus (GPa) = 37.03553 40.20370 38.61962
# Shear Modulus (GPa) = 25.86174 28.38008 27.12091
#
# Velocity S-wave (km/s) = 3.56080 3.73014 3.64645
# Velocity P-wave (km/s) = 5.92142 6.18569 6.05499
#
# Compressibility (1/GPa) = 0.02700110
#
# Stress axis : x y z
#
# Youngs Moduli (GPa) = 51.60077 51.60186 66.06386
#
# Poissons Ratio (x) = 0.07588 0.39562
# Poissons Ratio (y) = 0.07588 0.39561
# Poissons Ratio (z) = 0.30901 0.30901
#
# Static dielectric constant tensor:
#      x y z
#    x 3.637940 0.000000 0.000000 
#    y 0.000000 3.637930 0.000000 
#    z 0.000000 0.000000 3.911540 
# 
# 
# High freq. dielectric constant tensor:
#      x y z
#    x 1.785890 0.000000 0.000000 
#    y 0.000000 1.785890 0.000000 
#    z 0.000000 0.000000 1.804110 
# 
# From -- ./inp_files/823.got.cif
#   From: 2010.03.12/outbox.cif.g09.slc.cpg/sg147_cif.got.tgz:823.got - 2010.04.03 13:37:56.
