data_PCOD8321368
_publ_section_title
;
Structure prediction by ZEFSAII (Michael W. Deem and Ramdas Pophale) SiO2 
 PCOD8321368
Probable space group: P 31
;
_chemical_formula_sum "Si O2"
_cell_formula_units_Z 24
_cell_length_a 9.114349
_cell_length_b 9.114349
_cell_length_c 16.098665
_cell_angle_alpha 90.000000
_cell_angle_beta 90.000000
_cell_angle_gamma 120.000000
_cell_volume 1158.168646
_symmetry_space_group_name_H-M "P 31"
_symmetry_group_IT_number 144
_symmetry_cell_setting 'hexagonal'
loop_
_space_group_symop_operation_xyz
x,y,z
-y,x-y,1/3+z
-x+y,-x,2/3+z
loop_
_atom_site_type_symbol
_atom_site_label
_atom_site_fract_x
_atom_site_fract_y
_atom_site_fract_z
Si Si1 0.247330 0.338183 0.138820
Si Si2 0.992446 0.943620 0.687258
Si Si3 0.700525 0.765448 0.063964
Si Si4 0.671517 0.913998 0.228936
Si Si5 0.541637 0.260578 0.928231
Si Si6 0.268411 0.901219 0.970459
Si Si7 0.340887 0.617840 0.013831
Si Si8 0.791697 0.385608 0.772860
O O1 0.206417 0.335548 0.234495
O O2 0.272559 0.511579 0.098829
O O3 0.415588 0.327789 0.123437
O O4 0.088308 0.173912 0.097629
O O5 0.791664 0.815911 0.699182
O O6 0.060772 0.905685 0.602261
O O7 0.026853 0.132965 0.680766
O O8 0.668882 0.873086 0.133261
O O9 0.541669 0.690912 0.001908
O O10 0.715890 0.610691 0.102958
O O11 0.507245 0.754975 0.270127
O O12 0.661122 0.082255 0.244320
O O13 0.666668 0.309011 0.850546
O O14 0.438534 0.055977 0.931466
O O15 0.636199 0.333334 0.017212
O O16 0.306481 0.772779 0.020324
#
# Coordination Sequence:
#
# PCOD8321368 Si02
#       8
#     3   3   3   3   3   3   3   3
#     4  10  21  44  65  90 131 173 210 277 333 386
#     4  10  21  40  64  92 129 161 218 267 329 388
#     4  11  23  40  63  97 124 170 222 267 327 399
#     4  10  21  44  65  90 131 173 210 277 333 386
#     4  11  24  46  66  96 136 180 221 273 340 394
#     4  11  23  40  63  97 124 170 222 267 327 399
#     4  10  21  40  64  92 129 161 218 267 329 388
#     4  11  24  46  66  96 136 180 221 273 340 394
#
# _framework density 20.722369
#
# number of rings (size 3 to 8) (size 9 to 14) (size 15 to 20)
#    0.000    1.500    5.000    3.000    3.500    2.000 
#    4.500    3.750    0.000    0.000    0.000    0.000 
#    0.000    0.000    0.000    0.000    0.000    0.000 
#
# Total GULP energy -297602.783421 kJ/mol
# GULP energy per Si atom -12400.115976 kJ/mol
# Density = 2.067520 g / cm^3
# Si number density = 20.722369 Si / 1000 Ang^3
#
#
#
# Elastic Constant Matrix: (Units=GPa)
#
#
# Indices 1 2 3 4 5 6 
#
# 1 104.6205 37.6492 31.0784 -6.0101 0.0000 0.0000
# 2 37.6492 104.6205 31.0784 6.0101 0.0000 0.0000
# 3 31.0784 31.0784 89.1852 0.0000 0.0000 0.0000
# 4 -6.0101 6.0101 0.0000 29.5784 0.0000 0.0000
# 5 0.0000 0.0000 0.0000 0.0000 29.5784 -6.0101
# 6 0.0000 0.0000 0.0000 0.0000 -6.0101 33.4857
#
#
#
# Elastic Compliance Matrix: (Units=1/GPa)
#
#
# Indices 1 2 3 4 5 6 
#
# 1 0.011894 -0.003603 -0.002889 0.003149 0.000000 0.000000
# 2 -0.003603 0.011894 -0.002889 -0.003149 0.000000 0.000000
# 3 -0.002889 -0.002889 0.013226 0.000000 0.000000 0.000000
# 4 0.003149 -0.003149 0.000000 0.035088 0.000000 0.000000
# 5 0.000000 0.000000 0.000000 0.000000 0.035088 0.006298
# 6 0.000000 0.000000 0.000000 0.000000 0.006298 0.030994
#
#
# Mechanical properties :
#
#
# Convention : Reuss Voigt Hill
#
# Bulk Modulus (GPa) = 54.78943 55.33758 55.06350
# Shear Modulus (GPa) = 30.66900 31.76982 31.21941
#
# Velocity S-wave (km/s) = 3.85124 3.91975 3.88565
# Velocity P-wave (km/s) = 6.80244 6.87373 6.83818
#
# Compressibility (1/GPa) = 0.01825169
#
# Stress axis : x y z
#
# Youngs Moduli (GPa) = 84.07555 84.07555 75.60720
#
# Poissons Ratio (x) = 0.30291 0.21845
# Poissons Ratio (y) = 0.30291 0.21845
# Poissons Ratio (z) = 0.24291 0.24291
#
# Static dielectric constant tensor:
#      x y z
#    x 3.794740 0.000000 0.000000 
#    y 0.000000 3.794740 0.000000 
#    z 0.000000 0.000000 3.563000 
# 
# 
# High freq. dielectric constant tensor:
#      x y z
#    x 1.812600 0.000000 0.000000 
#    y 0.000000 1.812600 0.000000 
#    z 0.000000 0.000000 1.798810 
# 
# From -- ./inp_files/869.got.cif
#   From: 2010.03.12/outbox.cif.g09.slc.cpg/sg144_cif.got.tgz:869.got - 2010.04.03 13:34:42.
