data_PCOD8321830
_publ_section_title
;
Structure prediction by ZEFSAII (Michael W. Deem and Ramdas Pophale) SiO2 
 PCOD8321830
Probable space group: P 3 1 2
;
_chemical_formula_sum "Si O2"
_cell_formula_units_Z 48
_cell_length_a 26.440975
_cell_length_b 26.440975
_cell_length_c 5.140792
_cell_angle_alpha 90.000000
_cell_angle_beta 90.000000
_cell_angle_gamma 120.000000
_cell_volume 3112.544686
_symmetry_space_group_name_H-M "P 3 1 2"
_symmetry_group_IT_number 149
_symmetry_cell_setting 'hexagonal'
loop_
_space_group_symop_operation_xyz
x,y,z
-y,x-y,z
-x+y,-x,z
-y,-x,-z
-x+y,y,-z
x,x-y,-z
loop_
_atom_site_type_symbol
_atom_site_label
_atom_site_fract_x
_atom_site_fract_y
_atom_site_fract_z
Si Si1 0.130589 0.150419 0.527481
Si Si2 0.713372 0.972009 0.048878
Si Si3 0.179093 0.645434 0.524447
Si Si4 0.291616 0.471871 0.031060
Si Si5 0.194261 0.042151 0.957521
Si Si6 0.041921 0.577025 0.512892
Si Si7 0.596922 0.639251 0.980792
Si Si8 0.087931 0.803180 0.535904
O O1 0.060016 0.120032 0.500000
O O2 0.148521 0.142018 0.814349
O O3 0.157381 0.217805 0.454638
O O4 0.156627 0.126782 0.306374
O O5 0.690133 0.938940 0.325654
O O6 0.667472 0.993617 0.985378
O O7 0.707416 0.926023 0.829932
O O8 0.780112 0.025899 0.058294
O O9 0.207517 0.603759 0.500000
O O10 0.201755 0.693341 0.297562
O O11 0.110495 0.605869 0.481727
O O12 0.194470 0.675769 0.803623
O O13 0.221056 0.442112 0.000000
O O14 0.311993 0.423580 0.025744
O O15 0.223974 0.111987 0.000000
O O16 0.013445 0.506723 0.500000
O O17 0.025005 0.594571 0.782608
O O18 0.019134 0.599877 0.276099
O O19 0.158044 0.841957 0.500000
#
# Coordination Sequence:
#
# PCOD8321830 Si02
#       8
#     6   6   6   6   6   6   6   6
#     4   9  17  30  47  63  79 101 136 179 214 248
#     4  10  19  30  43  63  88 110 134 168 207 247
#     4   9  17  30  46  57  69  94 122 146 177 220
#     4  10  19  29  42  60  79  96 118 151 190 233
#     4  10  19  31  48  66  85 112 143 171 207 261
#     4   9  17  30  47  63  77  99 132 162 191 232
#     4  10  19  30  43  63  86 106 129 162 203 241
#     4   9  17  28  42  59  79 108 138 161 197 252
#
# _framework density 15.421465
#
# number of rings (size 3 to 8) (size 9 to 14) (size 15 to 20)
#    0.000    2.500    0.000    3.000    0.000    7.000 
#    0.000    0.000    0.000   10.000    0.000    0.000 
#    0.000    0.000    0.000    0.000    0.000    0.000 
#
# Total GULP energy -594921.342046 kJ/mol
# GULP energy per Si atom -12394.194626 kJ/mol
# Density = 1.538636 g / cm^3
# Si number density = 15.421465 Si / 1000 Ang^3
#
#
#
# Elastic Constant Matrix: (Units=GPa)
#
#
# Indices 1 2 3 4 5 6 
#
# 1 51.2716 29.0657 11.5572 0.0001 0.9425 0.0000
# 2 29.0657 51.2716 11.5572 -0.0001 -0.9425 0.0000
# 3 11.5572 11.5572 76.6042 0.0000 0.0000 0.0000
# 4 0.0001 -0.0001 0.0000 12.2130 0.0000 -0.9425
# 5 0.9425 -0.9425 0.0000 0.0000 12.2130 0.0001
# 6 0.0000 0.0000 0.0000 -0.9425 0.0001 11.1030
#
#
#
# Elastic Compliance Matrix: (Units=1/GPa)
#
#
# Indices 1 2 3 4 5 6 
#
# 1 0.029171 -0.016159 -0.001963 0.000000 -0.003498 0.000000
# 2 -0.016159 0.029171 -0.001963 0.000000 0.003498 0.000000
# 3 -0.001963 -0.001963 0.013646 0.000000 0.000000 0.000000
# 4 0.000000 0.000000 0.000000 0.082420 0.000000 0.006996
# 5 -0.003498 0.003498 0.000000 0.000000 0.082420 0.000000
# 6 0.000000 0.000000 0.000000 0.006996 0.000000 0.090660
#
#
# Mechanical properties :
#
#
# Convention : Reuss Voigt Hill
#
# Bulk Modulus (GPa) = 31.42821 31.50083 31.46452
# Shear Modulus (GPa) = 13.21825 15.57029 14.39427
#
# Velocity S-wave (km/s) = 2.93086 3.18095 3.05846
# Velocity P-wave (km/s) = 5.64597 5.82771 5.73756
#
# Compressibility (1/GPa) = 0.03181855
#
# Stress axis : x y z
#
# Youngs Moduli (GPa) = 34.28049 34.28049 73.27908
#
# Poissons Ratio (x) = 0.55393 0.14386
# Poissons Ratio (y) = 0.55393 0.14386
# Poissons Ratio (z) = 0.06730 0.06730
#
# Static dielectric constant tensor:
#      x y z
#    x 2.743060 0.000000 0.000000 
#    y 0.000000 2.743060 0.000000 
#    z 0.000000 0.000000 3.146020 
# 
# 
# High freq. dielectric constant tensor:
#      x y z
#    x 1.548790 0.000000 0.000000 
#    y 0.000000 1.548790 0.000000 
#    z 0.000000 0.000000 1.618330 
# 
# From -- ./inp_files/275.got.cif
#   From: 2010.03.12/outbox.cif.g09.slc.cpg/sg149_cif.got.tgz:275.got - 2010.04.03 13:40:41.
