data_PCOD8321254
_publ_section_title
;
Structure prediction by ZEFSAII (Michael W. Deem and Ramdas Pophale) SiO2 
 PCOD8321254
Probable space group: I 41/A C D
;
_chemical_formula_sum "Si O2"
_cell_formula_units_Z 136
_cell_length_a 19.104491
_cell_length_b 19.104491
_cell_length_c 19.308607
_cell_angle_alpha 90.000000
_cell_angle_beta 90.000000
_cell_angle_gamma 90.000000
_cell_volume 7047.285820
_symmetry_space_group_name_H-M "I 41/A C D"
_symmetry_group_IT_number 142
_space_group.IT_coordinate_system_code '2'
_symmetry_cell_setting 'tetragonal'
loop_
_space_group_symop_operation_xyz
x,y,z
1/4-y,3/4+x,1/4+z
-x,1/2-y,z
1/4+y,1/4-x,3/4+z
x,-y,1/2-z
1/2-x,y,-z
3/4+y,1/4+x,1/4-z
1/4-y,1/4-x,1/4-z
-x,-y,-z
3/4+y,1/4-x,3/4-z
x,1/2+y,-z
3/4-y,3/4+x,1/4-z
-x,y,1/2+z
1/2+x,-y,z
1/4-y,3/4-x,3/4+z
3/4+y,3/4+x,3/4+z
1/2+x,1/2+y,1/2+z
3/4-y,1/4+x,3/4+z
1/2-x,-y,1/2+z
3/4+y,3/4-x,1/4+z
1/2+x,1/2-y,-z
-x,1/2+y,1/2-z
1/4+y,3/4+x,3/4-z
3/4-y,3/4-x,3/4-z
1/2-x,1/2-y,1/2-z
1/4+y,3/4-x,1/4-z
1/2+x,y,1/2-z
1/4-y,1/4+x,3/4-z
1/2-x,1/2+y,z
x,1/2-y,1/2+z
3/4-y,1/4-x,1/4+z
1/4+y,1/4+x,1/4+z
loop_
_atom_site_type_symbol
_atom_site_label
_atom_site_fract_x
_atom_site_fract_y
_atom_site_fract_z
Si Si1 0.244954 0.717610 0.578096
Si Si2 0.775566 0.560153 0.074509
Si Si3 0.514408 0.600624 0.062353
Si Si4 0.500000 0.250000 0.875000
Si Si5 0.777377 0.176636 0.312599
O O1 0.250000 0.746724 0.500000
O O2 0.208719 0.642439 0.579292
O O3 0.322519 0.708956 0.612569
O O4 0.199357 0.771672 0.624461
O O5 0.714699 0.535302 0.125000
O O6 0.848537 0.522617 0.091780
O O7 0.750000 0.536864 0.000000
O O8 0.498551 0.682800 0.073283
O O9 0.447248 0.552473 0.039170
O O10 0.570155 0.583941 0.000773
#
# Coordination Sequence:
#
# PCOD8321254 Si02
#       5
#    32  32  32   8  32
#     4   9  20  38  61  86 124 162 199 253 319 366
#     4  11  23  36  65  93 116 169 212 250 308 389
#     4   9  22  41  60  90 119 166 201 267 303 379
#     4  12  24  36  76  86 124 168 232 238 320 408
#     4   9  21  41  61  85 131 153 204 266 312 350
#
# _framework density 19.298210000000001
#
# number of rings (size 3 to 8) (size 9 to 14) (size 15 to 20)
#    1.412    0.941    0.000    1.412    9.882    0.941 
#    4.235    0.000    0.000    1.412    0.000    0.000 
#    0.000    0.000    0.000    0.000    0.000    0.000 
#
# Total GULP energy -842391.246221 kJ/mol
# GULP energy per Si atom -12388.106562 kJ/mol
# Density = 1.925429 g / cm^3
# Si number density = 19.298210 Si / 1000 Ang^3
#
#
#
# Elastic Constant Matrix: (Units=GPa)
#
#
# Indices 1 2 3 4 5 6 
#
# 1 94.9474 21.2094 36.4952 0.0000 0.0000 0.0000
# 2 21.2094 94.9435 36.4951 0.0000 0.0000 0.0000
# 3 36.4952 36.4951 152.3994 0.0000 0.0000 0.0000
# 4 0.0000 0.0000 0.0000 25.2823 0.0000 0.0000
# 5 0.0000 0.0000 0.0000 0.0000 25.2827 0.0000
# 6 0.0000 0.0000 0.0000 0.0000 0.0000 16.8844
#
#
#
# Elastic Compliance Matrix: (Units=1/GPa)
#
#
# Indices 1 2 3 4 5 6 
#
# 1 0.011848 -0.001714 -0.002427 0.000000 0.000000 0.000000
# 2 -0.001714 0.011848 -0.002427 0.000000 0.000000 0.000000
# 3 -0.002427 -0.002427 0.007724 0.000000 0.000000 0.000000
# 4 0.000000 0.000000 0.000000 0.039553 0.000000 0.000000
# 5 0.000000 0.000000 0.000000 0.000000 0.039553 0.000000
# 6 0.000000 0.000000 0.000000 0.000000 0.000000 0.059226
#
#
# Mechanical properties :
#
#
# Convention : Reuss Voigt Hill
#
# Bulk Modulus (GPa) = 54.68948 58.96550 56.82749
# Shear Modulus (GPa) = 26.45747 30.02926 28.24336
#
# Velocity S-wave (km/s) = 3.70669 3.94898 3.82975
# Velocity P-wave (km/s) = 6.83521 7.17034 7.00478
#
# Compressibility (1/GPa) = 0.01828505
#
# Stress axis : x y z
#
# Youngs Moduli (GPa) = 84.40403 84.40026 129.46630
#
# Poissons Ratio (x) = 0.14465 0.31419
# Poissons Ratio (y) = 0.14466 0.31420
# Poissons Ratio (z) = 0.20483 0.20483
#
# Static dielectric constant tensor:
#      x y z
#    x 3.267560 0.000000 0.000000 
#    y 0.000000 3.267560 0.000000 
#    z 0.000000 0.000000 3.514560 
# 
# 
# High freq. dielectric constant tensor:
#      x y z
#    x 1.732950 0.000000 0.000000 
#    y 0.000000 1.732950 0.000000 
#    z 0.000000 0.000000 1.754230 
# 
# From -- ./inp_files/8829.got.cif
#   From: 2010.03.12/outbox.cif.g09.slc.cpg/sg142_5_cif.got.tgz:8829.got - 2010.04.03 13:27:16.
