data_PCOD8321832
_publ_section_title
;
Structure prediction by ZEFSAII (Michael W. Deem and Ramdas Pophale) SiO2 
 PCOD8321832
Probable space group: P 3 1 2
;
_chemical_formula_sum "Si O2"
_cell_formula_units_Z 38
_cell_length_a 15.320687
_cell_length_b 15.320687
_cell_length_c 12.562277
_cell_angle_alpha 90.000000
_cell_angle_beta 90.000000
_cell_angle_gamma 120.000000
_cell_volume 2553.615332
_symmetry_space_group_name_H-M "P 3 1 2"
_symmetry_group_IT_number 149
_symmetry_cell_setting 'hexagonal'
loop_
_space_group_symop_operation_xyz
x,y,z
-y,x-y,z
-x+y,-x,z
-y,-x,-z
-x+y,y,-z
x,x-y,-z
loop_
_atom_site_type_symbol
_atom_site_label
_atom_site_fract_x
_atom_site_fract_y
_atom_site_fract_z
Si Si1 0.999968 0.200531 0.378018
Si Si2 0.998388 0.797720 0.000000
Si Si3 0.200564 0.000032 0.621981
Si Si4 0.553052 0.446946 0.127397
Si Si5 0.725122 0.073060 0.806204
Si Si6 0.666667 0.333334 0.874153
Si Si7 0.347937 0.073057 0.806204
O O1 0.001870 0.232789 0.500000
O O2 0.106457 0.212914 0.343570
O O3 0.974140 0.272098 0.307340
O O4 0.915875 0.084124 0.359614
O O5 0.986992 0.733333 0.103804
O O6 0.108309 0.891692 0.000000
O O7 0.917644 0.835288 0.000000
O O8 0.986990 0.733330 0.896199
O O9 0.297959 0.025859 0.692658
O O10 0.613118 0.558817 0.176047
O O11 0.610131 0.389852 0.168458
O O12 0.441179 0.386885 0.176044
O O13 0.548817 0.451184 0.000000
O O14 0.807950 0.192053 0.813415
O O15 0.666668 0.333334 0.000000
#
# Coordination Sequence:
#
# PCOD8321832 Si02
#       7
#     6   6   6   6   6   2   6
#     4   9  17  30  48  69  95 127 159 188 220 266
#     4  10  19  29  42  64  96 126 148 177 225 280
#     4   9  17  30  48  69  95 127 159 188 220 266
#     4  11  18  30  45  67  93 123 160 193 229 269
#     4  10  19  29  44  67  93 121 155 193 228 267
#     4   9  18  24  48  63  85 125 163 198 219 259
#     4  10  19  29  44  67  93 121 155 193 228 267
#
# _framework density 14.880864000000001
#
# number of rings (size 3 to 8) (size 9 to 14) (size 15 to 20)
#    0.000    2.211    3.158    1.421    0.000    1.263 
#    0.000    3.947    0.000    0.000    0.000    0.000 
#   22.105    0.000    0.000    0.000    0.000    0.000 
#
# Total GULP energy -471203.643186 kJ/mol
# GULP energy per Si atom -12400.095873 kJ/mol
# Density = 1.484699 g / cm^3
# Si number density = 14.880864 Si / 1000 Ang^3
#
#
#
# Elastic Constant Matrix: (Units=GPa)
#
#
# Indices 1 2 3 4 5 6 
#
# 1 99.5900 50.8899 46.2548 0.0000 -0.0004 0.0000
# 2 50.8899 99.5899 46.2548 0.0000 0.0004 0.0000
# 3 46.2548 46.2548 85.7505 0.0000 0.0000 0.0000
# 4 0.0000 0.0000 0.0000 17.5917 0.0000 0.0005
# 5 -0.0004 0.0004 0.0000 0.0000 17.5918 0.0000
# 6 0.0000 0.0000 0.0000 0.0005 0.0000 24.3501
#
#
#
# Elastic Compliance Matrix: (Units=1/GPa)
#
#
# Indices 1 2 3 4 5 6 
#
# 1 0.015238 -0.005296 -0.005363 0.000000 0.000000 0.000000
# 2 -0.005296 0.015238 -0.005363 0.000000 -0.000001 0.000000
# 3 -0.005363 -0.005363 0.017448 0.000000 0.000000 0.000000
# 4 0.000000 0.000000 0.000000 0.056845 0.000000 -0.000001
# 5 0.000000 -0.000001 0.000000 0.000000 0.056845 0.000000
# 6 0.000000 0.000000 0.000000 -0.000001 0.000000 0.041068
#
#
# Mechanical properties :
#
#
# Convention : Reuss Voigt Hill
#
# Bulk Modulus (GPa) = 62.97171 63.52549 63.24860
# Shear Modulus (GPa) = 20.83176 21.34211 21.08694
#
# Velocity S-wave (km/s) = 3.74559 3.79119 3.76846
# Velocity P-wave (km/s) = 7.81761 7.87059 7.84414
#
# Compressibility (1/GPa) = 0.01588015
#
# Stress axis : x y z
#
# Youngs Moduli (GPa) = 65.62482 65.62467 57.31472
#
# Poissons Ratio (x) = 0.34753 0.30738
# Poissons Ratio (y) = 0.34753 0.30738
# Poissons Ratio (z) = 0.35195 0.35195
#
# Static dielectric constant tensor:
#      x y z
#    x 2.719190 0.000000 0.000000 
#    y 0.000000 2.719180 0.000000 
#    z 0.000000 0.000000 2.956360 
# 
# 
# High freq. dielectric constant tensor:
#      x y z
#    x 1.550840 0.000000 0.000000 
#    y 0.000000 1.550840 0.000000 
#    z 0.000000 0.000000 1.571860 
# 
# From -- ./inp_files/889.got.cif
#   From: 2010.03.12/outbox.cif.g09.slc.cpg/sg149_cif.got.tgz:889.got - 2010.04.03 13:40:41.
