data_PCOD8321328
_publ_section_title
;
Structure prediction by ZEFSAII (Michael W. Deem and Ramdas Pophale) SiO2 
 PCOD8321328
Probable space group: I 41/A C D
;
_chemical_formula_sum "Si O2"
_cell_formula_units_Z 88
_cell_length_a 18.000000
_cell_length_b 18.000000
_cell_length_c 27.000000
_cell_angle_alpha 90.000000
_cell_angle_beta 90.000000
_cell_angle_gamma 90.000000
_cell_volume 8748.000000
_symmetry_space_group_name_H-M "I 41/A C D"
_symmetry_group_IT_number 142
_space_group.IT_coordinate_system_code '2'
_symmetry_cell_setting 'tetragonal'
loop_
_space_group_symop_operation_xyz
x,y,z
1/4-y,3/4+x,1/4+z
-x,1/2-y,z
1/4+y,1/4-x,3/4+z
x,-y,1/2-z
1/2-x,y,-z
3/4+y,1/4+x,1/4-z
1/4-y,1/4-x,1/4-z
-x,-y,-z
3/4+y,1/4-x,3/4-z
x,1/2+y,-z
3/4-y,3/4+x,1/4-z
-x,y,1/2+z
1/2+x,-y,z
1/4-y,3/4-x,3/4+z
3/4+y,3/4+x,3/4+z
1/2+x,1/2+y,1/2+z
3/4-y,1/4+x,3/4+z
1/2-x,-y,1/2+z
3/4+y,3/4-x,1/4+z
1/2+x,1/2-y,-z
-x,1/2+y,1/2-z
1/4+y,3/4+x,3/4-z
3/4-y,3/4-x,3/4-z
1/2-x,1/2-y,1/2-z
1/4+y,3/4-x,1/4-z
1/2+x,y,1/2-z
1/4-y,1/4+x,3/4-z
1/2-x,1/2+y,z
x,1/2-y,1/2+z
3/4-y,1/4-x,1/4+z
1/4+y,1/4+x,1/4+z
loop_
_atom_site_type_symbol
_atom_site_label
_atom_site_fract_x
_atom_site_fract_y
_atom_site_fract_z
Si Si1 0.300517 0.470402 0.430071
Si Si2 0.979988 0.610034 0.182805
Si Si3 0.645661 0.456930 0.424267
Si Si4 0.604311 0.500000 0.750000
Si Si5 0.109436 0.394852 0.973625
Si Si6 0.465035 0.908344 0.425161
O O1 0.313413 0.436588 0.375000
O O2 0.215137 0.491818 0.435554
O O3 0.311797 0.405608 0.471238
O O4 0.347061 0.545053 0.439758
O O5 0.060556 0.629440 0.205339
O O6 0.987351 0.598781 0.124600
O O7 0.949057 0.537175 0.209661
O O8 0.917223 0.672509 0.188663
O O9 0.657329 0.407329 0.375000
O O10 0.633348 0.399699 0.469183
O O11 0.579949 0.515788 0.419087
O O12 0.023284 0.417149 0.969907
#
# Coordination Sequence:
#
# PCOD8321328 Si02
#       6
#    32  32  32  16  32  32
#     4  11  21  42  63  98 133 175 221 284 333 401
#     4  12  25  41  67 102 132 176 223 283 334 413
#     4  11  24  42  66  96 134 178 228 278 338 405
#     4  12  24  40  66  98 138 166 230 276 336 396
#     4  12  24  40  70  94 136 176 225 276 342 404
#     4  12  24  45  65 100 136 177 223 278 345 401
#
# _framework density 10.059442000000001
#
# number of rings (size 3 to 8) (size 9 to 14) (size 15 to 20)
#    0.000    0.364    5.455    4.364    5.091    0.000 
#    0.000    0.000    0.000    1.091    0.000    0.000 
#    0.000    0.000    0.000    0.000    0.000    0.000 
#
# Total GULP energy -1090934.812885 kJ/mol
# GULP energy per Si atom -12396.986510 kJ/mol
# Density = 1.003655 g / cm^3
# Si number density = 10.059442 Si / 1000 Ang^3
#
#
#
# Elastic Constant Matrix: (Units=GPa)
#
#
# Indices 1 2 3 4 5 6 
#
# 1 -2.3086 15.2492 36.1283 0.0000 0.0000 0.0000
# 2 15.2492 -2.2326 36.1252 0.0000 0.0000 0.0000
# 3 36.1283 36.1252 101.7728 0.0000 0.0000 0.0000
# 4 0.0000 0.0000 0.0000 88.3493 0.0000 0.0000
# 5 0.0000 0.0000 0.0000 0.0000 88.3407 0.0000
# 6 0.0000 0.0000 0.0000 0.0000 0.0000 37.1193
#
#
#
# Elastic Compliance Matrix: (Units=1/GPa)
#
#
# Indices 1 2 3 4 5 6 
#
# 1 -0.067828 -0.010926 0.027956 0.000000 0.000000 0.000000
# 2 -0.010926 -0.068181 0.028080 0.000000 0.000000 0.000000
# 3 0.027956 0.028080 -0.010066 0.000000 0.000000 0.000000
# 4 0.000000 0.000000 0.000000 0.011319 0.000000 0.000000
# 5 0.000000 0.000000 0.000000 0.000000 0.011320 0.000000
# 6 0.000000 0.000000 0.000000 0.000000 0.000000 0.026940
#
#
# Mechanical properties :
#
#
# Convention : Reuss Voigt Hill
#
# Bulk Modulus (GPa) = -17.90408 30.24857 6.17224
# Shear Modulus (GPa) = -24.35047 43.41047 9.53000
#
# Velocity S-wave (km/s) = -3.48275 4.65014 2.17879
# Velocity P-wave (km/s) = 5.00911 6.62566 3.06660
#
# Compressibility (1/GPa) = -0.05585318
#
# Stress axis : x y z
#
# Youngs Moduli (GPa) = -14.74316 -14.66689 -99.34764
#
# Poissons Ratio (x) = -0.16025 2.77741
# Poissons Ratio (y) = -0.16108 2.78967
# Poissons Ratio (z) = 0.41217 0.41184
#
# Static dielectric constant tensor:
#      x y z
#    x 3.715290 0.000000 0.000000 
#    y 0.000000 3.715290 0.000000 
#    z 0.000000 0.000000 4.000710 
# 
# 
# High freq. dielectric constant tensor:
#      x y z
#    x 1.787770 0.000000 0.000000 
#    y 0.000000 1.787770 0.000000 
#    z 0.000000 0.000000 1.803510 
# 
# From -- ./inp_files/11476.got.cif
#   From: 2010.03.12/outbox.ucp.g09.slc.cvg/sg142_6_cif.got.tgz:11476.got - 2010.05.04 20:33:11.
