data_PCOD8321872
_publ_section_title
;
Structure prediction by ZEFSAII (Michael W. Deem and Ramdas Pophale) SiO2 
 PCOD8321872
Probable space group: P 3 2 1
;
_chemical_formula_sum "Si O2"
_cell_formula_units_Z 36
_cell_length_a 21.129990
_cell_length_b 21.129990
_cell_length_c 7.648995
_cell_angle_alpha 90.000000
_cell_angle_beta 90.000000
_cell_angle_gamma 120.000000
_cell_volume 2957.560190
_symmetry_space_group_name_H-M "P 3 2 1"
_symmetry_group_IT_number 150
_symmetry_cell_setting 'hexagonal'
loop_
_space_group_symop_operation_xyz
x,y,z
-y,x-y,z
-x+y,-x,z
x-y,-y,-z
-x,-x+y,-z
y,x,-z
loop_
_atom_site_type_symbol
_atom_site_label
_atom_site_fract_x
_atom_site_fract_y
_atom_site_fract_z
Si Si1 0.815983 0.332779 0.250000
Si Si2 0.385301 0.464299 0.055001
Si Si3 0.332779 0.516796 0.750000
Si Si4 0.535701 0.614699 0.055001
Si Si5 0.464299 0.078997 0.555001
Si Si6 0.535701 0.921003 0.444999
O O1 0.807226 0.403613 0.250000
O O2 0.736688 0.263312 0.250000
O O3 0.859417 0.330447 0.421142
O O4 0.859417 0.330447 0.078858
O O5 0.462430 0.537570 0.048310
O O6 0.351659 0.450682 0.250000
O O7 0.397238 0.397238 0.000000
O O8 0.330447 0.471030 0.921142
O O9 0.330447 0.471030 0.578858
O O10 0.549318 0.648341 0.250000
O O11 0.602762 0.602762 0.000000
O O12 0.537570 0.075140 0.548310
O O13 0.397238 0.000000 0.500000
O O14 0.602762 0.000000 0.500000
#
# Coordination Sequence:
#
# PCOD8321872 Si02
#       6
#     6   6   6   6   6   6
#     4  10  19  28  38  54  77  98 116 146 194 240
#     4   9  15  25  41  56  67  87 122 155 179 212
#     4  10  19  28  38  54  77  98 116 146 194 240
#     4   9  15  25  41  56  67  87 122 155 179 212
#     4   9  15  25  41  56  67  87 122 155 179 212
#     4   9  15  25  41  56  67  87 122 155 179 212
#
# _framework density 12.172195
#
# number of rings (size 3 to 8) (size 9 to 14) (size 15 to 20)
#    0.000    2.667    3.333    0.333    0.000    1.333 
#    0.000    0.000    0.000    4.000    0.000    0.000 
#    0.000    0.000    0.000    0.000    0.000    0.000 
#
# Total GULP energy -446220.590221 kJ/mol
# GULP energy per Si atom -12395.016395 kJ/mol
# Density = 1.214449 g / cm^3
# Si number density = 12.172195 Si / 1000 Ang^3
#
#
#
# Elastic Constant Matrix: (Units=GPa)
#
#
# Indices 1 2 3 4 5 6 
#
# 1 42.1023 23.9330 33.6550 0.0000 0.0000 0.0000
# 2 23.9330 42.1023 33.6550 0.0000 0.0000 0.0000
# 3 33.6550 33.6550 132.9505 0.0000 0.0000 0.0000
# 4 0.0000 0.0000 0.0000 13.2386 0.0000 0.0000
# 5 0.0000 0.0000 0.0000 0.0000 13.2386 0.0000
# 6 0.0000 0.0000 0.0000 0.0000 0.0000 9.0847
#
#
#
# Elastic Compliance Matrix: (Units=1/GPa)
#
#
# Indices 1 2 3 4 5 6 
#
# 1 0.037724 -0.017314 -0.005166 0.000000 0.000000 0.000000
# 2 -0.017314 0.037724 -0.005166 0.000000 0.000000 0.000000
# 3 -0.005166 -0.005166 0.010137 0.000000 0.000000 0.000000
# 4 0.000000 0.000000 0.000000 0.075537 0.000000 0.000000
# 5 0.000000 0.000000 0.000000 0.000000 0.075537 0.000000
# 6 0.000000 0.000000 0.000000 0.000000 0.000000 0.110076
#
#
# Mechanical properties :
#
#
# Convention : Reuss Voigt Hill
#
# Bulk Modulus (GPa) = 33.01352 44.40457 38.70905
# Shear Modulus (GPa) = 12.13225 15.50651 13.81938
#
# Velocity S-wave (km/s) = 3.16051 3.57309 3.37311
# Velocity P-wave (km/s) = 6.36391 7.31998 6.85863
#
# Compressibility (1/GPa) = 0.03029062
#
# Stress axis : x y z
#
# Youngs Moduli (GPa) = 26.50852 26.50852 98.64581
#
# Poissons Ratio (x) = 0.45897 0.50965
# Poissons Ratio (y) = 0.45897 0.50965
# Poissons Ratio (z) = 0.13696 0.13696
#
# Static dielectric constant tensor:
#      x y z
#    x 2.210360 0.000000 0.000000 
#    y 0.000000 2.210360 0.000000 
#    z 0.000000 0.000000 2.912750 
# 
# 
# High freq. dielectric constant tensor:
#      x y z
#    x 1.418820 0.000000 0.000000 
#    y 0.000000 1.418820 0.000000 
#    z 0.000000 0.000000 1.487650 
# 
# From -- ./inp_files/704.got.cif
#   From: 2010.03.12/outbox.cif.g09.slc.cpg/sg150_cif.got.tgz:704.got - 2010.04.03 13:41:37.
