data_PCOD8321245
_publ_section_title
;
Structure prediction by ZEFSAII (Michael W. Deem and Ramdas Pophale) SiO2 
 PCOD8321245
Probable space group: I 41/A C D
;
_chemical_formula_sum "Si O2"
_cell_formula_units_Z 160
_cell_length_a 22.366232
_cell_length_b 22.366232
_cell_length_c 14.761870
_cell_angle_alpha 90.000000
_cell_angle_beta 90.000000
_cell_angle_gamma 90.000000
_cell_volume 7384.600872
_symmetry_space_group_name_H-M "I 41/A C D"
_symmetry_group_IT_number 142
_space_group.IT_coordinate_system_code '2'
_symmetry_cell_setting 'tetragonal'
loop_
_space_group_symop_operation_xyz
x,y,z
1/4-y,3/4+x,1/4+z
-x,1/2-y,z
1/4+y,1/4-x,3/4+z
x,-y,1/2-z
1/2-x,y,-z
3/4+y,1/4+x,1/4-z
1/4-y,1/4-x,1/4-z
-x,-y,-z
3/4+y,1/4-x,3/4-z
x,1/2+y,-z
3/4-y,3/4+x,1/4-z
-x,y,1/2+z
1/2+x,-y,z
1/4-y,3/4-x,3/4+z
3/4+y,3/4+x,3/4+z
1/2+x,1/2+y,1/2+z
3/4-y,1/4+x,3/4+z
1/2-x,-y,1/2+z
3/4+y,3/4-x,1/4+z
1/2+x,1/2-y,-z
-x,1/2+y,1/2-z
1/4+y,3/4+x,3/4-z
3/4-y,3/4-x,3/4-z
1/2-x,1/2-y,1/2-z
1/4+y,3/4-x,1/4-z
1/2+x,y,1/2-z
1/4-y,1/4+x,3/4-z
1/2-x,1/2+y,z
x,1/2-y,1/2+z
3/4-y,1/4-x,1/4+z
1/4+y,1/4+x,1/4+z
loop_
_atom_site_type_symbol
_atom_site_label
_atom_site_fract_x
_atom_site_fract_y
_atom_site_fract_z
Si Si1 0.271793 0.886012 0.101655
Si Si2 0.307664 0.822298 0.559852
Si Si3 0.327040 0.357526 0.246209
Si Si4 0.412225 0.293453 0.124146
Si Si5 0.126096 0.798623 0.931126
O O1 0.300329 0.949672 0.125000
O O2 0.218209 0.876525 0.169666
O O3 0.319218 0.832947 0.116091
O O4 0.250000 0.886302 0.000000
O O5 0.250000 0.802055 0.500000
O O6 0.290752 0.837140 0.664188
O O7 0.335542 0.880909 0.514714
O O8 0.358499 0.771437 0.566382
O O9 0.368052 0.303175 0.208933
O O10 0.422186 0.223654 0.107286
O O11 0.382728 0.321115 0.033942
O O12 0.065072 0.815072 0.875000
#
# Coordination Sequence:
#
# PCOD8321245 Si02
#       5
#    32  32  32  32  32
#     4  11  25  43  70  98 134 181 235 292 347 417
#     4  11  26  45  70 101 141 185 236 295 348 429
#     4  11  25  46  67 101 139 185 236 287 360 415
#     4  11  22  40  68 101 140 183 229 291 358 426
#     4  11  23  43  69 103 138 180 232 292 354 423
#
# _framework density 21.666709000000001
#
# number of rings (size 3 to 8) (size 9 to 14) (size 15 to 20)
#    0.000    1.000    4.000    1.800    2.800    1.600 
#    0.000    0.000    0.000    0.000    0.000    0.000 
#    0.000    0.000    0.000    0.000    0.000    0.000 
#
# Total GULP energy -992047.075762 kJ/mol
# GULP energy per Si atom -12400.588447 kJ/mol
# Density = 2.161739 g / cm^3
# Si number density = 21.666709 Si / 1000 Ang^3
#
#
#
# Elastic Constant Matrix: (Units=GPa)
#
#
# Indices 1 2 3 4 5 6 
#
# 1 107.2625 48.3447 59.3267 0.0000 0.0000 0.0000
# 2 48.3447 107.2612 59.3264 0.0000 0.0000 0.0000
# 3 59.3267 59.3264 169.8439 0.0000 0.0000 0.0000
# 4 0.0000 0.0000 0.0000 37.9163 0.0000 0.0000
# 5 0.0000 0.0000 0.0000 0.0000 37.9159 0.0000
# 6 0.0000 0.0000 0.0000 0.0000 0.0000 31.0794
#
#
#
# Elastic Compliance Matrix: (Units=1/GPa)
#
#
# Indices 1 2 3 4 5 6 
#
# 1 0.012866 -0.004107 -0.003060 0.000000 0.000000 0.000000
# 2 -0.004107 0.012866 -0.003060 0.000000 0.000000 0.000000
# 3 -0.003060 -0.003060 0.008025 0.000000 0.000000 0.000000
# 4 0.000000 0.000000 0.000000 0.026374 0.000000 0.000000
# 5 0.000000 0.000000 0.000000 0.000000 0.026374 0.000000
# 6 0.000000 0.000000 0.000000 0.000000 0.000000 0.032176
#
#
# Mechanical properties :
#
#
# Convention : Reuss Voigt Hill
#
# Bulk Modulus (GPa) = 75.15671 79.81813 77.48742
# Shear Modulus (GPa) = 34.82647 35.87364 35.35006
#
# Velocity S-wave (km/s) = 4.01355 4.07345 4.04361
# Velocity P-wave (km/s) = 7.49941 7.68395 7.59224
#
# Compressibility (1/GPa) = 0.01330553
#
# Stress axis : x y z
#
# Youngs Moduli (GPa) = 77.72308 77.72213 124.60618
#
# Poissons Ratio (x) = 0.31918 0.38126
# Poissons Ratio (y) = 0.31919 0.38126
# Poissons Ratio (z) = 0.23781 0.23781
#
# Static dielectric constant tensor:
#      x y z
#    x 3.838750 0.000000 0.000000 
#    y 0.000000 3.838750 0.000000 
#    z 0.000000 0.000000 -0.954820 
# 
# 
# High freq. dielectric constant tensor:
#      x y z
#    x 1.846100 0.000000 0.000000 
#    y 0.000000 1.846100 0.000000 
#    z 0.000000 0.000000 1.871700 
# 
# From -- ./inp_files/7418.got.cif
#   From: 2010.03.12/outbox.cif.g09.slc.cpg/sg142_4_cif.got.tgz:7418.got - 2010.04.03 13:27:16.
