data_PCOD8321165
_publ_section_title
;
Structure prediction by ZEFSAII (Michael W. Deem and Ramdas Pophale) SiO2 
 PCOD8321165
Probable space group: I 41/A C D
;
_chemical_formula_sum "Si O2"
_cell_formula_units_Z 88
_cell_length_a 17.402672
_cell_length_b 17.402672
_cell_length_c 13.838382
_cell_angle_alpha 90.000000
_cell_angle_beta 90.000000
_cell_angle_gamma 90.000000
_cell_volume 4190.995403
_symmetry_space_group_name_H-M "I 41/A C D"
_symmetry_group_IT_number 142
_space_group.IT_coordinate_system_code '2'
_symmetry_cell_setting 'tetragonal'
loop_
_space_group_symop_operation_xyz
x,y,z
1/4-y,3/4+x,1/4+z
-x,1/2-y,z
1/4+y,1/4-x,3/4+z
x,-y,1/2-z
1/2-x,y,-z
3/4+y,1/4+x,1/4-z
1/4-y,1/4-x,1/4-z
-x,-y,-z
3/4+y,1/4-x,3/4-z
x,1/2+y,-z
3/4-y,3/4+x,1/4-z
-x,y,1/2+z
1/2+x,-y,z
1/4-y,3/4-x,3/4+z
3/4+y,3/4+x,3/4+z
1/2+x,1/2+y,1/2+z
3/4-y,1/4+x,3/4+z
1/2-x,-y,1/2+z
3/4+y,3/4-x,1/4+z
1/2+x,1/2-y,-z
-x,1/2+y,1/2-z
1/4+y,3/4+x,3/4-z
3/4-y,3/4-x,3/4-z
1/2-x,1/2-y,1/2-z
1/4+y,3/4-x,1/4-z
1/2+x,y,1/2-z
1/4-y,1/4+x,3/4-z
1/2-x,1/2+y,z
x,1/2-y,1/2+z
3/4-y,1/4-x,1/4+z
1/4+y,1/4+x,1/4+z
loop_
_atom_site_type_symbol
_atom_site_label
_atom_site_fract_x
_atom_site_fract_y
_atom_site_fract_z
Si Si1 0.750000 0.899620 0.000000
Si Si2 0.535814 0.369954 0.464731
Si Si3 0.000000 0.250000 0.875000
Si Si4 0.902717 0.522346 0.449843
O O1 0.762558 0.844910 0.092042
O O2 0.681058 0.957621 0.015371
O O3 0.574610 0.324610 0.375000
O O4 0.539969 0.314661 0.557935
O O5 0.572514 0.454325 0.478678
O O6 0.447971 0.395817 0.447882
#
# Coordination Sequence:
#
# PCOD8321165 Si02
#       4
#    16  32   8  32
#     4  10  22  42  70  90 136 170 224 282 336 410
#     4  11  26  43  69 102 136 177 230 279 345 414
#     4  12  26  44  68  98 140 184 218 292 344 406
#     4  10  24  44  67 101 130 180 226 279 344 413
#
# _framework density 20.997398
#
# number of rings (size 3 to 8) (size 9 to 14) (size 15 to 20)
#    0.000    1.455    0.000    2.727   20.364    0.000 
#    0.000    0.000    0.000    0.000    0.000    0.000 
#    0.000    0.000    0.000    0.000    0.000    0.000 
#
# Total GULP energy -545176.590988 kJ/mol
# GULP energy per Si atom -12390.377068 kJ/mol
# Density = 2.094961 g / cm^3
# Si number density = 20.997398 Si / 1000 Ang^3
#
#
#
# Elastic Constant Matrix: (Units=GPa)
#
#
# Indices 1 2 3 4 5 6 
#
# 1 110.3230 47.1239 46.5621 0.0000 0.0000 0.0000
# 2 47.1239 110.3230 46.5621 0.0000 0.0000 0.0000
# 3 46.5621 46.5621 136.9632 0.0000 0.0000 0.0000
# 4 0.0000 0.0000 0.0000 34.1310 0.0000 0.0000
# 5 0.0000 0.0000 0.0000 0.0000 34.1310 0.0000
# 6 0.0000 0.0000 0.0000 0.0000 0.0000 29.9933
#
#
#
# Elastic Compliance Matrix: (Units=1/GPa)
#
#
# Indices 1 2 3 4 5 6 
#
# 1 0.011886 -0.003937 -0.002703 0.000000 0.000000 0.000000
# 2 -0.003937 0.011886 -0.002703 0.000000 0.000000 0.000000
# 3 -0.002703 -0.002703 0.009139 0.000000 0.000000 0.000000
# 4 0.000000 0.000000 0.000000 0.029299 0.000000 0.000000
# 5 0.000000 0.000000 0.000000 0.000000 0.029299 0.000000
# 6 0.000000 0.000000 0.000000 0.000000 0.000000 0.033341
#
#
# Mechanical properties :
#
#
# Convention : Reuss Voigt Hill
#
# Bulk Modulus (GPa) = 70.28409 70.90063 70.59236
# Shear Modulus (GPa) = 33.72075 34.14178 33.93127
#
# Velocity S-wave (km/s) = 4.01178 4.03674 4.02428
# Velocity P-wave (km/s) = 7.41651 7.45431 7.43543
#
# Compressibility (1/GPa) = 0.01422797
#
# Stress axis : x y z
#
# Youngs Moduli (GPa) = 84.12945 84.12945 109.42331
#
# Poissons Ratio (x) = 0.33118 0.29573
# Poissons Ratio (y) = 0.33118 0.29573
# Poissons Ratio (z) = 0.22737 0.22737
#
# Static dielectric constant tensor:
#      x y z
#    x 3.847410 0.000000 0.000000 
#    y 0.000000 3.847410 0.000000 
#    z 0.000000 0.000000 4.467720 
# 
# 
# High freq. dielectric constant tensor:
#      x y z
#    x 1.831460 0.000000 0.000000 
#    y 0.000000 1.831460 0.000000 
#    z 0.000000 0.000000 1.829660 
# 
# From -- ./inp_files/4783.got.cif
#   From: 2010.03.12/outbox.cif.g09.slc.cpg/sg142_3_cif.got.tgz:4783.got - 2010.04.03 13:27:16.
