data_PCOD8321890
_publ_section_title
;
Structure prediction by ZEFSAII (Michael W. Deem and Ramdas Pophale) SiO2 
 PCOD8321890
Probable space group: P 3 2 1
;
_chemical_formula_sum "Si O2"
_cell_formula_units_Z 45
_cell_length_a 15.365265
_cell_length_b 15.365265
_cell_length_c 10.475390
_cell_angle_alpha 90.000000
_cell_angle_beta 90.000000
_cell_angle_gamma 120.000000
_cell_volume 2141.810001
_symmetry_space_group_name_H-M "P 3 2 1"
_symmetry_group_IT_number 150
_symmetry_cell_setting 'hexagonal'
loop_
_space_group_symop_operation_xyz
x,y,z
-y,x-y,z
-x+y,-x,z
x-y,-y,-z
-x,-x+y,-z
y,x,-z
loop_
_atom_site_type_symbol
_atom_site_label
_atom_site_fract_x
_atom_site_fract_y
_atom_site_fract_z
Si Si1 0.103721 0.247758 0.444581
Si Si2 0.654650 0.602272 0.693259
Si Si3 0.000000 0.515868 0.500000
Si Si4 0.789417 0.894524 0.954605
Si Si5 0.948726 0.748680 0.303149
Si Si6 0.333834 0.469142 0.692141
Si Si7 0.703930 0.593930 0.961454
Si Si8 0.511366 0.668959 0.784870
O O1 0.084957 0.334671 0.395157
O O2 0.157724 0.217843 0.333144
O O3 0.175936 0.290070 0.566272
O O4 0.000000 0.152875 0.500000
O O5 0.567787 0.514880 0.609741
O O6 0.684884 0.555672 0.814270
O O7 0.617377 0.677020 0.746782
O O8 0.091458 0.620461 0.552391
O O9 0.782313 0.892925 0.800154
O O10 0.883546 0.883546 0.000000
O O11 0.693177 0.811599 0.029049
O O12 0.803284 0.000000 0.000000
O O13 0.938671 0.643607 0.250638
O O14 0.422870 0.554688 0.775634
O O15 0.246397 0.499087 0.692157
O O16 0.614959 0.614959 0.000000
O O17 0.700934 0.514526 0.065854
#
# Coordination Sequence:
#
# PCOD8321890 Si02
#       8
#     6   6   3   6   6   6   6   6
#     4  11  23  39  64  89 132 181 213 264 332 388
#     4  10  20  37  66  94 120 169 216 258 327 400
#     4  10  22  36  64  94 134 162 218 274 330 396
#     4  11  23  38  61  92 130 177 218 269 325 393
#     4  11  25  41  60  94 139 167 225 278 315 396
#     4  11  22  41  63  98 123 171 215 278 332 388
#     4   9  19  36  63  88 117 160 213 260 312 388
#     4  10  21  40  69  92 122 166 223 265 326 404
#
# _framework density 21.010266000000001
#
# number of rings (size 3 to 8) (size 9 to 14) (size 15 to 20)
#    0.000    1.600    2.000    2.800    7.467    0.000 
#    3.200    3.333    2.933    0.000    0.000    0.000 
#    0.000    0.000    0.000    0.000    0.000    0.000 
#
# Total GULP energy -557585.475390 kJ/mol
# GULP energy per Si atom -12390.788342 kJ/mol
# Density = 2.096245 g / cm^3
# Si number density = 21.010266 Si / 1000 Ang^3
#
#
#
# Elastic Constant Matrix: (Units=GPa)
#
#
# Indices 1 2 3 4 5 6 
#
# 1 99.5834 43.8197 43.7388 -5.0946 0.0000 0.0000
# 2 43.8197 99.5834 43.7388 5.0946 0.0000 0.0000
# 3 43.7388 43.7388 132.3722 0.0000 0.0000 0.0000
# 4 -5.0946 5.0946 0.0000 27.3672 0.0000 0.0000
# 5 0.0000 0.0000 0.0000 0.0000 27.3672 -5.0946
# 6 0.0000 0.0000 0.0000 0.0000 -5.0946 27.8818
#
#
#
# Elastic Compliance Matrix: (Units=1/GPa)
#
#
# Indices 1 2 3 4 5 6 
#
# 1 0.013649 -0.004915 -0.002886 0.003456 0.000000 0.000000
# 2 -0.004915 0.013649 -0.002886 -0.003456 0.000000 0.000000
# 3 -0.002886 -0.002886 0.009462 0.000000 0.000000 0.000000
# 4 0.003456 -0.003456 0.000000 0.037827 0.000000 0.000000
# 5 0.000000 0.000000 0.000000 0.000000 0.037827 0.006912
# 6 0.000000 0.000000 0.000000 0.000000 0.006912 0.037129
#
#
# Mechanical properties :
#
#
# Convention : Reuss Voigt Hill
#
# Bulk Modulus (GPa) = 64.99538 66.01486 65.50512
# Shear Modulus (GPa) = 28.40198 29.87268 29.13733
#
# Velocity S-wave (km/s) = 3.68069 3.77479 3.72804
# Velocity P-wave (km/s) = 7.00468 7.10543 7.05524
#
# Compressibility (1/GPa) = 0.01538571
#
# Stress axis : x y z
#
# Youngs Moduli (GPa) = 73.26535 73.26535 105.69098
#
# Poissons Ratio (x) = 0.36012 0.30501
# Poissons Ratio (y) = 0.36012 0.30501
# Poissons Ratio (z) = 0.21143 0.21143
#
# Static dielectric constant tensor:
#      x y z
#    x 3.769010 0.000000 0.000000 
#    y 0.000000 3.769010 0.000000 
#    z 0.000000 0.000000 4.133370 
# 
# 
# High freq. dielectric constant tensor:
#      x y z
#    x 1.807210 0.000000 0.000000 
#    y 0.000000 1.807210 0.000000 
#    z 0.000000 0.000000 1.829510 
# 
# From -- ./inp_files/971.got.cif
#   From: 2010.03.12/outbox.cif.g09.slc.cpg/sg150_cif.got.tgz:971.got - 2010.04.03 13:41:37.
