data_PCOD8321098
_publ_section_title
;
Structure prediction by ZEFSAII (Michael W. Deem and Ramdas Pophale) SiO2 
 PCOD8321098
Probable space group: I 41/A C D
;
_chemical_formula_sum "Si O2"
_cell_formula_units_Z 160
_cell_length_a 16.025740
_cell_length_b 16.025740
_cell_length_c 29.395450
_cell_angle_alpha 90.000000
_cell_angle_beta 90.000000
_cell_angle_gamma 90.000000
_cell_volume 7549.467120
_symmetry_space_group_name_H-M "I 41/A C D"
_symmetry_group_IT_number 142
_space_group.IT_coordinate_system_code '2'
_symmetry_cell_setting 'tetragonal'
loop_
_space_group_symop_operation_xyz
x,y,z
1/4-y,3/4+x,1/4+z
-x,1/2-y,z
1/4+y,1/4-x,3/4+z
x,-y,1/2-z
1/2-x,y,-z
3/4+y,1/4+x,1/4-z
1/4-y,1/4-x,1/4-z
-x,-y,-z
3/4+y,1/4-x,3/4-z
x,1/2+y,-z
3/4-y,3/4+x,1/4-z
-x,y,1/2+z
1/2+x,-y,z
1/4-y,3/4-x,3/4+z
3/4+y,3/4+x,3/4+z
1/2+x,1/2+y,1/2+z
3/4-y,1/4+x,3/4+z
1/2-x,-y,1/2+z
3/4+y,3/4-x,1/4+z
1/2+x,1/2-y,-z
-x,1/2+y,1/2-z
1/4+y,3/4+x,3/4-z
3/4-y,3/4-x,3/4-z
1/2-x,1/2-y,1/2-z
1/4+y,3/4-x,1/4-z
1/2+x,y,1/2-z
1/4-y,1/4+x,3/4-z
1/2-x,1/2+y,z
x,1/2-y,1/2+z
3/4-y,1/4-x,1/4+z
1/4+y,1/4+x,1/4+z
loop_
_atom_site_type_symbol
_atom_site_label
_atom_site_fract_x
_atom_site_fract_y
_atom_site_fract_z
Si Si1 0.283723 0.829994 0.126481
Si Si2 0.181484 0.834422 0.773161
Si Si3 0.824460 0.259636 0.533934
Si Si4 0.424863 0.647566 0.890169
Si Si5 0.362632 0.338477 0.239796
O O1 0.335723 0.914278 0.125000
O O2 0.300406 0.793345 0.176874
O O3 0.304903 0.761320 0.087867
O O4 0.188277 0.858422 0.118807
O O5 0.102884 0.895978 0.771552
O O6 0.268734 0.879708 0.756621
O O7 0.155465 0.759763 0.740426
O O8 0.750000 0.237068 0.500000
O O9 0.887232 0.180901 0.528087
O O10 0.393116 0.723910 0.859892
O O11 0.391602 0.656560 0.941626
#
# Coordination Sequence:
#
# PCOD8321098 Si02
#       5
#    32  32  32  32  32
#     4   9  20  40  57  85 120 158 194 250 305 367
#     4   9  21  39  59  81 120 160 197 246 303 362
#     4  11  22  34  62  88 119 153 203 247 309 363
#     4  10  21  34  61  87 119 154 202 250 300 364
#     4  10  21  38  58  86 117 156 204 248 297 366
#
# _framework density 21.193548
#
# number of rings (size 3 to 8) (size 9 to 14) (size 15 to 20)
#    0.000    2.200    0.000    1.800    8.400    1.600 
#    0.000    5.000    0.000    0.000    0.000    0.000 
#    0.000    0.000    0.000    0.000    0.000    0.000 
#
# Total GULP energy -991069.895811 kJ/mol
# GULP energy per Si atom -12388.373698 kJ/mol
# Density = 2.114531 g / cm^3
# Si number density = 21.193548 Si / 1000 Ang^3
#
#
#
# Elastic Constant Matrix: (Units=GPa)
#
#
# Indices 1 2 3 4 5 6 
#
# 1 87.6185 24.4885 27.6039 0.0000 0.0000 0.0000
# 2 24.4885 87.6210 27.6033 0.0000 0.0000 0.0000
# 3 27.6039 27.6033 76.9809 0.0000 0.0000 0.0000
# 4 0.0000 0.0000 0.0000 29.2560 0.0000 0.0000
# 5 0.0000 0.0000 0.0000 0.0000 29.2565 0.0000
# 6 0.0000 0.0000 0.0000 0.0000 0.0000 15.7315
#
#
#
# Elastic Compliance Matrix: (Units=1/GPa)
#
#
# Indices 1 2 3 4 5 6 
#
# 1 0.013337 -0.002504 -0.003885 0.000000 0.000000 0.000000
# 2 -0.002504 0.013336 -0.003884 0.000000 0.000000 0.000000
# 3 -0.003885 -0.003884 0.015776 0.000000 0.000000 0.000000
# 4 0.000000 0.000000 0.000000 0.034181 0.000000 0.000000
# 5 0.000000 0.000000 0.000000 0.000000 0.034180 0.000000
# 6 0.000000 0.000000 0.000000 0.000000 0.000000 0.063567
#
#
# Mechanical properties :
#
#
# Convention : Reuss Voigt Hill
#
# Bulk Modulus (GPa) = 45.65383 45.73464 45.69424
# Shear Modulus (GPa) = 24.72516 26.35045 25.53780
#
# Velocity S-wave (km/s) = 3.41931 3.52991 3.47505
# Velocity P-wave (km/s) = 6.09730 6.18385 6.14073
#
# Compressibility (1/GPa) = 0.02190397
#
# Stress axis : x y z
#
# Youngs Moduli (GPa) = 74.98137 74.98416 63.38767
#
# Poissons Ratio (x) = 0.18773 0.24623
# Poissons Ratio (y) = 0.18772 0.24621
# Poissons Ratio (z) = 0.29127 0.29126
#
# Static dielectric constant tensor:
#      x y z
#    x 3.790630 0.000000 0.000000 
#    y 0.000000 3.790630 0.000000 
#    z 0.000000 0.000000 4.064200 
# 
# 
# High freq. dielectric constant tensor:
#      x y z
#    x 1.821230 0.000000 0.000000 
#    y 0.000000 1.821230 0.000000 
#    z 0.000000 0.000000 1.833690 
# 
# From -- ./inp_files/12419.got.cif
#   From: 2010.03.12/outbox.cif.g09.slc.cpg/sg142_7_cif.got.tgz:12419.got - 2010.04.03 13:27:16.
