data_PCOD8321192
_publ_section_title
;
Structure prediction by ZEFSAII (Michael W. Deem and Ramdas Pophale) SiO2 
 PCOD8321192
Probable space group: I 41/A C D
;
_chemical_formula_sum "Si O2"
_cell_formula_units_Z 112
_cell_length_a 18.090543
_cell_length_b 18.090543
_cell_length_c 15.947735
_cell_angle_alpha 90.000000
_cell_angle_beta 90.000000
_cell_angle_gamma 90.000000
_cell_volume 5219.179288
_symmetry_space_group_name_H-M "I 41/A C D"
_symmetry_group_IT_number 142
_space_group.IT_coordinate_system_code '2'
_symmetry_cell_setting 'tetragonal'
loop_
_space_group_symop_operation_xyz
x,y,z
1/4-y,3/4+x,1/4+z
-x,1/2-y,z
1/4+y,1/4-x,3/4+z
x,-y,1/2-z
1/2-x,y,-z
3/4+y,1/4+x,1/4-z
1/4-y,1/4-x,1/4-z
-x,-y,-z
3/4+y,1/4-x,3/4-z
x,1/2+y,-z
3/4-y,3/4+x,1/4-z
-x,y,1/2+z
1/2+x,-y,z
1/4-y,3/4-x,3/4+z
3/4+y,3/4+x,3/4+z
1/2+x,1/2+y,1/2+z
3/4-y,1/4+x,3/4+z
1/2-x,-y,1/2+z
3/4+y,3/4-x,1/4+z
1/2+x,1/2-y,-z
-x,1/2+y,1/2-z
1/4+y,3/4+x,3/4-z
3/4-y,3/4-x,3/4-z
1/2-x,1/2-y,1/2-z
1/4+y,3/4-x,1/4-z
1/2+x,y,1/2-z
1/4-y,1/4+x,3/4-z
1/2-x,1/2+y,z
x,1/2-y,1/2+z
3/4-y,1/4-x,1/4+z
1/4+y,1/4+x,1/4+z
loop_
_atom_site_type_symbol
_atom_site_label
_atom_site_fract_x
_atom_site_fract_y
_atom_site_fract_z
Si Si1 0.733471 0.587589 0.250603
Si Si2 0.613811 0.863811 0.625000
Si Si3 0.517539 0.161744 0.724939
Si Si4 0.646741 0.128454 0.597169
O O1 0.714694 0.500000 0.250000
O O2 0.684060 0.634122 0.185696
O O3 0.815582 0.606572 0.223216
O O4 0.719793 0.617261 0.345310
O O5 0.540585 0.859520 0.681256
O O6 0.500000 0.250000 0.714684
O O7 0.577515 0.133703 0.658875
O O8 0.450870 0.105521 0.708988
#
# Coordination Sequence:
#
# PCOD8321192 Si02
#       4
#    32  16  32  32
#     4  11  22  44  67 102 137 184 229 300 344 418
#     4  10  23  42  74  90 136 188 229 276 368 408
#     4  11  22  45  64 101 137 180 227 298 341 427
#     4  11  22  42  71  93 145 178 231 289 360 408
#
# _framework density 21.459313000000002
#
# number of rings (size 3 to 8) (size 9 to 14) (size 15 to 20)
#    0.000    1.143    5.714    0.429    0.000    1.143 
#    5.143    2.857    0.000    0.000    0.000    0.000 
#    0.000    0.000    0.000    0.000    0.000    0.000 
#
# Total GULP energy -693917.618126 kJ/mol
# GULP energy per Si atom -12391.386038 kJ/mol
# Density = 2.141047 g / cm^3
# Si number density = 21.459313 Si / 1000 Ang^3
#
#
#
# Elastic Constant Matrix: (Units=GPa)
#
#
# Indices 1 2 3 4 5 6 
#
# 1 108.0067 51.8537 78.0074 0.0000 0.0000 0.0000
# 2 51.8537 108.0067 78.0074 0.0000 0.0000 0.0000
# 3 78.0074 78.0074 137.8301 0.0000 0.0000 0.0000
# 4 0.0000 0.0000 0.0000 39.7961 0.0000 0.0000
# 5 0.0000 0.0000 0.0000 0.0000 39.7961 0.0000
# 6 0.0000 0.0000 0.0000 0.0000 0.0000 27.6878
#
#
#
# Elastic Compliance Matrix: (Units=1/GPa)
#
#
# Indices 1 2 3 4 5 6 
#
# 1 0.015891 -0.001917 -0.007909 0.000000 0.000000 0.000000
# 2 -0.001917 0.015891 -0.007909 0.000000 0.000000 0.000000
# 3 -0.007909 -0.007909 0.016208 0.000000 0.000000 0.000000
# 4 0.000000 0.000000 0.000000 0.025128 0.000000 0.000000
# 5 0.000000 0.000000 0.000000 0.000000 0.025128 0.000000
# 6 0.000000 0.000000 0.000000 0.000000 0.000000 0.036117
#
#
# Mechanical properties :
#
#
# Convention : Reuss Voigt Hill
#
# Bulk Modulus (GPa) = 79.87032 85.50893 82.68962
# Shear Modulus (GPa) = 28.73451 31.18766 29.96109
#
# Velocity S-wave (km/s) = 3.66324 3.81640 3.74060
# Velocity P-wave (km/s) = 7.42917 7.70412 7.56789
#
# Compressibility (1/GPa) = 0.01252030
#
# Stress axis : x y z
#
# Youngs Moduli (GPa) = 62.92753 62.92753 61.69924
#
# Poissons Ratio (x) = 0.12065 0.48797
# Poissons Ratio (y) = 0.12065 0.48797
# Poissons Ratio (z) = 0.49769 0.49769
#
# Static dielectric constant tensor:
#      x y z
#    x 4.023200 0.000000 0.000000 
#    y 0.000000 4.023200 0.000000 
#    z 0.000000 0.000000 4.267690 
# 
# 
# High freq. dielectric constant tensor:
#      x y z
#    x 1.833420 0.000000 0.000000 
#    y 0.000000 1.833420 0.000000 
#    z 0.000000 0.000000 1.865010 
# 
# From -- ./inp_files/6838.got.cif
#   From: 2010.03.12/outbox.cif.g09.slc.cpg/sg142_4_cif.got.tgz:6838.got - 2010.04.03 13:27:16.
