data_PCOD8321309
_publ_section_title
;
Structure prediction by ZEFSAII (Michael W. Deem and Ramdas Pophale) SiO2 
 PCOD8321309
Probable space group: I 41/A C D
;
_chemical_formula_sum "Si O2"
_cell_formula_units_Z 136
_cell_length_a 20.271253
_cell_length_b 20.271253
_cell_length_c 15.153783
_cell_angle_alpha 90.000000
_cell_angle_beta 90.000000
_cell_angle_gamma 90.000000
_cell_volume 6227.048552
_symmetry_space_group_name_H-M "I 41/A C D"
_symmetry_group_IT_number 142
_space_group.IT_coordinate_system_code '2'
_symmetry_cell_setting 'tetragonal'
loop_
_space_group_symop_operation_xyz
x,y,z
1/4-y,3/4+x,1/4+z
-x,1/2-y,z
1/4+y,1/4-x,3/4+z
x,-y,1/2-z
1/2-x,y,-z
3/4+y,1/4+x,1/4-z
1/4-y,1/4-x,1/4-z
-x,-y,-z
3/4+y,1/4-x,3/4-z
x,1/2+y,-z
3/4-y,3/4+x,1/4-z
-x,y,1/2+z
1/2+x,-y,z
1/4-y,3/4-x,3/4+z
3/4+y,3/4+x,3/4+z
1/2+x,1/2+y,1/2+z
3/4-y,1/4+x,3/4+z
1/2-x,-y,1/2+z
3/4+y,3/4-x,1/4+z
1/2+x,1/2-y,-z
-x,1/2+y,1/2-z
1/4+y,3/4+x,3/4-z
3/4-y,3/4-x,3/4-z
1/2-x,1/2-y,1/2-z
1/4+y,3/4-x,1/4-z
1/2+x,y,1/2-z
1/4-y,1/4+x,3/4-z
1/2-x,1/2+y,z
x,1/2-y,1/2+z
3/4-y,1/4-x,1/4+z
1/4+y,1/4+x,1/4+z
loop_
_atom_site_type_symbol
_atom_site_label
_atom_site_fract_x
_atom_site_fract_y
_atom_site_fract_z
Si Si1 0.554212 0.622613 0.286525
Si Si2 0.718110 0.612777 0.846213
Si Si3 0.638150 0.011851 0.394150
Si Si4 0.250000 0.718475 0.000000
Si Si5 0.136350 0.886350 0.875000
Si Si6 0.000000 0.750000 0.125000
O O1 0.588952 0.590043 0.371881
O O2 0.508613 0.567575 0.241609
O O3 0.607667 0.647901 0.213657
O O4 0.511694 0.685664 0.315060
O O5 0.694856 0.538461 0.862449
O O6 0.740412 0.627893 0.746767
O O7 0.786323 0.625746 0.897608
O O8 0.664714 0.085286 0.375000
O O9 0.573142 0.995849 0.339475
#
# Coordination Sequence:
#
# PCOD8321309 Si02
#       6
#    32  32  32  16  16   8
#     4  12  28  51  73 105 150 198 265 307 384 468
#     4  12  23  44  75 110 146 186 238 323 388 450
#     4  12  24  39  71 108 148 180 234 307 389 450
#     4  12  26  46  70 110 142 200 258 314 370 470
#     4  12  24  45  76 110 140 190 248 327 384 450
#     4  12  32  54  72 100 160 218 252 312 382 468
#
# _framework density 21.840202999999999
#
# number of rings (size 3 to 8) (size 9 to 14) (size 15 to 20)
#    0.000    0.000    8.235    1.412    0.000    3.294 
#    0.000    0.000    0.000    0.000    0.000    0.000 
#    0.000    0.000    0.000    0.000    0.000    0.000 
#
# Total GULP energy -843242.252327 kJ/mol
# GULP energy per Si atom -12400.621358 kJ/mol
# Density = 2.179049 g / cm^3
# Si number density = 21.840203 Si / 1000 Ang^3
#
#
#
# Elastic Constant Matrix: (Units=GPa)
#
#
# Indices 1 2 3 4 5 6 
#
# 1 113.2018 42.7403 36.8175 0.0000 0.0000 0.0000
# 2 42.7403 113.2004 36.8171 0.0000 0.0000 0.0000
# 3 36.8175 36.8171 135.1796 0.0000 0.0000 0.0000
# 4 0.0000 0.0000 0.0000 25.8328 0.0000 0.0000
# 5 0.0000 0.0000 0.0000 0.0000 25.8338 0.0000
# 6 0.0000 0.0000 0.0000 0.0000 0.0000 40.0613
#
#
#
# Elastic Compliance Matrix: (Units=1/GPa)
#
#
# Indices 1 2 3 4 5 6 
#
# 1 0.010776 -0.003417 -0.002004 0.000000 0.000000 0.000000
# 2 -0.003417 0.010776 -0.002004 0.000000 0.000000 0.000000
# 3 -0.002004 -0.002004 0.008489 0.000000 0.000000 0.000000
# 4 0.000000 0.000000 0.000000 0.038711 0.000000 0.000000
# 5 0.000000 0.000000 0.000000 0.000000 0.038709 0.000000
# 6 0.000000 0.000000 0.000000 0.000000 0.000000 0.024962
#
#
# Mechanical properties :
#
#
# Convention : Reuss Voigt Hill
#
# Bulk Modulus (GPa) = 65.83157 66.03686 65.93421
# Shear Modulus (GPa) = 32.82221 34.69270 33.75746
#
# Velocity S-wave (km/s) = 3.88085 3.98990 3.93575
# Velocity P-wave (km/s) = 7.09148 7.17828 7.13501
#
# Compressibility (1/GPa) = 0.01519028
#
# Stress axis : x y z
#
# Youngs Moduli (GPa) = 92.80202 92.80098 117.79469
#
# Poissons Ratio (x) = 0.31706 0.23610
# Poissons Ratio (y) = 0.31707 0.23610
# Poissons Ratio (z) = 0.18600 0.18600
#
# Static dielectric constant tensor:
#      x y z
#    x 3.961990 0.000000 0.000000 
#    y 0.000000 3.962000 0.000000 
#    z 0.000000 0.000000 3.854910 
# 
# 
# High freq. dielectric constant tensor:
#      x y z
#    x 1.857630 0.000000 0.000000 
#    y 0.000000 1.857630 0.000000 
#    z 0.000000 0.000000 1.865360 
# 
# From -- ./inp_files/5170.got.cif
#   From: 2010.03.12/outbox.cif.g09.slc.cpg/sg142_3_cif.got.tgz:5170.got - 2010.04.03 13:27:16.
