data_PCOD8321407
_publ_section_title
;
Structure prediction by ZEFSAII (Michael W. Deem and Ramdas Pophale) SiO2 
 PCOD8321407
Probable space group: P 31
;
_chemical_formula_sum "Si O2"
_cell_formula_units_Z 18
_cell_length_a 9.312828
_cell_length_b 9.312828
_cell_length_c 11.498359
_cell_angle_alpha 90.000000
_cell_angle_beta 90.000000
_cell_angle_gamma 120.000000
_cell_volume 863.633857
_symmetry_space_group_name_H-M "P 31"
_symmetry_group_IT_number 144
_symmetry_cell_setting 'hexagonal'
loop_
_space_group_symop_operation_xyz
x,y,z
-y,x-y,1/3+z
-x+y,-x,2/3+z
loop_
_atom_site_type_symbol
_atom_site_label
_atom_site_fract_x
_atom_site_fract_y
_atom_site_fract_z
Si Si1 0.232703 0.467410 0.189370
Si Si2 0.894158 0.425929 0.142771
Si Si3 0.970017 0.743900 0.008735
Si Si4 0.511586 0.419273 0.741581
Si Si5 0.253566 0.714372 0.364341
Si Si6 0.244961 0.957191 0.190325
O O1 0.238665 0.303216 0.220129
O O2 0.237131 0.542644 0.317556
O O3 0.395660 0.587654 0.113987
O O4 0.064681 0.423838 0.120699
O O5 0.884956 0.555263 0.054826
O O6 0.740937 0.241964 0.131440
O O7 0.884031 0.483295 0.270938
O O8 0.086148 0.877245 0.105388
O O9 0.828952 0.784634 0.968778
O O10 0.340762 0.423016 0.768061
O O11 0.671922 0.587069 0.788670
O O12 0.272319 0.814106 0.246034
#
# Coordination Sequence:
#
# PCOD8321407 Si02
#       6
#     3   3   3   3   3   3
#     4  11  20  43  73  90 126 179 221 272 341 404
#     4  11  22  40  68  96 134 171 219 285 338 396
#     4  12  25  45  66 100 143 179 227 288 341 407
#     4  11  22  40  68  96 134 171 219 285 338 396
#     4  11  20  43  73  90 126 179 221 272 341 404
#     4  12  25  45  66 100 143 179 227 288 341 407
#
# _framework density 20.842165000000001
#
# number of rings (size 3 to 8) (size 9 to 14) (size 15 to 20)
#    0.000    0.667   10.000    1.000    0.000    5.333 
#    0.000    0.000    0.000    0.000    0.000    0.000 
#    0.000    0.000    0.000    0.000    0.000    0.000 
#
# Total GULP energy -223208.754564 kJ/mol
# GULP energy per Si atom -12400.486365 kJ/mol
# Density = 2.079473 g / cm^3
# Si number density = 20.842165 Si / 1000 Ang^3
#
#
#
# Elastic Constant Matrix: (Units=GPa)
#
#
# Indices 1 2 3 4 5 6 
#
# 1 77.4005 25.7069 25.9057 0.8233 2.8611 0.0000
# 2 25.7069 77.4005 25.9057 -0.8233 -2.8611 0.0000
# 3 25.9057 25.9057 62.4641 0.0000 0.0000 0.0000
# 4 0.8233 -0.8233 0.0000 39.0415 0.0000 -2.8611
# 5 2.8611 -2.8611 0.0000 0.0000 39.0415 0.8233
# 6 0.0000 0.0000 0.0000 -2.8611 0.8233 25.8468
#
#
#
# Elastic Compliance Matrix: (Units=1/GPa)
#
#
# Indices 1 2 3 4 5 6 
#
# 1 0.015884 -0.003632 -0.005081 -0.000412 -0.001430 0.000000
# 2 -0.003632 0.015884 -0.005081 0.000412 0.001430 0.000000
# 3 -0.005081 -0.005081 0.020224 0.000000 0.000000 0.000000
# 4 -0.000412 0.000412 0.000000 0.025841 0.000000 0.002860
# 5 -0.001430 0.001430 0.000000 0.000000 0.025841 -0.000823
# 6 0.000000 0.000000 0.000000 0.002860 -0.000823 0.039032
#
#
# Mechanical properties :
#
#
# Convention : Reuss Voigt Hill
#
# Bulk Modulus (GPa) = 40.97892 41.36687 41.17289
# Shear Modulus (GPa) = 28.02230 30.10240 29.06235
#
# Velocity S-wave (km/s) = 3.67072 3.80452 3.73822
# Velocity P-wave (km/s) = 6.13757 6.26019 6.19918
#
# Compressibility (1/GPa) = 0.02440279
#
# Stress axis : x y z
#
# Youngs Moduli (GPa) = 62.95620 62.95620 49.44656
#
# Poissons Ratio (x) = 0.22866 0.25125
# Poissons Ratio (y) = 0.22866 0.25125
# Poissons Ratio (z) = 0.31990 0.31990
#
# Static dielectric constant tensor:
#      x y z
#    x 3.730620 0.000000 0.000000 
#    y 0.000000 3.730620 0.000000 
#    z 0.000000 0.000000 3.600450 
# 
# 
# High freq. dielectric constant tensor:
#      x y z
#    x 1.808770 0.000000 0.000000 
#    y 0.000000 1.808770 0.000000 
#    z 0.000000 0.000000 1.816280 
# 
# From -- ./inp_files/495.got.cif
#   From: 2010.03.12/outbox.cif.g09.slc.cpg/sg144_cif.got.tgz:495.got - 2010.04.03 13:34:42.
