data_PCOD8321258
_publ_section_title
;
Structure prediction by ZEFSAII (Michael W. Deem and Ramdas Pophale) SiO2 
 PCOD8321258
Probable space group: I 41/A C D
;
_chemical_formula_sum "Si O2"
_cell_formula_units_Z 144
_cell_length_a 18.029881
_cell_length_b 18.029881
_cell_length_c 21.533556
_cell_angle_alpha 90.000000
_cell_angle_beta 90.000000
_cell_angle_gamma 90.000000
_cell_volume 7000.055361
_symmetry_space_group_name_H-M "I 41/A C D"
_symmetry_group_IT_number 142
_space_group.IT_coordinate_system_code '2'
_symmetry_cell_setting 'tetragonal'
loop_
_space_group_symop_operation_xyz
x,y,z
1/4-y,3/4+x,1/4+z
-x,1/2-y,z
1/4+y,1/4-x,3/4+z
x,-y,1/2-z
1/2-x,y,-z
3/4+y,1/4+x,1/4-z
1/4-y,1/4-x,1/4-z
-x,-y,-z
3/4+y,1/4-x,3/4-z
x,1/2+y,-z
3/4-y,3/4+x,1/4-z
-x,y,1/2+z
1/2+x,-y,z
1/4-y,3/4-x,3/4+z
3/4+y,3/4+x,3/4+z
1/2+x,1/2+y,1/2+z
3/4-y,1/4+x,3/4+z
1/2-x,-y,1/2+z
3/4+y,3/4-x,1/4+z
1/2+x,1/2-y,-z
-x,1/2+y,1/2-z
1/4+y,3/4+x,3/4-z
3/4-y,3/4-x,3/4-z
1/2-x,1/2-y,1/2-z
1/4+y,3/4-x,1/4-z
1/2+x,y,1/2-z
1/4-y,1/4+x,3/4-z
1/2-x,1/2+y,z
x,1/2-y,1/2+z
3/4-y,1/4-x,1/4+z
1/4+y,1/4+x,1/4+z
loop_
_atom_site_type_symbol
_atom_site_label
_atom_site_fract_x
_atom_site_fract_y
_atom_site_fract_z
Si Si1 0.045871 0.896181 0.914125
Si Si2 0.657046 0.663046 0.303298
Si Si3 0.380644 0.869357 0.625000
Si Si4 0.685163 0.177693 0.147516
Si Si5 0.832213 0.053411 0.515119
O O1 0.083764 0.833764 0.875000
O O2 0.959497 0.884891 0.905003
O O3 0.073748 0.976085 0.890633
O O4 0.067033 0.879206 0.984914
O O5 0.657965 0.738518 0.342743
O O6 0.602344 0.603854 0.335307
O O7 0.738859 0.629540 0.297834
O O8 0.324160 0.882567 0.567360
O O9 0.664231 0.124113 0.204939
O O10 0.750000 0.024011 0.500000
#
# Coordination Sequence:
#
# PCOD8321258 Si02
#       5
#    32  32  16  32  32
#     4  11  25  44  68  97 141 180 229 284 346 411
#     4  11  24  47  68 100 138 180 225 291 342 409
#     4  12  21  46  68  96 140 186 224 283 346 406
#     4  11  24  45  70  98 139 177 226 287 340 412
#     4  11  23  40  73 104 132 176 235 286 342 401
#
# _framework density 20.571266999999999
#
# number of rings (size 3 to 8) (size 9 to 14) (size 15 to 20)
#    0.000    0.889    4.444    3.000    6.222    2.222 
#    4.000    0.000    0.000    0.000    0.000    0.000 
#    0.000    0.000    0.000    0.000    0.000    0.000 
#
# Total GULP energy -892887.176124 kJ/mol
# GULP energy per Si atom -12401.210779 kJ/mol
# Density = 2.052445 g / cm^3
# Si number density = 20.571267 Si / 1000 Ang^3
#
#
#
# Elastic Constant Matrix: (Units=GPa)
#
#
# Indices 1 2 3 4 5 6 
#
# 1 102.8279 23.6521 62.8304 0.0000 0.0000 0.0000
# 2 23.6521 102.8273 62.8298 0.0000 0.0000 0.0000
# 3 62.8304 62.8298 135.8459 0.0000 0.0000 0.0000
# 4 0.0000 0.0000 0.0000 45.4133 0.0000 0.0000
# 5 0.0000 0.0000 0.0000 0.0000 45.4128 0.0000
# 6 0.0000 0.0000 0.0000 0.0000 0.0000 33.2925
#
#
#
# Elastic Compliance Matrix: (Units=1/GPa)
#
#
# Indices 1 2 3 4 5 6 
#
# 1 0.013629 0.000999 -0.006766 0.000000 0.000000 0.000000
# 2 0.000999 0.013629 -0.006766 0.000000 0.000000 0.000000
# 3 -0.006766 -0.006766 0.013620 0.000000 0.000000 0.000000
# 4 0.000000 0.000000 0.000000 0.022020 0.000000 0.000000
# 5 0.000000 0.000000 0.000000 0.000000 0.022020 0.000000
# 6 0.000000 0.000000 0.000000 0.000000 0.000000 0.030037
#
#
# Mechanical properties :
#
#
# Convention : Reuss Voigt Hill
#
# Bulk Modulus (GPa) = 63.23756 71.12508 67.18132
# Shear Modulus (GPa) = 34.41366 37.63630 36.02498
#
# Velocity S-wave (km/s) = 4.09455 4.28197 4.18931
# Velocity P-wave (km/s) = 7.29117 7.68746 7.49194
#
# Compressibility (1/GPa) = 0.01581339
#
# Stress axis : x y z
#
# Youngs Moduli (GPa) = 73.37166 73.37170 73.42296
#
# Poissons Ratio (x) = -0.07330 0.49676
# Poissons Ratio (y) = -0.07330 0.49676
# Poissons Ratio (z) = 0.49642 0.49641
#
# Static dielectric constant tensor:
#      x y z
#    x 3.733400 0.000000 0.000000 
#    y 0.000000 3.733440 0.000000 
#    z 0.000000 0.000000 3.890220 
# 
# 
# High freq. dielectric constant tensor:
#      x y z
#    x 1.806540 0.000000 0.000000 
#    y 0.000000 1.806540 0.000000 
#    z 0.000000 0.000000 1.815190 
# 
# From -- ./inp_files/10108.got.cif
#   From: 2010.03.12/outbox.cif.g09.slc.cpg/sg142_6_cif.got.tgz:10108.got - 2010.04.03 13:27:16.
