data_PCOD8321119
_publ_section_title
;
Structure prediction by ZEFSAII (Michael W. Deem and Ramdas Pophale) SiO2 
 PCOD8321119
Probable space group: I 41/A C D
;
_chemical_formula_sum "Si O2"
_cell_formula_units_Z 160
_cell_length_a 18.367638
_cell_length_b 18.367638
_cell_length_c 24.175378
_cell_angle_alpha 90.000000
_cell_angle_beta 90.000000
_cell_angle_gamma 90.000000
_cell_volume 8156.050315
_symmetry_space_group_name_H-M "I 41/A C D"
_symmetry_group_IT_number 142
_space_group.IT_coordinate_system_code '2'
_symmetry_cell_setting 'tetragonal'
loop_
_space_group_symop_operation_xyz
x,y,z
1/4-y,3/4+x,1/4+z
-x,1/2-y,z
1/4+y,1/4-x,3/4+z
x,-y,1/2-z
1/2-x,y,-z
3/4+y,1/4+x,1/4-z
1/4-y,1/4-x,1/4-z
-x,-y,-z
3/4+y,1/4-x,3/4-z
x,1/2+y,-z
3/4-y,3/4+x,1/4-z
-x,y,1/2+z
1/2+x,-y,z
1/4-y,3/4-x,3/4+z
3/4+y,3/4+x,3/4+z
1/2+x,1/2+y,1/2+z
3/4-y,1/4+x,3/4+z
1/2-x,-y,1/2+z
3/4+y,3/4-x,1/4+z
1/2+x,1/2-y,-z
-x,1/2+y,1/2-z
1/4+y,3/4+x,3/4-z
3/4-y,3/4-x,3/4-z
1/2-x,1/2-y,1/2-z
1/4+y,3/4-x,1/4-z
1/2+x,y,1/2-z
1/4-y,1/4+x,3/4-z
1/2-x,1/2+y,z
x,1/2-y,1/2+z
3/4-y,1/4-x,1/4+z
1/4+y,1/4+x,1/4+z
loop_
_atom_site_type_symbol
_atom_site_label
_atom_site_fract_x
_atom_site_fract_y
_atom_site_fract_z
Si Si1 0.914483 0.246610 0.980338
Si Si2 0.683235 0.843199 0.904368
Si Si3 0.837530 0.813481 0.221052
Si Si4 0.651369 0.151926 0.432647
Si Si5 0.804665 0.148733 0.774639
O O1 0.870104 0.281896 0.929489
O O2 0.894670 0.161663 0.984359
O O3 0.000000 0.250000 0.968071
O O4 0.890721 0.281438 0.038426
O O5 0.689820 0.837838 0.838952
O O6 0.763552 0.830300 0.928096
O O7 0.650037 0.922393 0.922154
O O8 0.846853 0.726073 0.222582
O O9 0.781470 0.838447 0.269262
O O10 0.612060 0.137941 0.375000
O O11 0.643947 0.080377 0.470121
#
# Coordination Sequence:
#
# PCOD8321119 Si02
#       5
#    32  32  32  32  32
#     4  11  22  37  61  97 126 159 210 276 314 380
#     4  11  22  39  67  88 126 174 218 253 325 389
#     4  11  21  38  63  93 124 163 208 272 321 371
#     4  11  22  43  63  88 123 179 214 256 322 396
#     4  10  21  39  62  90 126 162 214 260 313 385
#
# _framework density 19.617339000000001
#
# number of rings (size 3 to 8) (size 9 to 14) (size 15 to 20)
#    0.000    1.200    6.000    3.600    0.000    0.400 
#    0.000    4.000    0.000    0.000    0.000    0.000 
#    0.000    0.000    0.000    0.000    0.000    0.000 
#
# Total GULP energy -991792.393600 kJ/mol
# GULP energy per Si atom -12397.404920 kJ/mol
# Density = 1.957269 g / cm^3
# Si number density = 19.617339 Si / 1000 Ang^3
#
#
#
# Elastic Constant Matrix: (Units=GPa)
#
#
# Indices 1 2 3 4 5 6 
#
# 1 107.6823 40.8240 29.8758 0.0000 0.0000 0.0000
# 2 40.8240 107.6810 29.8763 0.0000 0.0000 0.0000
# 3 29.8758 29.8763 63.1539 0.0000 0.0000 0.0000
# 4 0.0000 0.0000 0.0000 27.7138 0.0000 0.0000
# 5 0.0000 0.0000 0.0000 0.0000 27.7147 0.0000
# 6 0.0000 0.0000 0.0000 0.0000 0.0000 21.8734
#
#
#
# Elastic Compliance Matrix: (Units=1/GPa)
#
#
# Indices 1 2 3 4 5 6 
#
# 1 0.011637 -0.003320 -0.003934 0.000000 0.000000 0.000000
# 2 -0.003320 0.011637 -0.003935 0.000000 0.000000 0.000000
# 3 -0.003934 -0.003935 0.019557 0.000000 0.000000 0.000000
# 4 0.000000 0.000000 0.000000 0.036083 0.000000 0.000000
# 5 0.000000 0.000000 0.000000 0.000000 0.036082 0.000000
# 6 0.000000 0.000000 0.000000 0.000000 0.000000 0.045718
#
#
# Mechanical properties :
#
#
# Convention : Reuss Voigt Hill
#
# Bulk Modulus (GPa) = 48.89313 53.29661 51.09487
# Shear Modulus (GPa) = 26.32838 27.32310 26.82574
#
# Velocity S-wave (km/s) = 3.66744 3.73608 3.70192
# Velocity P-wave (km/s) = 6.55065 6.77039 6.66142
#
# Compressibility (1/GPa) = 0.02045277
#
# Stress axis : x y z
#
# Youngs Moduli (GPa) = 85.93384 85.93227 51.13305
#
# Poissons Ratio (x) = 0.28531 0.20117
# Poissons Ratio (y) = 0.28532 0.20118
# Poissons Ratio (z) = 0.33809 0.33810
#
# Static dielectric constant tensor:
#      x y z
#    x 3.650100 0.000000 0.000000 
#    y 0.000000 3.650100 0.000000 
#    z 0.000000 0.000000 3.489510 
# 
# 
# High freq. dielectric constant tensor:
#      x y z
#    x 1.765330 0.000000 0.000000 
#    y 0.000000 1.765330 0.000000 
#    z 0.000000 0.000000 1.758090 
# 
# From -- ./inp_files/11272.got.cif
#   From: 2010.03.12/outbox.cif.g09.slc.cpg/sg142_6_cif.got.tgz:11272.got - 2010.04.03 13:27:16.
