data_PCOD8321310
_publ_section_title
;
Structure prediction by ZEFSAII (Michael W. Deem and Ramdas Pophale) SiO2 
 PCOD8321310
Probable space group: I 41/A C D
;
_chemical_formula_sum "Si O2"
_cell_formula_units_Z 112
_cell_length_a 15.295142
_cell_length_b 15.295142
_cell_length_c 19.677206
_cell_angle_alpha 90.000000
_cell_angle_beta 90.000000
_cell_angle_gamma 90.000000
_cell_volume 4603.312506
_symmetry_space_group_name_H-M "I 41/A C D"
_symmetry_group_IT_number 142
_space_group.IT_coordinate_system_code '2'
_symmetry_cell_setting 'tetragonal'
loop_
_space_group_symop_operation_xyz
x,y,z
1/4-y,3/4+x,1/4+z
-x,1/2-y,z
1/4+y,1/4-x,3/4+z
x,-y,1/2-z
1/2-x,y,-z
3/4+y,1/4+x,1/4-z
1/4-y,1/4-x,1/4-z
-x,-y,-z
3/4+y,1/4-x,3/4-z
x,1/2+y,-z
3/4-y,3/4+x,1/4-z
-x,y,1/2+z
1/2+x,-y,z
1/4-y,3/4-x,3/4+z
3/4+y,3/4+x,3/4+z
1/2+x,1/2+y,1/2+z
3/4-y,1/4+x,3/4+z
1/2-x,-y,1/2+z
3/4+y,3/4-x,1/4+z
1/2+x,1/2-y,-z
-x,1/2+y,1/2-z
1/4+y,3/4+x,3/4-z
3/4-y,3/4-x,3/4-z
1/2-x,1/2-y,1/2-z
1/4+y,3/4-x,1/4-z
1/2+x,y,1/2-z
1/4-y,1/4+x,3/4-z
1/2-x,1/2+y,z
x,1/2-y,1/2+z
3/4-y,1/4-x,1/4+z
1/4+y,1/4+x,1/4+z
loop_
_atom_site_type_symbol
_atom_site_label
_atom_site_fract_x
_atom_site_fract_y
_atom_site_fract_z
Si Si1 0.211349 0.793812 0.605463
Si Si2 0.435270 0.330927 0.710189
Si Si3 0.388272 0.952511 0.066382
Si Si4 0.250000 0.072331 0.000000
O O1 0.170369 0.739809 0.542783
O O2 0.131278 0.835811 0.646983
O O3 0.261543 0.730194 0.656721
O O4 0.267582 0.870188 0.568633
O O5 0.500000 0.250000 0.704481
O O6 0.386819 0.331482 0.781639
O O7 0.318446 0.931555 0.125000
O O8 0.338387 0.015412 0.012264
#
# Coordination Sequence:
#
# PCOD8321310 Si02
#       4
#    32  32  32  16
#     4  12  23  46  73 108 152 206 258 322 399 476
#     4  12  23  47  75 106 154 204 259 320 394 479
#     4  12  27  46  72 114 152 199 266 330 393 484
#     4  12  26  46  76 106 156 206 254 326 408 472
#
# _framework density 24.330304999999999
#
# number of rings (size 3 to 8) (size 9 to 14) (size 15 to 20)
#    0.000    0.000    5.714    4.286    0.000    0.571 
#    0.000    2.857    0.000    0.000    0.000    0.000 
#    0.000    0.000    0.000    0.000    0.000    0.000 
#
# Total GULP energy -694389.376580 kJ/mol
# GULP energy per Si atom -12399.810296 kJ/mol
# Density = 2.427493 g / cm^3
# Si number density = 24.330305 Si / 1000 Ang^3
#
#
#
# Elastic Constant Matrix: (Units=GPa)
#
#
# Indices 1 2 3 4 5 6 
#
# 1 82.9428 18.7141 50.5687 0.0000 0.0000 0.0000
# 2 18.7141 82.9424 50.5683 0.0000 0.0000 0.0000
# 3 50.5687 50.5683 105.5180 0.0000 0.0000 0.0000
# 4 0.0000 0.0000 0.0000 34.8110 0.0000 0.0000
# 5 0.0000 0.0000 0.0000 0.0000 34.8103 0.0000
# 6 0.0000 0.0000 0.0000 0.0000 0.0000 25.1135
#
#
#
# Elastic Compliance Matrix: (Units=1/GPa)
#
#
# Indices 1 2 3 4 5 6 
#
# 1 0.017185 0.001616 -0.009010 0.000000 0.000000 0.000000
# 2 0.001616 0.017185 -0.009010 0.000000 0.000000 0.000000
# 3 -0.009010 -0.009010 0.018113 0.000000 0.000000 0.000000
# 4 0.000000 0.000000 0.000000 0.028727 0.000000 0.000000
# 5 0.000000 0.000000 0.000000 0.000000 0.028727 0.000000
# 6 0.000000 0.000000 0.000000 0.000000 0.000000 0.039819
#
#
# Mechanical properties :
#
#
# Convention : Reuss Voigt Hill
#
# Bulk Modulus (GPa) = 50.82711 56.78947 53.80829
# Shear Modulus (GPa) = 26.43758 29.05041 27.74399
#
# Velocity S-wave (km/s) = 3.29995 3.45918 3.38051
# Velocity P-wave (km/s) = 5.95444 6.27266 6.11562
#
# Compressibility (1/GPa) = 0.01967454
#
# Stress axis : x y z
#
# Youngs Moduli (GPa) = 58.18904 58.18899 55.20801
#
# Poissons Ratio (x) = -0.09403 0.49745
# Poissons Ratio (y) = -0.09403 0.49744
# Poissons Ratio (z) = 0.52431 0.52430
#
# Static dielectric constant tensor:
#      x y z
#    x 4.465460 0.000000 0.000000 
#    y 0.000000 4.465450 0.000000 
#    z 0.000000 0.000000 4.472500 
# 
# 
# High freq. dielectric constant tensor:
#      x y z
#    x 1.969910 0.000000 0.000000 
#    y 0.000000 1.969910 0.000000 
#    z 0.000000 0.000000 1.973070 
# 
# From -- ./inp_files/9737.got.cif
#   From: 2010.03.12/outbox.cif.g09.slc.cpg/sg142_5_cif.got.tgz:9737.got - 2010.04.03 13:27:16.
