data_PCOD8321658
_publ_section_title
;
Structure prediction by ZEFSAII (Michael W. Deem and Ramdas Pophale) SiO2 
 PCOD8321658
Probable space group: P -3
;
_chemical_formula_sum "Si O2"
_cell_formula_units_Z 48
_cell_length_a 18.034810
_cell_length_b 18.034810
_cell_length_c 9.281368
_cell_angle_alpha 90.000000
_cell_angle_beta 90.000000
_cell_angle_gamma 120.000000
_cell_volume 2614.362267
_symmetry_space_group_name_H-M "P -3"
_symmetry_group_IT_number 147
_symmetry_cell_setting 'hexagonal'
loop_
_space_group_symop_operation_xyz
x,y,z
-y,x-y,z
-x+y,-x,z
-x,-y,-z
y,-x+y,-z
x-y,x,-z
loop_
_atom_site_type_symbol
_atom_site_label
_atom_site_fract_x
_atom_site_fract_y
_atom_site_fract_z
Si Si1 0.105034 0.472972 0.663453
Si Si2 0.088780 0.193746 0.828484
Si Si3 0.105034 0.472973 0.336547
Si Si4 0.363805 0.458967 0.663734
Si Si5 0.541034 0.904838 0.336267
Si Si6 0.196403 0.808078 0.170621
Si Si7 0.193746 0.104966 0.828483
Si Si8 0.388325 0.196402 0.170621
O O1 0.129960 0.464643 0.499999
O O2 0.129056 0.570286 0.694598
O O3 0.157633 0.448940 0.772236
O O4 0.005463 0.410205 0.689448
O O5 0.141746 0.149768 0.768332
O O6 0.132818 0.291236 0.772496
O O7 0.991978 0.141748 0.768332
O O8 0.088549 0.191662 0.000000
O O9 0.129056 0.570287 0.305402
O O10 0.157634 0.448941 0.227763
O O11 0.005463 0.410206 0.310551
O O12 0.329526 0.447419 0.500001
O O13 0.287751 0.424910 0.776221
O O14 0.575092 0.862841 0.223781
O O15 0.158421 0.867185 0.227505
O O16 0.198363 0.807481 0.000000
#
# Coordination Sequence:
#
# PCOD8321658 Si02
#       8
#     6   6   6   6   6   6   6   6
#     4   9  19  37  58  77 100 136 182 225 266 318
#     4   9  17  29  46  71 106 146 182 213 249 300
#     4   9  19  37  58  77 100 136 182 225 266 318
#     4   9  19  37  58  77 100 136 182 225 266 318
#     4   9  19  37  58  77 100 136 182 225 266 318
#     4  11  21  32  51  82 114 140 171 219 276 332
#     4   9  17  29  46  71 106 146 182 213 249 300
#     4  11  21  32  51  82 114 140 171 219 276 332
#
# _framework density 18.360116999999999
#
# number of rings (size 3 to 8) (size 9 to 14) (size 15 to 20)
#    0.000    2.500    0.000    4.000    0.000    5.000 
#    1.500    2.500    0.000    0.000    0.000    0.000 
#    0.000   12.000    0.000    0.000    0.000    0.000 
#
# Total GULP energy -595239.237484 kJ/mol
# GULP energy per Si atom -12400.817448 kJ/mol
# Density = 1.831833 g / cm^3
# Si number density = 18.360117 Si / 1000 Ang^3
#
#
#
# Elastic Constant Matrix: (Units=GPa)
#
#
# Indices 1 2 3 4 5 6 
#
# 1 50.4428 5.5676 20.9665 0.0002 -0.0001 0.0000
# 2 5.5676 50.4428 20.9665 -0.0002 0.0001 0.0000
# 3 20.9665 20.9665 55.4214 0.0000 0.0000 0.0000
# 4 0.0002 -0.0002 0.0000 25.0272 0.0000 0.0001
# 5 -0.0001 0.0001 0.0000 0.0000 25.0272 0.0002
# 6 0.0000 0.0000 0.0000 0.0001 0.0002 22.4376
#
#
#
# Elastic Compliance Matrix: (Units=1/GPa)
#
#
# Indices 1 2 3 4 5 6 
#
# 1 0.023596 0.001312 -0.009423 0.000000 0.000000 0.000000
# 2 0.001312 0.023596 -0.009423 0.000000 0.000000 0.000000
# 3 -0.009423 -0.009423 0.025173 0.000000 0.000000 0.000000
# 4 0.000000 0.000000 0.000000 0.039956 0.000000 0.000000
# 5 0.000000 0.000000 0.000000 0.000000 0.039956 0.000000
# 6 0.000000 0.000000 0.000000 0.000000 0.000000 0.044568
#
#
# Mechanical properties :
#
#
# Convention : Reuss Voigt Hill
#
# Bulk Modulus (GPa) = 26.81119 27.92311 27.36715
# Shear Modulus (GPa) = 20.46263 21.75216 21.10739
#
# Velocity S-wave (km/s) = 3.34206 3.44575 3.39430
# Velocity P-wave (km/s) = 5.43389 5.57428 5.50453
#
# Compressibility (1/GPa) = 0.03729786
#
# Stress axis : x y z
#
# Youngs Moduli (GPa) = 42.37946 42.37946 39.72458
#
# Poissons Ratio (x) = -0.05561 0.37433
# Poissons Ratio (y) = -0.05561 0.37433
# Poissons Ratio (z) = 0.39935 0.39935
#
# Static dielectric constant tensor:
#      x y z
#    x 3.492720 0.000000 0.000000 
#    y 0.000000 3.492720 0.000000 
#    z 0.000000 0.000000 3.094120 
# 
# 
# High freq. dielectric constant tensor:
#      x y z
#    x 1.719130 0.000000 0.000000 
#    y 0.000000 1.719130 0.000000 
#    z 0.000000 0.000000 1.685020 
# 
# From -- ./inp_files/682.got.cif
#   From: 2010.03.12/outbox.cif.g09.slc.cpg/sg147_cif.got.tgz:682.got - 2010.04.03 13:37:56.
