data_PCOD8321583
_publ_section_title
;
Structure prediction by ZEFSAII (Michael W. Deem and Ramdas Pophale) SiO2 
 PCOD8321583
Probable space group: P -3
;
_chemical_formula_sum "Si O2"
_cell_formula_units_Z 42
_cell_length_a 20.209392
_cell_length_b 20.209392
_cell_length_c 6.365214
_cell_angle_alpha 90.000000
_cell_angle_beta 90.000000
_cell_angle_gamma 120.000000
_cell_volume 2251.386911
_symmetry_space_group_name_H-M "P -3"
_symmetry_group_IT_number 147
_symmetry_cell_setting 'hexagonal'
loop_
_space_group_symop_operation_xyz
x,y,z
-y,x-y,z
-x+y,-x,z
-x,-y,-z
y,-x+y,-z
x-y,x,-z
loop_
_atom_site_type_symbol
_atom_site_label
_atom_site_fract_x
_atom_site_fract_y
_atom_site_fract_z
Si Si1 0.902659 0.408655 0.572712
Si Si2 0.347402 0.890837 0.259019
Si Si3 0.949261 0.689680 0.465197
Si Si4 0.314168 0.431518 0.812603
Si Si5 0.121227 0.795971 0.477986
Si Si6 0.610498 0.625256 0.877755
Si Si7 0.202151 0.736319 0.205036
O O1 0.903825 0.488180 0.586352
O O2 0.908965 0.390579 0.328010
O O3 0.822181 0.339596 0.657682
O O4 0.974745 0.417271 0.706612
O O5 0.307586 0.936710 0.351819
O O6 0.289048 0.800037 0.249724
O O7 0.378867 0.921392 0.023336
O O8 0.887011 0.716922 0.487071
O O9 0.943628 0.650256 0.240762
O O10 0.031300 0.766387 0.482715
O O11 0.241498 0.383926 0.667991
O O12 0.329125 0.377449 0.964962
O O13 0.290157 0.481018 0.961359
O O14 0.145822 0.769962 0.265278
#
# Coordination Sequence:
#
# PCOD8321583 Si02
#       7
#     6   6   6   6   6   6   6
#     4  10  21  35  53  81 112 144 188 243 275 331
#     4  11  22  35  56  82 108 154 187 232 290 330
#     4  11  21  35  57  83 112 139 187 229 282 338
#     4  10  17  36  55  75 115 142 180 235 279 324
#     4  10  19  36  54  81 110 140 179 230 278 336
#     4  11  19  34  54  82 109 144 181 230 280 339
#     4   9  20  37  53  75 109 148 190 231 275 335
#
# _framework density 18.655166999999999
#
# number of rings (size 3 to 8) (size 9 to 14) (size 15 to 20)
#    0.000    1.714    5.714    1.286    0.000    4.571 
#    0.857    0.000    0.000    0.286    3.714    0.000 
#    0.000    1.143    0.000    0.000    0.000    0.000 
#
# Total GULP energy -520526.163694 kJ/mol
# GULP energy per Si atom -12393.480088 kJ/mol
# Density = 1.861271 g / cm^3
# Si number density = 18.655167 Si / 1000 Ang^3
#
#
#
# Elastic Constant Matrix: (Units=GPa)
#
#
# Indices 1 2 3 4 5 6 
#
# 1 94.9180 50.2729 25.9101 -1.0142 -2.4417 0.0000
# 2 50.2729 94.9180 25.9101 1.0142 2.4417 0.0000
# 3 25.9101 25.9101 100.1925 0.0000 0.0000 0.0000
# 4 -1.0142 1.0142 0.0000 19.2586 0.0000 2.4417
# 5 -2.4417 2.4417 0.0000 0.0000 19.2586 -1.0142
# 6 0.0000 0.0000 0.0000 2.4417 -1.0142 22.3226
#
#
#
# Elastic Compliance Matrix: (Units=1/GPa)
#
#
# Indices 1 2 3 4 5 6 
#
# 1 0.015178 -0.007591 -0.001962 0.001199 0.002887 0.000000
# 2 -0.007591 0.015178 -0.001962 -0.001199 -0.002887 0.000000
# 3 -0.001962 -0.001962 0.010996 0.000000 0.000000 0.000000
# 4 0.001199 -0.001199 0.000000 0.052783 0.000000 -0.005774
# 5 0.002887 -0.002887 0.000000 0.000000 0.052783 0.002398
# 6 0.000000 0.000000 0.000000 -0.005774 0.002398 0.045538
#
#
# Mechanical properties :
#
#
# Convention : Reuss Voigt Hill
#
# Bulk Modulus (GPa) = 54.57805 54.91273 54.74539
# Shear Modulus (GPa) = 22.56369 24.69698 23.63033
#
# Velocity S-wave (km/s) = 3.48158 3.64245 3.56292
# Velocity P-wave (km/s) = 6.74401 6.86946 6.80702
#
# Compressibility (1/GPa) = 0.01832238
#
# Stress axis : x y z
#
# Youngs Moduli (GPa) = 65.88283 65.88283 90.94489
#
# Poissons Ratio (x) = 0.50009 0.17846
# Poissons Ratio (y) = 0.50009 0.17846
# Poissons Ratio (z) = 0.12928 0.12928
#
# Static dielectric constant tensor:
#      x y z
#    x 3.282850 0.000000 0.000000 
#    y 0.000000 3.282850 0.000000 
#    z 0.000000 0.000000 3.807460 
# 
# 
# High freq. dielectric constant tensor:
#      x y z
#    x 1.696450 0.000000 0.000000 
#    y 0.000000 1.696450 0.000000 
#    z 0.000000 0.000000 1.743060 
# 
# From -- ./inp_files/235.got.cif
#   From: 2010.03.12/outbox.cif.g09.slc.cpg/sg147_cif.got.tgz:235.got - 2010.04.03 13:37:56.
