data_PCOD8321868
_publ_section_title
;
Structure prediction by ZEFSAII (Michael W. Deem and Ramdas Pophale) SiO2 
 PCOD8321868
Probable space group: P 3 2 1
;
_chemical_formula_sum "Si O2"
_cell_formula_units_Z 19
_cell_length_a 11.736399
_cell_length_b 11.736399
_cell_length_c 9.261370
_cell_angle_alpha 90.000000
_cell_angle_beta 90.000000
_cell_angle_gamma 120.000000
_cell_volume 1104.779477
_symmetry_space_group_name_H-M "P 3 2 1"
_symmetry_group_IT_number 150
_symmetry_cell_setting 'hexagonal'
loop_
_space_group_symop_operation_xyz
x,y,z
-y,x-y,z
-x+y,-x,z
x-y,-y,-z
-x,-x+y,-z
y,x,-z
loop_
_atom_site_type_symbol
_atom_site_label
_atom_site_fract_x
_atom_site_fract_y
_atom_site_fract_z
Si Si1 0.101515 0.592111 0.161153
Si Si2 0.666668 0.333334 0.641166
Si Si3 0.836254 0.571191 0.118988
Si Si4 0.664640 0.664640 0.000000
Si Si5 0.333335 0.666668 0.699573
O O1 0.191391 0.639149 0.303095
O O2 0.986144 0.630662 0.175635
O O3 0.187427 0.665500 0.019842
O O4 0.044275 0.437267 0.134570
O O5 0.666668 0.333334 0.471294
O O6 0.736471 0.483358 0.244900
O O7 0.801409 0.682725 0.065315
#
# Coordination Sequence:
#
# PCOD8321868 Si02
#       5
#     6   2   6   3   2
#     4  10  19  32  54  73 107 137 181 222 279 316
#     4  12  22  32  46  84 118 143 181 219 265 344
#     4  10  18  33  52  76  98 150 174 224 271 324
#     4  10  16  30  60  70 102 130 190 222 266 320
#     4  12  19  29  49  78 121 146 172 216 277 335
#
# _framework density 17.198001999999999
#
# number of rings (size 3 to 8) (size 9 to 14) (size 15 to 20)
#    0.000    1.895    9.474    0.000    0.000    1.263 
#    0.000    0.000    0.000    5.053    0.000    0.000 
#    0.000    0.000    2.526    0.000    0.000    0.000 
#
# Total GULP energy -235405.666086 kJ/mol
# GULP energy per Si atom -12389.771899 kJ/mol
# Density = 1.715886 g / cm^3
# Si number density = 17.198002 Si / 1000 Ang^3
#
#
#
# Elastic Constant Matrix: (Units=GPa)
#
#
# Indices 1 2 3 4 5 6 
#
# 1 100.9208 43.1070 37.0782 0.9839 0.0000 0.0000
# 2 43.1070 100.9198 37.0773 -0.9834 0.0000 0.0000
# 3 37.0782 37.0773 116.2992 0.0007 0.0000 0.0000
# 4 0.9839 -0.9834 0.0007 17.2289 0.0000 0.0000
# 5 0.0000 0.0000 0.0000 0.0000 17.2292 0.9839
# 6 0.0000 0.0000 0.0000 0.0000 0.9839 28.9071
#
#
#
# Elastic Compliance Matrix: (Units=1/GPa)
#
#
# Indices 1 2 3 4 5 6 
#
# 1 0.012819 -0.004512 -0.002648 -0.000989 0.000000 0.000000
# 2 -0.004512 0.012819 -0.002648 0.000989 0.000000 0.000000
# 3 -0.002648 -0.002648 0.010287 0.000000 0.000000 0.000000
# 4 -0.000989 0.000989 0.000000 0.058155 0.000000 0.000000
# 5 0.000000 0.000000 0.000000 0.000000 0.058154 -0.001979
# 6 0.000000 0.000000 0.000000 0.000000 -0.001979 0.034661
#
#
# Mechanical properties :
#
#
# Convention : Reuss Voigt Hill
#
# Bulk Modulus (GPa) = 61.32210 61.40718 61.36464
# Shear Modulus (GPa) = 23.59078 26.06488 24.82783
#
# Velocity S-wave (km/s) = 3.70769 3.89726 3.80366
# Velocity P-wave (km/s) = 7.35277 7.48566 7.41951
#
# Compressibility (1/GPa) = 0.01630734
#
# Stress axis : x y z
#
# Youngs Moduli (GPa) = 78.01131 78.01099 97.20899
#
# Poissons Ratio (x) = 0.35199 0.25744
# Poissons Ratio (y) = 0.35199 0.25743
# Poissons Ratio (z) = 0.20660 0.20659
#
# Static dielectric constant tensor:
#      x y z
#    x 3.251560 0.000000 0.000000 
#    y 0.000000 3.251570 -0.000010 
#    z 0.000000 -0.000010 2.853070 
# 
# 
# High freq. dielectric constant tensor:
#      x y z
#    x 1.649610 0.000000 0.000000 
#    y 0.000000 1.649610 0.000000 
#    z 0.000000 0.000000 1.625180 
# 
# From -- ./inp_files/430.got.cif
#   From: 2010.03.12/outbox.cif.g09.slc.cpg/sg150_cif.got.tgz:430.got - 2010.04.03 13:41:37.
