data_PCOD8321513
_publ_section_title
;
Structure prediction by ZEFSAII (Michael W. Deem and Ramdas Pophale) SiO2 
 PCOD8321513
Probable space group: R 3
;
_chemical_formula_sum "Si O2"
_cell_formula_units_Z 72
_cell_length_a 22.061470
_cell_length_b 22.061470
_cell_length_c 9.388137
_cell_angle_alpha 90.000000
_cell_angle_beta 90.000000
_cell_angle_gamma 120.000000
_cell_volume 3957.117483
_symmetry_space_group_name_H-M "R 3"
_symmetry_group_IT_number 146
_symmetry_cell_setting 'hexagonal'
loop_
_space_group_symop_operation_xyz
x,y,z
-y,x-y,z
-x+y,-x,z
2/3+x,1/3+y,1/3+z
2/3-y,1/3+x-y,1/3+z
2/3-x+y,1/3-x,1/3+z
1/3+x,2/3+y,2/3+z
1/3-y,2/3+x-y,2/3+z
1/3-x+y,2/3-x,2/3+z
loop_
_atom_site_type_symbol
_atom_site_label
_atom_site_fract_x
_atom_site_fract_y
_atom_site_fract_z
Si Si1 0.849709 0.754351 0.305600
Si Si2 0.378898 0.240170 0.955177
Si Si3 0.302059 0.040755 0.533486
Si Si4 0.671072 0.548440 0.394244
Si Si5 0.242492 0.885138 0.507473
Si Si6 0.810623 0.596222 0.248120
Si Si7 0.448921 0.350215 0.724953
Si Si8 0.724726 0.989933 0.083581
O O1 0.794403 0.748910 0.420298
O O2 0.845490 0.800709 0.174790
O O3 0.832482 0.677812 0.252545
O O4 0.924874 0.789644 0.385109
O O5 0.327996 0.168883 0.874726
O O6 0.435855 0.289887 0.837768
O O7 0.421977 0.226387 0.079704
O O8 0.330199 0.267972 0.026562
O O9 0.377964 0.065942 0.465008
O O10 0.307838 0.085711 0.670978
O O11 0.264145 0.959999 0.576735
O O12 0.628301 0.530753 0.247235
O O13 0.742257 0.549886 0.346171
O O14 0.870792 0.580756 0.300672
O O15 0.431207 0.327931 0.561545
O O16 0.398865 0.377234 0.785182
#
# Coordination Sequence:
#
# PCOD8321513 Si02
#       8
#     9   9   9   9   9   9   9   9
#     4  10  20  36  51  76 111 156 193 226 289 346
#     4  12  22  34  53  82 118 157 195 235 291 350
#     4  11  21  31  51  78 110 149 186 229 286 340
#     4  11  19  37  54  74 115 153 185 239 283 353
#     4  12  21  32  51  78 113 153 187 230 293 343
#     4  10  21  34  55  80 108 158 200 228 288 354
#     4  11  22  34  53  76 114 160 191 233 283 348
#     4  11  20  36  52  76 115 160 191 232 281 342
#
# _framework density 18.195063000000001
#
# number of rings (size 3 to 8) (size 9 to 14) (size 15 to 20)
#    0.000    1.000    7.500    1.500    5.250    0.000 
#    0.000    0.000    0.000    0.000    0.000    0.000 
#   22.500    0.000   10.250    0.000    0.000    0.000 
#
# Total GULP energy -297408.976877 kJ/mol
# GULP energy per Si atom -12392.040703 kJ/mol
# Density = 1.815365 g / cm^3
# Si number density = 18.195063 Si / 1000 Ang^3
#
#
#
# Elastic Constant Matrix: (Units=GPa)
#
#
# Indices 1 2 3 4 5 6 
#
# 1 56.3949 22.9437 24.8237 0.6598 5.9824 0.0010
# 2 22.9437 56.3931 24.8156 -0.6585 -5.9746 0.0006
# 3 24.8237 24.8156 116.8152 0.0036 0.0268 0.0043
# 4 0.6598 -0.6585 0.0036 27.9404 0.0026 -5.9745
# 5 5.9824 -5.9746 0.0268 0.0026 27.9558 0.6609
# 6 0.0010 0.0006 0.0043 -5.9745 0.6609 16.7258
#
#
#
# Elastic Compliance Matrix: (Units=1/GPa)
#
#
# Indices 1 2 3 4 5 6 
#
# 1 0.023470 -0.008933 -0.003088 -0.000764 -0.006928 0.000001
# 2 -0.008933 0.023469 -0.003089 0.000764 0.006930 -0.000001
# 3 -0.003088 -0.003089 0.009873 -0.000002 -0.000009 -0.000003
# 4 -0.000764 0.000764 -0.000002 0.038789 -0.000005 0.013856
# 5 -0.006928 0.006930 -0.000009 -0.000005 0.038771 -0.001533
# 6 0.000001 -0.000001 -0.000003 0.013856 -0.001533 0.064798
#
#
# Mechanical properties :
#
#
# Convention : Reuss Voigt Hill
#
# Bulk Modulus (GPa) = 37.60514 41.64104 39.62309
# Shear Modulus (GPa) = 20.98604 24.99243 22.98923
#
# Velocity S-wave (km/s) = 3.39985 3.71021 3.55841
# Velocity P-wave (km/s) = 6.01037 6.42571 6.22151
#
# Compressibility (1/GPa) = 0.02659211
#
# Stress axis : x y z
#
# Youngs Moduli (GPa) = 42.60847 42.60862 101.28625
#
# Poissons Ratio (x) = 0.38061 0.31279
# Poissons Ratio (y) = 0.38061 0.31288
# Poissons Ratio (z) = 0.13158 0.13162
#
# Static dielectric constant tensor:
#      x y z
#    x 3.218000 0.000000 -0.000010 
#    y 0.000000 3.218000 0.000000 
#    z -0.000010 0.000000 3.621210 
# 
# 
# High freq. dielectric constant tensor:
#      x y z
#    x 1.670280 0.000000 0.000000 
#    y 0.000000 1.670280 0.000000 
#    z 0.000000 0.000000 1.732190 
# 
# From -- ./inp_files/928.got.cif
#   From: 2010.06.25/outbox.cif.g09.slc.cpg/sg146_cif.got.tgz:928.got - 2010.06.28 11:17:22.
