data_PCOD8321828
_publ_section_title
;
Structure prediction by ZEFSAII (Michael W. Deem and Ramdas Pophale) SiO2 
 PCOD8321828
Probable space group: P 3 1 2
;
_chemical_formula_sum "Si O2"
_cell_formula_units_Z 36
_cell_length_a 20.933806
_cell_length_b 20.933806
_cell_length_c 7.761480
_cell_angle_alpha 90.000000
_cell_angle_beta 90.000000
_cell_angle_gamma 120.000000
_cell_volume 2945.585034
_symmetry_space_group_name_H-M "P 3 1 2"
_symmetry_group_IT_number 149
_symmetry_cell_setting 'hexagonal'
loop_
_space_group_symop_operation_xyz
x,y,z
-y,x-y,z
-x+y,-x,z
-y,-x,-z
-x+y,y,-z
x,x-y,-z
loop_
_atom_site_type_symbol
_atom_site_label
_atom_site_fract_x
_atom_site_fract_y
_atom_site_fract_z
Si Si1 0.049561 0.250853 0.191474
Si Si2 0.999068 0.150471 0.500000
Si Si3 0.334266 0.818070 0.500000
Si Si4 0.283773 0.415815 0.191474
Si Si5 0.201292 0.950439 0.808526
Si Si6 0.132042 0.716227 0.808526
O O1 0.125983 0.251966 0.200080
O O2 0.065327 0.333334 0.232782
O O3 0.994418 0.193526 0.331909
O O4 0.014803 0.226408 0.000000
O O5 0.931109 0.068892 0.500000
O O6 0.072516 0.145031 0.500000
O O7 0.994418 0.193526 0.668091
O O8 0.260817 0.739183 0.500000
O O9 0.402223 0.804446 0.500000
O O10 0.338917 0.865774 0.668092
O O11 0.338917 0.865774 0.331908
O O12 0.268007 0.333334 0.232782
O O13 0.207351 0.414702 0.200081
O O14 0.318531 0.440260 1.000000
#
# Coordination Sequence:
#
# PCOD8321828 Si02
#       6
#     6   6   6   6   6   6
#     4   8  14  25  39  50  58  74 105 139 162 181
#     4  10  18  25  33  47  68  89 104 122 157 206
#     4  10  18  25  33  47  68  89 104 122 157 206
#     4   8  14  25  39  50  58  74 105 139 162 181
#     4   8  14  25  39  50  58  74 105 139 162 181
#     4   8  14  25  39  50  58  74 105 139 162 181
#
# _framework density 12.221681
#
# number of rings (size 3 to 8) (size 9 to 14) (size 15 to 20)
#    0.000    3.333    0.000    3.333    0.000    5.333 
#    0.000    0.000    0.000    4.000    0.000    0.000 
#    0.000    0.000    0.000    0.000    0.000    0.000 
#
# Total GULP energy -446086.585652 kJ/mol
# GULP energy per Si atom -12391.294046 kJ/mol
# Density = 1.219386 g / cm^3
# Si number density = 12.221681 Si / 1000 Ang^3
#
#
#
# Elastic Constant Matrix: (Units=GPa)
#
#
# Indices 1 2 3 4 5 6 
#
# 1 35.9692 18.8571 36.5574 0.0000 0.0000 0.0000
# 2 18.8571 35.9692 36.5574 0.0000 0.0000 0.0000
# 3 36.5574 36.5574 113.0866 0.0000 0.0000 0.0000
# 4 0.0000 0.0000 0.0000 10.4270 0.0000 0.0000
# 5 0.0000 0.0000 0.0000 0.0000 10.4270 0.0000
# 6 0.0000 0.0000 0.0000 0.0000 0.0000 8.5560
#
#
#
# Elastic Compliance Matrix: (Units=1/GPa)
#
#
# Indices 1 2 3 4 5 6 
#
# 1 0.045250 -0.013189 -0.010364 0.000000 0.000000 0.000000
# 2 -0.013189 0.045250 -0.010364 0.000000 0.000000 0.000000
# 3 -0.010364 -0.010364 0.015544 0.000000 0.000000 0.000000
# 4 0.000000 0.000000 0.000000 0.095905 0.000000 0.000000
# 5 0.000000 0.000000 0.000000 0.000000 0.095905 0.000000
# 6 0.000000 0.000000 0.000000 0.000000 0.000000 0.116877
#
#
# Mechanical properties :
#
#
# Convention : Reuss Voigt Hill
#
# Bulk Modulus (GPa) = 26.17224 40.99654 33.58439
# Shear Modulus (GPa) = 10.09488 12.08554 11.09021
#
# Velocity S-wave (km/s) = 2.87711 3.14803 3.01561
# Velocity P-wave (km/s) = 5.70071 6.84327 6.29795
#
# Compressibility (1/GPa) = 0.03820842
#
# Stress axis : x y z
#
# Youngs Moduli (GPa) = 22.09958 22.09958 64.33463
#
# Poissons Ratio (x) = 0.29146 0.66679
# Poissons Ratio (y) = 0.29146 0.66679
# Poissons Ratio (z) = 0.22905 0.22905
#
# Static dielectric constant tensor:
#      x y z
#    x 2.245340 0.000000 0.000000 
#    y 0.000000 2.245340 0.000000 
#    z 0.000000 0.000000 2.957080 
# 
# 
# High freq. dielectric constant tensor:
#      x y z
#    x 1.419780 0.000000 0.000000 
#    y 0.000000 1.419780 0.000000 
#    z 0.000000 0.000000 1.487690 
# 
# From -- ./inp_files/642.got.cif
#   From: 2010.03.12/outbox.cif.g09.slc.cpg/sg149_cif.got.tgz:642.got - 2010.04.03 13:40:41.
