data_PCOD8321988
_publ_section_title
;
Structure prediction by ZEFSAII (Michael W. Deem and Ramdas Pophale) SiO2 
 PCOD8321988
Probable space group: P 31 1 2
;
_chemical_formula_sum "Si O2"
_cell_formula_units_Z 36
_cell_length_a 9.069005
_cell_length_b 9.069005
_cell_length_c 25.287161
_cell_angle_alpha 90.000000
_cell_angle_beta 90.000000
_cell_angle_gamma 120.000000
_cell_volume 1801.150438
_symmetry_space_group_name_H-M "P 31 1 2"
_symmetry_group_IT_number 151
_symmetry_cell_setting 'hexagonal'
loop_
_space_group_symop_operation_xyz
x,y,z
-y,x-y,1/3+z
-x+y,-x,2/3+z
-y,-x,2/3-z
-x+y,y,1/3-z
x,x-y,-z
loop_
_atom_site_type_symbol
_atom_site_label
_atom_site_fract_x
_atom_site_fract_y
_atom_site_fract_z
Si Si1 0.023482 0.253655 0.870096
Si Si2 0.354672 0.827228 0.783499
Si Si3 0.333011 0.349188 0.811707
Si Si4 0.290806 0.477132 0.607326
Si Si5 0.828732 0.542100 0.927937
Si Si6 0.407290 0.222838 0.622157
O O1 0.098529 0.455145 0.859888
O O2 0.188815 0.233443 0.856183
O O3 0.951277 0.201717 0.929873
O O4 0.860996 0.139005 0.833334
O O5 0.228033 0.771967 0.833334
O O6 0.294710 0.671769 0.743358
O O7 0.346077 0.970686 0.749223
O O8 0.462813 0.537188 0.833334
O O9 0.230096 0.359964 0.762101
O O10 0.438361 0.262729 0.790655
O O11 0.231517 0.463034 0.666667
O O12 0.413066 0.395346 0.603578
O O13 0.760708 0.342728 0.934848
O O14 0.793349 0.614439 0.981427
#
# Coordination Sequence:
#
# PCOD8321988 Si02
#       6
#     6   6   6   6   6   6
#     4  11  20  36  64  90 123 164 209 262 319 381
#     4  11  22  40  63  94 124 165 224 259 316 389
#     4  12  23  41  61  99 127 163 221 266 320 381
#     4  12  22  39  71  93 125 169 220 267 313 392
#     4  10  25  41  63  93 132 172 211 272 325 393
#     4  10  22  42  64  90 128 173 217 253 336 390
#
# _framework density 19.987226
#
# number of rings (size 3 to 8) (size 9 to 14) (size 15 to 20)
#    0.000    1.000    6.667    0.000    4.667    4.667 
#    0.000    0.000    0.000    0.000    0.000    0.000 
#    0.000    0.000    0.000    0.000    0.000    0.000 
#
# Total GULP energy -446223.564449 kJ/mol
# GULP energy per Si atom -12395.099012 kJ/mol
# Density = 1.994173 g / cm^3
# Si number density = 19.987226 Si / 1000 Ang^3
#
#
#
# Elastic Constant Matrix: (Units=GPa)
#
#
# Indices 1 2 3 4 5 6 
#
# 1 104.1329 50.6146 41.2434 -0.0002 -5.1509 0.0000
# 2 50.6146 104.1329 41.2434 0.0002 5.1509 0.0000
# 3 41.2434 41.2434 81.0130 0.0000 0.0000 0.0000
# 4 -0.0002 0.0002 0.0000 32.2206 0.0000 5.1509
# 5 -5.1509 5.1509 0.0000 0.0000 32.2206 -0.0002
# 6 0.0000 0.0000 0.0000 5.1509 -0.0002 26.7592
#
#
#
# Elastic Compliance Matrix: (Units=1/GPa)
#
#
# Indices 1 2 3 4 5 6 
#
# 1 0.014074 -0.005205 -0.004515 0.000000 0.003082 0.000000
# 2 -0.005205 0.014074 -0.004515 0.000000 -0.003082 0.000000
# 3 -0.004515 -0.004515 0.016941 0.000000 0.000000 0.000000
# 4 0.000000 0.000000 0.000000 0.032021 0.000000 -0.006164
# 5 0.003082 -0.003082 0.000000 0.000000 0.032021 0.000000
# 6 0.000000 0.000000 0.000000 -0.006164 0.000000 0.038557
#
#
# Mechanical properties :
#
#
# Convention : Reuss Voigt Hill
#
# Bulk Modulus (GPa) = 60.17478 61.72020 60.94749
# Shear Modulus (GPa) = 27.51829 28.65191 28.08510
#
# Velocity S-wave (km/s) = 3.71454 3.79028 3.75260
# Velocity P-wave (km/s) = 6.96915 7.07826 7.02392
#
# Compressibility (1/GPa) = 0.01661826
#
# Stress axis : x y z
#
# Youngs Moduli (GPa) = 71.05476 71.05476 59.02855
#
# Poissons Ratio (x) = 0.36982 0.26652
# Poissons Ratio (y) = 0.36982 0.26652
# Poissons Ratio (z) = 0.32082 0.32082
#
# Static dielectric constant tensor:
#      x y z
#    x 3.659640 0.000000 0.000000 
#    y 0.000000 3.659640 0.000000 
#    z 0.000000 0.000000 3.872110 
# 
# 
# High freq. dielectric constant tensor:
#      x y z
#    x 1.771680 0.000000 0.000000 
#    y 0.000000 1.771680 0.000000 
#    z 0.000000 0.000000 1.791120 
# 
# From -- ./inp_files/4683.got.cif
#   From: 2010.03.12/outbox.cif.g09.slc.cpg/sg151_3_cif.got.tgz:4683.got - 2010.04.03 13:42:29.
