data_PCOD8321226
_publ_section_title
;
Structure prediction by ZEFSAII (Michael W. Deem and Ramdas Pophale) SiO2 
 PCOD8321226
Probable space group: I 41/A C D
;
_chemical_formula_sum "Si O2"
_cell_formula_units_Z 112
_cell_length_a 13.441374
_cell_length_b 13.441374
_cell_length_c 30.483567
_cell_angle_alpha 90.000000
_cell_angle_beta 90.000000
_cell_angle_gamma 90.000000
_cell_volume 5507.482359
_symmetry_space_group_name_H-M "I 41/A C D"
_symmetry_group_IT_number 142
_space_group.IT_coordinate_system_code '2'
_symmetry_cell_setting 'tetragonal'
loop_
_space_group_symop_operation_xyz
x,y,z
1/4-y,3/4+x,1/4+z
-x,1/2-y,z
1/4+y,1/4-x,3/4+z
x,-y,1/2-z
1/2-x,y,-z
3/4+y,1/4+x,1/4-z
1/4-y,1/4-x,1/4-z
-x,-y,-z
3/4+y,1/4-x,3/4-z
x,1/2+y,-z
3/4-y,3/4+x,1/4-z
-x,y,1/2+z
1/2+x,-y,z
1/4-y,3/4-x,3/4+z
3/4+y,3/4+x,3/4+z
1/2+x,1/2+y,1/2+z
3/4-y,1/4+x,3/4+z
1/2-x,-y,1/2+z
3/4+y,3/4-x,1/4+z
1/2+x,1/2-y,-z
-x,1/2+y,1/2-z
1/4+y,3/4+x,3/4-z
3/4-y,3/4-x,3/4-z
1/2-x,1/2-y,1/2-z
1/4+y,3/4-x,1/4-z
1/2+x,y,1/2-z
1/4-y,1/4+x,3/4-z
1/2-x,1/2+y,z
x,1/2-y,1/2+z
3/4-y,1/4-x,1/4+z
1/4+y,1/4+x,1/4+z
loop_
_atom_site_type_symbol
_atom_site_label
_atom_site_fract_x
_atom_site_fract_y
_atom_site_fract_z
Si Si1 0.242107 0.092183 0.218161
Si Si2 0.888851 0.250666 0.260336
Si Si3 0.246283 0.996283 0.875000
Si Si4 0.631264 0.179492 0.144474
O O1 0.173287 0.189576 0.224025
O O2 0.351580 0.137129 0.230031
O O3 0.225054 0.059736 0.168027
O O4 0.218036 0.000000 0.250000
O O5 0.884424 0.315893 0.304102
O O6 0.000000 0.250000 0.242143
O O7 0.266400 0.879368 0.865844
O O8 0.635153 0.288890 0.123882
#
# Coordination Sequence:
#
# PCOD8321226 Si02
#       4
#    32  32  16  32
#     4  11  24  40  63  93 124 159 204 258 303 359
#     4  11  22  42  61  90 126 162 206 248 301 373
#     4  12  22  40  63  93 124 156 204 260 304 358
#     4  11  20  38  66  89 117 163 208 244 297 371
#
# _framework density 20.335971000000001
#
# number of rings (size 3 to 8) (size 9 to 14) (size 15 to 20)
#    0.000    0.857    8.571    0.000    0.000    1.143 
#    5.143    0.714    0.000    0.000    0.000    0.000 
#    0.000    0.000    0.000    0.000    0.000    0.000 
#
# Total GULP energy -694072.605287 kJ/mol
# GULP energy per Si atom -12394.153666 kJ/mol
# Density = 2.028969 g / cm^3
# Si number density = 20.335971 Si / 1000 Ang^3
#
#
#
# Elastic Constant Matrix: (Units=GPa)
#
#
# Indices 1 2 3 4 5 6 
#
# 1 84.6601 32.3330 5.3473 0.0000 0.0000 0.0000
# 2 32.3330 84.6601 5.3473 0.0000 0.0000 0.0000
# 3 5.3473 5.3473 89.4871 0.0000 0.0000 0.0000
# 4 0.0000 0.0000 0.0000 15.6802 0.0000 0.0000
# 5 0.0000 0.0000 0.0000 0.0000 15.6802 0.0000
# 6 0.0000 0.0000 0.0000 0.0000 0.0000 39.7579
#
#
#
# Elastic Compliance Matrix: (Units=1/GPa)
#
#
# Indices 1 2 3 4 5 6 
#
# 1 0.013852 -0.005258 -0.000514 0.000000 0.000000 0.000000
# 2 -0.005258 0.013852 -0.000514 0.000000 0.000000 0.000000
# 3 -0.000514 -0.000514 0.011236 0.000000 0.000000 0.000000
# 4 0.000000 0.000000 0.000000 0.063775 0.000000 0.000000
# 5 0.000000 0.000000 0.000000 0.000000 0.063775 0.000000
# 6 0.000000 0.000000 0.000000 0.000000 0.000000 0.025152
#
#
# Mechanical properties :
#
#
# Convention : Reuss Voigt Hill
#
# Bulk Modulus (GPa) = 37.92065 38.31804 38.11934
# Shear Modulus (GPa) = 23.47384 28.60900 26.04142
#
# Velocity S-wave (km/s) = 3.40119 3.75483 3.58237
# Velocity P-wave (km/s) = 5.84052 6.13854 5.99138
#
# Compressibility (1/GPa) = 0.02637085
#
# Stress axis : x y z
#
# Youngs Moduli (GPa) = 72.18914 72.18914 88.99828
#
# Poissons Ratio (x) = 0.37957 0.04571
# Poissons Ratio (y) = 0.37957 0.04571
# Poissons Ratio (z) = 0.03707 0.03707
#
# Static dielectric constant tensor:
#      x y z
#    x 3.777460 0.000000 0.000000 
#    y 0.000000 3.777460 0.000000 
#    z 0.000000 0.000000 3.824180 
# 
# 
# High freq. dielectric constant tensor:
#      x y z
#    x 1.785050 0.000000 0.000000 
#    y 0.000000 1.785050 0.000000 
#    z 0.000000 0.000000 1.801200 
# 
# From -- ./inp_files/11112.got.cif
#   From: 2010.03.12/outbox.cif.g09.slc.cpg/sg142_6_cif.got.tgz:11112.got - 2010.04.03 13:27:16.
