data_PCOD8321776
_publ_section_title
;
Structure prediction by ZEFSAII (Michael W. Deem and Ramdas Pophale) SiO2 
 PCOD8321776
Probable space group: R -3
;
_chemical_formula_sum "Si O2"
_cell_formula_units_Z 72
_cell_length_a 11.225568
_cell_length_b 11.225568
_cell_length_c 29.215540
_cell_angle_alpha 90.000000
_cell_angle_beta 90.000000
_cell_angle_gamma 120.000000
_cell_volume 3188.314833
_symmetry_space_group_name_H-M "R -3"
_symmetry_group_IT_number 148
_symmetry_cell_setting 'hexagonal'
loop_
_space_group_symop_operation_xyz
x,y,z
-y,x-y,z
-x+y,-x,z
-x,-y,-z
y,-x+y,-z
x-y,x,-z
2/3+x,1/3+y,1/3+z
2/3-y,1/3+x-y,1/3+z
2/3-x+y,1/3-x,1/3+z
2/3-x,1/3-y,1/3-z
2/3+y,1/3-x+y,1/3-z
2/3+x-y,1/3+x,1/3-z
1/3+x,2/3+y,2/3+z
1/3-y,2/3+x-y,2/3+z
1/3-x+y,2/3-x,2/3+z
1/3-x,2/3-y,2/3-z
1/3+y,2/3-x+y,2/3-z
1/3+x-y,2/3+x,2/3-z
loop_
_atom_site_type_symbol
_atom_site_label
_atom_site_fract_x
_atom_site_fract_y
_atom_site_fract_z
Si Si1 0.156614 0.148426 0.901065
Si Si2 0.625314 0.917739 0.390437
Si Si3 0.948114 0.574934 0.633507
Si Si4 0.370994 0.275716 0.824326
O O1 0.239880 0.233926 0.945458
O O2 0.234460 0.223986 0.854781
O O3 0.132534 0.993267 0.902223
O O4 0.621169 0.773639 0.388393
O O5 0.474566 0.891119 0.378388
O O6 0.672674 0.978499 0.440896
O O7 0.736565 0.026369 0.354821
O O8 0.494824 0.412000 0.845992
#
# Coordination Sequence:
#
# PCOD8321776 Si02
#       4
#    18  18  18  18
#     4  10  25  45  75 108 145 185 238 298 360 432
#     4  11  27  44  74 102 149 186 246 290 364 426
#     4  11  25  47  68 107 138 193 233 303 349 431
#     4  12  26  46  73 107 146 193 240 295 359 431
#
# _framework density 22.582460000000001
#
# number of rings (size 3 to 8) (size 9 to 14) (size 15 to 20)
#    0.500    0.500    2.500    2.250   10.500    2.000 
#    0.000    1.250    0.000    0.000    0.000    0.000 
#    0.000    0.000    0.000    0.000    0.000    0.000 
#
# Total GULP energy -297684.507289 kJ/mol
# GULP energy per Si atom -12403.521137 kJ/mol
# Density = 2.253106 g / cm^3
# Si number density = 22.582460 Si / 1000 Ang^3
#
#
#
# Elastic Constant Matrix: (Units=GPa)
#
#
# Indices 1 2 3 4 5 6 
#
# 1 128.5951 50.0613 62.8747 -3.3674 -1.4989 0.0000
# 2 50.0613 128.5951 62.8747 3.3674 1.4989 0.0000
# 3 62.8747 62.8747 162.1511 0.0000 0.0000 0.0000
# 4 -3.3674 3.3674 0.0000 33.4996 0.0000 1.4989
# 5 -1.4989 1.4989 0.0000 0.0000 33.4996 -3.3674
# 6 0.0000 0.0000 0.0000 1.4989 -3.3674 39.2669
#
#
#
# Elastic Compliance Matrix: (Units=1/GPa)
#
#
# Indices 1 2 3 4 5 6 
#
# 1 0.010282 -0.002584 -0.002985 0.001293 0.000576 0.000000
# 2 -0.002584 0.010282 -0.002985 -0.001293 -0.000576 0.000000
# 3 -0.002985 -0.002985 0.008482 0.000000 0.000000 0.000000
# 4 0.001293 -0.001293 0.000000 0.030163 0.000000 -0.001151
# 5 0.000576 -0.000576 0.000000 0.000000 0.030163 0.002587
# 6 0.000000 0.000000 0.000000 -0.001151 0.002587 0.025733
#
#
# Mechanical properties :
#
#
# Convention : Reuss Voigt Hill
#
# Bulk Modulus (GPa) = 83.76238 85.66250 84.71244
# Shear Modulus (GPa) = 36.71283 37.48861 37.10072
#
# Velocity S-wave (km/s) = 4.03640 4.07882 4.05767
# Velocity P-wave (km/s) = 7.67435 7.75873 7.71666
#
# Compressibility (1/GPa) = 0.01193853
#
# Stress axis : x y z
#
# Youngs Moduli (GPa) = 97.25411 97.25411 117.89599
#
# Poissons Ratio (x) = 0.25130 0.35193
# Poissons Ratio (y) = 0.25130 0.35193
# Poissons Ratio (z) = 0.29031 0.29031
#
# Static dielectric constant tensor:
#      x y z
#    x 3.999540 0.000000 0.000000 
#    y 0.000000 3.999540 0.000000 
#    z 0.000000 0.000000 4.021880 
# 
# 
# High freq. dielectric constant tensor:
#      x y z
#    x 1.899850 0.000000 0.000000 
#    y 0.000000 1.899850 0.000000 
#    z 0.000000 0.000000 1.893110 
# 
# From -- ./inp_files/3900.got.cif
#   From: 2010.03.12/outbox.cif.g09.slc.cpg/sg148_2_cif.got.tgz:3900.got - 2010.04.03 13:38:46.
