data_PCOD8321846
_publ_section_title
;
Structure prediction by ZEFSAII (Michael W. Deem and Ramdas Pophale) SiO2 
 PCOD8321846
Probable space group: P 3 1 2
;
_chemical_formula_sum "Si O2"
_cell_formula_units_Z 42
_cell_length_a 12.561739
_cell_length_b 12.561739
_cell_length_c 17.780919
_cell_angle_alpha 90.000000
_cell_angle_beta 90.000000
_cell_angle_gamma 120.000000
_cell_volume 2429.877427
_symmetry_space_group_name_H-M "P 3 1 2"
_symmetry_group_IT_number 149
_symmetry_cell_setting 'hexagonal'
loop_
_space_group_symop_operation_xyz
x,y,z
-y,x-y,z
-x+y,-x,z
-y,-x,-z
-x+y,y,-z
x,x-y,-z
loop_
_atom_site_type_symbol
_atom_site_label
_atom_site_fract_x
_atom_site_fract_y
_atom_site_fract_z
Si Si1 0.086777 0.667683 0.718678
Si Si2 0.914764 0.582917 1.000000
Si Si3 0.750937 0.751321 0.140809
Si Si4 0.000384 0.751321 0.140809
Si Si5 0.244829 0.999582 0.414241
Si Si6 0.000418 0.755171 0.414240
Si Si7 0.332318 0.913223 0.718678
O O1 0.011819 0.691608 0.782532
O O2 0.230094 0.769906 0.720802
O O3 0.072902 0.536451 0.732218
O O4 0.027124 0.667663 0.638486
O O5 0.983394 0.660668 0.073196
O O6 0.772672 0.545344 0.000000
O O7 0.924360 0.462180 0.000000
O O8 0.983393 0.660666 0.926803
O O9 0.887215 0.774429 0.148463
O O10 0.760680 0.880340 0.123542
O O11 0.011820 0.691607 0.217468
O O12 0.259094 0.129547 0.392615
O O13 0.285064 0.998211 0.500000
O O14 0.103015 0.896985 0.401051
O O15 0.027124 0.667663 0.361513
#
# Coordination Sequence:
#
# PCOD8321846 Si02
#       7
#     6   6   6   6   6   6   6
#     4  10  20  33  49  70  98 132 167 202 241 288
#     4  10  20  34  52  74 102 136 170 200 232 278
#     4  10  20  34  54  78 102 128 160 203 252 296
#     4  10  20  34  54  78 102 128 160 203 252 296
#     4   9  17  30  50  75 100 126 158 200 249 296
#     4   9  17  30  50  75 100 126 158 200 249 296
#     4  10  20  33  49  70  98 132 167 202 241 288
#
# _framework density 17.284822999999999
#
# number of rings (size 3 to 8) (size 9 to 14) (size 15 to 20)
#    0.000    2.286    0.000    3.143    0.000    1.714 
#    0.000    4.286    0.000   12.000    0.000    0.000 
#    0.000    0.000    0.000    0.000    0.000    0.000 
#
# Total GULP energy -520929.236811 kJ/mol
# GULP energy per Si atom -12403.077067 kJ/mol
# Density = 1.724548 g / cm^3
# Si number density = 17.284823 Si / 1000 Ang^3
#
#
#
# Elastic Constant Matrix: (Units=GPa)
#
#
# Indices 1 2 3 4 5 6 
#
# 1 109.1002 68.2011 56.1650 0.0000 -0.0001 0.0000
# 2 68.2011 109.1002 56.1650 0.0000 0.0001 0.0000
# 3 56.1650 56.1650 108.9544 0.0000 0.0000 0.0000
# 4 0.0000 0.0000 0.0000 19.7765 0.0000 0.0001
# 5 -0.0001 0.0001 0.0000 0.0000 19.7765 0.0000
# 6 0.0000 0.0000 0.0000 0.0001 0.0000 20.4495
#
#
#
# Elastic Compliance Matrix: (Units=1/GPa)
#
#
# Indices 1 2 3 4 5 6 
#
# 1 0.016413 -0.008037 -0.004317 0.000000 0.000000 0.000000
# 2 -0.008037 0.016413 -0.004317 0.000000 0.000000 0.000000
# 3 -0.004317 -0.004317 0.013629 0.000000 0.000000 0.000000
# 4 0.000000 0.000000 0.000000 0.050565 0.000000 0.000000
# 5 0.000000 0.000000 0.000000 0.000000 0.050565 0.000000
# 6 0.000000 0.000000 0.000000 0.000000 0.000000 0.048901
#
#
# Mechanical properties :
#
#
# Convention : Reuss Voigt Hill
#
# Bulk Modulus (GPa) = 76.27519 76.46855 76.37187
# Shear Modulus (GPa) = 21.34913 21.77540 21.56226
#
# Velocity S-wave (km/s) = 3.51826 3.55321 3.53578
# Velocity P-wave (km/s) = 7.79285 7.82113 7.80700
#
# Compressibility (1/GPa) = 0.01311042
#
# Stress axis : x y z
#
# Youngs Moduli (GPa) = 60.92745 60.92745 73.37078
#
# Poissons Ratio (x) = 0.48970 0.31678
# Poissons Ratio (y) = 0.48970 0.31678
# Poissons Ratio (z) = 0.26305 0.26305
#
# Static dielectric constant tensor:
#      x y z
#    x 3.098050 0.000000 0.000000 
#    y 0.000000 3.098050 0.000000 
#    z 0.000000 0.000000 3.472970 
# 
# 
# High freq. dielectric constant tensor:
#      x y z
#    x 1.662160 0.000000 0.000000 
#    y 0.000000 1.662160 0.000000 
#    z 0.000000 0.000000 1.685600 
# 
# From -- ./inp_files/1086.got.cif
#   From: 2010.03.12/outbox.cif.g09.slc.cpg/sg149_cif.got.tgz:1086.got - 2010.04.03 13:40:41.
