data_PCOD8321481
_publ_section_title
;
Structure prediction by ZEFSAII (Michael W. Deem and Ramdas Pophale) SiO2 
 PCOD8321481
Probable space group: P 32
;
_chemical_formula_sum "Si O2"
_cell_formula_units_Z 21
_cell_length_a 8.746892
_cell_length_b 8.746892
_cell_length_c 13.900768
_cell_angle_alpha 90.000000
_cell_angle_beta 90.000000
_cell_angle_gamma 120.000000
_cell_volume 921.036742
_symmetry_space_group_name_H-M "P 32"
_symmetry_group_IT_number 145
_symmetry_cell_setting 'hexagonal'
loop_
_space_group_symop_operation_xyz
x,y,z
-y,x-y,2/3+z
-x+y,-x,1/3+z
loop_
_atom_site_type_symbol
_atom_site_label
_atom_site_fract_x
_atom_site_fract_y
_atom_site_fract_z
Si Si1 0.981527 0.217697 0.353910
Si Si2 0.344655 0.535446 0.281703
Si Si3 0.763830 0.981526 0.687243
Si Si4 0.436227 0.641950 0.751423
Si Si5 0.794277 0.436227 0.084757
Si Si6 1.000000 0.999998 0.859022
Si Si7 0.655346 0.464555 0.281705
O O1 0.829804 0.266946 0.366311
O O2 0.177275 0.372194 0.331399
O O3 0.993131 0.144227 0.458346
O O4 0.913546 0.080255 0.264820
O O5 0.438729 0.693537 0.358912
O O6 0.274520 0.599082 0.192936
O O7 0.500000 0.499999 0.247739
O O8 0.805083 0.177276 0.664735
O O9 0.848903 0.993125 0.791679
O O10 0.562858 0.829803 0.699642
O O11 0.833293 0.913548 0.598152
O O12 0.500000 0.500000 0.749443
O O13 0.725485 0.400920 0.192939
O O14 0.693537 0.254809 0.025580
#
# Coordination Sequence:
#
# PCOD8321481 Si02
#       7
#     3   3   3   3   3   3   3
#     4  11  23  46  72 108 148 196 252 308 380 440
#     4  12  28  47  74 107 150 197 252 311 376 448
#     4  11  23  46  72 108 148 196 252 308 380 440
#     4  12  28  47  74 107 150 197 252 311 376 448
#     4  12  28  47  74 107 150 197 252 311 376 448
#     4  10  24  38  78 102 146 186 250 302 372 430
#     4  12  28  47  74 107 150 197 252 311 376 448
#
# _framework density 22.80039
#
# number of rings (size 3 to 8) (size 9 to 14) (size 15 to 20)
#    0.000    0.571    2.857    4.286    8.000    1.143 
#    0.000    0.000    0.000    0.000    0.000    0.000 
#    0.000    0.000    0.000    0.000    0.000    0.000 
#
# Total GULP energy -260376.373234 kJ/mol
# GULP energy per Si atom -12398.874916 kJ/mol
# Density = 2.274850 g / cm^3
# Si number density = 22.800390 Si / 1000 Ang^3
#
#
#
# Elastic Constant Matrix: (Units=GPa)
#
#
# Indices 1 2 3 4 5 6 
#
# 1 92.4636 7.3450 21.2765 0.0000 0.0000 0.0000
# 2 7.3450 92.4636 21.2765 0.0000 0.0000 0.0000
# 3 21.2765 21.2765 143.9799 0.0000 0.0000 0.0000
# 4 0.0000 0.0000 0.0000 31.8321 0.0000 0.0000
# 5 0.0000 0.0000 0.0000 0.0000 31.8321 0.0000
# 6 0.0000 0.0000 0.0000 0.0000 0.0000 42.5593
#
#
#
# Elastic Compliance Matrix: (Units=1/GPa)
#
#
# Indices 1 2 3 4 5 6 
#
# 1 0.011221 -0.000528 -0.001580 0.000000 0.000000 0.000000
# 2 -0.000528 0.011221 -0.001580 0.000000 0.000000 0.000000
# 3 -0.001580 -0.001580 0.007412 0.000000 0.000000 0.000000
# 4 0.000000 0.000000 0.000000 0.031415 0.000000 0.000000
# 5 0.000000 0.000000 0.000000 0.000000 0.031415 0.000000
# 6 0.000000 0.000000 0.000000 0.000000 0.000000 0.023497
#
#
# Mechanical properties :
#
#
# Convention : Reuss Voigt Hill
#
# Bulk Modulus (GPa) = 44.48869 47.63367 46.06118
# Shear Modulus (GPa) = 38.15383 39.84530 38.99957
#
# Velocity S-wave (km/s) = 4.09514 4.18493 4.14028
# Velocity P-wave (km/s) = 6.47417 6.65496 6.56519
#
# Compressibility (1/GPa) = 0.02247763
#
# Stress axis : x y z
#
# Youngs Moduli (GPa) = 89.12190 89.12190 134.90881
#
# Poissons Ratio (x) = 0.04703 0.21317
# Poissons Ratio (y) = 0.04703 0.21317
# Poissons Ratio (z) = 0.14082 0.14082
#
# Static dielectric constant tensor:
#      x y z
#    x 4.160910 0.000000 0.000000 
#    y 0.000000 4.160910 0.000000 
#    z 0.000000 0.000000 4.397580 
# 
# 
# High freq. dielectric constant tensor:
#      x y z
#    x 1.897660 0.000000 0.000000 
#    y 0.000000 1.897660 0.000000 
#    z 0.000000 0.000000 1.928720 
# 
# From -- ./inp_files/638.got.cif
#   From: 2010.03.12/outbox.cif.g09.slc.cpg/sg145_cif.got.tgz:638.got - 2010.04.03 13:35:35.
