data_PCOD8321541
_publ_section_title
;
Structure prediction by ZEFSAII (Michael W. Deem and Ramdas Pophale) SiO2 
 PCOD8321541
Probable space group: R 3
;
_chemical_formula_sum "Si O2"
_cell_formula_units_Z 51
_cell_length_a 19.652840
_cell_length_b 19.652840
_cell_length_c 7.191514
_cell_angle_alpha 90.000000
_cell_angle_beta 90.000000
_cell_angle_gamma 120.000000
_cell_volume 2405.479161
_symmetry_space_group_name_H-M "R 3"
_symmetry_group_IT_number 146
_symmetry_cell_setting 'hexagonal'
loop_
_space_group_symop_operation_xyz
x,y,z
-y,x-y,z
-x+y,-x,z
2/3+x,1/3+y,1/3+z
2/3-y,1/3+x-y,1/3+z
2/3-x+y,1/3-x,1/3+z
1/3+x,2/3+y,2/3+z
1/3-y,2/3+x-y,2/3+z
1/3-x+y,2/3-x,2/3+z
loop_
_atom_site_type_symbol
_atom_site_label
_atom_site_fract_x
_atom_site_fract_y
_atom_site_fract_z
Si Si1 0.402098 0.371114 0.868860
Si Si2 0.972985 0.371019 0.682167
Si Si3 0.843663 0.870466 0.335193
Si Si4 0.131991 0.162021 0.654723
Si Si5 0.666668 0.333334 0.555066
Si Si6 0.333335 0.666667 0.447107
Si Si7 0.466055 0.920414 0.674868
O O1 0.339204 0.304062 0.733309
O O2 0.434922 0.454595 0.775657
O O3 0.478887 0.362353 0.900862
O O4 0.888439 0.364778 0.691090
O O5 0.971853 0.303786 0.554364
O O6 0.033638 0.456272 0.601165
O O7 0.816725 0.899133 0.514057
O O8 0.814155 0.892231 0.149359
O O9 0.938083 0.914892 0.308320
O O10 0.149837 0.214411 0.836583
O O11 0.084083 0.069349 0.706219
O O12 0.666668 0.333334 0.334692
#
# Coordination Sequence:
#
# PCOD8321541 Si02
#       7
#     9   9   9   9   3   3   9
#     4  12  25  45  68 103 144 185 232 290 352 427
#     4  10  23  44  66  99 136 178 231 287 352 419
#     4  11  24  43  69  97 140 182 232 287 352 425
#     4  12  25  46  70 104 140 184 242 282 361 422
#     4  12  25  47  67 106 143 184 241 293 364 421
#     4  12  28  47  73 106 143 193 238 302 349 427
#     4  11  24  42  69 101 136 186 230 291 348 421
#
# _framework density 21.201595999999999
#
# number of rings (size 3 to 8) (size 9 to 14) (size 15 to 20)
#    0.000    0.706    5.294    2.118    4.941    0.000 
#    3.176    0.000    0.000    0.000    0.000    0.000 
#    0.000    0.000    0.000    0.000    0.000    0.000 
#
# Total GULP energy -210869.621801 kJ/mol
# GULP energy per Si atom -12404.095400 kJ/mol
# Density = 2.115334 g / cm^3
# Si number density = 21.201596 Si / 1000 Ang^3
#
#
#
# Elastic Constant Matrix: (Units=GPa)
#
#
# Indices 1 2 3 4 5 6 
#
# 1 105.1304 42.2107 30.5740 0.2086 2.0944 0.0161
# 2 42.2107 105.0894 30.4694 -0.2024 -2.0631 0.0024
# 3 30.5740 30.4694 69.8887 0.0122 0.0696 0.0367
# 4 0.2086 -0.2024 0.0122 34.7391 0.0081 -2.0659
# 5 2.0944 -2.0631 0.0696 0.0081 34.7600 0.2194
# 6 0.0161 0.0024 0.0367 -2.0659 0.2194 31.4432
#
#
#
# Elastic Compliance Matrix: (Units=1/GPa)
#
#
# Indices 1 2 3 4 5 6 
#
# 1 0.012128 -0.003837 -0.003632 -0.000094 -0.000951 -0.000001
# 2 -0.003837 0.012122 -0.003607 0.000095 0.000958 0.000005
# 3 -0.003632 -0.003607 0.017470 -0.000006 -0.000030 -0.000018
# 4 -0.000094 0.000095 -0.000006 0.028900 -0.000007 0.001899
# 5 -0.000951 0.000958 -0.000030 -0.000007 0.028884 -0.000202
# 6 -0.000001 0.000005 -0.000018 0.001899 -0.000202 0.031930
#
#
# Mechanical properties :
#
#
# Convention : Reuss Voigt Hill
#
# Bulk Modulus (GPa) = 51.10492 54.06855 52.58673
# Shear Modulus (GPa) = 31.22893 31.97876 31.60385
#
# Velocity S-wave (km/s) = 3.84207 3.88792 3.86506
# Velocity P-wave (km/s) = 6.62107 6.76107 6.69144
#
# Compressibility (1/GPa) = 0.01956759
#
# Stress axis : x y z
#
# Youngs Moduli (GPa) = 82.45387 82.49594 57.24160
#
# Poissons Ratio (x) = 0.31656 0.20788
# Poissons Ratio (y) = 0.31640 0.20647
# Poissons Ratio (z) = 0.29945 0.29757
#
# Static dielectric constant tensor:
#      x y z
#    x 3.872250 -0.000040 -0.000100 
#    y -0.000040 3.872390 -0.000040 
#    z -0.000100 -0.000040 3.956930 
# 
# 
# High freq. dielectric constant tensor:
#      x y z
#    x 1.835130 0.000000 0.000000 
#    y 0.000000 1.835130 0.000000 
#    z 0.000000 0.000000 1.847940 
# 
# From -- ./inp_files/670.got.cif
#   From: 2010.06.25/outbox.cif.g09.slc.cpg/sg146_cif.got.tgz:670.got - 2010.06.28 11:17:22.
