data_PCOD8321936
_publ_section_title
;
Structure prediction by ZEFSAII (Michael W. Deem and Ramdas Pophale) SiO2 
 PCOD8321936
Probable space group: P 31 1 2
;
_chemical_formula_sum "Si O2"
_cell_formula_units_Z 48
_cell_length_a 11.358324
_cell_length_b 11.358324
_cell_length_c 23.050410
_cell_angle_alpha 90.000000
_cell_angle_beta 90.000000
_cell_angle_gamma 120.000000
_cell_volume 2575.359088
_symmetry_space_group_name_H-M "P 31 1 2"
_symmetry_group_IT_number 151
_symmetry_cell_setting 'hexagonal'
loop_
_space_group_symop_operation_xyz
x,y,z
-y,x-y,1/3+z
-x+y,-x,2/3+z
-y,-x,2/3-z
-x+y,y,1/3-z
x,x-y,-z
loop_
_atom_site_type_symbol
_atom_site_label
_atom_site_fract_x
_atom_site_fract_y
_atom_site_fract_z
Si Si1 0.864015 0.458636 0.150538
Si Si2 0.465115 0.994301 0.057712
Si Si3 0.295713 0.545538 0.781503
Si Si4 0.235181 0.042964 0.346629
Si Si5 0.039231 0.746963 0.520418
Si Si6 0.020327 0.545887 0.266587
Si Si7 0.766970 0.171009 0.097887
Si Si8 0.252438 0.036461 0.551095
O O1 0.717108 0.434215 0.166667
O O2 0.842778 0.333190 0.109604
O O3 0.960478 0.601588 0.115551
O O4 0.933088 0.459576 0.211794
O O5 0.434274 0.840299 0.066478
O O6 0.344326 0.002322 0.088682
O O7 0.605294 0.108348 0.087527
O O8 0.461168 0.015748 0.988479
O O9 0.346061 0.653940 0.833334
O O10 0.256001 0.403270 0.810472
O O11 0.177919 0.559072 0.750271
O O12 0.305100 0.133231 0.290219
O O13 0.213826 0.143023 0.387437
O O14 0.334797 0.007654 0.381554
O O15 0.094905 0.905096 0.333334
O O16 0.898884 0.695145 0.486059
O O17 0.112426 0.901129 0.539058
O O18 0.278746 0.139373 0.500000
#
# Coordination Sequence:
#
# PCOD8321936 Si02
#       8
#     6   6   6   6   6   6   6   6
#     4  11  21  36  56  85 124 154 190 241 320 378
#     4   9  19  32  56  86 108 146 198 248 288 340
#     4   9  16  29  54  80 110 143 192 244 287 337
#     4  11  21  37  62  89 108 151 213 263 284 353
#     4  10  18  36  57  81 113 153 200 242 303 364
#     4  11  18  34  55  84 113 150 199 241 290 361
#     4  10  21  36  59  86 118 150 199 256 307 366
#     4  11  20  36  59  87 115 156 202 249 308 363
#
# _framework density 18.638176000000001
#
# number of rings (size 3 to 8) (size 9 to 14) (size 15 to 20)
#    0.000    1.750    3.750    5.250    0.000    0.500 
#    0.000    4.375    5.500    0.750    0.000    0.000 
#    0.000    0.000    0.000    0.000    0.000    0.000 
#
# Total GULP energy -594784.986759 kJ/mol
# GULP energy per Si atom -12391.353891 kJ/mol
# Density = 1.859575 g / cm^3
# Si number density = 18.638176 Si / 1000 Ang^3
#
#
#
# Elastic Constant Matrix: (Units=GPa)
#
#
# Indices 1 2 3 4 5 6 
#
# 1 59.5228 13.7789 19.6527 0.0011 0.1709 0.0000
# 2 13.7789 59.5228 19.6527 -0.0011 -0.1709 0.0000
# 3 19.6527 19.6527 77.5373 0.0000 0.0000 0.0000
# 4 0.0011 -0.0011 0.0000 30.3743 0.0000 -0.1709
# 5 0.1709 -0.1709 0.0000 0.0000 30.3743 0.0011
# 6 0.0000 0.0000 0.0000 -0.1709 0.0011 22.8720
#
#
#
# Elastic Compliance Matrix: (Units=1/GPa)
#
#
# Indices 1 2 3 4 5 6 
#
# 1 0.018825 -0.003037 -0.004002 -0.000001 -0.000123 0.000000
# 2 -0.003037 0.018825 -0.004002 0.000001 0.000123 0.000000
# 3 -0.004002 -0.004002 0.014926 0.000000 0.000000 0.000000
# 4 -0.000001 0.000001 0.000000 0.032924 0.000000 0.000246
# 5 -0.000123 0.000123 0.000000 0.000000 0.032924 -0.000002
# 6 0.000000 0.000000 0.000000 0.000246 -0.000002 0.043723
#
#
# Mechanical properties :
#
#
# Convention : Reuss Voigt Hill
#
# Bulk Modulus (GPa) = 32.79234 33.63907 33.21570
# Shear Modulus (GPa) = 25.72123 26.29069 26.00596
#
# Velocity S-wave (km/s) = 3.71890 3.75985 3.73943
# Velocity P-wave (km/s) = 6.00606 6.07752 6.04189
#
# Compressibility (1/GPa) = 0.03049493
#
# Stress axis : x y z
#
# Youngs Moduli (GPa) = 53.12124 53.12124 66.99916
#
# Poissons Ratio (x) = 0.16132 0.26811
# Poissons Ratio (y) = 0.16132 0.26811
# Poissons Ratio (z) = 0.21257 0.21257
#
# Static dielectric constant tensor:
#      x y z
#    x 3.373720 0.000000 0.000000 
#    y 0.000000 3.373720 0.000000 
#    z 0.000000 0.000000 3.583580 
# 
# 
# High freq. dielectric constant tensor:
#      x y z
#    x 1.700190 0.000000 0.000000 
#    y 0.000000 1.700190 0.000000 
#    z 0.000000 0.000000 1.734920 
# 
# From -- ./inp_files/3993.got.cif
#   From: 2010.03.12/outbox.cif.g09.slc.cpg/sg151_2_cif.got.tgz:3993.got - 2010.04.03 13:42:29.
