data_PCOD8321783
_publ_section_title
;
Structure prediction by ZEFSAII (Michael W. Deem and Ramdas Pophale) SiO2 
 PCOD8321783
Probable space group: R -3
;
_chemical_formula_sum "Si O2"
_cell_formula_units_Z 66
_cell_length_a 12.029820
_cell_length_b 12.029820
_cell_length_c 27.780112
_cell_angle_alpha 90.000000
_cell_angle_beta 90.000000
_cell_angle_gamma 120.000000
_cell_volume 3481.632136
_symmetry_space_group_name_H-M "R -3"
_symmetry_group_IT_number 148
_symmetry_cell_setting 'hexagonal'
loop_
_space_group_symop_operation_xyz
x,y,z
-y,x-y,z
-x+y,-x,z
-x,-y,-z
y,-x+y,-z
x-y,x,-z
2/3+x,1/3+y,1/3+z
2/3-y,1/3+x-y,1/3+z
2/3-x+y,1/3-x,1/3+z
2/3-x,1/3-y,1/3-z
2/3+y,1/3-x+y,1/3-z
2/3+x-y,1/3+x,1/3-z
1/3+x,2/3+y,2/3+z
1/3-y,2/3+x-y,2/3+z
1/3-x+y,2/3-x,2/3+z
1/3-x,2/3-y,2/3-z
1/3+y,2/3-x+y,2/3-z
1/3+x-y,2/3+x,2/3-z
loop_
_atom_site_type_symbol
_atom_site_label
_atom_site_fract_x
_atom_site_fract_y
_atom_site_fract_z
Si Si1 0.064117 0.904148 0.875206
Si Si2 0.666667 0.333333 0.737863
Si Si3 0.174599 0.745737 0.198521
Si Si4 0.666667 0.333334 0.624334
Si Si5 0.563196 0.836430 0.894249
O O1 0.112853 0.825705 0.907144
O O2 0.076685 0.884243 0.818423
O O3 0.912993 0.854618 0.886164
O O4 0.762223 0.286071 0.756606
O O5 0.666668 0.333334 0.681015
O O6 0.285341 0.858898 0.166947
O O7 0.081359 0.793397 0.218234
O O8 0.811900 0.422268 0.605857
#
# Coordination Sequence:
#
# PCOD8321783 Si02
#       5
#    18   6  18   6  18
#     4   9  18  33  51  85 118 142 188 247 293 331
#     4   9  22  43  51  81 126 153 210 223 286 369
#     4   9  19  35  60  84 110 153 197 251 285 331
#     4  12  24  37  55  90 126 159 190 232 300 363
#     4  11  19  32  56  87 116 151 190 240 299 341
#
# _framework density 18.956626
#
# number of rings (size 3 to 8) (size 9 to 14) (size 15 to 20)
#    0.545    1.636    2.727    2.727    3.818    1.091 
#    0.000    0.000    0.000    0.000    0.000    1.909 
#    0.000    0.000    0.000    0.000    0.000    0.000 
#
# Total GULP energy -272707.355946 kJ/mol
# GULP energy per Si atom -12395.788907 kJ/mol
# Density = 1.891348 g / cm^3
# Si number density = 18.956626 Si / 1000 Ang^3
#
#
#
# Elastic Constant Matrix: (Units=GPa)
#
#
# Indices 1 2 3 4 5 6 
#
# 1 88.4105 28.0636 37.0922 -0.5218 -2.5674 -0.0001
# 2 28.0636 88.4094 37.0920 0.5215 2.5673 0.0004
# 3 37.0922 37.0920 109.4928 -0.0001 -0.0002 0.0001
# 4 -0.5218 0.5215 -0.0001 12.6820 0.0000 2.5672
# 5 -2.5674 2.5673 -0.0002 0.0000 12.6820 -0.5217
# 6 -0.0001 0.0004 0.0001 2.5672 -0.5217 30.1735
#
#
#
# Elastic Compliance Matrix: (Units=1/GPa)
#
#
# Indices 1 2 3 4 5 6 
#
# 1 0.013911 -0.002963 -0.003709 0.000694 0.003416 0.000000
# 2 -0.002963 0.013911 -0.003709 -0.000694 -0.003416 0.000000
# 3 -0.003709 -0.003709 0.011646 0.000000 0.000000 0.000000
# 4 0.000694 -0.000694 0.000000 0.080292 0.000000 -0.006831
# 5 0.003416 -0.003416 0.000000 0.000000 0.080292 0.001388
# 6 0.000000 0.000000 0.000000 -0.006831 0.001388 0.033747
#
#
# Mechanical properties :
#
#
# Convention : Reuss Voigt Hill
#
# Bulk Modulus (GPa) = 53.45731 54.53425 53.99578
# Shear Modulus (GPa) = 19.17218 23.37848 21.27533
#
# Velocity S-wave (km/s) = 3.18366 3.51559 3.35373
# Velocity P-wave (km/s) = 6.46338 6.73124 6.59867
#
# Compressibility (1/GPa) = 0.01870652
#
# Stress axis : x y z
#
# Youngs Moduli (GPa) = 71.88750 71.88654 85.86809
#
# Poissons Ratio (x) = 0.21300 0.31846
# Poissons Ratio (y) = 0.21300 0.31846
# Poissons Ratio (z) = 0.26661 0.26661
#
# Static dielectric constant tensor:
#      x y z
#    x 3.622470 0.000000 0.000000 
#    y 0.000000 3.622480 0.000000 
#    z 0.000000 0.000000 2.850060 
# 
# 
# High freq. dielectric constant tensor:
#      x y z
#    x 1.750390 0.000000 0.000000 
#    y 0.000000 1.750390 0.000000 
#    z 0.000000 0.000000 1.668910 
# 
# From -- ./inp_files/3908.got.cif
#   From: 2010.03.12/outbox.cif.g09.slc.cpg/sg148_2_cif.got.tgz:3908.got - 2010.04.03 13:38:46.
