data_PCOD8321066
_publ_section_title
;
Structure prediction by ZEFSAII (Michael W. Deem and Ramdas Pophale) SiO2 
 PCOD8321066
Probable space group: I 41/A C D
;
_chemical_formula_sum "Si O2"
_cell_formula_units_Z 80
_cell_length_a 26.197702
_cell_length_b 26.197702
_cell_length_c 5.117436
_cell_angle_alpha 90.000000
_cell_angle_beta 90.000000
_cell_angle_gamma 90.000000
_cell_volume 3512.196578
_symmetry_space_group_name_H-M "I 41/A C D"
_symmetry_group_IT_number 142
_space_group.IT_coordinate_system_code '2'
_symmetry_cell_setting 'tetragonal'
loop_
_space_group_symop_operation_xyz
x,y,z
1/4-y,3/4+x,1/4+z
-x,1/2-y,z
1/4+y,1/4-x,3/4+z
x,-y,1/2-z
1/2-x,y,-z
3/4+y,1/4+x,1/4-z
1/4-y,1/4-x,1/4-z
-x,-y,-z
3/4+y,1/4-x,3/4-z
x,1/2+y,-z
3/4-y,3/4+x,1/4-z
-x,y,1/2+z
1/2+x,-y,z
1/4-y,3/4-x,3/4+z
3/4+y,3/4+x,3/4+z
1/2+x,1/2+y,1/2+z
3/4-y,1/4+x,3/4+z
1/2-x,-y,1/2+z
3/4+y,3/4-x,1/4+z
1/2+x,1/2-y,-z
-x,1/2+y,1/2-z
1/4+y,3/4+x,3/4-z
3/4-y,3/4-x,3/4-z
1/2-x,1/2-y,1/2-z
1/4+y,3/4-x,1/4-z
1/2+x,y,1/2-z
1/4-y,1/4+x,3/4-z
1/2-x,1/2+y,z
x,1/2-y,1/2+z
3/4-y,1/4-x,1/4+z
1/4+y,1/4+x,1/4+z
loop_
_atom_site_type_symbol
_atom_site_label
_atom_site_fract_x
_atom_site_fract_y
_atom_site_fract_z
Si Si1 0.804855 0.445146 0.625000
Si Si2 0.411290 0.466244 0.006335
Si Si3 0.113785 0.282056 0.199938
O O1 0.808353 0.500000 0.750000
O O2 0.807600 0.395444 0.816197
O O3 0.429743 0.500000 0.250000
O O4 0.408316 0.500000 0.750000
O O5 0.452494 0.422851 0.949036
O O6 0.080945 0.330945 0.125000
O O7 0.101153 0.261832 0.489191
#
# Coordination Sequence:
#
# PCOD8321066 Si02
#       3
#    16  32  32
#     4  10  20  38  64 102 141 182 220 268 327 414
#     4  11  24  42  69 102 141 183 225 274 339 417
#     4  12  27  48  72 101 136 176 234 294 352 412
#
# _framework density 22.777771000000001
#
# number of rings (size 3 to 8) (size 9 to 14) (size 15 to 20)
#    0.000    0.800    2.000    4.800    0.000   12.000 
#    0.000    0.000    0.000    0.000    0.000    0.000 
#    0.000    0.000    0.000    0.000    0.000    0.000 
#
# Total GULP energy -495833.861435 kJ/mol
# GULP energy per Si atom -12395.846536 kJ/mol
# Density = 2.272593 g / cm^3
# Si number density = 22.777771 Si / 1000 Ang^3
#
#
#
# Elastic Constant Matrix: (Units=GPa)
#
#
# Indices 1 2 3 4 5 6 
#
# 1 86.5849 31.4045 37.5879 0.0000 0.0000 0.0000
# 2 31.4045 86.5848 37.5877 0.0000 0.0000 0.0000
# 3 37.5879 37.5877 128.8398 0.0000 0.0000 0.0000
# 4 0.0000 0.0000 0.0000 37.2860 0.0000 0.0000
# 5 0.0000 0.0000 0.0000 0.0000 37.2858 0.0000
# 6 0.0000 0.0000 0.0000 0.0000 0.0000 51.9888
#
#
#
# Elastic Compliance Matrix: (Units=1/GPa)
#
#
# Indices 1 2 3 4 5 6 
#
# 1 0.014266 -0.003856 -0.003037 0.000000 0.000000 0.000000
# 2 -0.003856 0.014266 -0.003037 0.000000 0.000000 0.000000
# 3 -0.003037 -0.003037 0.009534 0.000000 0.000000 0.000000
# 4 0.000000 0.000000 0.000000 0.026820 0.000000 0.000000
# 5 0.000000 0.000000 0.000000 0.000000 0.026820 0.000000
# 6 0.000000 0.000000 0.000000 0.000000 0.000000 0.019235
#
#
# Mechanical properties :
#
#
# Convention : Reuss Voigt Hill
#
# Bulk Modulus (GPa) = 54.92705 57.24108 56.08406
# Shear Modulus (GPa) = 36.53097 38.34075 37.43586
#
# Velocity S-wave (km/s) = 4.00909 4.10720 4.05844
# Velocity P-wave (km/s) = 6.75256 6.90485 6.82913
#
# Compressibility (1/GPa) = 0.01820597
#
# Stress axis : x y z
#
# Youngs Moduli (GPa) = 70.09477 70.09482 104.89120
#
# Poissons Ratio (x) = 0.27028 0.31857
# Poissons Ratio (y) = 0.27028 0.31857
# Poissons Ratio (z) = 0.21289 0.21289
#
# Static dielectric constant tensor:
#      x y z
#    x 4.963930 0.000000 0.000000 
#    y 0.000000 4.963450 0.000000 
#    z 0.000000 0.000000 4.352380 
# 
# 
# High freq. dielectric constant tensor:
#      x y z
#    x 1.913420 0.000000 0.000000 
#    y 0.000000 1.913420 0.000000 
#    z 0.000000 0.000000 1.884400 
# 
# From -- ./inp_files/597.got.cif
#   From: 2010.03.12/outbox.cif.g09.slc.cpg/sg142_1_cif.got.tgz:597.got - 2010.04.03 13:27:16.
