data_PCOD8321366
_publ_section_title
;
Structure prediction by ZEFSAII (Michael W. Deem and Ramdas Pophale) SiO2 
 PCOD8321366
Probable space group: P 31
;
_chemical_formula_sum "Si O2"
_cell_formula_units_Z 24
_cell_length_a 8.279433
_cell_length_b 8.279433
_cell_length_c 19.196099
_cell_angle_alpha 90.000000
_cell_angle_beta 90.000000
_cell_angle_gamma 120.000000
_cell_volume 1139.579964
_symmetry_space_group_name_H-M "P 31"
_symmetry_group_IT_number 144
_symmetry_cell_setting 'hexagonal'
loop_
_space_group_symop_operation_xyz
x,y,z
-y,x-y,1/3+z
-x+y,-x,2/3+z
loop_
_atom_site_type_symbol
_atom_site_label
_atom_site_fract_x
_atom_site_fract_y
_atom_site_fract_z
Si Si1 0.132401 0.808330 0.519350
Si Si2 0.978887 0.194362 0.268275
Si Si3 0.535454 0.541012 0.481687
Si Si4 0.998963 0.171820 0.643767
Si Si5 0.811700 0.133350 0.056468
Si Si6 0.862923 0.305859 0.776154
Si Si7 0.697945 0.536200 0.733099
Si Si8 0.317210 0.859759 0.186004
O O1 0.166785 0.648631 0.550524
O O2 0.010044 0.845343 0.573308
O O3 0.019149 0.732269 0.448979
O O4 0.330865 0.991161 0.504140
O O5 0.009760 0.365234 0.220047
O O6 0.913660 0.216207 0.343680
O O7 0.164829 0.178481 0.278497
O O8 0.673737 0.663190 0.418211
O O9 0.509794 0.336930 0.477460
O O10 0.330382 0.513660 0.477261
O O11 0.158953 0.122188 0.666333
O O12 0.101575 0.328830 0.585919
O O13 0.913488 0.230873 0.707076
O O14 0.648881 0.174561 0.031350
O O15 0.861469 0.494022 0.756127
O O16 0.643201 0.612365 0.800223
#
# Coordination Sequence:
#
# PCOD8321366 Si02
#       8
#     3   3   3   3   3   3   3   3
#     4   9  20  37  57  85 117 155 198 247 303 366
#     4  11  22  37  59  88 121 159 206 255 310 371
#     4  10  21  39  62  88 122 162 204 259 315 372
#     4  11  22  38  62  91 124 167 214 258 311 377
#     4   8  19  39  58  80 117 161 204 251 304 359
#     4  10  21  40  64  86 121 166 207 252 313 380
#     4  10  21  38  61  88 122 162 206 258 313 375
#     4  11  22  38  61  90 126 160 205 264 315 370
#
# _framework density 21.060393000000001
#
# number of rings (size 3 to 8) (size 9 to 14) (size 15 to 20)
#    0.000    2.000    0.000    3.750    0.000    4.000 
#    0.000    6.250    0.000    0.000    0.000    0.000 
#    0.000    0.000    0.000    0.000    0.000    0.000 
#
# Total GULP energy -297450.141585 kJ/mol
# GULP energy per Si atom -12393.755899 kJ/mol
# Density = 2.101246 g / cm^3
# Si number density = 21.060393 Si / 1000 Ang^3
#
#
#
# Elastic Constant Matrix: (Units=GPa)
#
#
# Indices 1 2 3 4 5 6 
#
# 1 113.0912 40.8280 38.2390 -1.6711 2.2454 0.0000
# 2 40.8280 113.0912 38.2390 1.6711 -2.2454 0.0000
# 3 38.2390 38.2390 79.2579 0.0000 0.0000 0.0000
# 4 -1.6711 1.6711 0.0000 30.8779 0.0000 -2.2454
# 5 2.2454 -2.2454 0.0000 0.0000 30.8779 -1.6711
# 6 0.0000 0.0000 0.0000 -2.2454 -1.6711 36.1316
#
#
#
# Elastic Compliance Matrix: (Units=1/GPa)
#
#
# Indices 1 2 3 4 5 6 
#
# 1 0.011241 -0.002695 -0.004123 0.000754 -0.001013 0.000000
# 2 -0.002695 0.011241 -0.004123 -0.000754 0.001013 0.000000
# 3 -0.004123 -0.004123 0.016595 0.000000 0.000000 0.000000
# 4 0.000754 -0.000754 0.000000 0.032615 0.000000 0.002027
# 5 -0.001013 0.001013 0.000000 0.000000 0.032615 0.001508
# 6 0.000000 0.000000 0.000000 0.002027 0.001508 0.027872
#
#
# Mechanical properties :
#
#
# Convention : Reuss Voigt Hill
#
# Bulk Modulus (GPa) = 58.15733 60.00583 59.08158
# Shear Modulus (GPa) = 31.29065 32.11979 31.70522
#
# Velocity S-wave (km/s) = 3.85874 3.90953 3.88421
# Velocity P-wave (km/s) = 6.89403 6.99523 6.94482
#
# Compressibility (1/GPa) = 0.01719474
#
# Stress axis : x y z
#
# Youngs Moduli (GPa) = 88.96164 88.96164 60.25812
#
# Poissons Ratio (x) = 0.23978 0.24844
# Poissons Ratio (y) = 0.23978 0.24844
# Poissons Ratio (z) = 0.36678 0.36678
#
# Static dielectric constant tensor:
#      x y z
#    x 3.996380 0.000000 0.000000 
#    y 0.000000 3.996380 0.000000 
#    z 0.000000 0.000000 3.645950 
# 
# 
# High freq. dielectric constant tensor:
#      x y z
#    x 1.830860 0.000000 0.000000 
#    y 0.000000 1.830860 0.000000 
#    z 0.000000 0.000000 1.815610 
# 
# From -- ./inp_files/855.got.cif
#   From: 2010.03.12/outbox.cif.g09.slc.cpg/sg144_cif.got.tgz:855.got - 2010.04.03 13:34:42.
