data_PCOD8321135
_publ_section_title
;
Structure prediction by ZEFSAII (Michael W. Deem and Ramdas Pophale) SiO2 
 PCOD8321135
Probable space group: I 41/A C D
;
_chemical_formula_sum "Si O2"
_cell_formula_units_Z 224
_cell_length_a 23.273994
_cell_length_b 23.273994
_cell_length_c 22.121363
_cell_angle_alpha 90.000000
_cell_angle_beta 90.000000
_cell_angle_gamma 90.000000
_cell_volume 11982.673291
_symmetry_space_group_name_H-M "I 41/A C D"
_symmetry_group_IT_number 142
_space_group.IT_coordinate_system_code '2'
_symmetry_cell_setting 'tetragonal'
loop_
_space_group_symop_operation_xyz
x,y,z
1/4-y,3/4+x,1/4+z
-x,1/2-y,z
1/4+y,1/4-x,3/4+z
x,-y,1/2-z
1/2-x,y,-z
3/4+y,1/4+x,1/4-z
1/4-y,1/4-x,1/4-z
-x,-y,-z
3/4+y,1/4-x,3/4-z
x,1/2+y,-z
3/4-y,3/4+x,1/4-z
-x,y,1/2+z
1/2+x,-y,z
1/4-y,3/4-x,3/4+z
3/4+y,3/4+x,3/4+z
1/2+x,1/2+y,1/2+z
3/4-y,1/4+x,3/4+z
1/2-x,-y,1/2+z
3/4+y,3/4-x,1/4+z
1/2+x,1/2-y,-z
-x,1/2+y,1/2-z
1/4+y,3/4+x,3/4-z
3/4-y,3/4-x,3/4-z
1/2-x,1/2-y,1/2-z
1/4+y,3/4-x,1/4-z
1/2+x,y,1/2-z
1/4-y,1/4+x,3/4-z
1/2-x,1/2+y,z
x,1/2-y,1/2+z
3/4-y,1/4-x,1/4+z
1/4+y,1/4+x,1/4+z
loop_
_atom_site_type_symbol
_atom_site_label
_atom_site_fract_x
_atom_site_fract_y
_atom_site_fract_z
Si Si1 0.047108 0.796748 0.192569
Si Si2 0.188383 0.646996 0.854415
Si Si3 0.850700 0.238142 0.364297
Si Si4 0.581608 0.223265 0.322840
Si Si5 0.263129 0.746784 0.070753
Si Si6 0.840994 0.324504 0.648677
Si Si7 0.277278 0.187940 0.234163
O O1 0.036627 0.861037 0.168961
O O2 0.111236 0.784837 0.169667
O O3 0.045823 0.794302 0.264220
O O4 0.000000 0.750000 0.168960
O O5 0.167036 0.582965 0.875000
O O6 0.133547 0.679544 0.829358
O O7 0.217632 0.682182 0.910036
O O8 0.232097 0.644782 0.797701
O O9 0.794254 0.265698 0.393922
O O10 0.830949 0.193275 0.312369
O O11 0.534730 0.215271 0.375000
O O12 0.606630 0.287624 0.322654
O O13 0.312077 0.791250 0.092185
O O14 0.250000 0.749833 0.000000
O O15 0.865269 0.384732 0.625000
O O16 0.796952 0.339441 0.702574
O O17 0.250000 0.250000 0.250000
#
# Coordination Sequence:
#
# PCOD8321135 Si02
#       7
#    32  32  32  32  32  32  32
#     4  12  23  35  51  90 134 158 195 231 300 396
#     4   9  19  37  60  85 113 158 210 252 307 359
#     4  11  21  36  56  80 124 164 196 240 297 359
#     4  10  22  33  53  83 125 165 193 233 293 376
#     4  10  23  38  56  88 125 153 211 261 298 361
#     4  11  23  37  61  87 121 168 207 248 310 367
#     4  11  18  40  59  82 120 160 207 253 301 379
#
# _framework density 18.693657999999999
#
# number of rings (size 3 to 8) (size 9 to 14) (size 15 to 20)
#    0.000    1.429    7.143    0.000    8.000    1.143 
#    0.000    0.000    0.000    0.000    0.000   15.000 
#    0.000    0.000    0.000    0.000    0.000    0.000 
#
# Total GULP energy -1387972.078711 kJ/mol
# GULP energy per Si atom -12392.607846 kJ/mol
# Density = 1.865111 g / cm^3
# Si number density = 18.693658 Si / 1000 Ang^3
#
#
#
# Elastic Constant Matrix: (Units=GPa)
#
#
# Indices 1 2 3 4 5 6 
#
# 1 80.4107 42.1320 43.1001 0.0000 0.0000 0.0000
# 2 42.1320 80.4074 43.0990 0.0000 0.0000 0.0000
# 3 43.1001 43.0990 161.7859 0.0000 0.0000 0.0000
# 4 0.0000 0.0000 0.0000 30.2409 0.0000 0.0000
# 5 0.0000 0.0000 0.0000 0.0000 30.2412 0.0000
# 6 0.0000 0.0000 0.0000 0.0000 0.0000 28.4754
#
#
#
# Elastic Compliance Matrix: (Units=1/GPa)
#
#
# Indices 1 2 3 4 5 6 
#
# 1 0.018084 -0.008041 -0.002675 0.000000 0.000000 0.000000
# 2 -0.008041 0.018084 -0.002675 0.000000 0.000000 0.000000
# 3 -0.002675 -0.002675 0.007606 0.000000 0.000000 0.000000
# 4 0.000000 0.000000 0.000000 0.033068 0.000000 0.000000
# 5 0.000000 0.000000 0.000000 0.000000 0.033068 0.000000
# 6 0.000000 0.000000 0.000000 0.000000 0.000000 0.035118
#
#
# Mechanical properties :
#
#
# Convention : Reuss Voigt Hill
#
# Bulk Modulus (GPa) = 58.85790 64.36290 61.61040
# Shear Modulus (GPa) = 28.17302 30.74303 29.45803
#
# Velocity S-wave (km/s) = 3.88634 4.05973 3.97398
# Velocity P-wave (km/s) = 7.18971 7.51534 7.35433
#
# Compressibility (1/GPa) = 0.01699007
#
# Stress axis : x y z
#
# Youngs Moduli (GPa) = 55.29902 55.29685 131.46840
#
# Poissons Ratio (x) = 0.44467 0.35171
# Poissons Ratio (y) = 0.44468 0.35172
# Poissons Ratio (z) = 0.14794 0.14793
#
# Static dielectric constant tensor:
#      x y z
#    x 3.502010 0.000000 0.000000 
#    y 0.000000 3.502010 0.000000 
#    z 0.000000 0.000000 3.759670 
# 
# 
# High freq. dielectric constant tensor:
#      x y z
#    x 1.701500 0.000000 0.000000 
#    y 0.000000 1.701500 0.000000 
#    z 0.000000 0.000000 1.747800 
# 
# From -- ./inp_files/10545.got.cif
#   From: 2010.03.12/outbox.cif.g09.slc.cpg/sg142_6_cif.got.tgz:10545.got - 2010.04.03 13:27:16.
