data_PCOD8321103
_publ_section_title
;
Structure prediction by ZEFSAII (Michael W. Deem and Ramdas Pophale) SiO2 
 PCOD8321103
Probable space group: I 41/A C D
;
_chemical_formula_sum "Si O2"
_cell_formula_units_Z 160
_cell_length_a 28.088048
_cell_length_b 28.088048
_cell_length_c 9.022940
_cell_angle_alpha 90.000000
_cell_angle_beta 90.000000
_cell_angle_gamma 90.000000
_cell_volume 7118.544212
_symmetry_space_group_name_H-M "I 41/A C D"
_symmetry_group_IT_number 142
_space_group.IT_coordinate_system_code '2'
_symmetry_cell_setting 'tetragonal'
loop_
_space_group_symop_operation_xyz
x,y,z
1/4-y,3/4+x,1/4+z
-x,1/2-y,z
1/4+y,1/4-x,3/4+z
x,-y,1/2-z
1/2-x,y,-z
3/4+y,1/4+x,1/4-z
1/4-y,1/4-x,1/4-z
-x,-y,-z
3/4+y,1/4-x,3/4-z
x,1/2+y,-z
3/4-y,3/4+x,1/4-z
-x,y,1/2+z
1/2+x,-y,z
1/4-y,3/4-x,3/4+z
3/4+y,3/4+x,3/4+z
1/2+x,1/2+y,1/2+z
3/4-y,1/4+x,3/4+z
1/2-x,-y,1/2+z
3/4+y,3/4-x,1/4+z
1/2+x,1/2-y,-z
-x,1/2+y,1/2-z
1/4+y,3/4+x,3/4-z
3/4-y,3/4-x,3/4-z
1/2-x,1/2-y,1/2-z
1/4+y,3/4-x,1/4-z
1/2+x,y,1/2-z
1/4-y,1/4+x,3/4-z
1/2-x,1/2+y,z
x,1/2-y,1/2+z
3/4-y,1/4-x,1/4+z
1/4+y,1/4+x,1/4+z
loop_
_atom_site_type_symbol
_atom_site_label
_atom_site_fract_x
_atom_site_fract_y
_atom_site_fract_z
Si Si1 0.437052 0.500000 0.750000
Si Si2 0.188463 0.774955 0.252587
Si Si3 0.449149 0.300852 0.875000
Si Si4 0.685849 0.833527 0.749440
Si Si5 0.445370 0.695370 0.125000
Si Si6 0.589770 0.357742 0.126619
Si Si7 0.250000 0.311963 0.500000
O O1 0.471117 0.518296 0.883564
O O2 0.405972 0.457917 0.832678
O O3 0.167519 0.721587 0.244209
O O4 0.152255 0.817348 0.210614
O O5 0.207772 0.781966 0.419966
O O6 0.501607 0.309269 0.943092
O O7 0.445949 0.342629 0.755546
O O8 0.641069 0.866694 0.794846
O O9 0.726385 0.844408 0.871795
O O10 0.435304 0.657819 0.257118
#
# Coordination Sequence:
#
# PCOD8321103 Si02
#       7
#    16  32  16  32  16  32  16
#     4  10  21  36  56  76 102 145 188 233 286 342
#     4  11  20  35  55  78 108 143 187 233 284 340
#     4  11  22  36  50  70 108 156 196 227 270 330
#     4  11  20  35  55  78 108 143 187 233 284 340
#     4  11  22  36  50  70 108 156 196 227 270 330
#     4  12  24  35  54  82 110 143 190 244 290 338
#     4  10  21  36  56  76 102 145 188 233 286 342
#
# _framework density 22.476505
#
# number of rings (size 3 to 8) (size 9 to 14) (size 15 to 20)
#    0.000    1.000    0.000   10.800    0.000    1.600 
#    0.000    0.000    0.000    0.000    0.000    0.000 
#    0.000   22.400    0.000    0.000    0.000    0.000 
#
# Total GULP energy -991202.424774 kJ/mol
# GULP energy per Si atom -12390.030310 kJ/mol
# Density = 2.242535 g / cm^3
# Si number density = 22.476505 Si / 1000 Ang^3
#
#
#
# Elastic Constant Matrix: (Units=GPa)
#
#
# Indices 1 2 3 4 5 6 
#
# 1 66.7793 51.0572 28.9390 0.0000 0.0000 0.0000
# 2 51.0572 66.7791 28.9387 0.0000 0.0000 0.0000
# 3 28.9390 28.9387 142.3254 0.0000 0.0000 0.0000
# 4 0.0000 0.0000 0.0000 34.6858 0.0000 0.0000
# 5 0.0000 0.0000 0.0000 0.0000 34.6849 0.0000
# 6 0.0000 0.0000 0.0000 0.0000 0.0000 23.9007
#
#
#
# Elastic Compliance Matrix: (Units=1/GPa)
#
#
# Indices 1 2 3 4 5 6 
#
# 1 0.036516 -0.027089 -0.001917 0.000000 0.000000 0.000000
# 2 -0.027089 0.036516 -0.001917 0.000000 0.000000 0.000000
# 3 -0.001917 -0.001917 0.007806 0.000000 0.000000 0.000000
# 4 0.000000 0.000000 0.000000 0.028830 0.000000 0.000000
# 5 0.000000 0.000000 0.000000 0.000000 0.028831 0.000000
# 6 0.000000 0.000000 0.000000 0.000000 0.000000 0.041840
#
#
# Mechanical properties :
#
#
# Convention : Reuss Voigt Hill
#
# Bulk Modulus (GPa) = 52.64918 54.86150 53.75534
# Shear Modulus (GPa) = 20.11945 29.78421 24.95183
#
# Velocity S-wave (km/s) = 2.99512 3.64418 3.33548
# Velocity P-wave (km/s) = 5.95281 6.49370 6.22913
#
# Compressibility (1/GPa) = 0.01899365
#
# Stress axis : x y z
#
# Youngs Moduli (GPa) = 27.38493 27.38493 128.11152
#
# Poissons Ratio (x) = 0.74182 0.24560
# Poissons Ratio (y) = 0.74182 0.24557
# Poissons Ratio (z) = 0.05250 0.05249
#
# Static dielectric constant tensor:
#      x y z
#    x 3.767120 0.000000 0.000000 
#    y 0.000000 3.767150 0.000000 
#    z 0.000000 0.000000 4.694080 
# 
# 
# High freq. dielectric constant tensor:
#      x y z
#    x 1.848380 0.000000 0.000000 
#    y 0.000000 1.848380 0.000000 
#    z 0.000000 0.000000 1.922720 
# 
# From -- ./inp_files/2264.got.cif
#   From: 2010.03.12/outbox.cif.g09.slc.cpg/sg142_2_cif.got.tgz:2264.got - 2010.04.03 13:27:16.
