data_PCOD8321250
_publ_section_title
;
Structure prediction by ZEFSAII (Michael W. Deem and Ramdas Pophale) SiO2 
 PCOD8321250
Probable space group: I 41/A C D
;
_chemical_formula_sum "Si O2"
_cell_formula_units_Z 128
_cell_length_a 19.939287
_cell_length_b 19.939287
_cell_length_c 15.183700
_cell_angle_alpha 90.000000
_cell_angle_beta 90.000000
_cell_angle_gamma 90.000000
_cell_volume 6036.662049
_symmetry_space_group_name_H-M "I 41/A C D"
_symmetry_group_IT_number 142
_space_group.IT_coordinate_system_code '2'
_symmetry_cell_setting 'tetragonal'
loop_
_space_group_symop_operation_xyz
x,y,z
1/4-y,3/4+x,1/4+z
-x,1/2-y,z
1/4+y,1/4-x,3/4+z
x,-y,1/2-z
1/2-x,y,-z
3/4+y,1/4+x,1/4-z
1/4-y,1/4-x,1/4-z
-x,-y,-z
3/4+y,1/4-x,3/4-z
x,1/2+y,-z
3/4-y,3/4+x,1/4-z
-x,y,1/2+z
1/2+x,-y,z
1/4-y,3/4-x,3/4+z
3/4+y,3/4+x,3/4+z
1/2+x,1/2+y,1/2+z
3/4-y,1/4+x,3/4+z
1/2-x,-y,1/2+z
3/4+y,3/4-x,1/4+z
1/2+x,1/2-y,-z
-x,1/2+y,1/2-z
1/4+y,3/4+x,3/4-z
3/4-y,3/4-x,3/4-z
1/2-x,1/2-y,1/2-z
1/4+y,3/4-x,1/4-z
1/2+x,y,1/2-z
1/4-y,1/4+x,3/4-z
1/2-x,1/2+y,z
x,1/2-y,1/2+z
3/4-y,1/4-x,1/4+z
1/4+y,1/4+x,1/4+z
loop_
_atom_site_type_symbol
_atom_site_label
_atom_site_fract_x
_atom_site_fract_y
_atom_site_fract_z
Si Si1 0.648593 0.175720 0.198465
Si Si2 0.429092 0.179092 0.875000
Si Si3 0.078726 0.328726 0.125000
Si Si4 0.080142 0.900073 0.053808
Si Si5 0.823340 0.482796 0.039090
O O1 0.616482 0.164455 0.292813
O O2 0.674145 0.252524 0.185639
O O3 0.595792 0.160856 0.120720
O O4 0.706995 0.119771 0.206911
O O5 0.503471 0.164408 0.839438
O O6 0.128372 0.344887 0.204276
O O7 0.134290 0.955779 0.078736
O O8 0.815134 0.434867 0.125000
O O9 0.750000 0.502296 0.000000
#
# Coordination Sequence:
#
# PCOD8321250 Si02
#       5
#    32  16  16  32  32
#     4  11  22  41  67  99 132 172 227 279 339 403
#     4   9  18  36  61  88 128 170 203 266 340 401
#     4   9  20  36  57  92 130 164 209 266 337 390
#     4  11  24  40  67 101 132 175 225 286 335 403
#     4  12  25  45  67  91 133 184 232 273 338 402
#
# _framework density 21.203772000000001
#
# number of rings (size 3 to 8) (size 9 to 14) (size 15 to 20)
#    0.000    1.250    3.750    2.250    1.750    2.500 
#    0.000    0.000    0.000    0.000    0.000    0.000 
#    0.000    0.000    0.000    0.000    0.000    0.000 
#
# Total GULP energy -792945.947983 kJ/mol
# GULP energy per Si atom -12389.780437 kJ/mol
# Density = 2.115551 g / cm^3
# Si number density = 21.203772 Si / 1000 Ang^3
#
#
#
# Elastic Constant Matrix: (Units=GPa)
#
#
# Indices 1 2 3 4 5 6 
#
# 1 119.4052 58.9060 39.3935 0.0000 0.0000 0.0000
# 2 58.9060 119.4059 39.3933 0.0000 0.0000 0.0000
# 3 39.3935 39.3933 70.3302 0.0000 0.0000 0.0000
# 4 0.0000 0.0000 0.0000 30.9798 0.0000 0.0000
# 5 0.0000 0.0000 0.0000 0.0000 30.9794 0.0000
# 6 0.0000 0.0000 0.0000 0.0000 0.0000 34.1700
#
#
#
# Elastic Compliance Matrix: (Units=1/GPa)
#
#
# Indices 1 2 3 4 5 6 
#
# 1 0.011991 -0.004538 -0.004174 0.000000 0.000000 0.000000
# 2 -0.004538 0.011991 -0.004174 0.000000 0.000000 0.000000
# 3 -0.004174 -0.004174 0.018895 0.000000 0.000000 0.000000
# 4 0.000000 0.000000 0.000000 0.032279 0.000000 0.000000
# 5 0.000000 0.000000 0.000000 0.000000 0.032280 0.000000
# 6 0.000000 0.000000 0.000000 0.000000 0.000000 0.029265
#
#
# Mechanical properties :
#
#
# Convention : Reuss Voigt Hill
#
# Bulk Modulus (GPa) = 58.47028 64.94744 61.70886
# Shear Modulus (GPa) = 29.73087 30.65575 30.19331
#
# Velocity S-wave (km/s) = 3.74859 3.80645 3.77763
# Velocity P-wave (km/s) = 6.80964 7.07216 6.94214
#
# Compressibility (1/GPa) = 0.01710271
#
# Stress axis : x y z
#
# Youngs Moduli (GPa) = 83.39670 83.39752 52.92421
#
# Poissons Ratio (x) = 0.37848 0.22093
# Poissons Ratio (y) = 0.37847 0.22092
# Poissons Ratio (z) = 0.34813 0.34813
#
# Static dielectric constant tensor:
#      x y z
#    x 3.835440 0.000000 0.000000 
#    y 0.000000 3.835440 0.000000 
#    z 0.000000 0.000000 3.642350 
# 
# 
# High freq. dielectric constant tensor:
#      x y z
#    x 1.829550 0.000000 0.000000 
#    y 0.000000 1.829550 0.000000 
#    z 0.000000 0.000000 1.835900 
# 
# From -- ./inp_files/5145.got.cif
#   From: 2010.03.12/outbox.cif.g09.slc.cpg/sg142_3_cif.got.tgz:5145.got - 2010.04.03 13:27:16.
