data_PCOD8321613
_publ_section_title
;
Structure prediction by ZEFSAII (Michael W. Deem and Ramdas Pophale) SiO2 
 PCOD8321613
Probable space group: P -3
;
_chemical_formula_sum "Si O2"
_cell_formula_units_Z 36
_cell_length_a 12.587201
_cell_length_b 12.587201
_cell_length_c 15.234245
_cell_angle_alpha 90.000000
_cell_angle_beta 90.000000
_cell_angle_gamma 120.000000
_cell_volume 2090.306168
_symmetry_space_group_name_H-M "P -3"
_symmetry_group_IT_number 147
_symmetry_cell_setting 'hexagonal'
loop_
_space_group_symop_operation_xyz
x,y,z
-y,x-y,z
-x+y,-x,z
-x,-y,-z
y,-x+y,-z
x-y,x,-z
loop_
_atom_site_type_symbol
_atom_site_label
_atom_site_fract_x
_atom_site_fract_y
_atom_site_fract_z
Si Si1 0.915860 0.580881 0.918799
Si Si2 0.243564 0.243685 0.599370
Si Si3 0.419118 0.084140 0.918799
Si Si4 0.243685 0.243563 0.400630
Si Si5 0.579697 0.913302 0.755255
Si Si6 0.579697 0.666395 0.755255
O O1 0.878236 0.439118 0.926451
O O2 0.795174 0.590347 0.920421
O O3 0.987084 0.640192 0.829347
O O4 0.000000 0.657295 1.000000
O O5 0.287638 0.287638 0.500000
O O6 0.100240 0.200479 0.609051
O O7 0.326585 0.357407 0.662124
O O8 0.261096 0.130548 0.626391
O O9 0.359807 0.012915 0.829348
O O10 0.357407 0.326585 0.337876
O O11 0.583147 0.791574 0.779412
O O12 0.439378 0.878757 0.749867
#
# Coordination Sequence:
#
# PCOD8321613 Si02
#       6
#     6   6   6   6   6   6
#     4  10  20  34  53  75  99 127 159 196 236 281
#     4   9  17  30  49  72  97 126 161 201 244 289
#     4  10  20  34  53  75  99 127 159 196 236 281
#     4   9  17  30  49  72  97 126 161 201 244 289
#     4  10  20  33  50  71  97 129 163 200 240 285
#     4  10  20  33  50  71  97 129 163 200 240 285
#
# _framework density 17.222356999999999
#
# number of rings (size 3 to 8) (size 9 to 14) (size 15 to 20)
#    0.000    2.333    0.000    3.000    0.000    2.000 
#    0.000    3.333    0.000    8.667    0.000    0.000 
#    0.000    0.000    0.000    0.000    0.000    0.000 
#
# Total GULP energy -446505.944141 kJ/mol
# GULP energy per Si atom -12402.942893 kJ/mol
# Density = 1.718316 g / cm^3
# Si number density = 17.222357 Si / 1000 Ang^3
#
#
#
# Elastic Constant Matrix: (Units=GPa)
#
#
# Indices 1 2 3 4 5 6 
#
# 1 106.1960 70.2267 54.5864 1.4849 0.0003 0.0000
# 2 70.2267 106.1960 54.5864 -1.4849 -0.0003 0.0000
# 3 54.5864 54.5864 110.8485 0.0000 0.0000 0.0000
# 4 1.4849 -1.4849 0.0000 24.1297 0.0000 -0.0003
# 5 0.0003 -0.0003 0.0000 0.0000 24.1297 1.4849
# 6 0.0000 0.0000 0.0000 -0.0003 1.4849 17.9846
#
#
#
# Elastic Compliance Matrix: (Units=1/GPa)
#
#
# Indices 1 2 3 4 5 6 
#
# 1 0.018048 -0.009896 -0.004015 -0.001720 0.000000 0.000000
# 2 -0.009896 0.018048 -0.004015 0.001720 0.000000 0.000000
# 3 -0.004015 -0.004015 0.012975 0.000000 0.000000 0.000000
# 4 -0.001720 0.001720 0.000000 0.041654 0.000000 0.000001
# 5 0.000000 0.000000 0.000000 0.000000 0.041654 -0.003439
# 6 0.000000 0.000000 0.000000 0.000001 -0.003439 0.055887
#
#
# Mechanical properties :
#
#
# Convention : Reuss Voigt Hill
#
# Bulk Modulus (GPa) = 75.63293 75.78217 75.70755
# Shear Modulus (GPa) = 21.87954 22.83819 22.35887
#
# Velocity S-wave (km/s) = 3.56816 3.64549 3.60703
# Velocity P-wave (km/s) = 7.80939 7.86239 7.83593
#
# Compressibility (1/GPa) = 0.01322175
#
# Stress axis : x y z
#
# Youngs Moduli (GPa) = 55.40772 55.40772 77.06963
#
# Poissons Ratio (x) = 0.54829 0.30941
# Poissons Ratio (y) = 0.54829 0.30941
# Poissons Ratio (z) = 0.22244 0.22244
#
# Static dielectric constant tensor:
#      x y z
#    x 3.110880 0.000000 0.000000 
#    y 0.000000 3.110880 0.000000 
#    z 0.000000 0.000000 3.428150 
# 
# 
# High freq. dielectric constant tensor:
#      x y z
#    x 1.662820 0.000000 0.000000 
#    y 0.000000 1.662820 0.000000 
#    z 0.000000 0.000000 1.679590 
# 
# From -- ./inp_files/924.got.cif
#   From: 2010.03.12/outbox.cif.g09.slc.cpg/sg147_cif.got.tgz:924.got - 2010.04.03 13:37:56.
