data_PCOD8321884
_publ_section_title
;
Structure prediction by ZEFSAII (Michael W. Deem and Ramdas Pophale) SiO2 
 PCOD8321884
Probable space group: P 3 2 1
;
_chemical_formula_sum "Si O2"
_cell_formula_units_Z 48
_cell_length_a 12.975097
_cell_length_b 12.975097
_cell_length_c 20.202051
_cell_angle_alpha 90.000000
_cell_angle_beta 90.000000
_cell_angle_gamma 120.000000
_cell_volume 2945.420610
_symmetry_space_group_name_H-M "P 3 2 1"
_symmetry_group_IT_number 150
_symmetry_cell_setting 'hexagonal'
loop_
_space_group_symop_operation_xyz
x,y,z
-y,x-y,z
-x+y,-x,z
x-y,-y,-z
-x,-x+y,-z
y,x,-z
loop_
_atom_site_type_symbol
_atom_site_label
_atom_site_fract_x
_atom_site_fract_y
_atom_site_fract_z
Si Si1 0.000548 0.761271 0.574205
Si Si2 0.095095 0.667109 0.170397
Si Si3 0.910541 0.335308 0.059158
Si Si4 0.333108 0.903776 0.321028
Si Si5 0.424767 0.335308 0.059158
Si Si6 0.760723 0.761271 0.574205
Si Si7 0.095095 0.427987 0.170397
Si Si8 0.096224 0.666892 0.321028
O O1 0.893998 0.787997 0.583107
O O2 0.994409 0.668329 0.628163
O O3 0.000000 0.713884 0.500000
O O4 0.119014 0.880986 0.589774
O O5 0.131813 0.565906 0.161829
O O6 0.208266 0.791734 0.147916
O O7 0.058756 0.673498 0.245810
O O8 0.979942 0.636490 0.126780
O O9 0.792866 0.207134 0.054234
O O10 0.873049 0.436525 0.056367
O O11 0.979942 0.343452 0.126780
O O12 0.000000 0.352371 0.000000
O O13 0.326080 0.994409 0.371837
O O14 0.326502 0.941244 0.245810
O O15 0.229824 0.770176 0.334768
O O16 0.455015 0.910030 0.336688
O O17 0.352371 0.352371 0.000000
O O18 0.713884 0.713884 0.500000
#
# Coordination Sequence:
#
# PCOD8321884 Si02
#       8
#     6   6   6   6   6   6   6   6
#     4   9  17  29  45  64  86 115 152 192 230 267
#     4   9  17  30  49  71  93 118 149 185 223 264
#     4  10  20  33  50  71  94 120 150 185 223 262
#     4   9  17  29  46  68  92 118 148 183 224 268
#     4  10  20  33  50  71  94 120 150 185 223 262
#     4   9  17  29  45  64  86 115 152 192 230 267
#     4   9  17  30  49  71  93 118 149 185 223 264
#     4   9  17  29  46  68  92 118 148 183 224 268
#
# _framework density 16.296485000000001
#
# number of rings (size 3 to 8) (size 9 to 14) (size 15 to 20)
#    0.000    2.750    0.000    1.750    0.000    4.500 
#    0.000    2.500    0.000    5.000    0.000    0.000 
#    0.000    0.000    0.000    0.000    0.000    0.000 
#
# Total GULP energy -595149.495293 kJ/mol
# GULP energy per Si atom -12398.947819 kJ/mol
# Density = 1.625939 g / cm^3
# Si number density = 16.296485 Si / 1000 Ang^3
#
#
#
# Elastic Constant Matrix: (Units=GPa)
#
#
# Indices 1 2 3 4 5 6 
#
# 1 95.0853 55.8195 63.2183 0.6323 0.0000 0.0000
# 2 55.8195 95.0853 63.2183 -0.6323 0.0000 0.0000
# 3 63.2183 63.2183 114.3782 0.0000 0.0000 0.0000
# 4 0.6323 -0.6323 0.0000 25.7645 0.0000 0.0000
# 5 0.0000 0.0000 0.0000 0.0000 25.7645 0.6323
# 6 0.0000 0.0000 0.0000 0.0000 0.6323 19.6329
#
#
#
# Elastic Compliance Matrix: (Units=1/GPa)
#
#
# Indices 1 2 3 4 5 6 
#
# 1 0.018915 -0.006573 -0.006822 -0.000625 0.000000 0.000000
# 2 -0.006573 0.018915 -0.006822 0.000625 0.000000 0.000000
# 3 -0.006822 -0.006822 0.016284 0.000000 0.000000 0.000000
# 4 -0.000625 0.000625 0.000000 0.038844 0.000000 0.000000
# 5 0.000000 0.000000 0.000000 0.000000 0.038844 -0.001251
# 6 0.000000 0.000000 0.000000 0.000000 -0.001251 0.050975
#
#
# Mechanical properties :
#
#
# Convention : Reuss Voigt Hill
#
# Bulk Modulus (GPa) = 73.09141 74.34012 73.71576
# Shear Modulus (GPa) = 21.95200 22.38522 22.16861
#
# Velocity S-wave (km/s) = 3.67418 3.71026 3.69227
# Velocity P-wave (km/s) = 7.93397 8.00444 7.96928
#
# Compressibility (1/GPa) = 0.01368150
#
# Stress axis : x y z
#
# Youngs Moduli (GPa) = 52.86808 52.86808 61.41034
#
# Poissons Ratio (x) = 0.34748 0.41893
# Poissons Ratio (y) = 0.34748 0.41893
# Poissons Ratio (z) = 0.36065 0.36065
#
# Static dielectric constant tensor:
#      x y z
#    x 2.952560 0.000000 0.000000 
#    y 0.000000 2.952560 0.000000 
#    z 0.000000 0.000000 3.338700 
# 
# 
# High freq. dielectric constant tensor:
#      x y z
#    x 1.614990 0.000000 0.000000 
#    y 0.000000 1.614990 0.000000 
#    z 0.000000 0.000000 1.641460 
# 
# From -- ./inp_files/1147.got.cif
#   From: 2010.03.12/outbox.cif.g09.slc.cpg/sg150_cif.got.tgz:1147.got - 2010.04.03 13:41:37.
