data_PCOD8321315
_publ_section_title
;
Structure prediction by ZEFSAII (Michael W. Deem and Ramdas Pophale) SiO2 
 PCOD8321315
Probable space group: I 41/A C D
;
_chemical_formula_sum "Si O2"
_cell_formula_units_Z 136
_cell_length_a 17.394724
_cell_length_b 17.394724
_cell_length_c 20.051474
_cell_angle_alpha 90.000000
_cell_angle_beta 90.000000
_cell_angle_gamma 90.000000
_cell_volume 6067.103280
_symmetry_space_group_name_H-M "I 41/A C D"
_symmetry_group_IT_number 142
_space_group.IT_coordinate_system_code '2'
_symmetry_cell_setting 'tetragonal'
loop_
_space_group_symop_operation_xyz
x,y,z
1/4-y,3/4+x,1/4+z
-x,1/2-y,z
1/4+y,1/4-x,3/4+z
x,-y,1/2-z
1/2-x,y,-z
3/4+y,1/4+x,1/4-z
1/4-y,1/4-x,1/4-z
-x,-y,-z
3/4+y,1/4-x,3/4-z
x,1/2+y,-z
3/4-y,3/4+x,1/4-z
-x,y,1/2+z
1/2+x,-y,z
1/4-y,3/4-x,3/4+z
3/4+y,3/4+x,3/4+z
1/2+x,1/2+y,1/2+z
3/4-y,1/4+x,3/4+z
1/2-x,-y,1/2+z
3/4+y,3/4-x,1/4+z
1/2+x,1/2-y,-z
-x,1/2+y,1/2-z
1/4+y,3/4+x,3/4-z
3/4-y,3/4-x,3/4-z
1/2-x,1/2-y,1/2-z
1/4+y,3/4-x,1/4-z
1/2+x,y,1/2-z
1/4-y,1/4+x,3/4-z
1/2-x,1/2+y,z
x,1/2-y,1/2+z
3/4-y,1/4-x,1/4+z
1/4+y,1/4+x,1/4+z
loop_
_atom_site_type_symbol
_atom_site_label
_atom_site_fract_x
_atom_site_fract_y
_atom_site_fract_z
Si Si1 0.449575 0.843884 0.514456
Si Si2 0.000000 0.750000 0.375000
Si Si3 0.996991 0.078117 0.294596
Si Si4 0.584865 0.898417 0.423300
Si Si5 0.320961 0.962006 0.549419
O O1 0.500499 0.827502 0.580218
O O2 0.408231 0.763093 0.494902
O O3 0.503558 0.877028 0.456910
O O4 0.374690 0.891884 0.531425
O O5 0.917385 0.099697 0.331122
O O6 0.064737 0.069209 0.349436
O O7 0.991933 0.000000 0.250000
O O8 0.625634 0.964756 0.464868
O O9 0.250000 0.963634 0.500000
O O10 0.290674 0.959327 0.625000
#
# Coordination Sequence:
#
# PCOD8321315 Si02
#       5
#    32   8  32  32  32
#     4  12  24  46  72 106 143 191 244 309 374 451
#     4  12  24  40  70 104 144 176 248 310 362 450
#     4  12  25  45  76 111 149 197 249 316 386 454
#     4  12  25  46  74 108 147 192 254 311 377 462
#     4  12  27  49  70 102 147 195 243 304 384 455
#
# _framework density 22.415967999999999
#
# number of rings (size 3 to 8) (size 9 to 14) (size 15 to 20)
#    0.000    0.000    5.882    4.941    0.000    0.000 
#    2.118    0.000    0.000    0.000    0.000    0.000 
#    0.000    0.000    0.000    0.000    0.000    0.000 
#
# Total GULP energy -842801.439380 kJ/mol
# GULP energy per Si atom -12394.138814 kJ/mol
# Density = 2.236495 g / cm^3
# Si number density = 22.415968 Si / 1000 Ang^3
#
#
#
# Elastic Constant Matrix: (Units=GPa)
#
#
# Indices 1 2 3 4 5 6 
#
# 1 151.4364 127.2873 72.5099 0.0000 0.0000 0.0000
# 2 127.2873 151.4399 72.5110 0.0000 0.0000 0.0000
# 3 72.5099 72.5110 144.5549 0.0000 0.0000 0.0000
# 4 0.0000 0.0000 0.0000 39.1306 0.0000 0.0000
# 5 0.0000 0.0000 0.0000 0.0000 39.1306 0.0000
# 6 0.0000 0.0000 0.0000 0.0000 0.0000 32.3517
#
#
#
# Elastic Compliance Matrix: (Units=1/GPa)
#
#
# Indices 1 2 3 4 5 6 
#
# 1 0.023131 -0.018276 -0.002435 0.000000 0.000000 0.000000
# 2 -0.018276 0.023130 -0.002435 0.000000 0.000000 0.000000
# 3 -0.002435 -0.002435 0.009361 0.000000 0.000000 0.000000
# 4 0.000000 0.000000 0.000000 0.025555 0.000000 0.000000
# 5 0.000000 0.000000 0.000000 0.000000 0.025555 0.000000
# 6 0.000000 0.000000 0.000000 0.000000 0.000000 0.030910
#
#
# Mechanical properties :
#
#
# Convention : Reuss Voigt Hill
#
# Bulk Modulus (GPa) = 107.18610 110.22750 108.70680
# Shear Modulus (GPa) = 26.73145 33.79745 30.26445
#
# Velocity S-wave (km/s) = 3.45703 3.88718 3.67840
# Velocity P-wave (km/s) = 7.99096 8.33230 8.16341
#
# Compressibility (1/GPa) = 0.00932957
#
# Stress axis : x y z
#
# Youngs Moduli (GPa) = 43.23231 43.23323 106.82764
#
# Poissons Ratio (x) = 0.79012 0.26015
# Poissons Ratio (y) = 0.79010 0.26015
# Poissons Ratio (z) = 0.10528 0.10528
#
# Static dielectric constant tensor:
#      x y z
#    x 4.052450 0.000000 0.000000 
#    y 0.000000 4.052450 0.000000 
#    z 0.000000 0.000000 4.227010 
# 
# 
# High freq. dielectric constant tensor:
#      x y z
#    x 1.891380 0.000000 0.000000 
#    y 0.000000 1.891380 0.000000 
#    z 0.000000 0.000000 1.890520 
# 
# From -- ./inp_files/8778.got.cif
#   From: 2010.03.12/outbox.cif.g09.slc.cpg/sg142_5_cif.got.tgz:8778.got - 2010.04.03 13:27:16.
