data_PCOD8321099
_publ_section_title
;
Structure prediction by ZEFSAII (Michael W. Deem and Ramdas Pophale) SiO2 
 PCOD8321099
Probable space group: I 41/A C D
;
_chemical_formula_sum "Si O2"
_cell_formula_units_Z 128
_cell_length_a 20.386755
_cell_length_b 20.386755
_cell_length_c 18.839796
_cell_angle_alpha 90.000000
_cell_angle_beta 90.000000
_cell_angle_gamma 90.000000
_cell_volume 7830.191858
_symmetry_space_group_name_H-M "I 41/A C D"
_symmetry_group_IT_number 142
_space_group.IT_coordinate_system_code '2'
_symmetry_cell_setting 'tetragonal'
loop_
_space_group_symop_operation_xyz
x,y,z
1/4-y,3/4+x,1/4+z
-x,1/2-y,z
1/4+y,1/4-x,3/4+z
x,-y,1/2-z
1/2-x,y,-z
3/4+y,1/4+x,1/4-z
1/4-y,1/4-x,1/4-z
-x,-y,-z
3/4+y,1/4-x,3/4-z
x,1/2+y,-z
3/4-y,3/4+x,1/4-z
-x,y,1/2+z
1/2+x,-y,z
1/4-y,3/4-x,3/4+z
3/4+y,3/4+x,3/4+z
1/2+x,1/2+y,1/2+z
3/4-y,1/4+x,3/4+z
1/2-x,-y,1/2+z
3/4+y,3/4-x,1/4+z
1/2+x,1/2-y,-z
-x,1/2+y,1/2-z
1/4+y,3/4+x,3/4-z
3/4-y,3/4-x,3/4-z
1/2-x,1/2-y,1/2-z
1/4+y,3/4-x,1/4-z
1/2+x,y,1/2-z
1/4-y,1/4+x,3/4-z
1/2-x,1/2+y,z
x,1/2-y,1/2+z
3/4-y,1/4-x,1/4+z
1/4+y,1/4+x,1/4+z
loop_
_atom_site_type_symbol
_atom_site_label
_atom_site_fract_x
_atom_site_fract_y
_atom_site_fract_z
Si Si1 0.545032 0.653599 0.880721
Si Si2 0.783571 0.313484 0.782453
Si Si3 0.693919 0.512599 0.052699
Si Si4 0.711488 0.140748 0.568674
O O1 0.470580 0.666039 0.857282
O O2 0.548773 0.611125 0.953791
O O3 0.579288 0.612205 0.817181
O O4 0.750000 0.250000 0.750000
O O5 0.774134 0.372259 0.728079
O O6 0.751961 0.334117 0.859113
O O7 0.696427 0.553574 0.125000
O O8 0.707765 0.437182 0.070274
O O9 0.750000 0.539480 0.000000
O O10 0.750000 0.166831 0.500000
#
# Coordination Sequence:
#
# PCOD8321099 Si02
#       4
#    32  32  32  32
#     4   9  18  36  56  77 106 150 188 223 283 345
#     4  10  21  35  54  85 113 146 187 237 281 345
#     4  11  19  36  56  84 115 147 187 235 296 340
#     4   9  20  34  55  83 107 146 185 231 286 339
#
# _framework density 16.346981
#
# number of rings (size 3 to 8) (size 9 to 14) (size 15 to 20)
#    1.500    0.750    2.500    1.500    0.000    0.000 
#    4.500    0.000    0.000    0.000    0.000    0.000 
#    0.000    0.000    0.000    0.000    0.000    0.000 
#
# Total GULP energy -793032.983833 kJ/mol
# GULP energy per Si atom -12391.140372 kJ/mol
# Density = 1.630977 g / cm^3
# Si number density = 16.346981 Si / 1000 Ang^3
#
#
#
# Elastic Constant Matrix: (Units=GPa)
#
#
# Indices 1 2 3 4 5 6 
#
# 1 89.1360 25.2693 53.5578 0.0000 0.0000 0.0000
# 2 25.2693 89.1359 53.5577 0.0000 0.0000 0.0000
# 3 53.5578 53.5577 133.3646 0.0000 0.0000 0.0000
# 4 0.0000 0.0000 0.0000 28.5471 0.0000 0.0000
# 5 0.0000 0.0000 0.0000 0.0000 28.5475 0.0000
# 6 0.0000 0.0000 0.0000 0.0000 0.0000 26.8895
#
#
#
# Elastic Compliance Matrix: (Units=1/GPa)
#
#
# Indices 1 2 3 4 5 6 
#
# 1 0.014833 -0.000825 -0.005625 0.000000 0.000000 0.000000
# 2 -0.000825 0.014833 -0.005625 0.000000 0.000000 0.000000
# 3 -0.005625 -0.005625 0.012016 0.000000 0.000000 0.000000
# 4 0.000000 0.000000 0.000000 0.035030 0.000000 0.000000
# 5 0.000000 0.000000 0.000000 0.000000 0.035029 0.000000
# 6 0.000000 0.000000 0.000000 0.000000 0.000000 0.037189
#
#
# Mechanical properties :
#
#
# Convention : Reuss Voigt Hill
#
# Bulk Modulus (GPa) = 57.04345 64.04514 60.54430
# Shear Modulus (GPa) = 27.94465 28.74692 28.34578
#
# Velocity S-wave (km/s) = 4.13906 4.19805 4.16866
# Velocity P-wave (km/s) = 7.60352 7.92224 7.76451
#
# Compressibility (1/GPa) = 0.01753050
#
# Stress axis : x y z
#
# Youngs Moduli (GPa) = 67.41855 67.41854 83.21940
#
# Poissons Ratio (x) = 0.05561 0.46814
# Poissons Ratio (y) = 0.05561 0.46814
# Poissons Ratio (z) = 0.37926 0.37925
#
# Static dielectric constant tensor:
#      x y z
#    x 3.039310 0.000000 0.000000 
#    y 0.000000 3.039310 0.000000 
#    z 0.000000 0.000000 3.078270 
# 
# 
# High freq. dielectric constant tensor:
#      x y z
#    x 1.626360 0.000000 0.000000 
#    y 0.000000 1.626360 0.000000 
#    z 0.000000 0.000000 1.620030 
# 
# From -- ./inp_files/7119.got.cif
#   From: 2010.03.12/outbox.cif.g09.slc.cpg/sg142_4_cif.got.tgz:7119.got - 2010.04.03 13:27:16.
