data_PCOD8321474
_publ_section_title
;
Structure prediction by ZEFSAII (Michael W. Deem and Ramdas Pophale) SiO2 
 PCOD8321474
Probable space group: P 32
;
_chemical_formula_sum "Si O2"
_cell_formula_units_Z 21
_cell_length_a 9.155846
_cell_length_b 9.155846
_cell_length_c 12.571505
_cell_angle_alpha 90.000000
_cell_angle_beta 90.000000
_cell_angle_gamma 120.000000
_cell_volume 912.672285
_symmetry_space_group_name_H-M "P 32"
_symmetry_group_IT_number 145
_symmetry_cell_setting 'hexagonal'
loop_
_space_group_symop_operation_xyz
x,y,z
-y,x-y,2/3+z
-x+y,-x,1/3+z
loop_
_atom_site_type_symbol
_atom_site_label
_atom_site_fract_x
_atom_site_fract_y
_atom_site_fract_z
Si Si1 0.011361 0.206791 0.895980
Si Si2 0.454615 0.836691 0.054054
Si Si3 0.524189 0.436801 0.564674
Si Si4 0.767796 0.028890 0.725574
Si Si5 0.602820 0.919422 0.423568
Si Si6 0.764246 0.487047 0.224915
Si Si7 0.433773 0.927002 0.813849
O O1 0.134218 0.249064 0.794136
O O2 0.979487 0.353176 0.940157
O O3 0.836776 0.061667 0.846671
O O4 0.086239 0.151644 0.993482
O O5 0.265918 0.703706 0.097181
O O6 0.560260 0.746238 0.089353
O O7 0.547283 0.021547 0.110119
O O8 0.444838 0.862135 0.930192
O O9 0.357310 0.361212 0.638161
O O10 0.612293 0.324587 0.577754
O O11 0.799201 0.201060 0.666235
O O12 0.567558 0.912205 0.737725
O O13 0.597517 0.055294 0.503291
O O14 0.646624 0.527398 0.149633
#
# Coordination Sequence:
#
# PCOD8321474 Si02
#       7
#     3   3   3   3   3   3   3
#     4  10  23  44  67  93 141 183 223 290 350 417
#     4  11  25  44  71 100 142 183 239 287 350 425
#     4  11  21  41  68 102 132 179 234 289 342 418
#     4  11  24  46  71 100 146 185 235 291 364 414
#     4  10  22  42  66  98 134 183 226 282 354 411
#     4  11  24  41  75 101 139 179 235 295 350 410
#     4  12  25  46  70 106 136 188 234 292 350 425
#
# _framework density 23.009356
#
# number of rings (size 3 to 8) (size 9 to 14) (size 15 to 20)
#    0.000    1.143    2.857    3.429    6.000    0.000 
#    5.143    1.429    0.000    0.000    0.000    0.000 
#    0.000    0.000    0.000    0.000    0.000    0.000 
#
# Total GULP energy -260257.822688 kJ/mol
# GULP energy per Si atom -12393.229652 kJ/mol
# Density = 2.295699 g / cm^3
# Si number density = 23.009356 Si / 1000 Ang^3
#
#
#
# Elastic Constant Matrix: (Units=GPa)
#
#
# Indices 1 2 3 4 5 6 
#
# 1 84.7441 25.6942 12.5691 -5.1448 -0.2163 0.0000
# 2 25.6942 84.7441 12.5691 5.1448 0.2163 0.0000
# 3 12.5691 12.5691 74.2297 0.0000 0.0000 0.0000
# 4 -5.1448 5.1448 0.0000 36.8559 0.0000 0.2163
# 5 -0.2163 0.2163 0.0000 0.0000 36.8559 -5.1448
# 6 0.0000 0.0000 0.0000 0.2163 -5.1448 29.5250
#
#
#
# Elastic Compliance Matrix: (Units=1/GPa)
#
#
# Indices 1 2 3 4 5 6 
#
# 1 0.013388 -0.003970 -0.001595 0.002423 0.000102 0.000000
# 2 -0.003970 0.013388 -0.001595 -0.002423 -0.000102 0.000000
# 3 -0.001595 -0.001595 0.014012 0.000000 0.000000 0.000000
# 4 0.002423 -0.002423 0.000000 0.027810 0.000000 -0.000204
# 5 0.000102 -0.000102 0.000000 0.000000 0.027810 0.004846
# 6 0.000000 0.000000 0.000000 -0.000204 0.004846 0.034716
#
#
# Mechanical properties :
#
#
# Convention : Reuss Voigt Hill
#
# Bulk Modulus (GPa) = 37.78060 38.37586 38.07823
# Shear Modulus (GPa) = 32.41170 33.50637 32.95904
#
# Velocity S-wave (km/s) = 3.75725 3.82017 3.78884
# Velocity P-wave (km/s) = 5.93952 6.01438 5.97707
#
# Compressibility (1/GPa) = 0.02646861
#
# Stress axis : x y z
#
# Youngs Moduli (GPa) = 74.69487 74.69487 71.36870
#
# Poissons Ratio (x) = 0.29654 0.11381
# Poissons Ratio (y) = 0.29654 0.11381
# Poissons Ratio (z) = 0.11912 0.11912
#
# Static dielectric constant tensor:
#      x y z
#    x 4.128940 0.000000 0.000000 
#    y 0.000000 4.128940 0.000000 
#    z 0.000000 0.000000 4.065740 
# 
# 
# High freq. dielectric constant tensor:
#      x y z
#    x 1.901400 0.000000 0.000000 
#    y 0.000000 1.901400 0.000000 
#    z 0.000000 0.000000 1.909850 
# 
# From -- ./inp_files/635.got.cif
#   From: 2010.03.12/outbox.cif.g09.slc.cpg/sg145_cif.got.tgz:635.got - 2010.04.03 13:35:35.
