data_PCOD8321341
_publ_section_title
;
Structure prediction by ZEFSAII (Michael W. Deem and Ramdas Pophale) SiO2 
 PCOD8321341
Probable space group: P 3
;
_chemical_formula_sum "Si O2"
_cell_formula_units_Z 13
_cell_length_a 9.686089
_cell_length_b 9.686089
_cell_length_c 7.542200
_cell_angle_alpha 90.000000
_cell_angle_beta 90.000000
_cell_angle_gamma 120.000000
_cell_volume 612.809638
_symmetry_space_group_name_H-M "P 3"
_symmetry_group_IT_number 143
_symmetry_cell_setting 'hexagonal'
loop_
_space_group_symop_operation_xyz
x,y,z
-y,x-y,z
-x+y,-x,z
loop_
_atom_site_type_symbol
_atom_site_label
_atom_site_fract_x
_atom_site_fract_y
_atom_site_fract_z
Si Si1 0.000000 0.000000 0.608596
Si Si2 0.000000 0.000000 0.026773
Si Si3 0.642707 0.146952 0.317687
Si Si4 0.062956 0.725138 0.614698
Si Si5 0.274865 0.337817 0.020673
Si Si6 0.333333 0.666668 0.527716
Si Si7 0.333335 0.666667 0.107662
O O1 0.821638 0.942958 0.539868
O O2 0.000000 0.000000 0.817684
O O3 0.121322 0.178362 0.095502
O O4 0.812644 0.311673 0.317689
O O5 0.623680 0.049703 0.495478
O O6 0.623687 0.049713 0.139889
O O7 0.003046 0.689122 0.817685
O O8 0.242272 0.756369 0.600230
O O9 0.243638 0.485904 0.035147
O O10 0.333334 0.666667 0.317689
#
# Coordination Sequence:
#
# PCOD8321341 Si02
#       7
#     1   1   3   3   3   1   1
#     4   9  24  43  68 100 133 176 229 277 335 403
#     4   9  24  43  68 100 133 176 229 277 335 403
#     4  10  26  42  64 100 136 174 226 276 340 400
#     4  11  24  44  69  98 137 181 226 278 341 405
#     4  11  24  44  69  98 137 181 226 278 341 405
#     4  12  25  44  70 100 140 178 226 287 340 403
#     4  12  25  44  70 100 140 178 226 287 340 403
#
# _framework density 21.213764999999999
#
# number of rings (size 3 to 8) (size 9 to 14) (size 15 to 20)
#    0.462    0.923    2.308    1.385    6.462    3.692 
#    0.000    0.000    0.000    0.000    0.000    0.000 
#    0.000    0.000    0.000    0.000    0.000    0.000 
#
# Total GULP energy -161210.644082 kJ/mol
# GULP energy per Si atom -12400.818776 kJ/mol
# Density = 2.116548 g / cm^3
# Si number density = 21.213765 Si / 1000 Ang^3
#
#
#
# Elastic Constant Matrix: (Units=GPa)
#
#
# Indices 1 2 3 4 5 6 
#
# 1 129.6231 47.0252 23.8085 0.0001 -0.0003 0.0000
# 2 47.0252 129.6218 23.8083 0.0003 -0.0008 -0.0001
# 3 23.8085 23.8083 118.9072 0.0000 0.0002 -0.0001
# 4 0.0001 0.0003 0.0000 31.6099 -0.0001 -0.0008
# 5 -0.0003 -0.0008 0.0002 -0.0001 31.6101 -0.0003
# 6 0.0000 -0.0001 -0.0001 -0.0008 -0.0003 41.2995
#
#
#
# Elastic Compliance Matrix: (Units=1/GPa)
#
#
# Indices 1 2 3 4 5 6 
#
# 1 0.009045 -0.003061 -0.001198 0.000000 0.000000 0.000000
# 2 -0.003061 0.009045 -0.001198 0.000000 0.000000 0.000000
# 3 -0.001198 -0.001198 0.008890 0.000000 0.000000 0.000000
# 4 0.000000 0.000000 0.000000 0.031636 0.000000 0.000001
# 5 0.000000 0.000000 0.000000 0.000000 0.031635 0.000000
# 6 0.000000 0.000000 0.000000 0.000001 0.000000 0.024213
#
#
# Mechanical properties :
#
#
# Convention : Reuss Voigt Hill
#
# Bulk Modulus (GPa) = 62.24694 63.04845 62.64769
# Shear Modulus (GPa) = 38.24511 39.80458 39.02485
#
# Velocity S-wave (km/s) = 4.25060 4.33639 4.29371
# Velocity P-wave (km/s) = 7.31413 7.40658 7.36050
#
# Compressibility (1/GPa) = 0.01606505
#
# Stress axis : x y z
#
# Youngs Moduli (GPa) = 110.55344 110.55234 112.48945
#
# Poissons Ratio (x) = 0.33845 0.13478
# Poissons Ratio (y) = 0.33846 0.13478
# Poissons Ratio (z) = 0.13246 0.13246
#
# Static dielectric constant tensor:
#      x y z
#    x 3.954090 0.000000 0.000000 
#    y 0.000000 3.954100 0.000000 
#    z 0.000000 0.000000 3.771220 
# 
# 
# High freq. dielectric constant tensor:
#      x y z
#    x 1.831150 0.000000 0.000000 
#    y 0.000000 1.831150 0.000000 
#    z 0.000000 0.000000 1.838950 
# 
# From -- ./inp_files/117.got.cif
#   From: 2010.03.12/outbox.cif.g09.slc.cpg/sg143_cif.got.tgz:117.got - 2010.04.03 13:34:35.
