data_PCOD8321022
_publ_section_title
;
Structure prediction by ZEFSAII (Michael W. Deem and Ramdas Pophale) SiO2 
 PCOD8321022
Probable space group: I 41/A C D
;
_chemical_formula_sum "Si O2"
_cell_formula_units_Z 136
_cell_length_a 16.967056
_cell_length_b 16.967056
_cell_length_c 25.414791
_cell_angle_alpha 90.000000
_cell_angle_beta 90.000000
_cell_angle_gamma 90.000000
_cell_volume 7316.435176
_symmetry_space_group_name_H-M "I 41/A C D"
_symmetry_group_IT_number 142
_space_group.IT_coordinate_system_code '2'
_symmetry_cell_setting 'tetragonal'
loop_
_space_group_symop_operation_xyz
x,y,z
1/4-y,3/4+x,1/4+z
-x,1/2-y,z
1/4+y,1/4-x,3/4+z
x,-y,1/2-z
1/2-x,y,-z
3/4+y,1/4+x,1/4-z
1/4-y,1/4-x,1/4-z
-x,-y,-z
3/4+y,1/4-x,3/4-z
x,1/2+y,-z
3/4-y,3/4+x,1/4-z
-x,y,1/2+z
1/2+x,-y,z
1/4-y,3/4-x,3/4+z
3/4+y,3/4+x,3/4+z
1/2+x,1/2+y,1/2+z
3/4-y,1/4+x,3/4+z
1/2-x,-y,1/2+z
3/4+y,3/4-x,1/4+z
1/2+x,1/2-y,-z
-x,1/2+y,1/2-z
1/4+y,3/4+x,3/4-z
3/4-y,3/4-x,3/4-z
1/2-x,1/2-y,1/2-z
1/4+y,3/4-x,1/4-z
1/2+x,y,1/2-z
1/4-y,1/4+x,3/4-z
1/2-x,1/2+y,z
x,1/2-y,1/2+z
3/4-y,1/4-x,1/4+z
1/4+y,1/4+x,1/4+z
loop_
_atom_site_type_symbol
_atom_site_label
_atom_site_fract_x
_atom_site_fract_y
_atom_site_fract_z
Si Si1 0.861136 0.925729 0.123968
Si Si2 0.000000 0.750000 0.375000
Si Si3 0.683072 0.268223 0.179742
Si Si4 0.701612 0.952712 0.551463
Si Si5 0.856375 0.778494 0.294562
O O1 0.823317 0.850464 0.150243
O O2 0.950641 0.904906 0.109849
O O3 0.813117 0.958471 0.073389
O O4 0.857638 0.999330 0.163171
O O5 0.924777 0.750673 0.335193
O O6 0.775961 0.264523 0.190319
O O7 0.629181 0.259059 0.232544
O O8 0.750000 0.969912 0.500000
O O9 0.621846 0.904522 0.544422
#
# Coordination Sequence:
#
# PCOD8321022 Si02
#       5
#    32   8  32  32  32
#     4  10  21  35  62  86 120 155 202 245 305 365
#     4  12  24  40  64  94 120 160 200 260 312 350
#     4  10  21  40  57  87 121 160 196 250 299 361
#     4  10  19  40  64  85 113 168 205 245 305 368
#     4  10  22  40  61  84 124 157 200 248 305 359
#
# _framework density 18.588287999999999
#
# number of rings (size 3 to 8) (size 9 to 14) (size 15 to 20)
#    0.000    1.882    2.353    2.824    0.000    4.235 
#    0.000    1.176    0.000    0.000    0.000    0.000 
#    0.000    0.000    0.000    0.000    0.000    0.000 
#
# Total GULP energy -842474.617368 kJ/mol
# GULP energy per Si atom -12389.332608 kJ/mol
# Density = 1.854598 g / cm^3
# Si number density = 18.588288 Si / 1000 Ang^3
#
#
#
# Elastic Constant Matrix: (Units=GPa)
#
#
# Indices 1 2 3 4 5 6 
#
# 1 99.4271 48.0648 46.0438 0.0000 0.0000 0.0000
# 2 48.0648 99.4271 46.0438 0.0000 0.0000 0.0000
# 3 46.0438 46.0438 82.3283 0.0000 0.0000 0.0000
# 4 0.0000 0.0000 0.0000 31.6408 0.0000 0.0000
# 5 0.0000 0.0000 0.0000 0.0000 31.6408 0.0000
# 6 0.0000 0.0000 0.0000 0.0000 0.0000 356.0555
#
#
#
# Elastic Compliance Matrix: (Units=1/GPa)
#
#
# Indices 1 2 3 4 5 6 
#
# 1 0.014944 -0.004526 -0.005826 0.000000 0.000000 0.000000
# 2 -0.004526 0.014944 -0.005826 0.000000 0.000000 0.000000
# 3 -0.005826 -0.005826 0.018663 0.000000 0.000000 0.000000
# 4 0.000000 0.000000 0.000000 0.031605 0.000000 0.000000
# 5 0.000000 0.000000 0.000000 0.000000 0.031605 0.000000
# 6 0.000000 0.000000 0.000000 0.000000 0.000000 0.002809
#
#
# Mechanical properties :
#
#
# Convention : Reuss Voigt Hill
#
# Bulk Modulus (GPa) = 61.75269 62.38748 62.07009
# Shear Modulus (GPa) = 32.82480 93.26944 63.04712
#
# Velocity S-wave (km/s) = 4.20680 7.09122 5.83020
# Velocity P-wave (km/s) = 7.54252 10.03408 8.87616
#
# Compressibility (1/GPa) = 0.01619363
#
# Stress axis : x y z
#
# Youngs Moduli (GPa) = 66.91808 66.91808 53.58052
#
# Poissons Ratio (x) = 0.30286 0.31218
# Poissons Ratio (y) = 0.30286 0.31218
# Poissons Ratio (z) = 0.38989 0.38989
#
# Static dielectric constant tensor:
#      x y z
#    x 3.451820 0.000000 0.000000 
#    y 0.000000 3.451820 0.000000 
#    z 0.000000 0.000000 3.820840 
# 
# 
# High freq. dielectric constant tensor:
#      x y z
#    x 1.714380 0.000000 0.000000 
#    y 0.000000 1.714380 0.000000 
#    z 0.000000 0.000000 1.741660 
# 
# From -- ./inp_files/10142.got.cif
#   From: 2010.03.12/outbox.cif.g09.slc.cpg/sg142_6_cif.got.tgz:10142.got - 2010.04.03 13:27:16.
