data_PCOD8321696
_publ_section_title
;
Structure prediction by ZEFSAII (Michael W. Deem and Ramdas Pophale) SiO2 
 PCOD8321696
Probable space group: R -3
;
_chemical_formula_sum "Si O2"
_cell_formula_units_Z 126
_cell_length_a 21.691701
_cell_length_b 21.691701
_cell_length_c 17.192130
_cell_angle_alpha 90.000000
_cell_angle_beta 90.000000
_cell_angle_gamma 120.000000
_cell_volume 7005.635494
_symmetry_space_group_name_H-M "R -3"
_symmetry_group_IT_number 148
_symmetry_cell_setting 'hexagonal'
loop_
_space_group_symop_operation_xyz
x,y,z
-y,x-y,z
-x+y,-x,z
-x,-y,-z
y,-x+y,-z
x-y,x,-z
2/3+x,1/3+y,1/3+z
2/3-y,1/3+x-y,1/3+z
2/3-x+y,1/3-x,1/3+z
2/3-x,1/3-y,1/3-z
2/3+y,1/3-x+y,1/3-z
2/3+x-y,1/3+x,1/3-z
1/3+x,2/3+y,2/3+z
1/3-y,2/3+x-y,2/3+z
1/3-x+y,2/3-x,2/3+z
1/3-x,2/3-y,2/3-z
1/3+y,2/3-x+y,2/3-z
1/3+x-y,2/3+x,2/3-z
loop_
_atom_site_type_symbol
_atom_site_label
_atom_site_fract_x
_atom_site_fract_y
_atom_site_fract_z
Si Si1 0.915589 0.691257 0.792727
Si Si2 0.269123 0.236247 0.397583
Si Si3 0.858876 0.858876 0.500000
Si Si4 0.417745 0.442335 0.873939
Si Si5 0.868936 0.268196 0.108991
Si Si6 0.633790 0.569580 0.730917
Si Si7 0.065137 0.797731 0.775658
O O1 0.933508 0.642988 0.735514
O O2 0.846125 0.692250 0.762281
O O3 0.904486 0.662092 0.879792
O O4 0.982478 0.772320 0.792544
O O5 0.192189 0.172827 0.424990
O O6 0.328759 0.237820 0.453542
O O7 0.291333 0.222354 0.313651
O O8 0.868428 0.934214 0.475841
O O9 0.827173 0.807811 0.424990
O O10 0.350855 0.456508 0.874122
O O11 0.399825 0.376146 0.931152
O O12 0.912222 0.245555 0.166667
O O13 0.784127 0.215873 0.121574
O O14 0.597687 0.555687 0.646984
#
# Coordination Sequence:
#
# PCOD8321696 Si02
#       7
#    18  18  18  18  18  18  18
#     4  10  20  34  57  82 104 137 180 221 270 328
#     4  10  19  36  52  76 107 140 174 227 275 317
#     4  10  19  32  52  78 109 146 182 218 266 330
#     4  10  20  34  57  82 104 137 180 221 270 328
#     4  11  22  35  51  75 108 143 179 221 271 320
#     4  10  19  36  52  76 107 140 174 227 275 317
#     4  11  22  35  51  75 108 143 179 221 271 320
#
# _framework density 17.985520999999999
#
# number of rings (size 3 to 8) (size 9 to 14) (size 15 to 20)
#    0.000    2.000    2.857    6.143    0.000    3.429 
#    0.000    0.000    0.000    0.571    0.000    0.000 
#    0.000    0.000    0.000    9.143    0.000    0.000 
#
# Total GULP energy -520496.729264 kJ/mol
# GULP energy per Si atom -12392.779268 kJ/mol
# Density = 1.794458 g / cm^3
# Si number density = 17.985521 Si / 1000 Ang^3
#
#
#
# Elastic Constant Matrix: (Units=GPa)
#
#
# Indices 1 2 3 4 5 6 
#
# 1 94.4911 58.8784 18.6777 0.0669 0.0000 0.0000
# 2 58.8784 94.4911 18.6777 -0.0669 0.0000 0.0000
# 3 18.6777 18.6777 109.4879 0.0000 0.0000 0.0000
# 4 0.0669 -0.0669 0.0000 11.2126 0.0000 0.0000
# 5 0.0000 0.0000 0.0000 0.0000 11.2126 0.0669
# 6 0.0000 0.0000 0.0000 0.0000 0.0669 17.8063
#
#
#
# Elastic Compliance Matrix: (Units=1/GPa)
#
#
# Indices 1 2 3 4 5 6 
#
# 1 0.017442 -0.010639 -0.001161 -0.000167 0.000000 0.000000
# 2 -0.010639 0.017442 -0.001161 0.000167 0.000000 0.000000
# 3 -0.001161 -0.001161 0.009529 0.000000 0.000000 0.000000
# 4 -0.000167 0.000167 0.000000 0.089187 0.000000 0.000000
# 5 0.000000 0.000000 0.000000 0.000000 0.089187 -0.000335
# 6 0.000000 0.000000 0.000000 0.000000 -0.000335 0.056161
#
#
# Mechanical properties :
#
#
# Convention : Reuss Voigt Hill
#
# Bulk Modulus (GPa) = 54.07433 54.54862 54.31147
# Shear Modulus (GPa) = 16.07551 21.52873 18.80212
#
# Velocity S-wave (km/s) = 2.99290 3.46353 3.23678
# Velocity P-wave (km/s) = 6.48645 6.81100 6.65070
#
# Compressibility (1/GPa) = 0.01849306
#
# Stress axis : x y z
#
# Youngs Moduli (GPa) = 57.33384 57.33384 104.93872
#
# Poissons Ratio (x) = 0.60997 0.12178
# Poissons Ratio (y) = 0.60997 0.12178
# Poissons Ratio (z) = 0.06654 0.06654
#
# Static dielectric constant tensor:
#      x y z
#    x 3.370890 0.000000 0.000000 
#    y 0.000000 3.370890 0.000000 
#    z 0.000000 0.000000 3.317410 
# 
# 
# High freq. dielectric constant tensor:
#      x y z
#    x 1.682180 0.000000 0.000000 
#    y 0.000000 1.682180 0.000000 
#    z 0.000000 0.000000 1.698960 
# 
# From -- ./inp_files/2735.got.cif
#   From: 2010.03.12/outbox.cif.g09.slc.cpg/sg148_2_cif.got.tgz:2735.got - 2010.04.03 13:38:46.
