data_PCOD8321160
_publ_section_title
;
Structure prediction by ZEFSAII (Michael W. Deem and Ramdas Pophale) SiO2 
 PCOD8321160
Probable space group: I 41/A C D
;
_chemical_formula_sum "Si O2"
_cell_formula_units_Z 128
_cell_length_a 22.318831
_cell_length_b 22.318831
_cell_length_c 11.868392
_cell_angle_alpha 90.000000
_cell_angle_beta 90.000000
_cell_angle_gamma 90.000000
_cell_volume 5912.004685
_symmetry_space_group_name_H-M "I 41/A C D"
_symmetry_group_IT_number 142
_space_group.IT_coordinate_system_code '2'
_symmetry_cell_setting 'tetragonal'
loop_
_space_group_symop_operation_xyz
x,y,z
1/4-y,3/4+x,1/4+z
-x,1/2-y,z
1/4+y,1/4-x,3/4+z
x,-y,1/2-z
1/2-x,y,-z
3/4+y,1/4+x,1/4-z
1/4-y,1/4-x,1/4-z
-x,-y,-z
3/4+y,1/4-x,3/4-z
x,1/2+y,-z
3/4-y,3/4+x,1/4-z
-x,y,1/2+z
1/2+x,-y,z
1/4-y,3/4-x,3/4+z
3/4+y,3/4+x,3/4+z
1/2+x,1/2+y,1/2+z
3/4-y,1/4+x,3/4+z
1/2-x,-y,1/2+z
3/4+y,3/4-x,1/4+z
1/2+x,1/2-y,-z
-x,1/2+y,1/2-z
1/4+y,3/4+x,3/4-z
3/4-y,3/4-x,3/4-z
1/2-x,1/2-y,1/2-z
1/4+y,3/4-x,1/4-z
1/2+x,y,1/2-z
1/4-y,1/4+x,3/4-z
1/2-x,1/2+y,z
x,1/2-y,1/2+z
3/4-y,1/4-x,1/4+z
1/4+y,1/4+x,1/4+z
loop_
_atom_site_type_symbol
_atom_site_label
_atom_site_fract_x
_atom_site_fract_y
_atom_site_fract_z
Si Si1 0.457688 0.413627 0.690631
Si Si2 0.416303 0.104455 0.626356
Si Si3 0.315568 0.552814 0.000433
Si Si4 0.277825 0.830353 0.166363
O O1 0.526757 0.394309 0.712075
O O2 0.422435 0.356682 0.640061
O O3 0.420573 0.433693 0.801096
O O4 0.461445 0.469450 0.602241
O O5 0.361352 0.065394 0.671746
O O6 0.440904 0.073709 0.512237
O O7 0.355510 0.499300 0.951277
O O8 0.250000 0.523996 0.000000
O O9 0.329141 0.579141 0.125000
#
# Coordination Sequence:
#
# PCOD8321160 Si02
#       4
#    32  32  32  32
#     4  10  24  40  67  93 129 173 222 275 324 405
#     4  11  23  42  63  94 129 173 221 269 335 390
#     4  11  23  39  64  97 133 170 215 276 340 412
#     4  10  22  42  63  95 128 171 218 272 337 398
#
# _framework density 21.650862
#
# number of rings (size 3 to 8) (size 9 to 14) (size 15 to 20)
#    0.000    1.500    2.500    1.500    3.500    6.500 
#    0.000    0.000    0.000    3.000    0.000    0.000 
#    0.000    0.000    0.000    0.000    0.000    0.000 
#
# Total GULP energy -793022.769565 kJ/mol
# GULP energy per Si atom -12390.980774 kJ/mol
# Density = 2.160158 g / cm^3
# Si number density = 21.650862 Si / 1000 Ang^3
#
#
#
# Elastic Constant Matrix: (Units=GPa)
#
#
# Indices 1 2 3 4 5 6 
#
# 1 100.5783 39.1631 21.0942 0.0000 0.0000 0.0000
# 2 39.1631 100.5783 21.0942 0.0000 0.0000 0.0000
# 3 21.0942 21.0942 78.0892 0.0000 0.0000 0.0000
# 4 0.0000 0.0000 0.0000 26.0181 0.0000 0.0000
# 5 0.0000 0.0000 0.0000 0.0000 26.0181 0.0000
# 6 0.0000 0.0000 0.0000 0.0000 0.0000 13.5053
#
#
#
# Elastic Compliance Matrix: (Units=1/GPa)
#
#
# Indices 1 2 3 4 5 6 
#
# 1 0.012037 -0.004246 -0.002105 0.000000 0.000000 0.000000
# 2 -0.004246 0.012037 -0.002105 0.000000 0.000000 0.000000
# 3 -0.002105 -0.002105 0.013943 0.000000 0.000000 0.000000
# 4 0.000000 0.000000 0.000000 0.038435 0.000000 0.000000
# 5 0.000000 0.000000 0.000000 0.000000 0.038435 0.000000
# 6 0.000000 0.000000 0.000000 0.000000 0.000000 0.074045
#
#
# Mechanical properties :
#
#
# Convention : Reuss Voigt Hill
#
# Bulk Modulus (GPa) = 47.37743 49.10542 48.24143
# Shear Modulus (GPa) = 23.48772 26.30125 24.89448
#
# Velocity S-wave (km/s) = 3.29726 3.48917 3.39457
# Velocity P-wave (km/s) = 6.03539 6.24197 6.13955
#
# Compressibility (1/GPa) = 0.02110710
#
# Stress axis : x y z
#
# Youngs Moduli (GPa) = 83.07675 83.07675 71.72078
#
# Poissons Ratio (x) = 0.35271 0.15095
# Poissons Ratio (y) = 0.35271 0.15095
# Poissons Ratio (z) = 0.17485 0.17485
#
# Static dielectric constant tensor:
#      x y z
#    x 3.718250 0.000000 0.000000 
#    y 0.000000 3.718250 0.000000 
#    z 0.000000 0.000000 4.130280 
# 
# 
# High freq. dielectric constant tensor:
#      x y z
#    x 1.841080 0.000000 0.000000 
#    y 0.000000 1.841080 0.000000 
#    z 0.000000 0.000000 1.850890 
# 
# From -- ./inp_files/3471.got.cif
#   From: 2010.03.12/outbox.cif.g09.slc.cpg/sg142_2_cif.got.tgz:3471.got - 2010.04.03 13:27:16.
