data_PCOD8321796
_publ_section_title
;
Structure prediction by ZEFSAII (Michael W. Deem and Ramdas Pophale) SiO2 
 PCOD8321796
Probable space group: R -3
;
_chemical_formula_sum "Si O2"
_cell_formula_units_Z 108
_cell_length_a 16.678414
_cell_length_b 16.678414
_cell_length_c 21.275463
_cell_angle_alpha 90.000000
_cell_angle_beta 90.000000
_cell_angle_gamma 120.000000
_cell_volume 5125.298353
_symmetry_space_group_name_H-M "R -3"
_symmetry_group_IT_number 148
_symmetry_cell_setting 'hexagonal'
loop_
_space_group_symop_operation_xyz
x,y,z
-y,x-y,z
-x+y,-x,z
-x,-y,-z
y,-x+y,-z
x-y,x,-z
2/3+x,1/3+y,1/3+z
2/3-y,1/3+x-y,1/3+z
2/3-x+y,1/3-x,1/3+z
2/3-x,1/3-y,1/3-z
2/3+y,1/3-x+y,1/3-z
2/3+x-y,1/3+x,1/3-z
1/3+x,2/3+y,2/3+z
1/3-y,2/3+x-y,2/3+z
1/3-x+y,2/3-x,2/3+z
1/3-x,2/3-y,2/3-z
1/3+y,2/3-x+y,2/3-z
1/3+x-y,2/3+x,2/3-z
loop_
_atom_site_type_symbol
_atom_site_label
_atom_site_fract_x
_atom_site_fract_y
_atom_site_fract_z
Si Si1 0.462155 0.204137 0.355983
Si Si2 0.545472 0.612307 0.936804
Si Si3 0.127959 0.244890 0.667043
Si Si4 0.947454 0.369384 0.052527
Si Si5 0.439684 0.863138 0.195352
Si Si6 0.040966 0.424826 0.802125
O O1 0.505860 0.315198 0.351627
O O2 0.354431 0.149649 0.336022
O O3 0.460583 0.170183 0.428153
O O4 0.519847 0.679163 0.974831
O O5 0.454773 0.515271 0.921904
O O6 0.591046 0.663935 0.870473
O O7 0.616321 0.597515 0.979910
O O8 0.079459 0.195574 0.601647
O O9 0.053326 0.233223 0.718495
O O10 0.013107 0.350269 0.097417
O O11 0.490680 0.804249 0.184182
O O12 0.509538 0.970078 0.179509
#
# Coordination Sequence:
#
# PCOD8321796 Si02
#       6
#    18  18  18  18  18  18
#     4  11  22  43  68  96 126 169 229 292 345 394
#     4  11  24  42  66  98 132 177 222 275 339 398
#     4  11  23  42  65  97 136 176 219 280 344 406
#     4  11  23  45  67  96 138 176 223 281 333 408
#     4  11  23  38  62 101 133 177 223 268 333 415
#     4  11  23  42  69  97 123 183 226 277 336 412
#
# _framework density 21.071944999999999
#
# number of rings (size 3 to 8) (size 9 to 14) (size 15 to 20)
#    0.000    1.000    5.000    2.333    4.667    4.667 
#    4.000    0.000    0.000    0.000    0.000    0.000 
#    0.000    0.000    0.000    0.000    0.000    0.000 
#
# Total GULP energy -446184.159841 kJ/mol
# GULP energy per Si atom -12394.004440 kJ/mol
# Density = 2.102398 g / cm^3
# Si number density = 21.071945 Si / 1000 Ang^3
#
#
#
# Elastic Constant Matrix: (Units=GPa)
#
#
# Indices 1 2 3 4 5 6 
#
# 1 89.9920 42.0968 39.4627 2.2707 -1.9029 0.0000
# 2 42.0968 89.9920 39.4627 -2.2707 1.9029 0.0000
# 3 39.4627 39.4627 111.3487 0.0000 0.0000 0.0000
# 4 2.2707 -2.2707 0.0000 19.8185 0.0000 1.9029
# 5 -1.9029 1.9029 0.0000 0.0000 19.8185 2.2707
# 6 0.0000 0.0000 0.0000 1.9029 2.2707 23.9476
#
#
#
# Elastic Compliance Matrix: (Units=1/GPa)
#
#
# Indices 1 2 3 4 5 6 
#
# 1 0.015438 -0.005834 -0.003404 -0.002437 0.002042 0.000000
# 2 -0.005834 0.015438 -0.003404 0.002437 -0.002042 0.000000
# 3 -0.003404 -0.003404 0.011394 0.000000 0.000000 0.000000
# 4 -0.002437 0.002437 0.000000 0.051409 0.000000 -0.004085
# 5 0.002042 -0.002042 0.000000 0.000000 0.051409 -0.004875
# 6 0.000000 0.000000 0.000000 -0.004085 -0.004875 0.042545
#
#
# Mechanical properties :
#
#
# Convention : Reuss Voigt Hill
#
# Bulk Modulus (GPa) = 58.86858 59.26412 59.06635
# Shear Modulus (GPa) = 22.87513 24.07096 23.47305
#
# Velocity S-wave (km/s) = 3.29838 3.38349 3.34121
# Velocity P-wave (km/s) = 6.51946 6.59164 6.55565
#
# Compressibility (1/GPa) = 0.01698699
#
# Stress axis : x y z
#
# Youngs Moduli (GPa) = 64.77343 64.77343 87.76903
#
# Poissons Ratio (x) = 0.37788 0.29876
# Poissons Ratio (y) = 0.37788 0.29876
# Poissons Ratio (z) = 0.22048 0.22048
#
# Static dielectric constant tensor:
#      x y z
#    x 3.759350 0.000000 0.000000 
#    y 0.000000 3.759350 0.000000 
#    z 0.000000 0.000000 3.967390 
# 
# 
# High freq. dielectric constant tensor:
#      x y z
#    x 1.818650 0.000000 0.000000 
#    y 0.000000 1.818650 0.000000 
#    z 0.000000 0.000000 1.826540 
# 
# From -- ./inp_files/3123.got.cif
#   From: 2010.03.12/outbox.cif.g09.slc.cpg/sg148_2_cif.got.tgz:3123.got - 2010.04.03 13:38:46.
