data_PCOD8321574
_publ_section_title
;
Structure prediction by ZEFSAII (Michael W. Deem and Ramdas Pophale) SiO2 
 PCOD8321574
Probable space group: R 3
;
_chemical_formula_sum "Si O2"
_cell_formula_units_Z 72
_cell_length_a 14.259576
_cell_length_b 14.259576
_cell_length_c 19.307770
_cell_angle_alpha 90.000000
_cell_angle_beta 90.000000
_cell_angle_gamma 120.000000
_cell_volume 3399.976951
_symmetry_space_group_name_H-M "R 3"
_symmetry_group_IT_number 146
_symmetry_cell_setting 'hexagonal'
loop_
_space_group_symop_operation_xyz
x,y,z
-y,x-y,z
-x+y,-x,z
2/3+x,1/3+y,1/3+z
2/3-y,1/3+x-y,1/3+z
2/3-x+y,1/3-x,1/3+z
1/3+x,2/3+y,2/3+z
1/3-y,2/3+x-y,2/3+z
1/3-x+y,2/3-x,2/3+z
loop_
_atom_site_type_symbol
_atom_site_label
_atom_site_fract_x
_atom_site_fract_y
_atom_site_fract_z
Si Si1 0.798046 0.556336 0.505580
Si Si2 0.504134 0.508475 0.626265
Si Si3 0.324177 0.066330 0.007295
Si Si4 0.995692 0.504144 0.976351
Si Si5 0.908533 0.131607 0.430380
Si Si6 0.150034 0.245795 0.454211
Si Si7 0.516849 0.087557 0.481703
Si Si8 0.009159 0.600395 0.261946
O O1 0.796256 0.570510 0.588914
O O2 0.832956 0.666563 0.467963
O O3 0.887745 0.527456 0.479763
O O4 0.677602 0.471099 0.481159
O O5 0.540110 0.628244 0.656359
O O6 0.559159 0.463047 0.680377
O O7 0.565146 0.536129 0.553351
O O8 0.375404 0.426931 0.615599
O O9 0.426924 0.051479 0.987130
O O10 0.333429 0.166659 0.967855
O O11 0.323438 0.094805 0.088292
O O12 0.911918 0.540098 0.946195
O O13 0.029068 0.565351 0.049203
O O14 0.027195 0.221122 0.456156
O O15 0.873123 0.011151 0.454859
O O16 0.228947 0.323519 0.514238
#
# Coordination Sequence:
#
# PCOD8321574 Si02
#       8
#     9   9   9   9   9   9   9   9
#     4  12  22  43  68 104 144 180 237 303 362 434
#     4  12  24  47  70 106 141 187 246 305 364 439
#     4  12  28  46  74 101 151 194 245 303 377 447
#     4  12  24  47  70 106 141 187 246 305 364 439
#     4  12  22  43  68 104 144 180 237 303 362 434
#     4  12  24  41  73 104 140 189 235 303 373 432
#     4  12  24  41  73 104 140 189 235 303 373 432
#     4  12  28  46  74 101 151 194 245 303 377 447
#
# _framework density 21.176613
#
# number of rings (size 3 to 8) (size 9 to 14) (size 15 to 20)
#    0.000    0.000    7.500    2.000    3.500    0.000 
#    1.500    2.500    0.000    1.500    0.000    0.000 
#    0.000    0.000    0.000    0.000    0.000    0.000 
#
# Total GULP energy -297341.340400 kJ/mol
# GULP energy per Si atom -12389.222517 kJ/mol
# Density = 2.112841 g / cm^3
# Si number density = 21.176613 Si / 1000 Ang^3
#
#
#
# Elastic Constant Matrix: (Units=GPa)
#
#
# Indices 1 2 3 4 5 6 
#
# 1 123.9021 46.3963 49.2317 9.3972 -3.8123 0.0000
# 2 46.3963 123.9021 49.2317 -9.3972 3.8123 0.0000
# 3 49.2317 49.2317 153.2873 0.0000 0.0000 0.0000
# 4 9.3972 -9.3972 0.0000 38.9411 0.0000 3.8123
# 5 -3.8123 3.8123 0.0000 0.0000 38.9411 9.3972
# 6 0.0000 0.0000 0.0000 3.8123 9.3972 38.7529
#
#
#
# Elastic Compliance Matrix: (Units=1/GPa)
#
#
# Indices 1 2 3 4 5 6 
#
# 1 0.010528 -0.003317 -0.002316 -0.003341 0.001356 0.000000
# 2 -0.003317 0.010528 -0.002316 0.003341 -0.001356 0.000000
# 3 -0.002316 -0.002316 0.008011 0.000000 0.000000 0.000000
# 4 -0.003341 0.003341 0.000000 0.027558 0.000000 -0.002711
# 5 0.001356 -0.001356 0.000000 0.000000 0.027558 -0.006683
# 6 0.000000 0.000000 0.000000 -0.002711 -0.006683 0.027692
#
#
# Mechanical properties :
#
#
# Convention : Reuss Voigt Hill
#
# Bulk Modulus (GPa) = 75.93266 76.75676 76.34471
# Shear Modulus (GPa) = 37.83170 40.40914 39.12042
#
# Velocity S-wave (km/s) = 4.23127 4.37303 4.30273
# Velocity P-wave (km/s) = 7.73345 7.86273 7.79836
#
# Compressibility (1/GPa) = 0.01316956
#
# Stress axis : x y z
#
# Youngs Moduli (GPa) = 94.98056 94.98056 124.82253
#
# Poissons Ratio (x) = 0.31508 0.28909
# Poissons Ratio (y) = 0.31508 0.28909
# Poissons Ratio (z) = 0.21998 0.21998
#
# Static dielectric constant tensor:
#      x y z
#    x 4.236320 0.000000 0.000000 
#    y 0.000000 4.236320 0.000000 
#    z 0.000000 0.000000 4.632230 
# 
# 
# High freq. dielectric constant tensor:
#      x y z
#    x 1.824330 0.000000 0.000000 
#    y 0.000000 1.824330 0.000000 
#    z 0.000000 0.000000 1.853240 
# 
# From -- ./inp_files/1780.got.cif
#   From: 2010.06.25/outbox.cif.g09.slc.cpg/sg146_cif.got.tgz:1780.got - 2010.06.28 11:17:22.
