data_PCOD8321729
_publ_section_title
;
Structure prediction by ZEFSAII (Michael W. Deem and Ramdas Pophale) SiO2 
 PCOD8321729
Probable space group: R -3
;
_chemical_formula_sum "Si O2"
_cell_formula_units_Z 90
_cell_length_a 17.447410
_cell_length_b 17.447410
_cell_length_c 19.262798
_cell_angle_alpha 90.000000
_cell_angle_beta 90.000000
_cell_angle_gamma 120.000000
_cell_volume 5078.224959
_symmetry_space_group_name_H-M "R -3"
_symmetry_group_IT_number 148
_symmetry_cell_setting 'hexagonal'
loop_
_space_group_symop_operation_xyz
x,y,z
-y,x-y,z
-x+y,-x,z
-x,-y,-z
y,-x+y,-z
x-y,x,-z
2/3+x,1/3+y,1/3+z
2/3-y,1/3+x-y,1/3+z
2/3-x+y,1/3-x,1/3+z
2/3-x,1/3-y,1/3-z
2/3+y,1/3-x+y,1/3-z
2/3+x-y,1/3+x,1/3-z
1/3+x,2/3+y,2/3+z
1/3-y,2/3+x-y,2/3+z
1/3-x+y,2/3-x,2/3+z
1/3-x,2/3-y,2/3-z
1/3+y,2/3-x+y,2/3-z
1/3+x-y,2/3+x,2/3-z
loop_
_atom_site_type_symbol
_atom_site_label
_atom_site_fract_x
_atom_site_fract_y
_atom_site_fract_z
Si Si1 0.642197 0.751355 0.517018
Si Si2 0.381807 0.276722 0.898087
Si Si3 0.847810 0.345015 0.056858
Si Si4 0.006075 0.669296 0.022183
Si Si5 0.828674 0.508380 0.025087
O O1 0.728097 0.748889 0.491250
O O2 0.667542 0.852280 0.523956
O O3 0.559748 0.703593 0.465597
O O4 0.618701 0.703920 0.592405
O O5 0.310181 0.280053 0.950849
O O6 0.467142 0.292741 0.943758
O O7 0.814031 0.410845 0.032438
O O8 0.763244 0.247878 0.065746
O O9 0.913714 0.347404 0.997374
O O10 0.925446 0.579518 0.056408
#
# Coordination Sequence:
#
# PCOD8321729 Si02
#       5
#    18  18  18  18  18
#     4  11  20  37  60  83 112 152 193 227 286 333
#     4   9  22  32  56  85 111 146 187 231 274 339
#     4  11  21  36  59  82 116 155 181 240 276 342
#     4   9  19  37  55  81 117 146 192 231 273 329
#     4  10  21  36  53  84 119 147 187 230 288 327
#
# _framework density 17.722729000000001
#
# number of rings (size 3 to 8) (size 9 to 14) (size 15 to 20)
#    1.200    0.800    2.000    2.200    2.800    0.800 
#    0.000    2.000    0.000    1.600    0.000    1.400 
#    0.000    0.000    0.000    0.000    0.000    0.000 
#
# Total GULP energy -371818.864553 kJ/mol
# GULP energy per Si atom -12393.962152 kJ/mol
# Density = 1.768239 g / cm^3
# Si number density = 17.722729 Si / 1000 Ang^3
#
#
#
# Elastic Constant Matrix: (Units=GPa)
#
#
# Indices 1 2 3 4 5 6 
#
# 1 107.9309 62.0574 39.0582 -4.4079 -8.1563 0.0000
# 2 62.0574 107.9309 39.0582 4.4079 8.1563 0.0000
# 3 39.0582 39.0582 84.1032 0.0000 0.0000 0.0000
# 4 -4.4079 4.4079 0.0000 25.4297 0.0000 8.1563
# 5 -8.1563 8.1563 0.0000 0.0000 25.4297 -4.4079
# 6 0.0000 0.0000 0.0000 8.1563 -4.4079 22.9367
#
#
#
# Elastic Compliance Matrix: (Units=1/GPa)
#
#
# Indices 1 2 3 4 5 6 
#
# 1 0.016523 -0.009044 -0.003473 0.004432 0.008200 0.000000
# 2 -0.009044 0.016523 -0.003473 -0.004432 -0.008200 0.000000
# 3 -0.003473 -0.003473 0.015116 0.000000 0.000000 0.000000
# 4 0.004432 -0.004432 0.000000 0.046121 0.000000 -0.016401
# 5 0.008200 -0.008200 0.000000 0.000000 0.046121 0.008863
# 6 0.000000 0.000000 0.000000 -0.016401 0.008863 0.051134
#
#
# Mechanical properties :
#
#
# Convention : Reuss Voigt Hill
#
# Bulk Modulus (GPa) = 61.80127 64.47919 63.14023
# Shear Modulus (GPa) = 21.84251 25.41194 23.62723
#
# Velocity S-wave (km/s) = 3.51445 3.79074 3.65521
# Velocity P-wave (km/s) = 7.17045 7.45794 7.31561
#
# Compressibility (1/GPa) = 0.01618090
#
# Stress axis : x y z
#
# Youngs Moduli (GPa) = 60.52238 60.52238 66.15438
#
# Poissons Ratio (x) = 0.54736 0.22977
# Poissons Ratio (y) = 0.54736 0.22977
# Poissons Ratio (z) = 0.21021 0.21021
#
# Static dielectric constant tensor:
#      x y z
#    x 3.120580 0.000000 0.000000 
#    y 0.000000 3.120580 0.000000 
#    z 0.000000 0.000000 3.233460 
# 
# 
# High freq. dielectric constant tensor:
#      x y z
#    x 1.674390 0.000000 0.000000 
#    y 0.000000 1.674390 0.000000 
#    z 0.000000 0.000000 1.681770 
# 
# From -- ./inp_files/2670.got.cif
#   From: 2010.03.12/outbox.cif.g09.slc.cpg/sg148_2_cif.got.tgz:2670.got - 2010.04.03 13:38:46.
