data_PCOD8321241
_publ_section_title
;
Structure prediction by ZEFSAII (Michael W. Deem and Ramdas Pophale) SiO2 
 PCOD8321241
Probable space group: I 41/A C D
;
_chemical_formula_sum "Si O2"
_cell_formula_units_Z 176
_cell_length_a 18.648985
_cell_length_b 18.648985
_cell_length_c 24.405633
_cell_angle_alpha 90.000000
_cell_angle_beta 90.000000
_cell_angle_gamma 90.000000
_cell_volume 8487.904324
_symmetry_space_group_name_H-M "I 41/A C D"
_symmetry_group_IT_number 142
_space_group.IT_coordinate_system_code '2'
_symmetry_cell_setting 'tetragonal'
loop_
_space_group_symop_operation_xyz
x,y,z
1/4-y,3/4+x,1/4+z
-x,1/2-y,z
1/4+y,1/4-x,3/4+z
x,-y,1/2-z
1/2-x,y,-z
3/4+y,1/4+x,1/4-z
1/4-y,1/4-x,1/4-z
-x,-y,-z
3/4+y,1/4-x,3/4-z
x,1/2+y,-z
3/4-y,3/4+x,1/4-z
-x,y,1/2+z
1/2+x,-y,z
1/4-y,3/4-x,3/4+z
3/4+y,3/4+x,3/4+z
1/2+x,1/2+y,1/2+z
3/4-y,1/4+x,3/4+z
1/2-x,-y,1/2+z
3/4+y,3/4-x,1/4+z
1/2+x,1/2-y,-z
-x,1/2+y,1/2-z
1/4+y,3/4+x,3/4-z
3/4-y,3/4-x,3/4-z
1/2-x,1/2-y,1/2-z
1/4+y,3/4-x,1/4-z
1/2+x,y,1/2-z
1/4-y,1/4+x,3/4-z
1/2-x,1/2+y,z
x,1/2-y,1/2+z
3/4-y,1/4-x,1/4+z
1/4+y,1/4+x,1/4+z
loop_
_atom_site_type_symbol
_atom_site_label
_atom_site_fract_x
_atom_site_fract_y
_atom_site_fract_z
Si Si1 0.591892 0.927077 0.898435
Si Si2 0.061660 0.449748 0.697539
Si Si3 0.305364 0.184827 0.151916
Si Si4 0.322057 0.341741 0.916284
Si Si5 0.866382 0.547058 0.478621
Si Si6 0.250000 0.444909 0.000000
O O1 0.509618 0.901162 0.905933
O O2 0.633486 0.875307 0.856398
O O3 0.584763 0.002726 0.870244
O O4 0.629391 0.936897 0.956861
O O5 0.061762 0.500000 0.750000
O O6 0.074619 0.501720 0.647679
O O7 0.125469 0.390823 0.699293
O O8 0.985386 0.408282 0.692738
O O9 0.253280 0.180144 0.205519
O O10 0.385328 0.364673 0.875000
O O11 0.306096 0.398277 0.964593
O O12 0.796917 0.498811 0.462933
#
# Coordination Sequence:
#
# PCOD8321241 Si02
#       6
#    32  32  32  32  32  16
#     4  11  23  40  63  94 129 174 218 274 332 395
#     4  11  22  38  65  95 132 173 216 274 335 396
#     4  11  24  40  63  93 132 170 223 276 331 390
#     4  11  23  39  62  98 134 169 215 274 331 393
#     4  12  22  39  64  99 129 169 226 273 329 398
#     4  12  20  32  68  96 128 166 222 274 326 382
#
# _framework density 20.735389999999999
#
# number of rings (size 3 to 8) (size 9 to 14) (size 15 to 20)
#    0.000    0.727    7.273    1.091    0.000    0.364 
#    0.000    0.000    0.000    8.727    0.000    0.000 
#    0.000    0.000    0.000    0.000    0.000    0.000 
#
# Total GULP energy -1090639.038172 kJ/mol
# GULP energy per Si atom -12393.625434 kJ/mol
# Density = 2.068820 g / cm^3
# Si number density = 20.735390 Si / 1000 Ang^3
#
#
#
# Elastic Constant Matrix: (Units=GPa)
#
#
# Indices 1 2 3 4 5 6 
#
# 1 111.0774 50.1955 19.7821 0.0000 0.0000 0.0000
# 2 50.1955 111.0786 19.7822 0.0000 0.0000 0.0000
# 3 19.7821 19.7822 67.3998 0.0000 0.0000 0.0000
# 4 0.0000 0.0000 0.0000 32.9585 0.0000 0.0000
# 5 0.0000 0.0000 0.0000 0.0000 32.9583 0.0000
# 6 0.0000 0.0000 0.0000 0.0000 0.0000 11.2188
#
#
#
# Elastic Compliance Matrix: (Units=1/GPa)
#
#
# Indices 1 2 3 4 5 6 
#
# 1 0.011553 -0.004872 -0.001961 0.000000 0.000000 0.000000
# 2 -0.004872 0.011553 -0.001961 0.000000 0.000000 0.000000
# 3 -0.001961 -0.001961 0.015988 0.000000 0.000000 0.000000
# 4 0.000000 0.000000 0.000000 0.030341 0.000000 0.000000
# 5 0.000000 0.000000 0.000000 0.000000 0.030341 0.000000
# 6 0.000000 0.000000 0.000000 0.000000 0.000000 0.089136
#
#
# Mechanical properties :
#
#
# Convention : Reuss Voigt Hill
#
# Bulk Modulus (GPa) = 46.49639 52.11949 49.30794
# Shear Modulus (GPa) = 23.40051 28.74686 26.07369
#
# Velocity S-wave (km/s) = 3.36300 3.72743 3.54990
# Velocity P-wave (km/s) = 6.12798 6.61174 6.37445
#
# Compressibility (1/GPa) = 0.02150705
#
# Stress axis : x y z
#
# Youngs Moduli (GPa) = 86.55397 86.55492 62.54680
#
# Poissons Ratio (x) = 0.42167 0.12266
# Poissons Ratio (y) = 0.42166 0.12266
# Poissons Ratio (z) = 0.16974 0.16974
#
# Static dielectric constant tensor:
#      x y z
#    x 3.916130 0.000000 0.000000 
#    y 0.000000 3.916130 0.000000 
#    z 0.000000 0.000000 3.653650 
# 
# 
# High freq. dielectric constant tensor:
#      x y z
#    x 1.803010 0.000000 0.000000 
#    y 0.000000 1.803010 0.000000 
#    z 0.000000 0.000000 1.818740 
# 
# From -- ./inp_files/11426.got.cif
#   From: 2010.03.12/outbox.cif.g09.slc.cpg/sg142_6_cif.got.tgz:11426.got - 2010.04.03 13:27:16.
