data_PCOD8321764
_publ_section_title
;
Structure prediction by ZEFSAII (Michael W. Deem and Ramdas Pophale) SiO2 
 PCOD8321764
Probable space group: R -3
;
_chemical_formula_sum "Si O2"
_cell_formula_units_Z 102
_cell_length_a 20.503125
_cell_length_b 20.503125
_cell_length_c 13.343544
_cell_angle_alpha 90.000000
_cell_angle_beta 90.000000
_cell_angle_gamma 120.000000
_cell_volume 4857.825862
_symmetry_space_group_name_H-M "R -3"
_symmetry_group_IT_number 148
_symmetry_cell_setting 'hexagonal'
loop_
_space_group_symop_operation_xyz
x,y,z
-y,x-y,z
-x+y,-x,z
-x,-y,-z
y,-x+y,-z
x-y,x,-z
2/3+x,1/3+y,1/3+z
2/3-y,1/3+x-y,1/3+z
2/3-x+y,1/3-x,1/3+z
2/3-x,1/3-y,1/3-z
2/3+y,1/3-x+y,1/3-z
2/3+x-y,1/3+x,1/3-z
1/3+x,2/3+y,2/3+z
1/3-y,2/3+x-y,2/3+z
1/3-x+y,2/3-x,2/3+z
1/3-x,2/3-y,2/3-z
1/3+y,2/3-x+y,2/3-z
1/3+x-y,2/3+x,2/3-z
loop_
_atom_site_type_symbol
_atom_site_label
_atom_site_fract_x
_atom_site_fract_y
_atom_site_fract_z
Si Si1 0.333334 0.666667 0.549702
Si Si2 0.666668 0.333334 0.948217
Si Si3 0.275516 0.944585 0.810747
Si Si4 0.835608 0.700202 0.303957
Si Si5 0.533103 0.253993 0.076613
Si Si6 0.851692 0.581591 0.615342
Si Si7 0.111178 0.776323 0.479907
O O1 0.333335 0.666668 0.666667
O O2 0.246196 0.623050 0.512545
O O3 0.666668 0.333335 0.833334
O O4 0.583219 0.309280 0.987362
O O5 0.224064 0.886832 0.722654
O O6 0.232446 0.912465 0.917045
O O7 0.357333 0.953232 0.815579
O O8 0.284954 0.025941 0.788488
O O9 0.872124 0.784319 0.256928
O O10 0.829029 0.702699 0.423365
O O11 0.525941 0.173930 0.057326
O O12 0.794380 0.606612 0.574578
O O13 0.875721 0.604531 0.731406
#
# Coordination Sequence:
#
# PCOD8321764 Si02
#       7
#     6   6  18  18  18  18  18
#     4  10  23  49  67  95 130 175 218 277 313 395
#     4  10  23  37  67  98 127 172 206 268 322 389
#     4  10  23  45  63  98 136 167 224 269 329 405
#     4  10  23  43  70  94 134 178 212 278 329 393
#     4   9  22  44  63  97 134 158 226 263 322 398
#     4  10  24  43  63 101 130 167 222 270 327 398
#     4  11  24  39  71  93 129 178 215 271 332 388
#
# _framework density 20.997049000000001
#
# number of rings (size 3 to 8) (size 9 to 14) (size 15 to 20)
#    0.000    2.118    0.000    1.059   14.824    0.000 
#    9.529    0.000    0.000    0.000    0.000    0.000 
#    0.000    0.000    0.000    0.000    0.000    0.000 
#
# Total GULP energy -421518.212684 kJ/mol
# GULP energy per Si atom -12397.594491 kJ/mol
# Density = 2.094926 g / cm^3
# Si number density = 20.997049 Si / 1000 Ang^3
#
#
#
# Elastic Constant Matrix: (Units=GPa)
#
#
# Indices 1 2 3 4 5 6 
#
# 1 92.3962 31.2775 48.1700 -0.9070 -1.4405 0.0002
# 2 31.2775 92.4002 48.1708 0.9069 1.4404 0.0004
# 3 48.1700 48.1708 174.2343 0.0002 0.0000 0.0000
# 4 -0.9070 0.9069 0.0002 16.4957 0.0004 1.4407
# 5 -1.4405 1.4404 0.0000 0.0004 16.4955 -0.9072
# 6 0.0002 0.0004 0.0000 1.4407 -0.9072 30.5597
#
#
#
# Elastic Compliance Matrix: (Units=1/GPa)
#
#
# Indices 1 2 3 4 5 6 
#
# 1 0.013381 -0.003075 -0.002849 0.000905 0.001437 0.000000
# 2 -0.003075 0.013380 -0.002849 -0.000905 -0.001437 0.000000
# 3 -0.002849 -0.002849 0.007315 0.000000 0.000000 0.000000
# 4 0.000905 -0.000905 0.000000 0.060972 -0.000002 -0.002874
# 5 0.001437 -0.001437 0.000000 -0.000002 0.060973 0.001810
# 6 0.000000 0.000000 0.000000 -0.002874 0.001810 0.032912
#
#
# Mechanical properties :
#
#
# Convention : Reuss Voigt Hill
#
# Bulk Modulus (GPa) = 60.50103 68.25194 64.37648
# Shear Modulus (GPa) = 23.58609 28.13767 25.86188
#
# Velocity S-wave (km/s) = 3.35521 3.66468 3.51335
# Velocity P-wave (km/s) = 6.62469 7.10511 6.86910
#
# Compressibility (1/GPa) = 0.01652865
#
# Stress axis : x y z
#
# Youngs Moduli (GPa) = 74.73493 74.73840 136.71061
#
# Poissons Ratio (x) = 0.22985 0.38950
# Poissons Ratio (y) = 0.22984 0.38948
# Poissons Ratio (z) = 0.21292 0.21293
#
# Static dielectric constant tensor:
#      x y z
#    x 3.802420 0.000010 0.000000 
#    y 0.000010 3.802410 0.000000 
#    z 0.000000 0.000000 3.751020 
# 
# 
# High freq. dielectric constant tensor:
#      x y z
#    x 1.824790 0.000000 0.000000 
#    y 0.000000 1.824790 0.000000 
#    z 0.000000 0.000000 1.818030 
# 
# From -- ./inp_files/2080.got.cif
#   From: 2010.03.12/outbox.cif.g09.slc.cpg/sg148_2_cif.got.tgz:2080.got - 2010.04.03 13:38:46.
