data_PCOD8321009
_publ_section_title
;
Structure prediction by ZEFSAII (Michael W. Deem and Ramdas Pophale) SiO2 
 PCOD8321009
Probable space group: I 41/A C D
;
_chemical_formula_sum "Si O2"
_cell_formula_units_Z 128
_cell_length_a 21.670984
_cell_length_b 21.670984
_cell_length_c 14.787389
_cell_angle_alpha 90.000000
_cell_angle_beta 90.000000
_cell_angle_gamma 90.000000
_cell_volume 6944.624380
_symmetry_space_group_name_H-M "I 41/A C D"
_symmetry_group_IT_number 142
_space_group.IT_coordinate_system_code '2'
_symmetry_cell_setting 'tetragonal'
loop_
_space_group_symop_operation_xyz
x,y,z
1/4-y,3/4+x,1/4+z
-x,1/2-y,z
1/4+y,1/4-x,3/4+z
x,-y,1/2-z
1/2-x,y,-z
3/4+y,1/4+x,1/4-z
1/4-y,1/4-x,1/4-z
-x,-y,-z
3/4+y,1/4-x,3/4-z
x,1/2+y,-z
3/4-y,3/4+x,1/4-z
-x,y,1/2+z
1/2+x,-y,z
1/4-y,3/4-x,3/4+z
3/4+y,3/4+x,3/4+z
1/2+x,1/2+y,1/2+z
3/4-y,1/4+x,3/4+z
1/2-x,-y,1/2+z
3/4+y,3/4-x,1/4+z
1/2+x,1/2-y,-z
-x,1/2+y,1/2-z
1/4+y,3/4+x,3/4-z
3/4-y,3/4-x,3/4-z
1/2-x,1/2-y,1/2-z
1/4+y,3/4-x,1/4-z
1/2+x,y,1/2-z
1/4-y,1/4+x,3/4-z
1/2-x,1/2+y,z
x,1/2-y,1/2+z
3/4-y,1/4-x,1/4+z
1/4+y,1/4+x,1/4+z
loop_
_atom_site_type_symbol
_atom_site_label
_atom_site_fract_x
_atom_site_fract_y
_atom_site_fract_z
Si Si1 0.816147 0.706147 0.974600
Si Si2 0.489844 0.651729 0.368048
Si Si3 0.303782 0.798481 0.235697
Si Si4 0.683119 0.567621 0.020317
O O1 0.828026 0.705642 0.867257
O O2 0.817923 0.637334 0.018852
O O3 0.750000 0.735418 0.000000
O O4 0.866825 0.747943 0.023757
O O5 0.435645 0.699213 0.346193
O O6 0.469608 0.608739 0.449540
O O7 0.250000 0.750000 0.250000
O O8 0.282748 0.869762 0.261160
O O9 0.677394 0.572607 0.125000
O O10 0.750000 0.534984 0.000000
#
# Coordination Sequence:
#
# PCOD8321009 Si02
#       4
#    32  32  32  32
#     4  10  19  36  59  87 116 156 204 247 295 367
#     4  11  23  37  57  88 125 157 194 252 312 364
#     4  11  21  36  64  89 114 159 210 253 302 364
#     4   9  19  35  61  86 115 155 201 247 296 367
#
# _framework density 18.431522999999999
#
# number of rings (size 3 to 8) (size 9 to 14) (size 15 to 20)
#    0.000    1.750    5.000    0.000    0.000    1.000 
#    0.000    2.500   11.000    0.000    0.000    0.000 
#    0.000    0.000    0.000    0.000    0.000    0.000 
#
# Total GULP energy -792881.901947 kJ/mol
# GULP energy per Si atom -12388.779718 kJ/mol
# Density = 1.838957 g / cm^3
# Si number density = 18.431523 Si / 1000 Ang^3
#
#
#
# Elastic Constant Matrix: (Units=GPa)
#
#
# Indices 1 2 3 4 5 6 
#
# 1 126.6433 58.6611 33.3235 0.0000 0.0000 0.0000
# 2 58.6611 126.6432 33.3234 0.0000 0.0000 0.0000
# 3 33.3235 33.3234 83.6218 0.0000 0.0000 0.0000
# 4 0.0000 0.0000 0.0000 15.6487 0.0000 0.0000
# 5 0.0000 0.0000 0.0000 0.0000 15.6498 0.0000
# 6 0.0000 0.0000 0.0000 0.0000 0.0000 33.6395
#
#
#
# Elastic Compliance Matrix: (Units=1/GPa)
#
#
# Indices 1 2 3 4 5 6 
#
# 1 0.010505 -0.004205 -0.002510 0.000000 0.000000 0.000000
# 2 -0.004205 0.010505 -0.002510 0.000000 0.000000 0.000000
# 3 -0.002510 -0.002510 0.013959 0.000000 0.000000 0.000000
# 4 0.000000 0.000000 0.000000 0.063903 0.000000 0.000000
# 5 0.000000 0.000000 0.000000 0.000000 0.063899 0.000000
# 6 0.000000 0.000000 0.000000 0.000000 0.000000 0.029727
#
#
# Mechanical properties :
#
#
# Convention : Reuss Voigt Hill
#
# Bulk Modulus (GPa) = 60.54427 65.28050 62.91238
# Shear Modulus (GPa) = 23.09957 27.09429 25.09693
#
# Velocity S-wave (km/s) = 3.54399 3.83821 3.69403
# Velocity P-wave (km/s) = 7.04741 7.42545 7.23890
#
# Compressibility (1/GPa) = 0.01651684
#
# Stress axis : x y z
#
# Youngs Moduli (GPa) = 95.19660 95.19663 71.63661
#
# Poissons Ratio (x) = 0.40032 0.17983
# Poissons Ratio (y) = 0.40032 0.17983
# Poissons Ratio (z) = 0.23898 0.23897
#
# Static dielectric constant tensor:
#      x y z
#    x 3.700460 0.000000 0.000000 
#    y 0.000000 3.700410 0.000000 
#    z 0.000000 0.000000 3.265090 
# 
# 
# High freq. dielectric constant tensor:
#      x y z
#    x 1.711060 0.000000 0.000000 
#    y 0.000000 1.711060 0.000000 
#    z 0.000000 0.000000 1.705860 
# 
# From -- ./inp_files/3485.got.cif
#   From: 2010.03.12/outbox.cif.g09.slc.cpg/sg142_2_cif.got.tgz:3485.got - 2010.04.03 13:27:16.
