data_PCOD8321267
_publ_section_title
;
Structure prediction by ZEFSAII (Michael W. Deem and Ramdas Pophale) SiO2 
 PCOD8321267
Probable space group: I 41/A C D
;
_chemical_formula_sum "Si O2"
_cell_formula_units_Z 144
_cell_length_a 15.490375
_cell_length_b 15.490375
_cell_length_c 24.272292
_cell_angle_alpha 90.000000
_cell_angle_beta 90.000000
_cell_angle_gamma 90.000000
_cell_volume 5824.178156
_symmetry_space_group_name_H-M "I 41/A C D"
_symmetry_group_IT_number 142
_space_group.IT_coordinate_system_code '2'
_symmetry_cell_setting 'tetragonal'
loop_
_space_group_symop_operation_xyz
x,y,z
1/4-y,3/4+x,1/4+z
-x,1/2-y,z
1/4+y,1/4-x,3/4+z
x,-y,1/2-z
1/2-x,y,-z
3/4+y,1/4+x,1/4-z
1/4-y,1/4-x,1/4-z
-x,-y,-z
3/4+y,1/4-x,3/4-z
x,1/2+y,-z
3/4-y,3/4+x,1/4-z
-x,y,1/2+z
1/2+x,-y,z
1/4-y,3/4-x,3/4+z
3/4+y,3/4+x,3/4+z
1/2+x,1/2+y,1/2+z
3/4-y,1/4+x,3/4+z
1/2-x,-y,1/2+z
3/4+y,3/4-x,1/4+z
1/2+x,1/2-y,-z
-x,1/2+y,1/2-z
1/4+y,3/4+x,3/4-z
3/4-y,3/4-x,3/4-z
1/2-x,1/2-y,1/2-z
1/4+y,3/4-x,1/4-z
1/2+x,y,1/2-z
1/4-y,1/4+x,3/4-z
1/2-x,1/2+y,z
x,1/2-y,1/2+z
3/4-y,1/4-x,1/4+z
1/4+y,1/4+x,1/4+z
loop_
_atom_site_type_symbol
_atom_site_label
_atom_site_fract_x
_atom_site_fract_y
_atom_site_fract_z
Si Si1 0.883929 0.736485 0.156974
Si Si2 0.689252 0.358259 0.450784
Si Si3 0.904623 0.752523 0.781455
Si Si4 0.741528 0.508473 0.625000
Si Si5 0.710711 0.701641 0.625524
O O1 0.919749 0.671026 0.110635
O O2 0.907415 0.709751 0.219375
O O3 0.782364 0.737922 0.153403
O O4 0.750000 0.329722 0.500000
O O5 0.593284 0.388742 0.468727
O O6 0.737198 0.439319 0.422363
O O7 0.672203 0.267820 0.418953
O O8 0.856296 0.817151 0.824262
O O9 0.000000 0.750000 0.804881
O O10 0.748790 0.609240 0.604429
#
# Coordination Sequence:
#
# PCOD8321267 Si02
#       5
#    32  32  32  16  32
#     4  11  23  44  72 109 151 192 253 313 381 467
#     4  12  27  49  73 112 158 204 259 339 402 475
#     4  12  24  46  77 112 150 205 258 324 396 471
#     4  12  26  50  72 112 156 204 264 326 404 480
#     4  12  25  45  75 105 152 204 260 321 393 475
#
# _framework density 24.724519000000001
#
# number of rings (size 3 to 8) (size 9 to 14) (size 15 to 20)
#    0.000    0.222    4.444    6.000    0.000    1.778 
#    0.000    0.000    0.000    0.000    0.000    0.000 
#    0.000    0.000    0.000    0.000    0.000    0.000 
#
# Total GULP energy -892166.420887 kJ/mol
# GULP energy per Si atom -12391.200290 kJ/mol
# Density = 2.466825 g / cm^3
# Si number density = 24.724519 Si / 1000 Ang^3
#
#
#
# Elastic Constant Matrix: (Units=GPa)
#
#
# Indices 1 2 3 4 5 6 
#
# 1 90.1920 -26.7768 18.0814 0.0000 0.0000 0.0000
# 2 -26.7768 90.1936 18.0812 0.0000 0.0000 0.0000
# 3 18.0814 18.0812 126.7147 0.0000 0.0000 0.0000
# 4 0.0000 0.0000 0.0000 18.2989 0.0000 0.0000
# 5 0.0000 0.0000 0.0000 0.0000 18.2988 0.0000
# 6 0.0000 0.0000 0.0000 0.0000 0.0000 33.1387
#
#
#
# Elastic Compliance Matrix: (Units=1/GPa)
#
#
# Indices 1 2 3 4 5 6 
#
# 1 0.012858 0.004308 -0.002449 0.000000 0.000000 0.000000
# 2 0.004308 0.012857 -0.002449 0.000000 0.000000 0.000000
# 3 -0.002449 -0.002449 0.008591 0.000000 0.000000 0.000000
# 4 0.000000 0.000000 0.000000 0.054648 0.000000 0.000000
# 5 0.000000 0.000000 0.000000 0.000000 0.054648 0.000000
# 6 0.000000 0.000000 0.000000 0.000000 0.000000 0.030176
#
#
# Mechanical properties :
#
#
# Convention : Reuss Voigt Hill
#
# Bulk Modulus (GPa) = 30.18923 36.20800 33.19861
# Shear Modulus (GPa) = 26.88154 33.79489 30.33821
#
# Velocity S-wave (km/s) = 3.30091 3.70111 3.50673
# Velocity P-wave (km/s) = 5.17347 5.73940 5.46377
#
# Compressibility (1/GPa) = 0.03312440
#
# Stress axis : x y z
#
# Youngs Moduli (GPa) = 77.77525 77.77670 116.40391
#
# Poissons Ratio (x) = -0.33508 0.28512
# Poissons Ratio (y) = -0.33507 0.28512
# Poissons Ratio (z) = 0.19051 0.19051
#
# Static dielectric constant tensor:
#      x y z
#    x 4.651800 0.000000 0.000000 
#    y 0.000000 4.651780 0.000000 
#    z 0.000000 0.000000 4.400760 
# 
# 
# High freq. dielectric constant tensor:
#      x y z
#    x 1.997270 0.000000 0.000000 
#    y 0.000000 1.997270 0.000000 
#    z 0.000000 0.000000 1.968040 
# 
# From -- ./inp_files/10135.got.cif
#   From: 2010.03.12/outbox.cif.g09.slc.cpg/sg142_6_cif.got.tgz:10135.got - 2010.04.03 13:27:16.
