data_PCOD8321540
_publ_section_title
;
Structure prediction by ZEFSAII (Michael W. Deem and Ramdas Pophale) SiO2 
 PCOD8321540
Probable space group: R 3
;
_chemical_formula_sum "Si O2"
_cell_formula_units_Z 42
_cell_length_a 16.557008
_cell_length_b 16.557008
_cell_length_c 7.287278
_cell_angle_alpha 90.000000
_cell_angle_beta 90.000000
_cell_angle_gamma 120.000000
_cell_volume 1730.054110
_symmetry_space_group_name_H-M "R 3"
_symmetry_group_IT_number 146
_symmetry_cell_setting 'hexagonal'
loop_
_space_group_symop_operation_xyz
x,y,z
-y,x-y,z
-x+y,-x,z
2/3+x,1/3+y,1/3+z
2/3-y,1/3+x-y,1/3+z
2/3-x+y,1/3-x,1/3+z
1/3+x,2/3+y,2/3+z
1/3-y,2/3+x-y,2/3+z
1/3-x+y,2/3-x,2/3+z
loop_
_atom_site_type_symbol
_atom_site_label
_atom_site_fract_x
_atom_site_fract_y
_atom_site_fract_z
Si Si1 0.000000 0.000000 0.641226
Si Si2 0.929023 0.797989 0.081307
Si Si3 0.586411 0.455463 0.011057
Si Si4 0.676446 0.940940 0.234833
Si Si5 0.723452 0.654815 0.150696
Si Si6 0.000000 0.000000 0.079610
O O1 0.939186 0.894131 0.567345
O O2 0.000000 0.000000 0.860315
O O3 0.930580 0.798619 0.862514
O O4 0.835538 0.707140 0.155180
O O5 0.937517 0.894369 0.153376
O O6 0.021791 0.799819 0.149469
O O7 0.505739 0.460198 0.894182
O O8 0.678228 0.554200 0.053231
O O9 0.685493 0.975706 0.444481
O O10 0.688761 0.712815 0.027418
#
# Coordination Sequence:
#
# PCOD8321540 Si02
#       6
#     3   9   9   9   9   3
#     4   9  21  42  73  95 145 184 239 295 364 422
#     4  10  23  43  70 104 144 186 238 293 359 426
#     4  10  23  42  70 106 139 190 238 295 360 425
#     4  12  26  43  70 103 142 183 238 296 355 425
#     4  10  24  42  70 103 141 185 233 291 359 423
#     4   9  21  42  73 107 139 190 242 292 367 419
#
# _framework density 24.276698
#
# number of rings (size 3 to 8) (size 9 to 14) (size 15 to 20)
#    0.000    1.714    2.143    0.000    9.000    1.714 
#    0.000    2.143    0.000    0.000    0.000    0.000 
#    0.000    0.000    0.000    0.000    0.000    0.000 
#
# Total GULP energy -173565.428836 kJ/mol
# GULP energy per Si atom -12397.530631 kJ/mol
# Density = 2.422144 g / cm^3
# Si number density = 24.276698 Si / 1000 Ang^3
#
#
#
# Elastic Constant Matrix: (Units=GPa)
#
#
# Indices 1 2 3 4 5 6 
#
# 1 164.7457 85.2052 13.6307 -1.3388 12.6903 0.0004
# 2 85.2052 164.7438 13.6266 1.3403 -12.6872 0.0003
# 3 13.6307 13.6266 44.7722 0.0012 0.0050 -0.0001
# 4 -1.3388 1.3403 0.0012 23.5194 0.0000 -12.6876
# 5 12.6903 -12.6872 0.0050 0.0000 23.5200 -1.3401
# 6 0.0004 0.0003 -0.0001 -12.6876 -1.3401 39.7696
#
#
#
# Elastic Compliance Matrix: (Units=1/GPa)
#
#
# Indices 1 2 3 4 5 6 
#
# 1 0.009680 -0.005542 -0.001259 0.000867 -0.008212 0.000000
# 2 -0.005542 0.009680 -0.001260 -0.000867 0.008212 0.000000
# 3 -0.001259 -0.001260 0.023102 -0.000001 -0.000005 -0.000001
# 4 0.000867 -0.000867 -0.000001 0.051476 0.000000 0.016422
# 5 -0.008212 0.008212 -0.000005 0.000000 0.051476 0.001735
# 6 0.000000 0.000000 -0.000001 0.016422 0.001735 0.030442
#
#
# Mechanical properties :
#
#
# Convention : Reuss Voigt Hill
#
# Bulk Modulus (GPa) = 37.96526 66.57630 52.27078
# Shear Modulus (GPa) = 24.90554 34.81508 29.86031
#
# Velocity S-wave (km/s) = 3.20645 3.79105 3.51094
# Velocity P-wave (km/s) = 5.42042 6.82981 6.16552
#
# Compressibility (1/GPa) = 0.02633987
#
# Stress axis : x y z
#
# Youngs Moduli (GPa) = 103.30678 103.30724 43.28598
#
# Poissons Ratio (x) = 0.57250 0.05452
# Poissons Ratio (y) = 0.57250 0.05453
# Poissons Ratio (z) = 0.13011 0.13015
#
# Static dielectric constant tensor:
#      x y z
#    x 4.341410 0.000000 -0.000010 
#    y 0.000000 4.341420 0.000000 
#    z -0.000010 0.000000 4.223570 
# 
# 
# High freq. dielectric constant tensor:
#      x y z
#    x 1.962410 0.000000 0.000000 
#    y 0.000000 1.962410 0.000000 
#    z 0.000000 0.000000 1.954640 
# 
# From -- ./inp_files/632.got.cif
#   From: 2010.06.25/outbox.cif.g09.slc.cpg/sg146_cif.got.tgz:632.got - 2010.06.28 11:17:22.
