data_PCOD8321195
_publ_section_title
;
Structure prediction by ZEFSAII (Michael W. Deem and Ramdas Pophale) SiO2 
 PCOD8321195
Probable space group: I 41/A C D
;
_chemical_formula_sum "Si O2"
_cell_formula_units_Z 96
_cell_length_a 13.425187
_cell_length_b 13.425187
_cell_length_c 21.744096
_cell_angle_alpha 90.000000
_cell_angle_beta 90.000000
_cell_angle_gamma 90.000000
_cell_volume 3919.061189
_symmetry_space_group_name_H-M "I 41/A C D"
_symmetry_group_IT_number 142
_space_group.IT_coordinate_system_code '2'
_symmetry_cell_setting 'tetragonal'
loop_
_space_group_symop_operation_xyz
x,y,z
1/4-y,3/4+x,1/4+z
-x,1/2-y,z
1/4+y,1/4-x,3/4+z
x,-y,1/2-z
1/2-x,y,-z
3/4+y,1/4+x,1/4-z
1/4-y,1/4-x,1/4-z
-x,-y,-z
3/4+y,1/4-x,3/4-z
x,1/2+y,-z
3/4-y,3/4+x,1/4-z
-x,y,1/2+z
1/2+x,-y,z
1/4-y,3/4-x,3/4+z
3/4+y,3/4+x,3/4+z
1/2+x,1/2+y,1/2+z
3/4-y,1/4+x,3/4+z
1/2-x,-y,1/2+z
3/4+y,3/4-x,1/4+z
1/2+x,1/2-y,-z
-x,1/2+y,1/2-z
1/4+y,3/4+x,3/4-z
3/4-y,3/4-x,3/4-z
1/2-x,1/2-y,1/2-z
1/4+y,3/4-x,1/4-z
1/2+x,y,1/2-z
1/4-y,1/4+x,3/4-z
1/2-x,1/2+y,z
x,1/2-y,1/2+z
3/4-y,1/4-x,1/4+z
1/4+y,1/4+x,1/4+z
loop_
_atom_site_type_symbol
_atom_site_label
_atom_site_fract_x
_atom_site_fract_y
_atom_site_fract_z
Si Si1 0.824034 0.721671 0.343814
Si Si2 0.866228 0.756526 0.593559
Si Si3 0.366745 0.425665 0.002359
O O1 0.921500 0.671500 0.375000
O O2 0.750415 0.735324 0.401550
O O3 0.841731 0.831006 0.314040
O O4 0.770572 0.656324 0.290887
O O5 0.929519 0.653520 0.595467
O O6 0.889418 0.819822 0.533639
O O7 0.250000 0.445687 0.000000
#
# Coordination Sequence:
#
# PCOD8321195 Si02
#       3
#    32  32  32
#     4  10  23  45  72 105 147 190 247 306 374 462
#     4   9  20  43  70  95 140 186 236 305 378 436
#     4  10  23  43  72 106 143 195 248 309 383 450
#
# _framework density 24.495661999999999
#
# number of rings (size 3 to 8) (size 9 to 14) (size 15 to 20)
#    0.000    2.333    0.000    0.000    9.333    0.000 
#   30.000    1.667    0.000    0.000    0.000    0.000 
#    0.000    0.000    0.000    0.000    0.000    0.000 
#
# Total GULP energy -594654.490953 kJ/mol
# GULP energy per Si atom -12388.635228 kJ/mol
# Density = 2.443991 g / cm^3
# Si number density = 24.495662 Si / 1000 Ang^3
#
#
#
# Elastic Constant Matrix: (Units=GPa)
#
#
# Indices 1 2 3 4 5 6 
#
# 1 131.0975 37.1073 27.8877 0.0000 0.0000 0.0000
# 2 37.1073 131.0975 27.8877 0.0000 0.0000 0.0000
# 3 27.8877 27.8877 63.1831 0.0000 0.0000 0.0000
# 4 0.0000 0.0000 0.0000 29.0468 0.0000 0.0000
# 5 0.0000 0.0000 0.0000 0.0000 29.0468 0.0000
# 6 0.0000 0.0000 0.0000 0.0000 0.0000 38.1846
#
#
#
# Elastic Compliance Matrix: (Units=1/GPa)
#
#
# Indices 1 2 3 4 5 6 
#
# 1 0.008802 -0.001837 -0.003074 0.000000 0.000000 0.000000
# 2 -0.001837 0.008802 -0.003074 0.000000 0.000000 0.000000
# 3 -0.003074 -0.003074 0.018541 0.000000 0.000000 0.000000
# 4 0.000000 0.000000 0.000000 0.034427 0.000000 0.000000
# 5 0.000000 0.000000 0.000000 0.000000 0.034427 0.000000
# 6 0.000000 0.000000 0.000000 0.000000 0.000000 0.026189
#
#
# Mechanical properties :
#
#
# Convention : Reuss Voigt Hill
#
# Bulk Modulus (GPa) = 49.56970 56.79373 53.18172
# Shear Modulus (GPa) = 32.49227 34.75532 33.62380
#
# Velocity S-wave (km/s) = 3.64600 3.77083 3.70894
# Velocity P-wave (km/s) = 6.16477 6.49572 6.33241
#
# Compressibility (1/GPa) = 0.02017361
#
# Stress axis : x y z
#
# Youngs Moduli (GPa) = 113.61152 113.61152 53.93577
#
# Poissons Ratio (x) = 0.20876 0.16580
# Poissons Ratio (y) = 0.20876 0.16580
# Poissons Ratio (z) = 0.34924 0.34924
#
# Static dielectric constant tensor:
#      x y z
#    x 4.475780 0.000000 0.000000 
#    y 0.000000 4.475780 0.000000 
#    z 0.000000 0.000000 4.156900 
# 
# 
# High freq. dielectric constant tensor:
#      x y z
#    x 1.980170 0.000000 0.000000 
#    y 0.000000 1.980170 0.000000 
#    z 0.000000 0.000000 1.949800 
# 
# From -- ./inp_files/8377.got.cif
#   From: 2010.03.12/outbox.cif.g09.slc.cpg/sg142_5_cif.got.tgz:8377.got - 2010.04.03 13:27:16.
