data_PCOD8321964
_publ_section_title
;
Structure prediction by ZEFSAII (Michael W. Deem and Ramdas Pophale) SiO2 
 PCOD8321964
Probable space group: P 31 1 2
;
_chemical_formula_sum "Si O2"
_cell_formula_units_Z 42
_cell_length_a 8.691421
_cell_length_b 8.691421
_cell_length_c 27.925869
_cell_angle_alpha 90.000000
_cell_angle_beta 90.000000
_cell_angle_gamma 120.000000
_cell_volume 1826.917358
_symmetry_space_group_name_H-M "P 31 1 2"
_symmetry_group_IT_number 151
_symmetry_cell_setting 'hexagonal'
loop_
_space_group_symop_operation_xyz
x,y,z
-y,x-y,1/3+z
-x+y,-x,2/3+z
-y,-x,2/3-z
-x+y,y,1/3-z
x,x-y,-z
loop_
_atom_site_type_symbol
_atom_site_label
_atom_site_fract_x
_atom_site_fract_y
_atom_site_fract_z
Si Si1 0.631830 0.816850 0.906747
Si Si2 0.683092 0.979486 0.735837
Si Si3 0.453534 0.354455 0.637561
Si Si4 0.091281 0.543040 0.840028
Si Si5 0.021805 0.025544 0.221902
Si Si6 0.039525 0.446927 0.395231
Si Si7 0.737197 0.617434 0.564416
O O1 0.610624 0.910594 0.859524
O O2 0.815557 0.809523 0.904410
O O3 0.461506 0.623356 0.908519
O O4 0.636018 0.917040 0.955670
O O5 0.525508 0.953188 0.772078
O O6 0.619400 0.792092 0.707322
O O7 0.737364 0.148239 0.700083
O O8 0.854859 0.022942 0.766866
O O9 0.514466 0.438698 0.690109
O O10 0.614174 0.484345 0.604303
O O11 0.275029 0.724972 0.833334
O O12 0.932816 0.574197 0.820478
O O13 0.034451 0.068902 0.166667
O O14 0.015500 0.190823 0.247062
O O15 0.913629 0.312357 0.436359
#
# Coordination Sequence:
#
# PCOD8321964 Si02
#       7
#     6   6   6   6   6   6   6
#     4  10  21  37  69  95 125 169 222 275 333 401
#     4  10  22  40  69  95 128 178 215 284 337 393
#     4  10  23  43  63  92 131 179 221 270 330 405
#     4  11  20  41  65  99 132 165 218 279 348 399
#     4  10  19  38  61  95 129 162 211 268 338 408
#     4  11  22  44  64  96 129 178 227 267 325 404
#     4  10  24  39  62  92 135 174 213 281 335 396
#
# _framework density 22.989547999999999
#
# number of rings (size 3 to 8) (size 9 to 14) (size 15 to 20)
#    0.000    1.714    2.857    1.286    0.000    1.143 
#    7.714    7.143    0.000    0.000    0.000    0.000 
#    0.000    0.000    0.000    0.000    0.000    0.000 
#
# Total GULP energy -520300.555912 kJ/mol
# GULP energy per Si atom -12388.108474 kJ/mol
# Density = 2.293722 g / cm^3
# Si number density = 22.989548 Si / 1000 Ang^3
#
#
#
# Elastic Constant Matrix: (Units=GPa)
#
#
# Indices 1 2 3 4 5 6 
#
# 1 134.9364 55.3743 33.1496 0.0001 5.0239 0.0000
# 2 55.3743 134.9364 33.1496 -0.0001 -5.0239 0.0000
# 3 33.1496 33.1496 67.5905 0.0000 0.0000 0.0000
# 4 0.0001 -0.0001 0.0000 26.2770 0.0000 -5.0239
# 5 5.0239 -5.0239 0.0000 0.0000 26.2770 0.0001
# 6 0.0000 0.0000 0.0000 -5.0239 0.0001 39.7811
#
#
#
# Elastic Compliance Matrix: (Units=1/GPa)
#
#
# Indices 1 2 3 4 5 6 
#
# 1 0.009609 -0.003271 -0.003108 0.000000 -0.002462 0.000000
# 2 -0.003271 0.009609 -0.003108 0.000000 0.002462 0.000000
# 3 -0.003108 -0.003108 0.017844 0.000000 0.000000 0.000000
# 4 0.000000 0.000000 0.000000 0.038998 0.000000 0.004925
# 5 -0.002462 0.002462 0.000000 0.000000 0.038998 0.000000
# 6 0.000000 0.000000 0.000000 0.004925 0.000000 0.025760
#
#
# Mechanical properties :
#
#
# Convention : Reuss Voigt Hill
#
# Bulk Modulus (GPa) = 55.29172 64.53448 59.91310
# Shear Modulus (GPa) = 30.15325 32.85299 31.50312
#
# Velocity S-wave (km/s) = 3.62554 3.78437 3.70580
# Velocity P-wave (km/s) = 6.45206 6.87222 6.66545
#
# Compressibility (1/GPa) = 0.01808589
#
# Stress axis : x y z
#
# Youngs Moduli (GPa) = 104.07378 104.07378 56.04204
#
# Poissons Ratio (x) = 0.34045 0.17419
# Poissons Ratio (y) = 0.34045 0.17419
# Poissons Ratio (z) = 0.32348 0.32348
#
# Static dielectric constant tensor:
#      x y z
#    x 4.439670 0.000000 0.000000 
#    y 0.000000 4.439670 0.000000 
#    z 0.000000 0.000000 3.766670 
# 
# 
# High freq. dielectric constant tensor:
#      x y z
#    x 1.917030 0.000000 0.000000 
#    y 0.000000 1.917030 0.000000 
#    z 0.000000 0.000000 1.868330 
# 
# From -- ./inp_files/5035.got.cif
#   From: 2010.03.12/outbox.cif.g09.slc.cpg/sg151_3_cif.got.tgz:5035.got - 2010.04.03 13:42:29.
