data_PCOD8321538
_publ_section_title
;
Structure prediction by ZEFSAII (Michael W. Deem and Ramdas Pophale) SiO2 
 PCOD8321538
Probable space group: R 3
;
_chemical_formula_sum "Si O2"
_cell_formula_units_Z 45
_cell_length_a 13.739097
_cell_length_b 13.739097
_cell_length_c 13.092715
_cell_angle_alpha 90.000000
_cell_angle_beta 90.000000
_cell_angle_gamma 120.000000
_cell_volume 2140.310221
_symmetry_space_group_name_H-M "R 3"
_symmetry_group_IT_number 146
_symmetry_cell_setting 'hexagonal'
loop_
_space_group_symop_operation_xyz
x,y,z
-y,x-y,z
-x+y,-x,z
2/3+x,1/3+y,1/3+z
2/3-y,1/3+x-y,1/3+z
2/3-x+y,1/3-x,1/3+z
1/3+x,2/3+y,2/3+z
1/3-y,2/3+x-y,2/3+z
1/3-x+y,2/3-x,2/3+z
loop_
_atom_site_type_symbol
_atom_site_label
_atom_site_fract_x
_atom_site_fract_y
_atom_site_fract_z
Si Si1 0.241638 0.930573 0.026160
Si Si2 0.118375 0.666988 0.733837
Si Si3 0.280027 0.754841 0.903755
Si Si4 0.781350 0.772572 0.815917
Si Si5 0.337640 0.451073 0.491033
O O1 0.127698 0.881791 0.092599
O O2 0.344512 0.997100 0.100785
O O3 0.242913 0.822839 0.976863
O O4 0.244782 0.012963 0.937677
O O5 0.238324 0.758909 0.786455
O O6 0.122416 0.678275 0.612424
O O7 0.018982 0.683155 0.781446
O O8 0.206911 0.617957 0.921521
O O9 0.893716 0.776845 0.775950
O O10 0.788359 0.888933 0.785806
#
# Coordination Sequence:
#
# PCOD8321538 Si02
#       5
#     9   9   9   9   9
#     4  11  24  43  68  98 137 176 228 274 334 397
#     4  11  22  42  62 101 128 175 225 274 335 387
#     4  10  23  38  69  95 127 170 227 271 329 384
#     4  11  24  42  64  97 130 179 222 278 328 404
#     4  11  25  39  67  93 138 174 226 271 342 390
#
# _framework density 21.024989000000001
#
# number of rings (size 3 to 8) (size 9 to 14) (size 15 to 20)
#    0.400    0.800    4.000    2.800    8.400    1.600 
#    0.000    0.000    0.000    0.000    0.000    0.000 
#    0.000    0.000    0.000    0.000    0.000    0.000 
#
# Total GULP energy -185905.874745 kJ/mol
# GULP energy per Si atom -12393.724983 kJ/mol
# Density = 2.097714 g / cm^3
# Si number density = 21.024989 Si / 1000 Ang^3
#
#
#
# Elastic Constant Matrix: (Units=GPa)
#
#
# Indices 1 2 3 4 5 6 
#
# 1 130.6308 49.9996 39.9818 -2.2408 2.1404 0.0000
# 2 49.9996 130.6308 39.9818 2.2408 -2.1404 0.0000
# 3 39.9818 39.9818 58.0662 0.0000 0.0000 0.0000
# 4 -2.2408 2.2408 0.0000 29.2105 0.0000 -2.1404
# 5 2.1404 -2.1404 0.0000 0.0000 29.2105 -2.2408
# 6 0.0000 0.0000 0.0000 -2.1404 -2.2408 40.3156
#
#
#
# Elastic Compliance Matrix: (Units=1/GPa)
#
#
# Indices 1 2 3 4 5 6 
#
# 1 0.010234 -0.002270 -0.005483 0.000959 -0.000916 0.000000
# 2 -0.002270 0.010234 -0.005483 -0.000959 0.000916 0.000000
# 3 -0.005483 -0.005483 0.024773 0.000000 0.000000 0.000000
# 4 0.000959 -0.000959 0.000000 0.034516 0.000000 0.001833
# 5 -0.000916 0.000916 0.000000 0.000000 0.034516 0.001918
# 6 0.000000 0.000000 0.000000 0.001833 0.001918 0.025008
#
#
# Mechanical properties :
#
#
# Convention : Reuss Voigt Hill
#
# Bulk Modulus (GPa) = 53.28609 64.36157 58.82383
# Shear Modulus (GPa) = 29.06812 32.37165 30.71988
#
# Velocity S-wave (km/s) = 3.72230 3.92813 3.82660
# Velocity P-wave (km/s) = 6.62369 7.15905 6.89656
#
# Compressibility (1/GPa) = 0.01876662
#
# Stress axis : x y z
#
# Youngs Moduli (GPa) = 97.71489 97.71489 40.36665
#
# Poissons Ratio (x) = 0.22184 0.22135
# Poissons Ratio (y) = 0.22184 0.22135
# Poissons Ratio (z) = 0.53581 0.53581
#
# Static dielectric constant tensor:
#      x y z
#    x 3.999270 0.000000 0.000000 
#    y 0.000000 3.999270 0.000000 
#    z 0.000000 0.000000 3.503500 
# 
# 
# High freq. dielectric constant tensor:
#      x y z
#    x 1.834900 0.000000 0.000000 
#    y 0.000000 1.834900 0.000000 
#    z 0.000000 0.000000 1.798570 
# 
# From -- ./inp_files/1068.got.cif
#   From: 2010.06.25/outbox.cif.g09.slc.cpg/sg146_cif.got.tgz:1068.got - 2010.06.28 11:17:22.
