data_PCOD8321402
_publ_section_title
;
Structure prediction by ZEFSAII (Michael W. Deem and Ramdas Pophale) SiO2 
 PCOD8321402
Probable space group: P 31
;
_chemical_formula_sum "Si O2"
_cell_formula_units_Z 21
_cell_length_a 11.870295
_cell_length_b 11.870295
_cell_length_c 8.060276
_cell_angle_alpha 90.000000
_cell_angle_beta 90.000000
_cell_angle_gamma 120.000000
_cell_volume 983.566139
_symmetry_space_group_name_H-M "P 31"
_symmetry_group_IT_number 144
_symmetry_cell_setting 'hexagonal'
loop_
_space_group_symop_operation_xyz
x,y,z
-y,x-y,1/3+z
-x+y,-x,2/3+z
loop_
_atom_site_type_symbol
_atom_site_label
_atom_site_fract_x
_atom_site_fract_y
_atom_site_fract_z
Si Si1 0.940386 0.311826 0.364050
Si Si2 0.194014 0.405769 0.802613
Si Si3 0.052657 0.527498 0.617831
Si Si4 0.749936 0.416935 0.677218
Si Si5 0.807713 0.986921 0.924933
Si Si6 0.189385 0.969828 0.738747
Si Si7 0.927313 0.811141 0.904674
O O1 0.811047 0.293564 0.276731
O O2 0.890697 0.203169 0.507839
O O3 0.029609 0.452469 0.444557
O O4 0.035202 0.300362 0.233369
O O5 0.144852 0.502163 0.740853
O O6 0.319798 0.465308 0.919451
O O7 0.224268 0.338146 0.648352
O O8 0.070431 0.300743 0.904608
O O9 0.907922 0.483841 0.689914
O O10 0.684548 0.304982 0.534461
O O11 0.797008 0.026748 0.737405
O O12 0.900980 0.927002 0.943650
O O13 0.878969 0.110326 0.047115
O O14 0.037905 0.865149 0.764493
#
# Coordination Sequence:
#
# PCOD8321402 Si02
#       7
#     3   3   3   3   3   3   3
#     4  11  23  43  64 100 138 178 236 292 347 437
#     4  12  26  44  68  98 140 189 230 295 345 434
#     4  11  25  49  66  97 141 183 247 284 352 431
#     4  10  24  46  75 104 141 189 241 300 355 436
#     4  12  20  36  61 100 134 175 213 284 366 413
#     4  12  21  35  67 100 135 170 226 288 368 415
#     4  12  19  35  61  97 143 168 215 287 353 426
#
# _framework density 21.350878999999999
#
# number of rings (size 3 to 8) (size 9 to 14) (size 15 to 20)
#    0.000    0.571    5.714    2.571    2.000    1.143 
#   10.286    2.857    0.000    0.000    0.000    0.000 
#    0.000    0.000    0.000    0.000    0.000    0.000 
#
# Total GULP energy -260303.306372 kJ/mol
# GULP energy per Si atom -12395.395542 kJ/mol
# Density = 2.130228 g / cm^3
# Si number density = 21.350879 Si / 1000 Ang^3
#
#
#
# Elastic Constant Matrix: (Units=GPa)
#
#
# Indices 1 2 3 4 5 6 
#
# 1 85.4309 25.3233 22.2230 -1.0275 -1.0035 0.0000
# 2 25.3233 85.4309 22.2230 1.0275 1.0035 0.0000
# 3 22.2230 22.2230 87.5588 0.0000 0.0000 0.0000
# 4 -1.0275 1.0275 0.0000 32.6097 0.0000 1.0035
# 5 -1.0035 1.0035 0.0000 0.0000 32.6097 -1.0275
# 6 0.0000 0.0000 0.0000 1.0035 -1.0275 30.0538
#
#
#
# Elastic Compliance Matrix: (Units=1/GPa)
#
#
# Indices 1 2 3 4 5 6 
#
# 1 0.013362 -0.003310 -0.002552 0.000525 0.000513 0.000000
# 2 -0.003310 0.013362 -0.002552 -0.000525 -0.000513 0.000000
# 3 -0.002552 -0.002552 0.012716 0.000000 0.000000 0.000000
# 4 0.000525 -0.000525 0.000000 0.030730 0.000000 -0.001026
# 5 0.000513 -0.000513 0.000000 0.000000 0.030730 0.001051
# 6 0.000000 0.000000 0.000000 -0.001026 0.001051 0.033344
#
#
# Mechanical properties :
#
#
# Convention : Reuss Voigt Hill
#
# Bulk Modulus (GPa) = 44.21664 44.21770 44.21717
# Shear Modulus (GPa) = 31.52399 31.63137 31.57768
#
# Velocity S-wave (km/s) = 3.84666 3.85320 3.84993
# Velocity P-wave (km/s) = 6.36267 6.36798 6.36533
#
# Compressibility (1/GPa) = 0.02261592
#
# Stress axis : x y z
#
# Youngs Moduli (GPa) = 74.83669 74.83669 78.64060
#
# Poissons Ratio (x) = 0.24767 0.20065
# Poissons Ratio (y) = 0.24767 0.20065
# Poissons Ratio (z) = 0.19095 0.19095
#
# Static dielectric constant tensor:
#      x y z
#    x 3.878810 0.000000 0.000000 
#    y 0.000000 3.878810 0.000000 
#    z 0.000000 0.000000 3.877140 
# 
# 
# High freq. dielectric constant tensor:
#      x y z
#    x 1.831930 0.000000 0.000000 
#    y 0.000000 1.831930 0.000000 
#    z 0.000000 0.000000 1.841370 
# 
# From -- ./inp_files/340.got.cif
#   From: 2010.03.12/outbox.cif.g09.slc.cpg/sg144_cif.got.tgz:340.got - 2010.04.03 13:34:42.
