data_PCOD8321208
_publ_section_title
;
Structure prediction by ZEFSAII (Michael W. Deem and Ramdas Pophale) SiO2 
 PCOD8321208
Probable space group: I 41/A C D
;
_chemical_formula_sum "Si O2"
_cell_formula_units_Z 96
_cell_length_a 23.674059
_cell_length_b 23.674059
_cell_length_c 7.710636
_cell_angle_alpha 90.000000
_cell_angle_beta 90.000000
_cell_angle_gamma 90.000000
_cell_volume 4321.511299
_symmetry_space_group_name_H-M "I 41/A C D"
_symmetry_group_IT_number 142
_space_group.IT_coordinate_system_code '2'
_symmetry_cell_setting 'tetragonal'
loop_
_space_group_symop_operation_xyz
x,y,z
1/4-y,3/4+x,1/4+z
-x,1/2-y,z
1/4+y,1/4-x,3/4+z
x,-y,1/2-z
1/2-x,y,-z
3/4+y,1/4+x,1/4-z
1/4-y,1/4-x,1/4-z
-x,-y,-z
3/4+y,1/4-x,3/4-z
x,1/2+y,-z
3/4-y,3/4+x,1/4-z
-x,y,1/2+z
1/2+x,-y,z
1/4-y,3/4-x,3/4+z
3/4+y,3/4+x,3/4+z
1/2+x,1/2+y,1/2+z
3/4-y,1/4+x,3/4+z
1/2-x,-y,1/2+z
3/4+y,3/4-x,1/4+z
1/2+x,1/2-y,-z
-x,1/2+y,1/2-z
1/4+y,3/4+x,3/4-z
3/4-y,3/4-x,3/4-z
1/2-x,1/2-y,1/2-z
1/4+y,3/4-x,1/4-z
1/2+x,y,1/2-z
1/4-y,1/4+x,3/4-z
1/2-x,1/2+y,z
x,1/2-y,1/2+z
3/4-y,1/4-x,1/4+z
1/4+y,1/4+x,1/4+z
loop_
_atom_site_type_symbol
_atom_site_label
_atom_site_fract_x
_atom_site_fract_y
_atom_site_fract_z
Si Si1 0.302274 0.947727 0.125000
Si Si2 0.928072 0.799793 0.073265
Si Si3 0.813390 0.176247 0.238240
Si Si4 0.750000 0.248723 0.000000
O O1 0.297985 0.889258 0.229028
O O2 0.298063 0.000000 0.250000
O O3 0.927819 0.731941 0.069893
O O4 0.875564 0.821822 0.182862
O O5 0.927458 0.822543 0.875000
O O6 0.804029 0.208830 0.053320
O O7 0.767396 0.208282 0.351313
#
# Coordination Sequence:
#
# PCOD8321208 Si02
#       4
#    16  32  32  16
#     4  12  30  50  74 101 140 186 242 293 354 424
#     4  11  24  39  66 105 147 189 233 289 360 430
#     4  11  25  46  72 102 140 186 235 298 350 427
#     4  10  24  46  72 104 136 188 240 290 358 426
#
# _framework density 22.214449999999999
#
# number of rings (size 3 to 8) (size 9 to 14) (size 15 to 20)
#    0.000    1.000    1.667    4.000   11.667    2.667 
#    0.000    0.000    0.000    0.000    0.000    0.000 
#    0.000    0.000    0.000    0.000    0.000    0.000 
#
# Total GULP energy -595064.794558 kJ/mol
# GULP energy per Si atom -12397.183220 kJ/mol
# Density = 2.216389 g / cm^3
# Si number density = 22.214450 Si / 1000 Ang^3
#
#
#
# Elastic Constant Matrix: (Units=GPa)
#
#
# Indices 1 2 3 4 5 6 
#
# 1 177.8809 84.4349 72.8978 0.0000 0.0000 0.0000
# 2 84.4349 177.8763 72.8992 0.0000 0.0000 0.0000
# 3 72.8978 72.8992 115.0157 0.0000 0.0000 0.0000
# 4 0.0000 0.0000 0.0000 40.9007 0.0000 0.0000
# 5 0.0000 0.0000 0.0000 0.0000 40.8985 0.0000
# 6 0.0000 0.0000 0.0000 0.0000 0.0000 31.3417
#
#
#
# Elastic Compliance Matrix: (Units=1/GPa)
#
#
# Indices 1 2 3 4 5 6 
#
# 1 0.008293 -0.002408 -0.003730 0.000000 0.000000 0.000000
# 2 -0.002408 0.008294 -0.003731 0.000000 0.000000 0.000000
# 3 -0.003730 -0.003731 0.013423 0.000000 0.000000 0.000000
# 4 0.000000 0.000000 0.000000 0.024449 0.000000 0.000000
# 5 0.000000 0.000000 0.000000 0.000000 0.024451 0.000000
# 6 0.000000 0.000000 0.000000 0.000000 0.000000 0.031906
#
#
# Mechanical properties :
#
#
# Convention : Reuss Voigt Hill
#
# Bulk Modulus (GPa) = 97.34348 103.47075 100.40712
# Shear Modulus (GPa) = 37.31930 38.66425 37.99177
#
# Velocity S-wave (km/s) = 4.10317 4.17646 4.13998
# Velocity P-wave (km/s) = 8.14635 8.36279 8.25528
#
# Compressibility (1/GPa) = 0.01027290
#
# Stress axis : x y z
#
# Youngs Moduli (GPa) = 120.57746 120.57153 74.49787
#
# Poissons Ratio (x) = 0.29034 0.27789
# Poissons Ratio (y) = 0.29035 0.27792
# Poissons Ratio (z) = 0.44978 0.44980
#
# Static dielectric constant tensor:
#      x y z
#    x 4.107060 0.000000 0.000000 
#    y 0.000000 4.107100 0.000000 
#    z 0.000000 0.000000 4.397230 
# 
# 
# High freq. dielectric constant tensor:
#      x y z
#    x 1.882350 0.000000 0.000000 
#    y 0.000000 1.882350 0.000000 
#    z 0.000000 0.000000 1.880960 
# 
# From -- ./inp_files/1688.got.cif
#   From: 2010.03.12/outbox.cif.g09.slc.cpg/sg142_1_cif.got.tgz:1688.got - 2010.04.03 13:27:16.
