data_PCOD8321816
_publ_section_title
;
Structure prediction by ZEFSAII (Michael W. Deem and Ramdas Pophale) SiO2 
 PCOD8321816
Probable space group: R -3
;
_chemical_formula_sum "Si O2"
_cell_formula_units_Z 84
_cell_length_a 17.708372
_cell_length_b 17.708372
_cell_length_c 14.155466
_cell_angle_alpha 90.000000
_cell_angle_beta 90.000000
_cell_angle_gamma 120.000000
_cell_volume 3844.254009
_symmetry_space_group_name_H-M "R -3"
_symmetry_group_IT_number 148
_symmetry_cell_setting 'hexagonal'
loop_
_space_group_symop_operation_xyz
x,y,z
-y,x-y,z
-x+y,-x,z
-x,-y,-z
y,-x+y,-z
x-y,x,-z
2/3+x,1/3+y,1/3+z
2/3-y,1/3+x-y,1/3+z
2/3-x+y,1/3-x,1/3+z
2/3-x,1/3-y,1/3-z
2/3+y,1/3-x+y,1/3-z
2/3+x-y,1/3+x,1/3-z
1/3+x,2/3+y,2/3+z
1/3-y,2/3+x-y,2/3+z
1/3-x+y,2/3-x,2/3+z
1/3-x,2/3-y,2/3-z
1/3+y,2/3-x+y,2/3-z
1/3+x-y,2/3+x,2/3-z
loop_
_atom_site_type_symbol
_atom_site_label
_atom_site_fract_x
_atom_site_fract_y
_atom_site_fract_z
Si Si1 0.333334 0.666668 0.278186
Si Si2 0.811660 0.935337 0.696826
Si Si3 0.666668 0.333335 0.442556
Si Si4 0.589879 0.609664 0.686197
Si Si5 0.805401 0.883290 0.158763
Si Si6 0.684866 0.593641 0.138526
O O1 0.333335 0.666668 0.166667
O O2 0.233293 0.617775 0.313277
O O3 0.735673 0.920822 0.622271
O O4 0.773842 0.854586 0.767731
O O5 0.825440 0.019372 0.755305
O O6 0.666668 0.333335 0.333334
O O7 0.569704 0.297052 0.479850
O O8 0.505834 0.609595 0.729587
O O9 0.587459 0.615757 0.573289
O O10 0.675672 0.689994 0.728896
O O11 0.742211 0.920868 0.184338
#
# Coordination Sequence:
#
# PCOD8321816 Si02
#       6
#     6  18   6  18  18  18
#     4  12  28  53  82 106 143 205 258 310 359 446
#     4  12  25  51  74 105 150 190 254 308 361 449
#     4  12  22  38  73 105 130 179 238 292 359 439
#     4  12  28  46  72 114 154 198 237 319 383 444
#     4  12  24  45  74 104 148 191 243 302 369 434
#     4  12  26  47  75 109 153 195 251 305 380 448
#
# _framework density 21.850792999999999
#
# number of rings (size 3 to 8) (size 9 to 14) (size 15 to 20)
#    0.000    0.000    6.429    3.214    3.000    4.286 
#    0.000    0.000    0.000    0.000    0.000    0.000 
#    0.000    0.000    0.000    0.000    0.000    0.000 
#
# Total GULP energy -347241.421679 kJ/mol
# GULP energy per Si atom -12401.479346 kJ/mol
# Density = 2.180106 g / cm^3
# Si number density = 21.850793 Si / 1000 Ang^3
#
#
#
# Elastic Constant Matrix: (Units=GPa)
#
#
# Indices 1 2 3 4 5 6 
#
# 1 132.6071 57.7887 49.5837 3.5765 -3.1376 -0.0001
# 2 57.7887 132.6080 49.5848 -3.5759 3.1376 0.0000
# 3 49.5837 49.5848 114.7688 0.0004 0.0001 0.0002
# 4 3.5765 -3.5759 0.0004 32.3575 -0.0002 3.1375
# 5 -3.1376 3.1376 0.0001 -0.0002 32.3573 3.5765
# 6 -0.0001 0.0000 0.0002 3.1375 3.5765 37.4094
#
#
#
# Elastic Compliance Matrix: (Units=1/GPa)
#
#
# Indices 1 2 3 4 5 6 
#
# 1 0.010199 -0.003422 -0.002928 -0.001505 0.001321 0.000000
# 2 -0.003422 0.010199 -0.002928 0.001505 -0.001321 0.000000
# 3 -0.002928 -0.002928 0.011243 0.000000 0.000000 0.000000
# 4 -0.001505 0.001505 0.000000 0.031494 0.000000 -0.002641
# 5 0.001321 -0.001321 0.000000 0.000000 0.031494 -0.003011
# 6 0.000000 0.000000 0.000000 -0.002641 -0.003011 0.027241
#
#
# Mechanical properties :
#
#
# Convention : Reuss Voigt Hill
#
# Bulk Modulus (GPa) = 76.41965 77.09981 76.75973
# Shear Modulus (GPa) = 34.53377 35.29329 34.91353
#
# Velocity S-wave (km/s) = 3.97978 4.02331 4.00160
# Velocity P-wave (km/s) = 7.49450 7.54612 7.52036
#
# Compressibility (1/GPa) = 0.01308564
#
# Stress axis : x y z
#
# Youngs Moduli (GPa) = 98.05093 98.05096 88.94274
#
# Poissons Ratio (x) = 0.33548 0.26042
# Poissons Ratio (y) = 0.33548 0.26043
# Poissons Ratio (z) = 0.28709 0.28710
#
# Static dielectric constant tensor:
#      x y z
#    x 4.184370 0.000000 -0.000010 
#    y 0.000000 4.184330 -0.000010 
#    z -0.000010 -0.000010 3.848750 
# 
# 
# High freq. dielectric constant tensor:
#      x y z
#    x 1.873750 0.000000 0.000000 
#    y 0.000000 1.873750 0.000000 
#    z 0.000000 0.000000 1.849200 
# 
# From -- ./inp_files/1976.got.cif
#   From: 2010.03.12/outbox.cif.g09.slc.cpg/sg148_1_cif.got.tgz:1976.got - 2010.04.03 13:38:46.
