data_PCOD8321875
_publ_section_title
;
Structure prediction by ZEFSAII (Michael W. Deem and Ramdas Pophale) SiO2 
 PCOD8321875
Probable space group: P 3 2 1
;
_chemical_formula_sum "Si O2"
_cell_formula_units_Z 26
_cell_length_a 12.451934
_cell_length_b 12.451934
_cell_length_c 10.799701
_cell_angle_alpha 90.000000
_cell_angle_beta 90.000000
_cell_angle_gamma 120.000000
_cell_volume 1450.160207
_symmetry_space_group_name_H-M "P 3 2 1"
_symmetry_group_IT_number 150
_symmetry_cell_setting 'hexagonal'
loop_
_space_group_symop_operation_xyz
x,y,z
-y,x-y,z
-x+y,-x,z
x-y,-y,-z
-x,-x+y,-z
y,x,-z
loop_
_atom_site_type_symbol
_atom_site_label
_atom_site_fract_x
_atom_site_fract_y
_atom_site_fract_z
Si Si1 0.257459 0.001557 0.866985
Si Si2 0.583857 0.916213 0.618901
Si Si3 0.080440 0.416235 0.622349
Si Si4 0.000000 0.000000 0.358408
Si Si5 0.796592 0.002195 0.793975
O O1 0.324530 0.985800 0.746718
O O2 0.114158 0.891731 0.875761
O O3 0.267016 0.135978 0.867394
O O4 0.319845 0.000000 0.000000
O O5 0.572545 0.784112 0.597637
O O6 0.449755 0.897632 0.645065
O O7 0.646081 0.000000 0.500000
O O8 0.667195 0.981405 0.739771
O O9 0.000000 0.352945 0.500000
O O10 0.114377 0.130541 0.319347
O O11 0.000000 0.000000 0.500000
#
# Coordination Sequence:
#
# PCOD8321875 Si02
#       5
#     6   6   6   2   6
#     4  10  19  33  51  76 104 130 161 203 248 296
#     4  10  19  33  52  74 100 131 166 206 248 292
#     4  10  21  35  53  75 100 131 168 207 246 291
#     4   9  15  24  43  77 109 126 151 200 247 291
#     4   9  18  29  49  74 100 132 163 196 247 298
#
# _framework density 17.929053
#
# number of rings (size 3 to 8) (size 9 to 14) (size 15 to 20)
#    0.000    2.308    0.000    3.692    0.000    6.462 
#    0.000    4.615    0.000    1.385    0.000    0.000 
#    0.000    0.000    0.000    0.000    0.000    0.000 
#
# Total GULP energy -322242.054060 kJ/mol
# GULP energy per Si atom -12393.925156 kJ/mol
# Density = 1.788825 g / cm^3
# Si number density = 17.929053 Si / 1000 Ang^3
#
#
#
# Elastic Constant Matrix: (Units=GPa)
#
#
# Indices 1 2 3 4 5 6 
#
# 1 97.2192 46.4825 43.6971 -1.6242 0.0000 0.0000
# 2 46.4825 97.2192 43.6971 1.6242 0.0000 0.0000
# 3 43.6971 43.6971 128.1969 0.0000 0.0000 0.0000
# 4 -1.6242 1.6242 0.0000 7.9659 0.0000 0.0000
# 5 0.0000 0.0000 0.0000 0.0000 7.9659 -1.6242
# 6 0.0000 0.0000 0.0000 0.0000 -1.6242 25.3683
#
#
#
# Elastic Compliance Matrix: (Units=1/GPa)
#
#
# Indices 1 2 3 4 5 6 
#
# 1 0.014374 -0.005596 -0.002992 0.004072 0.000000 0.000000
# 2 -0.005596 0.014374 -0.002992 -0.004072 0.000000 0.000000
# 3 -0.002992 -0.002992 0.009840 0.000000 0.000000 0.000000
# 4 0.004072 -0.004072 0.000000 0.127195 0.000000 0.000000
# 5 0.000000 0.000000 0.000000 0.000000 0.127195 0.008144
# 6 0.000000 0.000000 0.000000 0.000000 0.008144 0.039941
#
#
# Mechanical properties :
#
#
# Convention : Reuss Voigt Hill
#
# Bulk Modulus (GPa) = 64.81483 65.59876 65.20679
# Shear Modulus (GPa) = 13.84184 20.84394 17.34289
#
# Velocity S-wave (km/s) = 2.78156 3.41336 3.11353
# Velocity P-wave (km/s) = 6.82241 7.22510 7.02664
#
# Compressibility (1/GPa) = 0.01542857
#
# Stress axis : x y z
#
# Youngs Moduli (GPa) = 69.56771 69.56771 101.62183
#
# Poissons Ratio (x) = 0.38929 0.30408
# Poissons Ratio (y) = 0.38929 0.30408
# Poissons Ratio (z) = 0.20817 0.20817
#
# Static dielectric constant tensor:
#      x y z
#    x 3.291680 0.000000 0.000000 
#    y 0.000000 3.291680 0.000000 
#    z 0.000000 0.000000 3.257800 
# 
# 
# High freq. dielectric constant tensor:
#      x y z
#    x 1.685290 0.000000 0.000000 
#    y 0.000000 1.685290 0.000000 
#    z 0.000000 0.000000 1.697060 
# 
# From -- ./inp_files/897.got.cif
#   From: 2010.03.12/outbox.cif.g09.slc.cpg/sg150_cif.got.tgz:897.got - 2010.04.03 13:41:37.
