data_PCOD8321400
_publ_section_title
;
Structure prediction by ZEFSAII (Michael W. Deem and Ramdas Pophale) SiO2 
 PCOD8321400
Probable space group: P 31
;
_chemical_formula_sum "Si O2"
_cell_formula_units_Z 15
_cell_length_a 11.589129
_cell_length_b 11.589129
_cell_length_c 5.845786
_cell_angle_alpha 90.000000
_cell_angle_beta 90.000000
_cell_angle_gamma 120.000000
_cell_volume 679.947120
_symmetry_space_group_name_H-M "P 31"
_symmetry_group_IT_number 144
_symmetry_cell_setting 'hexagonal'
loop_
_space_group_symop_operation_xyz
x,y,z
-y,x-y,1/3+z
-x+y,-x,2/3+z
loop_
_atom_site_type_symbol
_atom_site_label
_atom_site_fract_x
_atom_site_fract_y
_atom_site_fract_z
Si Si1 0.890756 0.020843 0.551710
Si Si2 0.666667 0.971620 0.238642
Si Si3 0.354176 0.557423 0.592241
Si Si4 0.512291 0.469220 0.283063
Si Si5 0.376404 0.197446 0.527555
O O1 0.885251 0.133351 0.701872
O O2 0.013903 0.095913 0.381216
O O3 0.753021 0.935471 0.410367
O O4 0.580312 0.849117 0.066917
O O5 0.562671 0.998973 0.375455
O O6 0.770662 0.102968 0.101830
O O7 0.251323 0.570754 0.429403
O O8 0.466685 0.551918 0.442079
O O9 0.483792 0.333333 0.405309
O O10 0.666667 0.559547 0.238642
#
# Coordination Sequence:
#
# PCOD8321400 Si02
#       5
#     3   3   3   3   3
#     4  11  24  49  69 104 140 186 233 293 351 420
#     4  10  24  48  68 104 140 180 234 286 356 418
#     4  11  24  49  69 104 140 186 233 293 351 420
#     4  10  24  45  73 106 139 180 230 289 350 422
#     4  10  24  45  73 106 139 180 230 289 350 422
#
# _framework density 22.060538999999999
#
# number of rings (size 3 to 8) (size 9 to 14) (size 15 to 20)
#    0.000    1.600    0.000    2.400    2.800    4.800 
#   68.400    0.000    0.000    0.000    0.000    0.000 
#    0.000    0.000    0.000    0.000    0.000    0.000 
#
# Total GULP energy -186082.821282 kJ/mol
# GULP energy per Si atom -12405.521419 kJ/mol
# Density = 2.201033 g / cm^3
# Si number density = 22.060539 Si / 1000 Ang^3
#
#
#
# Elastic Constant Matrix: (Units=GPa)
#
#
# Indices 1 2 3 4 5 6 
#
# 1 134.6840 94.1502 81.0121 -5.9703 0.0000 0.0000
# 2 94.1502 134.6840 81.0121 5.9703 0.0000 0.0000
# 3 81.0121 81.0121 161.2875 0.0000 0.0000 0.0000
# 4 -5.9703 5.9703 0.0000 27.1860 0.0000 0.0000
# 5 0.0000 0.0000 0.0000 0.0000 27.1860 -5.9703
# 6 0.0000 0.0000 0.0000 0.0000 -5.9703 20.2669
#
#
#
# Elastic Compliance Matrix: (Units=1/GPa)
#
#
# Indices 1 2 3 4 5 6 
#
# 1 0.016580 -0.009798 -0.003406 0.005793 0.000000 0.000000
# 2 -0.009798 0.016580 -0.003406 -0.005793 0.000000 0.000000
# 3 -0.003406 -0.003406 0.009622 0.000000 0.000000 0.000000
# 4 0.005793 -0.005793 0.000000 0.039328 0.000000 0.000000
# 5 0.000000 0.000000 0.000000 0.000000 0.039328 0.011585
# 6 0.000000 0.000000 0.000000 0.000000 0.011585 0.052754
#
#
# Mechanical properties :
#
#
# Convention : Reuss Voigt Hill
#
# Bulk Modulus (GPa) = 104.60104 104.77826 104.68965
# Shear Modulus (GPa) = 23.74178 26.55984 25.15081
#
# Velocity S-wave (km/s) = 3.28412 3.47357 3.38017
# Velocity P-wave (km/s) = 7.86759 7.98038 7.92419
#
# Compressibility (1/GPa) = 0.00956013
#
# Stress axis : x y z
#
# Youngs Moduli (GPa) = 60.31534 60.31534 103.92756
#
# Poissons Ratio (x) = 0.59095 0.35402
# Poissons Ratio (y) = 0.59095 0.35402
# Poissons Ratio (z) = 0.20546 0.20546
#
# Static dielectric constant tensor:
#      x y z
#    x 3.908510 0.000000 0.000000 
#    y 0.000000 3.908510 0.000000 
#    z 0.000000 0.000000 4.501270 
# 
# 
# High freq. dielectric constant tensor:
#      x y z
#    x 1.866940 0.000000 0.000000 
#    y 0.000000 1.866940 0.000000 
#    z 0.000000 0.000000 1.894910 
# 
# From -- ./inp_files/51.got.cif
#   From: 2010.03.12/outbox.cif.g09.slc.cpg/sg144_cif.got.tgz:51.got - 2010.04.03 13:34:42.
