data_PCOD8321673
_publ_section_title
;
Structure prediction by ZEFSAII (Michael W. Deem and Ramdas Pophale) SiO2 
 PCOD8321673
Probable space group: R -3
;
_chemical_formula_sum "Si O2"
_cell_formula_units_Z 126
_cell_length_a 19.448922
_cell_length_b 19.448922
_cell_length_c 21.808425
_cell_angle_alpha 90.000000
_cell_angle_beta 90.000000
_cell_angle_gamma 120.000000
_cell_volume 7144.074962
_symmetry_space_group_name_H-M "R -3"
_symmetry_group_IT_number 148
_symmetry_cell_setting 'hexagonal'
loop_
_space_group_symop_operation_xyz
x,y,z
-y,x-y,z
-x+y,-x,z
-x,-y,-z
y,-x+y,-z
x-y,x,-z
2/3+x,1/3+y,1/3+z
2/3-y,1/3+x-y,1/3+z
2/3-x+y,1/3-x,1/3+z
2/3-x,1/3-y,1/3-z
2/3+y,1/3-x+y,1/3-z
2/3+x-y,1/3+x,1/3-z
1/3+x,2/3+y,2/3+z
1/3-y,2/3+x-y,2/3+z
1/3-x+y,2/3-x,2/3+z
1/3-x,2/3-y,2/3-z
1/3+y,2/3-x+y,2/3-z
1/3+x-y,2/3+x,2/3-z
loop_
_atom_site_type_symbol
_atom_site_label
_atom_site_fract_x
_atom_site_fract_y
_atom_site_fract_z
Si Si1 0.924979 0.188558 0.881298
Si Si2 0.383952 0.030000 0.847877
Si Si3 0.686659 0.765059 0.058921
Si Si4 0.980398 0.844644 0.525641
Si Si5 0.526350 0.041622 0.087446
Si Si6 0.517245 0.340421 0.349592
Si Si7 0.858625 0.287709 0.692438
O O1 0.978962 0.284511 0.880139
O O2 0.844413 0.159811 0.920924
O O3 0.903752 0.151792 0.812734
O O4 0.977966 0.156967 0.914435
O O5 0.429875 0.120957 0.826469
O O6 0.363153 0.974132 0.787878
O O7 0.439263 0.015956 0.894404
O O8 0.606040 0.706739 0.021974
O O9 0.762924 0.787106 0.017707
O O10 0.919764 0.853984 0.483106
O O11 0.959930 0.833756 0.598208
O O12 0.442924 0.990531 0.052873
O O13 0.591837 0.106720 0.041101
O O14 0.604136 0.416643 0.354328
#
# Coordination Sequence:
#
# PCOD8321673 Si02
#       7
#    18  18  18  18  18  18  18
#     4  10  18  32  53  75 106 136 173 214 265 309
#     4  10  16  31  50  75 108 135 163 211 262 308
#     4   9  18  31  51  79 104 132 171 218 257 309
#     4  11  19  31  47  71 101 141 182 215 244 288
#     4  10  18  28  49  75 100 141 167 207 260 315
#     4  10  21  37  57  79  99 130 173 221 263 317
#     4  10  18  30  48  73 105 132 175 211 253 310
#
# _framework density 17.636993
#
# number of rings (size 3 to 8) (size 9 to 14) (size 15 to 20)
#    0.000    2.000    4.286    2.857    0.000    0.000 
#    0.000    0.714    0.000    6.857    0.000    0.000 
#    0.000    0.000    0.000    0.000    0.000    0.000 
#
# Total GULP energy -520614.542275 kJ/mol
# GULP energy per Si atom -12395.584340 kJ/mol
# Density = 1.759685 g / cm^3
# Si number density = 17.636993 Si / 1000 Ang^3
#
#
#
# Elastic Constant Matrix: (Units=GPa)
#
#
# Indices 1 2 3 4 5 6 
#
# 1 65.0434 22.0245 32.9879 -0.9951 3.9649 0.0000
# 2 22.0245 65.0434 32.9879 0.9951 -3.9649 0.0000
# 3 32.9879 32.9879 91.1690 0.0000 0.0000 0.0000
# 4 -0.9951 0.9951 0.0000 24.3556 0.0000 -3.9649
# 5 3.9649 -3.9649 0.0000 0.0000 24.3556 -0.9951
# 6 0.0000 0.0000 0.0000 -3.9649 -0.9951 21.5095
#
#
#
# Elastic Compliance Matrix: (Units=1/GPa)
#
#
# Indices 1 2 3 4 5 6 
#
# 1 0.019918 -0.004094 -0.005726 0.000981 -0.003909 0.000000
# 2 -0.004094 0.019918 -0.005726 -0.000981 0.003909 0.000000
# 3 -0.005726 -0.005726 0.015112 0.000000 0.000000 0.000000
# 4 0.000981 -0.000981 0.000000 0.042411 0.000000 0.007818
# 5 -0.003909 0.003909 0.000000 0.000000 0.042411 0.001962
# 6 0.000000 0.000000 0.000000 0.007818 0.001962 0.048023
#
#
# Mechanical properties :
#
#
# Convention : Reuss Voigt Hill
#
# Bulk Modulus (GPa) = 41.91569 44.13961 43.02765
# Shear Modulus (GPa) = 22.04243 22.92784 22.48513
#
# Velocity S-wave (km/s) = 3.53906 3.60944 3.57443
# Velocity P-wave (km/s) = 6.36532 6.51551 6.44085
#
# Compressibility (1/GPa) = 0.02385741
#
# Stress axis : x y z
#
# Youngs Moduli (GPa) = 50.20664 50.20664 66.17242
#
# Poissons Ratio (x) = 0.20554 0.37888
# Poissons Ratio (y) = 0.20554 0.37888
# Poissons Ratio (z) = 0.28746 0.28746
#
# Static dielectric constant tensor:
#      x y z
#    x 3.195370 0.000000 0.000000 
#    y 0.000000 3.195370 0.000000 
#    z 0.000000 0.000000 3.493840 
# 
# 
# High freq. dielectric constant tensor:
#      x y z
#    x 1.664830 0.000000 0.000000 
#    y 0.000000 1.664830 0.000000 
#    z 0.000000 0.000000 1.681550 
# 
# From -- ./inp_files/3464.got.cif
#   From: 2010.03.12/outbox.cif.g09.slc.cpg/sg148_2_cif.got.tgz:3464.got - 2010.04.03 13:38:46.
