data_PCOD8321505
_publ_section_title
;
Structure prediction by ZEFSAII (Michael W. Deem and Ramdas Pophale) SiO2 
 PCOD8321505
Probable space group: R 3
;
_chemical_formula_sum "Si O2"
_cell_formula_units_Z 60
_cell_length_a 20.760685
_cell_length_b 20.760685
_cell_length_c 9.104600
_cell_angle_alpha 90.000000
_cell_angle_beta 90.000000
_cell_angle_gamma 120.000000
_cell_volume 3398.402856
_symmetry_space_group_name_H-M "R 3"
_symmetry_group_IT_number 146
_symmetry_cell_setting 'hexagonal'
loop_
_space_group_symop_operation_xyz
x,y,z
-y,x-y,z
-x+y,-x,z
2/3+x,1/3+y,1/3+z
2/3-y,1/3+x-y,1/3+z
2/3-x+y,1/3-x,1/3+z
1/3+x,2/3+y,2/3+z
1/3-y,2/3+x-y,2/3+z
1/3-x+y,2/3-x,2/3+z
loop_
_atom_site_type_symbol
_atom_site_label
_atom_site_fract_x
_atom_site_fract_y
_atom_site_fract_z
Si Si1 0.600636 0.893848 0.308150
Si Si2 0.784646 0.289801 0.218864
Si Si3 0.462918 0.809617 0.796593
Si Si4 0.666668 0.333334 0.176810
Si Si5 0.881263 0.112202 0.906581
Si Si6 0.847503 0.630056 0.089342
Si Si7 0.666668 0.333334 0.524258
Si Si8 0.603291 0.906913 0.984606
O O1 0.582040 0.825900 0.416221
O O2 0.538912 0.918160 0.317538
O O3 0.676643 0.966789 0.354980
O O4 0.599821 0.867644 0.140316
O O5 0.758950 0.259181 0.385946
O O6 0.724085 0.304736 0.130396
O O7 0.864052 0.364707 0.220683
O O8 0.805046 0.234511 0.137829
O O9 0.501872 0.795120 0.658083
O O10 0.412737 0.737797 0.902040
O O11 0.524822 0.870740 0.900777
O O12 0.666668 0.333334 0.350057
O O13 0.850960 0.156308 0.001431
O O14 0.903972 0.664607 0.226436
#
# Coordination Sequence:
#
# PCOD8321505 Si02
#       8
#     9   9   9   3   9   9   3   9
#     4  12  20  35  55  89 120 141 185 245 301 336
#     4  11  18  35  60  86 110 146 205 234 279 347
#     4  10  18  33  59  86 105 148 197 235 283 344
#     4   9  15  27  57  91  99 141 186 247 270 324
#     4  11  21  35  61  85 113 156 193 234 288 354
#     4  11  21  35  59  84 110 158 190 235 290 352
#     4   9  15  33  57  81 106 141 192 234 277 333
#     4  11  22  33  56  88 117 145 188 244 302 336
#
# _framework density 17.655353000000002
#
# number of rings (size 3 to 8) (size 9 to 14) (size 15 to 20)
#    0.000    1.200    9.000    0.900    0.000    0.000 
#    0.000    1.500    6.600    0.000    0.000    0.000 
#    0.000    0.000    0.000    0.000    0.000    0.000 
#
# Total GULP energy -247896.085900 kJ/mol
# GULP energy per Si atom -12394.804295 kJ/mol
# Density = 1.761517 g / cm^3
# Si number density = 17.655353 Si / 1000 Ang^3
#
#
#
# Elastic Constant Matrix: (Units=GPa)
#
#
# Indices 1 2 3 4 5 6 
#
# 1 107.3699 48.3844 32.4765 4.4049 3.3332 0.0000
# 2 48.3844 107.3699 32.4785 -4.4054 -3.3343 -0.0001
# 3 32.4765 32.4785 80.3602 -0.0021 -0.0094 -0.0001
# 4 4.4049 -4.4054 -0.0021 21.0463 -0.0017 -3.3346
# 5 3.3332 -3.3343 -0.0094 -0.0017 21.0418 4.4044
# 6 0.0000 -0.0001 -0.0001 -3.3346 4.4044 29.4928
#
#
#
# Elastic Compliance Matrix: (Units=1/GPa)
#
#
# Indices 1 2 3 4 5 6 
#
# 1 0.012776 -0.005054 -0.003121 -0.003732 -0.002826 0.000000
# 2 -0.005054 0.012776 -0.003121 0.003732 0.002824 0.000000
# 3 -0.003121 -0.003121 0.014967 0.000001 0.000007 -0.000001
# 4 -0.003732 0.003732 0.000001 0.049972 0.000004 0.005649
# 5 -0.002826 0.002824 0.000007 0.000004 0.049982 -0.007464
# 6 0.000000 0.000000 -0.000001 0.005649 -0.007464 0.035660
#
#
# Mechanical properties :
#
#
# Convention : Reuss Voigt Hill
#
# Bulk Modulus (GPa) = 55.78155 57.97541 56.87848
# Shear Modulus (GPa) = 24.42606 26.43354 25.42980
#
# Velocity S-wave (km/s) = 3.72357 3.87356 3.79931
# Velocity P-wave (km/s) = 7.08166 7.27424 7.17860
#
# Compressibility (1/GPa) = 0.01792707
#
# Stress axis : x y z
#
# Youngs Moduli (GPa) = 78.27147 78.27219 66.81588
#
# Poissons Ratio (x) = 0.39560 0.20853
# Poissons Ratio (y) = 0.39560 0.20850
# Poissons Ratio (z) = 0.24429 0.24425
#
# Static dielectric constant tensor:
#      x y z
#    x 3.463310 0.000000 0.000000 
#    y 0.000000 3.463300 0.000000 
#    z 0.000000 0.000000 3.096920 
# 
# 
# High freq. dielectric constant tensor:
#      x y z
#    x 1.676820 0.000000 0.000000 
#    y 0.000000 1.676820 0.000000 
#    z 0.000000 0.000000 1.659430 
# 
# From -- ./inp_files/853.got.cif
#   From: 2010.06.25/outbox.cif.g09.slc.cpg/sg146_cif.got.tgz:853.got - 2010.06.28 11:17:22.
