data_PCOD8321071
_publ_section_title
;
Structure prediction by ZEFSAII (Michael W. Deem and Ramdas Pophale) SiO2 
 PCOD8321071
Probable space group: I 41/A C D
;
_chemical_formula_sum "Si O2"
_cell_formula_units_Z 168
_cell_length_a 20.448031
_cell_length_b 20.448031
_cell_length_c 19.034481
_cell_angle_alpha 90.000000
_cell_angle_beta 90.000000
_cell_angle_gamma 90.000000
_cell_volume 7958.734727
_symmetry_space_group_name_H-M "I 41/A C D"
_symmetry_group_IT_number 142
_space_group.IT_coordinate_system_code '2'
_symmetry_cell_setting 'tetragonal'
loop_
_space_group_symop_operation_xyz
x,y,z
1/4-y,3/4+x,1/4+z
-x,1/2-y,z
1/4+y,1/4-x,3/4+z
x,-y,1/2-z
1/2-x,y,-z
3/4+y,1/4+x,1/4-z
1/4-y,1/4-x,1/4-z
-x,-y,-z
3/4+y,1/4-x,3/4-z
x,1/2+y,-z
3/4-y,3/4+x,1/4-z
-x,y,1/2+z
1/2+x,-y,z
1/4-y,3/4-x,3/4+z
3/4+y,3/4+x,3/4+z
1/2+x,1/2+y,1/2+z
3/4-y,1/4+x,3/4+z
1/2-x,-y,1/2+z
3/4+y,3/4-x,1/4+z
1/2+x,1/2-y,-z
-x,1/2+y,1/2-z
1/4+y,3/4+x,3/4-z
3/4-y,3/4-x,3/4-z
1/2-x,1/2-y,1/2-z
1/4+y,3/4-x,1/4-z
1/2+x,y,1/2-z
1/4-y,1/4+x,3/4-z
1/2-x,1/2+y,z
x,1/2-y,1/2+z
3/4-y,1/4-x,1/4+z
1/4+y,1/4+x,1/4+z
loop_
_atom_site_type_symbol
_atom_site_label
_atom_site_fract_x
_atom_site_fract_y
_atom_site_fract_z
Si Si1 0.815264 0.158577 0.967911
Si Si2 0.000000 0.250000 0.125000
Si Si3 0.760525 0.299256 0.329252
Si Si4 0.801159 0.663159 0.700599
Si Si5 0.138970 0.526688 0.827017
Si Si6 0.852498 0.740035 0.422759
O O1 0.803604 0.163941 0.885642
O O2 0.880080 0.116744 0.978164
O O3 0.750000 0.124722 0.000000
O O4 0.827704 0.228069 0.004597
O O5 0.999679 0.318914 0.167394
O O6 0.807290 0.241439 0.300773
O O7 0.750538 0.349919 0.264406
O O8 0.690036 0.273053 0.359603
O O9 0.782141 0.640513 0.622856
O O10 0.160219 0.500000 0.750000
O O11 0.199568 0.550433 0.875000
O O12 0.086487 0.585380 0.820118
#
# Coordination Sequence:
#
# PCOD8321071 Si02
#       6
#    32   8  32  32  32  32
#     4  10  21  39  63  90 127 169 218 274 327 395
#     4  12  20  32  68 100 130 176 240 282 332 420
#     4   9  20  40  61  86 130 171 213 268 345 392
#     4  10  21  38  62  91 122 173 213 271 330 403
#     4  11  24  42  64  93 134 180 223 277 341 411
#     4  10  20  39  61  98 131 176 219 281 342 400
#
# _framework density 21.108882000000001
#
# number of rings (size 3 to 8) (size 9 to 14) (size 15 to 20)
#    0.000    1.905    0.952    4.000    2.667    3.048 
#    0.000    0.000    0.000    0.000    0.000    1.333 
#    0.000    0.000    0.000    0.000    0.000    0.000 
#
# Total GULP energy -1040600.555927 kJ/mol
# GULP energy per Si atom -12388.101856 kJ/mol
# Density = 2.106084 g / cm^3
# Si number density = 21.108882 Si / 1000 Ang^3
#
#
#
# Elastic Constant Matrix: (Units=GPa)
#
#
# Indices 1 2 3 4 5 6 
#
# 1 80.7187 37.2328 30.9187 0.0000 0.0000 0.0000
# 2 37.2328 80.7205 30.9190 0.0000 0.0000 0.0000
# 3 30.9187 30.9190 159.1988 0.0000 0.0000 0.0000
# 4 0.0000 0.0000 0.0000 22.9318 0.0000 0.0000
# 5 0.0000 0.0000 0.0000 0.0000 22.9318 0.0000
# 6 0.0000 0.0000 0.0000 0.0000 0.0000 29.2708
#
#
#
# Elastic Compliance Matrix: (Units=1/GPa)
#
#
# Indices 1 2 3 4 5 6 
#
# 1 0.016217 -0.006778 -0.001833 0.000000 0.000000 0.000000
# 2 -0.006778 0.016217 -0.001833 0.000000 0.000000 0.000000
# 3 -0.001833 -0.001833 0.006994 0.000000 0.000000 0.000000
# 4 0.000000 0.000000 0.000000 0.043608 0.000000 0.000000
# 5 0.000000 0.000000 0.000000 0.000000 0.043608 0.000000
# 6 0.000000 0.000000 0.000000 0.000000 0.000000 0.034164
#
#
# Mechanical properties :
#
#
# Convention : Reuss Voigt Hill
#
# Bulk Modulus (GPa) = 53.94084 57.64211 55.79148
# Shear Modulus (GPa) = 26.61331 29.79803 28.20567
#
# Velocity S-wave (km/s) = 3.55458 3.76125 3.65937
# Velocity P-wave (km/s) = 6.51581 6.79919 6.65901
#
# Compressibility (1/GPa) = 0.01853883
#
# Stress axis : x y z
#
# Youngs Moduli (GPa) = 61.66196 61.66334 142.98926
#
# Poissons Ratio (x) = 0.41797 0.26213
# Poissons Ratio (y) = 0.41796 0.26213
# Poissons Ratio (z) = 0.11304 0.11304
#
# Static dielectric constant tensor:
#      x y z
#    x 3.678860 0.000000 0.000000 
#    y 0.000000 3.678860 0.000000 
#    z 0.000000 0.000000 4.127720 
# 
# 
# High freq. dielectric constant tensor:
#      x y z
#    x 1.810350 0.000000 0.000000 
#    y 0.000000 1.810350 0.000000 
#    z 0.000000 0.000000 1.842620 
# 
# From -- ./inp_files/9091.got.cif
#   From: 2010.03.12/outbox.cif.g09.slc.cpg/sg142_5_cif.got.tgz:9091.got - 2010.04.03 13:27:16.
