data_PCOD8321734
_publ_section_title
;
Structure prediction by ZEFSAII (Michael W. Deem and Ramdas Pophale) SiO2 
 PCOD8321734
Probable space group: R -3
;
_chemical_formula_sum "Si O2"
_cell_formula_units_Z 108
_cell_length_a 14.322409
_cell_length_b 14.322409
_cell_length_c 28.406147
_cell_angle_alpha 90.000000
_cell_angle_beta 90.000000
_cell_angle_gamma 120.000000
_cell_volume 5046.323697
_symmetry_space_group_name_H-M "R -3"
_symmetry_group_IT_number 148
_symmetry_cell_setting 'hexagonal'
loop_
_space_group_symop_operation_xyz
x,y,z
-y,x-y,z
-x+y,-x,z
-x,-y,-z
y,-x+y,-z
x-y,x,-z
2/3+x,1/3+y,1/3+z
2/3-y,1/3+x-y,1/3+z
2/3-x+y,1/3-x,1/3+z
2/3-x,1/3-y,1/3-z
2/3+y,1/3-x+y,1/3-z
2/3+x-y,1/3+x,1/3-z
1/3+x,2/3+y,2/3+z
1/3-y,2/3+x-y,2/3+z
1/3-x+y,2/3-x,2/3+z
1/3-x,2/3-y,2/3-z
1/3+y,2/3-x+y,2/3-z
1/3+x-y,2/3+x,2/3-z
loop_
_atom_site_type_symbol
_atom_site_label
_atom_site_fract_x
_atom_site_fract_y
_atom_site_fract_z
Si Si1 0.357342 0.041141 0.798738
Si Si2 0.208597 0.156957 0.698247
Si Si3 0.939207 0.756082 0.273148
Si Si4 0.132813 0.773756 0.105019
Si Si5 0.274886 0.847494 0.655269
Si Si6 0.095809 0.865747 0.397884
O O1 0.336242 0.047045 0.853691
O O2 0.450614 0.012440 0.792640
O O3 0.398518 0.156819 0.774734
O O4 0.245245 0.948698 0.775725
O O5 0.161007 0.224005 0.724017
O O6 0.173861 0.132465 0.642536
O O7 0.335884 0.234823 0.704265
O O8 0.169428 0.043286 0.722907
O O9 0.932513 0.676264 0.314679
O O10 0.073730 0.806204 0.066242
O O11 0.174241 0.693653 0.084029
O O12 0.394437 0.869891 0.661514
#
# Coordination Sequence:
#
# PCOD8321734 Si02
#       6
#    18  18  18  18  18  18
#     4  11  24  41  65  99 141 181 225 282 355 421
#     4  10  21  37  63  97 130 173 222 285 339 409
#     4  11  22  41  67 101 136 177 229 280 346 413
#     4  12  22  44  66  99 141 183 228 288 355 417
#     4  12  25  45  72 104 137 185 246 294 340 407
#     4  10  21  38  61  92 133 170 224 280 341 407
#
# _framework density 21.401719
#
# number of rings (size 3 to 8) (size 9 to 14) (size 15 to 20)
#    0.000    1.000    5.000    2.500    2.333    0.000 
#    1.000    7.500    0.000    0.000    0.000    0.000 
#    0.000    0.000    0.000    0.000    0.000    0.000 
#
# Total GULP energy -446317.294118 kJ/mol
# GULP energy per Si atom -12397.702614 kJ/mol
# Density = 2.135301 g / cm^3
# Si number density = 21.401719 Si / 1000 Ang^3
#
#
#
# Elastic Constant Matrix: (Units=GPa)
#
#
# Indices 1 2 3 4 5 6 
#
# 1 86.5249 18.4952 41.9685 8.0687 -1.6353 0.0000
# 2 18.4952 86.5249 41.9685 -8.0687 1.6353 0.0000
# 3 41.9685 41.9685 150.9012 0.0000 0.0000 0.0000
# 4 8.0687 -8.0687 0.0000 32.3240 0.0000 1.6353
# 5 -1.6353 1.6353 0.0000 0.0000 32.3240 8.0687
# 6 0.0000 0.0000 0.0000 1.6353 8.0687 34.0149
#
#
#
# Elastic Compliance Matrix: (Units=1/GPa)
#
#
# Indices 1 2 3 4 5 6 
#
# 1 0.013954 -0.001711 -0.003405 -0.003910 0.000793 0.000000
# 2 -0.001711 0.013954 -0.003405 0.003910 -0.000793 0.000000
# 3 -0.003405 -0.003405 0.008521 0.000000 0.000000 0.000000
# 4 -0.003910 0.003910 0.000000 0.032969 0.000000 -0.001585
# 5 0.000793 -0.000793 0.000000 0.000000 0.032969 -0.007821
# 6 0.000000 0.000000 0.000000 -0.001585 -0.007821 0.031330
#
#
# Mechanical properties :
#
#
# Convention : Reuss Voigt Hill
#
# Bulk Modulus (GPa) = 51.57994 58.75725 55.16859
# Shear Modulus (GPa) = 31.80602 34.50049 33.15326
#
# Velocity S-wave (km/s) = 3.85924 4.01938 3.94012
# Velocity P-wave (km/s) = 6.63411 7.00390 6.82151
#
# Compressibility (1/GPa) = 0.01938738
#
# Stress axis : x y z
#
# Youngs Moduli (GPa) = 71.66230 71.66230 117.35807
#
# Poissons Ratio (x) = 0.12260 0.39962
# Poissons Ratio (y) = 0.12260 0.39962
# Poissons Ratio (z) = 0.24402 0.24402
#
# Static dielectric constant tensor:
#      x y z
#    x 3.831930 0.000000 0.000000 
#    y 0.000000 3.831930 0.000000 
#    z 0.000000 0.000000 3.990570 
# 
# 
# High freq. dielectric constant tensor:
#      x y z
#    x 1.834030 0.000000 0.000000 
#    y 0.000000 1.834030 0.000000 
#    z 0.000000 0.000000 1.837970 
# 
# From -- ./inp_files/4002.got.cif
#   From: 2010.03.12/outbox.cif.g09.slc.cpg/sg148_3_cif.got.tgz:4002.got - 2010.04.03 13:38:46.
