data_PCOD8321373
_publ_section_title
;
Structure prediction by ZEFSAII (Michael W. Deem and Ramdas Pophale) SiO2 
 PCOD8321373
Probable space group: P 31
;
_chemical_formula_sum "Si O2"
_cell_formula_units_Z 15
_cell_length_a 11.377655
_cell_length_b 11.377655
_cell_length_c 6.259262
_cell_angle_alpha 90.000000
_cell_angle_beta 90.000000
_cell_angle_gamma 120.000000
_cell_volume 701.712614
_symmetry_space_group_name_H-M "P 31"
_symmetry_group_IT_number 144
_symmetry_cell_setting 'hexagonal'
loop_
_space_group_symop_operation_xyz
x,y,z
-y,x-y,1/3+z
-x+y,-x,2/3+z
loop_
_atom_site_type_symbol
_atom_site_label
_atom_site_fract_x
_atom_site_fract_y
_atom_site_fract_z
Si Si1 0.021095 0.326897 0.734160
Si Si2 0.458930 0.766313 0.057501
Si Si3 0.132400 0.030135 0.085819
Si Si4 0.839477 0.215765 0.126775
Si Si5 0.530370 0.057206 0.068646
O O1 0.166865 0.432329 0.840879
O O2 0.049771 0.239220 0.558928
O O3 0.957525 0.411440 0.625928
O O4 0.916677 0.222948 0.906971
O O5 0.324835 0.734088 0.182517
O O6 0.534099 0.923615 0.996904
O O7 0.070997 0.096763 0.244613
O O8 0.259386 0.148782 0.954601
O O9 0.684808 0.174081 0.091420
O O10 0.910532 0.367590 0.213889
#
# Coordination Sequence:
#
# PCOD8321373 Si02
#       5
#     3   3   3   3   3
#     4  10  24  43  66  98 130 172 226 272 337 395
#     4  10  21  42  65  92 127 169 218 271 325 384
#     4  11  25  43  67 101 131 171 218 283 340 400
#     4  11  25  43  67  96 135 177 223 275 330 403
#     4  10  25  41  63  99 129 179 221 273 330 396
#
# _framework density 21.376270000000002
#
# number of rings (size 3 to 8) (size 9 to 14) (size 15 to 20)
#    0.000    1.600    0.000    2.400   11.200    1.600 
#    7.200    0.000    0.000    0.000    0.000    0.000 
#    0.000    0.000    0.000    0.000    0.000    0.000 
#
# Total GULP energy -186005.801225 kJ/mol
# GULP energy per Si atom -12400.386748 kJ/mol
# Density = 2.132762 g / cm^3
# Si number density = 21.376270 Si / 1000 Ang^3
#
#
#
# Elastic Constant Matrix: (Units=GPa)
#
#
# Indices 1 2 3 4 5 6 
#
# 1 116.4956 41.0570 45.5049 3.0672 0.2610 0.0000
# 2 41.0570 116.4956 45.5049 -3.0672 -0.2610 0.0000
# 3 45.5049 45.5049 95.9988 0.0000 0.0000 0.0000
# 4 3.0672 -3.0672 0.0000 29.5548 0.0000 -0.2610
# 5 0.2610 -0.2610 0.0000 0.0000 29.5548 3.0672
# 6 0.0000 0.0000 0.0000 -0.2610 3.0672 37.7193
#
#
#
# Elastic Compliance Matrix: (Units=1/GPa)
#
#
# Indices 1 2 3 4 5 6 
#
# 1 0.011055 -0.002315 -0.004143 -0.001388 -0.000118 0.000000
# 2 -0.002315 0.011055 -0.004143 0.001388 0.000118 0.000000
# 3 -0.004143 -0.004143 0.014345 0.000000 0.000000 0.000000
# 4 -0.001388 0.001388 0.000000 0.034126 0.000000 0.000236
# 5 -0.000118 0.000118 0.000000 0.000000 0.034126 -0.002775
# 6 0.000000 0.000000 0.000000 0.000236 -0.002775 0.026739
#
#
# Mechanical properties :
#
#
# Convention : Reuss Voigt Hill
#
# Bulk Modulus (GPa) = 65.56095 65.90260 65.73178
# Shear Modulus (GPa) = 31.69974 32.49397 32.09686
#
# Velocity S-wave (km/s) = 3.85507 3.90307 3.87915
# Velocity P-wave (km/s) = 7.10999 7.15602 7.13305
#
# Compressibility (1/GPa) = 0.01525298
#
# Stress axis : x y z
#
# Youngs Moduli (GPa) = 90.45778 90.45778 69.71306
#
# Poissons Ratio (x) = 0.20937 0.28882
# Poissons Ratio (y) = 0.20937 0.28882
# Poissons Ratio (z) = 0.37477 0.37477
#
# Static dielectric constant tensor:
#      x y z
#    x 3.967380 0.000000 0.000000 
#    y 0.000000 3.967380 0.000000 
#    z 0.000000 0.000000 3.747380 
# 
# 
# High freq. dielectric constant tensor:
#      x y z
#    x 1.847620 0.000000 0.000000 
#    y 0.000000 1.847620 0.000000 
#    z 0.000000 0.000000 1.828350 
# 
# From -- ./inp_files/56.got.cif
#   From: 2010.03.12/outbox.cif.g09.slc.cpg/sg144_cif.got.tgz:56.got - 2010.04.03 13:34:42.
