data_PCOD8321598
_publ_section_title
;
Structure prediction by ZEFSAII (Michael W. Deem and Ramdas Pophale) SiO2 
 PCOD8321598
Probable space group: P -3
;
_chemical_formula_sum "Si O2"
_cell_formula_units_Z 42
_cell_length_a 12.844065
_cell_length_b 12.844065
_cell_length_c 18.095834
_cell_angle_alpha 90.000000
_cell_angle_beta 90.000000
_cell_angle_gamma 120.000000
_cell_volume 2585.319517
_symmetry_space_group_name_H-M "P -3"
_symmetry_group_IT_number 147
_symmetry_cell_setting 'hexagonal'
loop_
_space_group_symop_operation_xyz
x,y,z
-y,x-y,z
-x+y,-x,z
-x,-y,-z
y,-x+y,-z
x-y,x,-z
loop_
_atom_site_type_symbol
_atom_site_label
_atom_site_fract_x
_atom_site_fract_y
_atom_site_fract_z
Si Si1 0.577866 0.667741 0.710531
Si Si2 0.000994 0.755625 0.840301
Si Si3 0.760928 0.000040 0.415782
Si Si4 0.244375 0.999006 0.840301
Si Si5 0.239527 0.000000 1.000000
Si Si6 0.760928 0.760889 0.415782
Si Si7 0.667741 0.577866 0.289469
O O1 0.648932 0.676515 0.635682
O O2 0.656923 0.672571 0.780514
O O3 0.457979 0.542021 0.710863
O O4 0.544588 0.772294 0.714836
O O5 0.873877 0.747754 0.827013
O O6 0.105720 0.894280 0.831556
O O7 0.015648 0.672571 0.780514
O O8 0.011777 0.704452 0.921953
O O9 0.745638 0.872819 0.392758
O O10 0.720766 0.000000 0.500000
O O11 0.900344 0.099656 0.404706
O O12 0.295548 0.988223 0.921953
O O13 0.109916 0.890084 0.013858
O O14 0.676515 0.648932 0.364318
#
# Coordination Sequence:
#
# PCOD8321598 Si02
#       7
#     6   6   6   6   6   6   6
#     4  10  20  32  45  61  85 120 159 193 219 247
#     4   9  16  27  46  71  95 116 140 177 227 278
#     4   9  17  30  50  75  98 116 136 171 223 277
#     4   9  16  27  46  71  95 116 140 177 227 278
#     4   8  13  22  39  66  96 118 136 166 218 280
#     4   9  17  30  50  75  98 116 136 171 223 277
#     4  10  20  32  45  61  85 120 159 193 219 247
#
# _framework density 16.245574999999999
#
# number of rings (size 3 to 8) (size 9 to 14) (size 15 to 20)
#    0.000    2.857    0.000    1.857    0.000    4.000 
#    0.000    3.571    0.000    4.571    0.000    0.000 
#    0.000    0.000    0.000    0.000    0.000    0.000 
#
# Total GULP energy -520450.815144 kJ/mol
# GULP energy per Si atom -12391.686075 kJ/mol
# Density = 1.620860 g / cm^3
# Si number density = 16.245575 Si / 1000 Ang^3
#
#
#
# Elastic Constant Matrix: (Units=GPa)
#
#
# Indices 1 2 3 4 5 6 
#
# 1 94.1903 49.2780 63.9523 -0.1410 0.0000 0.0000
# 2 49.2780 94.1903 63.9523 0.1410 0.0000 0.0000
# 3 63.9523 63.9523 146.4349 0.0000 0.0000 0.0000
# 4 -0.1410 0.1410 0.0000 17.8490 0.0000 0.0000
# 5 0.0000 0.0000 0.0000 0.0000 17.8490 -0.1410
# 6 0.0000 0.0000 0.0000 0.0000 -0.1410 22.4562
#
#
#
# Elastic Compliance Matrix: (Units=1/GPa)
#
#
# Indices 1 2 3 4 5 6 
#
# 1 0.016841 -0.005426 -0.004985 0.000176 0.000000 0.000000
# 2 -0.005426 0.016841 -0.004985 -0.000176 0.000000 0.000000
# 3 -0.004985 -0.004985 0.011183 0.000000 0.000000 0.000000
# 4 0.000176 -0.000176 0.000000 0.056028 0.000000 0.000000
# 5 0.000000 0.000000 0.000000 0.000000 0.056028 0.000352
# 6 0.000000 0.000000 0.000000 0.000000 0.000352 0.044533
#
#
# Mechanical properties :
#
#
# Convention : Reuss Voigt Hill
#
# Bulk Modulus (GPa) = 71.06325 76.57561 73.81943
# Shear Modulus (GPa) = 21.10264 22.13970 21.62117
#
# Velocity S-wave (km/s) = 3.60804 3.69564 3.65210
# Velocity P-wave (km/s) = 7.82275 8.09005 7.95752
#
# Compressibility (1/GPa) = 0.01407197
#
# Stress axis : x y z
#
# Youngs Moduli (GPa) = 59.38048 59.38048 89.42034
#
# Poissons Ratio (x) = 0.32221 0.44576
# Poissons Ratio (y) = 0.32221 0.44576
# Poissons Ratio (z) = 0.29601 0.29601
#
# Static dielectric constant tensor:
#      x y z
#    x 2.762970 0.000000 0.000000 
#    y 0.000000 2.762970 0.000000 
#    z 0.000000 0.000000 3.523630 
# 
# 
# High freq. dielectric constant tensor:
#      x y z
#    x 1.595570 0.000000 0.000000 
#    y 0.000000 1.595570 0.000000 
#    z 0.000000 0.000000 1.654480 
# 
# From -- ./inp_files/1030.got.cif
#   From: 2010.03.12/outbox.cif.g09.slc.cpg/sg147_cif.got.tgz:1030.got - 2010.04.03 13:37:56.
