data_PCOD8321811
_publ_section_title
;
Structure prediction by ZEFSAII (Michael W. Deem and Ramdas Pophale) SiO2 
 PCOD8321811
Probable space group: R -3
;
_chemical_formula_sum "Si O2"
_cell_formula_units_Z 126
_cell_length_a 20.110564
_cell_length_b 20.110564
_cell_length_c 16.429399
_cell_angle_alpha 90.000000
_cell_angle_beta 90.000000
_cell_angle_gamma 120.000000
_cell_volume 5754.410102
_symmetry_space_group_name_H-M "R -3"
_symmetry_group_IT_number 148
_symmetry_cell_setting 'hexagonal'
loop_
_space_group_symop_operation_xyz
x,y,z
-y,x-y,z
-x+y,-x,z
-x,-y,-z
y,-x+y,-z
x-y,x,-z
2/3+x,1/3+y,1/3+z
2/3-y,1/3+x-y,1/3+z
2/3-x+y,1/3-x,1/3+z
2/3-x,1/3-y,1/3-z
2/3+y,1/3-x+y,1/3-z
2/3+x-y,1/3+x,1/3-z
1/3+x,2/3+y,2/3+z
1/3-y,2/3+x-y,2/3+z
1/3-x+y,2/3-x,2/3+z
1/3-x,2/3-y,2/3-z
1/3+y,2/3-x+y,2/3-z
1/3+x-y,2/3+x,2/3-z
loop_
_atom_site_type_symbol
_atom_site_label
_atom_site_fract_x
_atom_site_fract_y
_atom_site_fract_z
Si Si1 0.838803 0.979818 0.018811
Si Si2 0.546298 0.666780 0.918636
Si Si3 0.626253 0.162185 0.821055
Si Si4 0.036629 0.624142 0.576331
Si Si5 0.909378 0.270296 0.734830
Si Si6 0.220194 0.145767 0.309609
Si Si7 0.132493 0.604066 0.869404
O O1 0.802577 0.957426 0.108251
O O2 0.856158 0.917067 0.979344
O O3 0.777751 0.988945 0.965368
O O4 0.609079 0.715221 0.850009
O O5 0.462813 0.616155 0.877905
O O6 0.566340 0.610793 0.970962
O O7 0.546434 0.729561 0.979033
O O8 0.566430 0.191730 0.824669
O O9 0.602333 0.096791 0.887454
O O10 0.626024 0.125905 0.733522
O O11 0.011162 0.688100 0.574579
O O12 0.969672 0.542918 0.609122
O O13 0.909700 0.193238 0.757224
O O14 0.152784 0.139776 0.251197
#
# Coordination Sequence:
#
# PCOD8321811 Si02
#       7
#    18  18  18  18  18  18  18
#     4  12  26  48  74 106 145 192 242 299 363 431
#     4  12  24  48  72 108 140 194 234 300 364 426
#     4  12  26  48  74 106 145 192 242 299 363 431
#     4  11  27  44  75 107 146 187 241 298 362 430
#     4  11  27  44  75 107 146 187 241 298 362 430
#     4  11  26  45  72 107 148 185 241 300 357 437
#     4  11  26  45  72 107 148 185 241 300 357 437
#
# _framework density 21.896249000000001
#
# number of rings (size 3 to 8) (size 9 to 14) (size 15 to 20)
#    0.000    0.571    2.857    3.714   12.000    0.000 
#    0.857    0.000    0.000    0.000    0.000    0.000 
#    0.000    0.000    0.000    0.000    0.000    0.000 
#
# Total GULP energy -520990.175242 kJ/mol
# GULP energy per Si atom -12404.527982 kJ/mol
# Density = 2.184641 g / cm^3
# Si number density = 21.896249 Si / 1000 Ang^3
#
#
#
# Elastic Constant Matrix: (Units=GPa)
#
#
# Indices 1 2 3 4 5 6 
#
# 1 68.7046 31.1587 18.7131 1.8816 2.2889 0.0000
# 2 31.1587 68.7046 18.7131 -1.8816 -2.2889 0.0000
# 3 18.7131 18.7131 127.8359 0.0000 0.0000 0.0000
# 4 1.8816 -1.8816 0.0000 35.5710 0.0000 -2.2889
# 5 2.2889 -2.2889 0.0000 0.0000 35.5710 1.8816
# 6 0.0000 0.0000 0.0000 -2.2889 1.8816 18.7730
#
#
#
# Elastic Compliance Matrix: (Units=1/GPa)
#
#
# Indices 1 2 3 4 5 6 
#
# 1 0.018792 -0.008197 -0.001551 -0.001428 -0.001737 0.000000
# 2 -0.008197 0.018792 -0.001551 0.001428 0.001737 0.000000
# 3 -0.001551 -0.001551 0.008277 0.000000 0.000000 0.000000
# 4 -0.001428 0.001428 0.000000 0.028487 0.000000 0.003473
# 5 -0.001737 0.001737 0.000000 0.000000 0.028487 -0.002855
# 6 0.000000 0.000000 0.000000 0.003473 -0.002855 0.053978
#
#
# Mechanical properties :
#
#
# Convention : Reuss Voigt Hill
#
# Bulk Modulus (GPa) = 42.98716 44.71276 43.84996
# Shear Modulus (GPa) = 26.71444 31.09369 28.90407
#
# Velocity S-wave (km/s) = 3.49671 3.77244 3.63719
# Velocity P-wave (km/s) = 5.99812 6.28010 6.14073
#
# Compressibility (1/GPa) = 0.02326276
#
# Stress axis : x y z
#
# Youngs Moduli (GPa) = 53.21438 53.21438 120.82269
#
# Poissons Ratio (x) = 0.43620 0.18739
# Poissons Ratio (y) = 0.43620 0.18739
# Poissons Ratio (z) = 0.08253 0.08253
#
# Static dielectric constant tensor:
#      x y z
#    x 3.985220 0.000000 0.000000 
#    y 0.000000 3.985220 0.000000 
#    z 0.000000 0.000000 4.073070 
# 
# 
# High freq. dielectric constant tensor:
#      x y z
#    x 1.866110 0.000000 0.000000 
#    y 0.000000 1.866110 0.000000 
#    z 0.000000 0.000000 1.877650 
# 
# From -- ./inp_files/2754.got.cif
#   From: 2010.03.12/outbox.cif.g09.slc.cpg/sg148_2_cif.got.tgz:2754.got - 2010.04.03 13:38:46.
