data_PCOD8321189
_publ_section_title
;
Structure prediction by ZEFSAII (Michael W. Deem and Ramdas Pophale) SiO2 
 PCOD8321189
Probable space group: I 41/A C D
;
_chemical_formula_sum "Si O2"
_cell_formula_units_Z 112
_cell_length_a 13.958999
_cell_length_b 13.958999
_cell_length_c 26.705679
_cell_angle_alpha 90.000000
_cell_angle_beta 90.000000
_cell_angle_gamma 90.000000
_cell_volume 5203.699111
_symmetry_space_group_name_H-M "I 41/A C D"
_symmetry_group_IT_number 142
_space_group.IT_coordinate_system_code '2'
_symmetry_cell_setting 'tetragonal'
loop_
_space_group_symop_operation_xyz
x,y,z
1/4-y,3/4+x,1/4+z
-x,1/2-y,z
1/4+y,1/4-x,3/4+z
x,-y,1/2-z
1/2-x,y,-z
3/4+y,1/4+x,1/4-z
1/4-y,1/4-x,1/4-z
-x,-y,-z
3/4+y,1/4-x,3/4-z
x,1/2+y,-z
3/4-y,3/4+x,1/4-z
-x,y,1/2+z
1/2+x,-y,z
1/4-y,3/4-x,3/4+z
3/4+y,3/4+x,3/4+z
1/2+x,1/2+y,1/2+z
3/4-y,1/4+x,3/4+z
1/2-x,-y,1/2+z
3/4+y,3/4-x,1/4+z
1/2+x,1/2-y,-z
-x,1/2+y,1/2-z
1/4+y,3/4+x,3/4-z
3/4-y,3/4-x,3/4-z
1/2-x,1/2-y,1/2-z
1/4+y,3/4-x,1/4-z
1/2+x,y,1/2-z
1/4-y,1/4+x,3/4-z
1/2-x,1/2+y,z
x,1/2-y,1/2+z
3/4-y,1/4-x,1/4+z
1/4+y,1/4+x,1/4+z
loop_
_atom_site_type_symbol
_atom_site_label
_atom_site_fract_x
_atom_site_fract_y
_atom_site_fract_z
Si Si1 0.116876 0.560401 0.964314
Si Si2 0.250000 0.719096 0.000000
Si Si3 0.123779 0.474568 0.324477
Si Si4 0.777558 0.832982 0.318866
O O1 0.172096 0.471901 0.939290
O O2 0.021230 0.578139 0.931893
O O3 0.181882 0.655117 0.964504
O O4 0.091081 0.542878 0.021981
O O5 0.190655 0.787671 0.038243
O O6 0.138802 0.588427 0.316324
O O7 0.096335 0.459280 0.382484
#
# Coordination Sequence:
#
# PCOD8321189 Si02
#       4
#    32  16  32  32
#     4  11  23  44  66  95 129 178 217 277 333 397
#     4  12  22  40  68  92 130 180 216 272 332 406
#     4  11  23  43  65 100 131 173 224 274 330 409
#     4  10  23  42  67  92 137 167 221 279 330 393
#
# _framework density 21.523150999999999
#
# number of rings (size 3 to 8) (size 9 to 14) (size 15 to 20)
#    0.000    1.143    5.714    0.000    4.000    2.286 
#    0.000    2.857    0.000    0.000    0.000    0.000 
#    0.000    0.000    0.000    0.000    0.000    0.000 
#
# Total GULP energy -694321.462776 kJ/mol
# GULP energy per Si atom -12398.597550 kJ/mol
# Density = 2.147416 g / cm^3
# Si number density = 21.523151 Si / 1000 Ang^3
#
#
#
# Elastic Constant Matrix: (Units=GPa)
#
#
# Indices 1 2 3 4 5 6 
#
# 1 113.7638 38.6882 28.5011 0.0000 0.0000 0.0000
# 2 38.6882 113.7638 28.5011 0.0000 0.0000 0.0000
# 3 28.5011 28.5011 137.4045 0.0000 0.0000 0.0000
# 4 0.0000 0.0000 0.0000 29.2739 0.0000 0.0000
# 5 0.0000 0.0000 0.0000 0.0000 29.2739 0.0000
# 6 0.0000 0.0000 0.0000 0.0000 0.0000 9.7148
#
#
#
# Elastic Compliance Matrix: (Units=1/GPa)
#
#
# Indices 1 2 3 4 5 6 
#
# 1 0.010215 -0.003104 -0.001475 0.000000 0.000000 0.000000
# 2 -0.003104 0.010215 -0.001475 0.000000 0.000000 0.000000
# 3 -0.001475 -0.001475 0.007890 0.000000 0.000000 0.000000
# 4 0.000000 0.000000 0.000000 0.034160 0.000000 0.000000
# 5 0.000000 0.000000 0.000000 0.000000 0.034160 0.000000
# 6 0.000000 0.000000 0.000000 0.000000 0.000000 0.102936
#
#
# Mechanical properties :
#
#
# Convention : Reuss Voigt Hill
#
# Bulk Modulus (GPa) = 61.68413 61.81253 61.74833
# Shear Modulus (GPa) = 23.03199 31.60198 27.31698
#
# Velocity S-wave (km/s) = 3.27479 3.83597 3.56644
# Velocity P-wave (km/s) = 6.55901 6.95708 6.76098
#
# Compressibility (1/GPa) = 0.01621162
#
# Stress axis : x y z
#
# Youngs Moduli (GPa) = 97.89120 97.89120 126.74783
#
# Poissons Ratio (x) = 0.30390 0.18695
# Poissons Ratio (y) = 0.30390 0.18695
# Poissons Ratio (z) = 0.14439 0.14439
#
# Static dielectric constant tensor:
#      x y z
#    x 3.851960 0.000000 0.000000 
#    y 0.000000 3.851960 0.000000 
#    z 0.000000 0.000000 4.249300 
# 
# 
# High freq. dielectric constant tensor:
#      x y z
#    x 1.828660 0.000000 0.000000 
#    y 0.000000 1.828660 0.000000 
#    z 0.000000 0.000000 1.863090 
# 
# From -- ./inp_files/12218.got.cif
#   From: 2010.03.12/outbox.cif.g09.slc.cpg/sg142_7_cif.got.tgz:12218.got - 2010.04.03 13:27:16.
