data_PCOD8321778
_publ_section_title
;
Structure prediction by ZEFSAII (Michael W. Deem and Ramdas Pophale) SiO2 
 PCOD8321778
Probable space group: R -3
;
_chemical_formula_sum "Si O2"
_cell_formula_units_Z 54
_cell_length_a 18.954751
_cell_length_b 18.954751
_cell_length_c 8.031462
_cell_angle_alpha 90.000000
_cell_angle_beta 90.000000
_cell_angle_gamma 120.000000
_cell_volume 2498.972103
_symmetry_space_group_name_H-M "R -3"
_symmetry_group_IT_number 148
_symmetry_cell_setting 'hexagonal'
loop_
_space_group_symop_operation_xyz
x,y,z
-y,x-y,z
-x+y,-x,z
-x,-y,-z
y,-x+y,-z
x-y,x,-z
2/3+x,1/3+y,1/3+z
2/3-y,1/3+x-y,1/3+z
2/3-x+y,1/3-x,1/3+z
2/3-x,1/3-y,1/3-z
2/3+y,1/3-x+y,1/3-z
2/3+x-y,1/3+x,1/3-z
1/3+x,2/3+y,2/3+z
1/3-y,2/3+x-y,2/3+z
1/3-x+y,2/3-x,2/3+z
1/3-x,2/3-y,2/3-z
1/3+y,2/3-x+y,2/3-z
1/3+x-y,2/3+x,2/3-z
loop_
_atom_site_type_symbol
_atom_site_label
_atom_site_fract_x
_atom_site_fract_y
_atom_site_fract_z
Si Si1 0.971902 0.841966 0.432898
Si Si2 0.165490 0.626292 0.741933
Si Si3 0.051357 0.331039 0.582481
O O1 0.895366 0.856811 0.426692
O O2 0.939199 0.746754 0.455790
O O3 0.022284 0.876847 0.265977
O O4 0.219664 0.706086 0.634620
O O5 0.071121 0.596676 0.711979
O O6 0.999430 0.319731 0.749213
#
# Coordination Sequence:
#
# PCOD8321778 Si02
#       3
#    18  18  18
#     4  11  25  43  69 100 135 178 223 280 337 401
#     4  11  25  43  69 100 135 178 223 280 337 401
#     4  10  26  42  70 100 138 182 222 282 334 404
#
# _framework density 21.608885000000001
#
# number of rings (size 3 to 8) (size 9 to 14) (size 15 to 20)
#    0.000    1.333    0.000    2.667   14.000    5.333 
#    0.000    0.000    0.000    0.000    0.000    0.000 
#    0.000    0.000    0.000    0.000    0.000    0.000 
#
# Total GULP energy -223245.259568 kJ/mol
# GULP energy per Si atom -12402.514420 kJ/mol
# Density = 2.155970 g / cm^3
# Si number density = 21.608885 Si / 1000 Ang^3
#
#
#
# Elastic Constant Matrix: (Units=GPa)
#
#
# Indices 1 2 3 4 5 6 
#
# 1 147.4569 100.6559 26.9847 -4.4229 -10.1398 -0.0012
# 2 100.6559 147.4712 26.9808 4.4188 10.1327 -0.0039
# 3 26.9847 26.9808 38.4566 0.0821 -0.1127 -0.0699
# 4 -4.4229 4.4188 0.0821 15.9034 0.0401 10.1581
# 5 -10.1398 10.1327 -0.1127 0.0401 15.8859 -4.4468
# 6 -0.0012 -0.0039 -0.0699 10.1581 -4.4468 23.4005
#
#
#
# Elastic Compliance Matrix: (Units=1/GPa)
#
#
# Indices 1 2 3 4 5 6 
#
# 1 0.018272 -0.013524 -0.003292 0.008792 0.020248 0.000020
# 2 -0.013524 0.018288 -0.003382 -0.008720 -0.020322 -0.000084
# 3 -0.003292 -0.003382 0.030689 -0.000328 0.000359 0.000301
# 4 0.008792 -0.008720 -0.000328 0.093827 -0.000493 -0.040826
# 5 0.020248 -0.020322 0.000359 -0.000493 0.093893 0.018056
# 6 0.000020 -0.000084 0.000301 -0.040826 0.018056 0.063888
#
#
# Mechanical properties :
#
#
# Convention : Reuss Voigt Hill
#
# Bulk Modulus (GPa) = 37.24146 71.40305 54.32226
# Shear Modulus (GPa) = 13.57940 22.95551 18.26746
#
# Velocity S-wave (km/s) = 2.50954 3.26286 2.91068
# Velocity P-wave (km/s) = 5.06644 6.87823 6.04065
#
# Compressibility (1/GPa) = 0.02685179
#
# Stress axis : x y z
#
# Youngs Moduli (GPa) = 54.72981 54.68118 32.58499
#
# Poissons Ratio (x) = 0.73948 0.10728
# Poissons Ratio (y) = 0.74014 0.11021
# Poissons Ratio (z) = 0.18019 0.18495
#
# Static dielectric constant tensor:
#      x y z
#    x 3.962820 0.000020 0.000020 
#    y 0.000020 3.962840 0.000030 
#    z 0.000020 0.000030 4.157150 
# 
# 
# High freq. dielectric constant tensor:
#      x y z
#    x 1.859360 0.000000 0.000000 
#    y 0.000000 1.859360 0.000000 
#    z 0.000000 0.000000 1.864340 
# 
# From -- ./inp_files/654.got.cif
#   From: 2010.03.12/outbox.cif.g09.slc.cpg/sg148_1_cif.got.tgz:654.got - 2010.04.03 13:38:46.
