data_PCOD8321203
_publ_section_title
;
Structure prediction by ZEFSAII (Michael W. Deem and Ramdas Pophale) SiO2 
 PCOD8321203
Probable space group: I 41/A C D
;
_chemical_formula_sum "Si O2"
_cell_formula_units_Z 176
_cell_length_a 17.834940
_cell_length_b 17.834940
_cell_length_c 26.400495
_cell_angle_alpha 90.000000
_cell_angle_beta 90.000000
_cell_angle_gamma 90.000000
_cell_volume 8397.603691
_symmetry_space_group_name_H-M "I 41/A C D"
_symmetry_group_IT_number 142
_space_group.IT_coordinate_system_code '2'
_symmetry_cell_setting 'tetragonal'
loop_
_space_group_symop_operation_xyz
x,y,z
1/4-y,3/4+x,1/4+z
-x,1/2-y,z
1/4+y,1/4-x,3/4+z
x,-y,1/2-z
1/2-x,y,-z
3/4+y,1/4+x,1/4-z
1/4-y,1/4-x,1/4-z
-x,-y,-z
3/4+y,1/4-x,3/4-z
x,1/2+y,-z
3/4-y,3/4+x,1/4-z
-x,y,1/2+z
1/2+x,-y,z
1/4-y,3/4-x,3/4+z
3/4+y,3/4+x,3/4+z
1/2+x,1/2+y,1/2+z
3/4-y,1/4+x,3/4+z
1/2-x,-y,1/2+z
3/4+y,3/4-x,1/4+z
1/2+x,1/2-y,-z
-x,1/2+y,1/2-z
1/4+y,3/4+x,3/4-z
3/4-y,3/4-x,3/4-z
1/2-x,1/2-y,1/2-z
1/4+y,3/4-x,1/4-z
1/2+x,y,1/2-z
1/4-y,1/4+x,3/4-z
1/2-x,1/2+y,z
x,1/2-y,1/2+z
3/4-y,1/4-x,1/4+z
1/4+y,1/4+x,1/4+z
loop_
_atom_site_type_symbol
_atom_site_label
_atom_site_fract_x
_atom_site_fract_y
_atom_site_fract_z
Si Si1 0.127669 0.013952 0.991959
Si Si2 0.994558 0.047359 0.321517
Si Si3 0.630161 0.425325 0.318935
Si Si4 0.750000 0.363334 0.000000
Si Si5 0.449312 0.182278 0.247269
Si Si6 0.308102 0.268952 0.687165
O O1 0.060020 0.021057 0.951856
O O2 0.183677 0.950960 0.969041
O O3 0.174091 0.089089 0.999681
O O4 0.090409 0.992487 0.045999
O O5 0.990994 0.122294 0.288172
O O6 0.060714 0.995395 0.299490
O O7 0.019408 0.069851 0.377418
O O8 0.915583 0.003356 0.318611
O O9 0.657460 0.407460 0.375000
O O10 0.580338 0.356807 0.298210
O O11 0.500000 0.250000 0.266666
O O12 0.386676 0.223154 0.214447
#
# Coordination Sequence:
#
# PCOD8321203 Si02
#       6
#    32  32  32  16  32  32
#     4  10  24  46  65  96 132 176 220 277 331 401
#     4  12  25  44  66 104 130 175 226 281 337 400
#     4  11  23  46  72  95 135 181 224 272 339 404
#     4  12  26  42  68  96 138 168 226 282 324 400
#     4  11  25  42  68  99 138 175 219 278 335 403
#     4  10  24  42  67  94 132 172 222 268 337 403
#
# _framework density 20.958361
#
# number of rings (size 3 to 8) (size 9 to 14) (size 15 to 20)
#    0.000    1.091    3.636    1.091   10.182    1.091 
#    0.000    1.818    0.000    0.000    0.000    0.000 
#    0.000    0.000    0.000    0.000    0.000    0.000 
#
# Total GULP energy -1091344.076478 kJ/mol
# GULP energy per Si atom -12401.637233 kJ/mol
# Density = 2.091066 g / cm^3
# Si number density = 20.958361 Si / 1000 Ang^3
#
#
#
# Elastic Constant Matrix: (Units=GPa)
#
#
# Indices 1 2 3 4 5 6 
#
# 1 72.2545 24.7783 1.0906 0.0000 0.0000 0.0000
# 2 24.7783 72.2545 1.0906 0.0000 0.0000 0.0000
# 3 1.0906 1.0906 32.5142 0.0000 0.0000 0.0000
# 4 0.0000 0.0000 0.0000 18.5078 0.0000 0.0000
# 5 0.0000 0.0000 0.0000 0.0000 18.5078 0.0000
# 6 0.0000 0.0000 0.0000 0.0000 0.0000 46.9508
#
#
#
# Elastic Compliance Matrix: (Units=1/GPa)
#
#
# Indices 1 2 3 4 5 6 
#
# 1 0.015688 -0.005375 -0.000346 0.000000 0.000000 0.000000
# 2 -0.005375 0.015688 -0.000346 0.000000 0.000000 0.000000
# 3 -0.000346 -0.000346 0.030779 0.000000 0.000000 0.000000
# 4 0.000000 0.000000 0.000000 0.054031 0.000000 0.000000
# 5 0.000000 0.000000 0.000000 0.000000 0.054031 0.000000
# 6 0.000000 0.000000 0.000000 0.000000 0.000000 0.021299
#
#
# Mechanical properties :
#
#
# Convention : Reuss Voigt Hill
#
# Bulk Modulus (GPa) = 19.99104 25.66022 22.82563
# Shear Modulus (GPa) = 22.69378 26.79754 24.74566
#
# Velocity S-wave (km/s) = 3.29417 3.57964 3.43987
# Velocity P-wave (km/s) = 4.90182 5.41804 5.16638
#
# Compressibility (1/GPa) = 0.05002240
#
# Stress axis : x y z
#
# Youngs Moduli (GPa) = 63.74151 63.74150 32.48973
#
# Poissons Ratio (x) = 0.34260 0.01124
# Poissons Ratio (y) = 0.34260 0.01124
# Poissons Ratio (z) = 0.02205 0.02205
#
# Static dielectric constant tensor:
#      x y z
#    x 3.888950 0.000000 0.000000 
#    y 0.000000 3.888950 0.000000 
#    z 0.000000 0.000000 3.749260 
# 
# 
# High freq. dielectric constant tensor:
#      x y z
#    x 1.829200 0.000000 0.000000 
#    y 0.000000 1.829200 0.000000 
#    z 0.000000 0.000000 1.815960 
# 
# From -- ./inp_files/11427.got.cif
#   From: 2010.03.12/outbox.cif.g09.slc.cpg/sg142_6_cif.got.tgz:11427.got - 2010.04.03 13:27:16.
