data_PCOD8321275
_publ_section_title
;
Structure prediction by ZEFSAII (Michael W. Deem and Ramdas Pophale) SiO2 
 PCOD8321275
Probable space group: I 41/A C D
;
_chemical_formula_sum "Si O2"
_cell_formula_units_Z 176
_cell_length_a 25.774745
_cell_length_b 25.774745
_cell_length_c 12.353149
_cell_angle_alpha 90.000000
_cell_angle_beta 90.000000
_cell_angle_gamma 90.000000
_cell_volume 8206.659874
_symmetry_space_group_name_H-M "I 41/A C D"
_symmetry_group_IT_number 142
_space_group.IT_coordinate_system_code '2'
_symmetry_cell_setting 'tetragonal'
loop_
_space_group_symop_operation_xyz
x,y,z
1/4-y,3/4+x,1/4+z
-x,1/2-y,z
1/4+y,1/4-x,3/4+z
x,-y,1/2-z
1/2-x,y,-z
3/4+y,1/4+x,1/4-z
1/4-y,1/4-x,1/4-z
-x,-y,-z
3/4+y,1/4-x,3/4-z
x,1/2+y,-z
3/4-y,3/4+x,1/4-z
-x,y,1/2+z
1/2+x,-y,z
1/4-y,3/4-x,3/4+z
3/4+y,3/4+x,3/4+z
1/2+x,1/2+y,1/2+z
3/4-y,1/4+x,3/4+z
1/2-x,-y,1/2+z
3/4+y,3/4-x,1/4+z
1/2+x,1/2-y,-z
-x,1/2+y,1/2-z
1/4+y,3/4+x,3/4-z
3/4-y,3/4-x,3/4-z
1/2-x,1/2-y,1/2-z
1/4+y,3/4-x,1/4-z
1/2+x,y,1/2-z
1/4-y,1/4+x,3/4-z
1/2-x,1/2+y,z
x,1/2-y,1/2+z
3/4-y,1/4-x,1/4+z
1/4+y,1/4+x,1/4+z
loop_
_atom_site_type_symbol
_atom_site_label
_atom_site_fract_x
_atom_site_fract_y
_atom_site_fract_z
Si Si1 0.250000 0.310795 0.500000
Si Si2 0.465764 0.928612 0.270550
Si Si3 0.865730 0.810309 0.308501
Si Si4 0.492121 0.330408 0.605543
Si Si5 0.210128 0.122233 0.816645
Si Si6 0.278129 0.109767 0.607435
O O1 0.297715 0.273139 0.528795
O O2 0.248529 0.349004 0.604207
O O3 0.454547 0.929656 0.142404
O O4 0.467109 0.870203 0.311352
O O5 0.420714 0.957492 0.338293
O O6 0.906574 0.843426 0.375000
O O7 0.893348 0.759914 0.256880
O O8 0.838323 0.841246 0.212796
O O9 0.447120 0.289171 0.580139
O O10 0.240949 0.104281 0.710509
O O11 0.180570 0.075114 0.876959
O O12 0.250000 0.089212 0.500000
#
# Coordination Sequence:
#
# PCOD8321275 Si02
#       6
#    16  32  32  32  32  32
#     4  12  28  46  68 106 144 176 236 294 354 410
#     4  12  24  43  71 106 133 184 234 281 346 419
#     4  12  21  43  72  96 138 185 231 285 338 419
#     4  11  24  41  64 101 144 183 228 281 341 414
#     4  12  26  47  72 105 141 180 237 301 355 421
#     4  12  24  47  76 101 134 186 240 289 352 427
#
# _framework density 21.445996999999998
#
# number of rings (size 3 to 8) (size 9 to 14) (size 15 to 20)
#    0.000    0.182    8.182    0.545    2.545    2.909 
#    4.909    1.818    0.000    0.000    0.000    0.000 
#    0.000    0.000    0.000    0.000    0.000    0.000 
#
# Total GULP energy -1090776.044205 kJ/mol
# GULP energy per Si atom -12395.182321 kJ/mol
# Density = 2.139719 g / cm^3
# Si number density = 21.445997 Si / 1000 Ang^3
#
#
#
# Elastic Constant Matrix: (Units=GPa)
#
#
# Indices 1 2 3 4 5 6 
#
# 1 89.7793 28.5613 24.7802 0.0000 0.0000 0.0000
# 2 28.5613 89.7812 24.7817 0.0000 0.0000 0.0000
# 3 24.7802 24.7817 87.1103 0.0000 0.0000 0.0000
# 4 0.0000 0.0000 0.0000 27.8024 0.0000 0.0000
# 5 0.0000 0.0000 0.0000 0.0000 27.8020 0.0000
# 6 0.0000 0.0000 0.0000 0.0000 0.0000 35.1581
#
#
#
# Elastic Compliance Matrix: (Units=1/GPa)
#
#
# Indices 1 2 3 4 5 6 
#
# 1 0.012964 -0.003371 -0.002729 0.000000 0.000000 0.000000
# 2 -0.003371 0.012964 -0.002729 0.000000 0.000000 0.000000
# 3 -0.002729 -0.002729 0.013032 0.000000 0.000000 0.000000
# 4 0.000000 0.000000 0.000000 0.035968 0.000000 0.000000
# 5 0.000000 0.000000 0.000000 0.000000 0.035969 0.000000
# 6 0.000000 0.000000 0.000000 0.000000 0.000000 0.028443
#
#
# Mechanical properties :
#
#
# Convention : Reuss Voigt Hill
#
# Bulk Modulus (GPa) = 46.94299 46.99079 46.96689
# Shear Modulus (GPa) = 30.46948 30.72232 30.59590
#
# Velocity S-wave (km/s) = 3.77338 3.78900 3.78120
# Velocity P-wave (km/s) = 6.39695 6.41099 6.40397
#
# Compressibility (1/GPa) = 0.02130243
#
# Stress axis : x y z
#
# Youngs Moduli (GPa) = 77.13661 77.13767 76.73197
#
# Poissons Ratio (x) = 0.26002 0.20939
# Poissons Ratio (y) = 0.26002 0.20941
# Poissons Ratio (z) = 0.21050 0.21052
#
# Static dielectric constant tensor:
#      x y z
#    x 3.977520 0.000000 0.000000 
#    y 0.000000 3.977520 0.000000 
#    z 0.000000 0.000000 4.100260 
# 
# 
# High freq. dielectric constant tensor:
#      x y z
#    x 1.848400 0.000000 0.000000 
#    y 0.000000 1.848400 0.000000 
#    z 0.000000 0.000000 1.831390 
# 
# From -- ./inp_files/4114.got.cif
#   From: 2010.03.12/outbox.cif.g09.slc.cpg/sg142_3_cif.got.tgz:4114.got - 2010.04.03 13:27:16.
