data_PCOD8321629
_publ_section_title
;
Structure prediction by ZEFSAII (Michael W. Deem and Ramdas Pophale) SiO2 
 PCOD8321629
Probable space group: P -3
;
_chemical_formula_sum "Si O2"
_cell_formula_units_Z 42
_cell_length_a 8.841875
_cell_length_b 8.841875
_cell_length_c 29.809268
_cell_angle_alpha 90.000000
_cell_angle_beta 90.000000
_cell_angle_gamma 120.000000
_cell_volume 2018.230128
_symmetry_space_group_name_H-M "P -3"
_symmetry_group_IT_number 147
_symmetry_cell_setting 'hexagonal'
loop_
_space_group_symop_operation_xyz
x,y,z
-y,x-y,z
-x+y,-x,z
-x,-y,-z
y,-x+y,-z
x-y,x,-z
loop_
_atom_site_type_symbol
_atom_site_label
_atom_site_fract_x
_atom_site_fract_y
_atom_site_fract_z
Si Si1 0.321927 0.985495 0.208627
Si Si2 0.660603 0.675132 0.757301
Si Si3 0.323426 0.983904 0.654020
Si Si4 0.308555 0.847137 0.112878
Si Si5 0.338891 0.322255 0.516912
Si Si6 0.321883 0.983256 0.379927
Si Si7 0.987542 0.663283 0.982851
O O1 0.324003 0.165321 0.214254
O O2 0.500301 0.000802 0.224448
O O3 0.169795 0.836037 0.238202
O O4 0.290570 0.942212 0.156206
O O5 0.630003 0.703020 0.705703
O O6 0.166080 0.838089 0.625126
O O7 0.499994 0.000535 0.636293
O O8 0.328287 0.166434 0.649614
O O9 0.151361 0.644758 0.112838
O O10 0.294163 0.944555 0.069610
O O11 0.500000 0.500000 0.500000
O O12 0.328266 0.166427 0.487503
O O13 0.365419 0.290049 0.568485
O O14 0.839096 0.670018 0.011642
O O15 0.000000 0.500000 0.000000
#
# Coordination Sequence:
#
# PCOD8321629 Si02
#       7
#     6   6   6   6   6   6   6
#     4  12  25  43  70  97 135 175 222 276 335 396
#     4  12  24  44  66 101 130 176 221 273 333 400
#     4  12  25  43  67  95 135 170 220 271 329 399
#     4  10  20  44  71  98 136 179 227 278 340 393
#     4  12  25  44  67  96 129 170 218 272 326 395
#     4  12  25  44  67  96 130 173 216 270 333 391
#     4  12  24  43  71 105 142 184 229 284 340 403
#
# _framework density 20.810313000000001
#
# number of rings (size 3 to 8) (size 9 to 14) (size 15 to 20)
#    0.286    0.000    2.857    7.714    0.000    2.286 
#    0.000    0.000    0.000    0.000    0.000    0.000 
#    0.000    0.000    0.000    0.000    0.000    0.000 
#
# Total GULP energy -521127.858606 kJ/mol
# GULP energy per Si atom -12407.806157 kJ/mol
# Density = 2.076295 g / cm^3
# Si number density = 20.810313 Si / 1000 Ang^3
#
#
#
# Elastic Constant Matrix: (Units=GPa)
#
#
# Indices 1 2 3 4 5 6 
#
# 1 139.5206 55.1637 16.3757 6.9029 -0.3808 0.0000
# 2 55.1637 139.5206 16.3757 -6.9029 0.3808 0.0000
# 3 16.3757 16.3757 140.1181 0.0000 0.0000 0.0000
# 4 6.9029 -6.9029 0.0000 20.4533 0.0000 0.3808
# 5 -0.3808 0.3808 0.0000 0.0000 20.4533 6.9029
# 6 0.0000 0.0000 0.0000 0.3808 6.9029 42.1784
#
#
#
# Elastic Compliance Matrix: (Units=1/GPa)
#
#
# Indices 1 2 3 4 5 6 
#
# 1 0.008895 -0.003655 -0.000612 -0.004235 0.000234 0.000000
# 2 -0.003655 0.008895 -0.000612 0.004235 -0.000234 0.000000
# 3 -0.000612 -0.000612 0.007280 0.000000 0.000000 0.000000
# 4 -0.004235 0.004235 0.000000 0.051760 0.000000 -0.000467
# 5 0.000234 -0.000234 0.000000 0.000000 0.051760 -0.008471
# 6 0.000000 0.000000 0.000000 -0.000467 -0.008471 0.025099
#
#
# Mechanical properties :
#
#
# Convention : Reuss Voigt Hill
#
# Bulk Modulus (GPa) = 65.31831 66.10995 65.71413
# Shear Modulus (GPa) = 29.66469 38.69993 34.18231
#
# Velocity S-wave (km/s) = 3.77965 4.31705 4.05725
# Velocity P-wave (km/s) = 7.10657 7.52901 7.32084
#
# Compressibility (1/GPa) = 0.01530964
#
# Stress axis : x y z
#
# Youngs Moduli (GPa) = 112.42760 112.42760 137.36328
#
# Poissons Ratio (x) = 0.41093 0.08411
# Poissons Ratio (y) = 0.41093 0.08411
# Poissons Ratio (z) = 0.06884 0.06884
#
# Static dielectric constant tensor:
#      x y z
#    x 3.931620 0.000000 0.000000 
#    y 0.000000 3.931620 0.000000 
#    z 0.000000 0.000000 3.851710 
# 
# 
# High freq. dielectric constant tensor:
#      x y z
#    x 1.825170 0.000000 0.000000 
#    y 0.000000 1.825170 0.000000 
#    z 0.000000 0.000000 1.830910 
# 
# From -- ./inp_files/1132.got.cif
#   From: 2010.03.12/outbox.cif.g09.slc.cpg/sg147_cif.got.tgz:1132.got - 2010.04.03 13:37:56.
