data_PCOD8321428
_publ_section_title
;
Structure prediction by ZEFSAII (Michael W. Deem and Ramdas Pophale) SiO2 
 PCOD8321428
Probable space group: P 31
;
_chemical_formula_sum "Si O2"
_cell_formula_units_Z 21
_cell_length_a 8.746227
_cell_length_b 8.746227
_cell_length_c 13.422418
_cell_angle_alpha 90.000000
_cell_angle_beta 90.000000
_cell_angle_gamma 120.000000
_cell_volume 889.207016
_symmetry_space_group_name_H-M "P 31"
_symmetry_group_IT_number 144
_symmetry_cell_setting 'hexagonal'
loop_
_space_group_symop_operation_xyz
x,y,z
-y,x-y,1/3+z
-x+y,-x,2/3+z
loop_
_atom_site_type_symbol
_atom_site_label
_atom_site_fract_x
_atom_site_fract_y
_atom_site_fract_z
Si Si1 0.786619 0.305280 0.959180
Si Si2 0.569918 0.726525 0.365179
Si Si3 0.225468 0.120160 0.343684
Si Si4 0.640205 0.455139 0.808682
Si Si5 0.885847 0.064401 0.447807
Si Si6 0.383826 0.412909 0.494389
Si Si7 0.116063 0.478222 0.604574
O O1 0.766946 0.449746 0.895498
O O2 0.657890 0.112733 0.914883
O O3 0.717264 0.284980 0.073481
O O4 0.991135 0.357202 0.955611
O O5 0.720667 0.920166 0.387983
O O6 0.512797 0.617669 0.468361
O O7 0.404859 0.741854 0.320651
O O8 0.169456 0.137336 0.232627
O O9 0.365534 0.311291 0.389682
O O10 0.313087 0.993915 0.350969
O O11 0.055396 0.051503 0.414757
O O12 0.486785 0.469879 0.868700
O O13 0.755761 0.641165 0.750980
O O14 0.201954 0.393356 0.533074
#
# Coordination Sequence:
#
# PCOD8321428 Si02
#       7
#     3   3   3   3   3   3   3
#     4  12  27  50  74 109 154 203 259 314 386 462
#     4  12  28  44  74 114 145 198 253 320 382 459
#     4  11  24  53  70 105 153 202 253 311 389 459
#     4  11  25  51  75 106 152 208 253 312 392 465
#     4  11  26  44  79 104 150 203 250 312 384 470
#     4  12  27  47  73 110 149 191 252 321 376 460
#     4  11  27  47  75 110 151 197 252 322 385 465
#
# _framework density 23.616548999999999
#
# number of rings (size 3 to 8) (size 9 to 14) (size 15 to 20)
#    0.000    0.571    4.286    3.429   10.000    1.143 
#    0.000    0.000    0.000    0.000    0.000    0.000 
#    0.000    0.000    0.000    0.000    0.000    0.000 
#
# Total GULP energy -260378.330424 kJ/mol
# GULP energy per Si atom -12398.968115 kJ/mol
# Density = 2.356280 g / cm^3
# Si number density = 23.616549 Si / 1000 Ang^3
#
#
#
# Elastic Constant Matrix: (Units=GPa)
#
#
# Indices 1 2 3 4 5 6 
#
# 1 111.0752 39.7727 26.4799 -0.9299 -6.1752 0.0000
# 2 39.7727 111.0752 26.4799 0.9299 6.1752 0.0000
# 3 26.4799 26.4799 86.0626 0.0000 0.0000 0.0000
# 4 -0.9299 0.9299 0.0000 37.4663 0.0000 6.1752
# 5 -6.1752 6.1752 0.0000 0.0000 37.4663 -0.9299
# 6 0.0000 0.0000 0.0000 6.1752 -0.9299 35.6513
#
#
#
# Elastic Compliance Matrix: (Units=1/GPa)
#
#
# Indices 1 2 3 4 5 6 
#
# 1 0.010939 -0.003507 -0.002287 0.000359 0.002381 0.000000
# 2 -0.003507 0.010939 -0.002287 -0.000359 -0.002381 0.000000
# 3 -0.002287 -0.002287 0.013027 0.000000 0.000000 0.000000
# 4 0.000359 -0.000359 0.000000 0.027493 0.000000 -0.004762
# 5 0.002381 -0.002381 0.000000 0.000000 0.027493 0.000717
# 6 0.000000 0.000000 0.000000 -0.004762 0.000717 0.028893
#
#
# Mechanical properties :
#
#
# Convention : Reuss Voigt Hill
#
# Bulk Modulus (GPa) = 53.35090 54.85314 54.10202
# Shear Modulus (GPa) = 35.41223 36.48215 35.94719
#
# Velocity S-wave (km/s) = 3.87650 3.93462 3.90567
# Velocity P-wave (km/s) = 6.53267 6.62711 6.58006
#
# Compressibility (1/GPa) = 0.01874383
#
# Stress axis : x y z
#
# Youngs Moduli (GPa) = 91.41377 91.41377 76.76598
#
# Poissons Ratio (x) = 0.32061 0.17554
# Poissons Ratio (y) = 0.32061 0.17554
# Poissons Ratio (z) = 0.20904 0.20904
#
# Static dielectric constant tensor:
#      x y z
#    x 4.299160 0.000000 0.000000 
#    y 0.000000 4.299160 0.000000 
#    z 0.000000 0.000000 4.094550 
# 
# 
# High freq. dielectric constant tensor:
#      x y z
#    x 1.945060 0.000000 0.000000 
#    y 0.000000 1.945060 0.000000 
#    z 0.000000 0.000000 1.927940 
# 
# From -- ./inp_files/598.got.cif
#   From: 2010.03.12/outbox.cif.g09.slc.cpg/sg144_cif.got.tgz:598.got - 2010.04.03 13:34:42.
