data_PCOD8321689
_publ_section_title
;
Structure prediction by ZEFSAII (Michael W. Deem and Ramdas Pophale) SiO2 
 PCOD8321689
Probable space group: R -3
;
_chemical_formula_sum "Si O2"
_cell_formula_units_Z 126
_cell_length_a 21.810279
_cell_length_b 21.810279
_cell_length_c 18.435129
_cell_angle_alpha 90.000000
_cell_angle_beta 90.000000
_cell_angle_gamma 120.000000
_cell_volume 7594.501198
_symmetry_space_group_name_H-M "R -3"
_symmetry_group_IT_number 148
_symmetry_cell_setting 'hexagonal'
loop_
_space_group_symop_operation_xyz
x,y,z
-y,x-y,z
-x+y,-x,z
-x,-y,-z
y,-x+y,-z
x-y,x,-z
2/3+x,1/3+y,1/3+z
2/3-y,1/3+x-y,1/3+z
2/3-x+y,1/3-x,1/3+z
2/3-x,1/3-y,1/3-z
2/3+y,1/3-x+y,1/3-z
2/3+x-y,1/3+x,1/3-z
1/3+x,2/3+y,2/3+z
1/3-y,2/3+x-y,2/3+z
1/3-x+y,2/3-x,2/3+z
1/3-x,2/3-y,2/3-z
1/3+y,2/3-x+y,2/3-z
1/3+x-y,2/3+x,2/3-z
loop_
_atom_site_type_symbol
_atom_site_label
_atom_site_fract_x
_atom_site_fract_y
_atom_site_fract_z
Si Si1 0.859856 0.860271 0.785788
Si Si2 0.473062 0.806811 0.452454
Si Si3 0.563749 0.711516 0.739445
Si Si4 0.666667 0.691205 0.833333
Si Si5 0.958887 0.549254 0.072176
Si Si6 0.621818 0.102918 0.406112
Si Si7 0.257033 0.882587 0.405509
O O1 0.942615 0.885229 0.785962
O O2 0.831111 0.838227 0.867418
O O3 0.816382 0.792934 0.732229
O O4 0.849939 0.924969 0.757935
O O5 0.495106 0.835555 0.534085
O O6 0.540400 0.850285 0.398896
O O7 0.636707 0.718924 0.768947
O O8 0.539916 0.666667 0.666667
O O9 0.579352 0.789676 0.721284
O O10 0.605870 0.616448 0.863431
O O11 0.696627 0.748883 0.897720
O O12 0.727463 0.677244 0.803234
O O13 0.975558 0.487779 0.093401
O O14 0.000000 0.588969 0.000000
#
# Coordination Sequence:
#
# PCOD8321689 Si02
#       7
#    18  18  18  18  18  18  18
#     4   9  17  29  46  68  93 122 154 186 221 264
#     4   9  17  29  46  68  93 122 154 186 221 264
#     4  10  19  30  45  66  94 124 153 185 222 264
#     4  10  19  32  48  68  88 116 153 188 224 266
#     4   9  18  33  49  65  89 118 147 183 227 269
#     4  10  19  30  45  66  94 124 153 185 222 264
#     4   9  18  33  49  65  89 118 147 183 227 269
#
# _framework density 16.590952000000001
#
# number of rings (size 3 to 8) (size 9 to 14) (size 15 to 20)
#    0.000    2.571    0.000    2.429    0.000    2.286 
#    0.000    1.429    0.000    4.571    0.000    0.000 
#    0.000    0.000    0.000   21.000    0.000    0.000 
#
# Total GULP energy -520720.100733 kJ/mol
# GULP energy per Si atom -12398.097637 kJ/mol
# Density = 1.655319 g / cm^3
# Si number density = 16.590952 Si / 1000 Ang^3
#
#
#
# Elastic Constant Matrix: (Units=GPa)
#
#
# Indices 1 2 3 4 5 6 
#
# 1 94.7841 48.5538 51.1972 -0.0905 0.0001 0.0000
# 2 48.5538 94.7841 51.1972 0.0905 -0.0001 0.0000
# 3 51.1972 51.1972 81.7270 0.0000 0.0000 0.0000
# 4 -0.0905 0.0905 0.0000 25.4285 0.0000 -0.0001
# 5 0.0001 -0.0001 0.0000 0.0000 25.4285 -0.0905
# 6 0.0000 0.0000 0.0000 -0.0001 -0.0905 23.1151
#
#
#
# Elastic Compliance Matrix: (Units=1/GPa)
#
#
# Indices 1 2 3 4 5 6 
#
# 1 0.017129 -0.004502 -0.007910 0.000077 0.000000 0.000000
# 2 -0.004502 0.017129 -0.007910 -0.000077 0.000000 0.000000
# 3 -0.007910 -0.007910 0.022146 0.000000 0.000000 0.000000
# 4 0.000077 -0.000077 0.000000 0.039327 0.000000 0.000000
# 5 0.000000 0.000000 0.000000 0.000000 0.039327 0.000154
# 6 0.000000 0.000000 0.000000 0.000000 0.000154 0.043262
#
#
# Mechanical properties :
#
#
# Convention : Reuss Voigt Hill
#
# Bulk Modulus (GPa) = 63.45170 63.68796 63.56983
# Shear Modulus (GPa) = 22.29970 22.81756 22.55863
#
# Velocity S-wave (km/s) = 3.67016 3.71253 3.69140
# Velocity P-wave (km/s) = 7.50252 7.53974 7.52115
#
# Compressibility (1/GPa) = 0.01576002
#
# Stress axis : x y z
#
# Youngs Moduli (GPa) = 58.37987 58.37987 45.15397
#
# Poissons Ratio (x) = 0.26282 0.35718
# Poissons Ratio (y) = 0.26282 0.35718
# Poissons Ratio (z) = 0.46180 0.46180
#
# Static dielectric constant tensor:
#      x y z
#    x 3.265220 0.000000 0.000000 
#    y 0.000000 3.265220 0.000000 
#    z 0.000000 0.000000 2.917380 
# 
# 
# High freq. dielectric constant tensor:
#      x y z
#    x 1.646990 0.000000 0.000000 
#    y 0.000000 1.646990 0.000000 
#    z 0.000000 0.000000 1.611750 
# 
# From -- ./inp_files/2810.got.cif
#   From: 2010.03.12/outbox.cif.g09.slc.cpg/sg148_2_cif.got.tgz:2810.got - 2010.04.03 13:38:46.
