data_PCOD8321294
_publ_section_title
;
Structure prediction by ZEFSAII (Michael W. Deem and Ramdas Pophale) SiO2 
 PCOD8321294
Probable space group: I 41/A C D
;
_chemical_formula_sum "Si O2"
_cell_formula_units_Z 160
_cell_length_a 17.450349
_cell_length_b 17.450349
_cell_length_c 24.535732
_cell_angle_alpha 90.000000
_cell_angle_beta 90.000000
_cell_angle_gamma 90.000000
_cell_volume 7471.490584
_symmetry_space_group_name_H-M "I 41/A C D"
_symmetry_group_IT_number 142
_space_group.IT_coordinate_system_code '2'
_symmetry_cell_setting 'tetragonal'
loop_
_space_group_symop_operation_xyz
x,y,z
1/4-y,3/4+x,1/4+z
-x,1/2-y,z
1/4+y,1/4-x,3/4+z
x,-y,1/2-z
1/2-x,y,-z
3/4+y,1/4+x,1/4-z
1/4-y,1/4-x,1/4-z
-x,-y,-z
3/4+y,1/4-x,3/4-z
x,1/2+y,-z
3/4-y,3/4+x,1/4-z
-x,y,1/2+z
1/2+x,-y,z
1/4-y,3/4-x,3/4+z
3/4+y,3/4+x,3/4+z
1/2+x,1/2+y,1/2+z
3/4-y,1/4+x,3/4+z
1/2-x,-y,1/2+z
3/4+y,3/4-x,1/4+z
1/2+x,1/2-y,-z
-x,1/2+y,1/2-z
1/4+y,3/4+x,3/4-z
3/4-y,3/4-x,3/4-z
1/2-x,1/2-y,1/2-z
1/4+y,3/4-x,1/4-z
1/2+x,y,1/2-z
1/4-y,1/4+x,3/4-z
1/2-x,1/2+y,z
x,1/2-y,1/2+z
3/4-y,1/4-x,1/4+z
1/4+y,1/4+x,1/4+z
loop_
_atom_site_type_symbol
_atom_site_label
_atom_site_fract_x
_atom_site_fract_y
_atom_site_fract_z
Si Si1 0.066754 0.053568 0.522711
Si Si2 0.958558 0.328905 0.065007
Si Si3 0.821537 0.844312 0.539997
Si Si4 0.832995 0.325862 0.975228
Si Si5 0.329728 0.463240 0.602238
O O1 0.108039 0.098969 0.473616
O O2 0.026692 0.109728 0.565800
O O3 0.136127 0.012645 0.553265
O O4 0.000000 0.000000 0.500000
O O5 0.921209 0.328792 0.125000
O O6 0.000000 0.250000 0.050105
O O7 0.895497 0.353818 0.019815
O O8 0.750000 0.853198 0.500000
O O9 0.856871 0.759501 0.541639
O O10 0.788554 0.860101 0.599339
O O11 0.823444 0.377917 0.921664
O O12 0.750000 0.324588 0.000000
O O13 0.249401 0.499401 0.625000
#
# Coordination Sequence:
#
# PCOD8321294 Si02
#       5
#    32  32  32  32  32
#     4  12  26  46  74 106 142 191 242 302 373 435
#     4  11  25  44  73 104 144 189 244 302 359 448
#     4  11  26  48  71 100 146 186 240 300 364 444
#     4  11  27  47  68 104 141 190 237 297 363 434
#     4  12  28  45  73 104 144 190 240 299 372 436
#
# _framework density 21.414735
#
# number of rings (size 3 to 8) (size 9 to 14) (size 15 to 20)
#    0.000    0.600    6.000    0.000   14.000    0.800 
#    0.000    0.000    0.000    0.000    0.000    0.000 
#    0.000    0.000    0.000    0.000    0.000    0.000 
#
# Total GULP energy -991886.424332 kJ/mol
# GULP energy per Si atom -12398.580304 kJ/mol
# Density = 2.136599 g / cm^3
# Si number density = 21.414735 Si / 1000 Ang^3
#
#
#
# Elastic Constant Matrix: (Units=GPa)
#
#
# Indices 1 2 3 4 5 6 
#
# 1 101.5262 49.6735 35.3109 0.0000 0.0000 0.0000
# 2 49.6735 101.5260 35.3108 0.0000 0.0000 0.0000
# 3 35.3109 35.3108 106.2921 0.0000 0.0000 0.0000
# 4 0.0000 0.0000 0.0000 33.3637 0.0000 0.0000
# 5 0.0000 0.0000 0.0000 0.0000 33.3641 0.0000
# 6 0.0000 0.0000 0.0000 0.0000 0.0000 42.1256
#
#
#
# Elastic Compliance Matrix: (Units=1/GPa)
#
#
# Indices 1 2 3 4 5 6 
#
# 1 0.013557 -0.005728 -0.002601 0.000000 0.000000 0.000000
# 2 -0.005728 0.013557 -0.002601 0.000000 0.000000 0.000000
# 3 -0.002601 -0.002601 0.011136 0.000000 0.000000 0.000000
# 4 0.000000 0.000000 0.000000 0.029973 0.000000 0.000000
# 5 0.000000 0.000000 0.000000 0.000000 0.029972 0.000000
# 6 0.000000 0.000000 0.000000 0.000000 0.000000 0.023739
#
#
# Mechanical properties :
#
#
# Convention : Reuss Voigt Hill
#
# Bulk Modulus (GPa) = 61.01190 61.10386 61.05788
# Shear Modulus (GPa) = 33.49938 34.37395 33.93666
#
# Velocity S-wave (km/s) = 3.95943 4.01078 3.98519
# Velocity P-wave (km/s) = 7.03244 7.07418 7.05334
#
# Compressibility (1/GPa) = 0.01639025
#
# Stress axis : x y z
#
# Youngs Moduli (GPa) = 73.76293 73.76276 89.79928
#
# Poissons Ratio (x) = 0.42255 0.23354
# Poissons Ratio (y) = 0.42255 0.23354
# Poissons Ratio (z) = 0.19183 0.19183
#
# Static dielectric constant tensor:
#      x y z
#    x 4.483010 0.000000 0.000000 
#    y 0.000000 4.483000 0.000000 
#    z 0.000000 0.000000 3.725750 
# 
# 
# High freq. dielectric constant tensor:
#      x y z
#    x 1.850930 0.000000 0.000000 
#    y 0.000000 1.850930 0.000000 
#    z 0.000000 0.000000 1.837380 
# 
# From -- ./inp_files/11298.got.cif
#   From: 2010.03.12/outbox.cif.g09.slc.cpg/sg142_6_cif.got.tgz:11298.got - 2010.04.03 13:27:16.
