data_PCOD8321607
_publ_section_title
;
Structure prediction by ZEFSAII (Michael W. Deem and Ramdas Pophale) SiO2 
 PCOD8321607
Probable space group: P -3
;
_chemical_formula_sum "Si O2"
_cell_formula_units_Z 36
_cell_length_a 12.588782
_cell_length_b 12.588782
_cell_length_c 15.669741
_cell_angle_alpha 90.000000
_cell_angle_beta 90.000000
_cell_angle_gamma 120.000000
_cell_volume 2150.601160
_symmetry_space_group_name_H-M "P -3"
_symmetry_group_IT_number 147
_symmetry_cell_setting 'hexagonal'
loop_
_space_group_symop_operation_xyz
x,y,z
-y,x-y,z
-x+y,-x,z
-x,-y,-z
y,-x+y,-z
x-y,x,-z
loop_
_atom_site_type_symbol
_atom_site_label
_atom_site_fract_x
_atom_site_fract_y
_atom_site_fract_z
Si Si1 0.667685 0.085945 0.160036
Si Si2 0.250354 0.249311 0.315580
Si Si3 0.000000 0.247986 0.000000
Si Si4 0.750689 0.749646 0.315580
Si Si5 0.755644 0.755644 0.500000
Si Si6 0.581740 0.914055 0.839964
O O1 0.666203 0.017615 0.247031
O O2 0.686397 0.015715 0.082042
O O3 0.538748 0.077496 0.148563
O O4 0.772408 0.227592 0.162481
O O5 0.128919 0.257838 0.300234
O O6 0.313556 0.301429 0.409866
O O7 0.215042 0.107521 0.305350
O O8 0.115590 0.231179 0.016108
O O9 0.984285 0.313603 0.082042
O O10 0.698571 0.686444 0.409867
O O11 0.666203 0.648587 0.247031
O O12 0.887869 0.775739 0.516083
#
# Coordination Sequence:
#
# PCOD8321607 Si02
#       6
#     6   6   6   6   6   6
#     4  10  20  33  48  66  91 125 162 194 222 260
#     4   9  16  27  46  71  97 122 150 190 239 287
#     4  10  20  34  54  78 100 118 140 180 234 286
#     4   9  16  27  46  71  97 122 150 190 239 287
#     4   8  13  22  39  66  96 122 148 182 232 288
#     4  10  20  33  48  66  91 125 162 194 222 260
#
# _framework density 16.739505999999999
#
# number of rings (size 3 to 8) (size 9 to 14) (size 15 to 20)
#    0.000    2.667    0.000    2.500    0.000    2.667 
#    0.000    4.167    0.000    7.333    0.000    0.000 
#    0.000    0.000    0.000    0.000    0.000    0.000 
#
# Total GULP energy -446075.412180 kJ/mol
# GULP energy per Si atom -12390.983672 kJ/mol
# Density = 1.670141 g / cm^3
# Si number density = 16.739506 Si / 1000 Ang^3
#
#
#
# Elastic Constant Matrix: (Units=GPa)
#
#
# Indices 1 2 3 4 5 6 
#
# 1 86.0887 58.9045 63.2293 -1.2261 0.0000 0.0000
# 2 58.9045 86.0887 63.2293 1.2261 0.0000 0.0000
# 3 63.2293 63.2293 157.3102 0.0000 0.0000 0.0000
# 4 -1.2261 1.2261 0.0000 12.4991 0.0000 0.0000
# 5 0.0000 0.0000 0.0000 0.0000 12.4991 -1.2261
# 6 0.0000 0.0000 0.0000 0.0000 -1.2261 13.5921
#
#
#
# Elastic Compliance Matrix: (Units=1/GPa)
#
#
# Indices 1 2 3 4 5 6 
#
# 1 0.023867 -0.013247 -0.004268 0.003641 0.000000 0.000000
# 2 -0.013247 0.023867 -0.004268 -0.003641 0.000000 0.000000
# 3 -0.004268 -0.004268 0.009788 0.000000 0.000000 0.000000
# 4 0.003641 -0.003641 0.000000 0.080720 0.000000 0.000000
# 5 0.000000 0.000000 0.000000 0.000000 0.080720 0.007281
# 6 0.000000 0.000000 0.000000 0.000000 0.007281 0.074229
#
#
# Mechanical properties :
#
#
# Convention : Reuss Voigt Hill
#
# Bulk Modulus (GPa) = 71.66563 77.80156 74.73359
# Shear Modulus (GPa) = 14.64510 17.32637 15.98574
#
# Velocity S-wave (km/s) = 2.96105 3.22072 3.09361
# Velocity P-wave (km/s) = 7.38889 7.77235 7.58304
#
# Compressibility (1/GPa) = 0.01395369
#
# Stress axis : x y z
#
# Youngs Moduli (GPa) = 41.89866 41.89866 102.16357
#
# Poissons Ratio (x) = 0.55505 0.43608
# Poissons Ratio (y) = 0.55505 0.43608
# Poissons Ratio (z) = 0.17884 0.17884
#
# Static dielectric constant tensor:
#      x y z
#    x 2.882660 0.000000 0.000000 
#    y 0.000000 2.882660 0.000000 
#    z 0.000000 0.000000 3.551860 
# 
# 
# High freq. dielectric constant tensor:
#      x y z
#    x 1.620950 0.000000 0.000000 
#    y 0.000000 1.620950 0.000000 
#    z 0.000000 0.000000 1.677030 
# 
# From -- ./inp_files/918.got.cif
#   From: 2010.03.12/outbox.cif.g09.slc.cpg/sg147_cif.got.tgz:918.got - 2010.04.03 13:37:56.
