data_PCOD8321291
_publ_section_title
;
Structure prediction by ZEFSAII (Michael W. Deem and Ramdas Pophale) SiO2 
 PCOD8321291
Probable space group: I 41/A C D
;
_chemical_formula_sum "Si O2"
_cell_formula_units_Z 192
_cell_length_a 16.935673
_cell_length_b 16.935673
_cell_length_c 30.263611
_cell_angle_alpha 90.000000
_cell_angle_beta 90.000000
_cell_angle_gamma 90.000000
_cell_volume 8680.118720
_symmetry_space_group_name_H-M "I 41/A C D"
_symmetry_group_IT_number 142
_space_group.IT_coordinate_system_code '2'
_symmetry_cell_setting 'tetragonal'
loop_
_space_group_symop_operation_xyz
x,y,z
1/4-y,3/4+x,1/4+z
-x,1/2-y,z
1/4+y,1/4-x,3/4+z
x,-y,1/2-z
1/2-x,y,-z
3/4+y,1/4+x,1/4-z
1/4-y,1/4-x,1/4-z
-x,-y,-z
3/4+y,1/4-x,3/4-z
x,1/2+y,-z
3/4-y,3/4+x,1/4-z
-x,y,1/2+z
1/2+x,-y,z
1/4-y,3/4-x,3/4+z
3/4+y,3/4+x,3/4+z
1/2+x,1/2+y,1/2+z
3/4-y,1/4+x,3/4+z
1/2-x,-y,1/2+z
3/4+y,3/4-x,1/4+z
1/2+x,1/2-y,-z
-x,1/2+y,1/2-z
1/4+y,3/4+x,3/4-z
3/4-y,3/4-x,3/4-z
1/2-x,1/2-y,1/2-z
1/4+y,3/4-x,1/4-z
1/2+x,y,1/2-z
1/4-y,1/4+x,3/4-z
1/2-x,1/2+y,z
x,1/2-y,1/2+z
3/4-y,1/4-x,1/4+z
1/4+y,1/4+x,1/4+z
loop_
_atom_site_type_symbol
_atom_site_label
_atom_site_fract_x
_atom_site_fract_y
_atom_site_fract_z
Si Si1 0.647643 0.141848 0.739768
Si Si2 0.889645 0.707252 0.643354
Si Si3 0.533089 0.000000 0.750000
Si Si4 0.879997 0.370004 0.125000
Si Si5 0.225995 0.159885 0.923042
Si Si6 0.472941 0.659430 0.044300
Si Si7 0.824767 0.407951 0.257076
O O1 0.614658 0.177863 0.693883
O O2 0.590703 0.074113 0.756965
O O3 0.648524 0.210061 0.776211
O O4 0.738429 0.112590 0.738924
O O5 0.910254 0.799073 0.638180
O O6 0.803639 0.693155 0.623500
O O7 0.483245 0.012641 0.705935
O O8 0.872082 0.439928 0.160632
O O9 0.959148 0.366063 0.095142
O O10 0.161314 0.093454 0.940192
O O11 0.500000 0.750000 0.039085
O O12 0.394408 0.643328 0.015245
O O13 0.847227 0.500000 0.250000
#
# Coordination Sequence:
#
# PCOD8321291 Si02
#       7
#    32  32  16  16  32  32  32
#     4  12  26  46  74 107 148 196 250 306 374 452
#     4  11  25  42  71 110 145 188 253 312 367 437
#     4  12  24  46  72 104 142 198 246 300 376 450
#     4  12  25  44  72 104 144 190 243 308 370 438
#     4  12  24  44  71 102 145 191 238 308 371 443
#     4  12  26  46  76 102 142 193 246 299 368 448
#     4  12  24  46  73 105 142 191 240 293 371 440
#
# _framework density 22.119512
#
# number of rings (size 3 to 8) (size 9 to 14) (size 15 to 20)
#    0.000    0.167    5.000    4.750    2.333    1.333 
#    0.000    0.000    3.667    0.000    0.000    0.000 
#    0.000    0.000    0.000    0.000    0.000    0.000 
#
# Total GULP energy -1189395.555714 kJ/mol
# GULP energy per Si atom -12389.537039 kJ/mol
# Density = 2.206917 g / cm^3
# Si number density = 22.119512 Si / 1000 Ang^3
#
#
#
# Elastic Constant Matrix: (Units=GPa)
#
#
# Indices 1 2 3 4 5 6 
#
# 1 112.0377 39.1497 41.0753 0.0000 0.0000 0.0000
# 2 39.1497 112.0365 41.0754 0.0000 0.0000 0.0000
# 3 41.0753 41.0754 110.6551 0.0000 0.0000 0.0000
# 4 0.0000 0.0000 0.0000 31.3691 0.0000 0.0000
# 5 0.0000 0.0000 0.0000 0.0000 31.3685 0.0000
# 6 0.0000 0.0000 0.0000 0.0000 0.0000 34.3939
#
#
#
# Elastic Compliance Matrix: (Units=1/GPa)
#
#
# Indices 1 2 3 4 5 6 
#
# 1 0.011003 -0.002717 -0.003076 0.000000 0.000000 0.000000
# 2 -0.002717 0.011003 -0.003076 0.000000 0.000000 0.000000
# 3 -0.003076 -0.003076 0.011320 0.000000 0.000000 0.000000
# 4 0.000000 0.000000 0.000000 0.031878 0.000000 0.000000
# 5 0.000000 0.000000 0.000000 0.000000 0.031879 0.000000
# 6 0.000000 0.000000 0.000000 0.000000 0.000000 0.029075
#
#
# Mechanical properties :
#
#
# Convention : Reuss Voigt Hill
#
# Bulk Modulus (GPa) = 64.14747 64.14778 64.14762
# Shear Modulus (GPa) = 33.53650 33.65490 33.59570
#
# Velocity S-wave (km/s) = 3.89800 3.90488 3.90144
# Velocity P-wave (km/s) = 7.02300 7.02810 7.02555
#
# Compressibility (1/GPa) = 0.01558908
#
# Stress axis : x y z
#
# Youngs Moduli (GPa) = 90.88772 90.88653 88.33588
#
# Poissons Ratio (x) = 0.24695 0.27168
# Poissons Ratio (y) = 0.24695 0.27169
# Poissons Ratio (z) = 0.27953 0.27953
#
# Static dielectric constant tensor:
#      x y z
#    x 4.097950 0.000000 0.000000 
#    y 0.000000 4.097960 0.000000 
#    z 0.000000 0.000000 4.439980 
# 
# 
# High freq. dielectric constant tensor:
#      x y z
#    x 1.877460 0.000000 0.000000 
#    y 0.000000 1.877460 0.000000 
#    z 0.000000 0.000000 1.879500 
# 
# From -- ./inp_files/12616.got.cif
#   From: 2010.03.12/outbox.cif.g09.slc.cpg/sg142_7_cif.got.tgz:12616.got - 2010.04.03 13:27:16.
