data_PCOD8321596
_publ_section_title
;
Structure prediction by ZEFSAII (Michael W. Deem and Ramdas Pophale) SiO2 
 PCOD8321596
Probable space group: P -3
;
_chemical_formula_sum "Si O2"
_cell_formula_units_Z 48
_cell_length_a 17.516142
_cell_length_b 17.516142
_cell_length_c 8.945187
_cell_angle_alpha 90.000000
_cell_angle_beta 90.000000
_cell_angle_gamma 120.000000
_cell_volume 2376.823705
_symmetry_space_group_name_H-M "P -3"
_symmetry_group_IT_number 147
_symmetry_cell_setting 'hexagonal'
loop_
_space_group_symop_operation_xyz
x,y,z
-y,x-y,z
-x+y,-x,z
-x,-y,-z
y,-x+y,-z
x-y,x,-z
loop_
_atom_site_type_symbol
_atom_site_label
_atom_site_fract_x
_atom_site_fract_y
_atom_site_fract_z
Si Si1 0.122898 0.366610 0.404556
Si Si2 0.187290 0.113908 0.447002
Si Si3 0.495752 0.582627 0.058336
Si Si4 0.752176 0.221550 0.331094
Si Si5 0.173314 0.289045 0.831498
Si Si6 0.077491 0.324988 0.084644
Si Si7 0.543630 0.560650 0.359398
Si Si8 0.407920 0.567634 0.777699
O O1 0.084199 0.275678 0.487645
O O2 0.209695 0.441673 0.492568
O O3 0.141097 0.355845 0.231715
O O4 0.042478 0.386119 0.417939
O O5 0.117902 0.148173 0.442339
O O6 0.208281 0.093226 0.281242
O O7 0.587088 0.670956 0.016603
O O8 0.478518 0.572146 0.239095
O O9 0.500000 0.500000 0.000000
O O10 0.417766 0.583353 0.959143
O O11 0.817458 0.202489 0.234220
O O12 0.648814 0.155422 0.299482
O O13 0.762912 0.316139 0.287504
O O14 0.257924 0.282005 0.875967
O O15 0.113289 0.277711 0.975042
O O16 0.500000 0.500000 0.500000
O O17 0.594638 0.522936 0.264170
#
# Coordination Sequence:
#
# PCOD8321596 Si02
#       8
#     6   6   6   6   6   6   6   6
#     4  10  22  40  62  92 129 167 219 282 324 395
#     4  11  24  42  64  91 127 174 220 270 339 407
#     4   9  19  35  61  86 125 163 209 264 318 385
#     4  11  22  40  62  94 133 175 223 270 337 399
#     4  11  24  40  67  97 132 174 219 280 335 402
#     4  11  22  42  63  96 133 164 221 279 333 398
#     4  10  19  36  63  90 122 160 221 273 325 385
#     4  11  21  38  61  93 128 175 215 271 330 400
#
# _framework density 20.195018000000001
#
# number of rings (size 3 to 8) (size 9 to 14) (size 15 to 20)
#    0.000    1.500    3.750    2.625    3.500    0.000 
#    0.000    3.750    0.000    1.000    0.000    0.000 
#    0.000    0.000    0.000    0.000    0.000    0.000 
#
# Total GULP energy -594719.224312 kJ/mol
# GULP energy per Si atom -12389.983840 kJ/mol
# Density = 2.014905 g / cm^3
# Si number density = 20.195018 Si / 1000 Ang^3
#
#
#
# Elastic Constant Matrix: (Units=GPa)
#
#
# Indices 1 2 3 4 5 6 
#
# 1 92.2762 32.6219 51.1471 6.6563 0.4949 0.0000
# 2 32.6219 92.2762 51.1471 -6.6563 -0.4949 0.0000
# 3 51.1471 51.1471 125.2381 0.0000 0.0000 0.0000
# 4 6.6563 -6.6563 0.0000 31.1496 0.0000 -0.4949
# 5 0.4949 -0.4949 0.0000 0.0000 31.1496 6.6563
# 6 0.0000 0.0000 0.0000 -0.4949 6.6563 29.8272
#
#
#
# Elastic Compliance Matrix: (Units=1/GPa)
#
#
# Indices 1 2 3 4 5 6 
#
# 1 0.014819 -0.002788 -0.004913 -0.003762 -0.000280 0.000000
# 2 -0.002788 0.014819 -0.004913 0.003762 0.000280 0.000000
# 3 -0.004913 -0.004913 0.011998 0.000000 0.000000 0.000000
# 4 -0.003762 0.003762 0.000000 0.033720 0.000000 0.000559
# 5 -0.000280 0.000280 0.000000 0.000000 0.033720 -0.007525
# 6 0.000000 0.000000 0.000000 0.000559 -0.007525 0.035215
#
#
# Mechanical properties :
#
#
# Convention : Reuss Voigt Hill
#
# Bulk Modulus (GPa) = 60.95323 64.40254 62.67788
# Shear Modulus (GPa) = 28.57309 30.08359 29.32834
#
# Velocity S-wave (km/s) = 3.76554 3.86379 3.81498
# Velocity P-wave (km/s) = 7.01096 7.20172 7.10698
#
# Compressibility (1/GPa) = 0.01640602
#
# Stress axis : x y z
#
# Youngs Moduli (GPa) = 67.48062 67.48062 83.34753
#
# Poissons Ratio (x) = 0.18817 0.40951
# Poissons Ratio (y) = 0.18817 0.40951
# Poissons Ratio (z) = 0.33155 0.33155
#
# Static dielectric constant tensor:
#      x y z
#    x 3.805710 0.000000 0.000000 
#    y 0.000000 3.805710 0.000000 
#    z 0.000000 0.000000 4.200190 
# 
# 
# High freq. dielectric constant tensor:
#      x y z
#    x 1.779510 0.000000 0.000000 
#    y 0.000000 1.779510 0.000000 
#    z 0.000000 0.000000 1.794580 
# 
# From -- ./inp_files/691.got.cif
#   From: 2010.03.12/outbox.cif.g09.slc.cpg/sg147_cif.got.tgz:691.got - 2010.04.03 13:37:56.
