data_PCOD8321518
_publ_section_title
;
Structure prediction by ZEFSAII (Michael W. Deem and Ramdas Pophale) SiO2 
 PCOD8321518
Probable space group: R 3
;
_chemical_formula_sum "Si O2"
_cell_formula_units_Z 72
_cell_length_a 22.452116
_cell_length_b 22.452116
_cell_length_c 8.693953
_cell_angle_alpha 90.000000
_cell_angle_beta 90.000000
_cell_angle_gamma 120.000000
_cell_volume 3795.443008
_symmetry_space_group_name_H-M "R 3"
_symmetry_group_IT_number 146
_symmetry_cell_setting 'hexagonal'
loop_
_space_group_symop_operation_xyz
x,y,z
-y,x-y,z
-x+y,-x,z
2/3+x,1/3+y,1/3+z
2/3-y,1/3+x-y,1/3+z
2/3-x+y,1/3-x,1/3+z
1/3+x,2/3+y,2/3+z
1/3-y,2/3+x-y,2/3+z
1/3-x+y,2/3-x,2/3+z
loop_
_atom_site_type_symbol
_atom_site_label
_atom_site_fract_x
_atom_site_fract_y
_atom_site_fract_z
Si Si1 0.358737 0.406067 0.850030
Si Si2 0.187793 0.581287 0.793490
Si Si3 0.213930 0.373377 0.731773
Si Si4 0.053895 0.966590 0.452639
Si Si5 0.724829 0.955050 0.517351
Si Si6 0.065446 0.546861 0.626072
Si Si7 0.608009 0.189963 0.314965
Si Si8 0.795950 0.490719 0.042987
O O1 0.283556 0.390778 0.815017
O O2 0.356384 0.334382 0.882998
O O3 0.409452 0.445471 0.709848
O O4 0.386214 0.453063 0.002987
O O5 0.107455 0.526598 0.748549
O O6 0.240288 0.568710 0.691467
O O7 0.204514 0.658706 0.755934
O O8 0.196056 0.576082 0.975355
O O9 0.202518 0.323703 0.586915
O O10 0.152993 0.331929 0.860760
O O11 0.217432 0.443428 0.678821
O O12 0.969662 0.922118 0.446629
O O13 0.071219 0.941833 0.612454
O O14 0.800940 0.993812 0.593074
O O15 0.123968 0.591278 0.504359
O O16 0.629276 0.199773 0.133820
#
# Coordination Sequence:
#
# PCOD8321518 Si02
#       8
#     9   9   9   9   9   9   9   9
#     4  12  18  30  52  75 111 149 180 230 292 349
#     4  11  20  37  56  83 107 157 185 237 285 347
#     4  11  20  37  49  84 113 150 188 236 292 350
#     4  10  21  35  52  78 115 158 189 239 283 340
#     4  11  21  30  52  78 117 151 182 237 293 350
#     4  10  22  34  54  79 112 147 196 230 288 355
#     4  11  22  36  58  76 117 147 196 235 285 349
#     4  10  22  33  49  81 112 153 192 232 284 348
#
# _framework density 18.970116999999998
#
# number of rings (size 3 to 8) (size 9 to 14) (size 15 to 20)
#    0.250    1.000    6.250    1.750    3.500    0.000 
#    0.000    0.000    0.000    0.000    0.000    7.000 
#    0.000    0.000    0.000    0.000    0.000    0.000 
#
# Total GULP energy -297334.796438 kJ/mol
# GULP energy per Si atom -12388.949852 kJ/mol
# Density = 1.892694 g / cm^3
# Si number density = 18.970117 Si / 1000 Ang^3
#
#
#
# Elastic Constant Matrix: (Units=GPa)
#
#
# Indices 1 2 3 4 5 6 
#
# 1 48.0605 -1.7028 16.7542 9.7914 3.7175 0.0007
# 2 -1.7028 48.0468 16.7814 -9.7761 -3.6628 0.0040
# 3 16.7542 16.7814 109.6313 -0.0388 -0.1249 -0.0072
# 4 9.7914 -9.7761 -0.0388 23.1548 -0.0422 -3.7110
# 5 3.7175 -3.6628 -0.1249 -0.0422 23.0330 9.7812
# 6 0.0007 0.0040 -0.0072 -3.7110 9.7812 24.8816
#
#
#
# Elastic Compliance Matrix: (Units=1/GPa)
#
#
# Indices 1 2 3 4 5 6 
#
# 1 0.024548 -0.000279 -0.003717 -0.010508 -0.004057 0.000026
# 2 -0.000279 0.024529 -0.003704 0.010477 0.003941 0.000008
# 3 -0.003717 -0.003704 0.010257 0.000022 0.000076 -0.000023
# 4 -0.010508 0.010477 0.000022 0.053323 0.000100 0.007912
# 5 -0.004057 0.003941 0.000076 0.000100 0.053648 -0.021075
# 6 0.000026 0.000008 -0.000023 0.007912 -0.021075 0.049655
#
#
# Mechanical properties :
#
#
# Convention : Reuss Voigt Hill
#
# Bulk Modulus (GPa) = 22.76184 29.93382 26.34783
# Shear Modulus (GPa) = 20.32495 25.80759 23.06627
#
# Velocity S-wave (km/s) = 3.27680 3.69241 3.49080
# Velocity P-wave (km/s) = 5.13239 5.83028 5.49243
#
# Compressibility (1/GPa) = 0.04393319
#
# Stress axis : x y z
#
# Youngs Moduli (GPa) = 40.73733 40.76820 97.49843
#
# Poissons Ratio (x) = 0.01138 0.36241
# Poissons Ratio (y) = 0.01137 0.36112
# Poissons Ratio (z) = 0.15142 0.15100
#
# Static dielectric constant tensor:
#      x y z
#    x 3.419030 0.000010 -0.000030 
#    y 0.000010 3.419030 -0.000010 
#    z -0.000030 -0.000010 3.981260 
# 
# 
# High freq. dielectric constant tensor:
#      x y z
#    x 1.698170 0.000000 0.000000 
#    y 0.000000 1.698170 0.000000 
#    z 0.000000 0.000000 1.764090 
# 
# From -- ./inp_files/939.got.cif
#   From: 2010.06.25/outbox.cif.g09.slc.cpg/sg146_cif.got.tgz:939.got - 2010.06.28 11:17:22.
