data_PCOD8321185
_publ_section_title
;
Structure prediction by ZEFSAII (Michael W. Deem and Ramdas Pophale) SiO2 
 PCOD8321185
Probable space group: I 41/A C D
;
_chemical_formula_sum "Si O2"
_cell_formula_units_Z 176
_cell_length_a 18.091665
_cell_length_b 18.091665
_cell_length_c 26.803037
_cell_angle_alpha 90.000000
_cell_angle_beta 90.000000
_cell_angle_gamma 90.000000
_cell_volume 8772.857614
_symmetry_space_group_name_H-M "I 41/A C D"
_symmetry_group_IT_number 142
_space_group.IT_coordinate_system_code '2'
_symmetry_cell_setting 'tetragonal'
loop_
_space_group_symop_operation_xyz
x,y,z
1/4-y,3/4+x,1/4+z
-x,1/2-y,z
1/4+y,1/4-x,3/4+z
x,-y,1/2-z
1/2-x,y,-z
3/4+y,1/4+x,1/4-z
1/4-y,1/4-x,1/4-z
-x,-y,-z
3/4+y,1/4-x,3/4-z
x,1/2+y,-z
3/4-y,3/4+x,1/4-z
-x,y,1/2+z
1/2+x,-y,z
1/4-y,3/4-x,3/4+z
3/4+y,3/4+x,3/4+z
1/2+x,1/2+y,1/2+z
3/4-y,1/4+x,3/4+z
1/2-x,-y,1/2+z
3/4+y,3/4-x,1/4+z
1/2+x,1/2-y,-z
-x,1/2+y,1/2-z
1/4+y,3/4+x,3/4-z
3/4-y,3/4-x,3/4-z
1/2-x,1/2-y,1/2-z
1/4+y,3/4-x,1/4-z
1/2+x,y,1/2-z
1/4-y,1/4+x,3/4-z
1/2-x,1/2+y,z
x,1/2-y,1/2+z
3/4-y,1/4-x,1/4+z
1/4+y,1/4+x,1/4+z
loop_
_atom_site_type_symbol
_atom_site_label
_atom_site_fract_x
_atom_site_fract_y
_atom_site_fract_z
Si Si1 0.648853 0.785087 0.622832
Si Si2 0.812673 0.981017 0.967763
Si Si3 0.742147 0.191679 0.207890
Si Si4 0.134582 0.884582 0.375000
Si Si5 0.116269 0.209780 0.373503
Si Si6 0.267257 0.355592 0.054969
O O1 0.564860 0.814860 0.625000
O O2 0.685040 0.795658 0.676177
O O3 0.648497 0.699192 0.607849
O O4 0.693883 0.836533 0.585150
O O5 0.845856 0.933161 0.923152
O O6 0.782421 0.056711 0.943329
O O7 0.750000 0.938316 0.000000
O O8 0.865877 0.999044 0.013326
O O9 0.750000 0.250000 0.250000
O O10 0.666540 0.199225 0.175811
O O11 0.092925 0.294952 0.380182
O O12 0.162297 0.187323 0.422448
O O13 0.250000 0.326187 0.000000
#
# Coordination Sequence:
#
# PCOD8321185 Si02
#       6
#    32  32  32  16  32  32
#     4  11  24  43  66  94 133 176 213 270 337 402
#     4  11  25  42  67  98 126 171 222 275 329 395
#     4  11  22  43  66  93 133 178 218 271 335 396
#     4  12  27  42  66 100 134 167 226 278 330 402
#     4  10  23  40  66 100 135 176 224 281 338 402
#     4  10  23  42  68  94 129 172 224 271 327 403
#
# _framework density 20.061878
#
# number of rings (size 3 to 8) (size 9 to 14) (size 15 to 20)
#    0.000    1.273    1.818    3.545    8.909    2.182 
#    0.000    1.818    0.000    0.000    0.000    0.000 
#    0.000    0.000    0.000    0.000    0.000    0.000 
#
# Total GULP energy -1090676.115194 kJ/mol
# GULP energy per Si atom -12394.046764 kJ/mol
# Density = 2.001622 g / cm^3
# Si number density = 20.061878 Si / 1000 Ang^3
#
#
#
# Elastic Constant Matrix: (Units=GPa)
#
#
# Indices 1 2 3 4 5 6 
#
# 1 127.1504 46.6558 52.0748 0.0000 0.0000 0.0000
# 2 46.6558 127.1504 52.0748 0.0000 0.0000 0.0000
# 3 52.0748 52.0748 136.3035 0.0000 0.0000 0.0000
# 4 0.0000 0.0000 0.0000 30.9492 0.0000 0.0000
# 5 0.0000 0.0000 0.0000 0.0000 30.9492 0.0000
# 6 0.0000 0.0000 0.0000 0.0000 0.0000 33.2277
#
#
#
# Elastic Compliance Matrix: (Units=1/GPa)
#
#
# Indices 1 2 3 4 5 6 
#
# 1 0.009942 -0.002481 -0.002851 0.000000 0.000000 0.000000
# 2 -0.002481 0.009942 -0.002851 0.000000 0.000000 0.000000
# 3 -0.002851 -0.002851 0.009515 0.000000 0.000000 0.000000
# 4 0.000000 0.000000 0.000000 0.032311 0.000000 0.000000
# 5 0.000000 0.000000 0.000000 0.000000 0.032311 0.000000
# 6 0.000000 0.000000 0.000000 0.000000 0.000000 0.030095
#
#
# Mechanical properties :
#
#
# Convention : Reuss Voigt Hill
#
# Bulk Modulus (GPa) = 76.71459 76.91277 76.81368
# Shear Modulus (GPa) = 34.52399 35.01183 34.76791
#
# Velocity S-wave (km/s) = 4.15284 4.18208 4.16749
# Velocity P-wave (km/s) = 7.83051 7.85753 7.84403
#
# Compressibility (1/GPa) = 0.01303533
#
# Stress axis : x y z
#
# Youngs Moduli (GPa) = 100.57836 100.57836 105.09887
#
# Poissons Ratio (x) = 0.24950 0.29961
# Poissons Ratio (y) = 0.24950 0.29961
# Poissons Ratio (z) = 0.28673 0.28673
#
# Static dielectric constant tensor:
#      x y z
#    x 3.736240 0.000000 0.000000 
#    y 0.000000 3.736240 0.000000 
#    z 0.000000 0.000000 3.823570 
# 
# 
# High freq. dielectric constant tensor:
#      x y z
#    x 1.792960 0.000000 0.000000 
#    y 0.000000 1.792960 0.000000 
#    z 0.000000 0.000000 1.795350 
# 
# From -- ./inp_files/11434.got.cif
#   From: 2010.03.12/outbox.cif.g09.slc.cpg/sg142_6_cif.got.tgz:11434.got - 2010.04.03 13:27:16.
