data_PCOD8321679
_publ_section_title
;
Structure prediction by ZEFSAII (Michael W. Deem and Ramdas Pophale) SiO2 
 PCOD8321679
Probable space group: R -3
;
_chemical_formula_sum "Si O2"
_cell_formula_units_Z 144
_cell_length_a 24.651290
_cell_length_b 24.651290
_cell_length_c 19.428982
_cell_angle_alpha 90.000000
_cell_angle_beta 90.000000
_cell_angle_gamma 120.000000
_cell_volume 10224.921423
_symmetry_space_group_name_H-M "R -3"
_symmetry_group_IT_number 148
_symmetry_cell_setting 'hexagonal'
loop_
_space_group_symop_operation_xyz
x,y,z
-y,x-y,z
-x+y,-x,z
-x,-y,-z
y,-x+y,-z
x-y,x,-z
2/3+x,1/3+y,1/3+z
2/3-y,1/3+x-y,1/3+z
2/3-x+y,1/3-x,1/3+z
2/3-x,1/3-y,1/3-z
2/3+y,1/3-x+y,1/3-z
2/3+x-y,1/3+x,1/3-z
1/3+x,2/3+y,2/3+z
1/3-y,2/3+x-y,2/3+z
1/3-x+y,2/3-x,2/3+z
1/3-x,2/3-y,2/3-z
1/3+y,2/3-x+y,2/3-z
1/3+x-y,2/3+x,2/3-z
loop_
_atom_site_type_symbol
_atom_site_label
_atom_site_fract_x
_atom_site_fract_y
_atom_site_fract_z
Si Si1 0.047811 0.318475 0.722779
Si Si2 0.459438 0.554085 0.775125
Si Si3 0.670283 0.095714 0.169548
Si Si4 0.109960 0.441776 0.507961
Si Si5 0.325152 0.167651 0.020958
Si Si6 0.734669 0.263726 0.335534
Si Si7 0.958399 0.668355 0.052834
Si Si8 0.227375 0.781356 0.791714
O O1 0.081636 0.385816 0.760275
O O2 0.099513 0.300358 0.693916
O O3 0.002149 0.263408 0.774338
O O4 0.005614 0.327077 0.665057
O O5 0.518236 0.599309 0.822461
O O6 0.404215 0.503080 0.822947
O O7 0.475083 0.518356 0.717158
O O8 0.439883 0.598771 0.735675
O O9 0.667445 0.051778 0.107753
O O10 0.721232 0.169210 0.154514
O O11 0.133956 0.516290 0.502991
O O12 0.069908 0.416164 0.578240
O O13 0.353767 0.243450 0.017703
O O14 0.289232 0.151155 0.093939
O O15 0.665160 0.237175 0.362568
O O16 0.734698 0.221510 0.273705
#
# Coordination Sequence:
#
# PCOD8321679 Si02
#       8
#    18  18  18  18  18  18  18  18
#     4  10  18  30  44  64  82 109 141 179 209 252
#     4  11  18  28  43  64  83 112 137 177 214 247
#     4  10  19  29  44  61  87 110 141 173 213 247
#     4  10  19  29  44  61  87 110 141 173 213 247
#     4   9  17  26  44  60  85 107 140 175 212 238
#     4  11  19  27  41  59  88 116 145 173 198 236
#     4  10  18  30  44  64  82 109 141 179 209 252
#     4   9  17  27  41  61  81 117 142 168 200 245
#
# _framework density 14.083238
#
# number of rings (size 3 to 8) (size 9 to 14) (size 15 to 20)
#    0.000    2.000    5.000    0.875    0.000    3.000 
#    0.000    0.625    0.000    0.000    0.000    0.000 
#    0.000    0.000    0.000    0.000    0.000    0.000 
#
# Total GULP energy -594655.898655 kJ/mol
# GULP energy per Si atom -12388.664555 kJ/mol
# Density = 1.405118 g / cm^3
# Si number density = 14.083238 Si / 1000 Ang^3
#
#
#
# Elastic Constant Matrix: (Units=GPa)
#
#
# Indices 1 2 3 4 5 6 
#
# 1 56.7837 28.4002 27.9151 -1.9390 -5.1180 0.0000
# 2 28.4002 56.7837 27.9151 1.9390 5.1180 0.0000
# 3 27.9151 27.9151 51.4806 0.0000 0.0000 0.0000
# 4 -1.9390 1.9390 0.0000 6.1130 0.0000 5.1180
# 5 -5.1180 5.1180 0.0000 0.0000 6.1130 -1.9390
# 6 0.0000 0.0000 0.0000 5.1180 -1.9390 14.1918
#
#
#
# Elastic Compliance Matrix: (Units=1/GPa)
#
#
# Indices 1 2 3 4 5 6 
#
# 1 0.036012 -0.017800 -0.009875 0.017069 0.045054 0.000000
# 2 -0.017800 0.036012 -0.009875 -0.017069 -0.045054 0.000000
# 3 -0.009875 -0.009875 0.030134 0.000000 0.000000 0.000000
# 4 0.017069 -0.017069 0.000000 0.249858 0.000000 -0.090107
# 5 0.045054 -0.045054 0.000000 0.000000 0.249858 0.034138
# 6 0.000000 0.000000 0.000000 -0.090107 0.034138 0.107624
#
#
# Mechanical properties :
#
#
# Convention : Reuss Voigt Hill
#
# Bulk Modulus (GPa) = 36.95917 37.05651 37.00784
# Shear Modulus (GPa) = 6.30028 10.67138 8.48583
#
# Velocity S-wave (km/s) = 2.11738 2.75569 2.45735
# Velocity P-wave (km/s) = 5.68138 6.04108 5.86399
#
# Compressibility (1/GPa) = 0.02705689
#
# Stress axis : x y z
#
# Youngs Moduli (GPa) = 27.76877 27.76877 33.18487
#
# Poissons Ratio (x) = 0.49429 0.32770
# Poissons Ratio (y) = 0.49429 0.32770
# Poissons Ratio (z) = 0.27422 0.27422
#
# Static dielectric constant tensor:
#      x y z
#    x 2.667320 0.000000 0.000000 
#    y 0.000000 2.667320 0.000000 
#    z 0.000000 0.000000 2.478780 
# 
# 
# High freq. dielectric constant tensor:
#      x y z
#    x 1.523090 0.000000 0.000000 
#    y 0.000000 1.523090 0.000000 
#    z 0.000000 0.000000 1.505380 
# 
# From -- ./inp_files/2814.got.cif
#   From: 2010.03.12/outbox.cif.g09.slc.cpg/sg148_2_cif.got.tgz:2814.got - 2010.04.03 13:38:46.
