data_PCOD8321102
_publ_section_title
;
Structure prediction by ZEFSAII (Michael W. Deem and Ramdas Pophale) SiO2 
 PCOD8321102
Probable space group: I 41/A C D
;
_chemical_formula_sum "Si O2"
_cell_formula_units_Z 240
_cell_length_a 20.613068
_cell_length_b 20.613068
_cell_length_c 28.185477
_cell_angle_alpha 90.000000
_cell_angle_beta 90.000000
_cell_angle_gamma 90.000000
_cell_volume 11975.968939
_symmetry_space_group_name_H-M "I 41/A C D"
_symmetry_group_IT_number 142
_space_group.IT_coordinate_system_code '2'
_symmetry_cell_setting 'tetragonal'
loop_
_space_group_symop_operation_xyz
x,y,z
1/4-y,3/4+x,1/4+z
-x,1/2-y,z
1/4+y,1/4-x,3/4+z
x,-y,1/2-z
1/2-x,y,-z
3/4+y,1/4+x,1/4-z
1/4-y,1/4-x,1/4-z
-x,-y,-z
3/4+y,1/4-x,3/4-z
x,1/2+y,-z
3/4-y,3/4+x,1/4-z
-x,y,1/2+z
1/2+x,-y,z
1/4-y,3/4-x,3/4+z
3/4+y,3/4+x,3/4+z
1/2+x,1/2+y,1/2+z
3/4-y,1/4+x,3/4+z
1/2-x,-y,1/2+z
3/4+y,3/4-x,1/4+z
1/2+x,1/2-y,-z
-x,1/2+y,1/2-z
1/4+y,3/4+x,3/4-z
3/4-y,3/4-x,3/4-z
1/2-x,1/2-y,1/2-z
1/4+y,3/4-x,1/4-z
1/2+x,y,1/2-z
1/4-y,1/4+x,3/4-z
1/2-x,1/2+y,z
x,1/2-y,1/2+z
3/4-y,1/4-x,1/4+z
1/4+y,1/4+x,1/4+z
loop_
_atom_site_type_symbol
_atom_site_label
_atom_site_fract_x
_atom_site_fract_y
_atom_site_fract_z
Si Si1 0.987645 0.602751 0.740808
Si Si2 0.204852 0.009865 0.677779
Si Si3 0.555889 0.003385 0.819884
Si Si4 0.577173 0.172828 0.375000
Si Si5 0.145641 0.987593 0.009022
Si Si6 0.622126 0.341535 0.769058
Si Si7 0.448954 0.375888 0.999369
Si Si8 0.451835 0.606387 0.610226
O O1 0.983132 0.562832 0.691132
O O2 0.956387 0.558185 0.780846
O O3 0.943730 0.667186 0.739366
O O4 0.062851 0.615473 0.750020
O O5 0.243663 0.950155 0.700624
O O6 0.230207 0.019794 0.625000
O O7 0.131139 0.986624 0.679413
O O8 0.214444 0.074977 0.708669
O O9 0.534260 0.033877 0.870274
O O10 0.591513 0.131331 0.422992
O O11 0.501609 0.157855 0.364726
O O12 0.089280 0.935745 0.024191
O O13 0.119682 0.059704 0.002845
O O14 0.617515 0.274629 0.738843
O O15 0.455278 0.395598 0.945013
O O16 0.379235 0.629235 0.625000
#
# Coordination Sequence:
#
# PCOD8321102 Si02
#       8
#    32  32  32  16  32  32  32  32
#     4  11  20  36  56  88 119 158 206 249 317 365
#     4  11  22  39  66  90 121 162 205 256 310 373
#     4  11  19  33  58  84 120 151 203 256 298 377
#     4  10  21  36  48  88 124 158 196 248 310 371
#     4  11  22  41  58  93 127 157 204 258 315 373
#     4  11  24  36  59  84 126 165 204 256 315 373
#     4  11  20  38  60  85 122 162 207 252 306 379
#     4  11  18  31  58  85 120 154 200 251 303 360
#
# _framework density 20.040130999999999
#
# number of rings (size 3 to 8) (size 9 to 14) (size 15 to 20)
#    0.000    1.067    5.333    3.000    0.933    4.267 
#    0.000    0.000    0.000    0.000    0.000    0.000 
#    8.000    0.000    0.000    0.000    0.000    0.000 
#
# Total GULP energy -1487258.666735 kJ/mol
# GULP energy per Si atom -12393.822223 kJ/mol
# Density = 1.999452 g / cm^3
# Si number density = 20.040131 Si / 1000 Ang^3
#
#
#
# Elastic Constant Matrix: (Units=GPa)
#
#
# Indices 1 2 3 4 5 6 
#
# 1 97.4706 30.8781 17.2664 0.0000 0.0000 0.0000
# 2 30.8781 97.4719 17.2661 0.0000 0.0000 0.0000
# 3 17.2664 17.2661 61.6478 0.0000 0.0000 0.0000
# 4 0.0000 0.0000 0.0000 16.2226 0.0000 0.0000
# 5 0.0000 0.0000 0.0000 0.0000 16.2227 0.0000
# 6 0.0000 0.0000 0.0000 0.0000 0.0000 30.9062
#
#
#
# Elastic Compliance Matrix: (Units=1/GPa)
#
#
# Indices 1 2 3 4 5 6 
#
# 1 0.011721 -0.003295 -0.002360 0.000000 0.000000 0.000000
# 2 -0.003295 0.011721 -0.002360 0.000000 0.000000 0.000000
# 3 -0.002360 -0.002360 0.017543 0.000000 0.000000 0.000000
# 4 0.000000 0.000000 0.000000 0.061642 0.000000 0.000000
# 5 0.000000 0.000000 0.000000 0.000000 0.061642 0.000000
# 6 0.000000 0.000000 0.000000 0.000000 0.000000 0.032356
#
#
# Mechanical properties :
#
#
# Convention : Reuss Voigt Hill
#
# Bulk Modulus (GPa) = 40.07124 43.04571 41.55848
# Shear Modulus (GPa) = 22.62698 25.41561 24.02130
#
# Velocity S-wave (km/s) = 3.36383 3.56509 3.46592
# Velocity P-wave (km/s) = 5.92672 6.20265 6.06626
#
# Compressibility (1/GPa) = 0.02495555
#
# Stress axis : x y z
#
# Youngs Moduli (GPa) = 85.31360 85.31491 57.00228
#
# Poissons Ratio (x) = 0.28113 0.13453
# Poissons Ratio (y) = 0.28112 0.13452
# Poissons Ratio (z) = 0.20134 0.20134
#
# Static dielectric constant tensor:
#      x y z
#    x 3.994210 0.000000 0.000000 
#    y 0.000000 3.994220 0.000000 
#    z 0.000000 0.000000 3.546920 
# 
# 
# High freq. dielectric constant tensor:
#      x y z
#    x 1.784210 0.000000 0.000000 
#    y 0.000000 1.784210 0.000000 
#    z 0.000000 0.000000 1.752140 
# 
# From -- ./inp_files/11665.got.cif
#   From: 2010.03.12/outbox.cif.g09.slc.cpg/sg142_6_cif.got.tgz:11665.got - 2010.04.03 13:27:16.
