data_PCOD8321634
_publ_section_title
;
Structure prediction by ZEFSAII (Michael W. Deem and Ramdas Pophale) SiO2 
 PCOD8321634
Probable space group: P -3
;
_chemical_formula_sum "Si O2"
_cell_formula_units_Z 34
_cell_length_a 14.158907
_cell_length_b 14.158907
_cell_length_c 9.045813
_cell_angle_alpha 90.000000
_cell_angle_beta 90.000000
_cell_angle_gamma 120.000000
_cell_volume 1570.499114
_symmetry_space_group_name_H-M "P -3"
_symmetry_group_IT_number 147
_symmetry_cell_setting 'hexagonal'
loop_
_space_group_symop_operation_xyz
x,y,z
-y,x-y,z
-x+y,-x,z
-x,-y,-z
y,-x+y,-z
x-y,x,-z
loop_
_atom_site_type_symbol
_atom_site_label
_atom_site_fract_x
_atom_site_fract_y
_atom_site_fract_z
Si Si1 0.738171 0.189520 0.960270
Si Si2 0.821693 0.072441 0.488752
Si Si3 0.666667 0.333334 0.812441
Si Si4 0.228918 0.781026 0.706864
Si Si5 0.149775 0.226643 0.972342
Si Si6 0.323598 0.992828 0.245629
Si Si7 0.666667 0.333333 0.461017
O O1 0.746654 0.293829 0.878426
O O2 0.856228 0.199267 0.946405
O O3 0.651809 0.080236 0.870136
O O4 0.709229 0.185562 0.134177
O O5 0.788888 0.119935 0.347014
O O6 0.739029 0.075525 0.610232
O O7 0.948499 0.151912 0.534548
O O8 0.666668 0.333334 0.636975
O O9 0.299396 0.753160 0.595749
O O10 0.107439 0.672681 0.722176
O O11 0.171464 0.147539 0.077208
O O12 0.213413 0.236625 0.822311
#
# Coordination Sequence:
#
# PCOD8321634 Si02
#       7
#     6   6   2   6   6   6   2
#     4  10  21  40  62  90 120 153 202 255 298 352
#     4  10  21  37  58  90 132 172 206 244 298 364
#     4  12  25  44  70  90 112 155 208 261 313 368
#     4  10  22  41  64  90 124 163 202 252 304 359
#     4   9  18  33  57  91 127 161 199 247 300 355
#     4   9  20  38  59  92 128 162 205 248 295 359
#     4  12  25  47  67  87 118 158 202 255 316 371
#
# _framework density 21.649168
#
# number of rings (size 3 to 8) (size 9 to 14) (size 15 to 20)
#    0.000    2.118    0.000    2.471    0.000   12.706 
#    0.000   27.353    0.000    0.000    0.000    0.000 
#    0.000    0.000    0.000    0.000    0.000    0.000 
#
# Total GULP energy -421240.188171 kJ/mol
# GULP energy per Si atom -12389.417299 kJ/mol
# Density = 2.159989 g / cm^3
# Si number density = 21.649168 Si / 1000 Ang^3
#
#
#
# Elastic Constant Matrix: (Units=GPa)
#
#
# Indices 1 2 3 4 5 6 
#
# 1 90.3220 37.8840 36.9573 -3.8301 -3.3197 -0.0003
# 2 37.8840 90.3230 36.9575 3.8303 3.3196 0.0000
# 3 36.9573 36.9575 135.8997 0.0000 0.0000 0.0000
# 4 -3.8301 3.8303 0.0000 32.3072 0.0000 3.3196
# 5 -3.3197 3.3196 0.0000 0.0000 32.3071 -3.8301
# 6 -0.0003 0.0000 0.0000 3.3196 -3.8301 26.2188
#
#
#
# Elastic Compliance Matrix: (Units=1/GPa)
#
#
# Indices 1 2 3 4 5 6 
#
# 1 0.014458 -0.005208 -0.002516 0.002332 0.002021 0.000000
# 2 -0.005208 0.014458 -0.002516 -0.002332 -0.002021 0.000000
# 3 -0.002516 -0.002516 0.008727 0.000000 0.000000 0.000000
# 4 0.002332 -0.002332 0.000000 0.031921 0.000000 -0.004042
# 5 0.002021 -0.002021 0.000000 0.000000 0.031921 0.004663
# 6 0.000000 0.000000 0.000000 -0.004042 0.004663 0.039333
#
#
# Mechanical properties :
#
#
# Convention : Reuss Voigt Hill
#
# Bulk Modulus (GPa) = 58.25896 60.01582 59.13739
# Shear Modulus (GPa) = 29.93678 31.81636 30.87657
#
# Velocity S-wave (km/s) = 3.72266 3.83774 3.78064
# Velocity P-wave (km/s) = 6.74140 6.88621 6.81419
#
# Compressibility (1/GPa) = 0.01716474
#
# Stress axis : x y z
#
# Youngs Moduli (GPa) = 69.16400 69.16468 114.59267
#
# Poissons Ratio (x) = 0.36022 0.28827
# Poissons Ratio (y) = 0.36021 0.28826
# Poissons Ratio (z) = 0.17399 0.17399
#
# Static dielectric constant tensor:
#      x y z
#    x 3.988130 0.000000 0.000000 
#    y 0.000000 3.988130 -0.000010 
#    z 0.000000 -0.000010 4.022050 
# 
# 
# High freq. dielectric constant tensor:
#      x y z
#    x 1.838790 0.000000 0.000000 
#    y 0.000000 1.838790 0.000000 
#    z 0.000000 0.000000 1.854460 
# 
# From -- ./inp_files/570.got.cif
#   From: 2010.03.12/outbox.cif.g09.slc.cpg/sg147_cif.got.tgz:570.got - 2010.04.03 13:37:56.
