data_PCOD8321808
_publ_section_title
;
Structure prediction by ZEFSAII (Michael W. Deem and Ramdas Pophale) SiO2 
 PCOD8321808
Probable space group: R -3
;
_chemical_formula_sum "Si O2"
_cell_formula_units_Z 72
_cell_length_a 16.691629
_cell_length_b 16.691629
_cell_length_c 13.122837
_cell_angle_alpha 90.000000
_cell_angle_beta 90.000000
_cell_angle_gamma 120.000000
_cell_volume 3166.327352
_symmetry_space_group_name_H-M "R -3"
_symmetry_group_IT_number 148
_symmetry_cell_setting 'hexagonal'
loop_
_space_group_symop_operation_xyz
x,y,z
-y,x-y,z
-x+y,-x,z
-x,-y,-z
y,-x+y,-z
x-y,x,-z
2/3+x,1/3+y,1/3+z
2/3-y,1/3+x-y,1/3+z
2/3-x+y,1/3-x,1/3+z
2/3-x,1/3-y,1/3-z
2/3+y,1/3-x+y,1/3-z
2/3+x-y,1/3+x,1/3-z
1/3+x,2/3+y,2/3+z
1/3-y,2/3+x-y,2/3+z
1/3-x+y,2/3-x,2/3+z
1/3-x,2/3-y,2/3-z
1/3+y,2/3-x+y,2/3-z
1/3+x-y,2/3+x,2/3-z
loop_
_atom_site_type_symbol
_atom_site_label
_atom_site_fract_x
_atom_site_fract_y
_atom_site_fract_z
Si Si1 0.447792 0.871056 0.117680
Si Si2 0.437100 0.295648 0.228466
Si Si3 0.630960 0.066000 0.431921
Si Si4 0.581391 0.786735 0.443985
O O1 0.499347 0.814533 0.152383
O O2 0.520981 0.980820 0.126853
O O3 0.424695 0.862835 0.997367
O O4 0.390289 0.314970 0.326916
O O5 0.373520 0.270719 0.126958
O O6 0.453530 0.211736 0.254494
O O7 0.532749 0.384722 0.194576
O O8 0.696342 0.109916 0.529004
#
# Coordination Sequence:
#
# PCOD8321808 Si02
#       4
#    18  18  18  18
#     4  11  27  46  71 102 141 181 230 282 346 407
#     4  11  25  44  69 100 136 179 231 282 339 405
#     4  11  25  44  69 100 136 179 231 282 339 405
#     4  11  26  44  71  99 134 185 226 284 339 408
#
# _framework density 22.739277999999999
#
# number of rings (size 3 to 8) (size 9 to 14) (size 15 to 20)
#    0.000    1.000    2.500    1.750   17.500    0.000 
#    1.500    1.250    0.000    0.000    0.000    0.000 
#    0.000    0.000    0.000    0.000    0.000    0.000 
#
# Total GULP energy -297418.119487 kJ/mol
# GULP energy per Si atom -12392.421645 kJ/mol
# Density = 2.268752 g / cm^3
# Si number density = 22.739278 Si / 1000 Ang^3
#
#
#
# Elastic Constant Matrix: (Units=GPa)
#
#
# Indices 1 2 3 4 5 6 
#
# 1 66.6111 11.5378 27.3440 3.2689 4.1390 0.0000
# 2 11.5378 66.6111 27.3440 -3.2689 -4.1390 0.0000
# 3 27.3440 27.3440 128.6530 0.0000 0.0000 0.0000
# 4 3.2689 -3.2689 0.0000 35.4770 0.0000 -4.1390
# 5 4.1390 -4.1390 0.0000 0.0000 35.4770 3.2689
# 6 0.0000 0.0000 0.0000 -4.1390 3.2689 27.5366
#
#
#
# Elastic Compliance Matrix: (Units=1/GPa)
#
#
# Indices 1 2 3 4 5 6 
#
# 1 0.016861 -0.001829 -0.003195 -0.001722 -0.002180 0.000000
# 2 -0.001829 0.016861 -0.003195 0.001722 0.002180 0.000000
# 3 -0.003195 -0.003195 0.009131 0.000000 0.000000 0.000000
# 4 -0.001722 0.001722 0.000000 0.029013 0.000000 0.004361
# 5 -0.002180 0.002180 0.000000 0.000000 0.029013 -0.003444
# 6 0.000000 0.000000 0.000000 0.004361 -0.003444 0.037380
#
#
# Mechanical properties :
#
#
# Convention : Reuss Voigt Hill
#
# Bulk Modulus (GPa) = 37.85711 43.81406 40.83558
# Shear Modulus (GPa) = 30.58076 32.74144 31.66110
#
# Velocity S-wave (km/s) = 3.67119 3.79867 3.73547
# Velocity P-wave (km/s) = 5.88682 6.20884 6.04997
#
# Compressibility (1/GPa) = 0.02641512
#
# Stress axis : x y z
#
# Youngs Moduli (GPa) = 59.30907 59.30907 109.51796
#
# Poissons Ratio (x) = 0.10848 0.34990
# Poissons Ratio (y) = 0.10848 0.34990
# Poissons Ratio (z) = 0.18948 0.18948
#
# Static dielectric constant tensor:
#      x y z
#    x 4.002120 0.000000 0.000000 
#    y 0.000000 4.002120 0.000000 
#    z 0.000000 0.000000 4.084360 
# 
# 
# High freq. dielectric constant tensor:
#      x y z
#    x 1.889960 0.000000 0.000000 
#    y 0.000000 1.889960 0.000000 
#    z 0.000000 0.000000 1.914050 
# 
# From -- ./inp_files/1856.got.cif
#   From: 2010.03.12/outbox.cif.g09.slc.cpg/sg148_1_cif.got.tgz:1856.got - 2010.04.03 13:38:46.
