data_PCOD8321510
_publ_section_title
;
Structure prediction by ZEFSAII (Michael W. Deem and Ramdas Pophale) SiO2 
 PCOD8321510
Probable space group: R 3
;
_chemical_formula_sum "Si O2"
_cell_formula_units_Z 54
_cell_length_a 12.314455
_cell_length_b 12.314455
_cell_length_c 22.929830
_cell_angle_alpha 90.000000
_cell_angle_beta 90.000000
_cell_angle_gamma 120.000000
_cell_volume 3011.354324
_symmetry_space_group_name_H-M "R 3"
_symmetry_group_IT_number 146
_symmetry_cell_setting 'hexagonal'
loop_
_space_group_symop_operation_xyz
x,y,z
-y,x-y,z
-x+y,-x,z
2/3+x,1/3+y,1/3+z
2/3-y,1/3+x-y,1/3+z
2/3-x+y,1/3-x,1/3+z
1/3+x,2/3+y,2/3+z
1/3-y,2/3+x-y,2/3+z
1/3-x+y,2/3-x,2/3+z
loop_
_atom_site_type_symbol
_atom_site_label
_atom_site_fract_x
_atom_site_fract_y
_atom_site_fract_z
Si Si1 0.585487 0.917791 0.296840
Si Si2 0.999973 0.748288 0.408442
Si Si3 0.998971 0.251125 0.630173
Si Si4 0.666640 0.585019 0.741776
Si Si5 0.413944 0.081749 0.519611
Si Si6 0.584918 0.919390 0.852944
O O1 0.466037 0.932075 0.308380
O O2 0.542854 0.771427 0.298523
O O3 0.644520 0.977388 0.234698
O O4 0.687786 0.994161 0.346078
O O5 0.892513 0.785026 0.406860
O O6 0.972062 0.643436 0.456589
O O7 0.128572 0.871428 0.424913
O O8 0.973042 0.327495 0.679411
O O9 0.999534 0.310720 0.568031
O O10 0.638729 0.661960 0.789922
O O11 0.454616 0.227308 0.525455
O O12 0.533951 0.067902 0.529595
#
# Coordination Sequence:
#
# PCOD8321510 Si02
#       6
#     9   9   9   9   9   9
#     4  10  20  34  53  76 103 135 170 209 252 299
#     4  10  20  34  54  78 104 134 168 208 252 300
#     4  10  20  34  53  76 103 135 170 209 252 299
#     4  10  20  34  54  78 104 134 168 208 252 300
#     4  10  20  34  53  76 103 135 170 209 252 299
#     4  10  20  34  53  76 103 135 170 209 252 299
#
# _framework density 17.932131999999999
#
# number of rings (size 3 to 8) (size 9 to 14) (size 15 to 20)
#    0.000    2.000    0.000    4.000    0.000    0.000 
#    0.000    6.667    0.000   16.000    0.000    0.000 
#    0.000    0.000    0.000    0.000    0.000    0.000 
#
# Total GULP energy -223289.191409 kJ/mol
# GULP energy per Si atom -12404.955078 kJ/mol
# Density = 1.789132 g / cm^3
# Si number density = 17.932132 Si / 1000 Ang^3
#
#
#
# Elastic Constant Matrix: (Units=GPa)
#
#
# Indices 1 2 3 4 5 6 
#
# 1 80.1102 33.7179 12.2710 -1.2718 0.0000 0.0000
# 2 33.7179 80.1102 12.2710 1.2718 0.0000 0.0000
# 3 12.2710 12.2710 79.6552 0.0000 0.0000 0.0000
# 4 -1.2718 1.2718 0.0000 23.1023 0.0000 0.0000
# 5 0.0000 0.0000 0.0000 0.0000 23.1023 -1.2718
# 6 0.0000 0.0000 0.0000 0.0000 -1.2718 23.1961
#
#
#
# Elastic Compliance Matrix: (Units=1/GPa)
#
#
# Indices 1 2 3 4 5 6 
#
# 1 0.015354 -0.006267 -0.001400 0.001190 0.000000 0.000000
# 2 -0.006267 0.015354 -0.001400 -0.001190 0.000000 0.000000
# 3 -0.001400 -0.001400 0.012985 0.000000 0.000000 0.000000
# 4 0.001190 -0.001190 0.000000 0.043417 0.000000 0.000000
# 5 0.000000 0.000000 0.000000 0.000000 0.043417 0.002380
# 6 0.000000 0.000000 0.000000 0.000000 0.002380 0.043241
#
#
# Mechanical properties :
#
#
# Convention : Reuss Voigt Hill
#
# Bulk Modulus (GPa) = 39.12372 39.59949 39.36161
# Shear Modulus (GPa) = 24.94751 25.98785 25.46768
#
# Velocity S-wave (km/s) = 3.73395 3.81101 3.77268
# Velocity P-wave (km/s) = 6.36041 6.44174 6.40121
#
# Compressibility (1/GPa) = 0.02555994
#
# Stress axis : x y z
#
# Youngs Moduli (GPa) = 65.13051 65.13051 77.00952
#
# Poissons Ratio (x) = 0.40816 0.10780
# Poissons Ratio (y) = 0.40816 0.10780
# Poissons Ratio (z) = 0.09117 0.09117
#
# Static dielectric constant tensor:
#      x y z
#    x 3.200760 0.000000 0.000000 
#    y 0.000000 3.200760 0.000000 
#    z 0.000000 0.000000 3.482860 
# 
# 
# High freq. dielectric constant tensor:
#      x y z
#    x 1.692680 0.000000 0.000000 
#    y 0.000000 1.692680 0.000000 
#    z 0.000000 0.000000 1.712480 
# 
# From -- ./inp_files/1970.got.cif
#   From: 2010.06.25/outbox.cif.g09.slc.cpg/sg146_cif.got.tgz:1970.got - 2010.06.28 11:17:22.
