data_PCOD8321979
_publ_section_title
;
Structure prediction by ZEFSAII (Michael W. Deem and Ramdas Pophale) SiO2 
 PCOD8321979
Probable space group: P 31 1 2
;
_chemical_formula_sum "Si O2"
_cell_formula_units_Z 39
_cell_length_a 11.163385
_cell_length_b 11.163385
_cell_length_c 17.297333
_cell_angle_alpha 90.000000
_cell_angle_beta 90.000000
_cell_angle_gamma 120.000000
_cell_volume 1866.816298
_symmetry_space_group_name_H-M "P 31 1 2"
_symmetry_group_IT_number 151
_symmetry_cell_setting 'hexagonal'
loop_
_space_group_symop_operation_xyz
x,y,z
-y,x-y,1/3+z
-x+y,-x,2/3+z
-y,-x,2/3-z
-x+y,y,1/3-z
x,x-y,-z
loop_
_atom_site_type_symbol
_atom_site_label
_atom_site_fract_x
_atom_site_fract_y
_atom_site_fract_z
Si Si1 0.842351 0.955441 0.144582
Si Si2 0.490865 0.526873 0.626183
Si Si3 0.525277 0.641667 0.464072
Si Si4 0.768620 0.105331 0.910133
Si Si5 0.231821 0.984110 0.024511
Si Si6 0.254680 0.034005 0.708999
Si Si7 0.313160 0.656580 0.000000
O O1 0.762397 0.803180 0.106697
O O2 0.751959 0.959640 0.216634
O O3 0.994662 0.989324 0.166667
O O4 0.868416 0.074792 0.084111
O O5 0.472124 0.535161 0.534259
O O6 0.435842 0.363327 0.630879
O O7 0.643742 0.612343 0.663095
O O8 0.405666 0.584801 0.673162
O O9 0.590003 0.795002 0.500000
O O10 0.649810 0.628804 0.424112
O O11 0.396993 0.610334 0.408084
O O12 0.799516 0.200485 0.833334
O O13 0.901648 0.209127 0.959177
O O14 0.127235 0.853352 0.973853
O O15 0.195045 0.097523 0.000000
#
# Coordination Sequence:
#
# PCOD8321979 Si02
#       7
#     6   6   6   6   6   6   3
#     4  11  21  34  65 100 127 163 211 284 342 391
#     4  11  26  42  62  97 135 180 219 276 342 413
#     4  10  21  38  65  93 126 170 219 268 328 406
#     4  11  25  41  64  96 132 174 222 276 345 400
#     4  12  21  39  67  96 134 165 224 279 338 405
#     4  12  20  40  63 100 126 163 226 283 339 404
#     4  10  22  38  64  94 128 164 214 266 334 404
#
# _framework density 20.891182000000001
#
# number of rings (size 3 to 8) (size 9 to 14) (size 15 to 20)
#    0.000    0.923    7.692    1.846    6.462    0.000 
#    0.000    2.308    0.000    0.000    0.000    0.000 
#    0.000    0.000    0.000    0.000    0.000    0.000 
#
# Total GULP energy -483321.432937 kJ/mol
# GULP energy per Si atom -12392.857255 kJ/mol
# Density = 2.084363 g / cm^3
# Si number density = 20.891182 Si / 1000 Ang^3
#
#
#
# Elastic Constant Matrix: (Units=GPa)
#
#
# Indices 1 2 3 4 5 6 
#
# 1 74.7309 22.4890 33.1237 0.0000 -6.2435 0.0000
# 2 22.4890 74.7309 33.1237 0.0000 6.2435 0.0000
# 3 33.1237 33.1237 112.9401 0.0000 0.0000 0.0000
# 4 0.0000 0.0000 0.0000 31.6646 0.0000 6.2435
# 5 -6.2435 6.2435 0.0000 0.0000 31.6646 0.0000
# 6 0.0000 0.0000 0.0000 6.2435 0.0000 26.1210
#
#
#
# Elastic Compliance Matrix: (Units=1/GPa)
#
#
# Indices 1 2 3 4 5 6 
#
# 1 0.016472 -0.003617 -0.003770 0.000000 0.003961 0.000000
# 2 -0.003617 0.016472 -0.003770 0.000000 -0.003961 0.000000
# 3 -0.003770 -0.003770 0.011066 0.000000 0.000000 0.000000
# 4 0.000000 0.000000 0.000000 0.033143 0.000000 -0.007922
# 5 0.003961 -0.003961 0.000000 0.000000 0.033143 0.000000
# 6 0.000000 0.000000 0.000000 -0.007922 0.000000 0.040177
#
#
# Mechanical properties :
#
#
# Convention : Reuss Voigt Hill
#
# Bulk Modulus (GPa) = 46.09351 48.87497 47.48424
# Shear Modulus (GPa) = 27.77498 29.46774 28.62136
#
# Velocity S-wave (km/s) = 3.65020 3.75978 3.70540
# Velocity P-wave (km/s) = 6.31481 6.50337 6.40978
#
# Compressibility (1/GPa) = 0.02169503
#
# Stress axis : x y z
#
# Youngs Moduli (GPa) = 60.70996 60.70996 90.36895
#
# Poissons Ratio (x) = 0.21957 0.34071
# Poissons Ratio (y) = 0.21957 0.34071
# Poissons Ratio (z) = 0.22889 0.22889
#
# Static dielectric constant tensor:
#      x y z
#    x 3.567470 0.000000 0.000000 
#    y 0.000000 3.567470 0.000000 
#    z 0.000000 0.000000 3.915770 
# 
# 
# High freq. dielectric constant tensor:
#      x y z
#    x 1.796550 0.000000 0.000000 
#    y 0.000000 1.796550 0.000000 
#    z 0.000000 0.000000 1.832600 
# 
# From -- ./inp_files/3512.got.cif
#   From: 2010.03.12/outbox.cif.g09.slc.cpg/sg151_2_cif.got.tgz:3512.got - 2010.04.03 13:42:29.
