data_PCOD8321704
_publ_section_title
;
Structure prediction by ZEFSAII (Michael W. Deem and Ramdas Pophale) SiO2 
 PCOD8321704
Probable space group: R -3
;
_chemical_formula_sum "Si O2"
_cell_formula_units_Z 144
_cell_length_a 20.697436
_cell_length_b 20.697436
_cell_length_c 19.927396
_cell_angle_alpha 90.000000
_cell_angle_beta 90.000000
_cell_angle_gamma 120.000000
_cell_volume 7392.890602
_symmetry_space_group_name_H-M "R -3"
_symmetry_group_IT_number 148
_symmetry_cell_setting 'hexagonal'
loop_
_space_group_symop_operation_xyz
x,y,z
-y,x-y,z
-x+y,-x,z
-x,-y,-z
y,-x+y,-z
x-y,x,-z
2/3+x,1/3+y,1/3+z
2/3-y,1/3+x-y,1/3+z
2/3-x+y,1/3-x,1/3+z
2/3-x,1/3-y,1/3-z
2/3+y,1/3-x+y,1/3-z
2/3+x-y,1/3+x,1/3-z
1/3+x,2/3+y,2/3+z
1/3-y,2/3+x-y,2/3+z
1/3-x+y,2/3-x,2/3+z
1/3-x,2/3-y,2/3-z
1/3+y,2/3-x+y,2/3-z
1/3+x-y,2/3+x,2/3-z
loop_
_atom_site_type_symbol
_atom_site_label
_atom_site_fract_x
_atom_site_fract_y
_atom_site_fract_z
Si Si1 0.325757 0.533495 0.695898
Si Si2 0.646476 0.883769 0.030272
Si Si3 0.430417 0.189222 0.608685
Si Si4 0.480783 0.097177 0.684929
Si Si5 0.065822 0.420901 0.706284
Si Si6 0.217649 0.780567 0.542720
Si Si7 0.290308 0.785916 0.155726
Si Si8 0.526901 0.927224 0.058566
O O1 0.252855 0.542815 0.700475
O O2 0.294191 0.445371 0.683271
O O3 0.380670 0.561013 0.760412
O O4 0.594220 0.801784 0.000247
O O5 0.699317 0.884925 0.090672
O O6 0.596243 0.913694 0.062666
O O7 0.693080 0.934439 0.966669
O O8 0.480122 0.150727 0.626200
O O9 0.445815 0.228596 0.536608
O O10 0.447913 0.254582 0.661981
O O11 0.346790 0.123661 0.614352
O O12 0.502359 0.144246 0.753357
O O13 0.400621 0.022536 0.693237
O O14 0.090499 0.467491 0.775959
O O15 0.365271 0.797171 0.190689
O O16 0.249349 0.814699 0.205811
#
# Coordination Sequence:
#
# PCOD8321704 Si02
#       8
#    18  18  18  18  18  18  18  18
#     4   9  17  33  61  87 113 151 202 244 285 358
#     4  10  19  37  60  86 115 162 208 243 303 366
#     4  11  23  39  55  89 124 159 193 263 314 356
#     4  11  21  37  61  87 126 157 195 258 305 358
#     4   9  18  36  56  88 118 152 195 248 298 355
#     4   9  20  37  59  84 121 157 199 254 310 354
#     4  12  24  41  64  91 117 162 215 251 296 367
#     4  11  22  36  59  85 119 154 208 250 302 367
#
# _framework density 19.478173000000002
#
# number of rings (size 3 to 8) (size 9 to 14) (size 15 to 20)
#    0.000    1.750    3.750    2.500    0.000    0.000 
#    2.250    3.125    0.000    0.000    0.000    0.000 
#    0.000    0.000    0.000    0.000    0.000    0.000 
#
# Total GULP energy -594851.507345 kJ/mol
# GULP energy per Si atom -12392.739736 kJ/mol
# Density = 1.943384 g / cm^3
# Si number density = 19.478173 Si / 1000 Ang^3
#
#
#
# Elastic Constant Matrix: (Units=GPa)
#
#
# Indices 1 2 3 4 5 6 
#
# 1 82.5828 24.6167 32.3144 1.9093 -1.2809 0.0000
# 2 24.6167 82.5828 32.3144 -1.9093 1.2809 0.0000
# 3 32.3144 32.3144 86.0165 0.0000 0.0000 0.0000
# 4 1.9093 -1.9093 0.0000 24.9380 0.0000 1.2809
# 5 -1.2809 1.2809 0.0000 0.0000 24.9380 1.9093
# 6 0.0000 0.0000 0.0000 1.2809 1.9093 28.9830
#
#
#
# Elastic Compliance Matrix: (Units=1/GPa)
#
#
# Indices 1 2 3 4 5 6 
#
# 1 0.014719 -0.002659 -0.004531 -0.001331 0.000893 0.000000
# 2 -0.002659 0.014719 -0.004531 0.001331 -0.000893 0.000000
# 3 -0.004531 -0.004531 0.015030 0.000000 0.000000 0.000000
# 4 -0.001331 0.001331 0.000000 0.040395 0.000000 -0.001785
# 5 0.000893 -0.000893 0.000000 0.000000 0.040395 -0.002661
# 6 0.000000 0.000000 0.000000 -0.001785 -0.002661 0.034757
#
#
# Mechanical properties :
#
#
# Convention : Reuss Voigt Hill
#
# Bulk Modulus (GPa) = 47.55785 47.74145 47.64965
# Shear Modulus (GPa) = 26.25154 26.56760 26.40957
#
# Velocity S-wave (km/s) = 3.67514 3.69720 3.68619
# Velocity P-wave (km/s) = 6.51750 6.54134 6.52943
#
# Compressibility (1/GPa) = 0.02102702
#
# Stress axis : x y z
#
# Youngs Moduli (GPa) = 67.93851 67.93851 66.53470
#
# Poissons Ratio (x) = 0.18067 0.30144
# Poissons Ratio (y) = 0.18067 0.30144
# Poissons Ratio (z) = 0.30780 0.30780
#
# Static dielectric constant tensor:
#      x y z
#    x 3.727250 0.000000 0.000000 
#    y 0.000000 3.727250 0.000000 
#    z 0.000000 0.000000 3.284270 
# 
# 
# High freq. dielectric constant tensor:
#      x y z
#    x 1.766220 0.000000 0.000000 
#    y 0.000000 1.766220 0.000000 
#    z 0.000000 0.000000 1.719710 
# 
# From -- ./inp_files/3168.got.cif
#   From: 2010.03.12/outbox.cif.g09.slc.cpg/sg148_2_cif.got.tgz:3168.got - 2010.04.03 13:38:46.
