data_PCOD8321940
_publ_section_title
;
Structure prediction by ZEFSAII (Michael W. Deem and Ramdas Pophale) SiO2 
 PCOD8321940
Probable space group: P 31 1 2
;
_chemical_formula_sum "Si O2"
_cell_formula_units_Z 27
_cell_length_a 10.281437
_cell_length_b 10.281437
_cell_length_c 15.283576
_cell_angle_alpha 90.000000
_cell_angle_beta 90.000000
_cell_angle_gamma 120.000000
_cell_volume 1399.146692
_symmetry_space_group_name_H-M "P 31 1 2"
_symmetry_group_IT_number 151
_symmetry_cell_setting 'hexagonal'
loop_
_space_group_symop_operation_xyz
x,y,z
-y,x-y,1/3+z
-x+y,-x,2/3+z
-y,-x,2/3-z
-x+y,y,1/3-z
x,x-y,-z
loop_
_atom_site_type_symbol
_atom_site_label
_atom_site_fract_x
_atom_site_fract_y
_atom_site_fract_z
Si Si1 0.100064 0.899937 0.833334
Si Si2 0.621940 0.243880 0.166667
Si Si3 0.920773 0.841546 0.666667
Si Si4 0.446908 0.420651 0.155751
Si Si5 0.000713 0.600025 0.622760
Si Si6 0.235525 0.669056 0.095766
O O1 0.035915 0.937745 0.744837
O O2 0.024434 0.722775 0.850999
O O3 0.550236 0.349519 0.177594
O O4 0.583184 0.134889 0.249783
O O5 0.966243 0.734058 0.617468
O O6 0.518195 0.576410 0.212232
O O7 0.445811 0.461934 0.054162
O O8 0.151541 0.673008 0.564587
O O9 0.300794 0.601588 0.166667
O O10 0.261677 0.630839 0.000000
#
# Coordination Sequence:
#
# PCOD8321940 Si02
#       6
#     3   3   3   6   6   6
#     4  10  18  39  65  88 128 172 216 260 332 399
#     4  12  22  39  71  94 130 174 218 268 334 399
#     4  10  20  40  64  90 124 176 216 258 334 396
#     4  11  23  42  63  96 127 170 215 274 327 393
#     4  11  21  39  64  92 128 171 213 267 337 390
#     4  12  22  38  66  97 125 168 223 272 319 386
#
# _framework density 19.297474999999999
#
# number of rings (size 3 to 8) (size 9 to 14) (size 15 to 20)
#    0.000    0.889    8.889    1.333    0.000    1.778 
#    0.000    3.333    4.889    0.000    0.000    0.000 
#    0.000    0.000    0.000    0.000    0.000    0.000 
#
# Total GULP energy -334569.060530 kJ/mol
# GULP energy per Si atom -12391.446686 kJ/mol
# Density = 1.925355 g / cm^3
# Si number density = 19.297475 Si / 1000 Ang^3
#
#
#
# Elastic Constant Matrix: (Units=GPa)
#
#
# Indices 1 2 3 4 5 6 
#
# 1 120.7796 50.8422 50.9133 0.0000 0.5697 0.0000
# 2 50.8422 120.7796 50.9133 0.0000 -0.5697 0.0000
# 3 50.9133 50.9133 130.5162 0.0000 0.0000 0.0000
# 4 0.0000 0.0000 0.0000 31.7726 0.0000 -0.5697
# 5 0.5697 -0.5697 0.0000 0.0000 31.7726 0.0000
# 6 0.0000 0.0000 0.0000 -0.5697 0.0000 34.9687
#
#
#
# Elastic Compliance Matrix: (Units=1/GPa)
#
#
# Indices 1 2 3 4 5 6 
#
# 1 0.010942 -0.003361 -0.002957 0.000000 -0.000256 0.000000
# 2 -0.003361 0.010942 -0.002957 0.000000 0.000256 0.000000
# 3 -0.002957 -0.002957 0.009969 0.000000 0.000000 0.000000
# 4 0.000000 0.000000 0.000000 0.031483 0.000000 0.000513
# 5 -0.000256 0.000256 0.000000 0.000000 0.031483 0.000000
# 6 0.000000 0.000000 0.000000 0.000513 0.000000 0.028605
#
#
# Mechanical properties :
#
#
# Convention : Reuss Voigt Hill
#
# Bulk Modulus (GPa) = 75.17478 75.26812 75.22145
# Shear Modulus (GPa) = 34.15075 34.32989 34.24032
#
# Velocity S-wave (km/s) = 4.21134 4.22238 4.21686
# Velocity P-wave (km/s) = 7.91755 7.92843 7.92299
#
# Compressibility (1/GPa) = 0.01330233
#
# Stress axis : x y z
#
# Youngs Moduli (GPa) = 91.39018 91.39018 100.30831
#
# Poissons Ratio (x) = 0.30713 0.29666
# Poissons Ratio (y) = 0.30713 0.29666
# Poissons Ratio (z) = 0.27028 0.27028
#
# Static dielectric constant tensor:
#      x y z
#    x 3.374040 0.000000 0.000000 
#    y 0.000000 3.374040 0.000000 
#    z 0.000000 0.000000 3.761300 
# 
# 
# High freq. dielectric constant tensor:
#      x y z
#    x 1.743920 0.000000 0.000000 
#    y 0.000000 1.743920 0.000000 
#    z 0.000000 0.000000 1.760570 
# 
# From -- ./inp_files/2758.got.cif
#   From: 2010.03.12/outbox.cif.g09.slc.cpg/sg151_2_cif.got.tgz:2758.got - 2010.04.03 13:42:29.
