data_PCOD8321512
_publ_section_title
;
Structure prediction by ZEFSAII (Michael W. Deem and Ramdas Pophale) SiO2 
 PCOD8321512
Probable space group: R 3
;
_chemical_formula_sum "Si O2"
_cell_formula_units_Z 33
_cell_length_a 10.494820
_cell_length_b 10.494820
_cell_length_c 19.393426
_cell_angle_alpha 90.000000
_cell_angle_beta 90.000000
_cell_angle_gamma 120.000000
_cell_volume 1849.844223
_symmetry_space_group_name_H-M "R 3"
_symmetry_group_IT_number 146
_symmetry_cell_setting 'hexagonal'
loop_
_space_group_symop_operation_xyz
x,y,z
-y,x-y,z
-x+y,-x,z
2/3+x,1/3+y,1/3+z
2/3-y,1/3+x-y,1/3+z
2/3-x+y,1/3-x,1/3+z
1/3+x,2/3+y,2/3+z
1/3-y,2/3+x-y,2/3+z
1/3-x+y,2/3-x,2/3+z
loop_
_atom_site_type_symbol
_atom_site_label
_atom_site_fract_x
_atom_site_fract_y
_atom_site_fract_z
Si Si1 0.269410 0.140695 0.705900
Si Si2 0.338712 0.172329 0.964553
Si Si3 0.000000 0.000000 0.958769
Si Si4 0.754434 0.519615 0.823843
Si Si5 0.666668 0.333334 0.129580
O O1 0.269349 0.260218 0.653645
O O2 0.422996 0.202075 0.745305
O O3 0.157503 0.119283 0.767070
O O4 0.230778 0.992493 0.665926
O O5 0.353542 0.166824 0.881792
O O6 0.167682 0.080094 0.986218
O O7 0.000000 0.000000 0.877294
O O8 0.578178 0.412157 0.833328
#
# Coordination Sequence:
#
# PCOD8321512 Si02
#       5
#     9   9   3   9   3
#     4  10  20  38  59  80 118 155 202 231 292 363
#     4  11  22  39  60  89 118 160 198 248 296 354
#     4  12  24  33  57  99 123 138 196 272 301 318
#     4  10  20  35  59  86 108 157 215 238 279 361
#     4   9  18  33  57  78  99 156 193 233 268 354
#
# _framework density 17.839338999999999
#
# number of rings (size 3 to 8) (size 9 to 14) (size 15 to 20)
#    0.545    1.091    5.455    0.545    3.818    0.000 
#    0.000    0.000    0.000    0.000    7.091    0.000 
#    0.000    0.000    0.000    0.000    0.000    0.000 
#
# Total GULP energy -136321.476065 kJ/mol
# GULP energy per Si atom -12392.861460 kJ/mol
# Density = 1.779874 g / cm^3
# Si number density = 17.839339 Si / 1000 Ang^3
#
#
#
# Elastic Constant Matrix: (Units=GPa)
#
#
# Indices 1 2 3 4 5 6 
#
# 1 97.2564 44.2720 29.0629 6.0762 0.0613 0.0002
# 2 44.2720 97.2571 29.0632 -6.0764 -0.0613 0.0001
# 3 29.0629 29.0632 86.7870 -0.0002 0.0000 0.0000
# 4 6.0762 -6.0764 -0.0002 26.7292 0.0001 -0.0613
# 5 0.0613 -0.0613 0.0000 0.0001 26.7292 6.0763
# 6 0.0002 0.0001 0.0000 -0.0613 6.0763 26.4924
#
#
#
# Elastic Compliance Matrix: (Units=1/GPa)
#
#
# Indices 1 2 3 4 5 6 
#
# 1 0.014052 -0.005860 -0.002743 -0.004526 -0.000046 0.000000
# 2 -0.005860 0.014052 -0.002743 0.004526 0.000046 0.000000
# 3 -0.002743 -0.002743 0.013360 0.000000 0.000000 0.000000
# 4 -0.004526 0.004526 0.000000 0.039470 0.000000 0.000091
# 5 -0.000046 0.000046 0.000000 0.000000 0.039470 -0.009053
# 6 0.000000 0.000000 0.000000 0.000091 -0.009053 0.039823
#
#
# Mechanical properties :
#
#
# Convention : Reuss Voigt Hill
#
# Bulk Modulus (GPa) = 53.27387 54.01076 53.64231
# Shear Modulus (GPa) = 26.43011 27.91699 27.17355
#
# Velocity S-wave (km/s) = 3.85328 3.96019 3.90710
# Velocity P-wave (km/s) = 7.05160 7.15910 7.10555
#
# Compressibility (1/GPa) = 0.01877093
#
# Stress axis : x y z
#
# Youngs Moduli (GPa) = 71.16381 71.16413 74.85076
#
# Poissons Ratio (x) = 0.41699 0.20535
# Poissons Ratio (y) = 0.41699 0.20535
# Poissons Ratio (z) = 0.19524 0.19524
#
# Static dielectric constant tensor:
#      x y z
#    x 3.195530 -0.000010 0.000010 
#    y -0.000010 3.195530 0.000000 
#    z 0.000010 0.000000 3.209050 
# 
# 
# High freq. dielectric constant tensor:
#      x y z
#    x 1.678100 0.000000 0.000000 
#    y 0.000000 1.678100 0.000000 
#    z 0.000000 0.000000 1.692980 
# 
# From -- ./inp_files/1337.got.cif
#   From: 2010.06.25/outbox.cif.g09.slc.cpg/sg146_cif.got.tgz:1337.got - 2010.06.28 11:17:22.
