data_PCOD8321468
_publ_section_title
;
Structure prediction by ZEFSAII (Michael W. Deem and Ramdas Pophale) SiO2 
 PCOD8321468
Probable space group: P 32
;
_chemical_formula_sum "Si O2"
_cell_formula_units_Z 12
_cell_length_a 8.297544
_cell_length_b 8.297544
_cell_length_c 7.052820
_cell_angle_alpha 90.000000
_cell_angle_beta 90.000000
_cell_angle_gamma 120.000000
_cell_volume 420.525717
_symmetry_space_group_name_H-M "P 32"
_symmetry_group_IT_number 145
_symmetry_cell_setting 'hexagonal'
loop_
_space_group_symop_operation_xyz
x,y,z
-y,x-y,2/3+z
-x+y,-x,1/3+z
loop_
_atom_site_type_symbol
_atom_site_label
_atom_site_fract_x
_atom_site_fract_y
_atom_site_fract_z
Si Si1 0.743685 0.842896 0.946890
Si Si2 0.612855 0.430122 0.846573
Si Si3 0.842896 0.743686 0.331699
Si Si4 0.387145 0.817267 0.098682
O O1 0.663812 0.642586 0.848761
O O2 0.584057 0.892496 0.994743
O O3 0.887864 0.000000 0.805961
O O4 0.850488 0.850490 0.139295
O O5 0.600369 0.364964 0.629408
O O6 0.415941 0.308437 0.950513
O O7 0.642586 0.663811 0.429829
O O8 0.235406 0.635035 0.982514
#
# Coordination Sequence:
#
# PCOD8321468 Si02
#       4
#     3   3   3   3
#     4  10  21  43  77 118 155 199 256 315 383 454
#     4  10  22  43  78 114 152 203 252 312 385 453
#     4  10  21  43  77 118 155 199 256 315 383 454
#     4  10  22  43  78 114 152 203 252 312 385 453
#
# _framework density 28.535715
#
# number of rings (size 3 to 8) (size 9 to 14) (size 15 to 20)
#    0.000    2.000    0.000    4.500    0.000    2.000 
#    0.000    7.500    0.000   72.000    0.000   73.500 
#    0.000    0.000    0.000    0.000    0.000    0.000 
#
# Total GULP energy -148859.297174 kJ/mol
# GULP energy per Si atom -12404.941431 kJ/mol
# Density = 2.847077 g / cm^3
# Si number density = 28.535715 Si / 1000 Ang^3
#
#
#
# Elastic Constant Matrix: (Units=GPa)
#
#
# Indices 1 2 3 4 5 6 
#
# 1 186.1285 89.6425 63.9039 12.8219 0.0003 0.0000
# 2 89.6425 186.1285 63.9039 -12.8219 -0.0003 0.0000
# 3 63.9039 63.9039 133.7429 0.0000 0.0000 0.0000
# 4 12.8219 -12.8219 0.0000 45.9484 0.0000 -0.0003
# 5 0.0003 -0.0003 0.0000 0.0000 45.9484 12.8219
# 6 0.0000 0.0000 0.0000 -0.0003 12.8219 48.2430
#
#
#
# Elastic Compliance Matrix: (Units=1/GPa)
#
#
# Indices 1 2 3 4 5 6 
#
# 1 0.007926 -0.003268 -0.002225 -0.003124 0.000000 0.000000
# 2 -0.003268 0.007926 -0.002225 0.003124 0.000000 0.000000
# 3 -0.002225 -0.002225 0.009604 0.000000 0.000000 0.000000
# 4 -0.003124 0.003124 0.000000 0.023507 0.000000 0.000000
# 5 0.000000 0.000000 0.000000 0.000000 0.023507 -0.006248
# 6 0.000000 0.000000 0.000000 0.000000 -0.006248 0.022389
#
#
# Mechanical properties :
#
#
# Convention : Reuss Voigt Hill
#
# Bulk Modulus (GPa) = 99.82921 104.54449 102.18685
# Shear Modulus (GPa) = 44.00004 47.26459 45.63231
#
# Velocity S-wave (km/s) = 3.93100 4.07422 4.00325
# Velocity P-wave (km/s) = 7.46080 7.67126 7.56676
#
# Compressibility (1/GPa) = 0.01001711
#
# Stress axis : x y z
#
# Youngs Moduli (GPa) = 126.16666 126.16666 104.12623
#
# Poissons Ratio (x) = 0.41237 0.23173
# Poissons Ratio (y) = 0.41237 0.23173
# Poissons Ratio (z) = 0.28078 0.28078
#
# Static dielectric constant tensor:
#      x y z
#    x 5.180350 0.000000 0.000000 
#    y 0.000000 5.180350 0.000000 
#    z 0.000000 0.000000 5.413200 
# 
# 
# High freq. dielectric constant tensor:
#      x y z
#    x 2.169810 0.000000 0.000000 
#    y 0.000000 2.169810 0.000000 
#    z 0.000000 0.000000 2.167680 
# 
# From -- ./inp_files/229.got.cif
#   From: 2010.03.12/outbox.cif.g09.slc.cpg/sg145_cif.got.tgz:229.got - 2010.04.03 13:35:35.
