data_PCOD8321173
_publ_section_title
;
Structure prediction by ZEFSAII (Michael W. Deem and Ramdas Pophale) SiO2 
 PCOD8321173
Probable space group: I 41/A C D
;
_chemical_formula_sum "Si O2"
_cell_formula_units_Z 136
_cell_length_a 17.486846
_cell_length_b 17.486846
_cell_length_c 19.535227
_cell_angle_alpha 90.000000
_cell_angle_beta 90.000000
_cell_angle_gamma 90.000000
_cell_volume 5973.672826
_symmetry_space_group_name_H-M "I 41/A C D"
_symmetry_group_IT_number 142
_space_group.IT_coordinate_system_code '2'
_symmetry_cell_setting 'tetragonal'
loop_
_space_group_symop_operation_xyz
x,y,z
1/4-y,3/4+x,1/4+z
-x,1/2-y,z
1/4+y,1/4-x,3/4+z
x,-y,1/2-z
1/2-x,y,-z
3/4+y,1/4+x,1/4-z
1/4-y,1/4-x,1/4-z
-x,-y,-z
3/4+y,1/4-x,3/4-z
x,1/2+y,-z
3/4-y,3/4+x,1/4-z
-x,y,1/2+z
1/2+x,-y,z
1/4-y,3/4-x,3/4+z
3/4+y,3/4+x,3/4+z
1/2+x,1/2+y,1/2+z
3/4-y,1/4+x,3/4+z
1/2-x,-y,1/2+z
3/4+y,3/4-x,1/4+z
1/2+x,1/2-y,-z
-x,1/2+y,1/2-z
1/4+y,3/4+x,3/4-z
3/4-y,3/4-x,3/4-z
1/2-x,1/2-y,1/2-z
1/4+y,3/4-x,1/4-z
1/2+x,y,1/2-z
1/4-y,1/4+x,3/4-z
1/2-x,1/2+y,z
x,1/2-y,1/2+z
3/4-y,1/4-x,1/4+z
1/4+y,1/4+x,1/4+z
loop_
_atom_site_type_symbol
_atom_site_label
_atom_site_fract_x
_atom_site_fract_y
_atom_site_fract_z
Si Si1 0.128754 0.001312 0.502553
Si Si2 0.000000 0.750000 0.375000
Si Si3 0.344516 0.413838 0.631043
Si Si4 0.006769 0.969430 0.173513
Si Si5 0.995195 0.908408 0.940100
O O1 0.183441 0.034950 0.442983
O O2 0.066019 0.068116 0.512154
O O3 0.172111 0.977775 0.572202
O O4 0.084856 0.924664 0.478238
O O5 0.930396 0.750336 0.323032
O O6 0.430817 0.419212 0.659982
O O7 0.330059 0.329763 0.599861
O O8 0.014551 0.000000 0.250000
O O9 0.000763 0.046702 0.130664
#
# Coordination Sequence:
#
# PCOD8321173 Si02
#       5
#    32   8  32  32  32
#     4   9  20  44  65  94 140 180 230 290 348 441
#     4  12  24  36  72  98 128 172 224 308 362 396
#     4  10  22  43  73  96 142 186 234 300 358 426
#     4  10  23  44  66 100 139 181 234 299 349 431
#     4   9  22  39  61  98 135 165 226 295 349 408
#
# _framework density 22.766563999999999
#
# number of rings (size 3 to 8) (size 9 to 14) (size 15 to 20)
#    0.000    2.353    0.000    1.412    6.588    0.471 
#    0.000    3.529    0.000    0.000    0.000    0.000 
#    0.000    0.000    0.000    0.000    0.000    0.000 
#
# Total GULP energy -843080.115173 kJ/mol
# GULP energy per Si atom -12398.236988 kJ/mol
# Density = 2.271475 g / cm^3
# Si number density = 22.766564 Si / 1000 Ang^3
#
#
#
# Elastic Constant Matrix: (Units=GPa)
#
#
# Indices 1 2 3 4 5 6 
#
# 1 95.0141 34.8544 30.9050 0.0000 0.0000 0.0000
# 2 34.8544 95.0141 30.9050 0.0000 0.0000 0.0000
# 3 30.9050 30.9050 141.0027 0.0000 0.0000 0.0000
# 4 0.0000 0.0000 0.0000 35.3913 0.0000 0.0000
# 5 0.0000 0.0000 0.0000 0.0000 35.3913 0.0000
# 6 0.0000 0.0000 0.0000 0.0000 0.0000 24.6509
#
#
#
# Elastic Compliance Matrix: (Units=1/GPa)
#
#
# Indices 1 2 3 4 5 6 
#
# 1 0.012610 -0.004013 -0.001884 0.000000 0.000000 0.000000
# 2 -0.004013 0.012610 -0.001884 0.000000 0.000000 0.000000
# 3 -0.001884 -0.001884 0.007918 0.000000 0.000000 0.000000
# 4 0.000000 0.000000 0.000000 0.028256 0.000000 0.000000
# 5 0.000000 0.000000 0.000000 0.000000 0.028256 0.000000
# 6 0.000000 0.000000 0.000000 0.000000 0.000000 0.040566
#
#
# Mechanical properties :
#
#
# Convention : Reuss Voigt Hill
#
# Bulk Modulus (GPa) = 56.89973 58.26219 57.58096
# Shear Modulus (GPa) = 32.97376 34.71114 33.84245
#
# Velocity S-wave (km/s) = 3.80984 3.90892 3.85970
# Velocity P-wave (km/s) = 6.66334 6.78377 6.72382
#
# Compressibility (1/GPa) = 0.01757477
#
# Stress axis : x y z
#
# Youngs Moduli (GPa) = 79.30419 79.30419 126.29363
#
# Poissons Ratio (x) = 0.31823 0.23797
# Poissons Ratio (y) = 0.31823 0.23797
# Poissons Ratio (z) = 0.14943 0.14943
#
# Static dielectric constant tensor:
#      x y z
#    x 3.977860 0.000000 0.000000 
#    y 0.000000 3.977860 0.000000 
#    z 0.000000 0.000000 4.549120 
# 
# 
# High freq. dielectric constant tensor:
#      x y z
#    x 1.890070 0.000000 0.000000 
#    y 0.000000 1.890070 0.000000 
#    z 0.000000 0.000000 1.921240 
# 
# From -- ./inp_files/8772.got.cif
#   From: 2010.03.12/outbox.cif.g09.slc.cpg/sg142_5_cif.got.tgz:8772.got - 2010.04.03 13:27:16.
