data_PCOD8321174
_publ_section_title
;
Structure prediction by ZEFSAII (Michael W. Deem and Ramdas Pophale) SiO2 
 PCOD8321174
Probable space group: I 41/A C D
;
_chemical_formula_sum "Si O2"
_cell_formula_units_Z 80
_cell_length_a 18.245982
_cell_length_b 18.245982
_cell_length_c 10.498523
_cell_angle_alpha 90.000000
_cell_angle_beta 90.000000
_cell_angle_gamma 90.000000
_cell_volume 3495.124804
_symmetry_space_group_name_H-M "I 41/A C D"
_symmetry_group_IT_number 142
_space_group.IT_coordinate_system_code '2'
_symmetry_cell_setting 'tetragonal'
loop_
_space_group_symop_operation_xyz
x,y,z
1/4-y,3/4+x,1/4+z
-x,1/2-y,z
1/4+y,1/4-x,3/4+z
x,-y,1/2-z
1/2-x,y,-z
3/4+y,1/4+x,1/4-z
1/4-y,1/4-x,1/4-z
-x,-y,-z
3/4+y,1/4-x,3/4-z
x,1/2+y,-z
3/4-y,3/4+x,1/4-z
-x,y,1/2+z
1/2+x,-y,z
1/4-y,3/4-x,3/4+z
3/4+y,3/4+x,3/4+z
1/2+x,1/2+y,1/2+z
3/4-y,1/4+x,3/4+z
1/2-x,-y,1/2+z
3/4+y,3/4-x,1/4+z
1/2+x,1/2-y,-z
-x,1/2+y,1/2-z
1/4+y,3/4+x,3/4-z
3/4-y,3/4-x,3/4-z
1/2-x,1/2-y,1/2-z
1/4+y,3/4-x,1/4-z
1/2+x,y,1/2-z
1/4-y,1/4+x,3/4-z
1/2-x,1/2+y,z
x,1/2-y,1/2+z
3/4-y,1/4-x,1/4+z
1/4+y,1/4+x,1/4+z
loop_
_atom_site_type_symbol
_atom_site_label
_atom_site_fract_x
_atom_site_fract_y
_atom_site_fract_z
Si Si1 0.945245 0.920490 0.875602
Si Si2 0.120719 0.746563 0.126840
Si Si3 0.711217 0.461217 0.875000
O O1 0.913031 0.836970 0.875000
O O2 0.988141 0.927625 0.741271
O O3 0.876556 0.977074 0.884954
O O4 0.996683 0.924565 0.000610
O O5 0.073901 0.819687 0.102422
O O6 0.744119 0.500000 0.750000
#
# Coordination Sequence:
#
# PCOD8321174 Si02
#       3
#    32  32  16
#     4   8  17  30  53  83 112 142 185 228 266 337
#     4   9  14  26  51  88 127 154 166 201 282 363
#     4  10  22  44  61  72 100 152 213 248 268 314
#
# _framework density 22.889025
#
# number of rings (size 3 to 8) (size 9 to 14) (size 15 to 20)
#    1.200    2.000    0.000    1.200    0.000    4.800 
#    0.000    6.000    0.000    0.000    0.000    0.000 
#    0.000    0.000    0.000    0.000    0.000    0.000 
#
# Total GULP energy -495682.821779 kJ/mol
# GULP energy per Si atom -12392.070544 kJ/mol
# Density = 2.283693 g / cm^3
# Si number density = 22.889025 Si / 1000 Ang^3
#
#
#
# Elastic Constant Matrix: (Units=GPa)
#
#
# Indices 1 2 3 4 5 6 
#
# 1 70.4107 3.3466 48.1813 0.0000 0.0000 0.0000
# 2 3.3466 70.4138 48.1819 0.0000 0.0000 0.0000
# 3 48.1813 48.1819 267.4049 0.0000 0.0000 0.0000
# 4 0.0000 0.0000 0.0000 -9.2581 0.0000 0.0000
# 5 0.0000 0.0000 0.0000 0.0000 -9.2609 0.0000
# 6 0.0000 0.0000 0.0000 0.0000 0.0000 11.3020
#
#
#
# Elastic Compliance Matrix: (Units=1/GPa)
#
#
# Indices 1 2 3 4 5 6 
#
# 1 0.016322 0.001411 -0.003195 0.000000 0.000000 0.000000
# 2 0.001411 0.016321 -0.003195 0.000000 0.000000 0.000000
# 3 -0.003195 -0.003195 0.004891 0.000000 0.000000 0.000000
# 4 0.000000 0.000000 0.000000 -0.108013 0.000000 0.000000
# 5 0.000000 0.000000 0.000000 0.000000 -0.107981 0.000000
# 6 0.000000 0.000000 0.000000 0.000000 0.000000 0.088480
#
#
# Mechanical properties :
#
#
# Convention : Reuss Voigt Hill
#
# Bulk Modulus (GPa) = 36.26504 67.51656 51.89080
# Shear Modulus (GPa) = -70.59167 19.12455 -25.73356
#
# Velocity S-wave (km/s) = -5.55948 2.89370 -3.35666
# Velocity P-wave (km/s) = 5.03310 6.38169 2.77434
#
# Compressibility (1/GPa) = 0.02757477
#
# Stress axis : x y z
#
# Youngs Moduli (GPa) = 61.26825 61.27113 204.45735
#
# Poissons Ratio (x) = -0.08642 0.65324
# Poissons Ratio (y) = -0.08642 0.65322
# Poissons Ratio (z) = 0.19575 0.19576
#
# Static dielectric constant tensor:
#      x y z
#    x 3.601760 0.000000 0.000000 
#    y 0.000000 3.601750 0.000000 
#    z 0.000000 0.000000 4.357850 
# 
# 
# High freq. dielectric constant tensor:
#      x y z
#    x 1.871110 0.000000 0.000000 
#    y 0.000000 1.871110 0.000000 
#    z 0.000000 0.000000 1.921520 
# 
# From -- ./inp_files/1477.got.cif
#   From: 2010.03.12/outbox.cif.g09.slc.cpg/sg142_1_cif.got.tgz:1477.got - 2010.04.03 13:27:16.
