data_PCOD8321350
_publ_section_title
;
Structure prediction by ZEFSAII (Michael W. Deem and Ramdas Pophale) SiO2 
 PCOD8321350
Probable space group: P 31
;
_chemical_formula_sum "Si O2"
_cell_formula_units_Z 24
_cell_length_a 10.248035
_cell_length_b 10.248035
_cell_length_c 13.118992
_cell_angle_alpha 90.000000
_cell_angle_beta 90.000000
_cell_angle_gamma 120.000000
_cell_volume 1193.197401
_symmetry_space_group_name_H-M "P 31"
_symmetry_group_IT_number 144
_symmetry_cell_setting 'hexagonal'
loop_
_space_group_symop_operation_xyz
x,y,z
-y,x-y,1/3+z
-x+y,-x,2/3+z
loop_
_atom_site_type_symbol
_atom_site_label
_atom_site_fract_x
_atom_site_fract_y
_atom_site_fract_z
Si Si1 0.390526 0.646577 0.325390
Si Si2 0.070788 0.207580 0.366835
Si Si3 0.488326 0.905750 0.462261
Si Si4 0.231799 0.167578 0.186466
Si Si5 0.523990 0.157863 0.177757
Si Si6 0.511851 0.557214 0.662861
Si Si7 0.798366 0.333508 0.732401
Si Si8 0.605827 0.993079 0.787131
O O1 0.484525 0.821035 0.357719
O O2 0.415304 0.632224 0.206281
O O3 0.219621 0.602857 0.344777
O O4 0.444772 0.546950 0.388996
O O5 0.121204 0.129264 0.281721
O O6 0.019610 0.319205 0.313812
O O7 0.205025 0.301879 0.449205
O O8 0.929528 0.066582 0.421993
O O9 0.654444 0.970747 0.506040
O O10 0.444520 0.035624 0.449360
O O11 0.352068 0.112280 0.202948
O O12 0.624220 0.318181 0.128392
O O13 0.592651 0.172481 0.290143
O O14 0.529225 0.037375 0.101051
O O15 0.456371 0.440017 0.567582
O O16 0.714061 0.152421 0.730511
#
# Coordination Sequence:
#
# PCOD8321350 Si02
#       8
#     3   3   3   3   3   3   3   3
#     4  11  21  39  63  89 125 169 210 266 329 387
#     4  10  20  37  65  82 122 164 206 254 324 388
#     4  11  23  39  62  92 124 164 218 270 324 388
#     4  10  19  40  58  84 115 168 199 255 321 384
#     4  10  21  37  60  90 123 161 207 259 330 377
#     4  10  21  35  63  90 117 163 211 260 312 388
#     4  11  22  38  64  88 130 163 208 270 324 396
#     4  11  19  39  63  91 122 166 217 250 328 390
#
# _framework density 20.114021999999999
#
# number of rings (size 3 to 8) (size 9 to 14) (size 15 to 20)
#    0.000    1.500    5.000    1.500    1.750    1.000 
#    2.250    0.000   11.000    0.000    0.000    0.000 
#    0.000    0.000    0.000    0.000    0.000    0.000 
#
# Total GULP energy -297472.765222 kJ/mol
# GULP energy per Si atom -12394.698551 kJ/mol
# Density = 2.006824 g / cm^3
# Si number density = 20.114022 Si / 1000 Ang^3
#
#
#
# Elastic Constant Matrix: (Units=GPa)
#
#
# Indices 1 2 3 4 5 6 
#
# 1 52.2058 27.7005 22.6249 -8.4916 0.4747 0.0000
# 2 27.7005 52.2058 22.6249 8.4916 -0.4747 0.0000
# 3 22.6249 22.6249 102.4467 0.0000 0.0000 0.0000
# 4 -8.4916 8.4916 0.0000 35.9207 0.0000 -0.4747
# 5 0.4747 -0.4747 0.0000 0.0000 35.9207 -8.4916
# 6 0.0000 0.0000 0.0000 -0.4747 -8.4916 12.2526
#
#
#
# Elastic Compliance Matrix: (Units=1/GPa)
#
#
# Indices 1 2 3 4 5 6 
#
# 1 0.031568 -0.017265 -0.003159 0.011544 -0.000645 0.000000
# 2 -0.017265 0.031568 -0.003159 -0.011544 0.000645 0.000000
# 3 -0.003159 -0.003159 0.011156 0.000000 0.000000 0.000000
# 4 0.011544 -0.011544 0.000000 0.033314 0.000000 0.001291
# 5 -0.000645 0.000645 0.000000 0.000000 0.033314 0.023088
# 6 0.000000 0.000000 0.000000 0.001291 0.023088 0.097666
#
#
# Mechanical properties :
#
#
# Convention : Reuss Voigt Hill
#
# Bulk Modulus (GPa) = 36.86238 39.19542 38.02890
# Shear Modulus (GPa) = 16.96094 25.74600 21.35347
#
# Velocity S-wave (km/s) = 2.90701 3.58159 3.26179
# Velocity P-wave (km/s) = 5.44372 6.05249 5.75616
#
# Compressibility (1/GPa) = 0.02712793
#
# Stress axis : x y z
#
# Youngs Moduli (GPa) = 31.67739 31.67739 89.63459
#
# Poissons Ratio (x) = 0.54690 0.28314
# Poissons Ratio (y) = 0.54690 0.28314
# Poissons Ratio (z) = 0.10006 0.10006
#
# Static dielectric constant tensor:
#      x y z
#    x 3.608390 0.000000 0.000000 
#    y 0.000000 3.608390 0.000000 
#    z 0.000000 0.000000 3.860790 
# 
# 
# High freq. dielectric constant tensor:
#      x y z
#    x 1.771120 0.000000 0.000000 
#    y 0.000000 1.771120 0.000000 
#    z 0.000000 0.000000 1.792220 
# 
# From -- ./inp_files/676.got.cif
#   From: 2010.03.12/outbox.cif.g09.slc.cpg/sg144_cif.got.tgz:676.got - 2010.04.03 13:34:42.
