data_PCOD8321484
_publ_section_title
;
Structure prediction by ZEFSAII (Michael W. Deem and Ramdas Pophale) SiO2 
 PCOD8321484
Probable space group: P 32
;
_chemical_formula_sum "Si O2"
_cell_formula_units_Z 24
_cell_length_a 11.776120
_cell_length_b 11.776120
_cell_length_c 9.283392
_cell_angle_alpha 90.000000
_cell_angle_beta 90.000000
_cell_angle_gamma 120.000000
_cell_volume 1114.915020
_symmetry_space_group_name_H-M "P 32"
_symmetry_group_IT_number 145
_symmetry_cell_setting 'hexagonal'
loop_
_space_group_symop_operation_xyz
x,y,z
-y,x-y,2/3+z
-x+y,-x,1/3+z
loop_
_atom_site_type_symbol
_atom_site_label
_atom_site_fract_x
_atom_site_fract_y
_atom_site_fract_z
Si Si1 0.671319 0.181383 0.548530
Si Si2 0.675126 0.644672 0.230172
Si Si3 0.541266 0.697271 0.798337
Si Si4 0.792067 0.822672 0.977889
Si Si5 0.363787 0.021995 0.212721
Si Si6 0.906946 0.746741 0.739442
Si Si7 0.823270 0.485283 0.894366
Si Si8 0.426387 0.506462 0.036786
O O1 0.819297 0.287808 0.588100
O O2 0.581193 0.247860 0.554784
O O3 0.666663 0.128210 0.388115
O O4 0.617204 0.058731 0.657014
O O5 0.787883 0.762912 0.135826
O O6 0.666668 0.698061 0.388113
O O7 0.536816 0.592448 0.152670
O O8 0.545451 0.641697 0.640399
O O9 0.541095 0.832266 0.786348
O O10 0.666667 0.718047 0.888113
O O11 0.423709 0.587748 0.895844
O O12 0.792237 0.957838 0.989880
O O13 0.909625 0.830708 0.880382
O O14 0.277703 0.074221 0.290224
O O15 0.514037 0.135177 0.188125
O O16 0.891806 0.607936 0.785884
#
# Coordination Sequence:
#
# PCOD8321484 Si02
#       8
#     3   3   3   3   3   3   3   3
#     4  12  21  40  71 102 134 161 209 277 335 383
#     4  11  25  42  66 103 131 166 216 266 330 388
#     4  10  24  46  63  90 133 173 218 262 317 387
#     4  10  24  46  63  90 133 173 218 262 317 387
#     4  11  25  42  66 103 131 166 216 266 330 388
#     4  11  24  44  66  93 132 175 215 267 320 383
#     4  12  21  40  71 102 134 161 209 277 335 383
#     4  11  24  44  66  93 132 175 215 267 320 383
#
# _framework density 21.526304
#
# number of rings (size 3 to 8) (size 9 to 14) (size 15 to 20)
#    0.000    1.000    5.000    1.500    3.500    3.000 
#    4.500    0.000    0.000    0.000    0.000    0.000 
#    0.000    0.000    0.000    0.000    0.000    0.000 
#
# Total GULP energy -297592.836896 kJ/mol
# GULP energy per Si atom -12399.701537 kJ/mol
# Density = 2.147731 g / cm^3
# Si number density = 21.526304 Si / 1000 Ang^3
#
#
#
# Elastic Constant Matrix: (Units=GPa)
#
#
# Indices 1 2 3 4 5 6 
#
# 1 87.0736 22.5207 26.3726 -0.8618 -0.0001 0.0000
# 2 22.5207 87.0736 26.3726 0.8618 0.0001 0.0000
# 3 26.3726 26.3726 155.7287 0.0000 0.0000 0.0000
# 4 -0.8618 0.8618 0.0000 26.0210 0.0000 0.0001
# 5 -0.0001 0.0001 0.0000 0.0000 26.0210 -0.8618
# 6 0.0000 0.0000 0.0000 0.0001 -0.8618 32.2765
#
#
#
# Elastic Compliance Matrix: (Units=1/GPa)
#
#
# Indices 1 2 3 4 5 6 
#
# 1 0.012720 -0.002785 -0.001682 0.000513 0.000000 0.000000
# 2 -0.002785 0.012720 -0.001682 -0.000513 0.000000 0.000000
# 3 -0.001682 -0.001682 0.006991 0.000000 0.000000 0.000000
# 4 0.000513 -0.000513 0.000000 0.038465 0.000000 0.000000
# 5 0.000000 0.000000 0.000000 0.000000 0.038465 0.001027
# 6 0.000000 0.000000 0.000000 0.000000 0.001027 0.031010
#
#
# Mechanical properties :
#
#
# Convention : Reuss Voigt Hill
#
# Bulk Modulus (GPa) = 49.67638 53.37861 51.52750
# Shear Modulus (GPa) = 31.37169 33.83769 32.60469
#
# Velocity S-wave (km/s) = 3.82169 3.96905 3.89607
# Velocity P-wave (km/s) = 6.52694 6.77165 6.65042
#
# Compressibility (1/GPa) = 0.02013029
#
# Stress axis : x y z
#
# Youngs Moduli (GPa) = 78.61906 78.61906 143.03614
#
# Poissons Ratio (x) = 0.21898 0.24064
# Poissons Ratio (y) = 0.21898 0.24064
# Poissons Ratio (z) = 0.13227 0.13227
#
# Static dielectric constant tensor:
#      x y z
#    x 3.652950 0.000000 0.000000 
#    y 0.000000 3.652950 0.000000 
#    z 0.000000 0.000000 4.314390 
# 
# 
# High freq. dielectric constant tensor:
#      x y z
#    x 1.828110 0.000000 0.000000 
#    y 0.000000 1.828110 0.000000 
#    z 0.000000 0.000000 1.867000 
# 
# From -- ./inp_files/435.got.cif
#   From: 2010.03.12/outbox.cif.g09.slc.cpg/sg145_cif.got.tgz:435.got - 2010.04.03 13:35:35.
