data_PCOD8321033
_publ_section_title
;
Structure prediction by ZEFSAII (Michael W. Deem and Ramdas Pophale) SiO2 
 PCOD8321033
Probable space group: I 41/A C D
;
_chemical_formula_sum "Si O2"
_cell_formula_units_Z 160
_cell_length_a 18.069761
_cell_length_b 18.069761
_cell_length_c 26.928976
_cell_angle_alpha 90.000000
_cell_angle_beta 90.000000
_cell_angle_gamma 90.000000
_cell_volume 8792.748599
_symmetry_space_group_name_H-M "I 41/A C D"
_symmetry_group_IT_number 142
_space_group.IT_coordinate_system_code '2'
_symmetry_cell_setting 'tetragonal'
loop_
_space_group_symop_operation_xyz
x,y,z
1/4-y,3/4+x,1/4+z
-x,1/2-y,z
1/4+y,1/4-x,3/4+z
x,-y,1/2-z
1/2-x,y,-z
3/4+y,1/4+x,1/4-z
1/4-y,1/4-x,1/4-z
-x,-y,-z
3/4+y,1/4-x,3/4-z
x,1/2+y,-z
3/4-y,3/4+x,1/4-z
-x,y,1/2+z
1/2+x,-y,z
1/4-y,3/4-x,3/4+z
3/4+y,3/4+x,3/4+z
1/2+x,1/2+y,1/2+z
3/4-y,1/4+x,3/4+z
1/2-x,-y,1/2+z
3/4+y,3/4-x,1/4+z
1/2+x,1/2-y,-z
-x,1/2+y,1/2-z
1/4+y,3/4+x,3/4-z
3/4-y,3/4-x,3/4-z
1/2-x,1/2-y,1/2-z
1/4+y,3/4-x,1/4-z
1/2+x,y,1/2-z
1/4-y,1/4+x,3/4-z
1/2-x,1/2+y,z
x,1/2-y,1/2+z
3/4-y,1/4-x,1/4+z
1/4+y,1/4+x,1/4+z
loop_
_atom_site_type_symbol
_atom_site_label
_atom_site_fract_x
_atom_site_fract_y
_atom_site_fract_z
Si Si1 0.754693 0.896336 0.134521
Si Si2 0.442447 0.309847 0.702190
Si Si3 0.501649 0.579024 0.378946
Si Si4 0.237428 0.608228 0.343320
Si Si5 0.170377 0.414362 0.258690
O O1 0.773922 0.815114 0.115012
O O2 0.783020 0.906902 0.190813
O O3 0.667422 0.917422 0.125000
O O4 0.793782 0.952653 0.096696
O O5 0.500000 0.250000 0.725880
O O6 0.486558 0.358254 0.662086
O O7 0.373347 0.264860 0.679307
O O8 0.406404 0.367348 0.741069
O O9 0.569920 0.524330 0.383291
O O10 0.164224 0.585777 0.375000
O O11 0.218490 0.619738 0.285774
O O12 0.149825 0.500000 0.250000
#
# Coordination Sequence:
#
# PCOD8321033 Si02
#       5
#    32  32  32  32  32
#     4  10  20  34  60  86 115 153 200 250 290 353
#     4  11  19  33  60  90 117 147 197 255 300 349
#     4  11  18  35  61  86 113 150 192 249 302 345
#     4  11  20  36  61  81 118 159 192 240 299 358
#     4  11  20  35  62  88 114 155 205 238 300 356
#
# _framework density 18.196812999999999
#
# number of rings (size 3 to 8) (size 9 to 14) (size 15 to 20)
#    0.000    1.200   10.000    0.000    0.000    3.200 
#    0.000    0.000   30.800    0.000    0.000    0.000 
#    0.000    0.000    0.000    0.000    0.000    0.000 
#
# Total GULP energy -991352.882670 kJ/mol
# GULP energy per Si atom -12391.911033 kJ/mol
# Density = 1.815540 g / cm^3
# Si number density = 18.196813 Si / 1000 Ang^3
#
#
#
# Elastic Constant Matrix: (Units=GPa)
#
#
# Indices 1 2 3 4 5 6 
#
# 1 75.9552 43.2800 0.0265 0.0000 0.0000 0.0000
# 2 43.2800 75.9515 0.0262 0.0000 0.0000 0.0000
# 3 0.0265 0.0262 45.8695 0.0000 0.0000 0.0000
# 4 0.0000 0.0000 0.0000 20.9243 0.0000 0.0000
# 5 0.0000 0.0000 0.0000 0.0000 20.9243 0.0000
# 6 0.0000 0.0000 0.0000 0.0000 0.0000 51.7999
#
#
#
# Elastic Compliance Matrix: (Units=1/GPa)
#
#
# Indices 1 2 3 4 5 6 
#
# 1 0.019496 -0.011110 -0.000005 0.000000 0.000000 0.000000
# 2 -0.011110 0.019497 -0.000005 0.000000 0.000000 0.000000
# 3 -0.000005 -0.000005 0.021801 0.000000 0.000000 0.000000
# 4 0.000000 0.000000 0.000000 0.047791 0.000000 0.000000
# 5 0.000000 0.000000 0.000000 0.000000 0.047791 0.000000
# 6 0.000000 0.000000 0.000000 0.000000 0.000000 0.019305
#
#
# Mechanical properties :
#
#
# Convention : Reuss Voigt Hill
#
# Bulk Modulus (GPa) = 25.93661 31.60462 28.77062
# Shear Modulus (GPa) = 23.72233 29.02592 26.37412
#
# Velocity S-wave (km/s) = 3.61453 3.99822 3.81120
# Velocity P-wave (km/s) = 5.63064 6.22256 5.93398
#
# Compressibility (1/GPa) = 0.03855554
#
# Stress axis : x y z
#
# Youngs Moduli (GPa) = 51.29265 51.29010 45.86952
#
# Poissons Ratio (x) = 0.56981 0.00023
# Poissons Ratio (y) = 0.56984 0.00022
# Poissons Ratio (z) = 0.00025 0.00024
#
# Static dielectric constant tensor:
#      x y z
#    x 3.696510 0.000000 0.000000 
#    y 0.000000 3.696510 0.000000 
#    z 0.000000 0.000000 3.267750 
# 
# 
# High freq. dielectric constant tensor:
#      x y z
#    x 1.706050 0.000000 0.000000 
#    y 0.000000 1.706050 0.000000 
#    z 0.000000 0.000000 1.675920 
# 
# From -- ./inp_files/11263.got.cif
#   From: 2010.03.12/outbox.cif.g09.slc.cpg/sg142_6_cif.got.tgz:11263.got - 2010.04.03 13:27:16.
