data_PCOD8321133
_publ_section_title
;
Structure prediction by ZEFSAII (Michael W. Deem and Ramdas Pophale) SiO2 
 PCOD8321133
Probable space group: I 41/A C D
;
_chemical_formula_sum "Si O2"
_cell_formula_units_Z 160
_cell_length_a 16.137444
_cell_length_b 16.137444
_cell_length_c 28.571075
_cell_angle_alpha 90.000000
_cell_angle_beta 90.000000
_cell_angle_gamma 90.000000
_cell_volume 7440.396463
_symmetry_space_group_name_H-M "I 41/A C D"
_symmetry_group_IT_number 142
_space_group.IT_coordinate_system_code '2'
_symmetry_cell_setting 'tetragonal'
loop_
_space_group_symop_operation_xyz
x,y,z
1/4-y,3/4+x,1/4+z
-x,1/2-y,z
1/4+y,1/4-x,3/4+z
x,-y,1/2-z
1/2-x,y,-z
3/4+y,1/4+x,1/4-z
1/4-y,1/4-x,1/4-z
-x,-y,-z
3/4+y,1/4-x,3/4-z
x,1/2+y,-z
3/4-y,3/4+x,1/4-z
-x,y,1/2+z
1/2+x,-y,z
1/4-y,3/4-x,3/4+z
3/4+y,3/4+x,3/4+z
1/2+x,1/2+y,1/2+z
3/4-y,1/4+x,3/4+z
1/2-x,-y,1/2+z
3/4+y,3/4-x,1/4+z
1/2+x,1/2-y,-z
-x,1/2+y,1/2-z
1/4+y,3/4+x,3/4-z
3/4-y,3/4-x,3/4-z
1/2-x,1/2-y,1/2-z
1/4+y,3/4-x,1/4-z
1/2+x,y,1/2-z
1/4-y,1/4+x,3/4-z
1/2-x,1/2+y,z
x,1/2-y,1/2+z
3/4-y,1/4-x,1/4+z
1/4+y,1/4+x,1/4+z
loop_
_atom_site_type_symbol
_atom_site_label
_atom_site_fract_x
_atom_site_fract_y
_atom_site_fract_z
Si Si1 0.401397 0.930292 0.210947
Si Si2 0.404763 0.433725 0.179203
Si Si3 0.983988 0.054580 0.044246
Si Si4 0.569454 0.459337 0.130866
Si Si5 0.410840 0.889780 0.716123
O O1 0.337381 0.857071 0.216450
O O2 0.490663 0.888085 0.213833
O O3 0.387552 0.000000 0.250000
O O4 0.383272 0.970167 0.160212
O O5 0.502015 0.418864 0.166632
O O6 0.353275 0.388334 0.138598
O O7 0.384309 0.394351 0.229505
O O8 0.381238 0.531464 0.184650
O O9 0.054189 0.124005 0.053486
O O10 0.985572 0.998267 0.090005
O O11 0.000000 0.000000 0.000000
#
# Coordination Sequence:
#
# PCOD8321133 Si02
#       5
#    32  32  32  32  32
#     4  11  24  45  69  97 143 184 225 288 356 414
#     4  10  22  42  72 101 139 176 232 285 352 414
#     4  12  26  41  66 105 136 178 239 282 342 422
#     4  11  24  44  66 106 135 180 234 284 349 417
#     4  10  21  48  69  97 140 187 222 287 354 415
#
# _framework density 21.50423
#
# number of rings (size 3 to 8) (size 9 to 14) (size 15 to 20)
#    0.000    1.200    6.000    1.200    2.800    5.200 
#    7.200    4.000    0.000    0.000    0.000    0.000 
#    0.000    0.000    0.000    0.000    0.000    0.000 
#
# Total GULP energy -991778.930986 kJ/mol
# GULP energy per Si atom -12397.236637 kJ/mol
# Density = 2.145529 g / cm^3
# Si number density = 21.504230 Si / 1000 Ang^3
#
#
#
# Elastic Constant Matrix: (Units=GPa)
#
#
# Indices 1 2 3 4 5 6 
#
# 1 97.1778 58.9583 38.7674 0.0000 0.0000 0.0000
# 2 58.9583 97.1778 38.7674 0.0000 0.0000 0.0000
# 3 38.7674 38.7674 110.2678 0.0000 0.0000 0.0000
# 4 0.0000 0.0000 0.0000 41.0208 0.0000 0.0000
# 5 0.0000 0.0000 0.0000 0.0000 41.0208 0.0000
# 6 0.0000 0.0000 0.0000 0.0000 0.0000 31.6705
#
#
#
# Elastic Compliance Matrix: (Units=1/GPa)
#
#
# Indices 1 2 3 4 5 6 
#
# 1 0.016962 -0.009203 -0.002728 0.000000 0.000000 0.000000
# 2 -0.009203 0.016962 -0.002728 0.000000 0.000000 0.000000
# 3 -0.002728 -0.002728 0.010987 0.000000 0.000000 0.000000
# 4 0.000000 0.000000 0.000000 0.024378 0.000000 0.000000
# 5 0.000000 0.000000 0.000000 0.000000 0.024378 0.000000
# 6 0.000000 0.000000 0.000000 0.000000 0.000000 0.031575
#
#
# Mechanical properties :
#
#
# Convention : Reuss Voigt Hill
#
# Bulk Modulus (GPa) = 64.12830 64.17886 64.15358
# Shear Modulus (GPa) = 31.29751 33.95109 32.62430
#
# Velocity S-wave (km/s) = 3.81912 3.97773 3.89924
# Velocity P-wave (km/s) = 7.02379 7.14185 7.08307
#
# Compressibility (1/GPa) = 0.01559374
#
# Stress axis : x y z
#
# Youngs Moduli (GPa) = 58.95534 58.95534 91.01650
#
# Poissons Ratio (x) = 0.54254 0.24829
# Poissons Ratio (y) = 0.54254 0.24829
# Poissons Ratio (z) = 0.16083 0.16083
#
# Static dielectric constant tensor:
#      x y z
#    x 3.883820 0.000000 0.000000 
#    y 0.000000 3.883820 0.000000 
#    z 0.000000 0.000000 4.131170 
# 
# 
# High freq. dielectric constant tensor:
#      x y z
#    x 1.841310 0.000000 0.000000 
#    y 0.000000 1.841310 0.000000 
#    z 0.000000 0.000000 1.859870 
# 
# From -- ./inp_files/11277.got.cif
#   From: 2010.03.12/outbox.cif.g09.slc.cpg/sg142_6_cif.got.tgz:11277.got - 2010.04.03 13:27:16.
