data_PCOD8321465
_publ_section_title
;
Structure prediction by ZEFSAII (Michael W. Deem and Ramdas Pophale) SiO2 
 PCOD8321465
Probable space group: P 32
;
_chemical_formula_sum "Si O2"
_cell_formula_units_Z 18
_cell_length_a 11.714738
_cell_length_b 11.714738
_cell_length_c 6.012439
_cell_angle_alpha 90.000000
_cell_angle_beta 90.000000
_cell_angle_gamma 120.000000
_cell_volume 714.572790
_symmetry_space_group_name_H-M "P 32"
_symmetry_group_IT_number 145
_symmetry_cell_setting 'hexagonal'
loop_
_space_group_symop_operation_xyz
x,y,z
-y,x-y,2/3+z
-x+y,-x,1/3+z
loop_
_atom_site_type_symbol
_atom_site_label
_atom_site_fract_x
_atom_site_fract_y
_atom_site_fract_z
Si Si1 0.511695 0.612558 0.958780
Si Si2 0.281735 0.467587 0.627485
Si Si3 0.146277 0.291232 0.002744
Si Si4 0.691793 0.040190 0.005665
Si Si5 0.800495 0.411847 0.413366
Si Si6 0.931295 0.050044 0.188446
O O1 0.375204 0.558314 0.824004
O O2 0.626960 0.725507 0.817323
O O3 0.558187 0.506021 0.014555
O O4 0.479369 0.672142 0.178411
O O5 0.372747 0.443808 0.453025
O O6 0.173543 0.332264 0.746198
O O7 0.273181 0.293489 0.108763
O O8 0.026191 0.143742 0.991389
O O9 0.804413 0.068440 0.186871
O O10 0.691687 0.174043 0.944042
O O11 0.704498 0.269846 0.530615
O O12 0.005215 0.098079 0.426356
#
# Coordination Sequence:
#
# PCOD8321465 Si02
#       6
#     3   3   3   3   3   3
#     4  11  28  48  73 115 149 202 260 322 404 464
#     4  11  25  47  76 106 152 193 253 329 385 476
#     4  10  23  43  72 106 144 192 242 324 378 471
#     4  10  24  46  67 107 145 193 255 305 389 448
#     4  12  31  51  76 112 155 221 265 327 387 481
#     4  10  21  39  68 102 137 187 241 305 383 446
#
# _framework density 25.189876000000002
#
# number of rings (size 3 to 8) (size 9 to 14) (size 15 to 20)
#    0.000    1.333    1.667    1.000    9.333    1.333 
#    6.000    0.000    0.000    0.000    0.000    0.000 
#    0.000    0.000    0.000    0.000    0.000    0.000 
#
# Total GULP energy -223039.503575 kJ/mol
# GULP energy per Si atom -12391.083532 kJ/mol
# Density = 2.513254 g / cm^3
# Si number density = 25.189876 Si / 1000 Ang^3
#
#
#
# Elastic Constant Matrix: (Units=GPa)
#
#
# Indices 1 2 3 4 5 6 
#
# 1 106.9443 31.5617 38.3210 6.7099 0.8911 0.0000
# 2 31.5617 106.9443 38.3210 -6.7099 -0.8911 0.0000
# 3 38.3210 38.3210 89.2622 0.0000 0.0000 0.0000
# 4 6.7099 -6.7099 0.0000 36.8809 0.0000 -0.8911
# 5 0.8911 -0.8911 0.0000 0.0000 36.8809 6.7099
# 6 0.0000 0.0000 0.0000 -0.8911 6.7099 37.6913
#
#
#
# Elastic Compliance Matrix: (Units=1/GPa)
#
#
# Indices 1 2 3 4 5 6 
#
# 1 0.011594 -0.002124 -0.004065 -0.002496 -0.000331 0.000000
# 2 -0.002124 0.011594 -0.004065 0.002496 0.000331 0.000000
# 3 -0.004065 -0.004065 0.014693 0.000000 0.000000 0.000000
# 4 -0.002496 0.002496 0.000000 0.028038 0.000000 0.000663
# 5 -0.000331 0.000331 0.000000 0.000000 0.028038 -0.004991
# 6 0.000000 0.000000 0.000000 0.000663 -0.004991 0.027436
#
#
# Mechanical properties :
#
#
# Convention : Reuss Voigt Hill
#
# Bulk Modulus (GPa) = 57.56677 57.72869 57.64773
# Shear Modulus (GPa) = 33.85400 35.28712 34.57056
#
# Velocity S-wave (km/s) = 3.66997 3.74685 3.70861
# Velocity P-wave (km/s) = 6.39226 6.45644 6.42443
#
# Compressibility (1/GPa) = 0.01737113
#
# Stress axis : x y z
#
# Youngs Moduli (GPa) = 86.25442 86.25442 68.05743
#
# Poissons Ratio (x) = 0.18322 0.27667
# Poissons Ratio (y) = 0.18322 0.27667
# Poissons Ratio (z) = 0.35065 0.35065
#
# Static dielectric constant tensor:
#      x y z
#    x 4.756680 0.000000 0.000000 
#    y 0.000000 4.756680 0.000000 
#    z 0.000000 0.000000 4.480800 
# 
# 
# High freq. dielectric constant tensor:
#      x y z
#    x 2.006240 0.000000 0.000000 
#    y 0.000000 2.006240 0.000000 
#    z 0.000000 0.000000 2.009710 
# 
# From -- ./inp_files/132.got.cif
#   From: 2010.03.12/outbox.cif.g09.slc.cpg/sg145_cif.got.tgz:132.got - 2010.04.03 13:35:35.
