data_PCOD8321355
_publ_section_title
;
Structure prediction by ZEFSAII (Michael W. Deem and Ramdas Pophale) SiO2 
 PCOD8321355
Probable space group: P 31
;
_chemical_formula_sum "Si O2"
_cell_formula_units_Z 24
_cell_length_a 8.597921
_cell_length_b 8.597921
_cell_length_c 17.812653
_cell_angle_alpha 90.000000
_cell_angle_beta 90.000000
_cell_angle_gamma 120.000000
_cell_volume 1140.370936
_symmetry_space_group_name_H-M "P 31"
_symmetry_group_IT_number 144
_symmetry_cell_setting 'hexagonal'
loop_
_space_group_symop_operation_xyz
x,y,z
-y,x-y,1/3+z
-x+y,-x,2/3+z
loop_
_atom_site_type_symbol
_atom_site_label
_atom_site_fract_x
_atom_site_fract_y
_atom_site_fract_z
Si Si1 0.999999 0.259121 0.830170
Si Si2 0.538143 0.615807 0.432496
Si Si3 0.826286 0.375562 0.959375
Si Si4 0.894422 0.689806 0.485007
Si Si5 0.638884 0.999999 0.996837
Si Si6 0.375564 0.826287 0.367633
Si Si7 0.689805 0.894420 0.842002
Si Si8 0.461859 0.077664 0.227847
O O1 0.155234 0.221143 0.862488
O O2 0.059194 0.400417 0.762779
O O3 0.940800 0.341224 0.897559
O O4 0.844768 0.065904 0.797853
O O5 0.551500 0.490439 0.368949
O O6 0.708435 0.694345 0.489822
O O7 0.523872 0.778873 0.395671
O O8 0.361887 0.503903 0.482721
O O9 0.638310 0.184314 0.975419
O O10 0.778871 0.523872 0.931342
O O11 0.949159 0.727120 0.397899
O O12 0.857979 0.496096 0.510956
O O13 0.727121 0.949159 0.929109
O O14 0.453993 0.815684 0.018256
O O15 0.448503 0.938935 0.291391
O O16 0.694341 0.708432 0.837187
#
# Coordination Sequence:
#
# PCOD8321355 Si02
#       8
#     3   3   3   3   3   3   3   3
#     4  10  20  38  60  86 122 152 194 250 300 354
#     4  11  22  38  60  85 117 157 201 243 302 361
#     4  10  21  38  60  86 118 159 201 250 299 356
#     4  10  20  36  58  85 116 155 195 246 299 359
#     4   8  18  36  56  78 112 154 196 238 292 342
#     4  10  21  38  60  86 118 159 201 250 299 356
#     4  10  20  36  58  85 116 155 195 246 299 359
#     4  11  22  38  60  85 117 157 201 243 302 361
#
# _framework density 21.045784999999999
#
# number of rings (size 3 to 8) (size 9 to 14) (size 15 to 20)
#    0.000    2.000    0.000    4.500    0.000    3.000 
#    0.000    2.500    0.000    6.000    0.000    0.000 
#    0.000    0.000    0.000    0.000    0.000    0.000 
#
# Total GULP energy -297341.725541 kJ/mol
# GULP energy per Si atom -12389.238564 kJ/mol
# Density = 2.099788 g / cm^3
# Si number density = 21.045785 Si / 1000 Ang^3
#
#
#
# Elastic Constant Matrix: (Units=GPa)
#
#
# Indices 1 2 3 4 5 6 
#
# 1 115.8321 50.7462 29.8128 -5.8564 0.0002 0.0000
# 2 50.7462 115.8321 29.8128 5.8564 -0.0002 0.0000
# 3 29.8128 29.8128 72.3478 0.0000 0.0000 0.0000
# 4 -5.8564 5.8564 0.0000 30.4798 0.0000 -0.0002
# 5 0.0002 -0.0002 0.0000 0.0000 30.4798 -5.8564
# 6 0.0000 0.0000 0.0000 -0.0002 -5.8564 32.5429
#
#
#
# Elastic Compliance Matrix: (Units=1/GPa)
#
#
# Indices 1 2 3 4 5 6 
#
# 1 0.011478 -0.004436 -0.002902 0.003058 0.000000 0.000000
# 2 -0.004436 0.011478 -0.002902 -0.003058 0.000000 0.000000
# 3 -0.002902 -0.002902 0.016214 0.000000 0.000000 0.000000
# 4 0.003058 -0.003058 0.000000 0.033984 0.000000 0.000000
# 5 0.000000 0.000000 0.000000 0.000000 0.033984 0.006116
# 6 0.000000 0.000000 0.000000 0.000000 0.006116 0.031829
#
#
# Mechanical properties :
#
#
# Convention : Reuss Voigt Hill
#
# Bulk Modulus (GPa) = 53.50395 58.30620 55.90507
# Shear Modulus (GPa) = 30.17926 31.60983 30.89455
#
# Velocity S-wave (km/s) = 3.79090 3.87971 3.83556
# Velocity P-wave (km/s) = 6.68125 6.91622 6.79975
#
# Compressibility (1/GPa) = 0.01869021
#
# Stress axis : x y z
#
# Youngs Moduli (GPa) = 87.12142 87.12142 61.67649
#
# Poissons Ratio (x) = 0.38650 0.17897
# Poissons Ratio (y) = 0.38650 0.17897
# Poissons Ratio (z) = 0.25281 0.25281
#
# Static dielectric constant tensor:
#      x y z
#    x 3.915530 0.000000 0.000000 
#    y 0.000000 3.915530 0.000000 
#    z 0.000000 0.000000 3.833230 
# 
# 
# High freq. dielectric constant tensor:
#      x y z
#    x 1.815770 0.000000 0.000000 
#    y 0.000000 1.815770 0.000000 
#    z 0.000000 0.000000 1.823850 
# 
# From -- ./inp_files/797.got.cif
#   From: 2010.03.12/outbox.cif.g09.slc.cpg/sg144_cif.got.tgz:797.got - 2010.04.03 13:34:42.
