data_PCOD8321515
_publ_section_title
;
Structure prediction by ZEFSAII (Michael W. Deem and Ramdas Pophale) SiO2 
 PCOD8321515
Probable space group: R 3
;
_chemical_formula_sum "Si O2"
_cell_formula_units_Z 51
_cell_length_a 17.790839
_cell_length_b 17.790839
_cell_length_c 9.678021
_cell_angle_alpha 90.000000
_cell_angle_beta 90.000000
_cell_angle_gamma 120.000000
_cell_volume 2652.833852
_symmetry_space_group_name_H-M "R 3"
_symmetry_group_IT_number 146
_symmetry_cell_setting 'hexagonal'
loop_
_space_group_symop_operation_xyz
x,y,z
-y,x-y,z
-x+y,-x,z
2/3+x,1/3+y,1/3+z
2/3-y,1/3+x-y,1/3+z
2/3-x+y,1/3-x,1/3+z
1/3+x,2/3+y,2/3+z
1/3-y,2/3+x-y,2/3+z
1/3-x+y,2/3-x,2/3+z
loop_
_atom_site_type_symbol
_atom_site_label
_atom_site_fract_x
_atom_site_fract_y
_atom_site_fract_z
Si Si1 0.099947 0.770494 0.394860
Si Si2 0.160780 0.076432 0.748789
Si Si3 0.000000 0.000000 0.572090
Si Si4 0.428483 0.426645 0.376816
Si Si5 0.000000 0.000000 0.251413
Si Si6 0.483344 0.300579 0.498331
Si Si7 0.138743 0.567214 0.550875
O O1 0.190632 0.777832 0.347755
O O2 0.113687 0.799244 0.555299
O O3 0.073672 0.827644 0.298607
O O4 0.023463 0.671505 0.388440
O O5 0.123106 0.123821 0.844541
O O6 0.165964 0.003884 0.841602
O O7 0.096810 0.029162 0.621773
O O8 0.000000 0.000000 0.412327
O O9 0.481807 0.380841 0.424095
O O10 0.458666 0.507671 0.476956
O O11 0.996747 0.912707 0.203125
O O12 0.455409 0.226024 0.382171
#
# Coordination Sequence:
#
# PCOD8321515 Si02
#       7
#     9   9   3   9   3   9   9
#     4  11  22  37  64  92 122 157 205 259 307 364
#     4   9  19  37  63  86 123 164 207 239 308 375
#     4   9  21  37  56  94 123 166 200 256 300 373
#     4  11  21  37  63  94 118 161 206 255 304 364
#     4  12  30  37  62  94 132 160 206 268 315 358
#     4  12  23  40  62  93 125 157 208 263 311 359
#     4  10  20  37  64  89 119 163 206 250 305 371
#
# _framework density 19.224724999999999
#
# number of rings (size 3 to 8) (size 9 to 14) (size 15 to 20)
#    0.000    1.412    5.294    1.412    7.412    0.000 
#    0.000    0.000    3.882    0.000    0.000    0.000 
#    0.000    0.000    0.000    0.000    0.000    0.000 
#
# Total GULP energy -210760.859833 kJ/mol
# GULP energy per Si atom -12397.697637 kJ/mol
# Density = 1.918097 g / cm^3
# Si number density = 19.224725 Si / 1000 Ang^3
#
#
#
# Elastic Constant Matrix: (Units=GPa)
#
#
# Indices 1 2 3 4 5 6 
#
# 1 49.5300 87.9297 37.0828 6.4270 -26.8604 0.0001
# 2 87.9297 49.5299 37.0821 -6.4270 26.8604 -0.0001
# 3 37.0828 37.0821 145.7142 0.0000 0.0002 -0.0002
# 4 6.4270 -6.4270 0.0000 8.4992 0.0001 26.8601
# 5 -26.8604 26.8604 0.0002 0.0001 8.4991 6.4268
# 6 0.0001 -0.0001 -0.0002 26.8601 6.4268 -19.1993
#
#
#
# Elastic Compliance Matrix: (Units=1/GPa)
#
#
# Indices 1 2 3 4 5 6 
#
# 1 0.001922 0.006511 -0.002146 0.003470 -0.014504 0.000000
# 2 0.006511 0.001922 -0.002146 -0.003470 0.014504 0.000000
# 3 -0.002146 -0.002146 0.007955 0.000000 0.000000 0.000000
# 4 0.003470 -0.003470 0.000000 0.020735 0.000000 0.029008
# 5 -0.014504 0.014504 0.000000 0.000000 0.020735 0.006941
# 6 0.000000 0.000000 0.000000 0.029008 0.006941 -0.009179
#
#
# Mechanical properties :
#
#
# Convention : Reuss Voigt Hill
#
# Bulk Modulus (GPa) = 61.59010 63.21816 62.40413
# Shear Modulus (GPa) = 110.95458 5.07175 58.01317
#
# Velocity S-wave (km/s) = 7.60525 1.62600 5.49926
# Velocity P-wave (km/s) = 10.45113 6.03989 8.53541
#
# Compressibility (1/GPa) = 0.01623638
#
# Stress axis : x y z
#
# Youngs Moduli (GPa) = 520.37035 520.36233 125.70674
#
# Poissons Ratio (x) = -3.38808 0.26977
# Poissons Ratio (y) = -3.38813 0.26977
# Poissons Ratio (z) = 1.11671 1.11673
#
# Static dielectric constant tensor:
#      x y z
#    x 3.690680 0.000000 0.000000 
#    y 0.000000 3.690680 0.000000 
#    z 0.000000 0.000000 3.746860 
# 
# 
# High freq. dielectric constant tensor:
#      x y z
#    x 1.731810 0.000000 0.000000 
#    y 0.000000 1.731810 0.000000 
#    z 0.000000 0.000000 1.760640 
# 
# From -- ./inp_files/686.got.cif
#   From: 2010.06.25/outbox.cif.g09.slc.cpg/sg146_cif.got.tgz:686.got - 2010.06.28 11:17:22.
