data_PCOD8321012
_publ_section_title
;
Structure prediction by ZEFSAII (Michael W. Deem and Ramdas Pophale) SiO2 
 PCOD8321012
Probable space group: I 41/A C D
;
_chemical_formula_sum "Si O2"
_cell_formula_units_Z 168
_cell_length_a 19.027273
_cell_length_b 19.027273
_cell_length_c 22.507517
_cell_angle_alpha 90.000000
_cell_angle_beta 90.000000
_cell_angle_gamma 90.000000
_cell_volume 8148.556584
_symmetry_space_group_name_H-M "I 41/A C D"
_symmetry_group_IT_number 142
_space_group.IT_coordinate_system_code '2'
_symmetry_cell_setting 'tetragonal'
loop_
_space_group_symop_operation_xyz
x,y,z
1/4-y,3/4+x,1/4+z
-x,1/2-y,z
1/4+y,1/4-x,3/4+z
x,-y,1/2-z
1/2-x,y,-z
3/4+y,1/4+x,1/4-z
1/4-y,1/4-x,1/4-z
-x,-y,-z
3/4+y,1/4-x,3/4-z
x,1/2+y,-z
3/4-y,3/4+x,1/4-z
-x,y,1/2+z
1/2+x,-y,z
1/4-y,3/4-x,3/4+z
3/4+y,3/4+x,3/4+z
1/2+x,1/2+y,1/2+z
3/4-y,1/4+x,3/4+z
1/2-x,-y,1/2+z
3/4+y,3/4-x,1/4+z
1/2+x,1/2-y,-z
-x,1/2+y,1/2-z
1/4+y,3/4+x,3/4-z
3/4-y,3/4-x,3/4-z
1/2-x,1/2-y,1/2-z
1/4+y,3/4-x,1/4-z
1/2+x,y,1/2-z
1/4-y,1/4+x,3/4-z
1/2-x,1/2+y,z
x,1/2-y,1/2+z
3/4-y,1/4-x,1/4+z
1/4+y,1/4+x,1/4+z
loop_
_atom_site_type_symbol
_atom_site_label
_atom_site_fract_x
_atom_site_fract_y
_atom_site_fract_z
Si Si1 0.751859 0.966913 0.688499
Si Si2 0.008852 0.647975 0.095701
Si Si3 0.892266 0.215693 0.219575
Si Si4 0.251851 0.190232 0.334060
Si Si5 0.410192 0.443043 0.794064
Si Si6 0.000000 0.750000 0.375000
O O1 0.761038 0.011038 0.625000
O O2 0.779794 0.886913 0.681550
O O3 0.669906 0.963831 0.698972
O O4 0.785846 0.000000 0.750000
O O5 0.075953 0.686316 0.124402
O O6 0.010298 0.563684 0.099972
O O7 0.009214 0.667446 0.026398
O O8 0.806363 0.218705 0.215968
O O9 0.918866 0.135773 0.229393
O O10 0.929480 0.252199 0.164007
O O11 0.302911 0.192813 0.390862
O O12 0.446371 0.500000 0.750000
#
# Coordination Sequence:
#
# PCOD8321012 Si02
#       6
#    32  32  32  32  32   8
#     4   8  15  28  53  86 119 153 196 252 310 367
#     4  11  24  41  61  87 121 162 207 255 310 365
#     4  11  21  37  60  92 123 163 205 253 305 372
#     4  10  19  37  61  89 118 156 209 252 305 369
#     4   9  16  31  57  92 118 152 202 253 296 358
#     4  12  20  36  62  84 128 160 200 246 304 364
#
# _framework density 20.617149000000001
#
# number of rings (size 3 to 8) (size 9 to 14) (size 15 to 20)
#    0.000    2.095    1.905    4.000    0.000    1.524 
#    0.000    0.000    6.286    0.000    0.000    0.000 
#    0.000    0.000    0.000    0.000    0.000    0.000 
#
# Total GULP energy -1040673.219384 kJ/mol
# GULP energy per Si atom -12388.966897 kJ/mol
# Density = 2.057022 g / cm^3
# Si number density = 20.617149 Si / 1000 Ang^3
#
#
#
# Elastic Constant Matrix: (Units=GPa)
#
#
# Indices 1 2 3 4 5 6 
#
# 1 72.0502 44.3927 31.0581 0.0000 0.0000 0.0000
# 2 44.3927 72.0502 31.0581 0.0000 0.0000 0.0000
# 3 31.0581 31.0581 123.0017 0.0000 0.0000 0.0000
# 4 0.0000 0.0000 0.0000 21.0965 0.0000 0.0000
# 5 0.0000 0.0000 0.0000 0.0000 21.0965 0.0000
# 6 0.0000 0.0000 0.0000 0.0000 0.0000 26.0400
#
#
#
# Elastic Compliance Matrix: (Units=1/GPa)
#
#
# Indices 1 2 3 4 5 6 
#
# 1 0.023041 -0.013116 -0.002506 0.000000 0.000000 0.000000
# 2 -0.013116 0.023041 -0.002506 0.000000 0.000000 0.000000
# 3 -0.002506 -0.002506 0.009396 0.000000 0.000000 0.000000
# 4 0.000000 0.000000 0.000000 0.047401 0.000000 0.000000
# 5 0.000000 0.000000 0.000000 0.000000 0.047401 0.000000
# 6 0.000000 0.000000 0.000000 0.000000 0.000000 0.038402
#
#
# Mechanical properties :
#
#
# Convention : Reuss Voigt Hill
#
# Bulk Modulus (GPa) = 52.02659 53.34663 52.68661
# Shear Modulus (GPa) = 21.61278 24.35281 22.98279
#
# Velocity S-wave (km/s) = 3.24125 3.44058 3.34240
# Velocity P-wave (km/s) = 6.26873 6.45867 6.36441
#
# Compressibility (1/GPa) = 0.01922094
#
# Stress axis : x y z
#
# Youngs Moduli (GPa) = 43.40160 43.40159 106.43388
#
# Poissons Ratio (x) = 0.56925 0.26672
# Poissons Ratio (y) = 0.56925 0.26672
# Poissons Ratio (z) = 0.10876 0.10876
#
# Static dielectric constant tensor:
#      x y z
#    x 3.607420 0.000000 0.000000 
#    y 0.000000 3.607420 0.000000 
#    z 0.000000 0.000000 4.575080 
# 
# 
# High freq. dielectric constant tensor:
#      x y z
#    x 1.775000 0.000000 0.000000 
#    y 0.000000 1.775000 0.000000 
#    z 0.000000 0.000000 1.829440 
# 
# From -- ./inp_files/10343.got.cif
#   From: 2010.03.12/outbox.cif.g09.slc.cpg/sg142_6_cif.got.tgz:10343.got - 2010.04.03 13:27:16.
