data_PCOD8321593
_publ_section_title
;
Structure prediction by ZEFSAII (Michael W. Deem and Ramdas Pophale) SiO2 
 PCOD8321593
Probable space group: P -3
;
_chemical_formula_sum "Si O2"
_cell_formula_units_Z 34
_cell_length_a 13.101378
_cell_length_b 13.101378
_cell_length_c 12.501622
_cell_angle_alpha 90.000000
_cell_angle_beta 90.000000
_cell_angle_gamma 120.000000
_cell_volume 1858.364708
_symmetry_space_group_name_H-M "P -3"
_symmetry_group_IT_number 147
_symmetry_cell_setting 'hexagonal'
loop_
_space_group_symop_operation_xyz
x,y,z
-y,x-y,z
-x+y,-x,z
-x,-y,-z
y,-x+y,-z
x-y,x,-z
loop_
_atom_site_type_symbol
_atom_site_label
_atom_site_fract_x
_atom_site_fract_y
_atom_site_fract_z
Si Si1 0.863833 0.136169 0.499999
Si Si2 0.135119 0.712954 0.305877
Si Si3 0.333333 0.666666 0.627906
Si Si4 0.135767 0.864203 0.122543
Si Si5 0.422165 0.287045 0.305876
Si Si6 0.666667 0.333334 0.627905
Si Si7 0.271564 0.135796 0.122542
O O1 0.840135 0.194009 0.601614
O O2 0.805995 0.159867 0.398384
O O3 0.000001 0.190034 0.474191
O O4 0.169687 0.783536 0.193961
O O5 0.212395 0.651526 0.325872
O O6 0.999999 0.608728 0.305369
O O7 0.439132 0.651528 0.674129
O O8 0.333334 0.666667 0.500001
O O9 0.999999 0.827949 0.142076
O O10 0.215736 0.999999 0.155692
O O11 0.156944 0.843053 0.000000
O O12 0.386150 0.216463 0.193960
#
# Coordination Sequence:
#
# PCOD8321593 Si02
#       7
#     6   6   2   6   6   2   6
#     4  10  19  32  52  80 113 144 176 222 278 328
#     4  10  22  37  55  81 110 141 185 233 277 327
#     4  12  24  42  61  80 103 147 192 232 281 343
#     4   9  17  32  56  86 119 153 187 225 273 330
#     4  10  22  37  55  81 110 141 185 233 277 327
#     4  12  24  42  61  80 103 147 192 232 281 343
#     4   9  17  32  56  86 119 153 187 225 273 330
#
# _framework density 18.295656000000001
#
# number of rings (size 3 to 8) (size 9 to 14) (size 15 to 20)
#    0.000    2.118    1.765    1.588    0.000    4.941 
#    0.000    5.294    0.000    6.353    0.000    0.000 
#    0.000    0.000    0.000    0.000    0.000    0.000 
#
# Total GULP energy -421716.673344 kJ/mol
# GULP energy per Si atom -12403.431569 kJ/mol
# Density = 1.825401 g / cm^3
# Si number density = 18.295656 Si / 1000 Ang^3
#
#
#
# Elastic Constant Matrix: (Units=GPa)
#
#
# Indices 1 2 3 4 5 6 
#
# 1 94.2937 57.5789 46.7374 0.0007 -0.8501 0.0001
# 2 57.5789 94.2922 46.7366 -0.0006 0.8505 0.0000
# 3 46.7374 46.7366 105.2534 0.0001 -0.0006 -0.0001
# 4 0.0007 -0.0006 0.0001 16.6134 0.0000 0.8497
# 5 -0.8501 0.8505 -0.0006 0.0000 16.6143 0.0004
# 6 0.0001 0.0000 -0.0001 0.8497 0.0004 18.3563
#
#
#
# Elastic Compliance Matrix: (Units=1/GPa)
#
#
# Indices 1 2 3 4 5 6 
#
# 1 0.018181 -0.009121 -0.004023 -0.000001 0.001397 0.000000
# 2 -0.009121 0.018182 -0.004023 0.000001 -0.001398 0.000000
# 3 -0.004023 -0.004023 0.013074 0.000000 0.000001 0.000000
# 4 -0.000001 0.000001 0.000000 0.060335 0.000000 -0.002793
# 5 0.001397 -0.001398 0.000001 0.000000 0.060332 -0.000001
# 6 0.000000 0.000000 0.000000 -0.002793 -0.000001 0.054607
#
#
# Mechanical properties :
#
#
# Convention : Reuss Voigt Hill
#
# Bulk Modulus (GPa) = 66.21612 66.21614 66.21613
# Shear Modulus (GPa) = 18.93366 19.83589 19.38478
#
# Velocity S-wave (km/s) = 3.22043 3.29627 3.25857
# Velocity P-wave (km/s) = 7.07807 7.12447 7.10131
#
# Compressibility (1/GPa) = 0.01510206
#
# Stress axis : x y z
#
# Youngs Moduli (GPa) = 55.00122 55.00053 76.48773
#
# Poissons Ratio (x) = 0.50164 0.30774
# Poissons Ratio (y) = 0.50165 0.30774
# Poissons Ratio (z) = 0.22129 0.22129
#
# Static dielectric constant tensor:
#      x y z
#    x 3.240910 0.000000 0.000040 
#    y 0.000000 3.240910 0.000000 
#    z 0.000040 0.000000 4.423710 
# 
# 
# High freq. dielectric constant tensor:
#      x y z
#    x 1.700200 0.000000 0.000000 
#    y 0.000000 1.700200 0.000000 
#    z 0.000000 0.000000 1.720260 
# 
# From -- ./inp_files/949.got.cif
#   From: 2010.03.12/outbox.cif.g09.slc.cpg/sg147_cif.got.tgz:949.got - 2010.04.03 13:37:56.
