data_PCOD8321691
_publ_section_title
;
Structure prediction by ZEFSAII (Michael W. Deem and Ramdas Pophale) SiO2 
 PCOD8321691
Probable space group: R -3
;
_chemical_formula_sum "Si O2"
_cell_formula_units_Z 90
_cell_length_a 17.756773
_cell_length_b 17.756773
_cell_length_c 18.491815
_cell_angle_alpha 90.000000
_cell_angle_beta 90.000000
_cell_angle_gamma 120.000000
_cell_volume 5049.382344
_symmetry_space_group_name_H-M "R -3"
_symmetry_group_IT_number 148
_symmetry_cell_setting 'hexagonal'
loop_
_space_group_symop_operation_xyz
x,y,z
-y,x-y,z
-x+y,-x,z
-x,-y,-z
y,-x+y,-z
x-y,x,-z
2/3+x,1/3+y,1/3+z
2/3-y,1/3+x-y,1/3+z
2/3-x+y,1/3-x,1/3+z
2/3-x,1/3-y,1/3-z
2/3+y,1/3-x+y,1/3-z
2/3+x-y,1/3+x,1/3-z
1/3+x,2/3+y,2/3+z
1/3-y,2/3+x-y,2/3+z
1/3-x+y,2/3-x,2/3+z
1/3-x,2/3-y,2/3-z
1/3+y,2/3-x+y,2/3-z
1/3+x-y,2/3+x,2/3-z
loop_
_atom_site_type_symbol
_atom_site_label
_atom_site_fract_x
_atom_site_fract_y
_atom_site_fract_z
Si Si1 0.724672 0.968181 0.790759
Si Si2 0.800943 0.479679 0.295647
Si Si3 0.753790 0.811868 0.762927
Si Si4 0.392123 0.410038 0.699046
Si Si5 0.558917 0.452537 0.179182
O O1 0.766489 0.907656 0.773367
O O2 0.659759 0.927109 0.857678
O O3 0.673335 0.975505 0.722158
O O4 0.799630 0.067791 0.805468
O O5 0.806218 0.432273 0.370085
O O6 0.875029 0.578972 0.301957
O O7 0.813417 0.435186 0.225299
O O8 0.738676 0.787547 0.677007
O O9 0.840423 0.811448 0.788677
O O10 0.440095 0.474617 0.766773
#
# Coordination Sequence:
#
# PCOD8321691 Si02
#       5
#    18  18  18  18  18
#     4  10  20  35  54  79 113 142 182 231 267 335
#     4  10  19  30  48  78 107 143 171 214 276 339
#     4  10  21  35  54  80 112 151 177 224 281 325
#     4  10  20  36  56  74 109 146 189 219 271 330
#     4  10  21  32  52  82 107 144 185 223 269 330
#
# _framework density 17.823962000000002
#
# number of rings (size 3 to 8) (size 9 to 14) (size 15 to 20)
#    0.000    2.000    2.000    2.600    8.400    0.800 
#    1.200    0.000    0.000    0.000    0.000    0.000 
#    0.000    1.600    0.000    0.000    0.000    0.000 
#
# Total GULP energy -371707.230084 kJ/mol
# GULP energy per Si atom -12390.241003 kJ/mol
# Density = 1.778339 g / cm^3
# Si number density = 17.823962 Si / 1000 Ang^3
#
#
#
# Elastic Constant Matrix: (Units=GPa)
#
#
# Indices 1 2 3 4 5 6 
#
# 1 65.9032 26.8333 18.6046 3.6328 4.9586 0.0000
# 2 26.8333 65.9032 18.6046 -3.6328 -4.9586 0.0000
# 3 18.6046 18.6046 49.6601 0.0000 0.0000 0.0000
# 4 3.6328 -3.6328 0.0000 25.0051 0.0000 -4.9586
# 5 4.9586 -4.9586 0.0000 0.0000 25.0051 3.6328
# 6 0.0000 0.0000 0.0000 -4.9586 3.6328 19.5350
#
#
#
# Elastic Compliance Matrix: (Units=1/GPa)
#
#
# Indices 1 2 3 4 5 6 
#
# 1 0.020216 -0.007525 -0.004754 -0.004030 -0.005501 0.000000
# 2 -0.007525 0.020216 -0.004754 0.004030 0.005501 0.000000
# 3 -0.004754 -0.004754 0.023699 0.000000 0.000000 0.000000
# 4 -0.004030 0.004030 0.000000 0.043345 0.000000 0.011002
# 5 -0.005501 0.005501 0.000000 0.000000 0.043345 -0.008061
# 6 0.000000 0.000000 0.000000 0.011002 -0.008061 0.055482
#
#
# Mechanical properties :
#
#
# Convention : Reuss Voigt Hill
#
# Bulk Modulus (GPa) = 33.26332 34.39460 33.82896
# Shear Modulus (GPa) = 19.96875 21.73733 20.85304
#
# Velocity S-wave (km/s) = 3.35077 3.49600 3.42415
# Velocity P-wave (km/s) = 5.80283 5.96949 5.88675
#
# Compressibility (1/GPa) = 0.03006314
#
# Stress axis : x y z
#
# Youngs Moduli (GPa) = 49.46595 49.46595 42.19533
#
# Poissons Ratio (x) = 0.37223 0.20062
# Poissons Ratio (y) = 0.37223 0.20062
# Poissons Ratio (z) = 0.23519 0.23519
#
# Static dielectric constant tensor:
#      x y z
#    x 3.315670 0.000000 0.000000 
#    y 0.000000 3.315670 0.000000 
#    z 0.000000 0.000000 3.264920 
# 
# 
# High freq. dielectric constant tensor:
#      x y z
#    x 1.676970 0.000000 0.000000 
#    y 0.000000 1.676970 0.000000 
#    z 0.000000 0.000000 1.674660 
# 
# From -- ./inp_files/2689.got.cif
#   From: 2010.03.12/outbox.cif.g09.slc.cpg/sg148_2_cif.got.tgz:2689.got - 2010.04.03 13:38:46.
