data_PCOD8321130
_publ_section_title
;
Structure prediction by ZEFSAII (Michael W. Deem and Ramdas Pophale) SiO2 
 PCOD8321130
Probable space group: I 41/A C D
;
_chemical_formula_sum "Si O2"
_cell_formula_units_Z 112
_cell_length_a 18.889157
_cell_length_b 18.889157
_cell_length_c 15.271819
_cell_angle_alpha 90.000000
_cell_angle_beta 90.000000
_cell_angle_gamma 90.000000
_cell_volume 5448.988870
_symmetry_space_group_name_H-M "I 41/A C D"
_symmetry_group_IT_number 142
_space_group.IT_coordinate_system_code '2'
_symmetry_cell_setting 'tetragonal'
loop_
_space_group_symop_operation_xyz
x,y,z
1/4-y,3/4+x,1/4+z
-x,1/2-y,z
1/4+y,1/4-x,3/4+z
x,-y,1/2-z
1/2-x,y,-z
3/4+y,1/4+x,1/4-z
1/4-y,1/4-x,1/4-z
-x,-y,-z
3/4+y,1/4-x,3/4-z
x,1/2+y,-z
3/4-y,3/4+x,1/4-z
-x,y,1/2+z
1/2+x,-y,z
1/4-y,3/4-x,3/4+z
3/4+y,3/4+x,3/4+z
1/2+x,1/2+y,1/2+z
3/4-y,1/4+x,3/4+z
1/2-x,-y,1/2+z
3/4+y,3/4-x,1/4+z
1/2+x,1/2-y,-z
-x,1/2+y,1/2-z
1/4+y,3/4+x,3/4-z
3/4-y,3/4-x,3/4-z
1/2-x,1/2-y,1/2-z
1/4+y,3/4-x,1/4-z
1/2+x,y,1/2-z
1/4-y,1/4+x,3/4-z
1/2-x,1/2+y,z
x,1/2-y,1/2+z
3/4-y,1/4-x,1/4+z
1/4+y,1/4+x,1/4+z
loop_
_atom_site_type_symbol
_atom_site_label
_atom_site_fract_x
_atom_site_fract_y
_atom_site_fract_z
Si Si1 0.021345 0.327326 0.711850
Si Si2 0.667673 0.470403 0.513510
Si Si3 0.881998 0.131998 0.125000
Si Si4 0.679099 0.624768 0.456661
O O1 0.068788 0.318788 0.625000
O O2 0.065991 0.368227 0.785438
O O3 0.000000 0.250000 0.749041
O O4 0.951870 0.371709 0.685172
O O5 0.750000 0.450849 0.500000
O O6 0.619543 0.435573 0.438704
O O7 0.656524 0.554533 0.509754
O O8 0.642630 0.440777 0.605896
O O9 0.750000 0.656314 0.500000
#
# Coordination Sequence:
#
# PCOD8321130 Si02
#       4
#    32  32  16  32
#     4   9  21  44  61  84 131 173 216 267 319 386
#     4  11  20  39  68  97 132 161 215 279 329 386
#     4  10  21  42  62  92 130 168 209 274 320 384
#     4  11  21  39  67  98 127 168 218 266 332 394
#
# _framework density 20.554272000000001
#
# number of rings (size 3 to 8) (size 9 to 14) (size 15 to 20)
#    0.000    2.000    2.857    4.286    0.000    1.143 
#   10.286    8.571    0.000    0.000    0.000    0.000 
#    0.000    0.000    0.000    0.000    0.000    0.000 
#
# Total GULP energy -694470.661785 kJ/mol
# GULP energy per Si atom -12401.261818 kJ/mol
# Density = 2.050749 g / cm^3
# Si number density = 20.554272 Si / 1000 Ang^3
#
#
#
# Elastic Constant Matrix: (Units=GPa)
#
#
# Indices 1 2 3 4 5 6 
#
# 1 107.0834 89.0178 54.6825 0.0000 0.0000 0.0000
# 2 89.0178 107.0834 54.6825 0.0000 0.0000 0.0000
# 3 54.6825 54.6825 110.8111 0.0000 0.0000 0.0000
# 4 0.0000 0.0000 0.0000 25.0970 0.0000 0.0000
# 5 0.0000 0.0000 0.0000 0.0000 25.0970 0.0000
# 6 0.0000 0.0000 0.0000 0.0000 0.0000 50.0558
#
#
#
# Elastic Compliance Matrix: (Units=1/GPa)
#
#
# Indices 1 2 3 4 5 6 
#
# 1 0.031195 -0.024159 -0.003472 0.000000 0.000000 0.000000
# 2 -0.024159 0.031195 -0.003472 0.000000 0.000000 0.000000
# 3 -0.003472 -0.003472 0.012451 0.000000 0.000000 0.000000
# 4 0.000000 0.000000 0.000000 0.039845 0.000000 0.000000
# 5 0.000000 0.000000 0.000000 0.000000 0.039845 0.000000
# 6 0.000000 0.000000 0.000000 0.000000 0.000000 0.019978
#
#
# Mechanical properties :
#
#
# Convention : Reuss Voigt Hill
#
# Bulk Modulus (GPa) = 79.14755 80.19372 79.67064
# Shear Modulus (GPa) = 20.75324 28.48963 24.62144
#
# Velocity S-wave (km/s) = 3.18099 3.72703 3.46479
# Velocity P-wave (km/s) = 7.21677 7.59087 7.40619
#
# Compressibility (1/GPa) = 0.01263463
#
# Stress axis : x y z
#
# Youngs Moduli (GPa) = 32.05673 32.05673 80.31485
#
# Poissons Ratio (x) = 0.77446 0.27885
# Poissons Ratio (y) = 0.77446 0.27885
# Poissons Ratio (z) = 0.11130 0.11130
#
# Static dielectric constant tensor:
#      x y z
#    x 3.697000 0.000000 0.000000 
#    y 0.000000 3.697000 0.000000 
#    z 0.000000 0.000000 3.605840 
# 
# 
# High freq. dielectric constant tensor:
#      x y z
#    x 1.797570 0.000000 0.000000 
#    y 0.000000 1.797570 0.000000 
#    z 0.000000 0.000000 1.803560 
# 
# From -- ./inp_files/6833.got.cif
#   From: 2010.03.12/outbox.cif.g09.slc.cpg/sg142_4_cif.got.tgz:6833.got - 2010.04.03 13:27:16.
