data_PCOD8321463
_publ_section_title
;
Structure prediction by ZEFSAII (Michael W. Deem and Ramdas Pophale) SiO2 
 PCOD8321463
Probable space group: P 32
;
_chemical_formula_sum "Si O2"
_cell_formula_units_Z 24
_cell_length_a 13.593005
_cell_length_b 13.593005
_cell_length_c 7.173702
_cell_angle_alpha 90.000000
_cell_angle_beta 90.000000
_cell_angle_gamma 120.000000
_cell_volume 1147.902276
_symmetry_space_group_name_H-M "P 32"
_symmetry_group_IT_number 145
_symmetry_cell_setting 'hexagonal'
loop_
_space_group_symop_operation_xyz
x,y,z
-y,x-y,2/3+z
-x+y,-x,1/3+z
loop_
_atom_site_type_symbol
_atom_site_label
_atom_site_fract_x
_atom_site_fract_y
_atom_site_fract_z
Si Si1 0.428849 0.463647 0.618710
Si Si2 0.666636 0.802666 0.809520
Si Si3 0.454466 0.233970 0.286097
Si Si4 0.744186 0.001874 0.088941
Si Si5 0.881432 0.398638 0.653302
Si Si6 0.321140 0.739459 0.368889
Si Si7 0.919817 0.913369 0.716555
Si Si8 0.940339 0.382407 0.237367
O O1 0.320884 0.335739 0.601808
O O2 0.504211 0.490281 0.433333
O O3 0.393387 0.559031 0.618826
O O4 0.499208 0.468663 0.803780
O O5 0.552869 0.777115 0.694256
O O6 0.783233 0.855577 0.688101
O O7 0.638236 0.682676 0.888005
O O8 0.686499 0.882493 0.984262
O O9 0.347463 0.253316 0.278130
O O10 0.571276 0.353131 0.294308
O O11 0.450391 0.169918 0.476155
O O12 0.448244 0.166519 0.099681
O O13 0.873658 0.045228 0.151888
O O14 0.922643 0.385250 0.454209
O O15 0.281707 0.626178 0.248132
O O16 0.975164 0.943375 0.512061
#
# Coordination Sequence:
#
# PCOD8321463 Si02
#       8
#     3   3   3   3   3   3   3   3
#     4   9  22  40  61  92 127 165 208 265 313 386
#     4  10  22  42  66  90 134 168 212 274 312 386
#     4  10  22  39  60  93 129 164 212 271 312 385
#     4  10  20  41  66  94 131 164 216 267 320 381
#     4  10  23  38  63  90 128 170 216 255 323 385
#     4  11  24  41  66  96 129 167 216 266 325 380
#     4  10  22  43  64  93 125 165 212 261 318 383
#     4  10  21  42  62  90 129 169 214 261 327 372
#
# _framework density 20.907703000000001
#
# number of rings (size 3 to 8) (size 9 to 14) (size 15 to 20)
#    0.000    2.000    1.250    0.750    1.750   10.000 
#    9.000    1.250    0.000    0.000    0.000    0.000 
#    0.000    0.000    0.000    0.000    0.000    0.000 
#
# Total GULP energy -297553.880251 kJ/mol
# GULP energy per Si atom -12398.078344 kJ/mol
# Density = 2.086012 g / cm^3
# Si number density = 20.907703 Si / 1000 Ang^3
#
#
#
# Elastic Constant Matrix: (Units=GPa)
#
#
# Indices 1 2 3 4 5 6 
#
# 1 84.1767 23.4631 14.4492 -1.1693 -1.3656 0.0000
# 2 23.4631 84.1767 14.4492 1.1693 1.3656 0.0000
# 3 14.4492 14.4492 92.9674 0.0000 0.0000 0.0000
# 4 -1.1693 1.1693 0.0000 23.6305 0.0000 1.3656
# 5 -1.3656 1.3656 0.0000 0.0000 23.6305 -1.1693
# 6 0.0000 0.0000 0.0000 1.3656 -1.1693 30.3568
#
#
#
# Elastic Compliance Matrix: (Units=1/GPa)
#
#
# Indices 1 2 3 4 5 6 
#
# 1 0.013120 -0.003425 -0.001507 0.000819 0.000956 0.000000
# 2 -0.003425 0.013120 -0.001507 -0.000819 -0.000956 0.000000
# 3 -0.001507 -0.001507 0.011225 0.000000 0.000000 0.000000
# 4 0.000819 -0.000819 0.000000 0.042510 0.000000 -0.001912
# 5 0.000956 -0.000956 0.000000 0.000000 0.042510 0.001637
# 6 0.000000 0.000000 0.000000 -0.001912 0.001637 0.033091
#
#
# Mechanical properties :
#
#
# Convention : Reuss Voigt Hill
#
# Bulk Modulus (GPa) = 40.67149 40.67153 40.67151
# Shear Modulus (GPa) = 28.30479 29.45418 28.87948
#
# Velocity S-wave (km/s) = 3.68339 3.75743 3.72060
# Velocity P-wave (km/s) = 6.13065 6.19028 6.16054
#
# Compressibility (1/GPa) = 0.02458725
#
# Stress axis : x y z
#
# Youngs Moduli (GPa) = 76.21927 76.21927 89.08817
#
# Poissons Ratio (x) = 0.26107 0.13424
# Poissons Ratio (y) = 0.26107 0.13424
# Poissons Ratio (z) = 0.11485 0.11485
#
# Static dielectric constant tensor:
#      x y z
#    x 4.090010 0.000000 0.000000 
#    y 0.000000 4.090010 0.000000 
#    z 0.000000 0.000000 3.463150 
# 
# 
# High freq. dielectric constant tensor:
#      x y z
#    x 1.830230 0.000000 0.000000 
#    y 0.000000 1.830230 0.000000 
#    z 0.000000 0.000000 1.793780 
# 
# From -- ./inp_files/179.got.cif
#   From: 2010.03.12/outbox.cif.g09.slc.cpg/sg145_cif.got.tgz:179.got - 2010.04.03 13:35:35.
