data_PCOD8321242
_publ_section_title
;
Structure prediction by ZEFSAII (Michael W. Deem and Ramdas Pophale) SiO2 
 PCOD8321242
Probable space group: I 41/A C D
;
_chemical_formula_sum "Si O2"
_cell_formula_units_Z 128
_cell_length_a 16.868948
_cell_length_b 16.868948
_cell_length_c 22.730069
_cell_angle_alpha 90.000000
_cell_angle_beta 90.000000
_cell_angle_gamma 90.000000
_cell_volume 6468.100407
_symmetry_space_group_name_H-M "I 41/A C D"
_symmetry_group_IT_number 142
_space_group.IT_coordinate_system_code '2'
_symmetry_cell_setting 'tetragonal'
loop_
_space_group_symop_operation_xyz
x,y,z
1/4-y,3/4+x,1/4+z
-x,1/2-y,z
1/4+y,1/4-x,3/4+z
x,-y,1/2-z
1/2-x,y,-z
3/4+y,1/4+x,1/4-z
1/4-y,1/4-x,1/4-z
-x,-y,-z
3/4+y,1/4-x,3/4-z
x,1/2+y,-z
3/4-y,3/4+x,1/4-z
-x,y,1/2+z
1/2+x,-y,z
1/4-y,3/4-x,3/4+z
3/4+y,3/4+x,3/4+z
1/2+x,1/2+y,1/2+z
3/4-y,1/4+x,3/4+z
1/2-x,-y,1/2+z
3/4+y,3/4-x,1/4+z
1/2+x,1/2-y,-z
-x,1/2+y,1/2-z
1/4+y,3/4+x,3/4-z
3/4-y,3/4-x,3/4-z
1/2-x,1/2-y,1/2-z
1/4+y,3/4-x,1/4-z
1/2+x,y,1/2-z
1/4-y,1/4+x,3/4-z
1/2-x,1/2+y,z
x,1/2-y,1/2+z
3/4-y,1/4-x,1/4+z
1/4+y,1/4+x,1/4+z
loop_
_atom_site_type_symbol
_atom_site_label
_atom_site_fract_x
_atom_site_fract_y
_atom_site_fract_z
Si Si1 0.241248 0.194661 0.193891
Si Si2 0.623685 0.253187 0.393846
Si Si3 0.567356 0.357967 0.629277
Si Si4 0.657972 0.145219 0.494303
O O1 0.250000 0.250000 0.250000
O O2 0.206434 0.246147 0.140201
O O3 0.325841 0.162398 0.170295
O O4 0.180318 0.123651 0.207443
O O5 0.589654 0.339654 0.375000
O O6 0.560228 0.189773 0.375000
O O7 0.638956 0.230624 0.462617
O O8 0.474225 0.352421 0.644111
O O9 0.609698 0.371733 0.691193
O O10 0.750000 0.132997 0.500000
#
# Coordination Sequence:
#
# PCOD8321242 Si02
#       4
#    32  32  32  32
#     4  11  22  40  61  90 127 163 206 257 316 375
#     4   9  20  35  59  87 115 155 205 251 303 368
#     4  11  24  40  64  93 125 165 212 263 318 382
#     4  11  22  40  63  89 127 166 208 260 319 382
#
# _framework density 19.789428000000001
#
# number of rings (size 3 to 8) (size 9 to 14) (size 15 to 20)
#    0.000    1.500    5.000    0.000    3.500    2.000 
#    0.000    3.750    0.000    0.000    0.000    0.000 
#    0.000    0.000    0.000    0.000    0.000    0.000 
#
# Total GULP energy -793082.310660 kJ/mol
# GULP energy per Si atom -12391.911104 kJ/mol
# Density = 1.974439 g / cm^3
# Si number density = 19.789428 Si / 1000 Ang^3
#
#
#
# Elastic Constant Matrix: (Units=GPa)
#
#
# Indices 1 2 3 4 5 6 
#
# 1 92.7854 25.2002 21.1132 0.0000 0.0000 0.0000
# 2 25.2002 92.7862 21.1131 0.0000 0.0000 0.0000
# 3 21.1132 21.1131 101.0899 0.0000 0.0000 0.0000
# 4 0.0000 0.0000 0.0000 33.2690 0.0000 0.0000
# 5 0.0000 0.0000 0.0000 0.0000 33.2695 0.0000
# 6 0.0000 0.0000 0.0000 0.0000 0.0000 12.5782
#
#
#
# Elastic Compliance Matrix: (Units=1/GPa)
#
#
# Indices 1 2 3 4 5 6 
#
# 1 0.011978 -0.002818 -0.001913 0.000000 0.000000 0.000000
# 2 -0.002818 0.011978 -0.001913 0.000000 0.000000 0.000000
# 3 -0.001913 -0.001913 0.010691 0.000000 0.000000 0.000000
# 4 0.000000 0.000000 0.000000 0.030058 0.000000 0.000000
# 5 0.000000 0.000000 0.000000 0.000000 0.030058 0.000000
# 6 0.000000 0.000000 0.000000 0.000000 0.000000 0.079502
#
#
# Mechanical properties :
#
#
# Convention : Reuss Voigt Hill
#
# Bulk Modulus (GPa) = 46.81819 46.83495 46.82657
# Shear Modulus (GPa) = 25.68397 30.43900 28.06149
#
# Velocity S-wave (km/s) = 3.60649 3.92617 3.76972
# Velocity P-wave (km/s) = 6.40718 6.65366 6.53158
#
# Compressibility (1/GPa) = 0.02135922
#
# Stress axis : x y z
#
# Youngs Moduli (GPa) = 83.48476 83.48556 93.53363
#
# Poissons Ratio (x) = 0.23525 0.17895
# Poissons Ratio (y) = 0.23525 0.17894
# Poissons Ratio (z) = 0.15972 0.15972
#
# Static dielectric constant tensor:
#      x y z
#    x 3.687610 0.000000 0.000000 
#    y 0.000000 3.687620 0.000000 
#    z 0.000000 0.000000 3.501780 
# 
# 
# High freq. dielectric constant tensor:
#      x y z
#    x 1.760730 0.000000 0.000000 
#    y 0.000000 1.760730 0.000000 
#    z 0.000000 0.000000 1.782890 
# 
# From -- ./inp_files/9959.got.cif
#   From: 2010.03.12/outbox.cif.g09.slc.cpg/sg142_5_cif.got.tgz:9959.got - 2010.04.03 13:27:16.
