data_PCOD8321953
_publ_section_title
;
Structure prediction by ZEFSAII (Michael W. Deem and Ramdas Pophale) SiO2 
 PCOD8321953
Probable space group: P 31 1 2
;
_chemical_formula_sum "Si O2"
_cell_formula_units_Z 36
_cell_length_a 8.825108
_cell_length_b 8.825108
_cell_length_c 24.440448
_cell_angle_alpha 90.000000
_cell_angle_beta 90.000000
_cell_angle_gamma 120.000000
_cell_volume 1648.465460
_symmetry_space_group_name_H-M "P 31 1 2"
_symmetry_group_IT_number 151
_symmetry_cell_setting 'hexagonal'
loop_
_space_group_symop_operation_xyz
x,y,z
-y,x-y,1/3+z
-x+y,-x,2/3+z
-y,-x,2/3-z
-x+y,y,1/3-z
x,x-y,-z
loop_
_atom_site_type_symbol
_atom_site_label
_atom_site_fract_x
_atom_site_fract_y
_atom_site_fract_z
Si Si1 0.290860 0.838562 0.271339
Si Si2 0.981048 0.867266 0.273598
Si Si3 0.834193 0.382242 0.439360
Si Si4 0.319290 0.528655 0.273597
Si Si5 0.945036 0.767229 0.727185
Si Si6 0.506661 0.370028 0.393759
O O1 0.226322 0.773679 0.333334
O O2 0.306432 0.682772 0.241905
O O3 0.134557 0.853306 0.241833
O O4 0.474407 0.021993 0.269271
O O5 0.803408 0.682552 0.275073
O O6 0.954454 0.016074 0.245103
O O7 0.054000 0.946001 0.333334
O O8 0.903721 0.451861 0.500000
O O9 0.804172 0.189611 0.432456
O O10 0.640545 0.349614 0.431963
O O11 0.399183 0.600818 0.333334
O O12 0.467180 0.500610 0.244972
O O13 0.133710 0.351948 0.274996
O O14 0.865382 0.730763 0.666667
O O15 0.586576 0.413425 0.333334
#
# Coordination Sequence:
#
# PCOD8321953 Si02
#       6
#     6   6   6   6   6   6
#     4  10  19  38  62  89 120 159 207 256 308 374
#     4  10  19  34  62  96 120 150 203 257 301 357
#     4  12  26  42  59  89 128 167 209 263 321 375
#     4  10  19  34  62  96 120 150 203 258 301 356
#     4  11  20  37  62  91 123 162 206 253 307 373
#     4  11  20  37  62  89 121 160 201 249 300 369
#
# _framework density 21.838491999999999
#
# number of rings (size 3 to 8) (size 9 to 14) (size 15 to 20)
#    0.000    1.333    0.000   11.500    0.000    0.000 
#    0.000   10.000    0.000    0.000    0.000    0.000 
#    0.000    0.000    0.000    0.000    0.000    0.000 
#
# Total GULP energy -446105.068378 kJ/mol
# GULP energy per Si atom -12391.807455 kJ/mol
# Density = 2.178879 g / cm^3
# Si number density = 21.838492 Si / 1000 Ang^3
#
#
#
# Elastic Constant Matrix: (Units=GPa)
#
#
# Indices 1 2 3 4 5 6 
#
# 1 214.8080 92.6047 17.3730 -0.0002 4.0659 0.0000
# 2 92.6047 214.8080 17.3730 0.0002 -4.0659 0.0000
# 3 17.3730 17.3730 35.6451 0.0000 0.0000 0.0000
# 4 -0.0002 0.0002 0.0000 -6.0797 0.0000 -4.0659
# 5 4.0659 -4.0659 0.0000 0.0000 -6.0797 -0.0002
# 6 0.0000 0.0000 0.0000 -4.0659 -0.0002 61.1017
#
#
#
# Elastic Compliance Matrix: (Units=1/GPa)
#
#
# Indices 1 2 3 4 5 6 
#
# 1 0.005639 -0.002196 -0.001678 0.000000 0.005239 0.000000
# 2 -0.002196 0.005639 -0.001678 0.000000 -0.005239 0.000000
# 3 -0.001678 -0.001678 0.029690 0.000000 0.000000 0.000000
# 4 0.000000 0.000000 0.000000 -0.157473 0.000000 -0.010479
# 5 0.005239 -0.005239 0.000000 0.000000 -0.157473 0.000000
# 6 0.000000 0.000000 0.000000 -0.010479 0.000000 0.015669
#
#
# Mechanical properties :
#
#
# Convention : Reuss Voigt Hill
#
# Bulk Modulus (GPa) = 33.48556 79.99582 56.74069
# Shear Modulus (GPa) = -21.07457 32.31582 5.62062
#
# Velocity S-wave (km/s) = -3.10985 3.85094 1.60602
# Velocity P-wave (km/s) = 1.57217 7.51553 5.42931
#
# Compressibility (1/GPa) = 0.02986362
#
# Stress axis : x y z
#
# Youngs Moduli (GPa) = 177.35145 177.35145 33.68144
#
# Poissons Ratio (x) = 0.38945 0.05651
# Poissons Ratio (y) = 0.38945 0.05651
# Poissons Ratio (z) = 0.29757 0.29757
#
# Static dielectric constant tensor:
#      x y z
#    x 5.329080 0.000000 0.000000 
#    y 0.000000 5.329080 0.000000 
#    z 0.000000 0.000000 3.238090 
# 
# 
# High freq. dielectric constant tensor:
#      x y z
#    x 1.889620 0.000000 0.000000 
#    y 0.000000 1.889620 0.000000 
#    z 0.000000 0.000000 1.784440 
# 
# From -- ./inp_files/4641.got.cif
#   From: 2010.03.12/outbox.cif.g09.slc.cpg/sg151_3_cif.got.tgz:4641.got - 2010.04.03 13:42:29.
