data_PCOD8321420
_publ_section_title
;
Structure prediction by ZEFSAII (Michael W. Deem and Ramdas Pophale) SiO2 
 PCOD8321420
Probable space group: P 31
;
_chemical_formula_sum "Si O2"
_cell_formula_units_Z 18
_cell_length_a 11.687505
_cell_length_b 11.687505
_cell_length_c 7.075213
_cell_angle_alpha 90.000000
_cell_angle_beta 90.000000
_cell_angle_gamma 120.000000
_cell_volume 836.977474
_symmetry_space_group_name_H-M "P 31"
_symmetry_group_IT_number 144
_symmetry_cell_setting 'hexagonal'
loop_
_space_group_symop_operation_xyz
x,y,z
-y,x-y,1/3+z
-x+y,-x,2/3+z
loop_
_atom_site_type_symbol
_atom_site_label
_atom_site_fract_x
_atom_site_fract_y
_atom_site_fract_z
Si Si1 0.408824 0.928629 0.210970
Si Si2 0.217336 0.393282 0.839969
Si Si3 0.813123 0.112471 0.058968
Si Si4 0.234844 0.924637 0.896775
Si Si5 0.784572 0.414003 0.512418
Si Si6 0.995753 0.892006 0.088263
O O1 0.485441 0.847982 0.207847
O O2 0.289852 0.862149 0.356804
O O3 0.503212 0.083515 0.259067
O O4 0.352548 0.919165 0.002026
O O5 0.220477 0.262463 0.780149
O O6 0.139576 0.366485 0.031926
O O7 0.717502 0.173391 0.052370
O O8 0.924628 0.191196 0.214389
O O9 0.881024 0.121790 0.853919
O O10 0.099062 0.848829 0.013591
O O11 0.705725 0.408953 0.701555
O O12 0.062831 0.005831 0.245779
#
# Coordination Sequence:
#
# PCOD8321420 Si02
#       6
#     3   3   3   3   3   3
#     4  11  27  48  74 102 144 183 242 294 355 428
#     4  11  27  48  72 109 138 188 240 294 358 426
#     4  11  23  46  68 106 142 183 243 285 357 421
#     4  12  24  44  71 102 144 186 228 301 356 413
#     4  11  26  47  70 102 142 192 243 288 351 428
#     4  12  23  39  71 107 144 182 232 302 359 418
#
# _framework density 21.505958
#
# number of rings (size 3 to 8) (size 9 to 14) (size 15 to 20)
#    0.000    0.667    5.000    2.000    4.667    0.000 
#    6.000    0.000    0.000    0.000    0.000    0.000 
#    0.000    0.000    0.000    0.000    0.000    0.000 
#
# Total GULP energy -223237.519346 kJ/mol
# GULP energy per Si atom -12402.084408 kJ/mol
# Density = 2.145701 g / cm^3
# Si number density = 21.505958 Si / 1000 Ang^3
#
#
#
# Elastic Constant Matrix: (Units=GPa)
#
#
# Indices 1 2 3 4 5 6 
#
# 1 119.7670 57.7804 56.6568 3.4718 2.7998 0.0000
# 2 57.7804 119.7670 56.6568 -3.4718 -2.7998 0.0000
# 3 56.6568 56.6568 117.4223 0.0000 0.0000 0.0000
# 4 3.4718 -3.4718 0.0000 14.5035 0.0000 -2.7998
# 5 2.7998 -2.7998 0.0000 0.0000 14.5035 3.4718
# 6 0.0000 0.0000 0.0000 -2.7998 3.4718 30.9933
#
#
#
# Elastic Compliance Matrix: (Units=1/GPa)
#
#
# Indices 1 2 3 4 5 6 
#
# 1 0.012509 -0.004370 -0.003927 -0.004041 -0.003258 0.000000
# 2 -0.004370 0.012509 -0.003927 0.004041 0.003258 0.000000
# 3 -0.003927 -0.003927 0.012306 0.000000 0.000000 0.000000
# 4 -0.004041 0.004041 0.000000 0.072141 0.000000 0.006517
# 5 -0.003258 0.003258 0.000000 0.000000 0.072141 -0.008081
# 6 0.000000 0.000000 0.000000 0.006517 -0.008081 0.033759
#
#
# Mechanical properties :
#
#
# Convention : Reuss Voigt Hill
#
# Bulk Modulus (GPa) = 77.66831 77.68270 77.67550
# Shear Modulus (GPa) = 20.48294 24.39088 22.43691
#
# Velocity S-wave (km/s) = 3.08950 3.37136 3.23350
# Velocity P-wave (km/s) = 6.99427 7.16622 7.08077
#
# Compressibility (1/GPa) = 0.01287526
#
# Stress axis : x y z
#
# Youngs Moduli (GPa) = 79.94258 79.94258 81.26297
#
# Poissons Ratio (x) = 0.34939 0.31911
# Poissons Ratio (y) = 0.34939 0.31911
# Poissons Ratio (z) = 0.31392 0.31392
#
# Static dielectric constant tensor:
#      x y z
#    x 4.092450 0.000000 0.000000 
#    y 0.000000 4.092450 0.000000 
#    z 0.000000 0.000000 3.845530 
# 
# 
# High freq. dielectric constant tensor:
#      x y z
#    x 1.853690 0.000000 0.000000 
#    y 0.000000 1.853690 0.000000 
#    z 0.000000 0.000000 1.848560 
# 
# From -- ./inp_files/94.got.cif
#   From: 2010.03.12/outbox.cif.g09.slc.cpg/sg144_cif.got.tgz:94.got - 2010.04.03 13:34:42.
