data_PCOD8321648
_publ_section_title
;
Structure prediction by ZEFSAII (Michael W. Deem and Ramdas Pophale) SiO2 
 PCOD8321648
Probable space group: P -3
;
_chemical_formula_sum "Si O2"
_cell_formula_units_Z 36
_cell_length_a 8.720645
_cell_length_b 8.720645
_cell_length_c 26.650427
_cell_angle_alpha 90.000000
_cell_angle_beta 90.000000
_cell_angle_gamma 120.000000
_cell_volume 1755.221858
_symmetry_space_group_name_H-M "P -3"
_symmetry_group_IT_number 147
_symmetry_cell_setting 'hexagonal'
loop_
_space_group_symop_operation_xyz
x,y,z
-y,x-y,z
-x+y,-x,z
-x,-y,-z
y,-x+y,-z
x-y,x,-z
loop_
_atom_site_type_symbol
_atom_site_label
_atom_site_fract_x
_atom_site_fract_y
_atom_site_fract_z
Si Si1 0.335490 0.015605 0.635283
Si Si2 0.013607 0.338363 0.020130
Si Si3 0.015042 0.677767 0.480321
Si Si4 0.468772 0.332380 0.870106
Si Si5 0.667895 0.655408 0.326301
Si Si6 0.339437 0.472311 0.784126
O O1 0.375584 0.187287 0.667453
O O2 0.476383 0.954968 0.647794
O O3 0.356717 0.072128 0.577391
O O4 0.140994 0.855366 0.647775
O O5 0.055688 0.366387 0.078612
O O6 0.159487 0.327970 0.986781
O O7 0.000000 0.500000 0.000000
O O8 0.830280 0.671257 0.485129
O O9 0.000000 0.500000 0.500000
O O10 0.493062 0.159308 0.866496
O O11 0.348166 0.346612 0.826834
O O12 0.668096 0.621354 0.267663
O O13 0.510063 0.672407 0.788133
#
# Coordination Sequence:
#
# PCOD8321648 Si02
#       6
#     6   6   6   6   6   6
#     4  12  24  43  69  95 134 179 222 284 340 409
#     4  12  24  44  68 102 145 192 242 290 344 413
#     4  12  25  43  66  97 133 174 226 278 343 410
#     4  10  23  41  66 104 136 181 228 279 346 403
#     4  12  25  45  66 100 133 176 230 277 343 417
#     4  10  23  43  66  99 132 177 221 278 348 403
#
# _framework density 20.510227
#
# number of rings (size 3 to 8) (size 9 to 14) (size 15 to 20)
#    0.667    0.000    3.333    5.000    4.667    0.000 
#    0.000    0.000    0.000    0.667    0.000    0.000 
#    0.000    0.000    0.000    0.000    0.000    0.000 
#
# Total GULP energy -446450.463626 kJ/mol
# GULP energy per Si atom -12401.401767 kJ/mol
# Density = 2.046355 g / cm^3
# Si number density = 20.510227 Si / 1000 Ang^3
#
#
#
# Elastic Constant Matrix: (Units=GPa)
#
#
# Indices 1 2 3 4 5 6 
#
# 1 102.9159 29.7681 28.3578 -6.1132 -3.7546 0.0000
# 2 29.7681 102.9159 28.3578 6.1132 3.7546 0.0000
# 3 28.3578 28.3578 140.6848 0.0000 0.0000 0.0000
# 4 -6.1132 6.1132 0.0000 33.5995 0.0000 3.7546
# 5 -3.7546 3.7546 0.0000 0.0000 33.5995 -6.1132
# 6 0.0000 0.0000 0.0000 3.7546 -6.1132 36.5739
#
#
#
# Elastic Compliance Matrix: (Units=1/GPa)
#
#
# Indices 1 2 3 4 5 6 
#
# 1 0.011258 -0.003011 -0.001662 0.002596 0.001594 0.000000
# 2 -0.003011 0.011258 -0.001662 -0.002596 -0.001594 0.000000
# 3 -0.001662 -0.001662 0.007778 0.000000 0.000000 0.000000
# 4 0.002596 -0.002596 0.000000 0.031063 0.000000 -0.003189
# 5 0.001594 -0.001594 0.000000 0.000000 0.031063 0.005192
# 6 0.000000 0.000000 0.000000 -0.003189 0.005192 0.028537
#
#
# Mechanical properties :
#
#
# Convention : Reuss Voigt Hill
#
# Bulk Modulus (GPa) = 56.74325 57.72044 57.23185
# Shear Modulus (GPa) = 35.84146 38.09010 36.96578
#
# Velocity S-wave (km/s) = 4.18484 4.31411 4.24997
# Velocity P-wave (km/s) = 7.14677 7.28140 7.21440
#
# Compressibility (1/GPa) = 0.01762324
#
# Stress axis : x y z
#
# Youngs Moduli (GPa) = 88.82633 88.82633 128.56325
#
# Poissons Ratio (x) = 0.26742 0.21372
# Poissons Ratio (y) = 0.26742 0.21372
# Poissons Ratio (z) = 0.14767 0.14767
#
# Static dielectric constant tensor:
#      x y z
#    x 3.726480 0.000000 0.000000 
#    y 0.000000 3.726480 0.000000 
#    z 0.000000 0.000000 4.327770 
# 
# 
# High freq. dielectric constant tensor:
#      x y z
#    x 1.804440 0.000000 0.000000 
#    y 0.000000 1.804440 0.000000 
#    z 0.000000 0.000000 1.812960 
# 
# From -- ./inp_files/1115.got.cif
#   From: 2010.03.12/outbox.cif.g09.slc.cpg/sg147_cif.got.tgz:1115.got - 2010.04.03 13:37:56.
