data_PCOD8321528
_publ_section_title
;
Structure prediction by ZEFSAII (Michael W. Deem and Ramdas Pophale) SiO2 
 PCOD8321528
Probable space group: R 3
;
_chemical_formula_sum "Si O2"
_cell_formula_units_Z 63
_cell_length_a 16.849398
_cell_length_b 16.849398
_cell_length_c 11.733631
_cell_angle_alpha 90.000000
_cell_angle_beta 90.000000
_cell_angle_gamma 120.000000
_cell_volume 2884.907122
_symmetry_space_group_name_H-M "R 3"
_symmetry_group_IT_number 146
_symmetry_cell_setting 'hexagonal'
loop_
_space_group_symop_operation_xyz
x,y,z
-y,x-y,z
-x+y,-x,z
2/3+x,1/3+y,1/3+z
2/3-y,1/3+x-y,1/3+z
2/3-x+y,1/3-x,1/3+z
1/3+x,2/3+y,2/3+z
1/3-y,2/3+x-y,2/3+z
1/3-x+y,2/3-x,2/3+z
loop_
_atom_site_type_symbol
_atom_site_label
_atom_site_fract_x
_atom_site_fract_y
_atom_site_fract_z
Si Si1 0.103410 0.887222 0.560470
Si Si2 0.158910 0.387382 0.855399
Si Si3 0.197256 0.768658 0.614130
Si Si4 0.882735 0.267671 0.682409
Si Si5 0.681052 0.940496 0.997023
Si Si6 0.675273 0.542999 0.104385
Si Si7 0.118558 0.740977 0.242022
O O1 0.149948 0.826818 0.583191
O O2 0.140382 0.932954 0.435871
O O3 0.136114 0.964926 0.658781
O O4 0.992808 0.820872 0.557226
O O5 0.198243 0.443292 0.737924
O O6 0.108412 0.432722 0.921264
O O7 0.241307 0.391197 0.928766
O O8 0.098429 0.277321 0.842157
O O9 0.119628 0.661002 0.616635
O O10 0.272838 0.789215 0.515923
O O11 0.858621 0.169543 0.629232
O O12 0.974530 0.284156 0.745944
O O13 0.641958 0.010194 0.996927
O O14 0.681381 0.914295 0.127280
#
# Coordination Sequence:
#
# PCOD8321528 Si02
#       7
#     9   9   9   9   9   9   9
#     4   9  20  37  57  89 129 169 221 272 323 392
#     4  11  22  37  62  95 130 165 218 277 329 391
#     4   9  20  37  57  89 129 169 221 272 323 392
#     4  11  22  37  62  95 130 165 218 277 329 391
#     4  11  22  39  62  96 130 172 220 273 330 397
#     4  10  22  36  58  90 128 170 212 272 328 386
#     4  11  22  39  62  96 130 172 220 273 330 397
#
# _framework density 21.837789999999998
#
# number of rings (size 3 to 8) (size 9 to 14) (size 15 to 20)
#    0.000    1.714    2.857    2.571    6.000    0.000 
#    0.000    0.000    0.000    5.143    7.429    0.000 
#    0.000    0.000    0.000    0.000    0.000    0.000 
#
# Total GULP energy -260269.487091 kJ/mol
# GULP energy per Si atom -12393.785100 kJ/mol
# Density = 2.178809 g / cm^3
# Si number density = 21.837790 Si / 1000 Ang^3
#
#
#
# Elastic Constant Matrix: (Units=GPa)
#
#
# Indices 1 2 3 4 5 6 
#
# 1 81.6850 22.4116 39.3679 -7.9772 0.7794 0.0000
# 2 22.4116 81.6850 39.3679 7.9772 -0.7794 0.0000
# 3 39.3679 39.3679 135.9142 0.0000 0.0000 0.0000
# 4 -7.9772 7.9772 0.0000 32.9072 0.0000 -0.7794
# 5 0.7794 -0.7794 0.0000 0.0000 32.9072 -7.9772
# 6 0.0000 0.0000 0.0000 -0.7794 -7.9772 29.6367
#
#
#
# Elastic Compliance Matrix: (Units=1/GPa)
#
#
# Indices 1 2 3 4 5 6 
#
# 1 0.015181 -0.002880 -0.003563 0.004378 -0.000428 0.000000
# 2 -0.002880 0.015181 -0.003563 -0.004378 0.000428 0.000000
# 3 -0.003563 -0.003563 0.009422 0.000000 0.000000 0.000000
# 4 0.004378 -0.004378 0.000000 0.032531 0.000000 0.000856
# 5 -0.000428 0.000428 0.000000 0.000000 0.032531 0.008756
# 6 0.000000 0.000000 0.000000 0.000856 0.008756 0.036121
#
#
# Mechanical properties :
#
#
# Convention : Reuss Voigt Hill
#
# Bulk Modulus (GPa) = 50.57619 55.73101 53.15360
# Shear Modulus (GPa) = 29.83811 32.29932 31.06871
#
# Velocity S-wave (km/s) = 3.70043 3.85002 3.77597
# Velocity P-wave (km/s) = 6.43955 6.73345 6.58814
#
# Compressibility (1/GPa) = 0.01977215
#
# Stress axis : x y z
#
# Youngs Moduli (GPa) = 65.87125 65.87125 106.13737
#
# Poissons Ratio (x) = 0.18968 0.37819
# Poissons Ratio (y) = 0.18968 0.37819
# Poissons Ratio (z) = 0.23471 0.23471
#
# Static dielectric constant tensor:
#      x y z
#    x 3.775390 0.000000 0.000000 
#    y 0.000000 3.775390 0.000000 
#    z 0.000000 0.000000 4.245260 
# 
# 
# High freq. dielectric constant tensor:
#      x y z
#    x 1.829900 0.000000 0.000000 
#    y 0.000000 1.829900 0.000000 
#    z 0.000000 0.000000 1.876750 
# 
# From -- ./inp_files/1221.got.cif
#   From: 2010.06.25/outbox.cif.g09.slc.cpg/sg146_cif.got.tgz:1221.got - 2010.06.28 11:17:22.
