data_PCOD8321554
_publ_section_title
;
Structure prediction by ZEFSAII (Michael W. Deem and Ramdas Pophale) SiO2 
 PCOD8321554
Probable space group: R 3
;
_chemical_formula_sum "Si O2"
_cell_formula_units_Z 33
_cell_length_a 11.229659
_cell_length_b 11.229659
_cell_length_c 13.088393
_cell_angle_alpha 90.000000
_cell_angle_beta 90.000000
_cell_angle_gamma 120.000000
_cell_volume 1429.387882
_symmetry_space_group_name_H-M "R 3"
_symmetry_group_IT_number 146
_symmetry_cell_setting 'hexagonal'
loop_
_space_group_symop_operation_xyz
x,y,z
-y,x-y,z
-x+y,-x,z
2/3+x,1/3+y,1/3+z
2/3-y,1/3+x-y,1/3+z
2/3-x+y,1/3-x,1/3+z
1/3+x,2/3+y,2/3+z
1/3-y,2/3+x-y,2/3+z
1/3-x+y,2/3-x,2/3+z
loop_
_atom_site_type_symbol
_atom_site_label
_atom_site_fract_x
_atom_site_fract_y
_atom_site_fract_z
Si Si1 0.372732 0.160658 0.312830
Si Si2 0.666668 0.333335 0.044531
Si Si3 0.346961 0.346958 0.829332
Si Si4 0.333334 0.666668 0.614134
Si Si5 0.827325 0.706069 0.679166
O O1 0.339841 0.207208 0.203217
O O2 0.370939 0.255326 0.402334
O O3 0.530096 0.194008 0.316528
O O4 0.266391 0.999999 0.329328
O O5 0.666668 0.333334 0.162666
O O6 0.527338 0.196765 0.008804
O O7 0.326825 0.200697 0.788779
O O8 0.448945 0.411329 0.923000
#
# Coordination Sequence:
#
# PCOD8321554 Si02
#       5
#     9   3   9   3   9
#     4  11  27  48  76 108 152 196 255 318 378 454
#     4  12  27  42  78 106 146 205 255 306 396 442
#     4  10  26  50  74 110 146 198 258 306 388 450
#     4  12  27  42  78 106 146 205 255 306 396 442
#     4  11  27  48  76 108 152 196 255 318 378 454
#
# _framework density 23.086803
#
# number of rings (size 3 to 8) (size 9 to 14) (size 15 to 20)
#    0.000    1.091    2.727    0.000   19.091    0.000 
#   13.091    0.000    0.000    0.000    0.000    0.000 
#    0.000    0.000    0.000    0.000    0.000    0.000 
#
# Total GULP energy -136271.200294 kJ/mol
# GULP energy per Si atom -12388.290936 kJ/mol
# Density = 2.303426 g / cm^3
# Si number density = 23.086803 Si / 1000 Ang^3
#
#
#
# Elastic Constant Matrix: (Units=GPa)
#
#
# Indices 1 2 3 4 5 6 
#
# 1 168.3030 63.4265 54.0588 -14.7768 0.0046 -0.0030
# 2 63.4265 168.3020 54.0580 14.7767 -0.0044 0.0019
# 3 54.0588 54.0580 104.9382 -0.0004 0.0004 -0.0007
# 4 -14.7768 14.7767 -0.0004 59.2009 -0.0033 0.0013
# 5 0.0046 -0.0044 0.0004 -0.0033 59.2044 -14.7799
# 6 -0.0030 0.0019 -0.0007 0.0013 -14.7799 52.4408
#
#
#
# Elastic Compliance Matrix: (Units=1/GPa)
#
#
# Indices 1 2 3 4 5 6 
#
# 1 0.007969 -0.002288 -0.002926 0.002560 -0.000001 0.000000
# 2 -0.002288 0.007969 -0.002926 -0.002560 0.000001 0.000000
# 3 -0.002926 -0.002926 0.012544 0.000000 0.000000 0.000000
# 4 0.002560 -0.002560 0.000000 0.018170 0.000001 0.000000
# 5 -0.000001 0.000001 0.000000 0.000001 0.018169 0.005121
# 6 0.000000 0.000000 0.000000 0.000000 0.005121 0.020512
#
#
# Mechanical properties :
#
#
# Convention : Reuss Voigt Hill
#
# Bulk Modulus (GPa) = 81.96502 87.18109 84.57305
# Shear Modulus (GPa) = 47.31229 52.16921 49.74075
#
# Velocity S-wave (km/s) = 4.53185 4.75879 4.64671
# Velocity P-wave (km/s) = 7.93496 8.24858 8.09329
#
# Compressibility (1/GPa) = 0.01220033
#
# Stress axis : x y z
#
# Youngs Moduli (GPa) = 125.49250 125.49228 79.71644
#
# Poissons Ratio (x) = 0.28711 0.23328
# Poissons Ratio (y) = 0.28711 0.23328
# Poissons Ratio (z) = 0.36725 0.36724
#
# Static dielectric constant tensor:
#      x y z
#    x 3.029430 -0.000210 0.000020 
#    y -0.000210 3.029210 0.000000 
#    z 0.000020 0.000000 4.802930 
# 
# 
# High freq. dielectric constant tensor:
#      x y z
#    x 1.914450 0.000000 0.000000 
#    y 0.000000 1.914450 0.000000 
#    z 0.000000 0.000000 1.928990 
# 
# From -- ./inp_files/1336.got.cif
#   From: 2010.06.25/outbox.cif.g09.slc.cpg/sg146_cif.got.tgz:1336.got - 2010.06.28 11:17:22.
