data_PCOD8321620
_publ_section_title
;
Structure prediction by ZEFSAII (Michael W. Deem and Ramdas Pophale) SiO2 
 PCOD8321620
Probable space group: P -3
;
_chemical_formula_sum "Si O2"
_cell_formula_units_Z 48
_cell_length_a 17.458700
_cell_length_b 17.458700
_cell_length_c 8.991291
_cell_angle_alpha 90.000000
_cell_angle_beta 90.000000
_cell_angle_gamma 120.000000
_cell_volume 2373.430342
_symmetry_space_group_name_H-M "P -3"
_symmetry_group_IT_number 147
_symmetry_cell_setting 'hexagonal'
loop_
_space_group_symop_operation_xyz
x,y,z
-y,x-y,z
-x+y,-x,z
-x,-y,-z
y,-x+y,-z
x-y,x,-z
loop_
_atom_site_type_symbol
_atom_site_label
_atom_site_fract_x
_atom_site_fract_y
_atom_site_fract_z
Si Si1 0.098283 0.423677 0.694007
Si Si2 0.887647 0.683703 0.892271
Si Si3 0.010853 0.757290 0.150642
Si Si4 0.477317 0.007817 0.234570
Si Si5 0.017930 0.834823 0.452716
Si Si6 0.133310 0.601126 0.034034
Si Si7 0.513087 0.723509 0.959522
Si Si8 0.036043 0.336942 0.400460
O O1 0.192349 0.462446 0.782061
O O2 0.108248 0.395598 0.527390
O O3 0.023315 0.340601 0.785844
O O4 0.066088 0.495670 0.681473
O O5 0.796758 0.685042 0.898495
O O6 0.919489 0.693200 0.724076
O O7 0.872243 0.589837 0.950655
O O8 0.958324 0.758234 0.003174
O O9 0.003867 0.820040 0.275275
O O10 0.464904 0.911028 0.191811
O O11 0.400228 0.005375 0.337455
O O12 0.477305 0.055173 0.082087
O O13 0.929844 0.828696 0.518178
O O14 0.034036 0.757454 0.524123
O O15 0.193420 0.706243 0.033471
O O16 0.205468 0.574625 0.983190
#
# Coordination Sequence:
#
# PCOD8321620 Si02
#       8
#     6   6   6   6   6   6   6   6
#     4   9  21  39  58  86 122 155 201 245 307 370
#     4  11  22  38  59  87 120 151 199 253 297 352
#     4  10  23  38  60  90 119 155 200 253 295 359
#     4  10  20  36  59  89 119 157 202 256 303 365
#     4  11  24  43  62  86 124 164 203 250 310 372
#     4  10  20  34  59  89 119 156 205 247 307 359
#     4  10  20  36  59  84 120 157 196 250 298 370
#     4  11  22  38  62  88 117 155 205 250 309 359
#
# _framework density 20.223890999999998
#
# number of rings (size 3 to 8) (size 9 to 14) (size 15 to 20)
#    0.000    1.750    2.500    1.500    5.250    2.000 
#    0.000    0.000    2.750    1.000    0.000    0.000 
#    0.000    0.000    0.000    0.000    0.000    0.000 
#
# Total GULP energy -594756.650097 kJ/mol
# GULP energy per Si atom -12390.763544 kJ/mol
# Density = 2.017786 g / cm^3
# Si number density = 20.223891 Si / 1000 Ang^3
#
#
#
# Elastic Constant Matrix: (Units=GPa)
#
#
# Indices 1 2 3 4 5 6 
#
# 1 83.1757 32.9601 30.2208 -2.7883 0.5683 0.0000
# 2 32.9601 83.1757 30.2208 2.7883 -0.5683 0.0000
# 3 30.2208 30.2208 113.8921 0.0000 0.0000 0.0000
# 4 -2.7883 2.7883 0.0000 24.7759 0.0000 -0.5683
# 5 0.5683 -0.5683 0.0000 0.0000 24.7759 -2.7883
# 6 0.0000 0.0000 0.0000 -0.5683 -2.7883 25.1078
#
#
#
# Elastic Compliance Matrix: (Units=1/GPa)
#
#
# Indices 1 2 3 4 5 6 
#
# 1 0.015084 -0.005093 -0.002651 0.002271 -0.000463 0.000000
# 2 -0.005093 0.015084 -0.002651 -0.002271 0.000463 0.000000
# 3 -0.002651 -0.002651 0.010187 0.000000 0.000000 0.000000
# 4 0.002271 -0.002271 0.000000 0.040894 0.000000 0.000926
# 5 -0.000463 0.000463 0.000000 0.000000 0.040894 0.004541
# 6 0.000000 0.000000 0.000000 0.000926 0.004541 0.040354
#
#
# Mechanical properties :
#
#
# Convention : Reuss Voigt Hill
#
# Bulk Modulus (GPa) = 51.11423 51.89409 51.50416
# Shear Modulus (GPa) = 26.34250 27.38802 26.86526
#
# Velocity S-wave (km/s) = 3.61299 3.68399 3.64867
# Velocity P-wave (km/s) = 6.53712 6.61901 6.57819
#
# Compressibility (1/GPa) = 0.01956402
#
# Stress axis : x y z
#
# Youngs Moduli (GPa) = 66.29757 66.29757 98.16400
#
# Poissons Ratio (x) = 0.33767 0.26022
# Poissons Ratio (y) = 0.33767 0.26022
# Poissons Ratio (z) = 0.17575 0.17575
#
# Static dielectric constant tensor:
#      x y z
#    x 3.518080 0.000000 0.000000 
#    y 0.000000 3.518080 0.000000 
#    z 0.000000 0.000000 3.787260 
# 
# 
# High freq. dielectric constant tensor:
#      x y z
#    x 1.781300 0.000000 0.000000 
#    y 0.000000 1.781300 0.000000 
#    z 0.000000 0.000000 1.789330 
# 
# From -- ./inp_files/679.got.cif
#   From: 2010.03.12/outbox.cif.g09.slc.cpg/sg147_cif.got.tgz:679.got - 2010.04.03 13:37:56.
