data_PCOD8321609
_publ_section_title
;
Structure prediction by ZEFSAII (Michael W. Deem and Ramdas Pophale) SiO2 
 PCOD8321609
Probable space group: P -3
;
_chemical_formula_sum "Si O2"
_cell_formula_units_Z 48
_cell_length_a 12.715140
_cell_length_b 12.715140
_cell_length_c 20.336029
_cell_angle_alpha 90.000000
_cell_angle_beta 90.000000
_cell_angle_gamma 120.000000
_cell_volume 2847.338346
_symmetry_space_group_name_H-M "P -3"
_symmetry_group_IT_number 147
_symmetry_cell_setting 'hexagonal'
loop_
_space_group_symop_operation_xyz
x,y,z
-y,x-y,z
-x+y,-x,z
-x,-y,-z
y,-x+y,-z
x-y,x,-z
loop_
_atom_site_type_symbol
_atom_site_label
_atom_site_fract_x
_atom_site_fract_y
_atom_site_fract_z
Si Si1 0.909764 0.332737 0.945795
Si Si2 0.420773 0.333280 0.560817
Si Si3 0.332737 0.909764 0.054205
Si Si4 0.666720 0.579227 0.560817
Si Si5 0.666736 0.089159 0.797598
Si Si6 0.910841 0.333264 0.797598
Si Si7 0.755722 0.754150 0.682341
Si Si8 0.755722 0.001572 0.682341
O O1 0.783007 0.216993 0.958996
O O2 0.890573 0.445286 0.958003
O O3 0.957026 0.334925 0.871801
O O4 0.000000 0.329730 1.000000
O O5 0.553165 0.446835 0.573841
O O6 0.434464 0.217232 0.545532
O O7 0.354709 0.354709 0.500000
O O8 0.339750 0.314211 0.624389
O O9 0.334925 0.957026 0.128199
O O10 0.685789 0.660250 0.624389
O O11 0.770467 0.229533 0.789114
O O12 0.539570 0.079139 0.778775
O O13 0.692428 0.003538 0.750476
O O14 0.996462 0.307572 0.750476
O O15 0.742007 0.871004 0.672748
O O16 0.897679 0.795358 0.682479
#
# Coordination Sequence:
#
# PCOD8321609 Si02
#       8
#     6   6   6   6   6   6   6   6
#     4   9  17  29  46  68  93 122 156 194 236 281
#     4  10  20  34  53  76 101 129 161 197 236 278
#     4   9  17  29  46  68  93 122 156 194 236 281
#     4  10  20  34  53  76 101 129 161 197 236 278
#     4   9  17  30  49  71  93 119 154 197 241 283
#     4   9  17  30  49  71  93 119 154 197 241 283
#     4  10  20  33  49  69  94 124 157 193 234 280
#     4  10  20  33  49  69  94 124 157 193 234 280
#
# _framework density 16.857848000000001
#
# number of rings (size 3 to 8) (size 9 to 14) (size 15 to 20)
#    0.000    2.500    0.000    2.500    0.000    3.000 
#    0.000    2.500    0.000    9.750    0.000    0.000 
#    0.000    0.000    0.000    0.000    0.000    0.000 
#
# Total GULP energy -595211.627805 kJ/mol
# GULP energy per Si atom -12400.242246 kJ/mol
# Density = 1.681948 g / cm^3
# Si number density = 16.857848 Si / 1000 Ang^3
#
#
#
# Elastic Constant Matrix: (Units=GPa)
#
#
# Indices 1 2 3 4 5 6 
#
# 1 100.0525 54.1109 62.4533 4.3934 0.0000 0.0000
# 2 54.1109 100.0525 62.4533 -4.3934 0.0000 0.0000
# 3 62.4533 62.4533 119.4944 0.0000 0.0000 0.0000
# 4 4.3934 -4.3934 0.0000 27.0425 0.0000 0.0000
# 5 0.0000 0.0000 0.0000 0.0000 27.0425 4.3934
# 6 0.0000 0.0000 0.0000 0.0000 4.3934 22.9708
#
#
#
# Elastic Compliance Matrix: (Units=1/GPa)
#
#
# Indices 1 2 3 4 5 6 
#
# 1 0.016858 -0.005607 -0.005880 -0.003650 0.000000 0.000000
# 2 -0.005607 0.016858 -0.005880 0.003650 0.000000 0.000000
# 3 -0.005880 -0.005880 0.014515 0.000000 0.000000 0.000000
# 4 -0.003650 0.003650 0.000000 0.038165 0.000000 0.000000
# 5 0.000000 0.000000 0.000000 0.000000 0.038165 -0.007299
# 6 0.000000 0.000000 0.000000 0.000000 -0.007299 0.044930
#
#
# Mechanical properties :
#
#
# Convention : Reuss Voigt Hill
#
# Bulk Modulus (GPa) = 74.09593 75.29273 74.69433
# Shear Modulus (GPa) = 23.95510 24.78327 24.36919
#
# Velocity S-wave (km/s) = 3.77371 3.83839 3.80619
# Velocity P-wave (km/s) = 7.93956 8.02525 7.98252
#
# Compressibility (1/GPa) = 0.01349602
#
# Stress axis : x y z
#
# Youngs Moduli (GPa) = 59.31942 59.31942 68.89331
#
# Poissons Ratio (x) = 0.33260 0.40511
# Poissons Ratio (y) = 0.33260 0.40511
# Poissons Ratio (z) = 0.34881 0.34881
#
# Static dielectric constant tensor:
#      x y z
#    x 3.077550 0.000000 0.000000 
#    y 0.000000 3.077550 0.000000 
#    z 0.000000 0.000000 3.436670 
# 
# 
# High freq. dielectric constant tensor:
#      x y z
#    x 1.643570 0.000000 0.000000 
#    y 0.000000 1.643570 0.000000 
#    z 0.000000 0.000000 1.666360 
# 
# From -- ./inp_files/1081.got.cif
#   From: 2010.03.12/outbox.cif.g09.slc.cpg/sg147_cif.got.tgz:1081.got - 2010.04.03 13:37:56.
