data_PCOD8321951
_publ_section_title
;
Structure prediction by ZEFSAII (Michael W. Deem and Ramdas Pophale) SiO2 
 PCOD8321951
Probable space group: P 31 1 2
;
_chemical_formula_sum "Si O2"
_cell_formula_units_Z 33
_cell_length_a 11.219008
_cell_length_b 11.219008
_cell_length_c 16.321894
_cell_angle_alpha 90.000000
_cell_angle_beta 90.000000
_cell_angle_gamma 120.000000
_cell_volume 1779.139903
_symmetry_space_group_name_H-M "P 31 1 2"
_symmetry_group_IT_number 151
_symmetry_cell_setting 'hexagonal'
loop_
_space_group_symop_operation_xyz
x,y,z
-y,x-y,1/3+z
-x+y,-x,2/3+z
-y,-x,2/3-z
-x+y,y,1/3-z
x,x-y,-z
loop_
_atom_site_type_symbol
_atom_site_label
_atom_site_fract_x
_atom_site_fract_y
_atom_site_fract_z
Si Si1 0.387150 0.895041 0.837306
Si Si2 0.955814 0.766194 0.824329
Si Si3 0.271020 0.362829 0.592364
Si Si4 0.097564 0.923249 0.545501
Si Si5 0.974030 0.487015 0.000000
Si Si6 0.874293 0.182459 0.996947
O O1 0.255125 0.744876 0.833334
O O2 0.493038 0.895191 0.902547
O O3 0.355291 0.014776 0.869449
O O4 0.446628 0.929880 0.745541
O O5 0.860648 0.801709 0.765273
O O6 0.870989 0.727840 0.909175
O O7 0.105873 0.894128 0.833334
O O8 0.193522 0.387044 0.666667
O O9 0.171205 0.305936 0.513906
O O10 0.322591 0.256915 0.616311
O O11 0.082199 0.041100 0.500000
O O12 0.184051 0.981995 0.628031
O O13 0.874396 0.324622 0.985135
#
# Coordination Sequence:
#
# PCOD8321951 Si02
#       6
#     6   6   6   6   3   6
#     4  10  22  36  53  78 112 157 185 226 281 347
#     4   9  18  33  52  80 115 141 179 231 281 335
#     4  11  20  34  57  86 110 143 189 242 282 340
#     4   9  17  29  52  83 111 136 177 232 286 325
#     4  10  20  36  56  78 110 148 190 226 282 354
#     4  10  19  33  56  84 112 143 187 234 290 337
#
# _framework density 18.548289
#
# number of rings (size 3 to 8) (size 9 to 14) (size 15 to 20)
#    0.000    2.182    3.636    0.000    1.273    0.000 
#    0.000    0.000    0.000    8.727    0.000    0.000 
#    0.000    0.000    0.000    0.000    0.000    0.000 
#
# Total GULP energy -408978.561799 kJ/mol
# GULP energy per Si atom -12393.289751 kJ/mol
# Density = 1.850607 g / cm^3
# Si number density = 18.548289 Si / 1000 Ang^3
#
#
#
# Elastic Constant Matrix: (Units=GPa)
#
#
# Indices 1 2 3 4 5 6 
#
# 1 114.8591 55.7854 39.2066 0.0001 5.2770 0.0000
# 2 55.7854 114.8591 39.2066 -0.0001 -5.2770 0.0000
# 3 39.2066 39.2066 45.1353 0.0000 0.0000 0.0000
# 4 0.0001 -0.0001 0.0000 25.2135 0.0000 -5.2770
# 5 5.2770 -5.2770 0.0000 0.0000 25.2135 0.0001
# 6 0.0000 0.0000 0.0000 -5.2770 0.0001 29.5369
#
#
#
# Elastic Compliance Matrix: (Units=1/GPa)
#
#
# Indices 1 2 3 4 5 6 
#
# 1 0.013669 -0.003916 -0.008472 0.000000 -0.003681 0.000000
# 2 -0.003916 0.013669 -0.008472 0.000000 0.003681 0.000000
# 3 -0.008472 -0.008472 0.036874 0.000000 0.000000 0.000000
# 4 0.000000 0.000000 0.000000 0.041202 0.000000 0.007361
# 5 -0.003681 0.003681 0.000000 0.000000 0.041202 0.000000
# 6 0.000000 0.000000 0.000000 0.007361 0.000000 0.035171
#
#
# Mechanical properties :
#
#
# Convention : Reuss Voigt Hill
#
# Bulk Modulus (GPa) = 44.45993 60.36122 52.41057
# Shear Modulus (GPa) = 21.64450 25.36976 23.50713
#
# Velocity S-wave (km/s) = 3.41974 3.70235 3.56384
# Velocity P-wave (km/s) = 6.29402 7.13371 6.72698
#
# Compressibility (1/GPa) = 0.02249216
#
# Stress axis : x y z
#
# Youngs Moduli (GPa) = 73.15638 73.15638 27.11936
#
# Poissons Ratio (x) = 0.28650 0.22976
# Poissons Ratio (y) = 0.28650 0.22976
# Poissons Ratio (z) = 0.61978 0.61978
#
# Static dielectric constant tensor:
#      x y z
#    x 3.512910 0.000000 0.000000 
#    y 0.000000 3.512910 0.000000 
#    z 0.000000 0.000000 3.222340 
# 
# 
# High freq. dielectric constant tensor:
#      x y z
#    x 1.712030 0.000000 0.000000 
#    y 0.000000 1.712030 0.000000 
#    z 0.000000 0.000000 1.709870 
# 
# From -- ./inp_files/2917.got.cif
#   From: 2010.03.12/outbox.cif.g09.slc.cpg/sg151_2_cif.got.tgz:2917.got - 2010.04.03 13:42:29.
