data_PCOD8321946
_publ_section_title
;
Structure prediction by ZEFSAII (Michael W. Deem and Ramdas Pophale) SiO2 
 PCOD8321946
Probable space group: P 31 1 2
;
_chemical_formula_sum "Si O2"
_cell_formula_units_Z 33
_cell_length_a 14.062604
_cell_length_b 14.062604
_cell_length_c 11.709732
_cell_angle_alpha 90.000000
_cell_angle_beta 90.000000
_cell_angle_gamma 120.000000
_cell_volume 2005.437270
_symmetry_space_group_name_H-M "P 31 1 2"
_symmetry_group_IT_number 151
_symmetry_cell_setting 'hexagonal'
loop_
_space_group_symop_operation_xyz
x,y,z
-y,x-y,1/3+z
-x+y,-x,2/3+z
-y,-x,2/3-z
-x+y,y,1/3-z
x,x-y,-z
loop_
_atom_site_type_symbol
_atom_site_label
_atom_site_fract_x
_atom_site_fract_y
_atom_site_fract_z
Si Si1 0.219334 0.237944 0.404133
Si Si2 0.105488 0.651253 0.947774
Si Si3 0.509883 0.754942 0.000000
Si Si4 0.501146 0.847319 0.359500
Si Si5 0.203448 0.182237 0.655839
Si Si6 0.664532 0.911600 0.179820
O O1 0.314645 0.335879 0.332218
O O2 0.257944 0.234400 0.533777
O O3 0.191139 0.128453 0.333731
O O4 0.112195 0.253309 0.409911
O O5 0.091908 0.639373 0.811880
O O6 0.230339 0.735688 0.982387
O O7 0.068096 0.534048 0.000000
O O8 0.439088 0.815436 0.994064
O O9 0.587672 0.788909 0.889890
O O10 0.583097 0.931434 0.261948
O O11 0.277526 0.264872 0.758750
O O12 0.082592 0.165183 0.666667
#
# Coordination Sequence:
#
# PCOD8321946 Si02
#       6
#     6   6   3   6   6   6
#     4   9  17  32  49  67  94 127 165 212 247 289
#     4  10  19  31  44  68 104 134 164 200 241 299
#     4  12  18  30  48  72 104 148 162 198 246 310
#     4  10  20  28  44  70 105 138 163 190 244 311
#     4   9  17  33  52  69  92 125 169 217 251 293
#     4  10  19  31  46  72  97 127 181 207 239 305
#
# _framework density 16.455262999999999
#
# number of rings (size 3 to 8) (size 9 to 14) (size 15 to 20)
#    0.000    2.182    3.636    2.727    2.545    0.000 
#    0.000   15.455    0.000    0.000    0.000    0.000 
#   10.909    0.000    0.000    0.000    0.000    0.000 
#
# Total GULP energy -408963.823926 kJ/mol
# GULP energy per Si atom -12392.843149 kJ/mol
# Density = 1.641781 g / cm^3
# Si number density = 16.455263 Si / 1000 Ang^3
#
#
#
# Elastic Constant Matrix: (Units=GPa)
#
#
# Indices 1 2 3 4 5 6 
#
# 1 78.4581 37.4430 45.2219 0.0002 2.7577 0.0000
# 2 37.4430 78.4581 45.2219 -0.0002 -2.7577 0.0000
# 3 45.2219 45.2219 107.8789 0.0000 0.0000 0.0000
# 4 0.0002 -0.0002 0.0000 15.1418 0.0000 -2.7577
# 5 2.7577 -2.7577 0.0000 0.0000 15.1418 0.0002
# 6 0.0000 0.0000 0.0000 -2.7577 0.0002 20.5076
#
#
#
# Elastic Compliance Matrix: (Units=1/GPa)
#
#
# Indices 1 2 3 4 5 6 
#
# 1 0.018908 -0.006085 -0.005375 0.000000 -0.004552 0.000000
# 2 -0.006085 0.018908 -0.005375 0.000000 0.004552 0.000000
# 3 -0.005375 -0.005375 0.013776 0.000000 0.000000 0.000000
# 4 0.000000 0.000000 0.000000 0.067700 0.000000 0.009104
# 5 -0.004552 0.004552 0.000000 0.000000 0.067700 -0.000001
# 6 0.000000 0.000000 0.000000 0.009104 -0.000001 0.049987
#
#
# Mechanical properties :
#
#
# Convention : Reuss Voigt Hill
#
# Bulk Modulus (GPa) = 55.80136 57.84097 56.82116
# Shear Modulus (GPa) = 18.07509 19.28548 18.68028
#
# Velocity S-wave (km/s) = 3.31787 3.42715 3.37295
# Velocity P-wave (km/s) = 6.97583 7.13353 7.05512
#
# Compressibility (1/GPa) = 0.01792071
#
# Stress axis : x y z
#
# Youngs Moduli (GPa) = 52.88784 52.88784 72.58992
#
# Poissons Ratio (x) = 0.32185 0.39018
# Poissons Ratio (y) = 0.32185 0.39018
# Poissons Ratio (z) = 0.28428 0.28428
#
# Static dielectric constant tensor:
#      x y z
#    x 3.023390 0.000000 0.000000 
#    y 0.000000 3.023390 0.000000 
#    z 0.000000 0.000000 3.472830 
# 
# 
# High freq. dielectric constant tensor:
#      x y z
#    x 1.599830 0.000000 0.000000 
#    y 0.000000 1.599830 0.000000 
#    z 0.000000 0.000000 1.651800 
# 
# From -- ./inp_files/2469.got.cif
#   From: 2010.03.12/outbox.cif.g09.slc.cpg/sg151_2_cif.got.tgz:2469.got - 2010.04.03 13:42:29.
