data_PCOD8321038
_publ_section_title
;
Structure prediction by ZEFSAII (Michael W. Deem and Ramdas Pophale) SiO2 
 PCOD8321038
Probable space group: I 41/A C D
;
_chemical_formula_sum "Si O2"
_cell_formula_units_Z 112
_cell_length_a 13.556791
_cell_length_b 13.556791
_cell_length_c 27.748733
_cell_angle_alpha 90.000000
_cell_angle_beta 90.000000
_cell_angle_gamma 90.000000
_cell_volume 5099.844799
_symmetry_space_group_name_H-M "I 41/A C D"
_symmetry_group_IT_number 142
_space_group.IT_coordinate_system_code '2'
_symmetry_cell_setting 'tetragonal'
loop_
_space_group_symop_operation_xyz
x,y,z
1/4-y,3/4+x,1/4+z
-x,1/2-y,z
1/4+y,1/4-x,3/4+z
x,-y,1/2-z
1/2-x,y,-z
3/4+y,1/4+x,1/4-z
1/4-y,1/4-x,1/4-z
-x,-y,-z
3/4+y,1/4-x,3/4-z
x,1/2+y,-z
3/4-y,3/4+x,1/4-z
-x,y,1/2+z
1/2+x,-y,z
1/4-y,3/4-x,3/4+z
3/4+y,3/4+x,3/4+z
1/2+x,1/2+y,1/2+z
3/4-y,1/4+x,3/4+z
1/2-x,-y,1/2+z
3/4+y,3/4-x,1/4+z
1/2+x,1/2-y,-z
-x,1/2+y,1/2-z
1/4+y,3/4+x,3/4-z
3/4-y,3/4-x,3/4-z
1/2-x,1/2-y,1/2-z
1/4+y,3/4-x,1/4-z
1/2+x,y,1/2-z
1/4-y,1/4+x,3/4-z
1/2-x,1/2+y,z
x,1/2-y,1/2+z
3/4-y,1/4-x,1/4+z
1/4+y,1/4+x,1/4+z
loop_
_atom_site_type_symbol
_atom_site_label
_atom_site_fract_x
_atom_site_fract_y
_atom_site_fract_z
Si Si1 0.635444 0.872464 0.067678
Si Si2 0.180070 0.079061 0.351668
Si Si3 0.961614 0.928635 0.563002
Si Si4 0.000000 0.250000 0.743747
O O1 0.613529 0.863529 0.125000
O O2 0.754394 0.879183 0.062889
O O3 0.592680 0.778724 0.039886
O O4 0.588223 0.970942 0.043650
O O5 0.212352 0.177442 0.325170
O O6 0.098836 0.109844 0.391061
O O7 0.275546 0.025546 0.375000
O O8 0.960344 0.840744 0.524838
#
# Coordination Sequence:
#
# PCOD8321038 Si02
#       4
#    32  32  32  16
#     4   9  22  40  56  81 119 159 196 237 297 368
#     4   9  20  39  60  83 116 159 197 238 297 367
#     4  10  20  36  59  86 115 150 199 247 293 348
#     4  12  21  35  58  86 118 148 192 253 293 334
#
# _framework density 21.961452999999999
#
# number of rings (size 3 to 8) (size 9 to 14) (size 15 to 20)
#    0.000    2.857    0.000    3.000    0.000    5.714 
#    0.000    5.714    0.000    0.000    0.000    0.000 
#    0.000    0.000    0.000    0.000    0.000    0.000 
#
# Total GULP energy -694146.161711 kJ/mol
# GULP energy per Si atom -12395.467173 kJ/mol
# Density = 2.191147 g / cm^3
# Si number density = 21.961453 Si / 1000 Ang^3
#
#
#
# Elastic Constant Matrix: (Units=GPa)
#
#
# Indices 1 2 3 4 5 6 
#
# 1 91.4278 39.6269 46.7546 0.0000 0.0000 0.0000
# 2 39.6269 91.4278 46.7546 0.0000 0.0000 0.0000
# 3 46.7546 46.7546 59.7810 0.0000 0.0000 0.0000
# 4 0.0000 0.0000 0.0000 22.1803 0.0000 0.0000
# 5 0.0000 0.0000 0.0000 0.0000 22.1803 0.0000
# 6 0.0000 0.0000 0.0000 0.0000 0.0000 22.2549
#
#
#
# Elastic Compliance Matrix: (Units=1/GPa)
#
#
# Indices 1 2 3 4 5 6 
#
# 1 0.018285 -0.001020 -0.013503 0.000000 0.000000 0.000000
# 2 -0.001020 0.018285 -0.013503 0.000000 0.000000 0.000000
# 3 -0.013503 -0.013503 0.037849 0.000000 0.000000 0.000000
# 4 0.000000 0.000000 0.000000 0.045085 0.000000 0.000000
# 5 0.000000 0.000000 0.000000 0.000000 0.045085 0.000000
# 6 0.000000 0.000000 0.000000 0.000000 0.000000 0.044934
#
#
# Mechanical properties :
#
#
# Convention : Reuss Voigt Hill
#
# Bulk Modulus (GPa) = 54.44479 56.54542 55.49511
# Shear Modulus (GPa) = 18.40296 20.62316 19.51306
#
# Velocity S-wave (km/s) = 2.89791 3.06774 2.98403
# Velocity P-wave (km/s) = 6.00350 6.19286 6.09891
#
# Compressibility (1/GPa) = 0.01836723
#
# Stress axis : x y z
#
# Youngs Moduli (GPa) = 54.69044 54.69044 26.42098
#
# Poissons Ratio (x) = 0.05578 0.35676
# Poissons Ratio (y) = 0.05578 0.35676
# Poissons Ratio (z) = 0.73847 0.73847
#
# Static dielectric constant tensor:
#      x y z
#    x 4.010200 0.000000 0.000000 
#    y 0.000000 4.010200 0.000000 
#    z 0.000000 0.000000 3.859120 
# 
# 
# High freq. dielectric constant tensor:
#      x y z
#    x 1.865100 0.000000 0.000000 
#    y 0.000000 1.865100 0.000000 
#    z 0.000000 0.000000 1.854270 
# 
# From -- ./inp_files/12221.got.cif
#   From: 2010.03.12/outbox.cif.g09.slc.cpg/sg142_7_cif.got.tgz:12221.got - 2010.04.03 13:27:16.
