data_PCOD8321587
_publ_section_title
;
Structure prediction by ZEFSAII (Michael W. Deem and Ramdas Pophale) SiO2 
 PCOD8321587
Probable space group: P -3
;
_chemical_formula_sum "Si O2"
_cell_formula_units_Z 48
_cell_length_a 18.527245
_cell_length_b 18.527245
_cell_length_c 8.563069
_cell_angle_alpha 90.000000
_cell_angle_beta 90.000000
_cell_angle_gamma 120.000000
_cell_volume 2545.550776
_symmetry_space_group_name_H-M "P -3"
_symmetry_group_IT_number 147
_symmetry_cell_setting 'hexagonal'
loop_
_space_group_symop_operation_xyz
x,y,z
-y,x-y,z
-x+y,-x,z
-x,-y,-z
y,-x+y,-z
x-y,x,-z
loop_
_atom_site_type_symbol
_atom_site_label
_atom_site_fract_x
_atom_site_fract_y
_atom_site_fract_z
Si Si1 0.811370 0.188630 0.186195
Si Si2 0.904305 0.095695 0.315063
Si Si3 0.093473 0.625522 0.185525
Si Si4 0.811370 0.188630 0.813805
Si Si5 0.625522 0.093473 0.814475
Si Si6 0.093473 0.467951 0.814475
Si Si7 0.095695 0.191391 0.315063
Si Si8 0.906527 0.374478 0.185525
O O1 0.858542 0.141459 0.243123
O O2 0.717931 0.146200 0.255172
O O3 0.853800 0.282069 0.255172
O O4 0.811934 0.188066 1.000000
O O5 0.900485 0.099515 0.500000
O O6 0.000000 0.141551 0.256848
O O7 0.858449 0.000000 0.256848
O O8 0.146200 0.717931 0.255172
O O9 0.129477 0.564738 0.237144
O O10 0.000000 0.586937 0.249831
O O11 0.093405 0.630169 1.000000
O O12 0.717931 0.146200 0.744828
O O13 0.858542 0.141459 0.756877
O O14 0.586937 1.000000 0.750169
O O15 0.630169 0.093405 1.000000
O O16 0.129477 0.564738 0.762856
#
# Coordination Sequence:
#
# PCOD8321587 Si02
#       8
#     6   6   6   6   6   6   6   6
#     4  10  18  29  49  75  96 122 163 207 240 277
#     4  10  21  36  52  70  96 130 164 199 245 302
#     4   8  14  25  40  61  92 124 149 181 231 281
#     4  10  18  29  49  75  96 122 163 207 240 277
#     4   8  14  25  40  61  92 124 149 181 231 281
#     4   8  14  25  40  61  92 124 149 181 231 281
#     4  10  21  36  52  70  96 130 164 199 245 302
#     4   8  14  25  40  61  92 124 149 181 231 281
#
# _framework density 18.85643
#
# number of rings (size 3 to 8) (size 9 to 14) (size 15 to 20)
#    0.000    3.000    0.000    3.250    0.000    4.000 
#    1.500    0.000    0.000    3.000    0.000    7.000 
#    0.000    0.000    0.000    0.000    0.000    0.000 
#
# Total GULP energy -594809.417438 kJ/mol
# GULP energy per Si atom -12391.862863 kJ/mol
# Density = 1.881351 g / cm^3
# Si number density = 18.856430 Si / 1000 Ang^3
#
#
#
# Elastic Constant Matrix: (Units=GPa)
#
#
# Indices 1 2 3 4 5 6 
#
# 1 184.5753 117.0067 14.2190 0.0000 0.0000 0.0000
# 2 117.0067 184.5753 14.2190 0.0000 0.0000 0.0000
# 3 14.2190 14.2190 7.7984 0.0000 0.0000 0.0000
# 4 0.0000 0.0000 0.0000 14.6269 0.0000 0.0000
# 5 0.0000 0.0000 0.0000 0.0000 14.6269 0.0000
# 6 0.0000 0.0000 0.0000 0.0000 0.0000 33.7843
#
#
#
# Elastic Compliance Matrix: (Units=1/GPa)
#
#
# Indices 1 2 3 4 5 6 
#
# 1 0.009402 -0.005398 -0.007301 0.000000 0.000000 0.000000
# 2 -0.005398 0.009402 -0.007301 0.000000 0.000000 0.000000
# 3 -0.007301 -0.007301 0.154856 0.000000 0.000000 0.000000
# 4 0.000000 0.000000 0.000000 0.068367 0.000000 0.000000
# 5 0.000000 0.000000 0.000000 0.000000 0.068367 0.000000
# 6 0.000000 0.000000 0.000000 0.000000 0.000000 0.029600
#
#
# Mechanical properties :
#
#
# Convention : Reuss Voigt Hill
#
# Bulk Modulus (GPa) = 7.48169 74.20426 40.84298
# Shear Modulus (GPa) = 11.77726 28.04123 19.90925
#
# Velocity S-wave (km/s) = 2.50186 3.86047 3.25288
# Velocity P-wave (km/s) = 3.51028 7.70121 5.98459
#
# Compressibility (1/GPa) = 0.13365962
#
# Stress axis : x y z
#
# Youngs Moduli (GPa) = 106.35981 106.35981 6.45763
#
# Poissons Ratio (x) = 0.57410 0.04715
# Poissons Ratio (y) = 0.57410 0.04715
# Poissons Ratio (z) = 0.77655 0.77655
#
# Static dielectric constant tensor:
#      x y z
#    x 3.845560 0.000000 0.000000 
#    y 0.000000 3.845560 0.000000 
#    z 0.000000 0.000000 2.836790 
# 
# 
# High freq. dielectric constant tensor:
#      x y z
#    x 1.743980 0.000000 0.000000 
#    y 0.000000 1.743980 0.000000 
#    z 0.000000 0.000000 1.669780 
# 
# From -- ./inp_files/681.got.cif
#   From: 2010.03.12/outbox.cif.g09.slc.cpg/sg147_cif.got.tgz:681.got - 2010.04.03 13:37:56.
