data_PCOD8321927
_publ_section_title
;
Structure prediction by ZEFSAII (Michael W. Deem and Ramdas Pophale) SiO2 
 PCOD8321927
Probable space group: P 31 1 2
;
_chemical_formula_sum "Si O2"
_cell_formula_units_Z 39
_cell_length_a 9.219614
_cell_length_b 9.219614
_cell_length_c 26.033395
_cell_angle_alpha 90.000000
_cell_angle_beta 90.000000
_cell_angle_gamma 120.000000
_cell_volume 1916.403331
_symmetry_space_group_name_H-M "P 31 1 2"
_symmetry_group_IT_number 151
_symmetry_cell_setting 'hexagonal'
loop_
_space_group_symop_operation_xyz
x,y,z
-y,x-y,1/3+z
-x+y,-x,2/3+z
-y,-x,2/3-z
-x+y,y,1/3-z
x,x-y,-z
loop_
_atom_site_type_symbol
_atom_site_label
_atom_site_fract_x
_atom_site_fract_y
_atom_site_fract_z
Si Si1 0.792214 0.169143 0.586264
Si Si2 0.147299 0.350633 0.031161
Si Si3 0.478093 0.015749 0.107268
Si Si4 0.564424 0.094187 0.826637
Si Si5 0.507328 0.674700 0.256862
Si Si6 0.639441 0.360560 0.333334
Si Si7 0.879627 0.331318 0.264220
O O1 0.709897 0.142515 0.530447
O O2 0.649530 0.155925 0.625650
O O3 0.956214 0.351966 0.588543
O O4 0.807689 0.011956 0.606547
O O5 0.198716 0.524067 0.060694
O O6 0.292440 0.305046 0.036952
O O7 0.106297 0.363533 0.971509
O O8 0.521522 0.043043 0.166667
O O9 0.340844 0.827887 0.095738
O O10 0.431170 0.153638 0.087568
O O11 0.746215 0.253786 0.833334
O O12 0.488381 0.029382 0.883429
O O13 0.580440 0.958370 0.791804
O O14 0.814263 0.419793 0.303862
#
# Coordination Sequence:
#
# PCOD8321927 Si02
#       7
#     6   6   6   6   6   3   6
#     4  10  18  35  60  88 119 154 209 251 295 376
#     4  10  22  39  60  95 118 164 205 256 315 374
#     4  11  21  40  60  90 119 163 204 258 312 369
#     4  11  19  38  61  94 119 164 211 258 305 381
#     4  10  24  38  62  88 132 157 206 258 321 376
#     4  10  18  32  62  86 116 166 198 256 300 370
#     4  11  21  36  64  91 121 159 216 250 311 382
#
# _framework density 20.350624
#
# number of rings (size 3 to 8) (size 9 to 14) (size 15 to 20)
#    0.000    1.538    4.615    3.692    2.154    1.846 
#    0.000    1.538    0.000    3.692    0.000    0.000 
#    0.000    0.000    0.000    0.000    0.000    0.000 
#
# Total GULP energy -483248.122820 kJ/mol
# GULP energy per Si atom -12390.977508 kJ/mol
# Density = 2.030430 g / cm^3
# Si number density = 20.350624 Si / 1000 Ang^3
#
#
#
# Elastic Constant Matrix: (Units=GPa)
#
#
# Indices 1 2 3 4 5 6 
#
# 1 60.2910 13.3555 10.7518 0.0000 -0.8598 0.0000
# 2 13.3555 60.2910 10.7518 0.0000 0.8598 0.0000
# 3 10.7518 10.7518 101.4970 0.0000 0.0000 0.0000
# 4 0.0000 0.0000 0.0000 30.5286 0.0000 0.8598
# 5 -0.8598 0.8598 0.0000 0.0000 30.5286 0.0000
# 6 0.0000 0.0000 0.0000 0.8598 0.0000 23.4678
#
#
#
# Elastic Compliance Matrix: (Units=1/GPa)
#
#
# Indices 1 2 3 4 5 6 
#
# 1 0.017670 -0.003658 -0.001484 0.000000 0.000601 0.000000
# 2 -0.003658 0.017670 -0.001484 0.000000 -0.000601 0.000000
# 3 -0.001484 -0.001484 0.010167 0.000000 0.000000 0.000000
# 4 0.000000 0.000000 0.000000 0.032790 0.000000 -0.001201
# 5 0.000601 -0.000601 0.000000 0.000000 0.032790 0.000000
# 6 0.000000 0.000000 0.000000 -0.001201 0.000000 0.042656
#
#
# Mechanical properties :
#
#
# Convention : Reuss Voigt Hill
#
# Bulk Modulus (GPa) = 31.00453 32.42188 31.71321
# Shear Modulus (GPa) = 28.12994 29.38633 28.75814
#
# Velocity S-wave (km/s) = 3.72191 3.80412 3.76324
# Velocity P-wave (km/s) = 5.80848 5.93813 5.87366
#
# Compressibility (1/GPa) = 0.03225335
#
# Stress axis : x y z
#
# Youngs Moduli (GPa) = 56.59372 56.59372 98.35763
#
# Poissons Ratio (x) = 0.20702 0.14599
# Poissons Ratio (y) = 0.20702 0.14599
# Poissons Ratio (z) = 0.08400 0.08400
#
# Static dielectric constant tensor:
#      x y z
#    x 3.569390 0.000000 0.000000 
#    y 0.000000 3.569390 0.000000 
#    z 0.000000 0.000000 4.158890 
# 
# 
# High freq. dielectric constant tensor:
#      x y z
#    x 1.771670 0.000000 0.000000 
#    y 0.000000 1.771670 0.000000 
#    z 0.000000 0.000000 1.822930 
# 
# From -- ./inp_files/4934.got.cif
#   From: 2010.03.12/outbox.cif.g09.slc.cpg/sg151_3_cif.got.tgz:4934.got - 2010.04.03 13:42:29.
