data_PCOD8321867
_publ_section_title
;
Structure prediction by ZEFSAII (Michael W. Deem and Ramdas Pophale) SiO2 
 PCOD8321867
Probable space group: P 3 1 2
;
_chemical_formula_sum "Si O2"
_cell_formula_units_Z 32
_cell_length_a 16.369411
_cell_length_b 16.369411
_cell_length_c 9.651359
_cell_angle_alpha 90.000000
_cell_angle_beta 90.000000
_cell_angle_gamma 120.000000
_cell_volume 2239.676061
_symmetry_space_group_name_H-M "P 3 1 2"
_symmetry_group_IT_number 149
_symmetry_cell_setting 'hexagonal'
loop_
_space_group_symop_operation_xyz
x,y,z
-y,x-y,z
-x+y,-x,z
-y,-x,-z
-x+y,y,-z
x,x-y,-z
loop_
_atom_site_type_symbol
_atom_site_label
_atom_site_fract_x
_atom_site_fract_y
_atom_site_fract_z
Si Si1 0.000000 0.000000 0.166432
Si Si2 0.944455 0.698566 0.160569
Si Si3 0.944455 0.245889 0.160569
Si Si4 0.104183 0.208365 0.163704
Si Si5 0.666362 0.520923 0.660430
Si Si6 0.854560 0.520923 0.660430
O O1 0.052301 0.947698 0.228931
O O2 0.000000 0.000000 0.000000
O O3 0.862144 0.724288 0.186987
O O4 0.928507 0.609685 0.250268
O O5 0.046031 0.785947 0.208609
O O6 0.946182 0.674027 1.000000
O O7 0.928507 0.318822 0.250269
O O8 0.046031 0.260083 0.208609
O O9 0.098536 0.197072 0.000000
O O10 0.748365 0.496731 0.691402
O O11 0.568504 0.431496 0.706223
O O12 0.665489 0.545574 0.500000
#
# Coordination Sequence:
#
# PCOD8321867 Si02
#       6
#     2   6   6   6   6   6
#     4   9  12  18  36  57  79 113 145 159 175 218
#     4   9  16  25  39  60  83 106 134 166 195 226
#     4   9  16  25  39  60  83 106 134 166 195 226
#     4   9  14  22  37  59  85 111 137 161 187 224
#     4   9  17  29  43  57  76 105 138 168 199 237
#     4   9  17  29  43  57  76 105 138 168 199 237
#
# _framework density 14.287781000000001
#
# number of rings (size 3 to 8) (size 9 to 14) (size 15 to 20)
#    0.000    3.000    1.875    0.375    0.000    2.250 
#    0.000    0.938    0.000    2.250    0.000    0.000 
#    1.875    0.000    1.125    0.000    1.500    0.000 
#
# Total GULP energy -396631.655410 kJ/mol
# GULP energy per Si atom -12394.739232 kJ/mol
# Density = 1.425526 g / cm^3
# Si number density = 14.287781 Si / 1000 Ang^3
#
#
#
# Elastic Constant Matrix: (Units=GPa)
#
#
# Indices 1 2 3 4 5 6 
#
# 1 111.1901 59.8323 44.7340 0.0000 0.0000 0.0000
# 2 59.8323 111.1901 44.7340 0.0000 0.0000 0.0000
# 3 44.7340 44.7340 43.1000 0.0000 0.0000 0.0000
# 4 0.0000 0.0000 0.0000 18.5490 0.0000 0.0000
# 5 0.0000 0.0000 0.0000 0.0000 18.5490 0.0000
# 6 0.0000 0.0000 0.0000 0.0000 0.0000 25.6789
#
#
#
# Elastic Compliance Matrix: (Units=1/GPa)
#
#
# Indices 1 2 3 4 5 6 
#
# 1 0.016133 -0.003339 -0.013279 0.000000 0.000000 0.000000
# 2 -0.003339 0.016133 -0.013279 0.000000 0.000000 0.000000
# 3 -0.013279 -0.013279 0.050767 0.000000 0.000000 0.000000
# 4 0.000000 0.000000 0.000000 0.053911 0.000000 0.000000
# 5 0.000000 0.000000 0.000000 0.000000 0.053911 0.000000
# 6 0.000000 0.000000 0.000000 0.000000 0.000000 0.038943
#
#
# Mechanical properties :
#
#
# Convention : Reuss Voigt Hill
#
# Bulk Modulus (GPa) = 43.03182 62.67567 52.85375
# Shear Modulus (GPa) = 16.81601 20.30071 18.55836
#
# Velocity S-wave (km/s) = 3.43439 3.77350 3.60793
# Velocity P-wave (km/s) = 6.77569 7.93395 7.37759
#
# Compressibility (1/GPa) = 0.02323862
#
# Stress axis : x y z
#
# Youngs Moduli (GPa) = 61.98642 61.98642 19.69801
#
# Poissons Ratio (x) = 0.20695 0.26157
# Poissons Ratio (y) = 0.20695 0.26157
# Poissons Ratio (z) = 0.82311 0.82311
#
# Static dielectric constant tensor:
#      x y z
#    x 2.777580 0.000000 0.000000 
#    y 0.000000 2.777580 0.000000 
#    z 0.000000 0.000000 2.603100 
# 
# 
# High freq. dielectric constant tensor:
#      x y z
#    x 1.529730 0.000000 0.000000 
#    y 0.000000 1.529730 0.000000 
#    z 0.000000 0.000000 1.524620 
# 
# From -- ./inp_files/864.got.cif
#   From: 2010.03.12/outbox.cif.g09.slc.cpg/sg149_cif.got.tgz:864.got - 2010.04.03 13:40:41.
