data_PCOD8321617
_publ_section_title
;
Structure prediction by ZEFSAII (Michael W. Deem and Ramdas Pophale) SiO2 
 PCOD8321617
Probable space group: P -3
;
_chemical_formula_sum "Si O2"
_cell_formula_units_Z 48
_cell_length_a 18.777668
_cell_length_b 18.777668
_cell_length_c 9.021454
_cell_angle_alpha 90.000000
_cell_angle_beta 90.000000
_cell_angle_gamma 120.000000
_cell_volume 2754.802593
_symmetry_space_group_name_H-M "P -3"
_symmetry_group_IT_number 147
_symmetry_cell_setting 'hexagonal'
loop_
_space_group_symop_operation_xyz
x,y,z
-y,x-y,z
-x+y,-x,z
-x,-y,-z
y,-x+y,-z
x-y,x,-z
loop_
_atom_site_type_symbol
_atom_site_label
_atom_site_fract_x
_atom_site_fract_y
_atom_site_fract_z
Si Si1 0.175725 0.664144 0.923751
Si Si2 0.759582 0.095446 0.576559
Si Si3 0.495086 0.666598 0.574134
Si Si4 0.328838 0.091364 0.422919
Si Si5 0.824275 0.335856 0.423751
Si Si6 0.495086 0.666598 0.925866
Si Si7 0.904554 0.664136 0.923441
Si Si8 0.671162 0.908636 0.922919
O O1 0.173593 0.651874 0.750000
O O2 0.266008 0.735702 0.971458
O O3 0.155466 0.576212 0.991486
O O4 0.109125 0.689876 0.974466
O O5 0.689385 0.108617 0.502339
O O6 0.850039 0.154186 0.511113
O O7 0.760049 0.111738 0.750000
O O8 0.737695 0.002425 0.543121
O O9 0.423788 0.579254 0.508514
O O10 0.469695 0.733992 0.528542
O O11 0.507345 0.666017 0.750000
O O12 0.419249 0.109125 0.474466
O O13 0.332482 0.113439 0.250000
O O14 0.580768 0.689385 0.002339
O O15 0.997575 0.735270 0.956879
O O16 0.845814 0.695853 0.988887
#
# Coordination Sequence:
#
# PCOD8321617 Si02
#       8
#     6   6   6   6   6   6   6   6
#     4   8  14  26  45  67  92 128 169 198 223 264
#     4  10  20  33  50  73  98 123 155 197 242 286
#     4   9  16  28  47  69  96 133 172 202 230 271
#     4   9  19  35  52  71  96 125 158 195 237 290
#     4   8  14  26  45  67  92 128 169 198 223 264
#     4   9  16  28  47  69  96 133 172 202 230 271
#     4  10  20  33  50  73  98 123 155 197 242 286
#     4   9  19  35  52  71  96 125 158 195 237 290
#
# _framework density 17.424116000000001
#
# number of rings (size 3 to 8) (size 9 to 14) (size 15 to 20)
#    0.000    3.000    0.000    2.750    0.000    5.000 
#    0.000    5.000    0.000    0.500    0.000    0.000 
#    0.000    0.000    0.000    0.000    0.000    0.000 
#
# Total GULP energy -594971.870203 kJ/mol
# GULP energy per Si atom -12395.247296 kJ/mol
# Density = 1.738446 g / cm^3
# Si number density = 17.424116 Si / 1000 Ang^3
#
#
#
# Elastic Constant Matrix: (Units=GPa)
#
#
# Indices 1 2 3 4 5 6 
#
# 1 97.0087 75.1305 44.8707 0.0000 0.0000 0.0000
# 2 75.1305 97.0087 44.8707 0.0000 0.0000 0.0000
# 3 44.8707 44.8707 56.3826 0.0000 0.0000 0.0000
# 4 0.0000 0.0000 0.0000 22.0760 0.0000 0.0000
# 5 0.0000 0.0000 0.0000 0.0000 22.0760 0.0000
# 6 0.0000 0.0000 0.0000 0.0000 0.0000 10.9391
#
#
#
# Elastic Compliance Matrix: (Units=1/GPa)
#
#
# Indices 1 2 3 4 5 6 
#
# 1 0.027818 -0.017890 -0.007901 0.000000 0.000000 0.000000
# 2 -0.017890 0.027818 -0.007901 0.000000 0.000000 0.000000
# 3 -0.007901 -0.007901 0.030312 0.000000 0.000000 0.000000
# 4 0.000000 0.000000 0.000000 0.045298 0.000000 0.000000
# 5 0.000000 0.000000 0.000000 0.000000 0.045298 0.000000
# 6 0.000000 0.000000 0.000000 0.000000 0.000000 0.091415
#
#
# Mechanical properties :
#
#
# Convention : Reuss Voigt Hill
#
# Bulk Modulus (GPa) = 53.86843 64.46041 59.16442
# Shear Modulus (GPa) = 14.63993 16.72009 15.68001
#
# Velocity S-wave (km/s) = 2.90178 3.10109 3.00309
# Velocity P-wave (km/s) = 6.49694 7.06382 6.78631
#
# Compressibility (1/GPa) = 0.01856375
#
# Stress axis : x y z
#
# Youngs Moduli (GPa) = 35.94792 35.94792 32.99016
#
# Poissons Ratio (x) = 0.64309 0.26067
# Poissons Ratio (y) = 0.64309 0.26067
# Poissons Ratio (z) = 0.28404 0.28404
#
# Static dielectric constant tensor:
#      x y z
#    x 3.292220 0.000000 0.000000 
#    y 0.000000 3.292220 0.000000 
#    z 0.000000 0.000000 3.005690 
# 
# 
# High freq. dielectric constant tensor:
#      x y z
#    x 1.665560 0.000000 0.000000 
#    y 0.000000 1.665560 0.000000 
#    z 0.000000 0.000000 1.648440 
# 
# From -- ./inp_files/672.got.cif
#   From: 2010.03.12/outbox.cif.g09.slc.cpg/sg147_cif.got.tgz:672.got - 2010.04.03 13:37:56.
