data_PCOD8321551
_publ_section_title
;
Structure prediction by ZEFSAII (Michael W. Deem and Ramdas Pophale) SiO2 
 PCOD8321551
Probable space group: R 3
;
_chemical_formula_sum "Si O2"
_cell_formula_units_Z 33
_cell_length_a 15.782607
_cell_length_b 15.782607
_cell_length_c 6.430765
_cell_angle_alpha 90.000000
_cell_angle_beta 90.000000
_cell_angle_gamma 120.000000
_cell_volume 1387.237294
_symmetry_space_group_name_H-M "R 3"
_symmetry_group_IT_number 146
_symmetry_cell_setting 'hexagonal'
loop_
_space_group_symop_operation_xyz
x,y,z
-y,x-y,z
-x+y,-x,z
2/3+x,1/3+y,1/3+z
2/3-y,1/3+x-y,1/3+z
2/3-x+y,1/3-x,1/3+z
1/3+x,2/3+y,2/3+z
1/3-y,2/3+x-y,2/3+z
1/3-x+y,2/3-x,2/3+z
loop_
_atom_site_type_symbol
_atom_site_label
_atom_site_fract_x
_atom_site_fract_y
_atom_site_fract_z
Si Si1 0.764724 0.506710 0.885440
Si Si2 0.339307 0.085850 0.146815
Si Si3 0.666668 0.333335 0.149677
Si Si4 0.424487 0.376947 0.620619
Si Si5 0.333334 0.666668 0.958746
O O1 0.872036 0.561008 0.790488
O O2 0.687366 0.439064 0.707307
O O3 0.732287 0.580127 0.975708
O O4 0.759431 0.434281 0.070099
O O5 0.284552 0.141999 0.232395
O O6 0.387629 0.066111 0.350486
O O7 0.666668 0.333334 0.387875
O O8 0.347063 0.400009 0.735186
#
# Coordination Sequence:
#
# PCOD8321551 Si02
#       5
#     9   9   3   9   3
#     4  10  26  47  72 117 148 207 263 325 393 481
#     4  12  32  49  81 119 167 203 267 339 408 465
#     4  10  26  43  76 110 160 202 263 325 409 470
#     4  12  28  50  81 112 156 213 276 325 397 482
#     4  10  26  43  82 104 163 199 269 322 415 464
#
# _framework density 23.788288999999999
#
# number of rings (size 3 to 8) (size 9 to 14) (size 15 to 20)
#    0.000    1.091    2.727    0.000   19.091    2.182 
#    0.000    0.000    0.000    0.000    0.000    0.000 
#    0.000    0.000    0.000    0.000    0.000    0.000 
#
# Total GULP energy -136337.571091 kJ/mol
# GULP energy per Si atom -12394.324645 kJ/mol
# Density = 2.373415 g / cm^3
# Si number density = 23.788289 Si / 1000 Ang^3
#
#
#
# Elastic Constant Matrix: (Units=GPa)
#
#
# Indices 1 2 3 4 5 6 
#
# 1 105.3042 29.0287 41.3003 -0.7128 6.5008 0.0017
# 2 29.0287 105.2999 41.2947 0.7173 -6.4926 0.0004
# 3 41.3003 41.2947 166.9403 0.0074 0.0071 0.0035
# 4 -0.7128 0.7173 0.0074 44.3163 0.0071 -6.4922
# 5 6.5008 -6.4926 0.0071 0.0071 44.3165 -0.7135
# 6 0.0017 0.0004 0.0035 -6.4922 -0.7135 38.1369
#
#
#
# Elastic Compliance Matrix: (Units=1/GPa)
#
#
# Indices 1 2 3 4 5 6 
#
# 1 0.011115 -0.002335 -0.002172 0.000217 -0.001972 0.000000
# 2 -0.002335 0.011115 -0.002172 -0.000217 0.001971 0.000000
# 3 -0.002172 -0.002172 0.007065 -0.000001 -0.000001 -0.000001
# 4 0.000217 -0.000217 -0.000001 0.023149 -0.000004 0.003941
# 5 -0.001972 0.001971 -0.000001 -0.000004 0.023150 0.000433
# 6 0.000000 0.000000 -0.000001 0.003941 0.000433 0.026900
#
#
# Mechanical properties :
#
#
# Convention : Reuss Voigt Hill
#
# Bulk Modulus (GPa) = 62.74889 66.75466 64.75177
# Shear Modulus (GPa) = 41.26576 43.08197 42.17386
#
# Velocity S-wave (km/s) = 4.16950 4.26027 4.21513
# Velocity P-wave (km/s) = 7.04379 7.23345 7.13925
#
# Compressibility (1/GPa) = 0.01593654
#
# Stress axis : x y z
#
# Youngs Moduli (GPa) = 89.96668 89.96649 141.54804
#
# Poissons Ratio (x) = 0.21012 0.30745
# Poissons Ratio (y) = 0.21012 0.30741
# Poissons Ratio (z) = 0.19541 0.19539
#
# Static dielectric constant tensor:
#      x y z
#    x 4.382920 0.000000 -0.000010 
#    y 0.000000 4.382900 0.000000 
#    z -0.000010 0.000000 4.329660 
# 
# 
# High freq. dielectric constant tensor:
#      x y z
#    x 1.942870 0.000000 0.000000 
#    y 0.000000 1.942870 0.000000 
#    z 0.000000 0.000000 1.960030 
# 
# From -- ./inp_files/137.got.cif
#   From: 2010.06.25/outbox.cif.g09.slc.cpg/sg146_cif.got.tgz:137.got - 2010.06.28 11:17:22.
