data_PCOD8321826
_publ_section_title
;
Structure prediction by ZEFSAII (Michael W. Deem and Ramdas Pophale) SiO2 
 PCOD8321826
Probable space group: R -3
;
_chemical_formula_sum "Si O2"
_cell_formula_units_Z 48
_cell_length_a 30.000000
_cell_length_b 30.000000
_cell_length_c 9.000000
_cell_angle_alpha 90.000000
_cell_angle_beta 90.000000
_cell_angle_gamma 120.000000
_cell_volume 7014.805771
_symmetry_space_group_name_H-M "R -3"
_symmetry_group_IT_number 148
_symmetry_cell_setting 'hexagonal'
loop_
_space_group_symop_operation_xyz
x,y,z
-y,x-y,z
-x+y,-x,z
-x,-y,-z
y,-x+y,-z
x-y,x,-z
2/3+x,1/3+y,1/3+z
2/3-y,1/3+x-y,1/3+z
2/3-x+y,1/3-x,1/3+z
2/3-x,1/3-y,1/3-z
2/3+y,1/3-x+y,1/3-z
2/3+x-y,1/3+x,1/3-z
1/3+x,2/3+y,2/3+z
1/3-y,2/3+x-y,2/3+z
1/3-x+y,2/3-x,2/3+z
1/3-x,2/3-y,2/3-z
1/3+y,2/3-x+y,2/3-z
1/3+x-y,2/3+x,2/3-z
loop_
_atom_site_type_symbol
_atom_site_label
_atom_site_fract_x
_atom_site_fract_y
_atom_site_fract_z
Si Si1 0.420581 0.475043 0.828296
Si Si2 0.461318 0.179789 0.895355
Si Si3 0.239708 0.943943 0.368549
Si Si4 0.791216 0.936677 0.427711
Si Si5 0.601629 0.716935 0.995113
Si Si6 0.864074 0.066176 0.097254
Si Si7 0.495564 0.864815 0.595628
Si Si8 0.306192 0.190881 0.927388
O O1 0.398257 0.418162 0.896759
O O2 0.390528 0.470858 0.678045
O O3 0.481836 0.496051 0.806681
O O4 0.411087 0.514852 0.926714
O O5 0.410631 0.138097 0.811206
O O6 0.479956 0.234818 0.821744
O O7 0.509431 0.170656 0.883830
O O8 0.449739 0.177757 0.069377
O O9 0.220404 0.923745 0.204508
O O10 0.281164 0.004643 0.353741
O O11 0.741482 0.929161 0.516265
O O12 0.548942 0.694388 0.900133
O O13 0.653223 0.769588 0.949687
O O14 0.925828 0.101108 0.086559
O O15 0.843022 0.097783 0.014025
O O16 0.846667 0.013437 0.010490
#
# Coordination Sequence:
#
# PCOD8321826 Si02
#       8
#    18  18  18  18  18  18  18  18
#     4  11  22  38  63  87 120 164 206 254 301 357
#     4  11  23  39  63  93 119 154 203 248 311 363
#     4  11  22  38  59  85 123 161 206 253 302 350
#     4  11  21  39  64  90 120 154 204 254 303 365
#     4  11  23  39  57  89 123 164 206 256 299 354
#     4  11  24  42  62  91 121 160 205 256 299 370
#     4  11  24  41  64  89 123 159 208 253 305 361
#     4  11  22  38  62  86 122 163 209 249 305 351
#
# _framework density 6.84267
#
# number of rings (size 3 to 8) (size 9 to 14) (size 15 to 20)
#    0.000    1.000    6.250    1.125    1.750    1.000 
#    2.250    0.000    0.000    0.500    0.000    0.000 
#    0.000    0.000    0.000    0.000    0.000    0.000 
#
# Total GULP energy -594798.015220 kJ/mol
# GULP energy per Si atom -12391.625317 kJ/mol
# Density = 0.682710 g / cm^3
# Si number density = 6.842670 Si / 1000 Ang^3
#
#
#
# Elastic Constant Matrix: (Units=GPa)
#
#
# Indices 1 2 3 4 5 6 
#
# 1 86.6807 26.8681 7.9809 1.2857 -7.4464 0.0540
# 2 26.8681 86.7075 8.0508 -1.2995 7.4142 0.0236
# 3 7.9809 8.0508 60.9353 0.0162 -0.0879 0.0454
# 4 1.2857 -1.2995 0.0162 22.0944 0.0508 7.4296
# 5 -7.4464 7.4142 -0.0879 0.0508 22.0770 1.3705
# 6 0.0540 0.0236 0.0454 7.4296 1.3705 30.0004
#
#
#
# Elastic Compliance Matrix: (Units=1/GPa)
#
#
# Indices 1 2 3 4 5 6 
#
# 1 0.013633 -0.004660 -0.001161 -0.001069 0.006163 -0.000036
# 2 -0.004660 0.013631 -0.001200 0.001084 -0.006157 0.000012
# 3 -0.001161 -0.001200 0.016722 -0.000007 0.000080 -0.000024
# 4 -0.001069 0.001084 -0.000007 0.049508 -0.000077 -0.012256
# 5 0.006163 -0.006157 0.000080 -0.000077 0.049583 -0.002252
# 6 -0.000036 0.000012 -0.000024 -0.012256 -0.002252 0.036471
#
#
# Mechanical properties :
#
#
# Convention : Reuss Voigt Hill
#
# Bulk Modulus (GPa) = 33.39435 35.56923 34.48179
# Shear Modulus (GPa) = 24.56156 27.59593 26.07875
#
# Velocity S-wave (km/s) = 3.46278 3.67046 3.56813
# Velocity P-wave (km/s) = 5.68250 5.94372 5.81458
#
# Compressibility (1/GPa) = 0.02994518
#
# Stress axis : x y z
#
# Youngs Moduli (GPa) = 73.35045 73.36164 59.80310
#
# Poissons Ratio (x) = 0.34185 0.06942
# Poissons Ratio (y) = 0.34180 0.07175
# Poissons Ratio (z) = 0.08514 0.08802
#
# Static dielectric constant tensor:
#      x y z
#    x 3.722740 -0.000040 -0.000330 
#    y -0.000040 3.722800 0.000120 
#    z -0.000330 0.000120 3.912550 
# 
# 
# High freq. dielectric constant tensor:
#      x y z
#    x 1.776790 0.000000 -0.000040 
#    y 0.000000 1.776810 0.000000 
#    z -0.000040 0.000000 1.816970 
# 
# From -- ./inp_files/1144.got.cif
#   From: 2010.03.12/outbox.ucp.g09.slc.cvg/sg148_1_cif.got.tgz:1144.got - 2010.05.04 20:34:32.
