data_PCOD8321732
_publ_section_title
;
Structure prediction by ZEFSAII (Michael W. Deem and Ramdas Pophale) SiO2 
 PCOD8321732
Probable space group: R -3
;
_chemical_formula_sum "Si O2"
_cell_formula_units_Z 108
_cell_length_a 20.626050
_cell_length_b 20.626050
_cell_length_c 14.529362
_cell_angle_alpha 90.000000
_cell_angle_beta 90.000000
_cell_angle_gamma 120.000000
_cell_volume 5353.148713
_symmetry_space_group_name_H-M "R -3"
_symmetry_group_IT_number 148
_symmetry_cell_setting 'hexagonal'
loop_
_space_group_symop_operation_xyz
x,y,z
-y,x-y,z
-x+y,-x,z
-x,-y,-z
y,-x+y,-z
x-y,x,-z
2/3+x,1/3+y,1/3+z
2/3-y,1/3+x-y,1/3+z
2/3-x+y,1/3-x,1/3+z
2/3-x,1/3-y,1/3-z
2/3+y,1/3-x+y,1/3-z
2/3+x-y,1/3+x,1/3-z
1/3+x,2/3+y,2/3+z
1/3-y,2/3+x-y,2/3+z
1/3-x+y,2/3-x,2/3+z
1/3-x,2/3-y,2/3-z
1/3+y,2/3-x+y,2/3-z
1/3+x-y,2/3+x,2/3-z
loop_
_atom_site_type_symbol
_atom_site_label
_atom_site_fract_x
_atom_site_fract_y
_atom_site_fract_z
Si Si1 0.625809 0.105645 0.246955
Si Si2 0.513149 0.181530 0.065329
Si Si3 0.853497 0.561021 0.419712
Si Si4 0.721942 0.736287 0.607432
Si Si5 0.514864 0.179815 0.601338
Si Si6 0.611392 0.681012 0.059235
O O1 0.666667 0.159577 0.333333
O O2 0.556451 0.112901 0.217668
O O3 0.674931 0.135581 0.153639
O O4 0.598008 0.022397 0.283204
O O5 0.460650 0.135581 0.153639
O O6 0.536338 0.268169 0.073477
O O7 0.588508 0.177016 0.053002
O O8 0.459259 0.145309 0.977422
O O9 0.908944 0.644269 0.383462
O O10 0.732570 0.732570 0.500000
O O11 0.716515 0.666667 0.666667
O O12 0.478642 0.125926 0.689244
#
# Coordination Sequence:
#
# PCOD8321732 Si02
#       6
#    18  18  18  18  18  18
#     4  10  21  37  61  91 124 161 205 254 309 364
#     4  11  24  41  63  91 127 167 207 250 302 366
#     4  10  21  37  61  91 124 161 205 254 309 364
#     4  11  22  41  63  94 124 157 204 254 313 363
#     4  11  24  41  63  91 127 167 207 250 302 366
#     4  11  22  41  63  94 124 157 204 254 313 363
#
# _framework density 20.175041
#
# number of rings (size 3 to 8) (size 9 to 14) (size 15 to 20)
#    0.000    1.333    3.333    2.333    0.000    3.333 
#    0.000    5.000    0.000    7.333    0.000    0.000 
#    0.000    0.000    0.000    0.000    0.000    0.000 
#
# Total GULP energy -446129.261178 kJ/mol
# GULP energy per Si atom -12392.479477 kJ/mol
# Density = 2.012912 g / cm^3
# Si number density = 20.175041 Si / 1000 Ang^3
#
#
#
# Elastic Constant Matrix: (Units=GPa)
#
#
# Indices 1 2 3 4 5 6 
#
# 1 -961.4904 1094.6567 43.4262-1523.4769 0.0004 0.0002
# 2 1094.6567 -961.4904 43.4262 1523.4769 -0.0004 -0.0002
# 3 43.4262 43.4262 160.6687 0.0000 0.0000 0.0000
# 4 -1523.4769 1523.4769 0.0000-2168.4060 0.0004 0.0001
# 5 0.0004 -0.0004 0.0000 0.0004-2168.4065-1523.4773
# 6 0.0002 -0.0002 0.0000 0.0001-1523.4773-1028.0738
#
#
#
# Elastic Compliance Matrix: (Units=1/GPa)
#
#
# Indices 1 2 3 4 5 6 
#
# 1 0.010470 -0.001353 -0.002464 -0.008307 0.000000 0.000000
# 2 -0.001353 0.010470 -0.002464 0.008307 0.000000 0.000000
# 3 -0.002464 -0.002464 0.007556 0.000000 0.000000 0.000000
# 4 -0.008307 0.008307 0.000000 0.011211 0.000000 0.000000
# 5 0.000000 0.000000 0.000000 0.000000 0.011211 -0.016614
# 6 0.000000 0.000000 0.000000 0.000000 -0.016614 0.023646
#
#
# Mechanical properties :
#
#
# Convention : Reuss Voigt Hill
#
# Bulk Modulus (GPa) = 62.76373 66.74513 64.75443
# Shear Modulus (GPa) = 54.09018 -1269.23199 -607.57091
#
# Velocity S-wave (km/s) = 5.18350 -25.10928 -17.37249
# Velocity P-wave (km/s) = 8.18547 28.41618 19.24159
#
# Compressibility (1/GPa) = 0.01593277
#
# Stress axis : x y z
#
# Youngs Moduli (GPa) = 95.51232 95.51232 132.34570
#
# Poissons Ratio (x) = 0.12926 0.32611
# Poissons Ratio (y) = 0.12926 0.32611
# Poissons Ratio (z) = 0.23535 0.23535
#
# Static dielectric constant tensor:
#      x y z
#    x 3.571690 0.000000 0.000000 
#    y 0.000000 3.571690 0.000000 
#    z 0.000000 0.000000 3.845380 
# 
# 
# High freq. dielectric constant tensor:
#      x y z
#    x 1.778630 0.000000 0.000000 
#    y 0.000000 1.778630 0.000000 
#    z 0.000000 0.000000 1.806250 
# 
# From -- ./inp_files/2051.got.cif
#   From: 2010.03.12/outbox.cif.g09.slc.cpg/sg148_2_cif.got.tgz:2051.got - 2010.04.03 13:38:46.
