data_PCOD8321028
_publ_section_title
;
Structure prediction by ZEFSAII (Michael W. Deem and Ramdas Pophale) SiO2 
 PCOD8321028
Probable space group: I 41/A C D
;
_chemical_formula_sum "Si O2"
_cell_formula_units_Z 160
_cell_length_a 19.448019
_cell_length_b 19.448019
_cell_length_c 21.511679
_cell_angle_alpha 90.000000
_cell_angle_beta 90.000000
_cell_angle_gamma 90.000000
_cell_volume 8136.264320
_symmetry_space_group_name_H-M "I 41/A C D"
_symmetry_group_IT_number 142
_space_group.IT_coordinate_system_code '2'
_symmetry_cell_setting 'tetragonal'
loop_
_space_group_symop_operation_xyz
x,y,z
1/4-y,3/4+x,1/4+z
-x,1/2-y,z
1/4+y,1/4-x,3/4+z
x,-y,1/2-z
1/2-x,y,-z
3/4+y,1/4+x,1/4-z
1/4-y,1/4-x,1/4-z
-x,-y,-z
3/4+y,1/4-x,3/4-z
x,1/2+y,-z
3/4-y,3/4+x,1/4-z
-x,y,1/2+z
1/2+x,-y,z
1/4-y,3/4-x,3/4+z
3/4+y,3/4+x,3/4+z
1/2+x,1/2+y,1/2+z
3/4-y,1/4+x,3/4+z
1/2-x,-y,1/2+z
3/4+y,3/4-x,1/4+z
1/2+x,1/2-y,-z
-x,1/2+y,1/2-z
1/4+y,3/4+x,3/4-z
3/4-y,3/4-x,3/4-z
1/2-x,1/2-y,1/2-z
1/4+y,3/4-x,1/4-z
1/2+x,y,1/2-z
1/4-y,1/4+x,3/4-z
1/2-x,1/2+y,z
x,1/2-y,1/2+z
3/4-y,1/4-x,1/4+z
1/4+y,1/4+x,1/4+z
loop_
_atom_site_type_symbol
_atom_site_label
_atom_site_fract_x
_atom_site_fract_y
_atom_site_fract_z
Si Si1 0.086229 0.938906 0.296255
Si Si2 0.826748 0.809220 0.507952
Si Si3 0.196001 0.174374 0.187881
Si Si4 0.391349 0.737542 0.369452
Si Si5 0.332660 0.192632 0.249499
O O1 0.091091 0.966339 0.366779
O O2 0.134882 0.873530 0.287501
O O3 0.008926 0.914577 0.282871
O O4 0.108925 0.000000 0.250000
O O5 0.750000 0.840155 0.500000
O O6 0.837596 0.791816 0.580515
O O7 0.883560 0.862994 0.484030
O O8 0.260586 0.157037 0.232157
O O9 0.174438 0.254984 0.192758
O O10 0.429442 0.803437 0.399219
O O11 0.352203 0.758594 0.307894
#
# Coordination Sequence:
#
# PCOD8321028 Si02
#       5
#    32  32  32  32  32
#     4  10  21  39  58  79 110 147 184 221 271 333
#     4  10  20  34  56  81 109 144 181 225 273 320
#     4  10  22  37  57  81 109 147 182 222 275 326
#     4   9  17  31  54  80 105 139 180 222 269 320
#     4  10  20  35  54  82 112 138 182 230 268 320
#
# _framework density 19.665044999999999
#
# number of rings (size 3 to 8) (size 9 to 14) (size 15 to 20)
#    0.000    2.200    0.000    3.600    0.000    5.600 
#    0.000    2.000    0.000    0.000    0.000    0.000 
#    0.000    0.000    0.000    0.000    0.000    0.000 
#
# Total GULP energy -992027.287938 kJ/mol
# GULP energy per Si atom -12400.341099 kJ/mol
# Density = 1.962029 g / cm^3
# Si number density = 19.665045 Si / 1000 Ang^3
#
#
#
# Elastic Constant Matrix: (Units=GPa)
#
#
# Indices 1 2 3 4 5 6 
#
# 1 106.4846 56.8425 34.7194 0.0000 0.0000 0.0000
# 2 56.8425 106.4846 34.7194 0.0000 0.0000 0.0000
# 3 34.7194 34.7194 65.8154 0.0000 0.0000 0.0000
# 4 0.0000 0.0000 0.0000 28.6185 0.0000 0.0000
# 5 0.0000 0.0000 0.0000 0.0000 28.6185 0.0000
# 6 0.0000 0.0000 0.0000 0.0000 0.0000 33.0714
#
#
#
# Elastic Compliance Matrix: (Units=1/GPa)
#
#
# Indices 1 2 3 4 5 6 
#
# 1 0.014019 -0.006126 -0.004164 0.000000 0.000000 0.000000
# 2 -0.006126 0.014019 -0.004164 0.000000 0.000000 0.000000
# 3 -0.004164 -0.004164 0.019587 0.000000 0.000000 0.000000
# 4 0.000000 0.000000 0.000000 0.034942 0.000000 0.000000
# 5 0.000000 0.000000 0.000000 0.000000 0.034942 0.000000
# 6 0.000000 0.000000 0.000000 0.000000 0.000000 0.030238
#
#
# Mechanical properties :
#
#
# Convention : Reuss Voigt Hill
#
# Bulk Modulus (GPa) = 53.42485 59.03857 56.23171
# Shear Modulus (GPa) = 27.33854 28.22856 27.78355
#
# Velocity S-wave (km/s) = 3.73260 3.79287 3.76285
# Velocity P-wave (km/s) = 6.76777 7.01915 6.89461
#
# Compressibility (1/GPa) = 0.01871788
#
# Stress axis : x y z
#
# Youngs Moduli (GPa) = 71.33411 71.33411 51.05441
#
# Poissons Ratio (x) = 0.43697 0.21258
# Poissons Ratio (y) = 0.43697 0.21258
# Poissons Ratio (z) = 0.29701 0.29701
#
# Static dielectric constant tensor:
#      x y z
#    x 3.622380 0.000000 0.000000 
#    y 0.000000 3.622380 0.000000 
#    z 0.000000 0.000000 3.463200 
# 
# 
# High freq. dielectric constant tensor:
#      x y z
#    x 1.765780 0.000000 0.000000 
#    y 0.000000 1.765780 0.000000 
#    z 0.000000 0.000000 1.759720 
# 
# From -- ./inp_files/7376.got.cif
#   From: 2010.03.12/outbox.cif.g09.slc.cpg/sg142_4_cif.got.tgz:7376.got - 2010.04.03 13:27:16.
