data_PCOD8321225
_publ_section_title
;
Structure prediction by ZEFSAII (Michael W. Deem and Ramdas Pophale) SiO2 
 PCOD8321225
Probable space group: I 41/A C D
;
_chemical_formula_sum "Si O2"
_cell_formula_units_Z 96
_cell_length_a 22.006841
_cell_length_b 22.006841
_cell_length_c 9.321670
_cell_angle_alpha 90.000000
_cell_angle_beta 90.000000
_cell_angle_gamma 90.000000
_cell_volume 4514.494576
_symmetry_space_group_name_H-M "I 41/A C D"
_symmetry_group_IT_number 142
_space_group.IT_coordinate_system_code '2'
_symmetry_cell_setting 'tetragonal'
loop_
_space_group_symop_operation_xyz
x,y,z
1/4-y,3/4+x,1/4+z
-x,1/2-y,z
1/4+y,1/4-x,3/4+z
x,-y,1/2-z
1/2-x,y,-z
3/4+y,1/4+x,1/4-z
1/4-y,1/4-x,1/4-z
-x,-y,-z
3/4+y,1/4-x,3/4-z
x,1/2+y,-z
3/4-y,3/4+x,1/4-z
-x,y,1/2+z
1/2+x,-y,z
1/4-y,3/4-x,3/4+z
3/4+y,3/4+x,3/4+z
1/2+x,1/2+y,1/2+z
3/4-y,1/4+x,3/4+z
1/2-x,-y,1/2+z
3/4+y,3/4-x,1/4+z
1/2+x,1/2-y,-z
-x,1/2+y,1/2-z
1/4+y,3/4+x,3/4-z
3/4-y,3/4-x,3/4-z
1/2-x,1/2-y,1/2-z
1/4+y,3/4-x,1/4-z
1/2+x,y,1/2-z
1/4-y,1/4+x,3/4-z
1/2-x,1/2+y,z
x,1/2-y,1/2+z
3/4-y,1/4-x,1/4+z
1/4+y,1/4+x,1/4+z
loop_
_atom_site_type_symbol
_atom_site_label
_atom_site_fract_x
_atom_site_fract_y
_atom_site_fract_z
Si Si1 0.541565 0.820865 0.287318
Si Si2 0.153535 0.501818 0.402855
Si Si3 0.812544 0.868839 0.074821
O O1 0.576092 0.777444 0.402723
O O2 0.569096 0.887824 0.286465
O O3 0.544098 0.794098 0.125000
O O4 0.118122 0.500000 0.250000
O O5 0.220820 0.529181 0.375000
O O6 0.161843 0.435026 0.472020
O O7 0.117267 0.547461 0.505851
O O8 0.750000 0.851442 0.000000
#
# Coordination Sequence:
#
# PCOD8321225 Si02
#       3
#    32  32  32
#     4  11  25  45  67  89 118 166 216 261 317 387
#     4   9  18  31  55  90 127 168 207 250 312 376
#     4  11  20  37  62  92 127 162 205 260 318 376
#
# _framework density 21.264838000000001
#
# number of rings (size 3 to 8) (size 9 to 14) (size 15 to 20)
#    0.000    1.667    0.000    8.000    0.000    8.000 
#    0.000   11.667    0.000    0.000    0.000    0.000 
#    0.000    0.000    0.000    0.000    0.000    0.000 
#
# Total GULP energy -594817.646662 kJ/mol
# GULP energy per Si atom -12392.034305 kJ/mol
# Density = 2.121644 g / cm^3
# Si number density = 21.264838 Si / 1000 Ang^3
#
#
#
# Elastic Constant Matrix: (Units=GPa)
#
#
# Indices 1 2 3 4 5 6 
#
# 1 81.3344 61.9739 28.6963 0.0000 0.0000 0.0000
# 2 61.9739 81.3354 28.6946 0.0000 0.0000 0.0000
# 3 28.6963 28.6946 139.9308 0.0000 0.0000 0.0000
# 4 0.0000 0.0000 0.0000 25.1993 0.0000 0.0000
# 5 0.0000 0.0000 0.0000 0.0000 25.1991 0.0000
# 6 0.0000 0.0000 0.0000 0.0000 0.0000 39.2114
#
#
#
# Elastic Compliance Matrix: (Units=1/GPa)
#
#
# Indices 1 2 3 4 5 6 
#
# 1 0.029627 -0.022024 -0.001559 0.000000 0.000000 0.000000
# 2 -0.022024 0.029626 -0.001559 0.000000 0.000000 0.000000
# 3 -0.001559 -0.001559 0.007786 0.000000 0.000000 0.000000
# 4 0.000000 0.000000 0.000000 0.039684 0.000000 0.000000
# 5 0.000000 0.000000 0.000000 0.000000 0.039684 0.000000
# 6 0.000000 0.000000 0.000000 0.000000 0.000000 0.025503
#
#
# Mechanical properties :
#
#
# Convention : Reuss Voigt Hill
#
# Bulk Modulus (GPa) = 59.68591 60.14779 59.91685
# Shear Modulus (GPa) = 21.95127 30.13767 26.04447
#
# Velocity S-wave (km/s) = 3.21640 3.76873 3.50346
# Velocity P-wave (km/s) = 6.47475 6.87635 6.67857
#
# Compressibility (1/GPa) = 0.01675437
#
# Stress axis : x y z
#
# Youngs Moduli (GPa) = 33.75354 33.75432 128.43913
#
# Poissons Ratio (x) = 0.74340 0.20028
# Poissons Ratio (y) = 0.74338 0.20019
# Poissons Ratio (z) = 0.05263 0.05261
#
# Static dielectric constant tensor:
#      x y z
#    x 3.513280 0.000000 0.000000 
#    y 0.000000 3.513270 0.000000 
#    z 0.000000 0.000000 4.864410 
# 
# 
# High freq. dielectric constant tensor:
#      x y z
#    x 1.805400 0.000000 0.000000 
#    y 0.000000 1.805400 0.000000 
#    z 0.000000 0.000000 1.864390 
# 
# From -- ./inp_files/1621.got.cif
#   From: 2010.03.12/outbox.cif.g09.slc.cpg/sg142_1_cif.got.tgz:1621.got - 2010.04.03 13:27:16.
