data_PCOD8321155
_publ_section_title
;
Structure prediction by ZEFSAII (Michael W. Deem and Ramdas Pophale) SiO2 
 PCOD8321155
Probable space group: I 41/A C D
;
_chemical_formula_sum "Si O2"
_cell_formula_units_Z 176
_cell_length_a 26.574769
_cell_length_b 26.574769
_cell_length_c 11.107428
_cell_angle_alpha 90.000000
_cell_angle_beta 90.000000
_cell_angle_gamma 90.000000
_cell_volume 7844.269446
_symmetry_space_group_name_H-M "I 41/A C D"
_symmetry_group_IT_number 142
_space_group.IT_coordinate_system_code '2'
_symmetry_cell_setting 'tetragonal'
loop_
_space_group_symop_operation_xyz
x,y,z
1/4-y,3/4+x,1/4+z
-x,1/2-y,z
1/4+y,1/4-x,3/4+z
x,-y,1/2-z
1/2-x,y,-z
3/4+y,1/4+x,1/4-z
1/4-y,1/4-x,1/4-z
-x,-y,-z
3/4+y,1/4-x,3/4-z
x,1/2+y,-z
3/4-y,3/4+x,1/4-z
-x,y,1/2+z
1/2+x,-y,z
1/4-y,3/4-x,3/4+z
3/4+y,3/4+x,3/4+z
1/2+x,1/2+y,1/2+z
3/4-y,1/4+x,3/4+z
1/2-x,-y,1/2+z
3/4+y,3/4-x,1/4+z
1/2+x,1/2-y,-z
-x,1/2+y,1/2-z
1/4+y,3/4+x,3/4-z
3/4-y,3/4-x,3/4-z
1/2-x,1/2-y,1/2-z
1/4+y,3/4-x,1/4-z
1/2+x,y,1/2-z
1/4-y,1/4+x,3/4-z
1/2-x,1/2+y,z
x,1/2-y,1/2+z
3/4-y,1/4-x,1/4+z
1/4+y,1/4+x,1/4+z
loop_
_atom_site_type_symbol
_atom_site_label
_atom_site_fract_x
_atom_site_fract_y
_atom_site_fract_z
Si Si1 0.723936 0.973936 0.625000
Si Si2 0.466440 0.884416 0.799346
Si Si3 0.050009 0.979595 0.057574
Si Si4 0.610684 0.542315 0.163887
Si Si5 0.406214 0.917335 0.586874
Si Si6 0.080623 0.872660 0.668337
O O1 0.750000 0.995131 0.500000
O O2 0.731508 0.913918 0.627558
O O3 0.464715 0.942971 0.834520
O O4 0.443507 0.882038 0.665628
O O5 0.432572 0.853042 0.893967
O O6 0.522981 0.864028 0.792453
O O7 0.085676 0.023654 0.110280
O O8 0.078403 0.948331 0.954774
O O9 0.000000 0.000000 0.000000
O O10 0.585030 0.500000 0.250000
O O11 0.612906 0.596624 0.231316
O O12 0.349222 0.900779 0.625000
O O13 0.417988 0.907550 0.448601
#
# Coordination Sequence:
#
# PCOD8321155 Si02
#       6
#    16  32  32  32  32  32
#     4  10  24  46  68 100 138 189 236 286 358 449
#     4  11  24  40  66  94 138 177 233 294 356 427
#     4  12  21  39  68 100 127 175 234 284 353 418
#     4  11  21  40  68  91 131 174 223 283 347 424
#     4  10  22  41  62  96 138 168 223 293 353 415
#     4  11  23  43  64  98 132 183 229 292 357 434
#
# _framework density 22.436761000000001
#
# number of rings (size 3 to 8) (size 9 to 14) (size 15 to 20)
#    0.000    1.091    3.636    2.727    0.000    0.364 
#    1.636    0.000    0.000    3.273    0.000    0.000 
#    0.000    0.000    0.000    0.000    0.000    0.000 
#
# Total GULP energy -1090994.624430 kJ/mol
# GULP energy per Si atom -12397.666187 kJ/mol
# Density = 2.238569 g / cm^3
# Si number density = 22.436761 Si / 1000 Ang^3
#
#
#
# Elastic Constant Matrix: (Units=GPa)
#
#
# Indices 1 2 3 4 5 6 
#
# 1 110.2715 31.8639 25.1629 0.0000 0.0000 0.0000
# 2 31.8639 110.2703 25.1622 0.0000 0.0000 0.0000
# 3 25.1629 25.1622 105.8836 0.0000 0.0000 0.0000
# 4 0.0000 0.0000 0.0000 30.2972 0.0000 0.0000
# 5 0.0000 0.0000 0.0000 0.0000 30.2976 0.0000
# 6 0.0000 0.0000 0.0000 0.0000 0.0000 34.4962
#
#
#
# Elastic Compliance Matrix: (Units=1/GPa)
#
#
# Indices 1 2 3 4 5 6 
#
# 1 0.010218 -0.002536 -0.001826 0.000000 0.000000 0.000000
# 2 -0.002536 0.010218 -0.001826 0.000000 0.000000 0.000000
# 3 -0.001826 -0.001826 0.010312 0.000000 0.000000 0.000000
# 4 0.000000 0.000000 0.000000 0.033006 0.000000 0.000000
# 5 0.000000 0.000000 0.000000 0.000000 0.033006 0.000000
# 6 0.000000 0.000000 0.000000 0.000000 0.000000 0.028989
#
#
# Mechanical properties :
#
#
# Convention : Reuss Voigt Hill
#
# Bulk Modulus (GPa) = 54.42581 54.53370 54.47975
# Shear Modulus (GPa) = 34.66260 35.30063 34.98162
#
# Velocity S-wave (km/s) = 3.93479 3.97084 3.95285
# Velocity P-wave (km/s) = 6.70474 6.73659 6.72068
#
# Compressibility (1/GPa) = 0.01837364
#
# Stress axis : x y z
#
# Youngs Moduli (GPa) = 97.86737 97.86649 96.97436
#
# Poissons Ratio (x) = 0.24819 0.17704
# Poissons Ratio (y) = 0.24819 0.17703
# Poissons Ratio (z) = 0.17867 0.17866
#
# Static dielectric constant tensor:
#      x y z
#    x 3.985330 0.000000 0.000000 
#    y 0.000000 3.985330 0.000000 
#    z 0.000000 0.000000 4.182280 
# 
# 
# High freq. dielectric constant tensor:
#      x y z
#    x 1.873770 0.000000 0.000000 
#    y 0.000000 1.873770 0.000000 
#    z 0.000000 0.000000 1.896880 
# 
# From -- ./inp_files/3992.got.cif
#   From: 2010.03.12/outbox.cif.g09.slc.cpg/sg142_2_cif.got.tgz:3992.got - 2010.04.03 13:27:16.
