data_PCOD8321500
_publ_section_title
;
Structure prediction by ZEFSAII (Michael W. Deem and Ramdas Pophale) SiO2 
 PCOD8321500
Probable space group: P 32
;
_chemical_formula_sum "Si O2"
_cell_formula_units_Z 18
_cell_length_a 11.684750
_cell_length_b 11.684750
_cell_length_c 5.440666
_cell_angle_alpha 90.000000
_cell_angle_beta 90.000000
_cell_angle_gamma 120.000000
_cell_volume 643.311844
_symmetry_space_group_name_H-M "P 32"
_symmetry_group_IT_number 145
_symmetry_cell_setting 'hexagonal'
loop_
_space_group_symop_operation_xyz
x,y,z
-y,x-y,2/3+z
-x+y,-x,1/3+z
loop_
_atom_site_type_symbol
_atom_site_label
_atom_site_fract_x
_atom_site_fract_y
_atom_site_fract_z
Si Si1 0.062188 0.553758 0.962360
Si Si2 0.846294 0.353430 0.284195
Si Si3 0.871993 0.564426 0.610050
Si Si4 0.868819 0.904799 0.875318
Si Si5 0.198782 0.814569 0.252135
Si Si6 0.933613 0.213225 0.631352
O O1 0.181691 0.522004 0.934997
O O2 0.016983 0.593964 0.706870
O O3 0.093668 0.665645 0.168530
O O4 0.947402 0.411381 0.056950
O O5 0.810670 0.461666 0.382054
O O6 0.911117 0.326539 0.519080
O O7 0.721073 0.220163 0.184959
O O8 0.870837 0.694146 0.508205
O O9 0.712350 0.854521 0.826239
O O10 0.942011 0.892433 0.630767
O O11 0.884645 0.812926 0.082109
O O12 0.205668 0.915968 0.049584
#
# Coordination Sequence:
#
# PCOD8321500 Si02
#       6
#     3   3   3   3   3   3
#     4  12  29  54  87 122 172 228 281 351 419 515
#     4  12  26  48  80 121 166 217 279 339 422 497
#     4  12  27  50  82 122 166 223 274 353 417 495
#     4  12  29  53  89 127 168 224 280 363 427 497
#     4  12  29  57  85 124 171 226 289 344 427 514
#     4  12  26  50  81 120 173 210 285 346 426 504
#
# _framework density 27.98021
#
# number of rings (size 3 to 8) (size 9 to 14) (size 15 to 20)
#    0.000    0.000    5.000    2.000    0.000   22.667 
#    0.000    0.000    0.000    0.000    0.000    0.000 
#    0.000    0.000    0.000    0.000    0.000    0.000 
#
# Total GULP energy -223160.797715 kJ/mol
# GULP energy per Si atom -12397.822095 kJ/mol
# Density = 2.791653 g / cm^3
# Si number density = 27.980210 Si / 1000 Ang^3
#
#
#
# Elastic Constant Matrix: (Units=GPa)
#
#
# Indices 1 2 3 4 5 6 
#
# 1 119.9415 39.3428 25.7249 0.3230 -0.9712 0.0000
# 2 39.3428 119.9415 25.7249 -0.3230 0.9712 0.0000
# 3 25.7249 25.7249 98.9503 0.0000 0.0000 0.0000
# 4 0.3230 -0.3230 0.0000 46.6779 0.0000 0.9712
# 5 -0.9712 0.9712 0.0000 0.0000 46.6779 0.3230
# 6 0.0000 0.0000 0.0000 0.9712 0.3230 40.2994
#
#
#
# Elastic Compliance Matrix: (Units=1/GPa)
#
#
# Indices 1 2 3 4 5 6 
#
# 1 0.009634 -0.002780 -0.001782 -0.000086 0.000258 0.000000
# 2 -0.002780 0.009634 -0.001782 0.000086 -0.000258 0.000000
# 3 -0.001782 -0.001782 0.011033 0.000000 0.000000 0.000000
# 4 -0.000086 0.000086 0.000000 0.021435 0.000000 -0.000517
# 5 0.000258 -0.000258 0.000000 0.000000 0.021435 -0.000172
# 6 0.000000 0.000000 0.000000 -0.000517 -0.000172 0.024828
#
#
# Mechanical properties :
#
#
# Convention : Reuss Voigt Hill
#
# Bulk Modulus (GPa) = 56.77752 57.82427 57.30089
# Shear Modulus (GPa) = 42.89727 43.26707 43.08217
#
# Velocity S-wave (km/s) = 3.91977 3.93663 3.92821
# Velocity P-wave (km/s) = 6.38922 6.43224 6.41077
#
# Compressibility (1/GPa) = 0.01761261
#
# Stress axis : x y z
#
# Youngs Moduli (GPa) = 103.80083 103.80083 90.64099
#
# Poissons Ratio (x) = 0.28859 0.16150
# Poissons Ratio (y) = 0.28859 0.16150
# Poissons Ratio (z) = 0.18495 0.18495
#
# Static dielectric constant tensor:
#      x y z
#    x 4.992640 0.000000 0.000000 
#    y 0.000000 4.992640 0.000000 
#    z 0.000000 0.000000 4.907780 
# 
# 
# High freq. dielectric constant tensor:
#      x y z
#    x 2.133710 0.000000 0.000000 
#    y 0.000000 2.133710 0.000000 
#    z 0.000000 0.000000 2.136170 
# 
# From -- ./inp_files/117.got.cif
#   From: 2010.03.12/outbox.cif.g09.slc.cpg/sg145_cif.got.tgz:117.got - 2010.04.03 13:35:35.
