data_PCOD8321736
_publ_section_title
;
Structure prediction by ZEFSAII (Michael W. Deem and Ramdas Pophale) SiO2 
 PCOD8321736
Probable space group: R -3
;
_chemical_formula_sum "Si O2"
_cell_formula_units_Z 108
_cell_length_a 21.584773
_cell_length_b 21.584773
_cell_length_c 13.724481
_cell_angle_alpha 90.000000
_cell_angle_beta 90.000000
_cell_angle_gamma 120.000000
_cell_volume 5537.599381
_symmetry_space_group_name_H-M "R -3"
_symmetry_group_IT_number 148
_symmetry_cell_setting 'hexagonal'
loop_
_space_group_symop_operation_xyz
x,y,z
-y,x-y,z
-x+y,-x,z
-x,-y,-z
y,-x+y,-z
x-y,x,-z
2/3+x,1/3+y,1/3+z
2/3-y,1/3+x-y,1/3+z
2/3-x+y,1/3-x,1/3+z
2/3-x,1/3-y,1/3-z
2/3+y,1/3-x+y,1/3-z
2/3+x-y,1/3+x,1/3-z
1/3+x,2/3+y,2/3+z
1/3-y,2/3+x-y,2/3+z
1/3-x+y,2/3-x,2/3+z
1/3-x,2/3-y,2/3-z
1/3+y,2/3-x+y,2/3-z
1/3+x-y,2/3+x,2/3-z
loop_
_atom_site_type_symbol
_atom_site_label
_atom_site_fract_x
_atom_site_fract_y
_atom_site_fract_z
Si Si1 0.503560 0.706544 0.899496
Si Si2 0.631363 0.131589 0.432263
Si Si3 0.069702 0.759003 0.526661
Si Si4 0.043881 0.730135 0.747838
Si Si5 0.210598 0.758429 0.552196
Si Si6 0.219268 0.511660 0.127700
O O1 0.498261 0.767477 0.840258
O O2 0.581777 0.718098 0.878710
O O3 0.449037 0.627670 0.858550
O O4 0.486564 0.711758 0.011313
O O5 0.715894 0.168436 0.444073
O O6 0.613626 0.141219 0.322519
O O7 0.601856 0.048910 0.456894
O O8 0.038901 0.726831 0.631968
O O9 0.023585 0.695706 0.450734
O O10 0.152772 0.781107 0.520306
O O11 0.060867 0.827032 0.501789
O O12 0.197500 0.569086 0.161157
#
# Coordination Sequence:
#
# PCOD8321736 Si02
#       6
#    18  18  18  18  18  18
#     4  10  22  42  58  91 123 157 202 250 293 353
#     4  11  20  36  65  92 123 161 191 237 316 369
#     4   9  21  41  62  92 124 149 200 257 298 355
#     4   9  20  38  63  91 124 155 195 249 305 359
#     4  10  21  38  61  96 128 151 193 249 304 367
#     4  11  26  45  63  82 119 165 211 249 290 350
#
# _framework density 19.503036999999999
#
# number of rings (size 3 to 8) (size 9 to 14) (size 15 to 20)
#    0.000    2.000    1.667    0.667    4.667    1.333 
#    1.000    3.333    0.000    0.000    0.000    0.000 
#    0.000    0.000    0.000    0.000    0.000    0.000 
#
# Total GULP energy -446478.557643 kJ/mol
# GULP energy per Si atom -12402.182157 kJ/mol
# Density = 1.945865 g / cm^3
# Si number density = 19.503037 Si / 1000 Ang^3
#
#
#
# Elastic Constant Matrix: (Units=GPa)
#
#
# Indices 1 2 3 4 5 6 
#
# 1 90.9069 43.2628 21.0173 -1.8601 3.6417 0.0000
# 2 43.2628 90.9069 21.0173 1.8601 -3.6417 0.0000
# 3 21.0173 21.0173 44.6360 0.0000 0.0000 0.0000
# 4 -1.8601 1.8601 0.0000 30.2807 0.0000 -3.6417
# 5 3.6417 -3.6417 0.0000 0.0000 30.2807 -1.8601
# 6 0.0000 0.0000 0.0000 -3.6417 -1.8601 23.8220
#
#
#
# Elastic Compliance Matrix: (Units=1/GPa)
#
#
# Indices 1 2 3 4 5 6 
#
# 1 0.015115 -0.006372 -0.004117 0.001320 -0.002584 0.000000
# 2 -0.006372 0.015115 -0.004117 -0.001320 0.002584 0.000000
# 3 -0.004117 -0.004117 0.026280 0.000000 0.000000 0.000000
# 4 0.001320 -0.001320 0.000000 0.033808 0.000000 0.005168
# 5 -0.002584 0.002584 0.000000 0.000000 0.033808 0.002640
# 6 0.000000 0.000000 0.000000 0.005168 0.002640 0.042974
#
#
# Mechanical properties :
#
#
# Convention : Reuss Voigt Hill
#
# Bulk Modulus (GPa) = 36.63091 44.11606 40.37348
# Shear Modulus (GPa) = 24.34140 26.28685 25.31412
#
# Velocity S-wave (km/s) = 3.53665 3.67527 3.60663
# Velocity P-wave (km/s) = 5.95820 6.37804 6.17169
#
# Compressibility (1/GPa) = 0.02729935
#
# Stress axis : x y z
#
# Youngs Moduli (GPa) = 66.15930 66.15930 38.05142
#
# Poissons Ratio (x) = 0.42157 0.15665
# Poissons Ratio (y) = 0.42157 0.15665
# Poissons Ratio (z) = 0.27236 0.27236
#
# Static dielectric constant tensor:
#      x y z
#    x 3.570280 0.000000 0.000000 
#    y 0.000000 3.570280 0.000000 
#    z 0.000000 0.000000 3.757700 
# 
# 
# High freq. dielectric constant tensor:
#      x y z
#    x 1.761870 0.000000 0.000000 
#    y 0.000000 1.761870 0.000000 
#    z 0.000000 0.000000 1.760580 
# 
# From -- ./inp_files/2042.got.cif
#   From: 2010.03.12/outbox.cif.g09.slc.cpg/sg148_2_cif.got.tgz:2042.got - 2010.04.03 13:38:46.
