data_PCOD8321917
_publ_section_title
;
Structure prediction by ZEFSAII (Michael W. Deem and Ramdas Pophale) SiO2 
 PCOD8321917
Probable space group: P 3 2 1
;
_chemical_formula_sum "Si O2"
_cell_formula_units_Z 48
_cell_length_a 22.667518
_cell_length_b 22.667518
_cell_length_c 9.224687
_cell_angle_alpha 90.000000
_cell_angle_beta 90.000000
_cell_angle_gamma 120.000000
_cell_volume 4104.783060
_symmetry_space_group_name_H-M "P 3 2 1"
_symmetry_group_IT_number 150
_symmetry_cell_setting 'hexagonal'
loop_
_space_group_symop_operation_xyz
x,y,z
-y,x-y,z
-x+y,-x,z
x-y,-y,-z
-x,-x+y,-z
y,x,-z
loop_
_atom_site_type_symbol
_atom_site_label
_atom_site_fract_x
_atom_site_fract_y
_atom_site_fract_z
Si Si1 0.537749 0.934972 0.586238
Si Si2 0.802384 0.469257 0.918663
Si Si3 0.397223 0.934972 0.913762
Si Si4 0.666873 0.469257 0.581337
Si Si5 0.666873 0.469257 0.918663
Si Si6 0.065028 0.462251 0.586238
Si Si7 0.666873 0.197616 0.581337
Si Si8 0.537749 0.934972 0.913762
O O1 0.468557 0.937115 0.584189
O O2 0.525728 0.866311 0.508903
O O3 0.562916 0.936775 0.750000
O O4 0.595768 0.000000 0.500000
O O5 0.736887 0.473774 0.965845
O O6 0.787176 0.393588 0.955131
O O7 0.819445 0.485614 0.750000
O O8 0.866311 0.525728 0.008903
O O9 0.373858 0.936775 0.750000
O O10 0.468557 0.937115 0.915811
O O11 0.340582 0.866311 0.991097
O O12 0.404232 0.000000 0.000000
O O13 0.666169 0.485614 0.750000
O O14 0.659418 0.525728 0.491097
O O15 0.736887 0.473774 0.534155
O O16 0.606412 0.393588 0.544869
O O17 0.000000 0.404232 0.500000
O O18 0.595768 0.000000 0.000000
#
# Coordination Sequence:
#
# PCOD8321917 Si02
#       8
#     6   6   6   6   6   6   6   6
#     4   9  16  25  36  48  61  78 101 128 156 186
#     4   9  16  25  36  49  65  84 104 126 155 192
#     4   9  16  25  36  48  61  78 101 128 156 186
#     4   9  16  25  36  49  65  84 104 126 155 192
#     4   9  16  25  36  49  65  84 104 126 155 192
#     4   9  16  25  36  48  61  78 101 128 156 186
#     4   9  16  25  36  49  65  84 104 126 155 192
#     4   9  16  25  36  48  61  78 101 128 156 186
#
# _framework density 11.693676
#
# number of rings (size 3 to 8) (size 9 to 14) (size 15 to 20)
#    0.000    3.000    0.000    2.000    0.000    9.000 
#    0.000    0.000    0.000    3.000    0.000    0.000 
#    0.000    0.000    0.000    0.000    0.000    0.000 
#
# Total GULP energy -595146.917418 kJ/mol
# GULP energy per Si atom -12398.894113 kJ/mol
# Density = 1.166706 g / cm^3
# Si number density = 11.693676 Si / 1000 Ang^3
#
#
#
# Elastic Constant Matrix: (Units=GPa)
#
#
# Indices 1 2 3 4 5 6 
#
# 1 62.8362 40.0343 44.0634 0.0000 0.0000 0.0000
# 2 40.0343 62.8362 44.0634 0.0000 0.0000 0.0000
# 3 44.0634 44.0634 83.6477 0.0000 0.0000 0.0000
# 4 0.0000 0.0000 0.0000 17.9682 0.0000 0.0000
# 5 0.0000 0.0000 0.0000 0.0000 17.9682 0.0000
# 6 0.0000 0.0000 0.0000 0.0000 0.0000 11.4009
#
#
#
# Elastic Compliance Matrix: (Units=1/GPa)
#
#
# Indices 1 2 3 4 5 6 
#
# 1 0.030786 -0.013070 -0.009332 0.000000 0.000000 0.000000
# 2 -0.013070 0.030786 -0.009332 0.000000 0.000000 0.000000
# 3 -0.009332 -0.009332 0.021787 0.000000 0.000000 0.000000
# 4 0.000000 0.000000 0.000000 0.055654 0.000000 0.000000
# 5 0.000000 0.000000 0.000000 0.000000 0.055654 0.000000
# 6 0.000000 0.000000 0.000000 0.000000 0.000000 0.087712
#
#
# Mechanical properties :
#
#
# Convention : Reuss Voigt Hill
#
# Bulk Modulus (GPa) = 50.27789 51.73803 51.00796
# Shear Modulus (GPa) = 14.18534 14.87807 14.53170
#
# Velocity S-wave (km/s) = 3.48670 3.57083 3.52902
# Velocity P-wave (km/s) = 7.70056 7.83209 7.76660
#
# Compressibility (1/GPa) = 0.01988946
#
# Stress axis : x y z
#
# Youngs Moduli (GPa) = 32.48251 32.48251 45.89961
#
# Poissons Ratio (x) = 0.42455 0.42834
# Poissons Ratio (y) = 0.42455 0.42834
# Poissons Ratio (z) = 0.30313 0.30313
#
# Static dielectric constant tensor:
#      x y z
#    x 2.275390 0.000000 0.000000 
#    y 0.000000 2.275390 0.000000 
#    z 0.000000 0.000000 2.583120 
# 
# 
# High freq. dielectric constant tensor:
#      x y z
#    x 1.408850 0.000000 0.000000 
#    y 0.000000 1.408850 0.000000 
#    z 0.000000 0.000000 1.456470 
# 
# From -- ./inp_files/789.got.cif
#   From: 2010.03.12/outbox.cif.g09.slc.cpg/sg150_cif.got.tgz:789.got - 2010.04.03 13:41:37.
