data_PCOD8321522
_publ_section_title
;
Structure prediction by ZEFSAII (Michael W. Deem and Ramdas Pophale) SiO2 
 PCOD8321522
Probable space group: R 3
;
_chemical_formula_sum "Si O2"
_cell_formula_units_Z 54
_cell_length_a 11.792265
_cell_length_b 11.792265
_cell_length_c 23.239591
_cell_angle_alpha 90.000000
_cell_angle_beta 90.000000
_cell_angle_gamma 120.000000
_cell_volume 2798.682117
_symmetry_space_group_name_H-M "R 3"
_symmetry_group_IT_number 146
_symmetry_cell_setting 'hexagonal'
loop_
_space_group_symop_operation_xyz
x,y,z
-y,x-y,z
-x+y,-x,z
2/3+x,1/3+y,1/3+z
2/3-y,1/3+x-y,1/3+z
2/3-x+y,1/3-x,1/3+z
1/3+x,2/3+y,2/3+z
1/3-y,2/3+x-y,2/3+z
1/3-x+y,2/3-x,2/3+z
loop_
_atom_site_type_symbol
_atom_site_label
_atom_site_fract_x
_atom_site_fract_y
_atom_site_fract_z
Si Si1 0.465860 0.505526 0.195450
Si Si2 0.833578 0.906758 0.308379
Si Si3 0.424038 0.186379 0.020099
Si Si4 0.186379 0.424038 0.245286
Si Si5 0.293667 0.161141 0.736603
Si Si6 0.573425 0.166911 0.290340
O O1 0.334051 0.463275 0.231378
O O2 0.543234 0.664641 0.190902
O O3 0.440360 0.440361 0.132693
O O4 0.555940 0.462313 0.229479
O O5 0.731108 0.841720 0.256619
O O6 0.760294 0.871020 0.369240
O O7 0.934410 0.851016 0.304230
O O8 0.463275 0.334051 0.034008
O O9 0.456766 0.121407 0.074484
O O10 0.503194 0.169861 0.966026
O O11 0.268892 0.110612 0.008767
O O12 0.732257 0.249939 0.294489
#
# Coordination Sequence:
#
# PCOD8321522 Si02
#       6
#     9   9   9   9   9   9
#     4  11  24  37  64  92 122 156 201 269 302 352
#     4   9  21  39  62  87 118 161 201 239 295 385
#     4  10  21  40  61  89 120 166 203 248 305 372
#     4  10  21  40  61  89 120 166 203 248 305 372
#     4  11  24  37  64  92 122 156 201 269 302 352
#     4   9  21  39  62  87 118 161 201 239 295 385
#
# _framework density 19.294796000000002
#
# number of rings (size 3 to 8) (size 9 to 14) (size 15 to 20)
#    0.667    1.333    0.000    4.667    4.667   10.667 
#    0.000    0.000    0.000    2.000    0.000    0.000 
#    0.000    0.000    0.000    0.000    0.000    0.000 
#
# Total GULP energy -222998.141188 kJ/mol
# GULP energy per Si atom -12388.785622 kJ/mol
# Density = 1.925088 g / cm^3
# Si number density = 19.294796 Si / 1000 Ang^3
#
#
#
# Elastic Constant Matrix: (Units=GPa)
#
#
# Indices 1 2 3 4 5 6 
#
# 1 121.2339 37.5436 36.2950 -1.7734 0.0000 0.0000
# 2 37.5436 121.2339 36.2950 1.7734 0.0000 0.0000
# 3 36.2950 36.2950 70.0290 0.0000 0.0000 0.0000
# 4 -1.7734 1.7734 0.0000 16.9752 0.0000 0.0000
# 5 0.0000 0.0000 0.0000 0.0000 16.9752 -1.7734
# 6 0.0000 0.0000 0.0000 0.0000 -1.7734 41.8452
#
#
#
# Elastic Compliance Matrix: (Units=1/GPa)
#
#
# Indices 1 2 3 4 5 6 
#
# 1 0.010128 -0.001874 -0.004278 0.001254 0.000000 0.000000
# 2 -0.001874 0.010128 -0.004278 -0.001254 0.000000 0.000000
# 3 -0.004278 -0.004278 0.018714 0.000000 0.000000 0.000000
# 4 0.001254 -0.001254 0.000000 0.059172 0.000000 0.000000
# 5 0.000000 0.000000 0.000000 0.000000 0.059172 0.002508
# 6 0.000000 0.000000 0.000000 0.000000 0.002508 0.024004
#
#
# Mechanical properties :
#
#
# Convention : Reuss Voigt Hill
#
# Bulk Modulus (GPa) = 55.21685 59.19598 57.20642
# Shear Modulus (GPa) = 24.01384 28.64999 26.33191
#
# Velocity S-wave (km/s) = 3.53168 3.85756 3.69821
# Velocity P-wave (km/s) = 6.73127 7.11248 6.92450
#
# Compressibility (1/GPa) = 0.01811041
#
# Stress axis : x y z
#
# Youngs Moduli (GPa) = 98.73705 98.73705 53.43569
#
# Poissons Ratio (x) = 0.18504 0.22859
# Poissons Ratio (y) = 0.18504 0.22859
# Poissons Ratio (z) = 0.42238 0.42238
#
# Static dielectric constant tensor:
#      x y z
#    x 3.683540 0.000000 0.000000 
#    y 0.000000 3.683540 0.000000 
#    z 0.000000 0.000000 3.383320 
# 
# 
# High freq. dielectric constant tensor:
#      x y z
#    x 1.759100 0.000000 0.000000 
#    y 0.000000 1.759100 0.000000 
#    z 0.000000 0.000000 1.719330 
# 
# From -- ./inp_files/1973.got.cif
#   From: 2010.06.25/outbox.cif.g09.slc.cpg/sg146_cif.got.tgz:1973.got - 2010.06.28 11:17:22.
