data_PCOD8321374
_publ_section_title
;
Structure prediction by ZEFSAII (Michael W. Deem and Ramdas Pophale) SiO2 
 PCOD8321374
Probable space group: P 31
;
_chemical_formula_sum "Si O2"
_cell_formula_units_Z 18
_cell_length_a 8.198018
_cell_length_b 8.198018
_cell_length_c 13.672333
_cell_angle_alpha 90.000000
_cell_angle_beta 90.000000
_cell_angle_gamma 120.000000
_cell_volume 795.776288
_symmetry_space_group_name_H-M "P 31"
_symmetry_group_IT_number 144
_symmetry_cell_setting 'hexagonal'
loop_
_space_group_symop_operation_xyz
x,y,z
-y,x-y,1/3+z
-x+y,-x,2/3+z
loop_
_atom_site_type_symbol
_atom_site_label
_atom_site_fract_x
_atom_site_fract_y
_atom_site_fract_z
Si Si1 0.684606 0.868732 0.764410
Si Si2 0.210039 0.958716 0.474450
Si Si3 0.609467 0.527693 0.665143
Si Si4 0.807923 0.603476 0.470089
Si Si5 0.210862 0.492133 0.629809
Si Si6 0.093218 0.461349 0.997308
O O1 0.748097 0.741496 0.702858
O O2 0.553260 0.721041 0.848660
O O3 0.573308 0.940916 0.695188
O O4 0.863026 0.042930 0.813577
O O5 0.280567 0.947696 0.365858
O O6 0.365566 0.988640 0.556316
O O7 0.016045 0.767629 0.496840
O O8 0.698849 0.498818 0.567976
O O9 0.571173 0.363487 0.741180
O O10 0.410339 0.509734 0.645033
O O11 0.702901 0.696451 0.411391
O O12 0.217579 0.684864 0.659811
#
# Coordination Sequence:
#
# PCOD8321374 Si02
#       6
#     3   3   3   3   3   3
#     4  11  24  46  70 102 142 186 232 295 358 420
#     4  11  25  43  71 102 142 181 242 292 351 428
#     4  10  23  43  69  97 142 184 230 290 352 417
#     4  11  24  45  69 102 141 182 239 290 351 427
#     4  10  21  45  67 100 141 185 230 288 361 417
#     4  11  23  44  72  97 138 190 227 289 359 417
#
# _framework density 22.619423000000001
#
# number of rings (size 3 to 8) (size 9 to 14) (size 15 to 20)
#    0.000    1.333    1.667    5.000    7.000    0.000 
#    6.000    1.667    0.000    0.000    0.000    0.000 
#    0.000    0.000    0.000    0.000    0.000    0.000 
#
# Total GULP energy -223182.780129 kJ/mol
# GULP energy per Si atom -12399.043340 kJ/mol
# Density = 2.256794 g / cm^3
# Si number density = 22.619423 Si / 1000 Ang^3
#
#
#
# Elastic Constant Matrix: (Units=GPa)
#
#
# Indices 1 2 3 4 5 6 
#
# 1 83.5193 35.6548 56.6954 1.4296 2.5341 0.0000
# 2 35.6548 83.5193 56.6954 -1.4296 -2.5341 0.0000
# 3 56.6954 56.6954 164.5987 0.0000 0.0000 0.0000
# 4 1.4296 -1.4296 0.0000 40.8822 0.0000 -2.5341
# 5 2.5341 -2.5341 0.0000 0.0000 40.8822 1.4296
# 6 0.0000 0.0000 0.0000 -2.5341 1.4296 23.9323
#
#
#
# Elastic Compliance Matrix: (Units=1/GPa)
#
#
# Indices 1 2 3 4 5 6 
#
# 1 0.016778 -0.004296 -0.004299 -0.000737 -0.001306 0.000000
# 2 -0.004296 0.016778 -0.004299 0.000737 0.001306 0.000000
# 3 -0.004299 -0.004299 0.009037 0.000000 0.000000 0.000000
# 4 -0.000737 0.000737 0.000000 0.024674 0.000000 0.002613
# 5 -0.001306 0.001306 0.000000 0.000000 0.024674 -0.001474
# 6 0.000000 0.000000 0.000000 0.002613 -0.001474 0.042149
#
#
# Mechanical properties :
#
#
# Convention : Reuss Voigt Hill
#
# Bulk Modulus (GPa) = 59.51158 69.96982 64.74070
# Shear Modulus (GPa) = 30.21477 33.31212 31.76344
#
# Velocity S-wave (km/s) = 3.65881 3.84177 3.75140
# Velocity P-wave (km/s) = 6.64953 7.11896 6.88824
#
# Compressibility (1/GPa) = 0.01680345
#
# Stress axis : x y z
#
# Youngs Moduli (GPa) = 59.60122 59.60122 110.65474
#
# Poissons Ratio (x) = 0.25607 0.47574
# Poissons Ratio (y) = 0.25607 0.47574
# Poissons Ratio (z) = 0.25624 0.25624
#
# Static dielectric constant tensor:
#      x y z
#    x 4.063680 0.000000 0.000000 
#    y 0.000000 4.063680 0.000000 
#    z 0.000000 0.000000 4.391900 
# 
# 
# High freq. dielectric constant tensor:
#      x y z
#    x 1.882570 0.000000 0.000000 
#    y 0.000000 1.882570 0.000000 
#    z 0.000000 0.000000 1.906250 
# 
# From -- ./inp_files/499.got.cif
#   From: 2010.03.12/outbox.cif.g09.slc.cpg/sg144_cif.got.tgz:499.got - 2010.04.03 13:34:42.
