data_PCOD8321873
_publ_section_title
;
Structure prediction by ZEFSAII (Michael W. Deem and Ramdas Pophale) SiO2 
 PCOD8321873
Probable space group: P 3 2 1
;
_chemical_formula_sum "Si O2"
_cell_formula_units_Z 42
_cell_length_a 15.470306
_cell_length_b 15.470306
_cell_length_c 12.086730
_cell_angle_alpha 90.000000
_cell_angle_beta 90.000000
_cell_angle_gamma 120.000000
_cell_volume 2505.170336
_symmetry_space_group_name_H-M "P 3 2 1"
_symmetry_group_IT_number 150
_symmetry_cell_setting 'hexagonal'
loop_
_space_group_symop_operation_xyz
x,y,z
-y,x-y,z
-x+y,-x,z
x-y,-y,-z
-x,-x+y,-z
y,x,-z
loop_
_atom_site_type_symbol
_atom_site_label
_atom_site_fract_x
_atom_site_fract_y
_atom_site_fract_z
Si Si1 0.437262 0.212187 0.631645
Si Si2 0.110563 0.886850 0.000000
Si Si3 0.884473 0.765154 0.759332
Si Si4 0.450330 0.888158 0.368374
Si Si5 0.549670 0.437829 0.368374
Si Si6 0.119319 0.234846 0.759332
Si Si7 0.212187 0.437262 0.631645
O O1 0.325448 0.150978 0.676066
O O2 0.501397 0.163677 0.676409
O O3 0.493453 0.325159 0.676462
O O4 0.430332 0.208332 0.500000
O O5 0.124022 0.842544 0.116362
O O6 0.124022 0.842544 0.883638
O O7 0.000000 0.873460 0.000000
O O8 0.193390 0.000000 0.000000
O O9 0.837921 0.837921 0.755901
O O10 0.000000 0.828688 0.722149
O O11 0.449400 0.886714 0.500000
O O12 0.509108 0.000000 0.321733
O O13 0.662280 0.498603 0.323591
O O14 0.493453 0.325159 0.323538
O O15 0.150978 0.325448 0.676066
#
# Coordination Sequence:
#
# PCOD8321873 Si02
#       7
#     6   6   6   6   6   6   6
#     4  10  19  31  48  69  92 120 154 193 235 274
#     4   8  15  28  46  66  88 120 160 194 221 258
#     4  10  19  31  48  70  97 126 155 187 226 277
#     4   9  17  29  44  63  88 117 149 183 220 266
#     4   9  17  29  44  63  88 117 149 183 220 266
#     4  10  19  31  48  70  97 126 155 187 226 277
#     4  10  19  31  48  69  92 120 154 193 235 274
#
# _framework density 16.765328
#
# number of rings (size 3 to 8) (size 9 to 14) (size 15 to 20)
#    0.000    2.571    0.000    2.714    0.000    8.000 
#    0.000    0.000    0.000    3.429    0.000    8.000 
#    0.000    0.000    0.000    0.000    0.000    0.000 
#
# Total GULP energy -520470.078277 kJ/mol
# GULP energy per Si atom -12392.144721 kJ/mol
# Density = 1.672717 g / cm^3
# Si number density = 16.765328 Si / 1000 Ang^3
#
#
#
# Elastic Constant Matrix: (Units=GPa)
#
#
# Indices 1 2 3 4 5 6 
#
# 1 115.8460 46.6511 20.8957 0.0000 0.0000 0.0000
# 2 46.6511 115.8460 20.8957 0.0000 0.0000 0.0000
# 3 20.8957 20.8957 33.5512 0.0000 0.0000 0.0000
# 4 0.0000 0.0000 0.0000 11.3471 0.0000 0.0000
# 5 0.0000 0.0000 0.0000 0.0000 11.3471 0.0000
# 6 0.0000 0.0000 0.0000 0.0000 0.0000 34.5975
#
#
#
# Elastic Compliance Matrix: (Units=1/GPa)
#
#
# Indices 1 2 3 4 5 6 
#
# 1 0.010890 -0.003562 -0.004564 0.000000 0.000000 0.000000
# 2 -0.003562 0.010890 -0.004564 0.000000 0.000000 0.000000
# 3 -0.004564 -0.004564 0.035490 0.000000 0.000000 0.000000
# 4 0.000000 0.000000 0.000000 0.088128 0.000000 0.000000
# 5 0.000000 0.000000 0.000000 0.000000 0.088128 0.000000
# 6 0.000000 0.000000 0.000000 0.000000 0.000000 0.028904
#
#
# Mechanical properties :
#
#
# Convention : Reuss Voigt Hill
#
# Bulk Modulus (GPa) = 31.35745 49.12535 40.24140
# Shear Modulus (GPa) = 16.75390 23.24507 19.99948
#
# Velocity S-wave (km/s) = 3.16463 3.72761 3.45760
# Velocity P-wave (km/s) = 5.66547 6.92041 6.32415
#
# Compressibility (1/GPa) = 0.03189035
#
# Stress axis : x y z
#
# Youngs Moduli (GPa) = 91.82916 91.82916 28.17721
#
# Poissons Ratio (x) = 0.32711 0.12859
# Poissons Ratio (y) = 0.32711 0.12859
# Poissons Ratio (z) = 0.41908 0.41908
#
# Static dielectric constant tensor:
#      x y z
#    x 3.209450 0.000000 0.000000 
#    y 0.000000 3.209450 0.000000 
#    z 0.000000 0.000000 3.027640 
# 
# 
# High freq. dielectric constant tensor:
#      x y z
#    x 1.648890 0.000000 0.000000 
#    y 0.000000 1.648890 0.000000 
#    z 0.000000 0.000000 1.606990 
# 
# From -- ./inp_files/961.got.cif
#   From: 2010.03.12/outbox.cif.g09.slc.cpg/sg150_cif.got.tgz:961.got - 2010.04.03 13:41:37.
