data_PCOD8321925
_publ_section_title
;
Structure prediction by ZEFSAII (Michael W. Deem and Ramdas Pophale) SiO2 
 PCOD8321925
Probable space group: P 31 1 2
;
_chemical_formula_sum "Si O2"
_cell_formula_units_Z 39
_cell_length_a 11.367132
_cell_length_b 11.367132
_cell_length_c 18.167315
_cell_angle_alpha 90.000000
_cell_angle_beta 90.000000
_cell_angle_gamma 120.000000
_cell_volume 2032.933557
_symmetry_space_group_name_H-M "P 31 1 2"
_symmetry_group_IT_number 151
_symmetry_cell_setting 'hexagonal'
loop_
_space_group_symop_operation_xyz
x,y,z
-y,x-y,1/3+z
-x+y,-x,2/3+z
-y,-x,2/3-z
-x+y,y,1/3-z
x,x-y,-z
loop_
_atom_site_type_symbol
_atom_site_label
_atom_site_fract_x
_atom_site_fract_y
_atom_site_fract_z
Si Si1 0.522865 0.761433 0.500000
Si Si2 0.123985 0.247366 0.279617
Si Si3 0.983873 0.991937 0.500000
Si Si4 0.112793 0.496021 0.427969
Si Si5 0.660513 0.572952 0.640896
Si Si6 0.255414 0.510827 0.666667
Si Si7 0.053408 0.592270 0.214961
Si Si8 0.721525 0.803013 0.223735
O O1 0.617817 0.845798 0.568896
O O2 0.428171 0.603095 0.517023
O O3 0.088254 0.110232 0.236348
O O4 0.197699 0.246370 0.356083
O O5 0.983899 0.250324 0.289132
O O6 0.079621 0.930019 0.515866
O O7 0.057808 0.528904 0.500000
O O8 0.235034 0.623781 0.387250
O O9 0.164365 0.396878 0.452672
O O10 0.982445 0.430654 0.377322
O O11 0.757775 0.515550 0.666667
O O12 0.556243 0.486200 0.574376
O O13 0.301493 0.420714 0.617424
O O14 0.997401 0.657893 0.153533
#
# Coordination Sequence:
#
# PCOD8321925 Si02
#       8
#     3   6   3   6   6   3   6   6
#     4   9  18  32  56  86 118 149 174 230 284 349
#     4   9  19  36  57  83 112 143 194 235 287 330
#     4  11  22  38  56  82 112 155 192 234 280 331
#     4  10  18  32  57  87 116 140 179 235 294 340
#     4   9  18  33  55  79 110 150 190 232 270 336
#     4  10  18  32  50  88 122 140 174 232 300 346
#     4  10  19  31  53  83 116 147 183 230 290 336
#     4  11  21  35  54  83 115 147 183 236 285 338
#
# _framework density 19.184099
#
# number of rings (size 3 to 8) (size 9 to 14) (size 15 to 20)
#    0.000    2.154    1.538    4.154    0.000    0.615 
#    2.769    0.000    1.692    0.000    2.000    0.000 
#    0.000    0.000    0.000    0.000    0.000    0.000 
#
# Total GULP energy -483263.854897 kJ/mol
# GULP energy per Si atom -12391.380895 kJ/mol
# Density = 1.914044 g / cm^3
# Si number density = 19.184099 Si / 1000 Ang^3
#
#
#
# Elastic Constant Matrix: (Units=GPa)
#
#
# Indices 1 2 3 4 5 6 
#
# 1 70.7496 31.4937 51.9314 -0.0004 0.3934 0.0000
# 2 31.4937 70.7496 51.9314 0.0004 -0.3934 0.0000
# 3 51.9314 51.9314 134.5094 0.0000 0.0000 0.0000
# 4 -0.0004 0.0004 0.0000 6.0607 0.0000 -0.3934
# 5 0.3934 -0.3934 0.0000 0.0000 6.0607 -0.0004
# 6 0.0000 0.0000 0.0000 -0.3934 -0.0004 19.6280
#
#
#
# Elastic Compliance Matrix: (Units=1/GPa)
#
#
# Indices 1 2 3 4 5 6 
#
# 1 0.020799 -0.004708 -0.006213 0.000002 -0.001656 0.000000
# 2 -0.004708 0.020799 -0.006213 -0.000002 0.001656 0.000000
# 3 -0.006213 -0.006213 0.012232 0.000000 0.000000 0.000000
# 4 0.000002 -0.000002 0.000000 0.165212 0.000000 0.003312
# 5 -0.001656 0.001656 0.000000 0.000000 0.165212 0.000003
# 6 0.000000 0.000000 0.000000 0.003312 0.000003 0.051014
#
#
# Mechanical properties :
#
#
# Convention : Reuss Voigt Hill
#
# Bulk Modulus (GPa) = 51.11364 60.74684 55.93024
# Shear Modulus (GPa) = 10.50297 15.72669 13.11483
#
# Velocity S-wave (km/s) = 2.34237 2.86628 2.61747
# Velocity P-wave (km/s) = 5.83243 6.53361 6.19295
#
# Compressibility (1/GPa) = 0.01956425
#
# Stress axis : x y z
#
# Youngs Moduli (GPa) = 48.07841 48.07841 81.75550
#
# Poissons Ratio (x) = 0.22634 0.50792
# Poissons Ratio (y) = 0.22634 0.50792
# Poissons Ratio (z) = 0.29869 0.29869
#
# Static dielectric constant tensor:
#      x y z
#    x 3.397800 0.000000 0.000000 
#    y 0.000000 3.397800 0.000000 
#    z 0.000000 0.000000 4.014880 
# 
# 
# High freq. dielectric constant tensor:
#      x y z
#    x 1.718960 0.000000 0.000000 
#    y 0.000000 1.718960 0.000000 
#    z 0.000000 0.000000 1.765630 
# 
# From -- ./inp_files/3559.got.cif
#   From: 2010.03.12/outbox.cif.g09.slc.cpg/sg151_2_cif.got.tgz:3559.got - 2010.04.03 13:42:29.
