data_PCOD8321083
_publ_section_title
;
Structure prediction by ZEFSAII (Michael W. Deem and Ramdas Pophale) SiO2 
 PCOD8321083
Probable space group: I 41/A C D
;
_chemical_formula_sum "Si O2"
_cell_formula_units_Z 160
_cell_length_a 28.420851
_cell_length_b 28.420851
_cell_length_c 9.721102
_cell_angle_alpha 90.000000
_cell_angle_beta 90.000000
_cell_angle_gamma 90.000000
_cell_volume 7852.169314
_symmetry_space_group_name_H-M "I 41/A C D"
_symmetry_group_IT_number 142
_space_group.IT_coordinate_system_code '2'
_symmetry_cell_setting 'tetragonal'
loop_
_space_group_symop_operation_xyz
x,y,z
1/4-y,3/4+x,1/4+z
-x,1/2-y,z
1/4+y,1/4-x,3/4+z
x,-y,1/2-z
1/2-x,y,-z
3/4+y,1/4+x,1/4-z
1/4-y,1/4-x,1/4-z
-x,-y,-z
3/4+y,1/4-x,3/4-z
x,1/2+y,-z
3/4-y,3/4+x,1/4-z
-x,y,1/2+z
1/2+x,-y,z
1/4-y,3/4-x,3/4+z
3/4+y,3/4+x,3/4+z
1/2+x,1/2+y,1/2+z
3/4-y,1/4+x,3/4+z
1/2-x,-y,1/2+z
3/4+y,3/4-x,1/4+z
1/2+x,1/2-y,-z
-x,1/2+y,1/2-z
1/4+y,3/4+x,3/4-z
3/4-y,3/4-x,3/4-z
1/2-x,1/2-y,1/2-z
1/4+y,3/4-x,1/4-z
1/2+x,y,1/2-z
1/4-y,1/4+x,3/4-z
1/2-x,1/2+y,z
x,1/2-y,1/2+z
3/4-y,1/4-x,1/4+z
1/4+y,1/4+x,1/4+z
loop_
_atom_site_type_symbol
_atom_site_label
_atom_site_fract_x
_atom_site_fract_y
_atom_site_fract_z
Si Si1 0.953728 0.931550 0.684005
Si Si2 0.674872 0.424872 0.875000
Si Si3 0.258359 0.870381 0.280950
Si Si4 0.383735 0.628092 0.904158
Si Si5 0.652622 0.402622 0.375000
Si Si6 0.456573 0.064522 0.000098
O O1 0.909992 0.964736 0.645482
O O2 0.934326 0.877932 0.662153
O O3 0.969553 0.940606 0.839947
O O4 0.996691 0.944426 0.585592
O O5 0.730171 0.413669 0.852558
O O6 0.646755 0.407536 0.741452
O O7 0.293487 0.893451 0.169792
O O8 0.221831 0.834651 0.205790
O O9 0.382773 0.609728 0.748255
O O10 0.435134 0.616501 0.967510
#
# Coordination Sequence:
#
# PCOD8321083 Si02
#       6
#    32  16  32  32  16  32
#     4  11  22  39  65  95 122 161 204 261 312 380
#     4  10  20  40  68  75 120 179 208 250 316 374
#     4  10  22  41  63  91 126 167 217 260 315 361
#     4  10  21  42  60  88 126 168 195 249 328 376
#     4  10  24  36  64  85 124 163 214 272 298 354
#     4  11  23  38  66  93 123 160 209 256 316 377
#
# _framework density 20.376535000000001
#
# number of rings (size 3 to 8) (size 9 to 14) (size 15 to 20)
#    0.000    1.600    4.000    1.200    8.400    3.200 
#    0.000    0.000    8.800   12.600    0.000    2.800 
#    0.000    0.000    0.000    0.000    0.000    0.000 
#
# Total GULP energy -991437.832029 kJ/mol
# GULP energy per Si atom -12392.972900 kJ/mol
# Density = 2.033016 g / cm^3
# Si number density = 20.376535 Si / 1000 Ang^3
#
#
#
# Elastic Constant Matrix: (Units=GPa)
#
#
# Indices 1 2 3 4 5 6 
#
# 1 76.4205 73.6531 51.3415 0.0000 0.0000 0.0000
# 2 73.6531 76.4205 51.3415 0.0000 0.0000 0.0000
# 3 51.3415 51.3415 156.9116 0.0000 0.0000 0.0000
# 4 0.0000 0.0000 0.0000 32.8587 0.0000 0.0000
# 5 0.0000 0.0000 0.0000 0.0000 32.8587 0.0000
# 6 0.0000 0.0000 0.0000 0.0000 0.0000 27.3718
#
#
#
# Elastic Compliance Matrix: (Units=1/GPa)
#
#
# Indices 1 2 3 4 5 6 
#
# 1 0.184967 -0.176382 -0.002809 0.000000 0.000000 0.000000
# 2 -0.176382 0.184967 -0.002809 0.000000 0.000000 0.000000
# 3 -0.002809 -0.002809 0.008211 0.000000 0.000000 0.000000
# 4 0.000000 0.000000 0.000000 0.030433 0.000000 0.000000
# 5 0.000000 0.000000 0.000000 0.000000 0.030433 0.000000
# 6 0.000000 0.000000 0.000000 0.000000 0.000000 0.036534
#
#
# Mechanical properties :
#
#
# Convention : Reuss Voigt Hill
#
# Bulk Modulus (GPa) = 70.69330 73.60276 72.14803
# Shear Modulus (GPa) = 5.92233 27.51227 16.71730
#
# Velocity S-wave (km/s) = 1.70668 3.67848 2.86740
# Velocity P-wave (km/s) = 6.21711 7.36488 6.81520
#
# Compressibility (1/GPa) = 0.01414561
#
# Stress axis : x y z
#
# Youngs Moduli (GPa) = 5.40636 5.40636 121.78286
#
# Poissons Ratio (x) = 0.95358 0.34211
# Poissons Ratio (y) = 0.95358 0.34211
# Poissons Ratio (z) = 0.01519 0.01519
#
# Static dielectric constant tensor:
#      x y z
#    x 3.908880 0.000000 0.000000 
#    y 0.000000 3.908880 0.000000 
#    z 0.000000 0.000000 3.794860 
# 
# 
# High freq. dielectric constant tensor:
#      x y z
#    x 1.775760 0.000000 0.000000 
#    y 0.000000 1.775760 0.000000 
#    z 0.000000 0.000000 1.810100 
# 
# From -- ./inp_files/2254.got.cif
#   From: 2010.03.12/outbox.cif.g09.slc.cpg/sg142_2_cif.got.tgz:2254.got - 2010.04.03 13:27:16.
