data_PCOD8321312
_publ_section_title
;
Structure prediction by ZEFSAII (Michael W. Deem and Ramdas Pophale) SiO2 
 PCOD8321312
Probable space group: I 41/A C D
;
_chemical_formula_sum "Si O2"
_cell_formula_units_Z 112
_cell_length_a 15.990504
_cell_length_b 15.990504
_cell_length_c 16.968999
_cell_angle_alpha 90.000000
_cell_angle_beta 90.000000
_cell_angle_gamma 90.000000
_cell_volume 4338.908870
_symmetry_space_group_name_H-M "I 41/A C D"
_symmetry_group_IT_number 142
_space_group.IT_coordinate_system_code '2'
_symmetry_cell_setting 'tetragonal'
loop_
_space_group_symop_operation_xyz
x,y,z
1/4-y,3/4+x,1/4+z
-x,1/2-y,z
1/4+y,1/4-x,3/4+z
x,-y,1/2-z
1/2-x,y,-z
3/4+y,1/4+x,1/4-z
1/4-y,1/4-x,1/4-z
-x,-y,-z
3/4+y,1/4-x,3/4-z
x,1/2+y,-z
3/4-y,3/4+x,1/4-z
-x,y,1/2+z
1/2+x,-y,z
1/4-y,3/4-x,3/4+z
3/4+y,3/4+x,3/4+z
1/2+x,1/2+y,1/2+z
3/4-y,1/4+x,3/4+z
1/2-x,-y,1/2+z
3/4+y,3/4-x,1/4+z
1/2+x,1/2-y,-z
-x,1/2+y,1/2-z
1/4+y,3/4+x,3/4-z
3/4-y,3/4-x,3/4-z
1/2-x,1/2-y,1/2-z
1/4+y,3/4-x,1/4-z
1/2+x,y,1/2-z
1/4-y,1/4+x,3/4-z
1/2-x,1/2+y,z
x,1/2-y,1/2+z
3/4-y,1/4-x,1/4+z
1/4+y,1/4+x,1/4+z
loop_
_atom_site_type_symbol
_atom_site_label
_atom_site_fract_x
_atom_site_fract_y
_atom_site_fract_z
Si Si1 0.040452 0.427180 0.132076
Si Si2 0.376294 0.099081 0.124284
Si Si3 0.750000 0.169158 0.500000
Si Si4 0.904520 0.736923 0.737050
O O1 0.089138 0.339138 0.125000
O O2 0.108401 0.500843 0.133151
O O3 0.978354 0.431822 0.206786
O O4 0.985111 0.415524 0.052505
O O5 0.374686 0.142140 0.210840
O O6 0.458627 0.141021 0.089726
O O7 0.295934 0.114468 0.067319
O O8 0.000000 0.750000 0.766031
#
# Coordination Sequence:
#
# PCOD8321312 Si02
#       4
#    32  32  16  32
#     4  12  27  46  71 110 148 190 256 322 379 473
#     4  12  24  46  72 105 149 196 243 318 388 462
#     4  12  28  48  74 110 152 200 260 318 404 474
#     4  12  23  47  78 101 147 202 252 307 390 468
#
# _framework density 25.812940999999999
#
# number of rings (size 3 to 8) (size 9 to 14) (size 15 to 20)
#    0.000    0.000    5.714    4.286    0.000    7.429 
#    0.000    0.000    0.000    0.000    0.000    0.000 
#    0.000    0.000    0.000    0.000    0.000    0.000 
#
# Total GULP energy -693873.183557 kJ/mol
# GULP energy per Si atom -12390.592564 kJ/mol
# Density = 2.575419 g / cm^3
# Si number density = 25.812941 Si / 1000 Ang^3
#
#
#
# Elastic Constant Matrix: (Units=GPa)
#
#
# Indices 1 2 3 4 5 6 
#
# 1 68.3317 -9.2094 1.9339 0.0000 0.0000 0.0000
# 2 -9.2094 68.3317 1.9340 0.0000 0.0000 0.0000
# 3 1.9339 1.9340 89.2701 0.0000 0.0000 0.0000
# 4 0.0000 0.0000 0.0000 46.6375 0.0000 0.0000
# 5 0.0000 0.0000 0.0000 0.0000 46.6375 0.0000
# 6 0.0000 0.0000 0.0000 0.0000 0.0000 23.5585
#
#
#
# Elastic Compliance Matrix: (Units=1/GPa)
#
#
# Indices 1 2 3 4 5 6 
#
# 1 0.014917 0.002021 -0.000367 0.000000 0.000000 0.000000
# 2 0.002021 0.014917 -0.000367 0.000000 0.000000 0.000000
# 3 -0.000367 -0.000367 0.011218 0.000000 0.000000 0.000000
# 4 0.000000 0.000000 0.000000 0.021442 0.000000 0.000000
# 5 0.000000 0.000000 0.000000 0.000000 0.021442 0.000000
# 6 0.000000 0.000000 0.000000 0.000000 0.000000 0.042447
#
#
# Mechanical properties :
#
#
# Convention : Reuss Voigt Hill
#
# Bulk Modulus (GPa) = 22.92198 23.91673 23.41935
# Shear Modulus (GPa) = 36.13971 38.78502 37.46237
#
# Velocity S-wave (km/s) = 3.74580 3.88047 3.81373
# Velocity P-wave (km/s) = 5.25427 5.41875 5.33714
#
# Compressibility (1/GPa) = 0.04362625
#
# Stress axis : x y z
#
# Youngs Moduli (GPa) = 67.03650 67.03651 89.14362
#
# Poissons Ratio (x) = -0.13547 0.03271
# Poissons Ratio (y) = -0.13547 0.03271
# Poissons Ratio (z) = 0.02460 0.02460
#
# Static dielectric constant tensor:
#      x y z
#    x 4.521490 0.000000 0.000000 
#    y 0.000000 4.521490 0.000000 
#    z 0.000000 0.000000 5.406410 
# 
# 
# High freq. dielectric constant tensor:
#      x y z
#    x 2.021300 0.000000 0.000000 
#    y 0.000000 2.021300 0.000000 
#    z 0.000000 0.000000 2.061070 
# 
# From -- ./inp_files/6830.got.cif
#   From: 2010.03.12/outbox.cif.g09.slc.cpg/sg142_4_cif.got.tgz:6830.got - 2010.04.03 13:27:16.
