data_PCOD8321232
_publ_section_title
;
Structure prediction by ZEFSAII (Michael W. Deem and Ramdas Pophale) SiO2 
 PCOD8321232
Probable space group: I 41/A C D
;
_chemical_formula_sum "Si O2"
_cell_formula_units_Z 160
_cell_length_a 22.643737
_cell_length_b 22.643737
_cell_length_c 14.803987
_cell_angle_alpha 90.000000
_cell_angle_beta 90.000000
_cell_angle_gamma 90.000000
_cell_volume 7590.578905
_symmetry_space_group_name_H-M "I 41/A C D"
_symmetry_group_IT_number 142
_space_group.IT_coordinate_system_code '2'
_symmetry_cell_setting 'tetragonal'
loop_
_space_group_symop_operation_xyz
x,y,z
1/4-y,3/4+x,1/4+z
-x,1/2-y,z
1/4+y,1/4-x,3/4+z
x,-y,1/2-z
1/2-x,y,-z
3/4+y,1/4+x,1/4-z
1/4-y,1/4-x,1/4-z
-x,-y,-z
3/4+y,1/4-x,3/4-z
x,1/2+y,-z
3/4-y,3/4+x,1/4-z
-x,y,1/2+z
1/2+x,-y,z
1/4-y,3/4-x,3/4+z
3/4+y,3/4+x,3/4+z
1/2+x,1/2+y,1/2+z
3/4-y,1/4+x,3/4+z
1/2-x,-y,1/2+z
3/4+y,3/4-x,1/4+z
1/2+x,1/2-y,-z
-x,1/2+y,1/2-z
1/4+y,3/4+x,3/4-z
3/4-y,3/4-x,3/4-z
1/2-x,1/2-y,1/2-z
1/4+y,3/4-x,1/4-z
1/2+x,y,1/2-z
1/4-y,1/4+x,3/4-z
1/2-x,1/2+y,z
x,1/2-y,1/2+z
3/4-y,1/4-x,1/4+z
1/4+y,1/4+x,1/4+z
loop_
_atom_site_type_symbol
_atom_site_label
_atom_site_fract_x
_atom_site_fract_y
_atom_site_fract_z
Si Si1 0.219343 0.451217 0.313187
Si Si2 0.551376 0.566144 0.720897
Si Si3 0.903588 0.732626 0.627903
Si Si4 0.826488 0.603697 0.223246
Si Si5 0.317231 0.233238 0.767976
O O1 0.186815 0.500000 0.250000
O O2 0.265713 0.484288 0.375000
O O3 0.259237 0.406778 0.255002
O O4 0.171954 0.415046 0.371644
O O5 0.535259 0.500000 0.750000
O O6 0.524644 0.612315 0.790786
O O7 0.622828 0.573710 0.714123
O O8 0.522089 0.579833 0.624258
O O9 0.932465 0.797068 0.622357
O O10 0.863609 0.722869 0.718703
O O11 0.833743 0.672933 0.217268
O O12 0.250000 0.250000 0.750000
#
# Coordination Sequence:
#
# PCOD8321232 Si02
#       5
#    32  32  32  32  32
#     4   9  18  34  57  92 133 171 213 268 339 419
#     4  12  23  42  72 102 137 182 231 295 349 410
#     4  11  26  48  71 101 142 186 234 289 348 425
#     4  11  21  37  65  98 132 177 229 280 347 421
#     4  12  25  43  68 101 135 176 237 292 353 419
#
# _framework density 21.078762000000001
#
# number of rings (size 3 to 8) (size 9 to 14) (size 15 to 20)
#    0.000    1.000    4.000    4.800    0.000    0.800 
#    3.600    2.000    4.400    0.000    0.000    0.000 
#    0.000    0.000    0.000    0.000    0.000    0.000 
#
# Total GULP energy -991805.576622 kJ/mol
# GULP energy per Si atom -12397.569708 kJ/mol
# Density = 2.103079 g / cm^3
# Si number density = 21.078762 Si / 1000 Ang^3
#
#
#
# Elastic Constant Matrix: (Units=GPa)
#
#
# Indices 1 2 3 4 5 6 
#
# 1 99.2197 37.3774 56.3503 0.0000 0.0000 0.0000
# 2 37.3774 99.2196 56.3500 0.0000 0.0000 0.0000
# 3 56.3503 56.3500 151.4343 0.0000 0.0000 0.0000
# 4 0.0000 0.0000 0.0000 37.1308 0.0000 0.0000
# 5 0.0000 0.0000 0.0000 0.0000 37.1309 0.0000
# 6 0.0000 0.0000 0.0000 0.0000 0.0000 20.5518
#
#
#
# Elastic Compliance Matrix: (Units=1/GPa)
#
#
# Indices 1 2 3 4 5 6 
#
# 1 0.013367 -0.002803 -0.003931 0.000000 0.000000 0.000000
# 2 -0.002803 0.013367 -0.003931 0.000000 0.000000 0.000000
# 3 -0.003931 -0.003931 0.009529 0.000000 0.000000 0.000000
# 4 0.000000 0.000000 0.000000 0.026932 0.000000 0.000000
# 5 0.000000 0.000000 0.000000 0.000000 0.026932 0.000000
# 6 0.000000 0.000000 0.000000 0.000000 0.000000 0.048658
#
#
# Mechanical properties :
#
#
# Convention : Reuss Voigt Hill
#
# Bulk Modulus (GPa) = 66.96470 72.22545 69.59508
# Shear Modulus (GPa) = 30.28611 32.28244 31.28427
#
# Velocity S-wave (km/s) = 3.79464 3.91770 3.85666
# Velocity P-wave (km/s) = 7.14400 7.40294 7.27462
#
# Compressibility (1/GPa) = 0.01493324
#
# Stress axis : x y z
#
# Youngs Moduli (GPa) = 74.81025 74.81041 104.94230
#
# Poissons Ratio (x) = 0.20970 0.41253
# Poissons Ratio (y) = 0.20970 0.41253
# Poissons Ratio (z) = 0.29408 0.29408
#
# Static dielectric constant tensor:
#      x y z
#    x 3.933470 0.000000 0.000000 
#    y 0.000000 3.933500 0.000000 
#    z 0.000000 0.000000 4.166120 
# 
# 
# High freq. dielectric constant tensor:
#      x y z
#    x 1.822900 0.000000 0.000000 
#    y 0.000000 1.822900 0.000000 
#    z 0.000000 0.000000 1.829800 
# 
# From -- ./inp_files/5443.got.cif
#   From: 2010.03.12/outbox.cif.g09.slc.cpg/sg142_3_cif.got.tgz:5443.got - 2010.04.03 13:27:16.
