data_PCOD8321558
_publ_section_title
;
Structure prediction by ZEFSAII (Michael W. Deem and Ramdas Pophale) SiO2 
 PCOD8321558
Probable space group: R 3
;
_chemical_formula_sum "Si O2"
_cell_formula_units_Z 51
_cell_length_a 16.591314
_cell_length_b 16.591314
_cell_length_c 9.518809
_cell_angle_alpha 90.000000
_cell_angle_beta 90.000000
_cell_angle_gamma 120.000000
_cell_volume 2269.210631
_symmetry_space_group_name_H-M "R 3"
_symmetry_group_IT_number 146
_symmetry_cell_setting 'hexagonal'
loop_
_space_group_symop_operation_xyz
x,y,z
-y,x-y,z
-x+y,-x,z
2/3+x,1/3+y,1/3+z
2/3-y,1/3+x-y,1/3+z
2/3-x+y,1/3-x,1/3+z
1/3+x,2/3+y,2/3+z
1/3-y,2/3+x-y,2/3+z
1/3-x+y,2/3-x,2/3+z
loop_
_atom_site_type_symbol
_atom_site_label
_atom_site_fract_x
_atom_site_fract_y
_atom_site_fract_z
Si Si1 0.273028 0.491054 0.027210
Si Si2 0.173828 0.074764 0.663082
Si Si3 0.000000 0.000000 0.842339
Si Si4 0.695424 0.766353 0.626399
Si Si5 0.333335 0.666667 0.845065
Si Si6 0.125549 0.836308 0.355269
Si Si7 0.099016 0.409460 0.882287
O O1 0.272384 0.538199 0.176001
O O2 0.347220 0.455643 0.017823
O O3 0.286933 0.561661 0.901076
O O4 0.167953 0.405012 0.999846
O O5 0.270182 0.174873 0.654022
O O6 0.198709 0.994648 0.698766
O O7 0.103193 0.071353 0.781898
O O8 0.000000 0.000000 0.009645
O O9 0.711007 0.844213 0.515139
O O10 0.609295 0.743390 0.732459
O O11 0.661994 0.671393 0.543652
O O12 0.165111 0.922957 0.244873
#
# Coordination Sequence:
#
# PCOD8321558 Si02
#       7
#     9   9   3   9   3   9   9
#     4  12  23  44  69 101 144 186 234 289 371 427
#     4  11  23  45  72  99 135 188 236 288 360 434
#     4  12  28  44  70 108 139 182 238 306 358 419
#     4  11  20  39  70 105 130 175 248 295 339 430
#     4  12  25  41  70 105 136 179 232 306 352 428
#     4  11  23  41  68 104 136 184 242 290 359 432
#     4  11  20  36  69 102 132 182 236 300 341 422
#
# _framework density 22.474775999999999
#
# number of rings (size 3 to 8) (size 9 to 14) (size 15 to 20)
#    0.000    0.706    7.059    3.176    2.471    0.000 
#    3.176    3.529    0.000    0.000    0.000    0.000 
#    0.000    0.000    0.000    0.000    0.000    0.000 
#
# Total GULP energy -210614.105432 kJ/mol
# GULP energy per Si atom -12389.065025 kJ/mol
# Density = 2.242362 g / cm^3
# Si number density = 22.474776 Si / 1000 Ang^3
#
#
#
# Elastic Constant Matrix: (Units=GPa)
#
#
# Indices 1 2 3 4 5 6 
#
# 1 88.3289 25.8902 22.4889 2.4527 -5.0630 0.0001
# 2 25.8902 88.3279 22.4889 -2.4527 5.0632 0.0001
# 3 22.4889 22.4889 120.5989 0.0001 0.0000 -0.0001
# 4 2.4527 -2.4527 0.0001 30.6634 0.0001 5.0631
# 5 -5.0630 5.0632 0.0000 0.0001 30.6634 2.4527
# 6 0.0001 0.0001 -0.0001 5.0631 2.4527 31.2193
#
#
#
# Elastic Compliance Matrix: (Units=1/GPa)
#
#
# Indices 1 2 3 4 5 6 
#
# 1 0.013006 -0.003557 -0.001762 -0.001325 0.002735 0.000000
# 2 -0.003557 0.013006 -0.001762 0.001325 -0.002735 0.000000
# 3 -0.001762 -0.001762 0.008949 0.000000 0.000000 0.000000
# 4 -0.001325 0.001325 0.000000 0.033727 0.000000 -0.005470
# 5 0.002735 -0.002735 0.000000 0.000000 0.033727 -0.002650
# 6 0.000000 0.000000 0.000000 -0.005470 -0.002650 0.033127
#
#
# Mechanical properties :
#
#
# Convention : Reuss Voigt Hill
#
# Bulk Modulus (GPa) = 48.07918 48.77685 48.42802
# Shear Modulus (GPa) = 31.92064 33.60173 32.76119
#
# Velocity S-wave (km/s) = 3.77276 3.87083 3.82211
# Velocity P-wave (km/s) = 6.35745 6.45971 6.40878
#
# Compressibility (1/GPa) = 0.02079903
#
# Stress axis : x y z
#
# Youngs Moduli (GPa) = 76.88668 76.88564 111.74302
#
# Poissons Ratio (x) = 0.27350 0.19689
# Poissons Ratio (y) = 0.27350 0.19689
# Poissons Ratio (z) = 0.13547 0.13548
#
# Static dielectric constant tensor:
#      x y z
#    x 3.993420 -0.000010 0.000000 
#    y -0.000010 3.993430 0.000000 
#    z 0.000000 0.000000 4.080420 
# 
# 
# High freq. dielectric constant tensor:
#      x y z
#    x 1.867750 0.000000 0.000000 
#    y 0.000000 1.867750 0.000000 
#    z 0.000000 0.000000 1.888330 
# 
# From -- ./inp_files/704.got.cif
#   From: 2010.06.25/outbox.cif.g09.slc.cpg/sg146_cif.got.tgz:704.got - 2010.06.28 11:17:22.
