data_PCOD8321785
_publ_section_title
;
Structure prediction by ZEFSAII (Michael W. Deem and Ramdas Pophale) SiO2 
 PCOD8321785
Probable space group: R -3
;
_chemical_formula_sum "Si O2"
_cell_formula_units_Z 84
_cell_length_a 14.098035
_cell_length_b 14.098035
_cell_length_c 26.439713
_cell_angle_alpha 90.000000
_cell_angle_beta 90.000000
_cell_angle_gamma 120.000000
_cell_volume 4550.975916
_symmetry_space_group_name_H-M "R -3"
_symmetry_group_IT_number 148
_symmetry_cell_setting 'hexagonal'
loop_
_space_group_symop_operation_xyz
x,y,z
-y,x-y,z
-x+y,-x,z
-x,-y,-z
y,-x+y,-z
x-y,x,-z
2/3+x,1/3+y,1/3+z
2/3-y,1/3+x-y,1/3+z
2/3-x+y,1/3-x,1/3+z
2/3-x,1/3-y,1/3-z
2/3+y,1/3-x+y,1/3-z
2/3+x-y,1/3+x,1/3-z
1/3+x,2/3+y,2/3+z
1/3-y,2/3+x-y,2/3+z
1/3-x+y,2/3-x,2/3+z
1/3-x,2/3-y,2/3-z
1/3+y,2/3-x+y,2/3-z
1/3+x-y,2/3+x,2/3-z
loop_
_atom_site_type_symbol
_atom_site_label
_atom_site_fract_x
_atom_site_fract_y
_atom_site_fract_z
Si Si1 0.254887 0.117320 0.997827
Si Si2 0.687951 0.710742 0.836723
Si Si3 0.480378 0.553865 0.778333
Si Si4 0.467253 0.915125 0.421026
Si Si5 0.333334 0.666668 0.912054
Si Si6 0.666667 0.333334 0.459406
O O1 0.344270 0.142569 0.041704
O O2 0.184590 0.174202 0.010000
O O3 0.312684 0.160587 0.943695
O O4 0.602272 0.626327 0.797852
O O5 0.784905 0.688018 0.850507
O O6 0.749877 0.824672 0.806264
O O7 0.632099 0.708405 0.890967
O O8 0.412225 0.619779 0.774060
O O9 0.413894 0.790244 0.401334
O O10 0.333334 0.666667 0.852347
#
# Coordination Sequence:
#
# PCOD8321785 Si02
#       6
#    18  18  18  18   6   6
#     4  12  23  38  56  89 127 152 183 246 308 352
#     4  11  20  36  58  85 120 152 194 237 288 357
#     4  12  22  36  60  90 118 152 195 238 297 344
#     4  11  21  37  58  86 120 153 190 243 292 356
#     4  12  21  39  63  88 112 154 205 237 285 337
#     4  12  18  33  61  91 114 141 184 253 294 343
#
# _framework density 18.45758
#
# number of rings (size 3 to 8) (size 9 to 14) (size 15 to 20)
#    0.000    0.429    8.571    2.786    0.000    0.000 
#    0.000    3.214    0.000    0.429    0.000    0.000 
#    0.000    0.000    0.000    0.000    0.000    0.000 
#
# Total GULP energy -346990.049975 kJ/mol
# GULP energy per Si atom -12392.501785 kJ/mol
# Density = 1.841557 g / cm^3
# Si number density = 18.457580 Si / 1000 Ang^3
#
#
#
# Elastic Constant Matrix: (Units=GPa)
#
#
# Indices 1 2 3 4 5 6 
#
# 1 57.1275 33.9946 16.2364 3.4269 -1.5571 0.0000
# 2 33.9946 57.1269 16.2362 -3.4270 1.5574 0.0000
# 3 16.2364 16.2362 89.9905 0.0000 0.0000 -0.0003
# 4 3.4269 -3.4270 0.0000 25.5171 -0.0001 1.5578
# 5 -1.5571 1.5574 0.0000 -0.0001 25.5174 3.4271
# 6 0.0000 0.0000 -0.0003 1.5578 3.4271 11.5666
#
#
#
# Elastic Compliance Matrix: (Units=1/GPa)
#
#
# Indices 1 2 3 4 5 6 
#
# 1 0.028569 -0.016840 -0.002116 -0.006098 0.002771 0.000000
# 2 -0.016840 0.028569 -0.002116 0.006099 -0.002771 0.000000
# 3 -0.002116 -0.002116 0.011876 0.000000 0.000000 0.000000
# 4 -0.006098 0.006099 0.000000 0.041166 0.000000 -0.005544
# 5 0.002771 -0.002771 0.000000 0.000000 0.041165 -0.012197
# 6 0.000000 0.000000 0.000000 -0.005544 -0.012197 0.090817
#
#
# Mechanical properties :
#
#
# Convention : Reuss Voigt Hill
#
# Bulk Modulus (GPa) = 37.21843 37.46437 37.34140
# Shear Modulus (GPa) = 17.04957 21.70540 19.37748
#
# Velocity S-wave (km/s) = 3.04257 3.43295 3.24364
# Velocity P-wave (km/s) = 5.70535 6.00459 5.85688
#
# Compressibility (1/GPa) = 0.02686841
#
# Stress axis : x y z
#
# Youngs Moduli (GPa) = 35.00344 35.00304 84.20445
#
# Poissons Ratio (x) = 0.58946 0.17818
# Poissons Ratio (y) = 0.58947 0.17818
# Poissons Ratio (z) = 0.07407 0.07407
#
# Static dielectric constant tensor:
#      x y z
#    x 3.348390 0.000000 0.000000 
#    y 0.000000 3.348400 0.000000 
#    z 0.000000 0.000000 3.528470 
# 
# 
# High freq. dielectric constant tensor:
#      x y z
#    x 1.694690 0.000000 0.000000 
#    y 0.000000 1.694690 0.000000 
#    z 0.000000 0.000000 1.722820 
# 
# From -- ./inp_files/3343.got.cif
#   From: 2010.03.12/outbox.cif.g09.slc.cpg/sg148_2_cif.got.tgz:3343.got - 2010.04.03 13:38:46.
