data_PCOD8321624
_publ_section_title
;
Structure prediction by ZEFSAII (Michael W. Deem and Ramdas Pophale) SiO2 
 PCOD8321624
Probable space group: P -3
;
_chemical_formula_sum "Si O2"
_cell_formula_units_Z 36
_cell_length_a 8.767112
_cell_length_b 8.767112
_cell_length_c 26.929472
_cell_angle_alpha 90.000000
_cell_angle_beta 90.000000
_cell_angle_gamma 120.000000
_cell_volume 1792.551243
_symmetry_space_group_name_H-M "P -3"
_symmetry_group_IT_number 147
_symmetry_cell_setting 'hexagonal'
loop_
_space_group_symop_operation_xyz
x,y,z
-y,x-y,z
-x+y,-x,z
-x,-y,-z
y,-x+y,-z
x-y,x,-z
loop_
_atom_site_type_symbol
_atom_site_label
_atom_site_fract_x
_atom_site_fract_y
_atom_site_fract_z
Si Si1 0.336115 0.326810 0.519856
Si Si2 0.320394 0.989657 0.770709
Si Si3 0.664566 0.676151 0.980472
Si Si4 0.324703 0.858014 0.373971
Si Si5 0.180829 0.969774 0.876648
Si Si6 0.993193 0.657949 0.732758
O O1 0.500000 0.500000 0.500000
O O2 0.159566 0.330120 0.511400
O O3 0.351609 0.309276 0.578532
O O4 0.286187 0.146571 0.755853
O O5 0.279664 0.952572 0.828876
O O6 0.191562 0.813373 0.740654
O O7 0.519816 0.041597 0.758850
O O8 0.658751 0.714635 0.922195
O O9 0.500000 0.500000 0.000000
O O10 0.841584 0.670881 0.986848
O O11 0.156191 0.659018 0.374183
O O12 0.327712 0.965187 0.326016
O O13 0.973697 0.815511 0.877670
#
# Coordination Sequence:
#
# PCOD8321624 Si02
#       6
#     6   6   6   6   6   6
#     4  12  24  43  69 102 135 178 228 285 343 416
#     4  12  24  43  69 105 135 183 226 280 340 403
#     4  12  24  43  69 102 135 177 222 277 333 397
#     4  10  20  42  70  96 135 181 224 278 355 400
#     4  10  20  42  73  95 133 184 224 271 348 395
#     4  12  24  43  69 103 140 176 229 281 338 410
#
# _framework density 20.083107999999999
#
# number of rings (size 3 to 8) (size 9 to 14) (size 15 to 20)
#    0.667    0.000    6.667    2.000    0.000    5.333 
#    0.000    0.000    0.000    0.000    0.000    0.000 
#    0.000    0.000    0.000    0.000    0.000    0.000 
#
# Total GULP energy -446450.949190 kJ/mol
# GULP energy per Si atom -12401.415255 kJ/mol
# Density = 2.003740 g / cm^3
# Si number density = 20.083108 Si / 1000 Ang^3
#
#
#
# Elastic Constant Matrix: (Units=GPa)
#
#
# Indices 1 2 3 4 5 6 
#
# 1 102.0097 28.0206 39.3846 -3.6840 3.4877 0.0000
# 2 28.0206 102.0097 39.3846 3.6840 -3.4877 0.0000
# 3 39.3846 39.3846 182.0206 0.0000 0.0000 0.0000
# 4 -3.6840 3.6840 0.0000 32.9321 0.0000 -3.4877
# 5 3.4877 -3.4877 0.0000 0.0000 32.9321 -3.6840
# 6 0.0000 0.0000 0.0000 -3.4877 -3.6840 36.9945
#
#
#
# Elastic Compliance Matrix: (Units=1/GPa)
#
#
# Indices 1 2 3 4 5 6 
#
# 1 0.011329 -0.002478 -0.001915 0.001545 -0.001462 0.000000
# 2 -0.002478 0.011329 -0.001915 -0.001545 0.001462 0.000000
# 3 -0.001915 -0.001915 0.006323 0.000000 0.000000 0.000000
# 4 0.001545 -0.001545 0.000000 0.031021 0.000000 0.002925
# 5 -0.001462 0.001462 0.000000 0.000000 0.031021 0.003089
# 6 0.000000 0.000000 0.000000 0.002925 0.003089 0.027614
#
#
# Mechanical properties :
#
#
# Convention : Reuss Voigt Hill
#
# Bulk Modulus (GPa) = 61.11105 66.62440 63.86772
# Shear Modulus (GPa) = 36.57438 39.18842 37.88140
#
# Velocity S-wave (km/s) = 4.27212 4.42216 4.34779
# Velocity P-wave (km/s) = 7.40472 7.70197 7.55481
#
# Compressibility (1/GPa) = 0.01636365
#
# Stress axis : x y z
#
# Youngs Moduli (GPa) = 88.26988 88.26988 158.16238
#
# Poissons Ratio (x) = 0.21876 0.30289
# Poissons Ratio (y) = 0.21876 0.30289
# Poissons Ratio (z) = 0.16904 0.16904
#
# Static dielectric constant tensor:
#      x y z
#    x 3.592070 0.000000 0.000000 
#    y 0.000000 3.592070 0.000000 
#    z 0.000000 0.000000 3.842670 
# 
# 
# High freq. dielectric constant tensor:
#      x y z
#    x 1.779240 0.000000 0.000000 
#    y 0.000000 1.779240 0.000000 
#    z 0.000000 0.000000 1.799890 
# 
# From -- ./inp_files/1119.got.cif
#   From: 2010.03.12/outbox.cif.g09.slc.cpg/sg147_cif.got.tgz:1119.got - 2010.04.03 13:37:56.
