data_PCOD8321059
_publ_section_title
;
Structure prediction by ZEFSAII (Michael W. Deem and Ramdas Pophale) SiO2 
 PCOD8321059
Probable space group: I 41/A C D
;
_chemical_formula_sum "Si O2"
_cell_formula_units_Z 144
_cell_length_a 20.733836
_cell_length_b 20.733836
_cell_length_c 17.257077
_cell_angle_alpha 90.000000
_cell_angle_beta 90.000000
_cell_angle_gamma 90.000000
_cell_volume 7418.678574
_symmetry_space_group_name_H-M "I 41/A C D"
_symmetry_group_IT_number 142
_space_group.IT_coordinate_system_code '2'
_symmetry_cell_setting 'tetragonal'
loop_
_space_group_symop_operation_xyz
x,y,z
1/4-y,3/4+x,1/4+z
-x,1/2-y,z
1/4+y,1/4-x,3/4+z
x,-y,1/2-z
1/2-x,y,-z
3/4+y,1/4+x,1/4-z
1/4-y,1/4-x,1/4-z
-x,-y,-z
3/4+y,1/4-x,3/4-z
x,1/2+y,-z
3/4-y,3/4+x,1/4-z
-x,y,1/2+z
1/2+x,-y,z
1/4-y,3/4-x,3/4+z
3/4+y,3/4+x,3/4+z
1/2+x,1/2+y,1/2+z
3/4-y,1/4+x,3/4+z
1/2-x,-y,1/2+z
3/4+y,3/4-x,1/4+z
1/2+x,1/2-y,-z
-x,1/2+y,1/2-z
1/4+y,3/4+x,3/4-z
3/4-y,3/4-x,3/4-z
1/2-x,1/2-y,1/2-z
1/4+y,3/4-x,1/4-z
1/2+x,y,1/2-z
1/4-y,1/4+x,3/4-z
1/2-x,1/2+y,z
x,1/2-y,1/2+z
3/4-y,1/4-x,1/4+z
1/4+y,1/4+x,1/4+z
loop_
_atom_site_type_symbol
_atom_site_label
_atom_site_fract_x
_atom_site_fract_y
_atom_site_fract_z
Si Si1 0.005937 0.900263 0.037596
Si Si2 0.535677 0.463177 0.891299
Si Si3 0.333009 0.491049 0.159477
Si Si4 0.636465 0.147248 0.096306
Si Si5 0.456814 0.500000 0.750000
O O1 0.951568 0.866942 0.090946
O O2 0.073555 0.862497 0.042605
O O3 0.983712 0.903429 0.947383
O O4 0.011918 0.971720 0.069633
O O5 0.612401 0.464508 0.880312
O O6 0.501218 0.458085 0.807975
O O7 0.333280 0.500000 0.250000
O O8 0.264511 0.514511 0.125000
O O9 0.344761 0.416484 0.142885
O O10 0.697877 0.163107 0.043467
#
# Coordination Sequence:
#
# PCOD8321059 Si02
#       5
#    32  32  32  32  16
#     4   9  19  37  59  84 119 161 200 244 310 366
#     4   9  18  37  58  81 117 162 195 236 312 384
#     4  11  22  36  59  89 120 154 199 255 312 369
#     4  10  22  38  60  88 122 160 203 257 303 369
#     4  10  20  38  60  88 122 160 208 252 306 372
#
# _framework density 19.410464999999999
#
# number of rings (size 3 to 8) (size 9 to 14) (size 15 to 20)
#    0.000    2.222    1.111    1.333    1.556    3.111 
#    0.000    0.000    0.000    0.000    0.000    0.000 
#    0.000    0.000    0.000    0.000    0.000    0.000 
#
# Total GULP energy -892677.166031 kJ/mol
# GULP energy per Si atom -12398.293973 kJ/mol
# Density = 1.936629 g / cm^3
# Si number density = 19.410465 Si / 1000 Ang^3
#
#
#
# Elastic Constant Matrix: (Units=GPa)
#
#
# Indices 1 2 3 4 5 6 
#
# 1 67.5679 45.5147 31.8684 0.0000 0.0000 0.0000
# 2 45.5147 67.5679 31.8684 0.0000 0.0000 0.0000
# 3 31.8684 31.8684 120.2948 0.0000 0.0000 0.0000
# 4 0.0000 0.0000 0.0000 -9.8609 0.0000 0.0000
# 5 0.0000 0.0000 0.0000 0.0000 -9.8609 0.0000
# 6 0.0000 0.0000 0.0000 0.0000 0.0000 24.2775
#
#
#
# Elastic Compliance Matrix: (Units=1/GPa)
#
#
# Indices 1 2 3 4 5 6 
#
# 1 0.027870 -0.017475 -0.002754 0.000000 0.000000 0.000000
# 2 -0.017475 0.027870 -0.002754 0.000000 0.000000 0.000000
# 3 -0.002754 -0.002754 0.009772 0.000000 0.000000 0.000000
# 4 0.000000 0.000000 0.000000 -0.101410 0.000000 0.000000
# 5 0.000000 0.000000 0.000000 0.000000 -0.101410 0.000000
# 6 0.000000 0.000000 0.000000 0.000000 0.000000 0.041190
#
#
# Mechanical properties :
#
#
# Convention : Reuss Voigt Hill
#
# Bulk Modulus (GPa) = 51.15884 52.65928 51.90906
# Shear Modulus (GPa) = -114.58142 10.65641 -51.96250
#
# Velocity S-wave (km/s) = -7.69148 2.34562 -5.17962
# Velocity P-wave (km/s) = 7.24327 5.87573 2.99507
#
# Compressibility (1/GPa) = 0.01954696
#
# Stress axis : x y z
#
# Youngs Moduli (GPa) = 35.88075 35.88075 102.33283
#
# Poissons Ratio (x) = 0.62701 0.28181
# Poissons Ratio (y) = 0.62701 0.28181
# Poissons Ratio (z) = 0.09881 0.09881
#
# Static dielectric constant tensor:
#      x y z
#    x 4.197480 0.000000 0.000000 
#    y 0.000000 4.197480 0.000000 
#    z 0.000000 0.000000 3.867130 
# 
# 
# High freq. dielectric constant tensor:
#      x y z
#    x 1.744830 0.000000 0.000000 
#    y 0.000000 1.744830 0.000000 
#    z 0.000000 0.000000 1.766260 
# 
# From -- ./inp_files/7254.got.cif
#   From: 2010.03.12/outbox.cif.g09.slc.cpg/sg142_4_cif.got.tgz:7254.got - 2010.04.03 13:27:16.
