data_PCOD8321296
_publ_section_title
;
Structure prediction by ZEFSAII (Michael W. Deem and Ramdas Pophale) SiO2 
 PCOD8321296
Probable space group: I 41/A C D
;
_chemical_formula_sum "Si O2"
_cell_formula_units_Z 120
_cell_length_a 13.403712
_cell_length_b 13.403712
_cell_length_c 31.818142
_cell_angle_alpha 90.000000
_cell_angle_beta 90.000000
_cell_angle_gamma 90.000000
_cell_volume 5716.431336
_symmetry_space_group_name_H-M "I 41/A C D"
_symmetry_group_IT_number 142
_space_group.IT_coordinate_system_code '2'
_symmetry_cell_setting 'tetragonal'
loop_
_space_group_symop_operation_xyz
x,y,z
1/4-y,3/4+x,1/4+z
-x,1/2-y,z
1/4+y,1/4-x,3/4+z
x,-y,1/2-z
1/2-x,y,-z
3/4+y,1/4+x,1/4-z
1/4-y,1/4-x,1/4-z
-x,-y,-z
3/4+y,1/4-x,3/4-z
x,1/2+y,-z
3/4-y,3/4+x,1/4-z
-x,y,1/2+z
1/2+x,-y,z
1/4-y,3/4-x,3/4+z
3/4+y,3/4+x,3/4+z
1/2+x,1/2+y,1/2+z
3/4-y,1/4+x,3/4+z
1/2-x,-y,1/2+z
3/4+y,3/4-x,1/4+z
1/2+x,1/2-y,-z
-x,1/2+y,1/2-z
1/4+y,3/4+x,3/4-z
3/4-y,3/4-x,3/4-z
1/2-x,1/2-y,1/2-z
1/4+y,3/4-x,1/4-z
1/2+x,y,1/2-z
1/4-y,1/4+x,3/4-z
1/2-x,1/2+y,z
x,1/2-y,1/2+z
3/4-y,1/4-x,1/4+z
1/4+y,1/4+x,1/4+z
loop_
_atom_site_type_symbol
_atom_site_label
_atom_site_fract_x
_atom_site_fract_y
_atom_site_fract_z
Si Si1 0.500000 0.750000 0.625000
Si Si2 0.327736 0.207940 0.936211
Si Si3 0.113897 0.500000 0.250000
Si Si4 0.753811 0.666501 0.285724
Si Si5 0.039177 0.590826 0.622556
O O1 0.504142 0.848164 0.652646
O O2 0.373239 0.114869 0.961130
O O3 0.226770 0.176459 0.911907
O O4 0.312687 0.295275 0.969134
O O5 0.180810 0.423944 0.275941
O O6 0.750000 0.750000 0.250000
O O7 0.723158 0.714883 0.330005
O O8 0.118335 0.679240 0.617953
#
# Coordination Sequence:
#
# PCOD8321296 Si02
#       5
#     8  32  16  32  32
#     4  12  24  44  76 100 140 190 234 298 348 424
#     4  12  26  47  70 107 141 184 242 287 358 424
#     4  12  28  46  74 106 144 188 232 304 346 424
#     4  12  27  47  73 104 142 188 235 295 356 422
#     4  11  25  47  73 103 143 187 231 289 356 422
#
# _framework density 20.992118000000001
#
# number of rings (size 3 to 8) (size 9 to 14) (size 15 to 20)
#    0.000    0.267    5.333    2.400    7.467    0.000 
#    0.000    0.000    0.000    0.000    0.000    0.000 
#    0.000    0.000    0.000    0.000    0.000    0.000 
#
# Total GULP energy -744473.223033 kJ/mol
# GULP energy per Si atom -12407.887051 kJ/mol
# Density = 2.094434 g / cm^3
# Si number density = 20.992118 Si / 1000 Ang^3
#
#
#
# Elastic Constant Matrix: (Units=GPa)
#
#
# Indices 1 2 3 4 5 6 
#
# 1 114.5681 64.9131 41.9561 0.0000 0.0000 0.0000
# 2 64.9131 114.5681 41.9561 0.0000 0.0000 0.0000
# 3 41.9561 41.9561 99.9330 0.0000 0.0000 0.0000
# 4 0.0000 0.0000 0.0000 103.3663 0.0000 0.0000
# 5 0.0000 0.0000 0.0000 0.0000 103.3663 0.0000
# 6 0.0000 0.0000 0.0000 0.0000 0.0000 38.7275
#
#
#
# Elastic Compliance Matrix: (Units=1/GPa)
#
#
# Indices 1 2 3 4 5 6 
#
# 1 0.013536 -0.006603 -0.002910 0.000000 0.000000 0.000000
# 2 -0.006603 0.013536 -0.002910 0.000000 0.000000 0.000000
# 3 -0.002910 -0.002910 0.012451 0.000000 0.000000 0.000000
# 4 0.000000 0.000000 0.000000 0.009674 0.000000 0.000000
# 5 0.000000 0.000000 0.000000 0.000000 0.009674 0.000000
# 6 0.000000 0.000000 0.000000 0.000000 0.000000 0.025821
#
#
# Mechanical properties :
#
#
# Convention : Reuss Voigt Hill
#
# Bulk Modulus (GPa) = 68.15087 69.63552 68.89319
# Shear Modulus (GPa) = 43.69420 61.10828 52.40124
#
# Velocity S-wave (km/s) = 4.56725 5.40123 5.00165
# Velocity P-wave (km/s) = 7.76843 8.49364 8.13912
#
# Compressibility (1/GPa) = 0.01467333
#
# Stress axis : x y z
#
# Youngs Moduli (GPa) = 73.87900 73.87900 80.31738
#
# Poissons Ratio (x) = 0.48785 0.23376
# Poissons Ratio (y) = 0.48785 0.23376
# Poissons Ratio (z) = 0.21502 0.21502
#
# Static dielectric constant tensor:
#      x y z
#    x 3.447050 0.000000 0.000000 
#    y 0.000000 3.447050 0.000000 
#    z 0.000000 0.000000 3.798130 
# 
# 
# High freq. dielectric constant tensor:
#      x y z
#    x 1.835410 0.000000 0.000000 
#    y 0.000000 1.835410 0.000000 
#    z 0.000000 0.000000 1.839930 
# 
# From -- ./inp_files/12299.got.cif
#   From: 2010.03.12/outbox.cif.g09.slc.cpg/sg142_7_cif.got.tgz:12299.got - 2010.04.03 13:27:16.
