data_PCOD8321249
_publ_section_title
;
Structure prediction by ZEFSAII (Michael W. Deem and Ramdas Pophale) SiO2 
 PCOD8321249
Probable space group: I 41/A C D
;
_chemical_formula_sum "Si O2"
_cell_formula_units_Z 104
_cell_length_a 17.888321
_cell_length_b 17.888321
_cell_length_c 14.483931
_cell_angle_alpha 90.000000
_cell_angle_beta 90.000000
_cell_angle_gamma 90.000000
_cell_volume 4634.742457
_symmetry_space_group_name_H-M "I 41/A C D"
_symmetry_group_IT_number 142
_space_group.IT_coordinate_system_code '2'
_symmetry_cell_setting 'tetragonal'
loop_
_space_group_symop_operation_xyz
x,y,z
1/4-y,3/4+x,1/4+z
-x,1/2-y,z
1/4+y,1/4-x,3/4+z
x,-y,1/2-z
1/2-x,y,-z
3/4+y,1/4+x,1/4-z
1/4-y,1/4-x,1/4-z
-x,-y,-z
3/4+y,1/4-x,3/4-z
x,1/2+y,-z
3/4-y,3/4+x,1/4-z
-x,y,1/2+z
1/2+x,-y,z
1/4-y,3/4-x,3/4+z
3/4+y,3/4+x,3/4+z
1/2+x,1/2+y,1/2+z
3/4-y,1/4+x,3/4+z
1/2-x,-y,1/2+z
3/4+y,3/4-x,1/4+z
1/2+x,1/2-y,-z
-x,1/2+y,1/2-z
1/4+y,3/4+x,3/4-z
3/4-y,3/4-x,3/4-z
1/2-x,1/2-y,1/2-z
1/4+y,3/4-x,1/4-z
1/2+x,y,1/2-z
1/4-y,1/4+x,3/4-z
1/2-x,1/2+y,z
x,1/2-y,1/2+z
3/4-y,1/4-x,1/4+z
1/4+y,1/4+x,1/4+z
loop_
_atom_site_type_symbol
_atom_site_label
_atom_site_fract_x
_atom_site_fract_y
_atom_site_fract_z
Si Si1 0.861229 0.734193 0.506669
Si Si2 0.681045 0.310918 0.345751
Si Si3 0.500000 0.250000 0.875000
Si Si4 0.155953 0.809864 0.199119
O O1 0.794206 0.760198 0.436850
O O2 0.928620 0.758522 0.439797
O O3 0.867510 0.781840 0.598696
O O4 0.867908 0.645502 0.526522
O O5 0.634642 0.384642 0.375000
O O6 0.639401 0.256550 0.272238
O O7 0.758395 0.337464 0.298297
#
# Coordination Sequence:
#
# PCOD8321249 Si02
#       4
#    32  32   8  32
#     4  12  20  38  59  93 127 161 214 271 312 375
#     4  11  22  41  61  95 129 166 218 270 322 389
#     4  12  20  34  64  96 122 160 216 278 308 360
#     4  11  24  35  65  94 124 170 217 264 331 382
#
# _framework density 22.439219999999999
#
# number of rings (size 3 to 8) (size 9 to 14) (size 15 to 20)
#    0.000    0.615    4.615    4.615    0.000    0.000 
#    0.000    0.000    0.000   22.154    8.000    0.000 
#    0.000    0.000    0.000    0.000    0.000    0.000 
#
# Total GULP energy -644223.443930 kJ/mol
# GULP energy per Si atom -12388.912383 kJ/mol
# Density = 2.238815 g / cm^3
# Si number density = 22.439220 Si / 1000 Ang^3
#
#
#
# Elastic Constant Matrix: (Units=GPa)
#
#
# Indices 1 2 3 4 5 6 
#
# 1 56.2238 27.3933 11.6233 0.0000 0.0000 0.0000
# 2 27.3933 56.2238 11.6233 0.0000 0.0000 0.0000
# 3 11.6233 11.6233 155.6194 0.0000 0.0000 0.0000
# 4 0.0000 0.0000 0.0000 35.4988 0.0000 0.0000
# 5 0.0000 0.0000 0.0000 0.0000 35.4988 0.0000
# 6 0.0000 0.0000 0.0000 0.0000 0.0000 24.5744
#
#
#
# Elastic Compliance Matrix: (Units=1/GPa)
#
#
# Indices 1 2 3 4 5 6 
#
# 1 0.023449 -0.011236 -0.000912 0.000000 0.000000 0.000000
# 2 -0.011236 0.023449 -0.000912 0.000000 0.000000 0.000000
# 3 -0.000912 -0.000912 0.006562 0.000000 0.000000 0.000000
# 4 0.000000 0.000000 0.000000 0.028170 0.000000 0.000000
# 5 0.000000 0.000000 0.000000 0.000000 0.028170 0.000000
# 6 0.000000 0.000000 0.000000 0.000000 0.000000 0.040693
#
#
# Mechanical properties :
#
#
# Convention : Reuss Voigt Hill
#
# Bulk Modulus (GPa) = 36.57750 41.03852 38.80801
# Shear Modulus (GPa) = 26.92112 33.60953 30.26532
#
# Velocity S-wave (km/s) = 3.46748 3.87434 3.67654
# Velocity P-wave (km/s) = 5.68923 6.19213 5.94600
#
# Compressibility (1/GPa) = 0.02733921
#
# Stress axis : x y z
#
# Youngs Moduli (GPa) = 42.64537 42.64537 152.38803
#
# Poissons Ratio (x) = 0.47918 0.13901
# Poissons Ratio (y) = 0.47918 0.13901
# Poissons Ratio (z) = 0.03890 0.03890
#
# Static dielectric constant tensor:
#      x y z
#    x 4.197080 0.000000 0.000000 
#    y 0.000000 4.197080 0.000000 
#    z 0.000000 0.000000 4.633070 
# 
# 
# High freq. dielectric constant tensor:
#      x y z
#    x 1.868240 0.000000 0.000000 
#    y 0.000000 1.868240 0.000000 
#    z 0.000000 0.000000 1.925230 
# 
# From -- ./inp_files/4968.got.cif
#   From: 2010.03.12/outbox.cif.g09.slc.cpg/sg142_3_cif.got.tgz:4968.got - 2010.04.03 13:27:16.
