data_PCOD8321326
_publ_section_title
;
Structure prediction by ZEFSAII (Michael W. Deem and Ramdas Pophale) SiO2 
 PCOD8321326
Probable space group: I 41/A C D
;
_chemical_formula_sum "Si O2"
_cell_formula_units_Z 128
_cell_length_a 16.050763
_cell_length_b 16.050763
_cell_length_c 20.722013
_cell_angle_alpha 90.000000
_cell_angle_beta 90.000000
_cell_angle_gamma 90.000000
_cell_volume 5338.549896
_symmetry_space_group_name_H-M "I 41/A C D"
_symmetry_group_IT_number 142
_space_group.IT_coordinate_system_code '2'
_symmetry_cell_setting 'tetragonal'
loop_
_space_group_symop_operation_xyz
x,y,z
1/4-y,3/4+x,1/4+z
-x,1/2-y,z
1/4+y,1/4-x,3/4+z
x,-y,1/2-z
1/2-x,y,-z
3/4+y,1/4+x,1/4-z
1/4-y,1/4-x,1/4-z
-x,-y,-z
3/4+y,1/4-x,3/4-z
x,1/2+y,-z
3/4-y,3/4+x,1/4-z
-x,y,1/2+z
1/2+x,-y,z
1/4-y,3/4-x,3/4+z
3/4+y,3/4+x,3/4+z
1/2+x,1/2+y,1/2+z
3/4-y,1/4+x,3/4+z
1/2-x,-y,1/2+z
3/4+y,3/4-x,1/4+z
1/2+x,1/2-y,-z
-x,1/2+y,1/2-z
1/4+y,3/4+x,3/4-z
3/4-y,3/4-x,3/4-z
1/2-x,1/2-y,1/2-z
1/4+y,3/4-x,1/4-z
1/2+x,y,1/2-z
1/4-y,1/4+x,3/4-z
1/2-x,1/2+y,z
x,1/2-y,1/2+z
3/4-y,1/4-x,1/4+z
1/4+y,1/4+x,1/4+z
loop_
_atom_site_type_symbol
_atom_site_label
_atom_site_fract_x
_atom_site_fract_y
_atom_site_fract_z
Si Si1 0.842713 0.951707 0.507379
Si Si2 0.398109 0.626700 0.969441
Si Si3 0.463147 0.451112 0.119135
Si Si4 0.980336 0.373251 0.580545
O O1 0.750000 0.915224 0.500000
O O2 0.876093 0.941281 0.580114
O O3 0.900938 0.901397 0.459524
O O4 0.841696 0.048473 0.488314
O O5 0.465493 0.600914 0.915971
O O6 0.337987 0.698426 0.940291
O O7 0.446200 0.659545 0.033207
O O8 0.486557 0.548626 0.122962
O O9 0.953715 0.296286 0.625000
#
# Coordination Sequence:
#
# PCOD8321326 Si02
#       4
#    32  32  32  32
#     4   9  19  32  60 101 129 173 233 282 327 388
#     4   9  19  37  61  98 132 175 224 278 340 407
#     4   9  19  35  61  97 134 179 230 279 336 411
#     4   9  19  37  64 102 141 173 224 289 341 404
#
# _framework density 23.97655
#
# number of rings (size 3 to 8) (size 9 to 14) (size 15 to 20)
#    0.000    3.000    0.000    3.000    7.000    0.500 
#    0.000    0.000   22.000    0.000   13.000    0.000 
#    0.000    0.000    0.000    0.000    0.000    0.000 
#
# Total GULP energy -793491.654201 kJ/mol
# GULP energy per Si atom -12398.307097 kJ/mol
# Density = 2.392198 g / cm^3
# Si number density = 23.976550 Si / 1000 Ang^3
#
#
#
# Elastic Constant Matrix: (Units=GPa)
#
#
# Indices 1 2 3 4 5 6 
#
# 1 93.5793 67.1569 65.4495 0.0000 0.0000 0.0000
# 2 67.1569 93.5819 65.4492 0.0000 0.0000 0.0000
# 3 65.4495 65.4492 115.3993 0.0000 0.0000 0.0000
# 4 0.0000 0.0000 0.0000 41.5423 0.0000 0.0000
# 5 0.0000 0.0000 0.0000 0.0000 41.5419 0.0000
# 6 0.0000 0.0000 0.0000 0.0000 0.0000 32.8587
#
#
#
# Elastic Compliance Matrix: (Units=1/GPa)
#
#
# Indices 1 2 3 4 5 6 
#
# 1 0.024704 -0.013142 -0.006557 0.000000 0.000000 0.000000
# 2 -0.013142 0.024702 -0.006557 0.000000 0.000000 0.000000
# 3 -0.006557 -0.006557 0.016103 0.000000 0.000000 0.000000
# 4 0.000000 0.000000 0.000000 0.024072 0.000000 0.000000
# 5 0.000000 0.000000 0.000000 0.000000 0.024072 0.000000
# 6 0.000000 0.000000 0.000000 0.000000 0.000000 0.030433
#
#
# Mechanical properties :
#
#
# Convention : Reuss Voigt Hill
#
# Bulk Modulus (GPa) = 76.93744 77.63021 77.28382
# Shear Modulus (GPa) = 24.88426 30.15556 27.51991
#
# Velocity S-wave (km/s) = 3.22508 3.55027 3.39157
# Velocity P-wave (km/s) = 6.78428 7.01810 6.90218
#
# Compressibility (1/GPa) = 0.01299757
#
# Stress axis : x y z
#
# Youngs Moduli (GPa) = 40.48000 40.48204 62.09975
#
# Poissons Ratio (x) = 0.53201 0.40721
# Poissons Ratio (y) = 0.53198 0.40716
# Poissons Ratio (z) = 0.26544 0.26542
#
# Static dielectric constant tensor:
#      x y z
#    x 4.154280 0.000000 0.000000 
#    y 0.000000 4.154280 0.000000 
#    z 0.000000 0.000000 4.344210 
# 
# 
# High freq. dielectric constant tensor:
#      x y z
#    x 1.948820 0.000000 0.000000 
#    y 0.000000 1.948820 0.000000 
#    z 0.000000 0.000000 1.940150 
# 
# From -- ./inp_files/10004.got.cif
#   From: 2010.03.12/outbox.cif.g09.slc.cpg/sg142_6_cif.got.tgz:10004.got - 2010.04.03 13:27:16.
