data_PCOD8321060
_publ_section_title
;
Structure prediction by ZEFSAII (Michael W. Deem and Ramdas Pophale) SiO2 
 PCOD8321060
Probable space group: I 41/A C D
;
_chemical_formula_sum "Si O2"
_cell_formula_units_Z 144
_cell_length_a 19.594663
_cell_length_b 19.594663
_cell_length_c 17.528550
_cell_angle_alpha 90.000000
_cell_angle_beta 90.000000
_cell_angle_gamma 90.000000
_cell_volume 6730.101112
_symmetry_space_group_name_H-M "I 41/A C D"
_symmetry_group_IT_number 142
_space_group.IT_coordinate_system_code '2'
_symmetry_cell_setting 'tetragonal'
loop_
_space_group_symop_operation_xyz
x,y,z
1/4-y,3/4+x,1/4+z
-x,1/2-y,z
1/4+y,1/4-x,3/4+z
x,-y,1/2-z
1/2-x,y,-z
3/4+y,1/4+x,1/4-z
1/4-y,1/4-x,1/4-z
-x,-y,-z
3/4+y,1/4-x,3/4-z
x,1/2+y,-z
3/4-y,3/4+x,1/4-z
-x,y,1/2+z
1/2+x,-y,z
1/4-y,3/4-x,3/4+z
3/4+y,3/4+x,3/4+z
1/2+x,1/2+y,1/2+z
3/4-y,1/4+x,3/4+z
1/2-x,-y,1/2+z
3/4+y,3/4-x,1/4+z
1/2+x,1/2-y,-z
-x,1/2+y,1/2-z
1/4+y,3/4+x,3/4-z
3/4-y,3/4-x,3/4-z
1/2-x,1/2-y,1/2-z
1/4+y,3/4-x,1/4-z
1/2+x,y,1/2-z
1/4-y,1/4+x,3/4-z
1/2-x,1/2+y,z
x,1/2-y,1/2+z
3/4-y,1/4-x,1/4+z
1/4+y,1/4+x,1/4+z
loop_
_atom_site_type_symbol
_atom_site_label
_atom_site_fract_x
_atom_site_fract_y
_atom_site_fract_z
Si Si1 0.573974 0.384921 0.675833
Si Si2 0.204202 0.538772 0.070428
Si Si3 0.017935 0.000000 0.750000
Si Si4 0.777436 0.683089 0.838154
Si Si5 0.140808 0.753497 0.219417
O O1 0.642595 0.421483 0.646693
O O2 0.527455 0.435939 0.724012
O O3 0.594329 0.321003 0.730867
O O4 0.541901 0.356159 0.597125
O O5 0.260884 0.510884 0.125000
O O6 0.144295 0.482727 0.058011
O O7 0.250000 0.559447 0.000000
O O8 0.064719 0.970902 0.819191
O O9 0.847356 0.713087 0.799615
O O10 0.715319 0.730302 0.813033
#
# Coordination Sequence:
#
# PCOD8321060 Si02
#       5
#    32  32  16  32  32
#     4  10  20  38  60  90 120 162 210 264 311 377
#     4  11  22  36  60  91 121 156 202 262 314 377
#     4  10  20  38  60  90 128 168 208 254 320 384
#     4   9  20  37  57  85 125 164 198 251 326 383
#     4   9  19  37  60  84 117 163 207 255 313 375
#
# _framework density 21.396408999999998
#
# number of rings (size 3 to 8) (size 9 to 14) (size 15 to 20)
#    0.000    2.222    1.111    1.333    1.556    3.111 
#    4.000    0.000    0.000    0.000    0.000    0.000 
#    0.000    0.000    0.000    0.000    0.000    0.000 
#
# Total GULP energy -892168.845776 kJ/mol
# GULP energy per Si atom -12391.233969 kJ/mol
# Density = 2.134771 g / cm^3
# Si number density = 21.396409 Si / 1000 Ang^3
#
#
#
# Elastic Constant Matrix: (Units=GPa)
#
#
# Indices 1 2 3 4 5 6 
#
# 1 47.3931 58.3854 27.2668 0.0000 0.0000 0.0000
# 2 58.3854 47.3931 27.2668 0.0000 0.0000 0.0000
# 3 27.2668 27.2668 106.8079 0.0000 0.0000 0.0000
# 4 0.0000 0.0000 0.0000 44.6925 0.0000 0.0000
# 5 0.0000 0.0000 0.0000 0.0000 44.6925 0.0000
# 6 0.0000 0.0000 0.0000 0.0000 0.0000 26.4809
#
#
#
# Elastic Compliance Matrix: (Units=1/GPa)
#
#
# Indices 1 2 3 4 5 6 
#
# 1 -0.040043 0.050930 -0.002779 0.000000 0.000000 0.000000
# 2 0.050930 -0.040043 -0.002779 0.000000 0.000000 0.000000
# 3 -0.002779 -0.002779 0.010782 0.000000 0.000000 0.000000
# 4 0.000000 0.000000 0.000000 0.022375 0.000000 0.000000
# 5 0.000000 0.000000 0.000000 0.000000 0.022375 0.000000
# 6 0.000000 0.000000 0.000000 0.000000 0.000000 0.037763
#
#
# Mechanical properties :
#
#
# Convention : Reuss Voigt Hill
#
# Bulk Modulus (GPa) = 46.64649 47.49246 47.06947
# Shear Modulus (GPa) = -71.03487 29.08486 -20.97500
#
# Velocity S-wave (km/s) = -5.76815 3.69091 -3.13438
# Velocity P-wave (km/s) = 4.74485 6.35676 2.99122
#
# Compressibility (1/GPa) = 0.02143784
#
# Stress axis : x y z
#
# Youngs Moduli (GPa) = -24.97307 -24.97307 92.75057
#
# Poissons Ratio (x) = 1.27187 0.25777
# Poissons Ratio (y) = 1.27187 0.25777
# Poissons Ratio (z) = -0.06941 -0.06941
#
# Static dielectric constant tensor:
#      x y z
#    x 3.775740 0.000000 0.000000 
#    y 0.000000 3.775740 0.000000 
#    z 0.000000 0.000000 3.854400 
# 
# 
# High freq. dielectric constant tensor:
#      x y z
#    x 1.833380 0.000000 0.000000 
#    y 0.000000 1.833380 0.000000 
#    z 0.000000 0.000000 1.824520 
# 
# From -- ./inp_files/7255.got.cif
#   From: 2010.03.12/outbox.cif.g09.slc.cpg/sg142_4_cif.got.tgz:7255.got - 2010.04.03 13:27:16.
