data_PCOD8321985
_publ_section_title
;
Structure prediction by ZEFSAII (Michael W. Deem and Ramdas Pophale) SiO2 
 PCOD8321985
Probable space group: P 31 1 2
;
_chemical_formula_sum "Si O2"
_cell_formula_units_Z 36
_cell_length_a 11.405460
_cell_length_b 11.405460
_cell_length_c 17.311580
_cell_angle_alpha 90.000000
_cell_angle_beta 90.000000
_cell_angle_gamma 120.000000
_cell_volume 1950.261961
_symmetry_space_group_name_H-M "P 31 1 2"
_symmetry_group_IT_number 151
_symmetry_cell_setting 'hexagonal'
loop_
_space_group_symop_operation_xyz
x,y,z
-y,x-y,1/3+z
-x+y,-x,2/3+z
-y,-x,2/3-z
-x+y,y,1/3-z
x,x-y,-z
loop_
_atom_site_type_symbol
_atom_site_label
_atom_site_fract_x
_atom_site_fract_y
_atom_site_fract_z
Si Si1 0.138649 0.583541 0.335375
Si Si2 0.059556 0.875725 0.206699
Si Si3 0.954733 0.702966 0.353079
Si Si4 0.117283 0.501743 0.166021
Si Si5 0.589953 0.827420 0.745609
Si Si6 0.653122 0.060370 0.630405
O O1 0.290054 0.709947 0.333334
O O2 0.080924 0.529847 0.250354
O O3 0.136192 0.460340 0.381952
O O4 0.039406 0.628645 0.374949
O O5 0.136371 0.840882 0.141744
O O6 0.958713 0.917426 0.166667
O O7 0.978847 0.747475 0.263266
O O8 0.168943 0.000751 0.257366
O O9 0.797389 0.602034 0.365991
O O10 0.226783 0.453565 0.166667
O O11 0.176735 0.635319 0.113967
O O12 0.981999 0.384194 0.125704
O O13 0.650666 0.935734 0.676267
O O14 0.551282 0.102563 0.666667
#
# Coordination Sequence:
#
# PCOD8321985 Si02
#       6
#     6   6   6   6   6   6
#     4  12  20  34  62  94 121 152 200 265 315 364
#     4  11  22  38  61  88 117 164 206 249 299 376
#     4  11  23  39  61  88 119 163 209 250 312 370
#     4  11  19  32  57  94 120 147 191 255 311 351
#     4  11  20  34  61  90 119 149 203 258 308 360
#     4  10  22  39  61  85 117 162 204 247 308 382
#
# _framework density 18.459059
#
# number of rings (size 3 to 8) (size 9 to 14) (size 15 to 20)
#    0.000    1.000    8.333    0.500    0.000    0.667 
#    0.000    0.000    7.333    0.000    0.000    0.000 
#    0.000    0.000    0.000    0.000    0.000    0.000 
#
# Total GULP energy -446507.911098 kJ/mol
# GULP energy per Si atom -12402.997531 kJ/mol
# Density = 1.841705 g / cm^3
# Si number density = 18.459059 Si / 1000 Ang^3
#
#
#
# Elastic Constant Matrix: (Units=GPa)
#
#
# Indices 1 2 3 4 5 6 
#
# 1 98.6389 49.4346 41.2077 0.0000 -0.3296 0.0000
# 2 49.4346 98.6389 41.2077 0.0000 0.3296 0.0000
# 3 41.2077 41.2077 111.5510 0.0000 0.0000 0.0000
# 4 0.0000 0.0000 0.0000 23.1010 0.0000 0.3296
# 5 -0.3296 0.3296 0.0000 0.0000 23.1010 0.0000
# 6 0.0000 0.0000 0.0000 0.3296 0.0000 24.6022
#
#
#
# Elastic Compliance Matrix: (Units=1/GPa)
#
#
# Indices 1 2 3 4 5 6 
#
# 1 0.014414 -0.005913 -0.003140 0.000000 0.000290 0.000000
# 2 -0.005913 0.014414 -0.003140 0.000000 -0.000290 0.000000
# 3 -0.003140 -0.003140 0.011285 0.000000 0.000000 0.000000
# 4 0.000000 0.000000 0.000000 0.043296 0.000000 -0.000580
# 5 0.000290 -0.000290 0.000000 0.000000 0.043296 0.000000
# 6 0.000000 0.000000 0.000000 -0.000580 0.000000 0.040655
#
#
# Mechanical properties :
#
#
# Convention : Reuss Voigt Hill
#
# Bulk Modulus (GPa) = 63.59068 63.61432 63.60250
# Shear Modulus (GPa) = 25.38193 25.95941 25.67067
#
# Velocity S-wave (km/s) = 3.71217 3.75417 3.73323
# Velocity P-wave (km/s) = 7.27310 7.30266 7.28790
#
# Compressibility (1/GPa) = 0.01572557
#
# Stress axis : x y z
#
# Youngs Moduli (GPa) = 69.37546 69.37546 88.61539
#
# Poissons Ratio (x) = 0.41022 0.27829
# Poissons Ratio (y) = 0.41022 0.27829
# Poissons Ratio (z) = 0.21787 0.21787
#
# Static dielectric constant tensor:
#      x y z
#    x 3.216790 0.000000 0.000000 
#    y 0.000000 3.216790 0.000000 
#    z 0.000000 0.000000 3.621270 
# 
# 
# High freq. dielectric constant tensor:
#      x y z
#    x 1.697390 0.000000 0.000000 
#    y 0.000000 1.697390 0.000000 
#    z 0.000000 0.000000 1.727530 
# 
# From -- ./inp_files/3428.got.cif
#   From: 2010.03.12/outbox.cif.g09.slc.cpg/sg151_2_cif.got.tgz:3428.got - 2010.04.03 13:42:29.
