data_PCOD8321029
_publ_section_title
;
Structure prediction by ZEFSAII (Michael W. Deem and Ramdas Pophale) SiO2 
 PCOD8321029
Probable space group: I 41/A C D
;
_chemical_formula_sum "Si O2"
_cell_formula_units_Z 128
_cell_length_a 16.415764
_cell_length_b 16.415764
_cell_length_c 25.615148
_cell_angle_alpha 90.000000
_cell_angle_beta 90.000000
_cell_angle_gamma 90.000000
_cell_volume 6902.701119
_symmetry_space_group_name_H-M "I 41/A C D"
_symmetry_group_IT_number 142
_space_group.IT_coordinate_system_code '2'
_symmetry_cell_setting 'tetragonal'
loop_
_space_group_symop_operation_xyz
x,y,z
1/4-y,3/4+x,1/4+z
-x,1/2-y,z
1/4+y,1/4-x,3/4+z
x,-y,1/2-z
1/2-x,y,-z
3/4+y,1/4+x,1/4-z
1/4-y,1/4-x,1/4-z
-x,-y,-z
3/4+y,1/4-x,3/4-z
x,1/2+y,-z
3/4-y,3/4+x,1/4-z
-x,y,1/2+z
1/2+x,-y,z
1/4-y,3/4-x,3/4+z
3/4+y,3/4+x,3/4+z
1/2+x,1/2+y,1/2+z
3/4-y,1/4+x,3/4+z
1/2-x,-y,1/2+z
3/4+y,3/4-x,1/4+z
1/2+x,1/2-y,-z
-x,1/2+y,1/2-z
1/4+y,3/4+x,3/4-z
3/4-y,3/4-x,3/4-z
1/2-x,1/2-y,1/2-z
1/4+y,3/4-x,1/4-z
1/2+x,y,1/2-z
1/4-y,1/4+x,3/4-z
1/2-x,1/2+y,z
x,1/2-y,1/2+z
3/4-y,1/4-x,1/4+z
1/4+y,1/4+x,1/4+z
loop_
_atom_site_type_symbol
_atom_site_label
_atom_site_fract_x
_atom_site_fract_y
_atom_site_fract_z
Si Si1 0.961430 0.504092 0.943947
Si Si2 0.085273 0.213218 0.181143
Si Si3 0.839309 0.383604 0.979272
Si Si4 0.872324 0.774923 0.115728
O O1 0.871310 0.463995 0.947950
O O2 0.962767 0.598808 0.926546
O O3 0.018349 0.454054 0.904140
O O4 0.000000 0.500000 0.000000
O O5 0.078290 0.171711 0.125000
O O6 0.114627 0.146253 0.221812
O O7 0.000000 0.250000 0.200280
O O8 0.841113 0.306739 0.940240
O O9 0.750000 0.402267 0.000000
O O10 0.913699 0.686786 0.107542
#
# Coordination Sequence:
#
# PCOD8321029 Si02
#       4
#    32  32  32  32
#     4   9  19  34  56  79 111 145 188 228 295 335
#     4  10  21  36  59  77 112 153 193 227 283 352
#     4  10  20  34  57  83 116 146 190 236 295 337
#     4   9  18  31  56  85 111 145 195 243 283 344
#
# _framework density 18.543465999999999
#
# number of rings (size 3 to 8) (size 9 to 14) (size 15 to 20)
#    0.000    2.500    0.000    1.500   10.500    0.000 
#    0.000    1.250   49.500    0.000    0.000    0.000 
#    0.000    0.000    0.000    0.000    0.000    0.000 
#
# Total GULP energy -793262.433672 kJ/mol
# GULP energy per Si atom -12394.725526 kJ/mol
# Density = 1.850126 g / cm^3
# Si number density = 18.543466 Si / 1000 Ang^3
#
#
#
# Elastic Constant Matrix: (Units=GPa)
#
#
# Indices 1 2 3 4 5 6 
#
# 1 131.1107 58.5097 40.4898 0.0000 0.0000 0.0000
# 2 58.5097 131.1109 40.4897 0.0000 0.0000 0.0000
# 3 40.4898 40.4897 89.9397 0.0000 0.0000 0.0000
# 4 0.0000 0.0000 0.0000 31.4135 0.0000 0.0000
# 5 0.0000 0.0000 0.0000 0.0000 31.4137 0.0000
# 6 0.0000 0.0000 0.0000 0.0000 0.0000 18.4901
#
#
#
# Elastic Compliance Matrix: (Units=1/GPa)
#
#
# Indices 1 2 3 4 5 6 
#
# 1 0.010151 -0.003622 -0.002939 0.000000 0.000000 0.000000
# 2 -0.003622 0.010151 -0.002939 0.000000 0.000000 0.000000
# 3 -0.002939 -0.002939 0.013765 0.000000 0.000000 0.000000
# 4 0.000000 0.000000 0.000000 0.031833 0.000000 0.000000
# 5 0.000000 0.000000 0.000000 0.000000 0.031833 0.000000
# 6 0.000000 0.000000 0.000000 0.000000 0.000000 0.054083
#
#
# Mechanical properties :
#
#
# Convention : Reuss Voigt Hill
#
# Bulk Modulus (GPa) = 66.37521 70.12663 68.25092
# Shear Modulus (GPa) = 28.43471 30.44159 29.43815
#
# Velocity S-wave (km/s) = 3.92012 4.05610 3.98869
# Velocity P-wave (km/s) = 7.50746 7.73534 7.62225
#
# Compressibility (1/GPa) = 0.01506587
#
# Stress axis : x y z
#
# Youngs Moduli (GPa) = 98.50828 98.50851 72.64811
#
# Poissons Ratio (x) = 0.35685 0.21353
# Poissons Ratio (y) = 0.35685 0.21353
# Poissons Ratio (z) = 0.28954 0.28954
#
# Static dielectric constant tensor:
#      x y z
#    x 4.422860 0.000000 0.000000 
#    y 0.000000 4.422640 0.000000 
#    z 0.000000 0.000000 3.482610 
# 
# 
# High freq. dielectric constant tensor:
#      x y z
#    x 1.711170 0.000000 0.000000 
#    y 0.000000 1.711170 0.000000 
#    z 0.000000 0.000000 1.730710 
# 
# From -- ./inp_files/9955.got.cif
#   From: 2010.03.12/outbox.cif.g09.slc.cpg/sg142_5_cif.got.tgz:9955.got - 2010.04.03 13:27:16.
