data_PCOD8321140
_publ_section_title
;
Structure prediction by ZEFSAII (Michael W. Deem and Ramdas Pophale) SiO2 
 PCOD8321140
Probable space group: I 41/A C D
;
_chemical_formula_sum "Si O2"
_cell_formula_units_Z 80
_cell_length_a 19.826331
_cell_length_b 19.826331
_cell_length_c 8.701971
_cell_angle_alpha 90.000000
_cell_angle_beta 90.000000
_cell_angle_gamma 90.000000
_cell_volume 3420.600355
_symmetry_space_group_name_H-M "I 41/A C D"
_symmetry_group_IT_number 142
_space_group.IT_coordinate_system_code '2'
_symmetry_cell_setting 'tetragonal'
loop_
_space_group_symop_operation_xyz
x,y,z
1/4-y,3/4+x,1/4+z
-x,1/2-y,z
1/4+y,1/4-x,3/4+z
x,-y,1/2-z
1/2-x,y,-z
3/4+y,1/4+x,1/4-z
1/4-y,1/4-x,1/4-z
-x,-y,-z
3/4+y,1/4-x,3/4-z
x,1/2+y,-z
3/4-y,3/4+x,1/4-z
-x,y,1/2+z
1/2+x,-y,z
1/4-y,3/4-x,3/4+z
3/4+y,3/4+x,3/4+z
1/2+x,1/2+y,1/2+z
3/4-y,1/4+x,3/4+z
1/2-x,-y,1/2+z
3/4+y,3/4-x,1/4+z
1/2+x,1/2-y,-z
-x,1/2+y,1/2-z
1/4+y,3/4+x,3/4-z
3/4-y,3/4-x,3/4-z
1/2-x,1/2-y,1/2-z
1/4+y,3/4-x,1/4-z
1/2+x,y,1/2-z
1/4-y,1/4+x,3/4-z
1/2-x,1/2+y,z
x,1/2-y,1/2+z
3/4-y,1/4-x,1/4+z
1/4+y,1/4+x,1/4+z
loop_
_atom_site_type_symbol
_atom_site_label
_atom_site_fract_x
_atom_site_fract_y
_atom_site_fract_z
Si Si1 0.923784 0.500000 0.250000
Si Si2 0.616241 0.611769 0.960004
Si Si3 0.366057 0.785869 0.711754
O O1 0.876553 0.543017 0.136319
O O2 0.969143 0.550551 0.351587
O O3 0.652049 0.671819 0.865411
O O4 0.650848 0.599153 0.125000
O O5 0.538916 0.635011 0.987343
O O6 0.428581 0.821420 0.625000
#
# Coordination Sequence:
#
# PCOD8321140 Si02
#       3
#    16  32  32
#     4  10  22  40  58  86 122 160 204 238 284 360
#     4  11  22  37  62  91 120 157 195 245 299 349
#     4  10  22  38  60  91 124 156 192 240 297 355
#
# _framework density 23.387706999999999
#
# number of rings (size 3 to 8) (size 9 to 14) (size 15 to 20)
#    0.000    1.600    0.000    6.000    0.000    6.400 
#    0.000    0.000    0.000   64.800    0.000    2.800 
#    0.000    0.000    0.000    0.000    0.000    0.000 
#
# Total GULP energy -495953.711614 kJ/mol
# GULP energy per Si atom -12398.842790 kJ/mol
# Density = 2.333448 g / cm^3
# Si number density = 23.387707 Si / 1000 Ang^3
#
#
#
# Elastic Constant Matrix: (Units=GPa)
#
#
# Indices 1 2 3 4 5 6 
#
# 1 84.4573 27.7166 44.6195 0.0000 0.0000 0.0000
# 2 27.7166 84.4573 44.6189 0.0000 0.0000 0.0000
# 3 44.6195 44.6189 188.3051 0.0000 0.0000 0.0000
# 4 0.0000 0.0000 0.0000 40.7329 0.0000 0.0000
# 5 0.0000 0.0000 0.0000 0.0000 40.7320 0.0000
# 6 0.0000 0.0000 0.0000 0.0000 0.0000 6.9479
#
#
#
# Elastic Compliance Matrix: (Units=1/GPa)
#
#
# Indices 1 2 3 4 5 6 
#
# 1 0.014305 -0.003319 -0.002603 0.000000 0.000000 0.000000
# 2 -0.003319 0.014305 -0.002603 0.000000 0.000000 0.000000
# 3 -0.002603 -0.002603 0.006544 0.000000 0.000000 0.000000
# 4 0.000000 0.000000 0.000000 0.024550 0.000000 0.000000
# 5 0.000000 0.000000 0.000000 0.000000 0.024551 0.000000
# 6 0.000000 0.000000 0.000000 0.000000 0.000000 0.143929
#
#
# Mechanical properties :
#
#
# Convention : Reuss Voigt Hill
#
# Bulk Modulus (GPa) = 55.23937 65.68110 60.46023
# Shear Modulus (GPa) = 19.89903 33.70020 26.79962
#
# Velocity S-wave (km/s) = 2.92007 3.80009 3.38876
# Velocity P-wave (km/s) = 5.91940 6.88468 6.42021
#
# Compressibility (1/GPa) = 0.01810303
#
# Stress axis : x y z
#
# Youngs Moduli (GPa) = 69.90652 69.90677 152.80889
#
# Poissons Ratio (x) = 0.23204 0.39777
# Poissons Ratio (y) = 0.23204 0.39776
# Poissons Ratio (z) = 0.18197 0.18197
#
# Static dielectric constant tensor:
#      x y z
#    x 3.925570 0.000000 0.000000 
#    y 0.000000 3.925580 0.000000 
#    z 0.000000 0.000000 5.075680 
# 
# 
# High freq. dielectric constant tensor:
#      x y z
#    x 1.894960 0.000000 0.000000 
#    y 0.000000 1.894960 0.000000 
#    z 0.000000 0.000000 1.967400 
# 
# From -- ./inp_files/1482.got.cif
#   From: 2010.03.12/outbox.cif.g09.slc.cpg/sg142_1_cif.got.tgz:1482.got - 2010.04.03 13:27:16.
