data_PCOD8321913
_publ_section_title
;
Structure prediction by ZEFSAII (Michael W. Deem and Ramdas Pophale) SiO2 
 PCOD8321913
Probable space group: P 3 2 1
;
_chemical_formula_sum "Si O2"
_cell_formula_units_Z 18
_cell_length_a 8.671537
_cell_length_b 8.671537
_cell_length_c 13.740151
_cell_angle_alpha 90.000000
_cell_angle_beta 90.000000
_cell_angle_gamma 120.000000
_cell_volume 894.775945
_symmetry_space_group_name_H-M "P 3 2 1"
_symmetry_group_IT_number 150
_symmetry_cell_setting 'hexagonal'
loop_
_space_group_symop_operation_xyz
x,y,z
-y,x-y,z
-x+y,-x,z
x-y,-y,-z
-x,-x+y,-z
y,x,-z
loop_
_atom_site_type_symbol
_atom_site_label
_atom_site_fract_x
_atom_site_fract_y
_atom_site_fract_z
Si Si1 0.000637 0.664848 0.114888
Si Si2 0.197620 0.999533 0.607026
Si Si3 0.667183 0.668023 0.808281
O O1 0.942184 0.473896 0.161495
O O2 0.861102 0.724516 0.148044
O O3 0.197372 0.806968 0.149960
O O4 0.000000 0.647571 0.000000
O O5 0.174683 0.174287 0.617228
O O6 0.277787 0.000000 0.500000
O O7 0.326195 0.999827 0.690681
#
# Coordination Sequence:
#
# PCOD8321913 Si02
#       3
#     6   6   6
#     4  12  24  39  61  87 126 166 213 257 305 367
#     4   8  15  35  66  94 120 157 199 250 312 370
#     4  12  23  42  61  93 122 167 208 255 315 361
#
# _framework density 20.116766999999999
#
# number of rings (size 3 to 8) (size 9 to 14) (size 15 to 20)
#    0.667    0.667    3.333    5.000    0.000    0.000 
#    0.000    3.333    0.000    0.000    0.000    0.000 
#    0.000    0.000    0.000    0.000    0.000    0.000 
#
# Total GULP energy -223193.442430 kJ/mol
# GULP energy per Si atom -12399.635691 kJ/mol
# Density = 2.007098 g / cm^3
# Si number density = 20.116767 Si / 1000 Ang^3
#
#
#
# Elastic Constant Matrix: (Units=GPa)
#
#
# Indices 1 2 3 4 5 6 
#
# 1 65.5458 9.2680 40.9217 0.4104 0.0000 0.0000
# 2 9.2680 65.5458 40.9217 -0.4104 0.0000 0.0000
# 3 40.9217 40.9217 226.6479 0.0000 0.0000 0.0000
# 4 0.4104 -0.4104 0.0000 27.6136 0.0000 0.0000
# 5 0.0000 0.0000 0.0000 0.0000 27.6136 0.4104
# 6 0.0000 0.0000 0.0000 0.0000 0.4104 28.1389
#
#
#
# Elastic Compliance Matrix: (Units=1/GPa)
#
#
# Indices 1 2 3 4 5 6 
#
# 1 0.017215 -0.000558 -0.003007 -0.000264 0.000000 0.000000
# 2 -0.000558 0.017215 -0.003007 0.000264 0.000000 0.000000
# 3 -0.003007 -0.003007 0.005498 0.000000 0.000000 0.000000
# 4 -0.000264 0.000264 0.000000 0.036222 0.000000 0.000000
# 5 0.000000 0.000000 0.000000 0.000000 0.036222 -0.000528
# 6 0.000000 0.000000 0.000000 0.000000 -0.000528 0.035546
#
#
# Mechanical properties :
#
#
# Convention : Reuss Voigt Hill
#
# Bulk Modulus (GPa) = 37.33912 59.99580 48.66746
# Shear Modulus (GPa) = 29.41351 34.44843 31.93097
#
# Velocity S-wave (km/s) = 3.82794 4.14263 3.98839
# Velocity P-wave (km/s) = 6.17568 7.26432 6.74201
#
# Compressibility (1/GPa) = 0.02678156
#
# Stress axis : x y z
#
# Youngs Moduli (GPa) = 58.09013 58.09013 181.88128
#
# Poissons Ratio (x) = 0.03243 0.54698
# Poissons Ratio (y) = 0.03243 0.54698
# Poissons Ratio (z) = 0.17470 0.17470
#
# Static dielectric constant tensor:
#      x y z
#    x 3.344650 0.000000 0.000000 
#    y 0.000000 3.344650 0.000000 
#    z 0.000000 0.000000 3.685280 
# 
# 
# High freq. dielectric constant tensor:
#      x y z
#    x 1.762780 0.000000 0.000000 
#    y 0.000000 1.762780 0.000000 
#    z 0.000000 0.000000 1.806550 
# 
# From -- ./inp_files/847.got.cif
#   From: 2010.03.12/outbox.cif.g09.slc.cpg/sg150_cif.got.tgz:847.got - 2010.04.03 13:41:37.
