data_PCOD8321892
_publ_section_title
;
Structure prediction by ZEFSAII (Michael W. Deem and Ramdas Pophale) SiO2 
 PCOD8321892
Probable space group: P 3 2 1
;
_chemical_formula_sum "Si O2"
_cell_formula_units_Z 42
_cell_length_a 8.629451
_cell_length_b 8.629451
_cell_length_c 30.173138
_cell_angle_alpha 90.000000
_cell_angle_beta 90.000000
_cell_angle_gamma 120.000000
_cell_volume 1945.886230
_symmetry_space_group_name_H-M "P 3 2 1"
_symmetry_group_IT_number 150
_symmetry_cell_setting 'hexagonal'
loop_
_space_group_symop_operation_xyz
x,y,z
-y,x-y,z
-x+y,-x,z
x-y,-y,-z
-x,-x+y,-z
y,x,-z
loop_
_atom_site_type_symbol
_atom_site_label
_atom_site_fract_x
_atom_site_fract_y
_atom_site_fract_z
Si Si1 0.001248 0.345409 0.086538
Si Si2 0.678251 0.002820 0.586234
Si Si3 0.345338 0.999653 0.275844
Si Si4 0.878414 0.359974 0.180965
Si Si5 0.655095 0.653448 0.448547
Si Si6 0.323301 0.322605 0.689334
Si Si7 0.324180 0.323073 0.051654
O O1 0.998089 0.376896 0.138849
O O2 0.198764 0.391162 0.073108
O O3 0.945894 0.471217 0.059570
O O4 0.860907 0.141881 0.074679
O O5 0.610457 0.807923 0.566012
O O6 0.859097 0.141439 0.561381
O O7 0.524357 0.053009 0.578927
O O8 0.721323 0.008542 0.637779
O O9 0.381691 0.005035 0.223640
O O10 0.281527 0.138986 0.288249
O O11 0.192268 0.801331 0.288170
O O12 0.525177 0.052901 0.303239
O O13 0.829755 0.519762 0.180703
O O14 0.611769 0.611769 0.500000
O O15 0.285465 0.285465 0.000000
#
# Coordination Sequence:
#
# PCOD8321892 Si02
#       7
#     6   6   6   6   6   6   6
#     4  12  25  43  72  98 140 180 230 282 335 404
#     4  12  25  43  67  95 136 172 221 279 328 398
#     4  12  25  43  72  98 137 174 219 275 333 408
#     4  10  20  46  72  97 132 177 221 275 343 392
#     4  12  25  44  67  96 130 178 225 274 333 393
#     4  12  24  44  66 103 132 176 219 270 340 399
#     4  12  24  43  66 102 139 184 228 281 339 398
#
# _framework density 21.583994000000001
#
# number of rings (size 3 to 8) (size 9 to 14) (size 15 to 20)
#    0.286    0.000    2.857    7.714    0.000    2.286 
#    0.000    0.000    0.000    0.000    0.000    0.000 
#    0.000    0.000    0.000    0.000    0.000    0.000 
#
# Total GULP energy -521216.344577 kJ/mol
# GULP energy per Si atom -12409.912966 kJ/mol
# Density = 2.153487 g / cm^3
# Si number density = 21.583994 Si / 1000 Ang^3
#
#
#
# Elastic Constant Matrix: (Units=GPa)
#
#
# Indices 1 2 3 4 5 6 
#
# 1 89.1868 13.7300 32.0737 1.7998 0.0000 0.0000
# 2 13.7300 89.1868 32.0737 -1.7998 0.0000 0.0000
# 3 32.0737 32.0737 129.9588 0.0000 0.0000 0.0000
# 4 1.7998 -1.7998 0.0000 22.4978 0.0000 0.0000
# 5 0.0000 0.0000 0.0000 0.0000 22.4978 1.7998
# 6 0.0000 0.0000 0.0000 0.0000 1.7998 37.7284
#
#
#
# Elastic Compliance Matrix: (Units=1/GPa)
#
#
# Indices 1 2 3 4 5 6 
#
# 1 0.012393 -0.000910 -0.002834 -0.001064 0.000000 0.000000
# 2 -0.000910 0.012393 -0.002834 0.001064 0.000000 0.000000
# 3 -0.002834 -0.002834 0.009094 0.000000 0.000000 0.000000
# 4 -0.001064 0.001064 0.000000 0.044619 0.000000 0.000000
# 5 0.000000 0.000000 0.000000 0.000000 0.044619 -0.002128
# 6 0.000000 0.000000 0.000000 0.000000 -0.002128 0.026607
#
#
# Mechanical properties :
#
#
# Convention : Reuss Voigt Hill
#
# Bulk Modulus (GPa) = 48.25410 51.56524 49.90967
# Shear Modulus (GPa) = 29.44827 31.90844 30.67836
#
# Velocity S-wave (km/s) = 3.69773 3.84909 3.77417
# Velocity P-wave (km/s) = 6.37463 6.61032 6.49354
#
# Compressibility (1/GPa) = 0.02072363
#
# Stress axis : x y z
#
# Youngs Moduli (GPa) = 80.68942 80.68942 109.96743
#
# Poissons Ratio (x) = 0.07344 0.31165
# Poissons Ratio (y) = 0.07344 0.31165
# Poissons Ratio (z) = 0.22867 0.22867
#
# Static dielectric constant tensor:
#      x y z
#    x 3.772480 0.000000 0.000000 
#    y 0.000000 3.772480 0.000000 
#    z 0.000000 0.000000 3.883330 
# 
# 
# High freq. dielectric constant tensor:
#      x y z
#    x 1.849200 0.000000 0.000000 
#    y 0.000000 1.849200 0.000000 
#    z 0.000000 0.000000 1.861050 
# 
# From -- ./inp_files/1173.got.cif
#   From: 2010.03.12/outbox.cif.g09.slc.cpg/sg150_cif.got.tgz:1173.got - 2010.04.03 13:41:37.
