data_PCOD8321001
_publ_section_title
;
Structure prediction by ZEFSAII (Michael W. Deem and Ramdas Pophale) SiO2 
 PCOD8321001
Probable space group: I 41/A C D
;
_chemical_formula_sum "Si O2"
_cell_formula_units_Z 176
_cell_length_a 17.565585
_cell_length_b 17.565585
_cell_length_c 29.195461
_cell_angle_alpha 90.000000
_cell_angle_beta 90.000000
_cell_angle_gamma 90.000000
_cell_volume 9008.252963
_symmetry_space_group_name_H-M "I 41/A C D"
_symmetry_group_IT_number 142
_space_group.IT_coordinate_system_code '2'
_symmetry_cell_setting 'tetragonal'
loop_
_space_group_symop_operation_xyz
x,y,z
1/4-y,3/4+x,1/4+z
-x,1/2-y,z
1/4+y,1/4-x,3/4+z
x,-y,1/2-z
1/2-x,y,-z
3/4+y,1/4+x,1/4-z
1/4-y,1/4-x,1/4-z
-x,-y,-z
3/4+y,1/4-x,3/4-z
x,1/2+y,-z
3/4-y,3/4+x,1/4-z
-x,y,1/2+z
1/2+x,-y,z
1/4-y,3/4-x,3/4+z
3/4+y,3/4+x,3/4+z
1/2+x,1/2+y,1/2+z
3/4-y,1/4+x,3/4+z
1/2-x,-y,1/2+z
3/4+y,3/4-x,1/4+z
1/2+x,1/2-y,-z
-x,1/2+y,1/2-z
1/4+y,3/4+x,3/4-z
3/4-y,3/4-x,3/4-z
1/2-x,1/2-y,1/2-z
1/4+y,3/4-x,1/4-z
1/2+x,y,1/2-z
1/4-y,1/4+x,3/4-z
1/2-x,1/2+y,z
x,1/2-y,1/2+z
3/4-y,1/4-x,1/4+z
1/4+y,1/4+x,1/4+z
loop_
_atom_site_type_symbol
_atom_site_label
_atom_site_fract_x
_atom_site_fract_y
_atom_site_fract_z
Si Si1 0.707961 0.727128 0.681003
Si Si2 0.382219 0.526284 0.506305
Si Si3 0.237882 0.243024 0.080478
Si Si4 0.383343 0.575678 0.278513
Si Si5 0.948188 0.674850 0.296582
Si Si6 0.750000 0.855725 0.500000
O O1 0.696663 0.795007 0.716239
O O2 0.756439 0.658646 0.704480
O O3 0.745319 0.759991 0.634602
O O4 0.624225 0.694063 0.671771
O O5 0.341897 0.456011 0.532707
O O6 0.324721 0.595204 0.506751
O O7 0.297738 0.171723 0.075921
O O8 0.148006 0.235483 0.070423
O O9 0.267259 0.308089 0.046073
O O10 0.400742 0.500000 0.250000
O O11 0.422967 0.649370 0.254952
O O12 0.000000 0.750000 0.293317
#
# Coordination Sequence:
#
# PCOD8321001 Si02
#       6
#    32  32  32  32  32  16
#     4  10  23  38  58  87 122 154 198 242 302 352
#     4  10  22  40  59  86 119 159 199 248 292 353
#     4  11  22  38  59  90 118 157 195 244 298 361
#     4   9  18  38  60  80 114 157 191 230 294 355
#     4  10  19  35  59  86 114 150 192 241 291 348
#     4  12  22  36  64  92 118 156 208 248 296 340
#
# _framework density 19.537638999999999
#
# number of rings (size 3 to 8) (size 9 to 14) (size 15 to 20)
#    0.000    1.818    3.636    1.636    0.000    5.091 
#    0.000    0.000    0.000    0.000    0.000    0.000 
#    0.000    0.000    0.000    0.000    0.000    0.000 
#
# Total GULP energy -1090237.880762 kJ/mol
# GULP energy per Si atom -12389.066827 kJ/mol
# Density = 1.949317 g / cm^3
# Si number density = 19.537639 Si / 1000 Ang^3
#
#
#
# Elastic Constant Matrix: (Units=GPa)
#
#
# Indices 1 2 3 4 5 6 
#
# 1 79.0604 26.3260 23.3123 0.0000 0.0000 0.0000
# 2 26.3260 79.0604 23.3123 0.0000 0.0000 0.0000
# 3 23.3123 23.3123 80.8687 0.0000 0.0000 0.0000
# 4 0.0000 0.0000 0.0000 -30.1657 0.0000 0.0000
# 5 0.0000 0.0000 0.0000 0.0000 -30.1657 0.0000
# 6 0.0000 0.0000 0.0000 0.0000 0.0000 25.9139
#
#
#
# Elastic Compliance Matrix: (Units=1/GPa)
#
#
# Indices 1 2 3 4 5 6 
#
# 1 0.014919 -0.004043 -0.003135 0.000000 0.000000 0.000000
# 2 -0.004043 0.014919 -0.003135 0.000000 0.000000 0.000000
# 3 -0.003135 -0.003135 0.014173 0.000000 0.000000 0.000000
# 4 0.000000 0.000000 0.000000 -0.033150 0.000000 0.000000
# 5 0.000000 0.000000 0.000000 0.000000 -0.033150 0.000000
# 6 0.000000 0.000000 0.000000 0.000000 0.000000 0.038589
#
#
# Mechanical properties :
#
#
# Convention : Reuss Voigt Hill
#
# Bulk Modulus (GPa) = 42.76378 42.76564 42.76471
# Shear Modulus (GPa) = 111.79711 4.18576 57.99143
#
# Velocity S-wave (km/s) = 7.57269 1.46528 5.45402
# Velocity P-wave (km/s) = 9.91949 4.97987 7.84842
#
# Compressibility (1/GPa) = 0.02338428
#
# Stress axis : x y z
#
# Youngs Moduli (GPa) = 67.02654 67.02654 70.55503
#
# Poissons Ratio (x) = 0.27102 0.22121
# Poissons Ratio (y) = 0.27102 0.22121
# Poissons Ratio (z) = 0.21015 0.21015
#
# Static dielectric constant tensor:
#      x y z
#    x 3.702250 0.000000 0.000000 
#    y 0.000000 3.702250 0.000000 
#    z 0.000000 0.000000 3.531400 
# 
# 
# High freq. dielectric constant tensor:
#      x y z
#    x 1.765200 0.000000 0.000000 
#    y 0.000000 1.765200 0.000000 
#    z 0.000000 0.000000 1.737140 
# 
# From -- ./inp_files/12544.got.cif
#   From: 2010.03.12/outbox.cif.g09.slc.cpg/sg142_7_cif.got.tgz:12544.got - 2010.04.03 13:27:16.
