data_PCOD8321670
_publ_section_title
;
Structure prediction by ZEFSAII (Michael W. Deem and Ramdas Pophale) SiO2 
 PCOD8321670
Probable space group: P -3
;
_chemical_formula_sum "Si O2"
_cell_formula_units_Z 48
_cell_length_a 18.640757
_cell_length_b 18.640757
_cell_length_c 9.649257
_cell_angle_alpha 90.000000
_cell_angle_beta 90.000000
_cell_angle_gamma 120.000000
_cell_volume 2903.699003
_symmetry_space_group_name_H-M "P -3"
_symmetry_group_IT_number 147
_symmetry_cell_setting 'hexagonal'
loop_
_space_group_symop_operation_xyz
x,y,z
-y,x-y,z
-x+y,-x,z
-x,-y,-z
y,-x+y,-z
x-y,x,-z
loop_
_atom_site_type_symbol
_atom_site_label
_atom_site_fract_x
_atom_site_fract_y
_atom_site_fract_z
Si Si1 0.168594 0.502261 0.159974
Si Si2 0.333668 0.502261 0.159974
Si Si3 0.092363 0.746558 0.340206
Si Si4 0.666332 0.497739 0.159974
Si Si5 0.746558 0.092363 0.340206
Si Si6 0.253442 0.345805 0.659794
Si Si7 0.502261 0.333668 0.159974
Si Si8 0.092363 0.345805 0.340206
O O1 0.262941 0.525883 0.186700
O O2 0.159266 0.579633 0.206642
O O3 0.106166 0.423923 0.250577
O O4 0.144173 0.479840 0.000000
O O5 0.317756 0.423923 0.250577
O O6 0.335667 0.479840 0.000000
O O7 0.103040 0.729970 0.500000
O O8 0.158540 0.841460 0.298874
O O9 0.000000 0.730321 0.311023
O O10 0.682244 0.576077 0.250577
O O11 0.579633 0.420367 0.206642
O O12 0.737059 0.474117 0.186700
O O13 0.841460 0.158540 0.298874
O O14 0.682244 0.106166 0.250577
O O15 0.729970 0.103039 0.500000
O O16 0.269679 0.269679 0.688977
#
# Coordination Sequence:
#
# PCOD8321670 Si02
#       8
#     6   6   6   6   6   6   6   6
#     4   9  17  29  45  65  90 120 152 183 213 246
#     4   9  17  29  45  65  90 120 152 183 213 246
#     4   9  18  32  48  65  86 113 144 178 218 263
#     4   9  17  29  45  65  90 120 152 183 213 246
#     4   9  18  32  48  65  86 113 144 178 218 263
#     4   9  18  32  48  65  86 113 144 178 218 263
#     4   9  17  29  45  65  90 120 152 183 213 246
#     4   9  18  32  48  65  86 113 144 178 218 263
#
# _framework density 16.530638
#
# number of rings (size 3 to 8) (size 9 to 14) (size 15 to 20)
#    0.000    3.000    0.000    0.500    0.000    5.000 
#    0.000    5.000    0.000    3.500    0.000    3.500 
#    0.000    0.000    0.000   12.500    0.000   13.000 
#
# Total GULP energy -595136.486408 kJ/mol
# GULP energy per Si atom -12398.676800 kJ/mol
# Density = 1.649301 g / cm^3
# Si number density = 16.530638 Si / 1000 Ang^3
#
#
#
# Elastic Constant Matrix: (Units=GPa)
#
#
# Indices 1 2 3 4 5 6 
#
# 1 106.3367 73.2443 44.0774 0.0000 0.0000 0.0000
# 2 73.2443 106.3367 44.0774 0.0000 0.0000 0.0000
# 3 44.0774 44.0774 49.4546 0.0000 0.0000 0.0000
# 4 0.0000 0.0000 0.0000 22.9931 0.0000 0.0000
# 5 0.0000 0.0000 0.0000 0.0000 22.9931 0.0000
# 6 0.0000 0.0000 0.0000 0.0000 0.0000 16.5462
#
#
#
# Elastic Compliance Matrix: (Units=1/GPa)
#
#
# Indices 1 2 3 4 5 6 
#
# 1 0.020059 -0.010159 -0.008824 0.000000 0.000000 0.000000
# 2 -0.010159 0.020059 -0.008824 0.000000 0.000000 0.000000
# 3 -0.008824 -0.008824 0.035949 0.000000 0.000000 0.000000
# 4 0.000000 0.000000 0.000000 0.043491 0.000000 0.000000
# 5 0.000000 0.000000 0.000000 0.000000 0.043491 0.000000
# 6 0.000000 0.000000 0.000000 0.000000 0.000000 0.060437
#
#
# Mechanical properties :
#
#
# Convention : Reuss Voigt Hill
#
# Bulk Modulus (GPa) = 48.88863 64.99181 56.94022
# Shear Modulus (GPa) = 17.48755 19.22172 18.35463
#
# Velocity S-wave (km/s) = 3.25605 3.41367 3.33579
# Velocity P-wave (km/s) = 6.61623 7.41208 7.02543
#
# Compressibility (1/GPa) = 0.02045465
#
# Stress axis : x y z
#
# Youngs Moduli (GPa) = 49.85246 49.85246 27.81730
#
# Poissons Ratio (x) = 0.50647 0.24545
# Poissons Ratio (y) = 0.50647 0.24545
# Poissons Ratio (z) = 0.43987 0.43987
#
# Static dielectric constant tensor:
#      x y z
#    x 3.114150 0.000000 0.000000 
#    y 0.000000 3.114150 0.000000 
#    z 0.000000 0.000000 3.155550 
# 
# 
# High freq. dielectric constant tensor:
#      x y z
#    x 1.625830 0.000000 0.000000 
#    y 0.000000 1.625830 0.000000 
#    z 0.000000 0.000000 1.636800 
# 
# From -- ./inp_files/676.got.cif
#   From: 2010.03.12/outbox.cif.g09.slc.cpg/sg147_cif.got.tgz:676.got - 2010.04.03 13:37:56.
