data_PCOD8321344
_publ_section_title
;
Structure prediction by ZEFSAII (Michael W. Deem and Ramdas Pophale) SiO2 
 PCOD8321344
Probable space group: P 31
;
_chemical_formula_sum "Si O2"
_cell_formula_units_Z 18
_cell_length_a 9.204842
_cell_length_b 9.204842
_cell_length_c 13.121871
_cell_angle_alpha 90.000000
_cell_angle_beta 90.000000
_cell_angle_gamma 120.000000
_cell_volume 962.850970
_symmetry_space_group_name_H-M "P 31"
_symmetry_group_IT_number 144
_symmetry_cell_setting 'hexagonal'
loop_
_space_group_symop_operation_xyz
x,y,z
-y,x-y,1/3+z
-x+y,-x,2/3+z
loop_
_atom_site_type_symbol
_atom_site_label
_atom_site_fract_x
_atom_site_fract_y
_atom_site_fract_z
Si Si1 0.139979 0.279958 0.590470
Si Si2 0.675447 0.324557 0.757137
Si Si3 0.995796 0.991590 0.090469
Si Si4 0.570486 0.483663 0.918405
Si Si5 0.913175 0.483663 0.262535
Si Si6 0.866738 0.133263 0.257136
O O1 0.125268 0.164541 0.494136
O O2 0.334827 0.406465 0.615197
O O3 0.039271 0.164540 0.686804
O O4 0.071641 0.406468 0.565745
O O5 0.695633 0.462267 0.841274
O O6 0.852456 0.384174 0.702197
O O7 0.537736 0.304367 0.673000
O O8 0.615833 0.147548 0.812078
O O9 0.958788 0.113110 0.159369
O O10 0.154322 0.113109 0.021569
O O11 0.381120 0.331755 0.897955
O O12 0.950636 0.331756 0.282982
#
# Coordination Sequence:
#
# PCOD8321344 Si02
#       6
#     3   3   3   3   3   3
#     4  11  20  32  54  81 108 138 176 223 266 306
#     4   8  17  32  53  74 102 140 174 202 257 330
#     4  10  21  36  53  76 108 144 176 210 265 326
#     4  10  18  33  55  79 103 135 176 220 259 306
#     4  10  18  33  55  79 103 135 176 220 259 306
#     4   9  20  38  56  75 104 142 178 213 260 322
#
# _framework density 18.694482000000001
#
# number of rings (size 3 to 8) (size 9 to 14) (size 15 to 20)
#    0.000    2.667    0.000    5.000    0.000    0.000 
#    0.000    5.000    0.000   12.000    0.000    4.667 
#    0.000    0.000    0.000    0.000    0.000    0.000 
#
# Total GULP energy -223080.422964 kJ/mol
# GULP energy per Si atom -12393.356831 kJ/mol
# Density = 1.865193 g / cm^3
# Si number density = 18.694482 Si / 1000 Ang^3
#
#
#
# Elastic Constant Matrix: (Units=GPa)
#
#
# Indices 1 2 3 4 5 6 
#
# 1 111.9950 59.8635 34.7288 0.0002 1.4555 0.0000
# 2 59.8635 111.9950 34.7288 -0.0002 -1.4555 0.0000
# 3 34.7288 34.7288 107.2445 0.0000 0.0000 0.0000
# 4 0.0002 -0.0002 0.0000 22.5706 0.0000 -1.4555
# 5 1.4555 -1.4555 0.0000 0.0000 22.5706 0.0002
# 6 0.0000 0.0000 0.0000 -1.4555 0.0002 26.0657
#
#
#
# Elastic Compliance Matrix: (Units=1/GPa)
#
#
# Indices 1 2 3 4 5 6 
#
# 1 0.012973 -0.006278 -0.002168 0.000000 -0.001241 0.000000
# 2 -0.006278 0.012973 -0.002168 0.000000 0.001241 0.000000
# 3 -0.002168 -0.002168 0.010729 0.000000 0.000000 0.000000
# 4 0.000000 0.000000 0.000000 0.044465 0.000000 0.002483
# 5 -0.001241 0.001241 0.000000 0.000000 0.044465 0.000000
# 6 0.000000 0.000000 0.000000 0.002483 0.000000 0.038503
#
#
# Mechanical properties :
#
#
# Convention : Reuss Voigt Hill
#
# Bulk Modulus (GPa) = 64.73972 65.54185 65.14078
# Shear Modulus (GPa) = 26.24854 27.70229 26.97542
#
# Velocity S-wave (km/s) = 3.75117 3.85365 3.80275
# Velocity P-wave (km/s) = 7.31213 7.41191 7.36219
#
# Compressibility (1/GPa) = 0.01544647
#
# Stress axis : x y z
#
# Youngs Moduli (GPa) = 77.08151 77.08151 93.20872
#
# Poissons Ratio (x) = 0.48394 0.20208
# Poissons Ratio (y) = 0.48394 0.20208
# Poissons Ratio (z) = 0.16711 0.16711
#
# Static dielectric constant tensor:
#      x y z
#    x 3.213640 0.000000 0.000000 
#    y 0.000000 3.213640 0.000000 
#    z 0.000000 0.000000 3.831140 
# 
# 
# High freq. dielectric constant tensor:
#      x y z
#    x 1.703310 0.000000 0.000000 
#    y 0.000000 1.703310 0.000000 
#    z 0.000000 0.000000 1.748200 
# 
# From -- ./inp_files/571.got.cif
#   From: 2010.03.12/outbox.cif.g09.slc.cpg/sg144_cif.got.tgz:571.got - 2010.04.03 13:34:42.
