data_PCOD8321762
_publ_section_title
;
Structure prediction by ZEFSAII (Michael W. Deem and Ramdas Pophale) SiO2 
 PCOD8321762
Probable space group: R -3
;
_chemical_formula_sum "Si O2"
_cell_formula_units_Z 108
_cell_length_a 16.423113
_cell_length_b 16.423113
_cell_length_c 21.331608
_cell_angle_alpha 90.000000
_cell_angle_beta 90.000000
_cell_angle_gamma 120.000000
_cell_volume 4982.705144
_symmetry_space_group_name_H-M "R -3"
_symmetry_group_IT_number 148
_symmetry_cell_setting 'hexagonal'
loop_
_space_group_symop_operation_xyz
x,y,z
-y,x-y,z
-x+y,-x,z
-x,-y,-z
y,-x+y,-z
x-y,x,-z
2/3+x,1/3+y,1/3+z
2/3-y,1/3+x-y,1/3+z
2/3-x+y,1/3-x,1/3+z
2/3-x,1/3-y,1/3-z
2/3+y,1/3-x+y,1/3-z
2/3+x-y,1/3+x,1/3-z
1/3+x,2/3+y,2/3+z
1/3-y,2/3+x-y,2/3+z
1/3-x+y,2/3-x,2/3+z
1/3-x,2/3-y,2/3-z
1/3+y,2/3-x+y,2/3-z
1/3+x-y,2/3+x,2/3-z
loop_
_atom_site_type_symbol
_atom_site_label
_atom_site_fract_x
_atom_site_fract_y
_atom_site_fract_z
Si Si1 0.881438 0.062732 0.468165
Si Si2 0.053995 0.841154 0.360563
Si Si3 0.223579 0.919455 0.939232
Si Si4 0.671535 0.950133 0.947616
Si Si5 0.950873 0.393592 0.167591
Si Si6 0.512721 0.595626 0.920604
O O1 0.811113 0.103196 0.465602
O O2 0.989530 0.141958 0.473684
O O3 0.875587 0.006226 0.404904
O O4 0.126324 0.928452 0.318037
O O5 0.110653 0.806692 0.405016
O O6 0.981713 0.758368 0.316777
O O7 0.118407 0.832505 0.938039
O O8 0.297225 0.890399 0.909417
O O9 0.222010 0.994681 0.891459
O O10 0.256073 0.960334 0.010001
O O11 0.644190 0.979628 0.881519
O O12 0.891127 0.438092 0.136156
#
# Coordination Sequence:
#
# PCOD8321762 Si02
#       6
#    18  18  18  18  18  18
#     4  12  23  34  53  86 122 157 191 233 292 352
#     4   9  18  35  52  84 112 156 187 231 293 339
#     4  11  22  39  60  94 116 154 201 249 307 352
#     4  10  23  35  60  87 120 148 200 254 291 360
#     4  11  20  38  58  84 118 160 201 244 293 347
#     4   9  18  35  59  79 115 153 193 244 285 350
#
# _framework density 21.674973999999999
#
# number of rings (size 3 to 8) (size 9 to 14) (size 15 to 20)
#    0.000    1.667    5.000    1.667    2.333    1.333 
#    0.000    0.000    0.000    5.667    0.000    7.000 
#    0.000    0.000    0.000    0.000    0.000    0.000 
#
# Total GULP energy -446212.759395 kJ/mol
# GULP energy per Si atom -12394.798872 kJ/mol
# Density = 2.162564 g / cm^3
# Si number density = 21.674974 Si / 1000 Ang^3
#
#
#
# Elastic Constant Matrix: (Units=GPa)
#
#
# Indices 1 2 3 4 5 6 
#
# 1 49.1113 9.1304 -7.0022 1.3188 -2.9452 0.0000
# 2 9.1304 49.1113 -7.0022 -1.3188 2.9452 0.0000
# 3 -7.0022 -7.0022 51.0597 0.0000 0.0000 0.0000
# 4 1.3188 -1.3188 0.0000 28.7775 0.0000 2.9452
# 5 -2.9452 2.9452 0.0000 0.0000 28.7775 1.3188
# 6 0.0000 0.0000 0.0000 2.9452 1.3188 19.9904
#
#
#
# Elastic Compliance Matrix: (Units=1/GPa)
#
#
# Indices 1 2 3 4 5 6 
#
# 1 0.021614 -0.003859 0.002435 -0.001167 0.002607 0.000000
# 2 -0.003859 0.021614 0.002435 0.001167 -0.002607 0.000000
# 3 0.002435 0.002435 0.020253 0.000000 0.000000 0.000000
# 4 -0.001167 0.001167 0.000000 0.035390 0.000000 -0.005214
# 5 0.002607 -0.002607 0.000000 0.000000 0.035390 -0.002335
# 6 0.000000 0.000000 0.000000 -0.005214 -0.002335 0.050946
#
#
# Mechanical properties :
#
#
# Convention : Reuss Voigt Hill
#
# Bulk Modulus (GPa) = 15.26648 15.50383 15.38516
# Shear Modulus (GPa) = 24.38788 25.78615 25.08702
#
# Velocity S-wave (km/s) = 3.35798 3.45291 3.40578
# Velocity P-wave (km/s) = 4.70036 4.80262 4.75177
#
# Compressibility (1/GPa) = 0.06550297
#
# Stress axis : x y z
#
# Youngs Moduli (GPa) = 46.26591 46.26591 49.37603
#
# Poissons Ratio (x) = 0.17854 -0.12023
# Poissons Ratio (y) = 0.17854 -0.12023
# Poissons Ratio (z) = -0.11265 -0.11265
#
# Static dielectric constant tensor:
#      x y z
#    x 3.671970 0.000000 0.000000 
#    y 0.000000 3.671970 0.000000 
#    z 0.000000 0.000000 4.240170 
# 
# 
# High freq. dielectric constant tensor:
#      x y z
#    x 1.820300 0.000000 0.000000 
#    y 0.000000 1.820300 0.000000 
#    z 0.000000 0.000000 1.861430 
# 
# From -- ./inp_files/3109.got.cif
#   From: 2010.03.12/outbox.cif.g09.slc.cpg/sg148_2_cif.got.tgz:3109.got - 2010.04.03 13:38:46.
