data_PCOD8321023
_publ_section_title
;
Structure prediction by ZEFSAII (Michael W. Deem and Ramdas Pophale) SiO2 
 PCOD8321023
Probable space group: I 41/A C D
;
_chemical_formula_sum "Si O2"
_cell_formula_units_Z 112
_cell_length_a 30.933659
_cell_length_b 30.933659
_cell_length_c 5.259856
_cell_angle_alpha 90.000000
_cell_angle_beta 90.000000
_cell_angle_gamma 90.000000
_cell_volume 5033.110231
_symmetry_space_group_name_H-M "I 41/A C D"
_symmetry_group_IT_number 142
_space_group.IT_coordinate_system_code '2'
_symmetry_cell_setting 'tetragonal'
loop_
_space_group_symop_operation_xyz
x,y,z
1/4-y,3/4+x,1/4+z
-x,1/2-y,z
1/4+y,1/4-x,3/4+z
x,-y,1/2-z
1/2-x,y,-z
3/4+y,1/4+x,1/4-z
1/4-y,1/4-x,1/4-z
-x,-y,-z
3/4+y,1/4-x,3/4-z
x,1/2+y,-z
3/4-y,3/4+x,1/4-z
-x,y,1/2+z
1/2+x,-y,z
1/4-y,3/4-x,3/4+z
3/4+y,3/4+x,3/4+z
1/2+x,1/2+y,1/2+z
3/4-y,1/4+x,3/4+z
1/2-x,-y,1/2+z
3/4+y,3/4-x,1/4+z
1/2+x,1/2-y,-z
-x,1/2+y,1/2-z
1/4+y,3/4+x,3/4-z
3/4-y,3/4-x,3/4-z
1/2-x,1/2-y,1/2-z
1/4+y,3/4-x,1/4-z
1/2+x,y,1/2-z
1/4-y,1/4+x,3/4-z
1/2-x,1/2+y,z
x,1/2-y,1/2+z
3/4-y,1/4-x,1/4+z
1/4+y,1/4+x,1/4+z
loop_
_atom_site_type_symbol
_atom_site_label
_atom_site_fract_x
_atom_site_fract_y
_atom_site_fract_z
Si Si1 0.618805 0.338757 0.628728
Si Si2 0.409631 0.500000 0.250000
Si Si3 0.339737 0.567557 0.374931
Si Si4 0.472290 0.446941 0.572869
O O1 0.588858 0.338858 0.375000
O O2 0.647966 0.381743 0.626317
O O3 0.648812 0.296832 0.661151
O O4 0.587949 0.337949 0.875000
O O5 0.381717 0.537742 0.378333
O O6 0.436070 0.481437 0.490025
O O7 0.310269 0.560269 0.625000
O O8 0.309895 0.559895 0.125000
O O9 0.490978 0.454335 0.856048
#
# Coordination Sequence:
#
# PCOD8321023 Si02
#       4
#    32  16  32  32
#     4  10  19  41  63  84 126 187 223 256 310 409
#     4  12  24  44  68  98 140 182 222 280 356 416
#     4  10  22  39  65  88 119 182 236 267 318 406
#     4  12  26  40  63 105 145 171 212 277 351 415
#
# _framework density 22.25264
#
# number of rings (size 3 to 8) (size 9 to 14) (size 15 to 20)
#    0.000    1.143    5.714    2.571    4.000    3.429 
#    0.000    0.000    0.000    1.714    0.000    0.000 
#    0.000   40.000    0.000    0.000    0.000    0.000 
#
# Total GULP energy -693808.146361 kJ/mol
# GULP energy per Si atom -12389.431185 kJ/mol
# Density = 2.220199 g / cm^3
# Si number density = 22.252640 Si / 1000 Ang^3
#
#
#
# Elastic Constant Matrix: (Units=GPa)
#
#
# Indices 1 2 3 4 5 6 
#
# 1 49.2406 59.4874 38.5179 0.0000 0.0000 0.0000
# 2 59.4874 49.2406 38.5179 0.0000 0.0000 0.0000
# 3 38.5179 38.5179 219.4855 0.0000 0.0000 0.0000
# 4 0.0000 0.0000 0.0000 24.2504 0.0000 0.0000
# 5 0.0000 0.0000 0.0000 0.0000 24.2504 0.0000
# 6 0.0000 0.0000 0.0000 0.0000 0.0000 54.4630
#
#
#
# Elastic Compliance Matrix: (Units=1/GPa)
#
#
# Indices 1 2 3 4 5 6 
#
# 1 -0.043544 0.054047 -0.001843 0.000000 0.000000 0.000000
# 2 0.054047 -0.043544 -0.001843 0.000000 0.000000 0.000000
# 3 -0.001843 -0.001843 0.005203 0.000000 0.000000 0.000000
# 4 0.000000 0.000000 0.000000 0.041237 0.000000 0.000000
# 5 0.000000 0.000000 0.000000 0.000000 0.041237 0.000000
# 6 0.000000 0.000000 0.000000 0.000000 0.000000 0.018361
#
#
# Mechanical properties :
#
#
# Convention : Reuss Voigt Hill
#
# Bulk Modulus (GPa) = 53.08817 65.66813 59.37815
# Shear Modulus (GPa) = -66.23009 32.68897 -16.77056
#
# Velocity S-wave (km/s) = -5.46145 3.83690 -2.74824
# Velocity P-wave (km/s) = 3.98260 7.01452 4.08304
#
# Compressibility (1/GPa) = 0.01883659
#
# Stress axis : x y z
#
# Youngs Moduli (GPa) = -22.96516 -22.96516 192.19475
#
# Poissons Ratio (x) = 1.24121 0.35426
# Poissons Ratio (y) = 1.24121 0.35426
# Poissons Ratio (z) = -0.04233 -0.04233
#
# Static dielectric constant tensor:
#      x y z
#    x 3.781310 0.000000 0.000000 
#    y 0.000000 3.781310 0.000000 
#    z 0.000000 0.000000 7.795050 
# 
# 
# High freq. dielectric constant tensor:
#      x y z
#    x 1.839320 0.000000 0.000000 
#    y 0.000000 1.839320 0.000000 
#    z 0.000000 0.000000 1.918550 
# 
# From -- ./inp_files/722.got.cif
#   From: 2010.03.12/outbox.cif.g09.slc.cpg/sg142_1_cif.got.tgz:722.got - 2010.04.03 13:27:16.
