data_PCOD8321800
_publ_section_title
;
Structure prediction by ZEFSAII (Michael W. Deem and Ramdas Pophale) SiO2 
 PCOD8321800
Probable space group: R -3
;
_chemical_formula_sum "Si O2"
_cell_formula_units_Z 48
_cell_length_a 12.963397
_cell_length_b 12.963397
_cell_length_c 13.912817
_cell_angle_alpha 90.000000
_cell_angle_beta 90.000000
_cell_angle_gamma 120.000000
_cell_volume 2024.805665
_symmetry_space_group_name_H-M "R -3"
_symmetry_group_IT_number 148
_symmetry_cell_setting 'hexagonal'
loop_
_space_group_symop_operation_xyz
x,y,z
-y,x-y,z
-x+y,-x,z
-x,-y,-z
y,-x+y,-z
x-y,x,-z
2/3+x,1/3+y,1/3+z
2/3-y,1/3+x-y,1/3+z
2/3-x+y,1/3-x,1/3+z
2/3-x,1/3-y,1/3-z
2/3+y,1/3-x+y,1/3-z
2/3+x-y,1/3+x,1/3-z
1/3+x,2/3+y,2/3+z
1/3-y,2/3+x-y,2/3+z
1/3-x+y,2/3-x,2/3+z
1/3-x,2/3-y,2/3-z
1/3+y,2/3-x+y,2/3-z
1/3+x-y,2/3+x,2/3-z
loop_
_atom_site_type_symbol
_atom_site_label
_atom_site_fract_x
_atom_site_fract_y
_atom_site_fract_z
Si Si1 0.333333 0.666668 0.778287
Si Si2 0.932993 0.442502 0.655443
Si Si3 0.000000 0.000000 0.386590
Si Si4 0.903954 0.572801 0.197368
O O1 0.333335 0.666668 0.666667
O O2 0.226714 0.541539 0.812550
O O3 0.799308 0.406296 0.679727
O O4 0.946156 0.350023 0.581796
O O5 0.999785 0.456553 0.757074
O O6 0.992670 0.566703 0.598793
O O7 0.000000 0.000000 0.500000
#
# Coordination Sequence:
#
# PCOD8321800 Si02
#       4
#     6  18   6  18
#     4  12  19  44  73 111 136 173 233 296 367 411
#     4  11  25  45  69 106 138 188 235 293 352 418
#     4  12  31  50  64 100 158 202 226 284 355 427
#     4  11  23  42  78 106 136 178 240 300 350 419
#
# _framework density 23.705981000000001
#
# number of rings (size 3 to 8) (size 9 to 14) (size 15 to 20)
#    0.000    0.750    3.750    2.250    5.250    4.500 
#    0.000    0.000    0.000    0.000    0.000    0.000 
#    0.000    0.000    0.000    0.000    0.000    0.000 
#
# Total GULP energy -198308.183464 kJ/mol
# GULP energy per Si atom -12394.261467 kJ/mol
# Density = 2.365202 g / cm^3
# Si number density = 23.705981 Si / 1000 Ang^3
#
#
#
# Elastic Constant Matrix: (Units=GPa)
#
#
# Indices 1 2 3 4 5 6 
#
# 1 100.4322 67.5002 14.5328 2.2225 -7.4588 -0.0004
# 2 67.5002 100.4322 14.5334 -2.2218 7.4585 -0.0005
# 3 14.5328 14.5334 98.9663 0.0001 0.0001 0.0000
# 4 2.2225 -2.2218 0.0001 25.2795 0.0001 7.4586
# 5 -7.4588 7.4585 0.0001 0.0001 25.2794 2.2223
# 6 -0.0004 -0.0005 0.0000 7.4586 2.2223 16.4661
#
#
#
# Elastic Compliance Matrix: (Units=1/GPa)
#
#
# Indices 1 2 3 4 5 6 
#
# 1 0.020823 -0.014713 -0.000897 -0.003124 0.010485 0.000000
# 2 -0.014713 0.020823 -0.000897 0.003124 -0.010485 0.000000
# 3 -0.000897 -0.000897 0.010368 0.000000 0.000000 0.000000
# 4 -0.003124 0.003124 0.000000 0.046294 0.000000 -0.020970
# 5 0.010485 -0.010485 0.000000 0.000000 0.046294 -0.006248
# 6 0.000000 0.000000 0.000000 -0.020970 -0.006248 0.071072
#
#
# Mechanical properties :
#
#
# Convention : Reuss Voigt Hill
#
# Bulk Modulus (GPa) = 52.63409 54.77372 53.70390
# Shear Modulus (GPa) = 19.60598 26.95596 23.28097
#
# Velocity S-wave (km/s) = 2.87896 3.37574 3.13720
# Velocity P-wave (km/s) = 5.77082 6.19272 5.98549
#
# Compressibility (1/GPa) = 0.01899909
#
# Stress axis : x y z
#
# Youngs Moduli (GPa) = 48.02296 48.02299 96.45085
#
# Poissons Ratio (x) = 0.70658 0.08653
# Poissons Ratio (y) = 0.70658 0.08655
# Poissons Ratio (z) = 0.04308 0.04309
#
# Static dielectric constant tensor:
#      x y z
#    x 4.044540 0.000010 0.000010 
#    y 0.000010 4.044540 -0.000010 
#    z 0.000010 -0.000010 4.934620 
# 
# 
# High freq. dielectric constant tensor:
#      x y z
#    x 1.930740 0.000000 0.000000 
#    y 0.000000 1.930740 0.000000 
#    z 0.000000 0.000000 1.969190 
# 
# From -- ./inp_files/1767.got.cif
#   From: 2010.03.12/outbox.cif.g09.slc.cpg/sg148_1_cif.got.tgz:1767.got - 2010.04.03 13:38:46.
