data_PCOD8321325
_publ_section_title
;
Structure prediction by ZEFSAII (Michael W. Deem and Ramdas Pophale) SiO2 
 PCOD8321325
Probable space group: I 41/A C D
;
_chemical_formula_sum "Si O2"
_cell_formula_units_Z 112
_cell_length_a 13.462914
_cell_length_b 13.462914
_cell_length_c 23.155862
_cell_angle_alpha 90.000000
_cell_angle_beta 90.000000
_cell_angle_gamma 90.000000
_cell_volume 4197.001223
_symmetry_space_group_name_H-M "I 41/A C D"
_symmetry_group_IT_number 142
_space_group.IT_coordinate_system_code '2'
_symmetry_cell_setting 'tetragonal'
loop_
_space_group_symop_operation_xyz
x,y,z
1/4-y,3/4+x,1/4+z
-x,1/2-y,z
1/4+y,1/4-x,3/4+z
x,-y,1/2-z
1/2-x,y,-z
3/4+y,1/4+x,1/4-z
1/4-y,1/4-x,1/4-z
-x,-y,-z
3/4+y,1/4-x,3/4-z
x,1/2+y,-z
3/4-y,3/4+x,1/4-z
-x,y,1/2+z
1/2+x,-y,z
1/4-y,3/4-x,3/4+z
3/4+y,3/4+x,3/4+z
1/2+x,1/2+y,1/2+z
3/4-y,1/4+x,3/4+z
1/2-x,-y,1/2+z
3/4+y,3/4-x,1/4+z
1/2+x,1/2-y,-z
-x,1/2+y,1/2-z
1/4+y,3/4+x,3/4-z
3/4-y,3/4-x,3/4-z
1/2-x,1/2-y,1/2-z
1/4+y,3/4-x,1/4-z
1/2+x,y,1/2-z
1/4-y,1/4+x,3/4-z
1/2-x,1/2+y,z
x,1/2-y,1/2+z
3/4-y,1/4-x,1/4+z
1/4+y,1/4+x,1/4+z
loop_
_atom_site_type_symbol
_atom_site_label
_atom_site_fract_x
_atom_site_fract_y
_atom_site_fract_z
Si Si1 0.488182 0.104665 0.219319
Si Si2 0.873717 0.081428 0.399406
Si Si3 0.648476 0.898476 0.125000
Si Si4 0.662554 0.277697 0.292151
O O1 0.590237 0.161979 0.199113
O O2 0.418745 0.098688 0.163201
O O3 0.433675 0.171734 0.266136
O O4 0.509647 0.000000 0.250000
O O5 0.758887 0.113601 0.399035
O O6 0.892367 0.966820 0.415387
O O7 0.625566 0.820970 0.175560
O O8 0.750000 0.250000 0.250000
#
# Coordination Sequence:
#
# PCOD8321325 Si02
#       4
#    32  32  16  32
#     4  12  28  54  85 122 170 232 281 357 439 507
#     4  12  27  55  82 123 169 218 289 354 417 528
#     4  12  26  54  83 123 168 216 284 356 420 519
#     4  12  28  50  83 125 166 221 281 352 429 511
#
# _framework density 26.685721999999998
#
# number of rings (size 3 to 8) (size 9 to 14) (size 15 to 20)
#    0.000    0.000    5.714    1.714    4.000    4.000 
#    0.000    4.286    0.000    0.000    0.000    0.000 
#    0.000    0.000    0.000    0.000    0.000    0.000 
#
# Total GULP energy -694501.791724 kJ/mol
# GULP energy per Si atom -12401.817709 kJ/mol
# Density = 2.662498 g / cm^3
# Si number density = 26.685722 Si / 1000 Ang^3
#
#
#
# Elastic Constant Matrix: (Units=GPa)
#
#
# Indices 1 2 3 4 5 6 
#
# 1 81.4303 88.3669 49.6296 0.0000 0.0000 0.0000
# 2 88.3669 81.4303 49.6296 0.0000 0.0000 0.0000
# 3 49.6296 49.6296 115.9662 0.0000 0.0000 0.0000
# 4 0.0000 0.0000 0.0000 54.6063 0.0000 0.0000
# 5 0.0000 0.0000 0.0000 0.0000 54.6063 0.0000
# 6 0.0000 0.0000 0.0000 0.0000 0.0000 -19.3288
#
#
#
# Elastic Compliance Matrix: (Units=1/GPa)
#
#
# Indices 1 2 3 4 5 6 
#
# 1 -0.068155 0.076009 -0.003361 0.000000 0.000000 0.000000
# 2 0.076009 -0.068155 -0.003361 0.000000 0.000000 0.000000
# 3 -0.003361 -0.003361 0.011500 0.000000 0.000000 0.000000
# 4 0.000000 0.000000 0.000000 0.018313 0.000000 0.000000
# 5 0.000000 0.000000 0.000000 0.000000 0.018313 0.000000
# 6 0.000000 0.000000 0.000000 0.000000 0.000000 -0.051736
#
#
# Mechanical properties :
#
#
# Convention : Reuss Voigt Hill
#
# Bulk Modulus (GPa) = 72.65612 72.67542 72.66577
# Shear Modulus (GPa) = -18.25455 24.05682 2.90113
#
# Velocity S-wave (km/s) = -2.61829 3.00573 1.04380
# Velocity P-wave (km/s) = 4.25971 6.27207 5.36116
#
# Compressibility (1/GPa) = 0.01376347
#
# Stress axis : x y z
#
# Youngs Moduli (GPa) = -14.67250 -14.67250 86.95405
#
# Poissons Ratio (x) = 1.11524 0.29229
# Poissons Ratio (y) = 1.11524 0.29229
# Poissons Ratio (z) = -0.04932 -0.04932
#
# Static dielectric constant tensor:
#      x y z
#    x 5.583910 0.000000 0.000000 
#    y 0.000000 5.583910 0.000000 
#    z 0.000000 0.000000 5.211910 
# 
# 
# High freq. dielectric constant tensor:
#      x y z
#    x 2.088740 0.000000 0.000000 
#    y 0.000000 2.088740 0.000000 
#    z 0.000000 0.000000 2.094530 
# 
# From -- ./inp_files/9770.got.cif
#   From: 2010.03.12/outbox.cif.g09.slc.cpg/sg142_5_cif.got.tgz:9770.got - 2010.04.03 13:27:16.
