data_PCOD8321330
_publ_section_title
;
Structure prediction by ZEFSAII (Michael W. Deem and Ramdas Pophale) SiO2 
 PCOD8321330
Probable space group: P 3
;
_chemical_formula_sum "Si O2"
_cell_formula_units_Z 18
_cell_length_a 12.920560
_cell_length_b 12.920560
_cell_length_c 7.544281
_cell_angle_alpha 90.000000
_cell_angle_beta 90.000000
_cell_angle_gamma 120.000000
_cell_volume 1090.714689
_symmetry_space_group_name_H-M "P 3"
_symmetry_group_IT_number 143
_symmetry_cell_setting 'hexagonal'
loop_
_space_group_symop_operation_xyz
x,y,z
-y,x-y,z
-x+y,-x,z
loop_
_atom_site_type_symbol
_atom_site_label
_atom_site_fract_x
_atom_site_fract_y
_atom_site_fract_z
Si Si1 0.001096 0.758110 0.066810
Si Si2 0.095220 0.428370 0.364117
Si Si3 0.241890 0.998904 0.066810
Si Si4 0.333149 0.428370 0.364117
Si Si5 0.333149 0.428370 0.769503
Si Si6 0.571630 0.666851 0.769503
O O1 0.875378 0.750757 0.066810
O O2 0.104176 0.895824 0.066810
O O3 0.008514 0.690915 0.241476
O O4 0.008513 0.690915 0.892144
O O5 0.008514 0.317599 0.241476
O O6 0.232380 0.464760 0.332287
O O7 0.082599 0.541300 0.310703
O O8 0.056752 0.389837 0.566810
O O9 0.309085 0.991487 0.892144
O O10 0.333086 0.389837 0.566810
O O11 0.458700 0.541300 0.822917
O O12 0.232380 0.464760 0.801334
#
# Coordination Sequence:
#
# PCOD8321330 Si02
#       6
#     3   3   3   3   3   3
#     4  10  20  32  46  66  94 128 162 192 222 262
#     4   9  17  30  50  75  98 118 144 185 238 288
#     4  10  20  32  46  66  94 128 162 192 222 262
#     4   9  17  30  50  75  98 118 144 185 238 288
#     4   9  17  30  50  75  98 118 144 185 238 288
#     4   9  17  30  50  75  98 118 144 185 238 288
#
# _framework density 16.502942000000001
#
# number of rings (size 3 to 8) (size 9 to 14) (size 15 to 20)
#    0.000    2.667    0.000    2.000    0.000    4.000 
#    0.000    3.333    0.000    9.333    0.000    0.000 
#    0.000    0.000    0.000    0.000    0.000    0.000 
#
# Total GULP energy -223223.468275 kJ/mol
# GULP energy per Si atom -12401.303793 kJ/mol
# Density = 1.646538 g / cm^3
# Si number density = 16.502942 Si / 1000 Ang^3
#
#
#
# Elastic Constant Matrix: (Units=GPa)
#
#
# Indices 1 2 3 4 5 6 
#
# 1 124.6162 73.7473 72.7343 0.0000 0.0000 0.0000
# 2 73.7473 124.6162 72.7343 0.0000 0.0000 0.0000
# 3 72.7343 72.7343 117.2345 0.0000 0.0000 0.0000
# 4 0.0000 0.0000 0.0000 23.3933 0.0000 0.0000
# 5 0.0000 0.0000 0.0000 0.0000 23.3933 0.0000
# 6 0.0000 0.0000 0.0000 0.0000 0.0000 25.4344
#
#
#
# Elastic Compliance Matrix: (Units=1/GPa)
#
#
# Indices 1 2 3 4 5 6 
#
# 1 0.014454 -0.005204 -0.005739 0.000000 0.000000 0.000000
# 2 -0.005204 0.014454 -0.005739 0.000000 0.000000 0.000000
# 3 -0.005739 -0.005739 0.015651 0.000000 0.000000 0.000000
# 4 0.000000 0.000000 0.000000 0.042747 0.000000 0.000000
# 5 0.000000 0.000000 0.000000 0.000000 0.042747 0.000000
# 6 0.000000 0.000000 0.000000 0.000000 0.000000 0.039317
#
#
# Mechanical properties :
#
#
# Convention : Reuss Voigt Hill
#
# Bulk Modulus (GPa) = 89.32282 89.43319 89.37801
# Shear Modulus (GPa) = 24.21717 24.26093 24.23905
#
# Velocity S-wave (km/s) = 3.83488 3.83834 3.83661
# Velocity P-wave (km/s) = 8.59368 8.59964 8.59666
#
# Compressibility (1/GPa) = 0.01119535
#
# Stress axis : x y z
#
# Youngs Moduli (GPa) = 69.18496 69.18496 63.89532
#
# Poissons Ratio (x) = 0.36006 0.36667
# Poissons Ratio (y) = 0.36006 0.36667
# Poissons Ratio (z) = 0.39703 0.39703
#
# Static dielectric constant tensor:
#      x y z
#    x 2.894790 0.000000 0.000000 
#    y 0.000000 2.894790 0.000000 
#    z 0.000000 0.000000 3.492540 
# 
# 
# High freq. dielectric constant tensor:
#      x y z
#    x 1.617700 0.000000 0.000000 
#    y 0.000000 1.617700 0.000000 
#    z 0.000000 0.000000 1.655030 
# 
# From -- ./inp_files/156.got.cif
#   From: 2010.03.12/outbox.cif.g09.slc.cpg/sg143_cif.got.tgz:156.got - 2010.04.03 13:34:35.
