data_PCOD8321485
_publ_section_title
;
Structure prediction by ZEFSAII (Michael W. Deem and Ramdas Pophale) SiO2 
 PCOD8321485
Probable space group: P 32
;
_chemical_formula_sum "Si O2"
_cell_formula_units_Z 24
_cell_length_a 14.288023
_cell_length_b 14.288023
_cell_length_c 6.549237
_cell_angle_alpha 90.000000
_cell_angle_beta 90.000000
_cell_angle_gamma 120.000000
_cell_volume 1157.885512
_symmetry_space_group_name_H-M "P 32"
_symmetry_group_IT_number 145
_symmetry_cell_setting 'hexagonal'
loop_
_space_group_symop_operation_xyz
x,y,z
-y,x-y,2/3+z
-x+y,-x,1/3+z
loop_
_atom_site_type_symbol
_atom_site_label
_atom_site_fract_x
_atom_site_fract_y
_atom_site_fract_z
Si Si1 0.637281 0.893027 0.244570
Si Si2 0.654658 0.699947 0.367033
Si Si3 0.170481 0.186379 0.283174
Si Si4 0.219828 0.017419 0.417445
Si Si5 0.603812 0.228868 0.932862
Si Si6 0.847897 0.225012 0.431041
Si Si7 0.345740 0.332344 0.959060
Si Si8 0.464649 0.462807 0.317158
O O1 0.616161 0.771326 0.238066
O O2 0.618715 0.911931 0.476834
O O3 0.560846 0.916723 0.099742
O O4 0.760695 0.971846 0.173345
O O5 0.697207 0.744260 0.595781
O O6 0.753239 0.695931 0.256752
O O7 0.548019 0.584766 0.372126
O O8 0.159214 0.069209 0.291091
O O9 0.062383 0.190013 0.238457
O O10 0.259197 0.253414 0.117231
O O11 0.325915 0.108337 0.539416
O O12 0.706492 0.298516 0.789418
O O13 0.500027 0.176588 0.781786
O O14 0.611609 0.130033 0.041619
O O15 0.734701 0.120115 0.488935
O O16 0.440435 0.436432 0.075187
#
# Coordination Sequence:
#
# PCOD8321485 Si02
#       8
#     3   3   3   3   3   3   3   3
#     4  11  23  43  69  92 130 173 222 279 334 393
#     4  11  24  45  67  95 131 178 224 274 334 405
#     4  11  24  37  64  98 130 171 220 262 333 395
#     4  12  24  40  65  97 135 175 222 274 326 407
#     4  11  25  40  64  98 136 176 223 270 327 405
#     4  11  23  40  65  92 133 176 218 270 336 394
#     4  11  21  42  64  94 130 171 214 283 332 388
#     4  10  26  43  66 100 131 172 225 278 340 403
#
# _framework density 20.727437999999999
#
# number of rings (size 3 to 8) (size 9 to 14) (size 15 to 20)
#    0.000    1.000    6.250    0.000    1.750    6.000 
#    0.000    1.250    0.000    0.000    0.000    0.000 
#    0.000    0.000    0.000    0.000    0.000    0.000 
#
# Total GULP energy -297422.876525 kJ/mol
# GULP energy per Si atom -12392.619855 kJ/mol
# Density = 2.068026 g / cm^3
# Si number density = 20.727438 Si / 1000 Ang^3
#
#
#
# Elastic Constant Matrix: (Units=GPa)
#
#
# Indices 1 2 3 4 5 6 
#
# 1 98.6645 38.9322 37.9638 -3.6745 -2.5888 0.0000
# 2 38.9322 98.6645 37.9638 3.6745 2.5888 0.0000
# 3 37.9638 37.9638 89.3404 0.0000 0.0000 0.0000
# 4 -3.6745 3.6745 0.0000 30.6572 0.0000 2.5888
# 5 -2.5888 2.5888 0.0000 0.0000 30.6572 -3.6745
# 6 0.0000 0.0000 0.0000 2.5888 -3.6745 29.8662
#
#
#
# Elastic Compliance Matrix: (Units=1/GPa)
#
#
# Indices 1 2 3 4 5 6 
#
# 1 0.013306 -0.003813 -0.004034 0.002052 0.001446 0.000000
# 2 -0.003813 0.013306 -0.004034 -0.002052 -0.001446 0.000000
# 3 -0.004034 -0.004034 0.014622 0.000000 0.000000 0.000000
# 4 0.002052 -0.002052 0.000000 0.033355 0.000000 -0.002891
# 5 0.001446 -0.001446 0.000000 0.000000 0.033355 0.004104
# 6 0.000000 0.000000 0.000000 -0.002891 0.004104 0.034238
#
#
# Mechanical properties :
#
#
# Convention : Reuss Voigt Hill
#
# Bulk Modulus (GPa) = 57.23337 57.37654 57.30496
# Shear Modulus (GPa) = 29.10895 29.69011 29.39953
#
# Velocity S-wave (km/s) = 3.75156 3.78882 3.77023
# Velocity P-wave (km/s) = 6.81453 6.84702 6.83080
#
# Compressibility (1/GPa) = 0.01747232
#
# Stress axis : x y z
#
# Youngs Moduli (GPa) = 75.15171 75.15171 68.39151
#
# Poissons Ratio (x) = 0.28653 0.27591
# Poissons Ratio (y) = 0.28653 0.27591
# Poissons Ratio (z) = 0.30318 0.30318
#
# Static dielectric constant tensor:
#      x y z
#    x 3.796610 0.000000 0.000000 
#    y 0.000000 3.796610 0.000000 
#    z 0.000000 0.000000 3.888180 
# 
# 
# High freq. dielectric constant tensor:
#      x y z
#    x 1.807470 0.000000 0.000000 
#    y 0.000000 1.807470 0.000000 
#    z 0.000000 0.000000 1.811160 
# 
# From -- ./inp_files/150.got.cif
#   From: 2010.03.12/outbox.cif.g09.slc.cpg/sg145_cif.got.tgz:150.got - 2010.04.03 13:35:35.
