data_PCOD8321305
_publ_section_title
;
Structure prediction by ZEFSAII (Michael W. Deem and Ramdas Pophale) SiO2 
 PCOD8321305
Probable space group: I 41/A C D
;
_chemical_formula_sum "Si O2"
_cell_formula_units_Z 112
_cell_length_a 31.660057
_cell_length_b 31.660057
_cell_length_c 5.029079
_cell_angle_alpha 90.000000
_cell_angle_beta 90.000000
_cell_angle_gamma 90.000000
_cell_volume 5040.943650
_symmetry_space_group_name_H-M "I 41/A C D"
_symmetry_group_IT_number 142
_space_group.IT_coordinate_system_code '2'
_symmetry_cell_setting 'tetragonal'
loop_
_space_group_symop_operation_xyz
x,y,z
1/4-y,3/4+x,1/4+z
-x,1/2-y,z
1/4+y,1/4-x,3/4+z
x,-y,1/2-z
1/2-x,y,-z
3/4+y,1/4+x,1/4-z
1/4-y,1/4-x,1/4-z
-x,-y,-z
3/4+y,1/4-x,3/4-z
x,1/2+y,-z
3/4-y,3/4+x,1/4-z
-x,y,1/2+z
1/2+x,-y,z
1/4-y,3/4-x,3/4+z
3/4+y,3/4+x,3/4+z
1/2+x,1/2+y,1/2+z
3/4-y,1/4+x,3/4+z
1/2-x,-y,1/2+z
3/4+y,3/4-x,1/4+z
1/2+x,1/2-y,-z
-x,1/2+y,1/2-z
1/4+y,3/4+x,3/4-z
3/4-y,3/4-x,3/4-z
1/2-x,1/2-y,1/2-z
1/4+y,3/4-x,1/4-z
1/2+x,y,1/2-z
1/4-y,1/4+x,3/4-z
1/2-x,1/2+y,z
x,1/2-y,1/2+z
3/4-y,1/4-x,1/4+z
1/4+y,1/4+x,1/4+z
loop_
_atom_site_type_symbol
_atom_site_label
_atom_site_fract_x
_atom_site_fract_y
_atom_site_fract_z
Si Si1 0.199572 0.889154 0.482233
Si Si2 0.326496 0.840026 0.021981
Si Si3 0.029357 0.653857 0.328418
Si Si4 0.528931 0.500000 0.250000
O O1 0.250000 0.885974 0.500000
O O2 0.185772 0.935772 0.375000
O O3 0.179819 0.878450 0.769066
O O4 0.177716 0.856649 0.277940
O O5 0.370323 0.817312 0.087337
O O6 0.290408 0.806375 0.056875
O O7 0.050086 0.699915 0.375000
O O8 0.993188 0.647928 0.546577
O O9 0.500000 0.500000 0.500000
#
# Coordination Sequence:
#
# PCOD8321305 Si02
#       4
#    32  32  32  16
#     4  12  24  44  69 100 136 182 229 279 340 407
#     4  12  24  45  68 102 136 176 230 277 348 417
#     4  12  26  45  69  99 135 181 230 284 341 405
#     4  12  22  38  66 100 138 172 210 278 346 418
#
# _framework density 22.218063000000001
#
# number of rings (size 3 to 8) (size 9 to 14) (size 15 to 20)
#    0.000    0.000    2.857    8.571    0.000    1.714 
#    0.000    2.857    0.000    0.000    0.000    0.000 
#    0.000    0.000    0.000    0.000    0.000    0.000 
#
# Total GULP energy -694310.463988 kJ/mol
# GULP energy per Si atom -12398.401143 kJ/mol
# Density = 2.216749 g / cm^3
# Si number density = 22.218063 Si / 1000 Ang^3
#
#
#
# Elastic Constant Matrix: (Units=GPa)
#
#
# Indices 1 2 3 4 5 6 
#
# 1 75.5341 66.4147 28.1982 0.0000 0.0000 0.0000
# 2 66.4147 75.5196 28.2038 0.0000 0.0000 0.0000
# 3 28.1982 28.2038 112.1177 0.0000 0.0000 0.0000
# 4 0.0000 0.0000 0.0000 43.9016 0.0000 0.0000
# 5 0.0000 0.0000 0.0000 0.0000 43.9026 0.0000
# 6 0.0000 0.0000 0.0000 0.0000 0.0000 55.2569
#
#
#
# Elastic Compliance Matrix: (Units=1/GPa)
#
#
# Indices 1 2 3 4 5 6 
#
# 1 0.058778 -0.050958 -0.001964 0.000000 0.000000 0.000000
# 2 -0.050958 0.058793 -0.001973 0.000000 0.000000 0.000000
# 3 -0.001964 -0.001973 0.009910 0.000000 0.000000 0.000000
# 4 0.000000 0.000000 0.000000 0.022778 0.000000 0.000000
# 5 0.000000 0.000000 0.000000 0.000000 0.022778 0.000000
# 6 0.000000 0.000000 0.000000 0.000000 0.000000 0.018097
#
#
# Mechanical properties :
#
#
# Convention : Reuss Voigt Hill
#
# Bulk Modulus (GPa) = 56.53156 56.53387 56.53272
# Shear Modulus (GPa) = 16.29605 37.96920 27.13263
#
# Velocity S-wave (km/s) = 2.71118 4.13841 3.49835
# Velocity P-wave (km/s) = 5.94137 6.95237 6.46666
#
# Compressibility (1/GPa) = 0.01768923
#
# Stress axis : x y z
#
# Youngs Moduli (GPa) = 17.01307 17.00876 100.91174
#
# Poissons Ratio (x) = 0.86674 0.19822
# Poissons Ratio (y) = 0.86696 0.19914
# Poissons Ratio (z) = 0.03342 0.03357
#
# Static dielectric constant tensor:
#      x y z
#    x 4.252150 0.000000 0.000000 
#    y 0.000000 4.252170 0.000000 
#    z 0.000000 0.000000 4.275340 
# 
# 
# High freq. dielectric constant tensor:
#      x y z
#    x 1.885650 0.000000 0.000000 
#    y 0.000000 1.885650 0.000000 
#    z 0.000000 0.000000 1.895660 
# 
# From -- ./inp_files/740.got.cif
#   From: 2010.03.12/outbox.cif.g09.slc.cpg/sg142_1_cif.got.tgz:740.got - 2010.04.03 13:27:16.
