data_PCOD8321334
_publ_section_title
;
Structure prediction by ZEFSAII (Michael W. Deem and Ramdas Pophale) SiO2 
 PCOD8321334
Probable space group: P 3
;
_chemical_formula_sum "Si O2"
_cell_formula_units_Z 17
_cell_length_a 10.892507
_cell_length_b 10.892507
_cell_length_c 8.452209
_cell_angle_alpha 90.000000
_cell_angle_beta 90.000000
_cell_angle_gamma 120.000000
_cell_volume 868.473467
_symmetry_space_group_name_H-M "P 3"
_symmetry_group_IT_number 143
_symmetry_cell_setting 'hexagonal'
loop_
_space_group_symop_operation_xyz
x,y,z
-y,x-y,z
-x+y,-x,z
loop_
_atom_site_type_symbol
_atom_site_label
_atom_site_fract_x
_atom_site_fract_y
_atom_site_fract_z
Si Si1 0.240012 0.973838 0.314380
Si Si2 0.333335 0.666668 0.116044
Si Si3 0.251685 0.381213 0.572375
Si Si4 0.770653 0.021240 0.153413
Si Si5 0.502417 0.960982 0.281162
Si Si6 0.982356 0.835493 0.801753
Si Si7 0.333335 0.666668 0.739789
O O1 0.194049 0.901565 0.486713
O O2 0.409396 0.037696 0.297543
O O3 0.145787 0.850771 0.187910
O O4 0.210815 0.102769 0.280190
O O5 0.400614 0.822903 0.182645
O O6 0.333334 0.666667 0.927597
O O7 0.381819 0.455923 0.451297
O O8 0.270157 0.265844 0.677972
O O9 0.255141 0.504134 0.680577
O O10 0.646106 0.058706 0.182827
O O11 0.816583 0.050142 0.974068
O O12 0.853675 0.868297 0.780880
#
# Coordination Sequence:
#
# PCOD8321334 Si02
#       7
#     3   1   3   3   3   3   1
#     4  11  22  39  64  90 124 171 212 265 315 394
#     4  12  19  38  64  90 121 167 217 261 325 377
#     4  11  22  37  58  92 130 164 210 270 323 381
#     4  11  21  39  67  90 128 169 214 266 320 377
#     4  11  22  39  62  89 126 167 219 262 312 393
#     4  10  22  39  59  95 134 159 210 274 325 380
#     4  12  22  35  58  90 133 167 208 270 328 368
#
# _framework density 19.574577999999999
#
# number of rings (size 3 to 8) (size 9 to 14) (size 15 to 20)
#    0.353    0.706    7.059    1.412    4.941    0.000 
#    1.059    0.000    0.000    0.000    0.000    0.000 
#    0.000    0.000    0.000    0.000    0.000    0.000 
#
# Total GULP energy -210611.998448 kJ/mol
# GULP energy per Si atom -12388.941085 kJ/mol
# Density = 1.953003 g / cm^3
# Si number density = 19.574578 Si / 1000 Ang^3
#
#
#
# Elastic Constant Matrix: (Units=GPa)
#
#
# Indices 1 2 3 4 5 6 
#
# 1 67.6639 23.3493 28.4266 14.4736 9.5865 -0.0030
# 2 23.3493 67.6605 28.4235 -14.4756 -9.5890 0.0029
# 3 28.4266 28.4235 103.2811 0.0009 -0.0042 0.0012
# 4 14.4736 -14.4756 0.0009 -15.8803 0.0161 -9.5901
# 5 9.5865 -9.5890 -0.0042 0.0161 -15.9110 14.4957
# 6 -0.0030 0.0029 0.0012 -9.5901 14.4957 22.1478
#
#
#
# Elastic Compliance Matrix: (Units=1/GPa)
#
#
# Indices 1 2 3 4 5 6 
#
# 1 0.012711 0.000558 -0.003652 0.011083 0.007334 0.000000
# 2 0.000558 0.012710 -0.003652 -0.011084 -0.007334 -0.000001
# 3 -0.003652 -0.003652 0.011692 0.000001 -0.000002 0.000001
# 4 0.011083 -0.011084 0.000001 -0.033913 -0.000033 -0.014660
# 5 0.007334 -0.007334 -0.000002 -0.000033 -0.033842 0.022137
# 6 0.000000 -0.000001 0.000001 -0.014660 0.022137 0.024314
#
#
# Mechanical properties :
#
#
# Convention : Reuss Voigt Hill
#
# Bulk Modulus (GPa) = 42.33238 44.33383 43.33311
# Shear Modulus (GPa) = 332.49876 8.63170 170.56523
#
# Velocity S-wave (km/s) = 13.04727 2.10219 9.34480
# Velocity P-wave (km/s) = 15.76858 5.34698 11.77366
#
# Compressibility (1/GPa) = 0.02362258
#
# Stress axis : x y z
#
# Youngs Moduli (GPa) = 78.67386 78.67701 85.52545
#
# Poissons Ratio (x) = -0.04392 0.31233
# Poissons Ratio (y) = -0.04392 0.31232
# Poissons Ratio (z) = 0.28731 0.28731
#
# Static dielectric constant tensor:
#      x y z
#    x 3.696520 0.000040 0.000000 
#    y 0.000040 3.696380 0.000020 
#    z 0.000000 0.000020 3.541560 
# 
# 
# High freq. dielectric constant tensor:
#      x y z
#    x 1.745730 0.000000 0.000000 
#    y 0.000000 1.745730 0.000000 
#    z 0.000000 0.000000 1.767370 
# 
# From -- ./inp_files/163.got.cif
#   From: 2010.03.12/outbox.cif.g09.slc.cpg/sg143_cif.got.tgz:163.got - 2010.04.03 13:34:35.
