data_PCOD8321741
_publ_section_title
;
Structure prediction by ZEFSAII (Michael W. Deem and Ramdas Pophale) SiO2 
 PCOD8321741
Probable space group: R -3
;
_chemical_formula_sum "Si O2"
_cell_formula_units_Z 144
_cell_length_a 20.711966
_cell_length_b 20.711966
_cell_length_c 19.779490
_cell_angle_alpha 90.000000
_cell_angle_beta 90.000000
_cell_angle_gamma 120.000000
_cell_volume 7348.325240
_symmetry_space_group_name_H-M "R -3"
_symmetry_group_IT_number 148
_symmetry_cell_setting 'hexagonal'
loop_
_space_group_symop_operation_xyz
x,y,z
-y,x-y,z
-x+y,-x,z
-x,-y,-z
y,-x+y,-z
x-y,x,-z
2/3+x,1/3+y,1/3+z
2/3-y,1/3+x-y,1/3+z
2/3-x+y,1/3-x,1/3+z
2/3-x,1/3-y,1/3-z
2/3+y,1/3-x+y,1/3-z
2/3+x-y,1/3+x,1/3-z
1/3+x,2/3+y,2/3+z
1/3-y,2/3+x-y,2/3+z
1/3-x+y,2/3-x,2/3+z
1/3-x,2/3-y,2/3-z
1/3+y,2/3-x+y,2/3-z
1/3+x-y,2/3+x,2/3-z
loop_
_atom_site_type_symbol
_atom_site_label
_atom_site_fract_x
_atom_site_fract_y
_atom_site_fract_z
Si Si1 0.525526 0.719492 0.338288
Si Si2 0.618935 0.548039 0.752858
Si Si3 0.886717 0.761753 0.297947
Si Si4 0.457532 0.052107 0.334664
Si Si5 0.838519 0.265546 0.420033
Si Si6 0.287510 0.333425 0.354523
Si Si7 0.874801 0.853087 0.522406
Si Si8 0.026487 0.204297 0.231752
O O1 0.482335 0.639383 0.373646
O O2 0.610649 0.741074 0.331343
O O3 0.496652 0.721861 0.263767
O O4 0.513833 0.777090 0.382601
O O5 0.572548 0.474781 0.706633
O O6 0.565611 0.577825 0.777299
O O7 0.685129 0.610819 0.708849
O O8 0.651641 0.532325 0.820956
O O9 0.870120 0.676555 0.285248
O O10 0.846620 0.784041 0.240781
O O11 0.462101 0.121677 0.374889
O O12 0.527949 0.090932 0.283601
O O13 0.376499 0.005655 0.297823
O O14 0.810869 0.284540 0.489632
O O15 0.288443 0.377854 0.421492
O O16 0.867460 0.925640 0.526669
#
# Coordination Sequence:
#
# PCOD8321741 Si02
#       8
#    18  18  18  18  18  18  18  18
#     4  11  22  37  55  85 125 164 202 254 304 363
#     4   9  18  37  60  83 121 156 198 253 300 365
#     4   9  19  40  56  83 124 162 200 245 308 364
#     4   9  20  41  67  89 126 160 200 261 308 374
#     4  10  21  40  64  96 117 155 204 256 320 365
#     4   9  19  38  60  89 124 161 200 250 317 362
#     4  12  23  35  54  83 118 169 211 242 288 363
#     4  11  22  38  60  91 124 158 204 263 309 372
#
# _framework density 19.596302000000001
#
# number of rings (size 3 to 8) (size 9 to 14) (size 15 to 20)
#    0.000    2.000    1.250    3.500    0.000    1.500 
#    9.750    0.000    0.000    0.250    0.000    0.000 
#    0.000    0.000    0.000    0.000    0.000    0.000 
#
# Total GULP energy -594991.534042 kJ/mol
# GULP energy per Si atom -12395.656959 kJ/mol
# Density = 1.955170 g / cm^3
# Si number density = 19.596302 Si / 1000 Ang^3
#
#
#
# Elastic Constant Matrix: (Units=GPa)
#
#
# Indices 1 2 3 4 5 6 
#
# 1 95.2093 32.9291 41.2202 -3.2090 2.9550 0.0000
# 2 32.9291 95.2093 41.2202 3.2090 -2.9550 0.0000
# 3 41.2202 41.2202 106.1420 0.0000 0.0000 0.0000
# 4 -3.2090 3.2090 0.0000 8.3259 0.0000 -2.9550
# 5 2.9550 -2.9550 0.0000 0.0000 8.3259 -3.2090
# 6 0.0000 0.0000 0.0000 -2.9550 -3.2090 31.1401
#
#
#
# Elastic Compliance Matrix: (Units=1/GPa)
#
#
# Indices 1 2 3 4 5 6 
#
# 1 0.013866 -0.003462 -0.004040 0.006679 -0.006150 0.000000
# 2 -0.003462 0.013866 -0.004040 -0.006679 0.006150 0.000000
# 3 -0.004040 -0.004040 0.012559 0.000000 0.000000 0.000000
# 4 0.006679 -0.006679 0.000000 0.129621 0.000000 0.012300
# 5 -0.006150 0.006150 0.000000 0.000000 0.129621 0.013357
# 6 0.000000 0.000000 0.000000 0.012300 0.013357 0.034657
#
#
# Mechanical properties :
#
#
# Convention : Reuss Voigt Hill
#
# Bulk Modulus (GPa) = 58.12101 58.58883 58.35492
# Shear Modulus (GPa) = 13.77374 21.63780 17.70577
#
# Velocity S-wave (km/s) = 2.65405 3.32652 3.00913
# Velocity P-wave (km/s) = 6.25424 6.68709 6.47428
#
# Compressibility (1/GPa) = 0.01720548
#
# Stress axis : x y z
#
# Youngs Moduli (GPa) = 72.11976 72.11976 79.62215
#
# Poissons Ratio (x) = 0.24971 0.32168
# Poissons Ratio (y) = 0.24971 0.32168
# Poissons Ratio (z) = 0.29137 0.29137
#
# Static dielectric constant tensor:
#      x y z
#    x 3.618790 0.000000 0.000000 
#    y 0.000000 3.618790 0.000000 
#    z 0.000000 0.000000 3.262710 
# 
# 
# High freq. dielectric constant tensor:
#      x y z
#    x 1.765430 0.000000 0.000000 
#    y 0.000000 1.765430 0.000000 
#    z 0.000000 0.000000 1.738860 
# 
# From -- ./inp_files/3152.got.cif
#   From: 2010.03.12/outbox.cif.g09.slc.cpg/sg148_2_cif.got.tgz:3152.got - 2010.04.03 13:38:46.
