data_PCOD8321136
_publ_section_title
;
Structure prediction by ZEFSAII (Michael W. Deem and Ramdas Pophale) SiO2 
 PCOD8321136
Probable space group: I 41/A C D
;
_chemical_formula_sum "Si O2"
_cell_formula_units_Z 80
_cell_length_a 15.588224
_cell_length_b 15.588224
_cell_length_c 15.491525
_cell_angle_alpha 90.000000
_cell_angle_beta 90.000000
_cell_angle_gamma 90.000000
_cell_volume 3764.327912
_symmetry_space_group_name_H-M "I 41/A C D"
_symmetry_group_IT_number 142
_space_group.IT_coordinate_system_code '2'
_symmetry_cell_setting 'tetragonal'
loop_
_space_group_symop_operation_xyz
x,y,z
1/4-y,3/4+x,1/4+z
-x,1/2-y,z
1/4+y,1/4-x,3/4+z
x,-y,1/2-z
1/2-x,y,-z
3/4+y,1/4+x,1/4-z
1/4-y,1/4-x,1/4-z
-x,-y,-z
3/4+y,1/4-x,3/4-z
x,1/2+y,-z
3/4-y,3/4+x,1/4-z
-x,y,1/2+z
1/2+x,-y,z
1/4-y,3/4-x,3/4+z
3/4+y,3/4+x,3/4+z
1/2+x,1/2+y,1/2+z
3/4-y,1/4+x,3/4+z
1/2-x,-y,1/2+z
3/4+y,3/4-x,1/4+z
1/2+x,1/2-y,-z
-x,1/2+y,1/2-z
1/4+y,3/4+x,3/4-z
3/4-y,3/4-x,3/4-z
1/2-x,1/2-y,1/2-z
1/4+y,3/4-x,1/4-z
1/2+x,y,1/2-z
1/4-y,1/4+x,3/4-z
1/2-x,1/2+y,z
x,1/2-y,1/2+z
3/4-y,1/4-x,1/4+z
1/4+y,1/4+x,1/4+z
loop_
_atom_site_type_symbol
_atom_site_label
_atom_site_fract_x
_atom_site_fract_y
_atom_site_fract_z
Si Si1 0.972882 0.500000 0.750000
Si Si2 0.835102 0.630242 0.781705
Si Si3 0.307160 0.185253 0.836629
O O1 0.914871 0.585130 0.734669
O O2 0.031393 0.501131 0.665169
O O3 0.831496 0.581496 0.875000
O O4 0.848525 0.732757 0.788089
O O5 0.746966 0.621718 0.726470
O O6 0.386751 0.136751 0.875000
#
# Coordination Sequence:
#
# PCOD8321136 Si02
#       3
#    16  32  32
#     4  10  22  36  58  90 122 160 206 260 318 380
#     4   9  21  41  60  86 123 160 209 263 309 371
#     4  10  22  39  62  89 122 165 209 260 319 375
#
# _framework density 21.252134999999999
#
# number of rings (size 3 to 8) (size 9 to 14) (size 15 to 20)
#    0.000    2.400    0.000    0.000    0.000   23.200 
#    0.000    0.000    0.000    0.000    0.000    0.000 
#    0.000    0.000    0.000    0.000    0.000    0.000 
#
# Total GULP energy -495587.796107 kJ/mol
# GULP energy per Si atom -12389.694903 kJ/mol
# Density = 2.120376 g / cm^3
# Si number density = 21.252135 Si / 1000 Ang^3
#
#
#
# Elastic Constant Matrix: (Units=GPa)
#
#
# Indices 1 2 3 4 5 6 
#
# 1 81.8442 52.9082 53.3399 0.0000 0.0000 0.0000
# 2 52.9082 81.8442 53.3399 0.0000 0.0000 0.0000
# 3 53.3399 53.3399 88.7145 0.0000 0.0000 0.0000
# 4 0.0000 0.0000 0.0000 42.6079 0.0000 0.0000
# 5 0.0000 0.0000 0.0000 0.0000 42.6079 0.0000
# 6 0.0000 0.0000 0.0000 0.0000 0.0000 53.0157
#
#
#
# Elastic Compliance Matrix: (Units=1/GPa)
#
#
# Indices 1 2 3 4 5 6 
#
# 1 0.024361 -0.010198 -0.008515 0.000000 0.000000 0.000000
# 2 -0.010198 0.024361 -0.008515 0.000000 0.000000 0.000000
# 3 -0.008515 -0.008515 0.021512 0.000000 0.000000 0.000000
# 4 0.000000 0.000000 0.000000 0.023470 0.000000 0.000000
# 5 0.000000 0.000000 0.000000 0.000000 0.023470 0.000000
# 6 0.000000 0.000000 0.000000 0.000000 0.000000 0.018862
#
#
# Mechanical properties :
#
#
# Convention : Reuss Voigt Hill
#
# Bulk Modulus (GPa) = 63.38887 63.50877 63.44882
# Shear Modulus (GPa) = 25.54275 33.83396 29.68835
#
# Velocity S-wave (km/s) = 3.47059 3.99435 3.74165
# Velocity P-wave (km/s) = 6.77878 7.15692 6.97041
#
# Compressibility (1/GPa) = 0.01577564
#
# Stress axis : x y z
#
# Youngs Moduli (GPa) = 41.04994 41.04993 46.48671
#
# Poissons Ratio (x) = 0.41864 0.39584
# Poissons Ratio (y) = 0.41864 0.39584
# Poissons Ratio (z) = 0.34954 0.34954
#
# Static dielectric constant tensor:
#      x y z
#    x 4.041800 0.000000 0.000000 
#    y 0.000000 4.041800 0.000000 
#    z 0.000000 0.000000 4.154550 
# 
# 
# High freq. dielectric constant tensor:
#      x y z
#    x 1.822840 0.000000 0.000000 
#    y 0.000000 1.822840 0.000000 
#    z 0.000000 0.000000 1.842690 
# 
# From -- ./inp_files/4661.got.cif
#   From: 2010.03.12/outbox.cif.g09.slc.cpg/sg142_3_cif.got.tgz:4661.got - 2010.04.03 13:27:16.
