data_PCOD8321950
_publ_section_title
;
Structure prediction by ZEFSAII (Michael W. Deem and Ramdas Pophale) SiO2 
 PCOD8321950
Probable space group: P 31 1 2
;
_chemical_formula_sum "Si O2"
_cell_formula_units_Z 27
_cell_length_a 12.727187
_cell_length_b 12.727187
_cell_length_c 10.439533
_cell_angle_alpha 90.000000
_cell_angle_beta 90.000000
_cell_angle_gamma 120.000000
_cell_volume 1464.456762
_symmetry_space_group_name_H-M "P 31 1 2"
_symmetry_group_IT_number 151
_symmetry_cell_setting 'hexagonal'
loop_
_space_group_symop_operation_xyz
x,y,z
-y,x-y,1/3+z
-x+y,-x,2/3+z
-y,-x,2/3-z
-x+y,y,1/3-z
x,x-y,-z
loop_
_atom_site_type_symbol
_atom_site_label
_atom_site_fract_x
_atom_site_fract_y
_atom_site_fract_z
Si Si1 0.969408 0.621804 0.223476
Si Si2 0.640101 0.432879 0.551363
Si Si3 0.143907 0.856094 0.333334
Si Si4 0.944617 0.853882 0.518201
Si Si5 0.766647 0.647054 0.359241
O O1 0.919959 0.479825 0.258590
O O2 0.880004 0.663761 0.279386
O O3 0.099631 0.719170 0.282129
O O4 0.974876 0.637088 0.069058
O O5 0.733934 0.467867 0.666667
O O6 0.592487 0.296244 0.500000
O O7 0.712832 0.524252 0.439278
O O8 0.058640 0.848025 0.454954
O O9 0.908695 0.817390 0.666667
O O10 0.817404 0.765920 0.447295
O O11 0.984380 0.992190 0.500000
#
# Coordination Sequence:
#
# PCOD8321950 Si02
#       5
#     6   6   3   6   6
#     4  10  19  33  50  71 108 148 186 218 273 343
#     4  12  19  32  52  78 116 148 179 228 282 345
#     4  10  22  34  52  74 104 150 190 226 278 346
#     4  11  20  32  49  70 102 137 175 224 274 330
#     4  10  20  31  48  75 105 145 179 218 281 336
#
# _framework density 18.436871
#
# number of rings (size 3 to 8) (size 9 to 14) (size 15 to 20)
#    0.000    1.333    5.556    2.667    3.111    0.000 
#    0.000    0.000    0.000    0.000    0.000    0.000 
#   26.667    0.000   16.000    0.000    0.000    0.000 
#
# Total GULP energy -334502.819071 kJ/mol
# GULP energy per Si atom -12388.993299 kJ/mol
# Density = 1.839491 g / cm^3
# Si number density = 18.436871 Si / 1000 Ang^3
#
#
#
# Elastic Constant Matrix: (Units=GPa)
#
#
# Indices 1 2 3 4 5 6 
#
# 1 62.6216 25.9220 29.6299 0.0001 -3.8932 0.0000
# 2 25.9220 62.6216 29.6299 -0.0001 3.8932 0.0000
# 3 29.6299 29.6299 121.3683 0.0000 0.0000 0.0000
# 4 0.0001 -0.0001 0.0000 13.7667 0.0000 3.8932
# 5 -3.8932 3.8932 0.0000 0.0000 13.7667 0.0001
# 6 0.0000 0.0000 0.0000 3.8932 0.0001 18.3498
#
#
#
# Elastic Compliance Matrix: (Units=1/GPa)
#
#
# Indices 1 2 3 4 5 6 
#
# 1 0.021244 -0.007744 -0.003296 0.000000 0.008198 0.000000
# 2 -0.007744 0.021244 -0.003296 0.000000 -0.008198 0.000000
# 3 -0.003296 -0.003296 0.009849 0.000000 0.000000 0.000000
# 4 0.000000 0.000000 0.000000 0.077276 0.000000 -0.016395
# 5 0.008198 -0.008198 0.000000 0.000000 0.077276 0.000000
# 6 0.000000 0.000000 0.000000 -0.016395 0.000000 0.057975
#
#
# Mechanical properties :
#
#
# Convention : Reuss Voigt Hill
#
# Bulk Modulus (GPa) = 42.25654 46.33059 44.29356
# Shear Modulus (GPa) = 16.58809 19.93860 18.26334
#
# Velocity S-wave (km/s) = 3.00279 3.29211 3.15078
# Velocity P-wave (km/s) = 5.91538 6.29560 6.10845
#
# Compressibility (1/GPa) = 0.02366498
#
# Stress axis : x y z
#
# Youngs Moduli (GPa) = 47.07314 47.07314 101.53774
#
# Poissons Ratio (x) = 0.36453 0.33464
# Poissons Ratio (y) = 0.36453 0.33464
# Poissons Ratio (z) = 0.15514 0.15514
#
# Static dielectric constant tensor:
#      x y z
#    x 3.237590 0.000000 0.000000 
#    y 0.000000 3.237590 0.000000 
#    z 0.000000 0.000000 4.492800 
# 
# 
# High freq. dielectric constant tensor:
#      x y z
#    x 1.679890 0.000000 0.000000 
#    y 0.000000 1.679890 0.000000 
#    z 0.000000 0.000000 1.737440 
# 
# From -- ./inp_files/1496.got.cif
#   From: 2010.03.12/outbox.cif.g09.slc.cpg/sg151_1_cif.got.tgz:1496.got - 2010.04.03 13:42:29.
