data_PCOD8321755
_publ_section_title
;
Structure prediction by ZEFSAII (Michael W. Deem and Ramdas Pophale) SiO2 
 PCOD8321755
Probable space group: R -3
;
_chemical_formula_sum "Si O2"
_cell_formula_units_Z 66
_cell_length_a 10.523034
_cell_length_b 10.523034
_cell_length_c 33.665004
_cell_angle_alpha 90.000000
_cell_angle_beta 90.000000
_cell_angle_gamma 120.000000
_cell_volume 3228.429071
_symmetry_space_group_name_H-M "R -3"
_symmetry_group_IT_number 148
_symmetry_cell_setting 'hexagonal'
loop_
_space_group_symop_operation_xyz
x,y,z
-y,x-y,z
-x+y,-x,z
-x,-y,-z
y,-x+y,-z
x-y,x,-z
2/3+x,1/3+y,1/3+z
2/3-y,1/3+x-y,1/3+z
2/3-x+y,1/3-x,1/3+z
2/3-x,1/3-y,1/3-z
2/3+y,1/3-x+y,1/3-z
2/3+x-y,1/3+x,1/3-z
1/3+x,2/3+y,2/3+z
1/3-y,2/3+x-y,2/3+z
1/3-x+y,2/3-x,2/3+z
1/3-x,2/3-y,2/3-z
1/3+y,2/3-x+y,2/3-z
1/3+x-y,2/3+x,2/3-z
loop_
_atom_site_type_symbol
_atom_site_label
_atom_site_fract_x
_atom_site_fract_y
_atom_site_fract_z
Si Si1 0.000000 0.000000 0.818813
Si Si2 0.329214 0.159106 0.723646
Si Si3 0.947660 0.320909 0.332037
Si Si4 0.166769 0.838124 0.484267
Si Si5 0.666668 0.333334 0.608024
O O1 0.915695 0.830414 0.833213
O O2 0.000000 0.000000 0.772261
O O3 0.374975 0.319362 0.706456
O O4 0.354028 0.164360 0.770335
O O5 0.408092 0.082454 0.700804
O O6 0.161532 0.054552 0.709760
O O7 0.789075 0.191441 0.318860
O O8 0.998759 0.749818 0.497205
#
# Coordination Sequence:
#
# PCOD8321755 Si02
#       5
#     6  18  18  18   6
#     4   9  21  42  69  84 129 178 229 244 328 405
#     4  10  22  40  64  88 127 163 213 254 326 377
#     4  11  23  40  64  94 125 167 210 266 316 379
#     4  11  24  43  66 100 132 172 220 277 326 388
#     4   9  15  39  63  84 114 165 206 260 288 390
#
# _framework density 20.443377999999999
#
# number of rings (size 3 to 8) (size 9 to 14) (size 15 to 20)
#    0.000    1.636    2.727    1.364    3.818    0.000 
#    1.636    0.000    0.000    0.000    0.000    0.000 
#    0.000    0.000    0.000    0.000    0.000    0.000 
#
# Total GULP energy -272728.164110 kJ/mol
# GULP energy per Si atom -12396.734732 kJ/mol
# Density = 2.039685 g / cm^3
# Si number density = 20.443378 Si / 1000 Ang^3
#
#
#
# Elastic Constant Matrix: (Units=GPa)
#
#
# Indices 1 2 3 4 5 6 
#
# 1 117.5274 56.1651 24.6225 -4.0999 -1.1256 0.0003
# 2 56.1651 117.5278 24.6224 4.0995 1.1255 0.0004
# 3 24.6225 24.6224 101.4920 -0.0001 0.0000 0.0002
# 4 -4.0999 4.0995 -0.0001 18.5617 0.0001 1.1256
# 5 -1.1256 1.1255 0.0000 0.0001 18.5618 -4.0997
# 6 0.0003 0.0004 0.0002 1.1256 -4.0997 30.6812
#
#
#
# Elastic Compliance Matrix: (Units=1/GPa)
#
#
# Indices 1 2 3 4 5 6 
#
# 1 0.011507 -0.005324 -0.001500 0.003717 0.001021 0.000000
# 2 -0.005324 0.011507 -0.001500 -0.003717 -0.001021 0.000000
# 3 -0.001500 -0.001500 0.010581 0.000000 0.000000 0.000000
# 4 0.003717 -0.003717 0.000000 0.055640 0.000000 -0.002041
# 5 0.001021 -0.001021 0.000000 0.000000 0.055640 0.007435
# 6 0.000000 0.000000 0.000000 -0.002041 0.007435 0.033662
#
#
# Mechanical properties :
#
#
# Convention : Reuss Voigt Hill
#
# Bulk Modulus (GPa) = 59.01029 60.81857 59.91443
# Shear Modulus (GPa) = 24.89636 28.97009 26.93322
#
# Velocity S-wave (km/s) = 3.49351 3.76851 3.63361
# Velocity P-wave (km/s) = 6.72315 6.98211 6.85385
#
# Compressibility (1/GPa) = 0.01694620
#
# Stress axis : x y z
#
# Youngs Moduli (GPa) = 86.90595 86.90643 94.51115
#
# Poissons Ratio (x) = 0.46270 0.14176
# Poissons Ratio (y) = 0.46270 0.14176
# Poissons Ratio (z) = 0.13035 0.13035
#
# Static dielectric constant tensor:
#      x y z
#    x 3.946900 0.000000 0.000000 
#    y 0.000000 3.946890 0.000010 
#    z 0.000000 0.000010 3.483460 
# 
# 
# High freq. dielectric constant tensor:
#      x y z
#    x 1.806600 0.000000 0.000000 
#    y 0.000000 1.806600 0.000000 
#    z 0.000000 0.000000 1.785900 
# 
# From -- ./inp_files/3909.got.cif
#   From: 2010.03.12/outbox.cif.g09.slc.cpg/sg148_2_cif.got.tgz:3909.got - 2010.04.03 13:38:46.
