data_PCOD8321205
_publ_section_title
;
Structure prediction by ZEFSAII (Michael W. Deem and Ramdas Pophale) SiO2 
 PCOD8321205
Probable space group: I 41/A C D
;
_chemical_formula_sum "Si O2"
_cell_formula_units_Z 80
_cell_length_a 14.912133
_cell_length_b 14.912133
_cell_length_c 15.319927
_cell_angle_alpha 90.000000
_cell_angle_beta 90.000000
_cell_angle_gamma 90.000000
_cell_volume 3406.718373
_symmetry_space_group_name_H-M "I 41/A C D"
_symmetry_group_IT_number 142
_space_group.IT_coordinate_system_code '2'
_symmetry_cell_setting 'tetragonal'
loop_
_space_group_symop_operation_xyz
x,y,z
1/4-y,3/4+x,1/4+z
-x,1/2-y,z
1/4+y,1/4-x,3/4+z
x,-y,1/2-z
1/2-x,y,-z
3/4+y,1/4+x,1/4-z
1/4-y,1/4-x,1/4-z
-x,-y,-z
3/4+y,1/4-x,3/4-z
x,1/2+y,-z
3/4-y,3/4+x,1/4-z
-x,y,1/2+z
1/2+x,-y,z
1/4-y,3/4-x,3/4+z
3/4+y,3/4+x,3/4+z
1/2+x,1/2+y,1/2+z
3/4-y,1/4+x,3/4+z
1/2-x,-y,1/2+z
3/4+y,3/4-x,1/4+z
1/2+x,1/2-y,-z
-x,1/2+y,1/2-z
1/4+y,3/4+x,3/4-z
3/4-y,3/4-x,3/4-z
1/2-x,1/2-y,1/2-z
1/4+y,3/4-x,1/4-z
1/2+x,y,1/2-z
1/4-y,1/4+x,3/4-z
1/2-x,1/2+y,z
x,1/2-y,1/2+z
3/4-y,1/4-x,1/4+z
1/4+y,1/4+x,1/4+z
loop_
_atom_site_type_symbol
_atom_site_label
_atom_site_fract_x
_atom_site_fract_y
_atom_site_fract_z
Si Si1 0.512383 0.602098 0.264322
Si Si2 0.360521 0.889480 0.625000
Si Si3 0.561751 0.063063 0.056748
O O1 0.534489 0.500000 0.250000
O O2 0.430788 0.634673 0.202544
O O3 0.488636 0.614854 0.365680
O O4 0.607144 0.651449 0.245045
O O5 0.256342 0.884511 0.653571
O O6 0.500000 0.000000 0.000000
#
# Coordination Sequence:
#
# PCOD8321205 Si02
#       3
#    32  16  32
#     4  10  24  43  66  98 133 177 229 283 349 422
#     4  10  24  45  68  98 136 179 230 290 354 427
#     4  11  24  41  67  99 136 183 231 289 352 422
#
# _framework density 23.483008999999999
#
# number of rings (size 3 to 8) (size 9 to 14) (size 15 to 20)
#    0.000    1.600    0.000    2.400    0.000   21.600 
#    0.000    0.000    0.000    0.000    0.000    0.000 
#    0.000    0.000    0.000    0.000    0.000    0.000 
#
# Total GULP energy -495754.422487 kJ/mol
# GULP energy per Si atom -12393.860562 kJ/mol
# Density = 2.342956 g / cm^3
# Si number density = 23.483009 Si / 1000 Ang^3
#
#
#
# Elastic Constant Matrix: (Units=GPa)
#
#
# Indices 1 2 3 4 5 6 
#
# 1 115.5668 55.0177 26.9000 0.0000 0.0000 0.0000
# 2 55.0177 115.5670 26.8984 0.0000 0.0000 0.0000
# 3 26.9000 26.8984 108.7295 0.0000 0.0000 0.0000
# 4 0.0000 0.0000 0.0000 28.2477 0.0000 0.0000
# 5 0.0000 0.0000 0.0000 0.0000 28.2464 0.0000
# 6 0.0000 0.0000 0.0000 0.0000 0.0000 52.5051
#
#
#
# Elastic Compliance Matrix: (Units=1/GPa)
#
#
# Indices 1 2 3 4 5 6 
#
# 1 0.011437 -0.005079 -0.001573 0.000000 0.000000 0.000000
# 2 -0.005079 0.011437 -0.001573 0.000000 0.000000 0.000000
# 3 -0.001573 -0.001573 0.009975 0.000000 0.000000 0.000000
# 4 0.000000 0.000000 0.000000 0.035401 0.000000 0.000000
# 5 0.000000 0.000000 0.000000 0.000000 0.035403 0.000000
# 6 0.000000 0.000000 0.000000 0.000000 0.000000 0.019046
#
#
# Mechanical properties :
#
#
# Convention : Reuss Voigt Hill
#
# Bulk Modulus (GPa) = 60.97571 61.94394 61.45983
# Shear Modulus (GPa) = 34.57460 37.20297 35.88878
#
# Velocity S-wave (km/s) = 3.84125 3.98458 3.91357
# Velocity P-wave (km/s) = 6.75987 6.89961 6.83010
#
# Compressibility (1/GPa) = 0.01639997
#
# Stress axis : x y z
#
# Youngs Moduli (GPa) = 87.43588 87.43667 100.24614
#
# Poissons Ratio (x) = 0.44406 0.15770
# Poissons Ratio (y) = 0.44405 0.15767
# Poissons Ratio (z) = 0.13755 0.13753
#
# Static dielectric constant tensor:
#      x y z
#    x 4.542920 0.000000 0.000000 
#    y 0.000000 4.542910 0.000000 
#    z 0.000000 0.000000 5.681630 
# 
# 
# High freq. dielectric constant tensor:
#      x y z
#    x 1.935090 0.000000 0.000000 
#    y 0.000000 1.935090 0.000000 
#    z 0.000000 0.000000 1.931510 
# 
# From -- ./inp_files/8191.got.cif
#   From: 2010.03.12/outbox.cif.g09.slc.cpg/sg142_5_cif.got.tgz:8191.got - 2010.04.03 13:27:16.
