data_PCOD8321923
_publ_section_title
;
Structure prediction by ZEFSAII (Michael W. Deem and Ramdas Pophale) SiO2 
 PCOD8321923
Probable space group: P 31 1 2
;
_chemical_formula_sum "Si O2"
_cell_formula_units_Z 36
_cell_length_a 12.198570
_cell_length_b 12.198570
_cell_length_c 14.052534
_cell_angle_alpha 90.000000
_cell_angle_beta 90.000000
_cell_angle_gamma 120.000000
_cell_volume 1810.936082
_symmetry_space_group_name_H-M "P 31 1 2"
_symmetry_group_IT_number 151
_symmetry_cell_setting 'hexagonal'
loop_
_space_group_symop_operation_xyz
x,y,z
-y,x-y,1/3+z
-x+y,-x,2/3+z
-y,-x,2/3-z
-x+y,y,1/3-z
x,x-y,-z
loop_
_atom_site_type_symbol
_atom_site_label
_atom_site_fract_x
_atom_site_fract_y
_atom_site_fract_z
Si Si1 0.982281 0.671983 0.505781
Si Si2 0.513294 0.001168 0.023074
Si Si3 0.587999 0.903418 0.458897
Si Si4 0.537566 0.253826 0.391313
Si Si5 0.805612 0.870997 0.674207
Si Si6 0.914943 0.243215 0.059581
O O1 0.056125 0.638706 0.423170
O O2 0.942106 0.560495 0.583459
O O3 0.858573 0.665936 0.462170
O O4 0.067610 0.808775 0.556408
O O5 0.618369 0.108271 0.958230
O O6 0.415586 0.899836 0.947380
O O7 0.523324 0.761662 0.500000
O O8 0.721943 0.944068 0.409145
O O9 0.628399 0.001268 0.546606
O O10 0.665186 0.334815 0.333334
O O11 0.571069 0.285535 0.500000
O O12 0.429026 0.283838 0.358334
O O13 0.946263 0.892525 0.666667
O O14 0.812722 0.004808 0.658395
#
# Coordination Sequence:
#
# PCOD8321923 Si02
#       6
#     6   6   6   6   6   6
#     4   9  18  32  51  83 114 151 194 234 280 349
#     4   9  19  31  55  80 117 152 190 238 290 348
#     4   9  17  30  52  83 118 153 196 237 283 348
#     4  11  24  36  53  80 118 154 190 239 300 364
#     4  10  18  31  54  81 120 157 189 234 286 351
#     4  10  20  34  50  78 117 152 196 233 285 352
#
# _framework density 19.879223
#
# number of rings (size 3 to 8) (size 9 to 14) (size 15 to 20)
#    0.000    2.333    1.667    1.000    7.000    0.000 
#    3.000    0.000    0.000    0.000    0.000    0.000 
#  180.000    0.000    0.000    0.000    0.000    0.000 
#
# Total GULP energy -446104.008091 kJ/mol
# GULP energy per Si atom -12391.778003 kJ/mol
# Density = 1.983398 g / cm^3
# Si number density = 19.879223 Si / 1000 Ang^3
#
#
#
# Elastic Constant Matrix: (Units=GPa)
#
#
# Indices 1 2 3 4 5 6 
#
# 1 70.9085 29.4858 47.0967 0.0000 2.1558 0.0000
# 2 29.4858 70.9085 47.0967 0.0000 -2.1558 0.0000
# 3 47.0967 47.0967 137.9860 0.0000 0.0000 0.0000
# 4 0.0000 0.0000 0.0000 29.3168 0.0000 -2.1558
# 5 2.1558 -2.1558 0.0000 0.0000 29.3168 0.0000
# 6 0.0000 0.0000 0.0000 -2.1558 0.0000 20.7113
#
#
#
# Elastic Compliance Matrix: (Units=1/GPa)
#
#
# Indices 1 2 3 4 5 6 
#
# 1 0.019490 -0.004837 -0.005001 0.000000 -0.001789 0.000000
# 2 -0.004837 0.019490 -0.005001 0.000000 0.001789 0.000000
# 3 -0.005001 -0.005001 0.010661 0.000000 0.000000 0.000000
# 4 0.000000 0.000000 0.000000 0.034373 0.000000 0.003578
# 5 -0.001789 0.001789 0.000000 0.000000 0.034373 0.000000
# 6 0.000000 0.000000 0.000000 0.003578 0.000000 0.048655
#
#
# Mechanical properties :
#
#
# Convention : Reuss Voigt Hill
#
# Bulk Modulus (GPa) = 50.09491 58.57352 54.33421
# Shear Modulus (GPa) = 24.58483 26.27722 25.43103
#
# Velocity S-wave (km/s) = 3.52050 3.63966 3.58058
# Velocity P-wave (km/s) = 6.46371 6.86961 6.66975
#
# Compressibility (1/GPa) = 0.01996211
#
# Stress axis : x y z
#
# Youngs Moduli (GPa) = 51.30740 51.30740 93.79815
#
# Poissons Ratio (x) = 0.24818 0.46912
# Poissons Ratio (y) = 0.24818 0.46912
# Poissons Ratio (z) = 0.25661 0.25661
#
# Static dielectric constant tensor:
#      x y z
#    x 3.521040 0.000000 0.000000 
#    y 0.000000 3.521040 0.000000 
#    z 0.000000 0.000000 3.895190 
# 
# 
# High freq. dielectric constant tensor:
#      x y z
#    x 1.752980 0.000000 0.000000 
#    y 0.000000 1.752980 0.000000 
#    z 0.000000 0.000000 1.788360 
# 
# From -- ./inp_files/2915.got.cif
#   From: 2010.03.12/outbox.cif.g09.slc.cpg/sg151_2_cif.got.tgz:2915.got - 2010.04.03 13:42:29.
