data_PCOD8321435
_publ_section_title
;
Structure prediction by ZEFSAII (Michael W. Deem and Ramdas Pophale) SiO2 
 PCOD8321435
Probable space group: P 31
;
_chemical_formula_sum "Si O2"
_cell_formula_units_Z 18
_cell_length_a 9.268420
_cell_length_b 9.268420
_cell_length_c 9.413448
_cell_angle_alpha 90.000000
_cell_angle_beta 90.000000
_cell_angle_gamma 120.000000
_cell_volume 700.310715
_symmetry_space_group_name_H-M "P 31"
_symmetry_group_IT_number 144
_symmetry_cell_setting 'hexagonal'
loop_
_space_group_symop_operation_xyz
x,y,z
-y,x-y,1/3+z
-x+y,-x,2/3+z
loop_
_atom_site_type_symbol
_atom_site_label
_atom_site_fract_x
_atom_site_fract_y
_atom_site_fract_z
Si Si1 0.103136 0.618624 0.620900
Si Si2 0.819262 0.821422 0.782131
Si Si3 0.884378 0.423495 0.109287
Si Si4 0.515586 0.323809 0.148868
Si Si5 0.738553 0.821494 0.474278
Si Si6 0.128536 0.721005 0.305361
O O1 0.184874 0.762811 0.738366
O O2 0.090229 0.697358 0.472316
O O3 0.222016 0.541499 0.603097
O O4 0.918380 0.487321 0.680386
O O5 0.756404 0.625603 0.804687
O O6 0.726709 0.836571 0.643846
O O7 0.769179 0.898205 0.914428
O O8 0.017614 0.925652 0.754593
O O9 0.696340 0.343329 0.163778
O O10 0.917233 0.267107 0.097181
O O11 0.008455 0.549110 0.226611
O O12 0.915515 0.516686 0.959172
#
# Coordination Sequence:
#
# PCOD8321435 Si02
#       6
#     3   3   3   3   3   3
#     4  11  25  47  75 113 154 201 256 318 382 457
#     4  11  26  49  76 113 154 197 252 319 382 452
#     4  12  26  48  77 110 150 202 253 313 382 465
#     4  11  26  48  74 112 157 203 253 309 388 469
#     4  11  26  47  75 109 152 197 250 313 379 447
#     4  12  25  47  79 113 149 198 258 320 379 450
#
# _framework density 25.702877999999998
#
# number of rings (size 3 to 8) (size 9 to 14) (size 15 to 20)
#    0.000    0.667    0.000    7.000    0.000   10.667 
#    0.000    0.000    0.000    2.000    0.000    0.000 
#    0.000    0.000    0.000    0.000    0.000    0.000 
#
# Total GULP energy -223264.849351 kJ/mol
# GULP energy per Si atom -12403.602742 kJ/mol
# Density = 2.564438 g / cm^3
# Si number density = 25.702878 Si / 1000 Ang^3
#
#
#
# Elastic Constant Matrix: (Units=GPa)
#
#
# Indices 1 2 3 4 5 6 
#
# 1 138.1369 64.3795 52.9821 3.0400 -2.7343 0.0000
# 2 64.3795 138.1369 52.9821 -3.0400 2.7343 0.0000
# 3 52.9821 52.9821 161.1931 0.0000 0.0000 0.0000
# 4 3.0400 -3.0400 0.0000 42.7506 0.0000 2.7343
# 5 -2.7343 2.7343 0.0000 0.0000 42.7506 3.0400
# 6 0.0000 0.0000 0.0000 2.7343 3.0400 36.8787
#
#
#
# Elastic Compliance Matrix: (Units=1/GPa)
#
#
# Indices 1 2 3 4 5 6 
#
# 1 0.009833 -0.003870 -0.001960 -0.000974 0.000876 0.000000
# 2 -0.003870 0.009833 -0.001960 0.000974 -0.000876 0.000000
# 3 -0.001960 -0.001960 0.007492 0.000000 0.000000 0.000000
# 4 -0.000974 0.000974 0.000000 0.023642 0.000000 -0.001753
# 5 0.000876 -0.000876 0.000000 0.000000 0.023642 -0.001949
# 6 0.000000 0.000000 0.000000 -0.001753 -0.001949 0.027407
#
#
# Mechanical properties :
#
#
# Convention : Reuss Voigt Hill
#
# Bulk Modulus (GPa) = 86.36506 86.46157 86.41331
# Shear Modulus (GPa) = 41.22359 42.28420 41.75389
#
# Velocity S-wave (km/s) = 4.00916 4.06040 4.03486
# Velocity P-wave (km/s) = 7.42330 7.46287 7.44311
#
# Compressibility (1/GPa) = 0.01157876
#
# Stress axis : x y z
#
# Youngs Moduli (GPa) = 101.69453 101.69453 133.47087
#
# Poissons Ratio (x) = 0.39355 0.26162
# Poissons Ratio (y) = 0.39355 0.26162
# Poissons Ratio (z) = 0.19933 0.19933
#
# Static dielectric constant tensor:
#      x y z
#    x 4.645910 0.000000 0.000000 
#    y 0.000000 4.645910 0.000000 
#    z 0.000000 0.000000 4.862540 
# 
# 
# High freq. dielectric constant tensor:
#      x y z
#    x 2.029940 0.000000 0.000000 
#    y 0.000000 2.029940 0.000000 
#    z 0.000000 0.000000 2.045360 
# 
# From -- ./inp_files/266.got.cif
#   From: 2010.03.12/outbox.cif.g09.slc.cpg/sg144_cif.got.tgz:266.got - 2010.04.03 13:34:42.
