data_PCOD8321529
_publ_section_title
;
Structure prediction by ZEFSAII (Michael W. Deem and Ramdas Pophale) SiO2 
 PCOD8321529
Probable space group: R 3
;
_chemical_formula_sum "Si O2"
_cell_formula_units_Z 21
_cell_length_a 8.505587
_cell_length_b 8.505587
_cell_length_c 16.020906
_cell_angle_alpha 90.000000
_cell_angle_beta 90.000000
_cell_angle_gamma 120.000000
_cell_volume 1003.751683
_symmetry_space_group_name_H-M "R 3"
_symmetry_group_IT_number 146
_symmetry_cell_setting 'hexagonal'
loop_
_space_group_symop_operation_xyz
x,y,z
-y,x-y,z
-x+y,-x,z
2/3+x,1/3+y,1/3+z
2/3-y,1/3+x-y,1/3+z
2/3-x+y,1/3-x,1/3+z
1/3+x,2/3+y,2/3+z
1/3-y,2/3+x-y,2/3+z
1/3-x+y,2/3-x,2/3+z
loop_
_atom_site_type_symbol
_atom_site_label
_atom_site_fract_x
_atom_site_fract_y
_atom_site_fract_z
Si Si1 0.715722 0.715683 0.391530
Si Si2 0.000000 0.000000 0.276171
Si Si3 0.666667 0.333333 0.840239
Si Si4 0.333335 0.666668 0.371235
Si Si5 0.666668 0.333333 0.411820
O O1 0.837522 0.808700 0.473290
O O2 0.521144 0.695855 0.407078
O O3 0.696996 0.521565 0.375972
O O4 0.808522 0.837827 0.309823
O O5 0.000000 0.000000 0.177846
O O6 0.666668 0.333334 0.938558
#
# Coordination Sequence:
#
# PCOD8321529 Si02
#       5
#     9   3   3   3   3
#     4  10  22  38  62  88 114 152 198 232 286 350
#     4  10  22  42  60  85 118 151 191 244 286 334
#     4  10  22  42  60  85 118 151 191 244 286 334
#     4  12  22  40  61  85 120 154 188 241 288 337
#     4  12  22  40  61  85 120 154 188 241 288 337
#
# _framework density 20.921506999999998
#
# number of rings (size 3 to 8) (size 9 to 14) (size 15 to 20)
#    0.000    1.714    0.000    7.714    0.000    0.000 
#    0.000   12.857    0.000    0.000    0.000    0.000 
#    0.000    0.000    0.000    0.000    0.000    0.000 
#
# Total GULP energy -86835.171052 kJ/mol
# GULP energy per Si atom -12405.024436 kJ/mol
# Density = 2.087389 g / cm^3
# Si number density = 20.921507 Si / 1000 Ang^3
#
#
#
# Elastic Constant Matrix: (Units=GPa)
#
#
# Indices 1 2 3 4 5 6 
#
# 1 155.4261 52.7488 -16.6080 1.6273 -0.0066 -0.0001
# 2 52.7488 155.4233 -16.6078 -1.6269 0.0064 -0.0004
# 3 -16.6080 -16.6078 34.9808 -0.0002 -0.0002 0.0006
# 4 1.6273 -1.6269 -0.0002 16.7579 0.0000 0.0064
# 5 -0.0066 0.0064 -0.0002 0.0000 16.7582 1.6269
# 6 -0.0001 -0.0004 0.0006 0.0064 1.6269 51.3370
#
#
#
# Elastic Compliance Matrix: (Units=1/GPa)
#
#
# Indices 1 2 3 4 5 6 
#
# 1 0.007483 -0.002286 0.002468 -0.000949 0.000004 0.000000
# 2 -0.002286 0.007483 0.002468 0.000949 -0.000004 0.000000
# 3 0.002468 0.002468 0.030930 0.000000 0.000000 0.000000
# 4 -0.000949 0.000949 0.000000 0.059858 0.000000 -0.000007
# 5 0.000004 -0.000004 0.000000 0.000000 0.059856 -0.001897
# 6 0.000000 0.000000 0.000000 -0.000007 -0.001897 0.019539
#
#
# Mechanical properties :
#
#
# Convention : Reuss Voigt Hill
#
# Bulk Modulus (GPa) = 19.53302 42.76624 31.14963
# Shear Modulus (GPa) = 25.39139 38.72376 32.05758
#
# Velocity S-wave (km/s) = 3.48753 4.30688 3.91868
# Velocity P-wave (km/s) = 5.05705 6.72443 5.94944
#
# Compressibility (1/GPa) = 0.05119535
#
# Stress axis : x y z
#
# Youngs Moduli (GPa) = 133.62974 133.62740 32.33087
#
# Poissons Ratio (x) = 0.30547 -0.07978
# Poissons Ratio (y) = 0.30548 -0.07978
# Poissons Ratio (z) = -0.32974 -0.32974
#
# Static dielectric constant tensor:
#      x y z
#    x 3.969930 0.000010 0.000030 
#    y 0.000010 3.970000 -0.000110 
#    z 0.000030 -0.000110 3.994140 
# 
# 
# High freq. dielectric constant tensor:
#      x y z
#    x 1.836270 0.000000 0.000000 
#    y 0.000000 1.836270 0.000000 
#    z 0.000000 0.000000 1.798630 
# 
# From -- ./inp_files/1591.got.cif
#   From: 2010.06.25/outbox.cif.g09.slc.cpg/sg146_cif.got.tgz:1591.got - 2010.06.28 11:17:22.
