data_PCOD8321651
_publ_section_title
;
Structure prediction by ZEFSAII (Michael W. Deem and Ramdas Pophale) SiO2 
 PCOD8321651
Probable space group: P -3
;
_chemical_formula_sum "Si O2"
_cell_formula_units_Z 36
_cell_length_a 11.446948
_cell_length_b 11.446948
_cell_length_c 14.932475
_cell_angle_alpha 90.000000
_cell_angle_beta 90.000000
_cell_angle_gamma 120.000000
_cell_volume 1694.501072
_symmetry_space_group_name_H-M "P -3"
_symmetry_group_IT_number 147
_symmetry_cell_setting 'hexagonal'
loop_
_space_group_symop_operation_xyz
x,y,z
-y,x-y,z
-x+y,-x,z
-x,-y,-z
y,-x+y,-z
x-y,x,-z
loop_
_atom_site_type_symbol
_atom_site_label
_atom_site_fract_x
_atom_site_fract_y
_atom_site_fract_z
Si Si1 0.487443 0.814136 0.388991
Si Si2 0.272365 0.989454 0.911029
Si Si3 0.265450 0.255253 0.893103
Si Si4 0.052599 0.768291 0.524837
Si Si5 0.627721 0.052185 0.262565
Si Si6 0.612479 0.911811 0.710617
O O1 0.339036 0.802389 0.386904
O O2 0.569586 0.889786 0.477994
O O3 0.572592 0.903025 0.304052
O O4 0.280317 0.126000 0.880467
O O5 0.112984 0.885930 0.901718
O O6 0.365895 0.958762 0.845380
O O7 0.325734 0.990006 0.011941
O O8 0.332845 0.340794 0.804209
O O9 0.005925 0.709549 0.625417
O O10 0.924460 0.755599 0.473269
O O11 0.539371 0.116847 0.296811
O O12 0.777386 0.155601 0.294399
#
# Coordination Sequence:
#
# PCOD8321651 Si02
#       6
#     6   6   6   6   6   6
#     4  10  25  43  66  92 126 165 221 259 306 375
#     4   9  19  36  62  91 127 156 210 255 317 372
#     4   9  19  36  60  93 120 165 200 263 310 377
#     4  12  26  44  65  95 129 166 211 263 318 370
#     4  11  23  42  62  95 124 168 210 261 310 377
#     4  11  25  39  65  87 127 167 212 257 317 376
#
# _framework density 21.245191999999999
#
# number of rings (size 3 to 8) (size 9 to 14) (size 15 to 20)
#    0.333    1.333    1.667    1.833    7.000    3.333 
#    0.000    0.000    0.000    0.000    0.000    0.000 
#    0.000    0.000    0.000    0.000    0.000    0.000 
#
# Total GULP energy -446091.244631 kJ/mol
# GULP energy per Si atom -12391.423462 kJ/mol
# Density = 2.119684 g / cm^3
# Si number density = 21.245192 Si / 1000 Ang^3
#
#
#
# Elastic Constant Matrix: (Units=GPa)
#
#
# Indices 1 2 3 4 5 6 
#
# 1 76.7773 22.9575 37.2286 -0.1896 0.7609 0.0000
# 2 22.9575 76.7773 37.2286 0.1896 -0.7609 0.0000
# 3 37.2286 37.2286 143.0258 0.0000 0.0000 0.0000
# 4 -0.1896 0.1896 0.0000 19.8060 0.0000 -0.7609
# 5 0.7609 -0.7609 0.0000 0.0000 19.8060 -0.1896
# 6 0.0000 0.0000 0.0000 -0.7609 -0.1896 26.9099
#
#
#
# Elastic Compliance Matrix: (Units=1/GPa)
#
#
# Indices 1 2 3 4 5 6 
#
# 1 0.015523 -0.003079 -0.003239 0.000178 -0.000715 0.000000
# 2 -0.003079 0.015523 -0.003239 -0.000178 0.000715 0.000000
# 3 -0.003239 -0.003239 0.008678 0.000000 0.000000 0.000000
# 4 0.000178 -0.000178 0.000000 0.050548 0.000000 0.001429
# 5 -0.000715 0.000715 0.000000 0.000000 0.050548 0.000356
# 6 0.000000 0.000000 0.000000 0.001429 0.000356 0.037204
#
#
# Mechanical properties :
#
#
# Convention : Reuss Voigt Hill
#
# Bulk Modulus (GPa) = 48.51867 54.60111 51.55989
# Shear Modulus (GPa) = 24.50864 26.58209 25.54537
#
# Velocity S-wave (km/s) = 3.40017 3.54108 3.47134
# Velocity P-wave (km/s) = 6.18885 6.51730 6.35520
#
# Compressibility (1/GPa) = 0.02061062
#
# Stress axis : x y z
#
# Youngs Moduli (GPa) = 64.41868 64.41868 115.23271
#
# Poissons Ratio (x) = 0.19831 0.37328
# Poissons Ratio (y) = 0.19831 0.37328
# Poissons Ratio (z) = 0.20867 0.20867
#
# Static dielectric constant tensor:
#      x y z
#    x 3.638220 0.000000 0.000000 
#    y 0.000000 3.638220 0.000000 
#    z 0.000000 0.000000 4.128190 
# 
# 
# High freq. dielectric constant tensor:
#      x y z
#    x 1.823780 0.000000 0.000000 
#    y 0.000000 1.823780 0.000000 
#    z 0.000000 0.000000 1.846000 
# 
# From -- ./inp_files/938.got.cif
#   From: 2010.03.12/outbox.cif.g09.slc.cpg/sg147_cif.got.tgz:938.got - 2010.04.03 13:37:56.
