data_PCOD8321531
_publ_section_title
;
Structure prediction by ZEFSAII (Michael W. Deem and Ramdas Pophale) SiO2 
 PCOD8321531
Probable space group: R 3
;
_chemical_formula_sum "Si O2"
_cell_formula_units_Z 36
_cell_length_a 7.960997
_cell_length_b 7.960997
_cell_length_c 31.204646
_cell_angle_alpha 90.000000
_cell_angle_beta 90.000000
_cell_angle_gamma 120.000000
_cell_volume 1712.713860
_symmetry_space_group_name_H-M "R 3"
_symmetry_group_IT_number 146
_symmetry_cell_setting 'hexagonal'
loop_
_space_group_symop_operation_xyz
x,y,z
-y,x-y,z
-x+y,-x,z
2/3+x,1/3+y,1/3+z
2/3-y,1/3+x-y,1/3+z
2/3-x+y,1/3-x,1/3+z
1/3+x,2/3+y,2/3+z
1/3-y,2/3+x-y,2/3+z
1/3-x+y,2/3-x,2/3+z
loop_
_atom_site_type_symbol
_atom_site_label
_atom_site_fract_x
_atom_site_fract_y
_atom_site_fract_z
Si Si1 0.883109 0.547115 0.677230
Si Si2 0.880449 0.549776 0.092679
Si Si3 0.661348 0.115554 0.509617
Si Si4 0.545794 0.884446 0.593625
O O1 0.668969 0.525603 0.677712
O O2 0.006010 0.666666 0.718288
O O3 0.996099 0.661258 0.634914
O O4 0.664365 0.523301 0.092197
O O5 0.994591 0.662765 0.134995
O O6 0.854862 0.327675 0.509380
O O7 0.660584 0.000000 0.551621
O O8 0.327675 0.854862 0.593862
#
# Coordination Sequence:
#
# PCOD8321531 Si02
#       4
#     9   9   9   9
#     4  10  24  39  64  90 131 161 214 253 314 366
#     4  10  24  39  64  90 131 161 214 253 314 366
#     4  10  22  38  66  89 125 164 210 250 314 367
#     4  10  22  38  66  89 125 164 210 250 314 367
#
# _framework density 21.019273999999999
#
# number of rings (size 3 to 8) (size 9 to 14) (size 15 to 20)
#    2.000    0.000    0.000    3.000    7.000    0.000 
#    0.000    0.000    0.000    4.000    0.000    0.000 
#    0.000    0.000    0.000    0.000    0.000    0.000 
#
# Total GULP energy -148685.275875 kJ/mol
# GULP energy per Si atom -12390.439656 kJ/mol
# Density = 2.097143 g / cm^3
# Si number density = 21.019274 Si / 1000 Ang^3
#
#
#
# Elastic Constant Matrix: (Units=GPa)
#
#
# Indices 1 2 3 4 5 6 
#
# 1 47.6455 -9.1012 29.1449 -11.3762 -0.0001 0.0000
# 2 -9.1012 47.6455 29.1449 11.3762 0.0001 0.0000
# 3 29.1449 29.1449 208.8292 0.0000 0.0000 0.0000
# 4 -11.3762 11.3762 0.0000 39.2798 0.0000 0.0001
# 5 -0.0001 0.0001 0.0000 0.0000 39.2798 -11.3762
# 6 0.0000 0.0000 0.0000 0.0001 -11.3762 28.3733
#
#
#
# Elastic Compliance Matrix: (Units=1/GPa)
#
#
# Indices 1 2 3 4 5 6 
#
# 1 0.026411 0.006474 -0.004590 0.005774 0.000000 0.000000
# 2 0.006474 0.026411 -0.004590 -0.005774 0.000000 0.000000
# 3 -0.004590 -0.004590 0.006070 0.000000 0.000000 0.000000
# 4 0.005774 -0.005774 0.000000 0.028803 0.000000 0.000000
# 5 0.000000 0.000000 0.000000 0.000000 0.028803 0.011548
# 6 0.000000 0.000000 0.000000 0.000000 0.011548 0.039875
#
#
# Mechanical properties :
#
#
# Convention : Reuss Voigt Hill
#
# Bulk Modulus (GPa) = 18.69815 44.72195 31.71005
# Shear Modulus (GPa) = 27.83805 38.38203 33.11004
#
# Velocity S-wave (km/s) = 3.64319 4.27785 3.97321
# Velocity P-wave (km/s) = 5.15869 6.76187 6.01394
#
# Compressibility (1/GPa) = 0.05348124
#
# Stress axis : x y z
#
# Youngs Moduli (GPa) = 37.86288 37.86288 164.75378
#
# Poissons Ratio (x) = -0.24511 0.75614
# Poissons Ratio (y) = -0.24511 0.75614
# Poissons Ratio (z) = 0.17377 0.17377
#
# Static dielectric constant tensor:
#      x y z
#    x 3.431800 0.000000 0.000000 
#    y 0.000000 3.431800 0.000000 
#    z 0.000000 0.000000 3.641000 
# 
# 
# High freq. dielectric constant tensor:
#      x y z
#    x 1.797670 0.000000 0.000000 
#    y 0.000000 1.797670 0.000000 
#    z 0.000000 0.000000 1.835660 
# 
# From -- ./inp_files/2193.got.cif
#   From: 2010.06.25/outbox.cif.g09.slc.cpg/sg146_cif.got.tgz:2193.got - 2010.06.28 11:17:22.
