data_PCOD8321546
_publ_section_title
;
Structure prediction by ZEFSAII (Michael W. Deem and Ramdas Pophale) SiO2 
 PCOD8321546
Probable space group: R 3
;
_chemical_formula_sum "Si O2"
_cell_formula_units_Z 36
_cell_length_a 10.457555
_cell_length_b 10.457555
_cell_length_c 13.278570
_cell_angle_alpha 90.000000
_cell_angle_beta 90.000000
_cell_angle_gamma 120.000000
_cell_volume 1257.599204
_symmetry_space_group_name_H-M "R 3"
_symmetry_group_IT_number 146
_symmetry_cell_setting 'hexagonal'
loop_
_space_group_symop_operation_xyz
x,y,z
-y,x-y,z
-x+y,-x,z
2/3+x,1/3+y,1/3+z
2/3-y,1/3+x-y,1/3+z
2/3-x+y,1/3-x,1/3+z
1/3+x,2/3+y,2/3+z
1/3-y,2/3+x-y,2/3+z
1/3-x+y,2/3-x,2/3+z
loop_
_atom_site_type_symbol
_atom_site_label
_atom_site_fract_x
_atom_site_fract_y
_atom_site_fract_z
Si Si1 0.814165 0.950581 0.049070
Si Si2 0.585913 0.926859 0.497783
Si Si3 0.325720 0.919246 0.390524
Si Si4 0.950581 0.136416 0.505904
O O1 0.880339 0.839219 0.057835
O O2 0.698401 0.938596 0.140389
O O3 0.738676 0.932080 0.940986
O O4 0.480553 0.927738 0.408337
O O5 0.594404 0.780518 0.479971
O O6 0.265413 0.860070 0.280655
O O7 0.301599 0.061404 0.414585
O O8 0.119661 0.160781 0.497139
#
# Coordination Sequence:
#
# PCOD8321546 Si02
#       4
#     9   9   9   9
#     4  10  24  46  67 103 140 177 231 282 341 410
#     4  12  22  43  72 102 137 181 229 283 342 409
#     4  12  22  43  72 102 137 181 229 283 342 409
#     4  10  24  46  67 103 140 177 231 282 341 410
#
# _framework density 28.625972999999998
#
# number of rings (size 3 to 8) (size 9 to 14) (size 15 to 20)
#    1.000    0.000    5.000    2.000    0.000    2.000 
#    0.000    0.000    0.000    3.000    0.000    0.000 
#    0.000    0.000    0.000    0.000    0.000    0.000 
#
# Total GULP energy -148844.820584 kJ/mol
# GULP energy per Si atom -12403.735049 kJ/mol
# Density = 2.856082 g / cm^3
# Si number density = 28.625973 Si / 1000 Ang^3
#
#
#
# Elastic Constant Matrix: (Units=GPa)
#
#
# Indices 1 2 3 4 5 6 
#
# 1 109.7117 45.6735 23.1859 6.3398 0.9950 0.0000
# 2 45.6735 109.7117 23.1859 -6.3398 -0.9950 0.0000
# 3 23.1859 23.1859 112.9296 0.0000 0.0000 0.0000
# 4 6.3398 -6.3398 0.0000 57.8207 0.0000 -0.9950
# 5 0.9950 -0.9950 0.0000 0.0000 57.8207 6.3398
# 6 0.0000 0.0000 0.0000 -0.9950 6.3398 32.0191
#
#
#
# Elastic Compliance Matrix: (Units=1/GPa)
#
#
# Indices 1 2 3 4 5 6 
#
# 1 0.011413 -0.004558 -0.001408 -0.001751 -0.000275 0.000000
# 2 -0.004558 0.011413 -0.001408 0.001751 0.000275 0.000000
# 3 -0.001408 -0.001408 0.009433 0.000000 0.000000 0.000000
# 4 -0.001751 0.001751 0.000000 0.017688 0.000000 0.000550
# 5 -0.000275 0.000275 0.000000 0.000000 0.017688 -0.003502
# 6 0.000000 0.000000 0.000000 0.000550 -0.003502 0.031942
#
#
# Mechanical properties :
#
#
# Convention : Reuss Voigt Hill
#
# Bulk Modulus (GPa) = 57.09659 57.38261 57.23960
# Shear Modulus (GPa) = 41.61060 45.55265 43.58163
#
# Velocity S-wave (km/s) = 3.81674 3.99344 3.90609
# Velocity P-wave (km/s) = 6.27793 6.43060 6.35472
#
# Compressibility (1/GPa) = 0.01751418
#
# Stress axis : x y z
#
# Youngs Moduli (GPa) = 87.61704 87.61704 106.01019
#
# Poissons Ratio (x) = 0.39933 0.14922
# Poissons Ratio (y) = 0.39933 0.14922
# Poissons Ratio (z) = 0.12333 0.12333
#
# Static dielectric constant tensor:
#      x y z
#    x 6.033680 0.000000 0.000000 
#    y 0.000000 6.033680 0.000000 
#    z 0.000000 0.000000 4.368360 
# 
# 
# High freq. dielectric constant tensor:
#      x y z
#    x 2.241260 0.000000 0.000000 
#    y 0.000000 2.241260 0.000000 
#    z 0.000000 0.000000 2.131210 
# 
# From -- ./inp_files/1628.got.cif
#   From: 2010.06.25/outbox.cif.g09.slc.cpg/sg146_cif.got.tgz:1628.got - 2010.06.28 11:17:22.
