data_PCOD8321900
_publ_section_title
;
Structure prediction by ZEFSAII (Michael W. Deem and Ramdas Pophale) SiO2 
 PCOD8321900
Probable space group: P 3 2 1
;
_chemical_formula_sum "Si O2"
_cell_formula_units_Z 18
_cell_length_a 7.930784
_cell_length_b 7.930784
_cell_length_c 15.599975
_cell_angle_alpha 90.000000
_cell_angle_beta 90.000000
_cell_angle_gamma 120.000000
_cell_volume 849.741399
_symmetry_space_group_name_H-M "P 3 2 1"
_symmetry_group_IT_number 150
_symmetry_cell_setting 'hexagonal'
loop_
_space_group_symop_operation_xyz
x,y,z
-y,x-y,z
-x+y,-x,z
x-y,-y,-z
-x,-x+y,-z
y,x,-z
loop_
_atom_site_type_symbol
_atom_site_label
_atom_site_fract_x
_atom_site_fract_y
_atom_site_fract_z
Si Si1 0.449712 0.331308 0.582651
Si Si2 0.782744 0.997328 0.250000
Si Si3 0.881597 0.550287 0.917348
O O1 0.475695 0.140611 0.582169
O O2 0.327774 0.327774 0.500000
O O3 0.334996 0.333155 0.666743
O O4 0.665006 0.998161 0.166742
O O5 0.809789 0.806431 0.250000
O O6 0.664918 0.524306 0.917830
O O7 0.000000 0.672222 0.000000
#
# Coordination Sequence:
#
# PCOD8321900 Si02
#       3
#     6   6   6
#     4  10  24  41  65  94 132 166 213 268 318 383
#     4  10  24  38  68  86 124 170 216 258 322 380
#     4  10  24  41  65  94 132 166 213 268 318 383
#
# _framework density 21.182917
#
# number of rings (size 3 to 8) (size 9 to 14) (size 15 to 20)
#    2.000    0.000    0.000    2.000    9.333    0.000 
#    0.000    0.000    0.000    0.000    0.000    0.000 
#    0.000    0.000    0.000    0.000    0.000    0.000 
#
# Total GULP energy -223030.293933 kJ/mol
# GULP energy per Si atom -12390.571885 kJ/mol
# Density = 2.113470 g / cm^3
# Si number density = 21.182917 Si / 1000 Ang^3
#
#
#
# Elastic Constant Matrix: (Units=GPa)
#
#
# Indices 1 2 3 4 5 6 
#
# 1 57.4401 11.1631 44.5335 0.0001 0.0000 0.0000
# 2 11.1631 57.4401 44.5335 -0.0001 0.0000 0.0000
# 3 44.5335 44.5335 224.8782 0.0000 0.0000 0.0000
# 4 0.0001 -0.0001 0.0000 41.0362 0.0000 0.0000
# 5 0.0000 0.0000 0.0000 0.0000 41.0362 0.0001
# 6 0.0000 0.0000 0.0000 0.0000 0.0001 23.1385
#
#
#
# Elastic Compliance Matrix: (Units=1/GPa)
#
#
# Indices 1 2 3 4 5 6 
#
# 1 0.020615 -0.000994 -0.003886 0.000000 0.000000 0.000000
# 2 -0.000994 0.020615 -0.003886 0.000000 0.000000 0.000000
# 3 -0.003886 -0.003886 0.005986 0.000000 0.000000 0.000000
# 4 0.000000 0.000000 0.000000 0.024369 0.000000 0.000000
# 5 0.000000 0.000000 0.000000 0.000000 0.024369 0.000000
# 6 0.000000 0.000000 0.000000 0.000000 0.000000 0.043218
#
#
# Mechanical properties :
#
#
# Convention : Reuss Voigt Hill
#
# Bulk Modulus (GPa) = 33.68616 60.02427 46.85522
# Shear Modulus (GPa) = 30.01245 37.01071 33.51158
#
# Velocity S-wave (km/s) = 3.76815 4.18448 3.98176
# Velocity P-wave (km/s) = 5.90500 7.19334 6.58078
#
# Compressibility (1/GPa) = 0.02968578
#
# Stress axis : x y z
#
# Youngs Moduli (GPa) = 48.50792 48.50792 167.06076
#
# Poissons Ratio (x) = 0.04821 0.64915
# Poissons Ratio (y) = 0.04821 0.64915
# Poissons Ratio (z) = 0.18849 0.18849
#
# Static dielectric constant tensor:
#      x y z
#    x 3.466550 0.000000 0.000000 
#    y 0.000000 3.466550 0.000000 
#    z 0.000000 0.000000 3.679310 
# 
# 
# High freq. dielectric constant tensor:
#      x y z
#    x 1.806140 0.000000 0.000000 
#    y 0.000000 1.806140 0.000000 
#    z 0.000000 0.000000 1.841730 
# 
# From -- ./inp_files/850.got.cif
#   From: 2010.03.12/outbox.cif.g09.slc.cpg/sg150_cif.got.tgz:850.got - 2010.04.03 13:41:37.
