data_PCOD8321375
_publ_section_title
;
Structure prediction by ZEFSAII (Michael W. Deem and Ramdas Pophale) SiO2 
 PCOD8321375
Probable space group: P 31
;
_chemical_formula_sum "Si O2"
_cell_formula_units_Z 18
_cell_length_a 12.297677
_cell_length_b 12.297677
_cell_length_c 7.444266
_cell_angle_alpha 90.000000
_cell_angle_beta 90.000000
_cell_angle_gamma 120.000000
_cell_volume 974.986672
_symmetry_space_group_name_H-M "P 31"
_symmetry_group_IT_number 144
_symmetry_cell_setting 'hexagonal'
loop_
_space_group_symop_operation_xyz
x,y,z
-y,x-y,1/3+z
-x+y,-x,2/3+z
loop_
_atom_site_type_symbol
_atom_site_label
_atom_site_fract_x
_atom_site_fract_y
_atom_site_fract_z
Si Si1 0.475463 0.337264 0.841390
Si Si2 0.524537 0.861801 0.054397
Si Si3 0.438912 0.144093 0.576188
Si Si4 0.513745 0.278756 0.215605
Si Si5 0.486255 0.765011 0.680182
Si Si6 0.144093 0.438912 0.986266
O O1 0.442479 0.442479 0.781227
O O2 0.399619 0.219357 0.711545
O O3 0.624085 0.395635 0.812490
O O4 0.435370 0.287269 0.046392
O O5 0.375915 0.771551 0.083297
O O6 0.600381 0.819739 0.184241
O O7 0.564630 0.851899 0.849395
O O8 0.426773 0.185243 0.372874
O O9 0.579668 0.175213 0.621939
O O10 0.342638 1.000000 0.614560
O O11 0.573227 0.758470 0.522912
O O12 0.404455 0.824787 0.607181
#
# Coordination Sequence:
#
# PCOD8321375 Si02
#       6
#     3   3   3   3   3   3
#     4  11  22  37  58  87 123 161 203 255 316 376
#     4  11  22  37  58  87 123 161 203 255 316 376
#     4  11  22  37  58  87 123 161 203 255 316 376
#     4  10  22  34  56  84 124 156 194 254 316 370
#     4  10  22  34  56  84 124 156 194 254 316 370
#     4  11  22  37  58  87 123 161 203 255 316 376
#
# _framework density 18.461791999999999
#
# number of rings (size 3 to 8) (size 9 to 14) (size 15 to 20)
#    0.000    1.333    6.667    0.000   18.667    0.000 
#    0.000    0.000    0.000    0.000    8.667    0.000 
#    0.000    0.000    0.000    0.000    0.000    0.000 
#
# Total GULP energy -223096.296850 kJ/mol
# GULP energy per Si atom -12394.238714 kJ/mol
# Density = 1.841977 g / cm^3
# Si number density = 18.461792 Si / 1000 Ang^3
#
#
#
# Elastic Constant Matrix: (Units=GPa)
#
#
# Indices 1 2 3 4 5 6 
#
# 1 41.1861 -1.9605 16.1449 0.7261 0.0000 0.0000
# 2 -1.9605 41.1861 16.1449 -0.7261 0.0000 0.0000
# 3 16.1449 16.1449 137.9613 0.0000 0.0000 0.0000
# 4 0.7261 -0.7261 0.0000 27.1350 0.0000 0.0000
# 5 0.0000 0.0000 0.0000 0.0000 27.1350 0.7261
# 6 0.0000 0.0000 0.0000 0.0000 0.7261 21.5733
#
#
#
# Elastic Compliance Matrix: (Units=1/GPa)
#
#
# Indices 1 2 3 4 5 6 
#
# 1 0.025704 0.002507 -0.003301 -0.000621 0.000000 0.000000
# 2 0.002507 0.025704 -0.003301 0.000621 0.000000 0.000000
# 3 -0.003301 -0.003301 0.008021 0.000000 0.000000 0.000000
# 4 -0.000621 0.000621 0.000000 0.036886 0.000000 0.000000
# 5 0.000000 0.000000 0.000000 0.000000 0.036886 -0.001241
# 6 0.000000 0.000000 0.000000 0.000000 -0.001241 0.046395
#
#
# Mechanical properties :
#
#
# Convention : Reuss Voigt Hill
#
# Bulk Modulus (GPa) = 19.51682 31.22137 25.36910
# Shear Modulus (GPa) = 24.40585 27.83560 26.12073
#
# Velocity S-wave (km/s) = 3.63983 3.88718 3.76553
# Velocity P-wave (km/s) = 5.31591 6.09056 5.71637
#
# Compressibility (1/GPa) = 0.05123786
#
# Stress axis : x y z
#
# Youngs Moduli (GPa) = 38.90373 38.90373 124.67109
#
# Poissons Ratio (x) = -0.09752 0.41159
# Poissons Ratio (y) = -0.09752 0.41159
# Poissons Ratio (z) = 0.12844 0.12844
#
# Static dielectric constant tensor:
#      x y z
#    x 3.083510 0.000000 0.000000 
#    y 0.000000 3.083510 0.000000 
#    z 0.000000 0.000000 3.762310 
# 
# 
# High freq. dielectric constant tensor:
#      x y z
#    x 1.678490 0.000000 0.000000 
#    y 0.000000 1.678490 0.000000 
#    z 0.000000 0.000000 1.743060 
# 
# From -- ./inp_files/362.got.cif
#   From: 2010.03.12/outbox.cif.g09.slc.cpg/sg144_cif.got.tgz:362.got - 2010.04.03 13:34:42.
