data_PCOD8321172
_publ_section_title
;
Structure prediction by ZEFSAII (Michael W. Deem and Ramdas Pophale) SiO2 
 PCOD8321172
Probable space group: I 41/A C D
;
_chemical_formula_sum "Si O2"
_cell_formula_units_Z 176
_cell_length_a 17.605888
_cell_length_b 17.605888
_cell_length_c 25.837357
_cell_angle_alpha 90.000000
_cell_angle_beta 90.000000
_cell_angle_gamma 90.000000
_cell_volume 8008.735589
_symmetry_space_group_name_H-M "I 41/A C D"
_symmetry_group_IT_number 142
_space_group.IT_coordinate_system_code '2'
_symmetry_cell_setting 'tetragonal'
loop_
_space_group_symop_operation_xyz
x,y,z
1/4-y,3/4+x,1/4+z
-x,1/2-y,z
1/4+y,1/4-x,3/4+z
x,-y,1/2-z
1/2-x,y,-z
3/4+y,1/4+x,1/4-z
1/4-y,1/4-x,1/4-z
-x,-y,-z
3/4+y,1/4-x,3/4-z
x,1/2+y,-z
3/4-y,3/4+x,1/4-z
-x,y,1/2+z
1/2+x,-y,z
1/4-y,3/4-x,3/4+z
3/4+y,3/4+x,3/4+z
1/2+x,1/2+y,1/2+z
3/4-y,1/4+x,3/4+z
1/2-x,-y,1/2+z
3/4+y,3/4-x,1/4+z
1/2+x,1/2-y,-z
-x,1/2+y,1/2-z
1/4+y,3/4+x,3/4-z
3/4-y,3/4-x,3/4-z
1/2-x,1/2-y,1/2-z
1/4+y,3/4-x,1/4-z
1/2+x,y,1/2-z
1/4-y,1/4+x,3/4-z
1/2-x,1/2+y,z
x,1/2-y,1/2+z
3/4-y,1/4-x,1/4+z
1/4+y,1/4+x,1/4+z
loop_
_atom_site_type_symbol
_atom_site_label
_atom_site_fract_x
_atom_site_fract_y
_atom_site_fract_z
Si Si1 0.204187 0.852368 0.613929
Si Si2 0.604717 0.683177 0.477256
Si Si3 0.605415 0.308380 0.207057
Si Si4 0.962165 0.112062 0.659803
Si Si5 0.275991 0.974010 0.125000
Si Si6 0.117985 0.572719 0.286519
O O1 0.175512 0.845961 0.555512
O O2 0.140972 0.814946 0.650445
O O3 0.286289 0.813411 0.620332
O O4 0.208125 0.938431 0.629521
O O5 0.529352 0.633603 0.470771
O O6 0.586742 0.768776 0.459483
O O7 0.630144 0.669960 0.535817
O O8 0.648014 0.360078 0.249365
O O9 0.936346 0.186346 0.625000
O O10 0.051197 0.103398 0.674861
O O11 0.308795 0.939811 0.072403
O O12 0.093819 0.500000 0.250000
#
# Coordination Sequence:
#
# PCOD8321172 Si02
#       6
#    32  32  32  32  16  32
#     4  12  23  43  66  99 134 177 226 281 343 403
#     4  10  23  42  70 100 133 173 224 295 338 410
#     4  10  22  43  69 101 128 175 230 282 342 418
#     4  11  25  44  68  98 134 179 225 281 345 407
#     4  12  28  40  65  98 136 183 220 286 338 412
#     4  11  24  47  68  96 140 185 228 278 356 417
#
# _framework density 21.976004
#
# number of rings (size 3 to 8) (size 9 to 14) (size 15 to 20)
#    0.000    1.091    2.727    3.818    5.091    4.364 
#    0.000    1.818    0.000    0.000    0.000    0.000 
#    0.000    0.000    0.000    0.000    0.000    0.000 
#
# Total GULP energy -1090785.976461 kJ/mol
# GULP energy per Si atom -12395.295187 kJ/mol
# Density = 2.192599 g / cm^3
# Si number density = 21.976004 Si / 1000 Ang^3
#
#
#
# Elastic Constant Matrix: (Units=GPa)
#
#
# Indices 1 2 3 4 5 6 
#
# 1 59.4495 -4.8076 12.0682 0.0000 0.0000 0.0000
# 2 -4.8076 59.4496 12.0677 0.0000 0.0000 0.0000
# 3 12.0682 12.0677 101.8353 0.0000 0.0000 0.0000
# 4 0.0000 0.0000 0.0000 44.3322 0.0000 0.0000
# 5 0.0000 0.0000 0.0000 0.0000 44.3325 0.0000
# 6 0.0000 0.0000 0.0000 0.0000 0.0000 23.7589
#
#
#
# Elastic Compliance Matrix: (Units=1/GPa)
#
#
# Indices 1 2 3 4 5 6 
#
# 1 0.017437 0.001875 -0.002289 0.000000 0.000000 0.000000
# 2 0.001875 0.017437 -0.002289 0.000000 0.000000 0.000000
# 3 -0.002289 -0.002289 0.010362 0.000000 0.000000 0.000000
# 4 0.000000 0.000000 0.000000 0.022557 0.000000 0.000000
# 5 0.000000 0.000000 0.000000 0.000000 0.022557 0.000000
# 6 0.000000 0.000000 0.000000 0.000000 0.000000 0.042090
#
#
# Mechanical properties :
#
#
# Convention : Reuss Voigt Hill
#
# Bulk Modulus (GPa) = 25.10564 28.82122 26.96343
# Shear Modulus (GPa) = 33.08589 35.91179 34.49884
#
# Velocity S-wave (km/s) = 3.88435 4.04683 3.96642
# Velocity P-wave (km/s) = 5.61840 5.91431 5.76826
#
# Compressibility (1/GPa) = 0.03983169
#
# Stress axis : x y z
#
# Youngs Moduli (GPa) = 57.34871 57.34895 96.50476
#
# Poissons Ratio (x) = -0.10751 0.22086
# Poissons Ratio (y) = -0.10751 0.22085
# Poissons Ratio (z) = 0.13125 0.13124
#
# Static dielectric constant tensor:
#      x y z
#    x 3.952690 0.000000 0.000000 
#    y 0.000000 3.952680 0.000000 
#    z 0.000000 0.000000 4.093980 
# 
# 
# High freq. dielectric constant tensor:
#      x y z
#    x 1.861390 0.000000 0.000000 
#    y 0.000000 1.861390 0.000000 
#    z 0.000000 0.000000 1.876160 
# 
# From -- ./inp_files/11448.got.cif
#   From: 2010.03.12/outbox.cif.g09.slc.cpg/sg142_6_cif.got.tgz:11448.got - 2010.04.03 13:27:16.
