data_PCOD8321035
_publ_section_title
;
Structure prediction by ZEFSAII (Michael W. Deem and Ramdas Pophale) SiO2 
 PCOD8321035
Probable space group: I 41/A C D
;
_chemical_formula_sum "Si O2"
_cell_formula_units_Z 176
_cell_length_a 25.040474
_cell_length_b 25.040474
_cell_length_c 15.265953
_cell_angle_alpha 90.000000
_cell_angle_beta 90.000000
_cell_angle_gamma 90.000000
_cell_volume 9572.139342
_symmetry_space_group_name_H-M "I 41/A C D"
_symmetry_group_IT_number 142
_space_group.IT_coordinate_system_code '2'
_symmetry_cell_setting 'tetragonal'
loop_
_space_group_symop_operation_xyz
x,y,z
1/4-y,3/4+x,1/4+z
-x,1/2-y,z
1/4+y,1/4-x,3/4+z
x,-y,1/2-z
1/2-x,y,-z
3/4+y,1/4+x,1/4-z
1/4-y,1/4-x,1/4-z
-x,-y,-z
3/4+y,1/4-x,3/4-z
x,1/2+y,-z
3/4-y,3/4+x,1/4-z
-x,y,1/2+z
1/2+x,-y,z
1/4-y,3/4-x,3/4+z
3/4+y,3/4+x,3/4+z
1/2+x,1/2+y,1/2+z
3/4-y,1/4+x,3/4+z
1/2-x,-y,1/2+z
3/4+y,3/4-x,1/4+z
1/2+x,1/2-y,-z
-x,1/2+y,1/2-z
1/4+y,3/4+x,3/4-z
3/4-y,3/4-x,3/4-z
1/2-x,1/2-y,1/2-z
1/4+y,3/4-x,1/4-z
1/2+x,y,1/2-z
1/4-y,1/4+x,3/4-z
1/2-x,1/2+y,z
x,1/2-y,1/2+z
3/4-y,1/4-x,1/4+z
1/4+y,1/4+x,1/4+z
loop_
_atom_site_type_symbol
_atom_site_label
_atom_site_fract_x
_atom_site_fract_y
_atom_site_fract_z
Si Si1 0.189231 0.277941 0.171224
Si Si2 0.454805 0.559192 0.239628
Si Si3 0.593294 0.661213 0.811112
Si Si4 0.468449 0.057801 0.099308
Si Si5 0.520258 0.192954 0.032498
Si Si6 0.414845 0.835156 0.125000
O O1 0.179495 0.261004 0.271669
O O2 0.247802 0.303706 0.161510
O O3 0.147276 0.323842 0.143441
O O4 0.183746 0.226220 0.108875
O O5 0.428240 0.500000 0.250000
O O6 0.411761 0.606383 0.256568
O O7 0.503558 0.564515 0.307087
O O8 0.653362 0.666540 0.849471
O O9 0.547652 0.662448 0.885782
O O10 0.588219 0.716069 0.753035
O O11 0.500000 0.250000 0.062810
O O12 0.563753 0.199140 0.956639
#
# Coordination Sequence:
#
# PCOD8321035 Si02
#       6
#    32  32  32  32  32  16
#     4  10  21  34  51  72 106 137 177 216 258 316
#     4  10  21  35  52  75 104 139 177 215 256 317
#     4  12  18  34  52  72 105 141 172 214 266 323
#     4  10  20  36  50  73 102 142 178 211 259 317
#     4  12  21  30  48  77 110 136 166 212 277 329
#     4  12  21  32  48  78 106 138 174 220 264 324
#
# _framework density 18.386695
#
# number of rings (size 3 to 8) (size 9 to 14) (size 15 to 20)
#    0.000    1.091    5.455    2.455    0.000    0.727 
#    0.000    0.000    0.000    0.000    0.000   14.000 
#    0.000    0.000    0.000    0.000    0.000    0.000 
#
# Total GULP energy -1090383.864140 kJ/mol
# GULP energy per Si atom -12390.725729 kJ/mol
# Density = 1.834485 g / cm^3
# Si number density = 18.386695 Si / 1000 Ang^3
#
#
#
# Elastic Constant Matrix: (Units=GPa)
#
#
# Indices 1 2 3 4 5 6 
#
# 1 115.6269 45.4860 9.6834 0.0000 0.0000 0.0000
# 2 45.4860 115.6273 9.6835 0.0000 0.0000 0.0000
# 3 9.6834 9.6835 66.6102 0.0000 0.0000 0.0000
# 4 0.0000 0.0000 0.0000 22.5089 0.0000 0.0000
# 5 0.0000 0.0000 0.0000 0.0000 22.5093 0.0000
# 6 0.0000 0.0000 0.0000 0.0000 0.0000 23.1673
#
#
#
# Elastic Compliance Matrix: (Units=1/GPa)
#
#
# Indices 1 2 3 4 5 6 
#
# 1 0.010287 -0.003970 -0.000918 0.000000 0.000000 0.000000
# 2 -0.003970 0.010287 -0.000918 0.000000 0.000000 0.000000
# 3 -0.000918 -0.000918 0.015280 0.000000 0.000000 0.000000
# 4 0.000000 0.000000 0.000000 0.044427 0.000000 0.000000
# 5 0.000000 0.000000 0.000000 0.000000 0.044426 0.000000
# 6 0.000000 0.000000 0.000000 0.000000 0.000000 0.043164
#
#
# Mechanical properties :
#
#
# Convention : Reuss Voigt Hill
#
# Bulk Modulus (GPa) = 41.25292 47.50780 44.38036
# Shear Modulus (GPa) = 26.65748 29.17120 27.91434
#
# Velocity S-wave (km/s) = 3.81179 3.98746 3.90061
# Velocity P-wave (km/s) = 6.46977 6.86251 6.66903
#
# Compressibility (1/GPa) = 0.02424071
#
# Stress axis : x y z
#
# Youngs Moduli (GPa) = 97.20903 97.20931 65.44615
#
# Poissons Ratio (x) = 0.38591 0.06010
# Poissons Ratio (y) = 0.38591 0.06010
# Poissons Ratio (z) = 0.08927 0.08927
#
# Static dielectric constant tensor:
#      x y z
#    x 3.515900 0.000000 0.000000 
#    y 0.000000 3.515880 0.000000 
#    z 0.000000 0.000000 3.470780 
# 
# 
# High freq. dielectric constant tensor:
#      x y z
#    x 1.690940 0.000000 0.000000 
#    y 0.000000 1.690940 0.000000 
#    z 0.000000 0.000000 1.727350 
# 
# From -- ./inp_files/5707.got.cif
#   From: 2010.03.12/outbox.cif.g09.slc.cpg/sg142_3_cif.got.tgz:5707.got - 2010.04.03 13:27:16.
