data_PCOD8321408
_publ_section_title
;
Structure prediction by ZEFSAII (Michael W. Deem and Ramdas Pophale) SiO2 
 PCOD8321408
Probable space group: P 31
;
_chemical_formula_sum "Si O2"
_cell_formula_units_Z 18
_cell_length_a 9.188207
_cell_length_b 9.188207
_cell_length_c 11.324386
_cell_angle_alpha 90.000000
_cell_angle_beta 90.000000
_cell_angle_gamma 120.000000
_cell_volume 827.955199
_symmetry_space_group_name_H-M "P 31"
_symmetry_group_IT_number 144
_symmetry_cell_setting 'hexagonal'
loop_
_space_group_symop_operation_xyz
x,y,z
-y,x-y,1/3+z
-x+y,-x,2/3+z
loop_
_atom_site_type_symbol
_atom_site_label
_atom_site_fract_x
_atom_site_fract_y
_atom_site_fract_z
Si Si1 0.522023 0.240047 0.359320
Si Si2 0.771443 0.745005 0.209381
Si Si3 0.278803 0.887062 0.926321
Si Si4 0.848637 0.236660 0.436795
Si Si5 0.910997 0.923545 0.439406
Si Si6 0.066119 0.519055 0.019221
O O1 0.676165 0.207070 0.378680
O O2 0.425046 0.140238 0.241160
O O3 0.573215 0.435193 0.350400
O O4 0.407896 0.178189 0.475609
O O5 0.871254 0.796469 0.331673
O O6 0.580787 0.691632 0.252675
O O7 0.866507 0.899829 0.122543
O O8 0.176545 0.977773 0.885007
O O9 0.379695 0.867866 0.816608
O O10 0.147334 0.708860 0.979694
O O11 0.397451 0.002419 0.032725
O O12 0.875530 0.077070 0.418606
#
# Coordination Sequence:
#
# PCOD8321408 Si02
#       6
#     3   3   3   3   3   3
#     4  12  23  45  70 102 141 189 235 291 356 422
#     4  11  23  42  73 102 137 189 232 293 352 423
#     4  11  24  47  70 100 141 185 230 298 354 419
#     4  12  24  45  71 100 141 188 239 287 350 424
#     4  11  21  43  72 102 140 184 241 289 348 424
#     4  11  25  48  68 102 148 179 241 298 356 422
#
# _framework density 21.740307999999999
#
# number of rings (size 3 to 8) (size 9 to 14) (size 15 to 20)
#    0.000    0.667    5.000    3.000    0.000    0.000 
#   12.000    0.000    0.000    0.000    0.000    0.000 
#    0.000    0.000    0.000    0.000    0.000    0.000 
#
# Total GULP energy -223010.425299 kJ/mol
# GULP energy per Si atom -12389.468072 kJ/mol
# Density = 2.169083 g / cm^3
# Si number density = 21.740308 Si / 1000 Ang^3
#
#
#
# Elastic Constant Matrix: (Units=GPa)
#
#
# Indices 1 2 3 4 5 6 
#
# 1 91.4219 46.5800 64.2402 2.5792 6.1670 0.0000
# 2 46.5800 91.4219 64.2402 -2.5792 -6.1670 0.0000
# 3 64.2402 64.2402 131.0028 0.0000 0.0000 0.0000
# 4 2.5792 -2.5792 0.0000 19.4689 0.0000 -6.1670
# 5 6.1670 -6.1670 0.0000 0.0000 19.4689 2.5792
# 6 0.0000 0.0000 0.0000 -6.1670 2.5792 22.4210
#
#
#
# Elastic Compliance Matrix: (Units=1/GPa)
#
#
# Indices 1 2 3 4 5 6 
#
# 1 0.019089 -0.005755 -0.006538 -0.003291 -0.007870 0.000000
# 2 -0.005755 0.019089 -0.006538 0.003291 0.007870 0.000000
# 3 -0.006538 -0.006538 0.014046 0.000000 0.000000 0.000000
# 4 -0.003291 0.003291 0.000000 0.057222 0.000000 0.015739
# 5 -0.007870 0.007870 0.000000 0.000000 0.057222 -0.006583
# 6 0.000000 0.000000 0.000000 0.015739 -0.006583 0.049688
#
#
# Mechanical properties :
#
#
# Convention : Reuss Voigt Hill
#
# Bulk Modulus (GPa) = 68.68410 73.77419 71.22914
# Shear Modulus (GPa) = 19.31463 21.52416 20.41939
#
# Velocity S-wave (km/s) = 2.98388 3.14993 3.06803
# Velocity P-wave (km/s) = 6.59795 6.87295 6.73685
#
# Compressibility (1/GPa) = 0.01455941
#
# Stress axis : x y z
#
# Youngs Moduli (GPa) = 52.38710 52.38710 71.19485
#
# Poissons Ratio (x) = 0.30149 0.46550
# Poissons Ratio (y) = 0.30149 0.46550
# Poissons Ratio (z) = 0.34253 0.34253
#
# Static dielectric constant tensor:
#      x y z
#    x 3.940610 0.000000 0.000000 
#    y 0.000000 3.940610 0.000000 
#    z 0.000000 0.000000 4.321340 
# 
# 
# High freq. dielectric constant tensor:
#      x y z
#    x 1.845430 0.000000 0.000000 
#    y 0.000000 1.845430 0.000000 
#    z 0.000000 0.000000 1.883710 
# 
# From -- ./inp_files/507.got.cif
#   From: 2010.03.12/outbox.cif.g09.slc.cpg/sg144_cif.got.tgz:507.got - 2010.04.03 13:34:42.
