data_PCOD8321684
_publ_section_title
;
Structure prediction by ZEFSAII (Michael W. Deem and Ramdas Pophale) SiO2 
 PCOD8321684
Probable space group: R -3
;
_chemical_formula_sum "Si O2"
_cell_formula_units_Z 120
_cell_length_a 16.234748
_cell_length_b 16.234748
_cell_length_c 34.386555
_cell_angle_alpha 90.000000
_cell_angle_beta 90.000000
_cell_angle_gamma 120.000000
_cell_volume 7848.929057
_symmetry_space_group_name_H-M "R -3"
_symmetry_group_IT_number 148
_symmetry_cell_setting 'hexagonal'
loop_
_space_group_symop_operation_xyz
x,y,z
-y,x-y,z
-x+y,-x,z
-x,-y,-z
y,-x+y,-z
x-y,x,-z
2/3+x,1/3+y,1/3+z
2/3-y,1/3+x-y,1/3+z
2/3-x+y,1/3-x,1/3+z
2/3-x,1/3-y,1/3-z
2/3+y,1/3-x+y,1/3-z
2/3+x-y,1/3+x,1/3-z
1/3+x,2/3+y,2/3+z
1/3-y,2/3+x-y,2/3+z
1/3-x+y,2/3-x,2/3+z
1/3-x,2/3-y,2/3-z
1/3+y,2/3-x+y,2/3-z
1/3+x-y,2/3+x,2/3-z
loop_
_atom_site_type_symbol
_atom_site_label
_atom_site_fract_x
_atom_site_fract_y
_atom_site_fract_z
Si Si1 0.234147 0.458568 0.869264
Si Si2 0.643111 0.503566 0.251568
Si Si3 0.000000 0.000000 0.196598
Si Si4 0.666667 0.333334 0.230705
Si Si5 0.943058 0.403415 0.173358
Si Si6 0.910904 0.199470 0.081887
Si Si7 0.211014 0.048592 0.000630
Si Si8 0.386207 0.076657 0.488861
O O1 0.255395 0.563790 0.880743
O O2 0.321486 0.481177 0.840754
O O3 0.236987 0.398713 0.906389
O O4 0.133423 0.401464 0.846938
O O5 0.618393 0.393349 0.247046
O O6 0.591771 0.533445 0.219725
O O7 0.754809 0.567894 0.245821
O O8 0.599745 0.523507 0.290957
O O9 0.000000 0.000000 0.149499
O O10 0.963559 0.507515 0.160055
O O11 0.024236 0.380229 0.159479
O O12 0.945609 0.224514 0.036563
O O13 0.003427 0.247326 0.110248
O O14 0.173809 0.120598 0.007245
#
# Coordination Sequence:
#
# PCOD8321684 Si02
#       8
#    18  18   6   6  18  18  18  18
#     4  11  18  30  46  70  98 129 157 190 234 287
#     4  11  17  27  41  61  94 129 154 183 225 281
#     4  12  18  27  51  76  97 132 156 183 252 289
#     4  12  18  24  43  70  99 126 159 186 225 297
#     4  11  19  29  46  69  95 124 157 189 236 290
#     4  10  19  30  40  64  98 126 161 192 216 277
#     4  10  19  27  39  60  90 130 165 190 224 276
#     4  11  19  31  46  68  96 128 156 193 241 283
#
# _framework density 15.28871
#
# number of rings (size 3 to 8) (size 9 to 14) (size 15 to 20)
#    0.000    1.200    6.000    4.650    0.000    0.000 
#    0.000    0.000    0.000    0.300    0.000   18.900 
#    0.000    0.000    0.000    0.000    0.000    0.000 
#
# Total GULP energy -495587.487578 kJ/mol
# GULP energy per Si atom -12389.687189 kJ/mol
# Density = 1.525391 g / cm^3
# Si number density = 15.288710 Si / 1000 Ang^3
#
#
#
# Elastic Constant Matrix: (Units=GPa)
#
#
# Indices 1 2 3 4 5 6 
#
# 1 64.1053 25.6077 25.3655 2.4334 2.0483 0.0000
# 2 25.6077 64.1050 25.3656 -2.4334 -2.0482 0.0000
# 3 25.3655 25.3656 94.0169 0.0000 0.0000 0.0000
# 4 2.4334 -2.4334 0.0000 14.8183 0.0000 -2.0482
# 5 2.0483 -2.0482 0.0000 0.0000 14.8183 2.4334
# 6 0.0000 0.0000 0.0000 -2.0482 2.4334 19.2487
#
#
#
# Elastic Compliance Matrix: (Units=1/GPa)
#
#
# Indices 1 2 3 4 5 6 
#
# 1 0.020042 -0.006889 -0.003549 -0.004422 -0.003722 0.000000
# 2 -0.006889 0.020042 -0.003549 0.004422 0.003722 0.000000
# 3 -0.003549 -0.003549 0.012551 0.000000 0.000000 0.000000
# 4 -0.004422 0.004422 0.000000 0.069966 0.000000 0.007445
# 5 -0.003722 0.003722 0.000000 0.000000 0.069966 -0.008845
# 6 0.000000 0.000000 0.000000 0.007445 -0.008845 0.053862
#
#
# Mechanical properties :
#
#
# Convention : Reuss Voigt Hill
#
# Bulk Modulus (GPa) = 40.54639 41.65607 41.10123
# Shear Modulus (GPa) = 17.69144 19.50295 18.59720
#
# Velocity S-wave (km/s) = 3.40539 3.57549 3.49148
# Velocity P-wave (km/s) = 6.48385 6.65965 6.57234
#
# Compressibility (1/GPa) = 0.02466311
#
# Stress axis : x y z
#
# Youngs Moduli (GPa) = 49.89491 49.89466 79.67310
#
# Poissons Ratio (x) = 0.34371 0.28274
# Poissons Ratio (y) = 0.34371 0.28274
# Poissons Ratio (z) = 0.17706 0.17707
#
# Static dielectric constant tensor:
#      x y z
#    x 2.812000 0.000000 0.000000 
#    y 0.000000 2.812000 0.000000 
#    z 0.000000 0.000000 3.185380 
# 
# 
# High freq. dielectric constant tensor:
#      x y z
#    x 1.558680 0.000000 0.000000 
#    y 0.000000 1.558680 0.000000 
#    z 0.000000 0.000000 1.575480 
# 
# From -- ./inp_files/4066.got.cif
#   From: 2010.03.12/outbox.cif.g09.slc.cpg/sg148_3_cif.got.tgz:4066.got - 2010.04.03 13:38:46.
