data_PCOD8321966
_publ_section_title
;
Structure prediction by ZEFSAII (Michael W. Deem and Ramdas Pophale) SiO2 
 PCOD8321966
Probable space group: P 31 1 2
;
_chemical_formula_sum "Si O2"
_cell_formula_units_Z 36
_cell_length_a 8.656964
_cell_length_b 8.656964
_cell_length_c 26.566657
_cell_angle_alpha 90.000000
_cell_angle_beta 90.000000
_cell_angle_gamma 120.000000
_cell_volume 1724.244159
_symmetry_space_group_name_H-M "P 31 1 2"
_symmetry_group_IT_number 151
_symmetry_cell_setting 'hexagonal'
loop_
_space_group_symop_operation_xyz
x,y,z
-y,x-y,1/3+z
-x+y,-x,2/3+z
-y,-x,2/3-z
-x+y,y,1/3-z
x,x-y,-z
loop_
_atom_site_type_symbol
_atom_site_label
_atom_site_fract_x
_atom_site_fract_y
_atom_site_fract_z
Si Si1 0.372372 0.270858 0.342136
Si Si2 0.915117 0.483085 0.647254
Si Si3 0.244656 0.441447 0.047883
Si Si4 0.006159 0.351413 0.183932
Si Si5 0.091080 0.649886 0.102522
Si Si6 0.384714 0.361578 0.871217
O O1 0.562392 0.437608 0.333334
O O2 0.395766 0.102735 0.329001
O O3 0.227017 0.278595 0.304594
O O4 0.342389 0.282240 0.401905
O O5 0.759173 0.518345 0.666667
O O6 0.909982 0.497002 0.587638
O O7 0.112414 0.627581 0.666600
O O8 0.348988 0.397716 0.090701
O O9 0.215262 0.603146 0.066469
O O10 0.147873 0.295745 0.166667
O O11 0.016350 0.511304 0.149403
O O12 0.811790 0.182871 0.178447
O O13 0.193051 0.850699 0.121859
O O14 0.477057 0.522944 0.833334
#
# Coordination Sequence:
#
# PCOD8321966 Si02
#       6
#     6   6   6   6   6   6
#     4   9  20  36  66  91 124 167 216 267 324 396
#     4  11  22  38  64 103 126 166 226 273 337 402
#     4  10  19  40  68  88 124 171 214 269 335 395
#     4  10  23  40  65  89 129 175 213 270 342 389
#     4  10  22  44  65  91 133 176 218 267 340 397
#     4  12  25  39  64  96 132 171 227 274 325 411
#
# _framework density 20.878715
#
# number of rings (size 3 to 8) (size 9 to 14) (size 15 to 20)
#    0.000    1.667    3.333    1.500    9.333    0.000 
#    0.000    4.167    7.333    0.000    0.000    0.000 
#    0.000    0.000    0.000    0.000    0.000    0.000 
#
# Total GULP energy -446043.020381 kJ/mol
# GULP energy per Si atom -12390.083899 kJ/mol
# Density = 2.083119 g / cm^3
# Si number density = 20.878715 Si / 1000 Ang^3
#
#
#
# Elastic Constant Matrix: (Units=GPa)
#
#
# Indices 1 2 3 4 5 6 
#
# 1 83.0419 36.0738 33.4647 0.0000 4.1328 0.0000
# 2 36.0738 83.0419 33.4647 0.0000 -4.1328 0.0000
# 3 33.4647 33.4647 105.3902 0.0000 0.0000 0.0000
# 4 0.0000 0.0000 0.0000 30.0482 0.0000 -4.1328
# 5 4.1328 -4.1328 0.0000 0.0000 30.0482 0.0000
# 6 0.0000 0.0000 0.0000 -4.1328 0.0000 23.4840
#
#
#
# Elastic Compliance Matrix: (Units=1/GPa)
#
#
# Indices 1 2 3 4 5 6 
#
# 1 0.016019 -0.005800 -0.003245 0.000000 -0.003001 0.000000
# 2 -0.005800 0.016019 -0.003245 0.000000 0.003001 0.000000
# 3 -0.003245 -0.003245 0.011549 0.000000 0.000000 0.000000
# 4 0.000000 0.000000 0.000000 0.034105 0.000000 0.006002
# 5 -0.003001 0.003001 0.000000 0.000000 0.034105 0.000000
# 6 0.000000 0.000000 0.000000 0.006002 0.000000 0.043638
#
#
# Mechanical properties :
#
#
# Convention : Reuss Voigt Hill
#
# Bulk Modulus (GPa) = 52.61170 53.05337 52.83254
# Shear Modulus (GPa) = 26.83111 27.94747 27.38929
#
# Velocity S-wave (km/s) = 3.58871 3.66261 3.62585
# Velocity P-wave (km/s) = 6.51346 6.58420 6.54893
#
# Compressibility (1/GPa) = 0.01900718
#
# Stress axis : x y z
#
# Youngs Moduli (GPa) = 62.42687 62.42687 86.58690
#
# Poissons Ratio (x) = 0.36210 0.28094
# Poissons Ratio (y) = 0.36210 0.28094
# Poissons Ratio (z) = 0.20255 0.20255
#
# Static dielectric constant tensor:
#      x y z
#    x 3.790780 0.000000 0.000000 
#    y 0.000000 3.790780 0.000000 
#    z 0.000000 0.000000 4.344410 
# 
# 
# High freq. dielectric constant tensor:
#      x y z
#    x 1.799990 0.000000 0.000000 
#    y 0.000000 1.799990 0.000000 
#    z 0.000000 0.000000 1.837970 
# 
# From -- ./inp_files/4608.got.cif
#   From: 2010.03.12/outbox.cif.g09.slc.cpg/sg151_3_cif.got.tgz:4608.got - 2010.04.03 13:42:29.
