data_PCOD8321222
_publ_section_title
;
Structure prediction by ZEFSAII (Michael W. Deem and Ramdas Pophale) SiO2 
 PCOD8321222
Probable space group: I 41/A C D
;
_chemical_formula_sum "Si O2"
_cell_formula_units_Z 160
_cell_length_a 21.809448
_cell_length_b 21.809448
_cell_length_c 16.510771
_cell_angle_alpha 90.000000
_cell_angle_beta 90.000000
_cell_angle_gamma 90.000000
_cell_volume 7853.381612
_symmetry_space_group_name_H-M "I 41/A C D"
_symmetry_group_IT_number 142
_space_group.IT_coordinate_system_code '2'
_symmetry_cell_setting 'tetragonal'
loop_
_space_group_symop_operation_xyz
x,y,z
1/4-y,3/4+x,1/4+z
-x,1/2-y,z
1/4+y,1/4-x,3/4+z
x,-y,1/2-z
1/2-x,y,-z
3/4+y,1/4+x,1/4-z
1/4-y,1/4-x,1/4-z
-x,-y,-z
3/4+y,1/4-x,3/4-z
x,1/2+y,-z
3/4-y,3/4+x,1/4-z
-x,y,1/2+z
1/2+x,-y,z
1/4-y,3/4-x,3/4+z
3/4+y,3/4+x,3/4+z
1/2+x,1/2+y,1/2+z
3/4-y,1/4+x,3/4+z
1/2-x,-y,1/2+z
3/4+y,3/4-x,1/4+z
1/2+x,1/2-y,-z
-x,1/2+y,1/2-z
1/4+y,3/4+x,3/4-z
3/4-y,3/4-x,3/4-z
1/2-x,1/2-y,1/2-z
1/4+y,3/4-x,1/4-z
1/2+x,y,1/2-z
1/4-y,1/4+x,3/4-z
1/2-x,1/2+y,z
x,1/2-y,1/2+z
3/4-y,1/4-x,1/4+z
1/4+y,1/4+x,1/4+z
loop_
_atom_site_type_symbol
_atom_site_label
_atom_site_fract_x
_atom_site_fract_y
_atom_site_fract_z
Si Si1 0.122437 0.941748 0.307910
Si Si2 0.177015 0.233343 0.334326
Si Si3 0.500000 0.250000 0.244528
Si Si4 0.688130 0.754229 0.649554
Si Si5 0.430397 0.819604 0.125000
Si Si6 0.920501 0.855027 0.674960
O O1 0.175756 0.925756 0.375000
O O2 0.057573 0.951242 0.350742
O O3 0.111999 0.881414 0.254565
O O4 0.140515 0.000000 0.250000
O O5 0.246258 0.212388 0.350646
O O6 0.164948 0.238892 0.238976
O O7 0.159724 0.299539 0.373013
O O8 0.134189 0.180014 0.372485
O O9 0.446131 0.222222 0.298499
O O10 0.472387 0.304274 0.191145
O O11 0.640764 0.802249 0.607184
#
# Coordination Sequence:
#
# PCOD8321222 Si02
#       6
#    32  32  16  32  16  32
#     4  12  23  44  71  98 130 182 237 292 340 414
#     4  11  24  38  60  95 136 171 216 278 344 410
#     4  11  20  33  58  96 127 159 216 282 349 405
#     4  11  23  41  62  93 133 179 219 279 346 414
#     4  11  20  36  60  90 130 170 216 278 346 417
#     4  12  22  38  62  97 135 170 223 277 346 416
#
# _framework density 20.373389
#
# number of rings (size 3 to 8) (size 9 to 14) (size 15 to 20)
#    0.000    0.600    8.000    1.200    0.000    0.000 
#    0.000    0.000    2.200    0.000    0.000    0.000 
#    0.000    0.000    0.000    0.000    0.000    0.000 
#
# Total GULP energy -991355.417453 kJ/mol
# GULP energy per Si atom -12391.942718 kJ/mol
# Density = 2.032702 g / cm^3
# Si number density = 20.373389 Si / 1000 Ang^3
#
#
#
# Elastic Constant Matrix: (Units=GPa)
#
#
# Indices 1 2 3 4 5 6 
#
# 1 115.2493 54.1890 34.0257 0.0000 0.0000 0.0000
# 2 54.1890 115.2507 34.0261 0.0000 0.0000 0.0000
# 3 34.0257 34.0261 71.5764 0.0000 0.0000 0.0000
# 4 0.0000 0.0000 0.0000 61.9325 0.0000 0.0000
# 5 0.0000 0.0000 0.0000 0.0000 61.9225 0.0000
# 6 0.0000 0.0000 0.0000 0.0000 0.0000 24.0642
#
#
#
# Elastic Compliance Matrix: (Units=1/GPa)
#
#
# Indices 1 2 3 4 5 6 
#
# 1 0.011836 -0.004541 -0.003468 0.000000 0.000000 0.000000
# 2 -0.004541 0.011836 -0.003468 0.000000 0.000000 0.000000
# 3 -0.003468 -0.003468 0.017268 0.000000 0.000000 0.000000
# 4 0.000000 0.000000 0.000000 0.016147 0.000000 0.000000
# 5 0.000000 0.000000 0.000000 0.000000 0.016149 0.000000
# 6 0.000000 0.000000 0.000000 0.000000 0.000000 0.041556
#
#
# Mechanical properties :
#
#
# Convention : Reuss Voigt Hill
#
# Bulk Modulus (GPa) = 55.59756 60.72867 58.16312
# Shear Modulus (GPa) = 34.78510 41.57287 38.17899
#
# Velocity S-wave (km/s) = 4.13653 4.52214 4.33363
# Velocity P-wave (km/s) = 7.08259 7.55903 7.32468
#
# Compressibility (1/GPa) = 0.01798640
#
# Stress axis : x y z
#
# Youngs Moduli (GPa) = 84.48893 84.48982 57.91059
#
# Poissons Ratio (x) = 0.38369 0.20081
# Poissons Ratio (y) = 0.38369 0.20082
# Poissons Ratio (z) = 0.29298 0.29298
#
# Static dielectric constant tensor:
#      x y z
#    x 3.663220 0.000000 0.000000 
#    y 0.000000 3.663190 0.000000 
#    z 0.000000 0.000000 3.797790 
# 
# 
# High freq. dielectric constant tensor:
#      x y z
#    x 1.787860 0.000000 0.000000 
#    y 0.000000 1.787860 0.000000 
#    z 0.000000 0.000000 1.796820 
# 
# From -- ./inp_files/7462.got.cif
#   From: 2010.03.12/outbox.cif.g09.slc.cpg/sg142_4_cif.got.tgz:7462.got - 2010.04.03 13:27:16.
