data_PCOD8321301
_publ_section_title
;
Structure prediction by ZEFSAII (Michael W. Deem and Ramdas Pophale) SiO2 
 PCOD8321301
Probable space group: I 41/A C D
;
_chemical_formula_sum "Si O2"
_cell_formula_units_Z 160
_cell_length_a 27.787453
_cell_length_b 27.787453
_cell_length_c 8.525857
_cell_angle_alpha 90.000000
_cell_angle_beta 90.000000
_cell_angle_gamma 90.000000
_cell_volume 6583.176916
_symmetry_space_group_name_H-M "I 41/A C D"
_symmetry_group_IT_number 142
_space_group.IT_coordinate_system_code '2'
_symmetry_cell_setting 'tetragonal'
loop_
_space_group_symop_operation_xyz
x,y,z
1/4-y,3/4+x,1/4+z
-x,1/2-y,z
1/4+y,1/4-x,3/4+z
x,-y,1/2-z
1/2-x,y,-z
3/4+y,1/4+x,1/4-z
1/4-y,1/4-x,1/4-z
-x,-y,-z
3/4+y,1/4-x,3/4-z
x,1/2+y,-z
3/4-y,3/4+x,1/4-z
-x,y,1/2+z
1/2+x,-y,z
1/4-y,3/4-x,3/4+z
3/4+y,3/4+x,3/4+z
1/2+x,1/2+y,1/2+z
3/4-y,1/4+x,3/4+z
1/2-x,-y,1/2+z
3/4+y,3/4-x,1/4+z
1/2+x,1/2-y,-z
-x,1/2+y,1/2-z
1/4+y,3/4+x,3/4-z
3/4-y,3/4-x,3/4-z
1/2-x,1/2-y,1/2-z
1/4+y,3/4-x,1/4-z
1/2+x,y,1/2-z
1/4-y,1/4+x,3/4-z
1/2-x,1/2+y,z
x,1/2-y,1/2+z
3/4-y,1/4-x,1/4+z
1/4+y,1/4+x,1/4+z
loop_
_atom_site_type_symbol
_atom_site_label
_atom_site_fract_x
_atom_site_fract_y
_atom_site_fract_z
Si Si1 0.893266 0.437888 0.384537
Si Si2 0.030462 0.823391 0.623391
Si Si3 0.750000 0.440565 0.000000
Si Si4 0.928235 0.396355 0.092094
Si Si5 0.050988 0.512259 0.071282
Si Si6 0.101141 0.648860 0.375000
O O1 0.842270 0.455505 0.314418
O O2 0.935930 0.425405 0.255392
O O3 0.908513 0.483184 0.483468
O O4 0.891345 0.392113 0.496771
O O5 0.062200 0.775187 0.601747
O O6 0.036484 0.852818 0.459631
O O7 0.051137 0.852146 0.775018
O O8 0.773665 0.476336 0.125000
O O9 0.874413 0.375588 0.125000
O O10 0.932907 0.432520 0.946760
O O11 0.051123 0.500000 0.250000
O O12 0.000000 0.500000 0.000000
#
# Coordination Sequence:
#
# PCOD8321301 Si02
#       6
#    32  32  16  32  32  16
#     4  12  27  50  79 117 161 209 267 337 414 490
#     4  11  29  49  76 115 165 221 281 345 407 484
#     4  12  30  54  86 120 158 206 262 338 430 500
#     4  12  25  49  80 110 162 213 265 343 409 484
#     4  12  28  49  80 119 161 211 274 339 408 496
#     4  12  28  43  80 114 154 218 278 336 410 490
#
# _framework density 24.304375
#
# number of rings (size 3 to 8) (size 9 to 14) (size 15 to 20)
#    0.000    0.200    4.000    3.000    7.000    2.400 
#    0.000    0.000    0.000    0.000    0.000    0.000 
#    0.000    0.000    0.000    0.000    0.000    0.000 
#
# Total GULP energy -991200.796757 kJ/mol
# GULP energy per Si atom -12390.009959 kJ/mol
# Density = 2.424906 g / cm^3
# Si number density = 24.304375 Si / 1000 Ang^3
#
#
#
# Elastic Constant Matrix: (Units=GPa)
#
#
# Indices 1 2 3 4 5 6 
#
# 1 129.3247 53.0380 73.8230 0.0000 0.0000 0.0000
# 2 53.0380 129.3276 73.8218 0.0000 0.0000 0.0000
# 3 73.8230 73.8218 164.5952 0.0000 0.0000 0.0000
# 4 0.0000 0.0000 0.0000 39.4672 0.0000 0.0000
# 5 0.0000 0.0000 0.0000 0.0000 39.4696 0.0000
# 6 0.0000 0.0000 0.0000 0.0000 0.0000 38.5854
#
#
#
# Elastic Compliance Matrix: (Units=1/GPa)
#
#
# Indices 1 2 3 4 5 6 
#
# 1 0.010859 -0.002249 -0.003862 0.000000 0.000000 0.000000
# 2 -0.002249 0.010859 -0.003862 0.000000 0.000000 0.000000
# 3 -0.003862 -0.003862 0.009539 0.000000 0.000000 0.000000
# 4 0.000000 0.000000 0.000000 0.025338 0.000000 0.000000
# 5 0.000000 0.000000 0.000000 0.000000 0.025336 0.000000
# 6 0.000000 0.000000 0.000000 0.000000 0.000000 0.025917
#
#
# Mechanical properties :
#
#
# Convention : Reuss Voigt Hill
#
# Bulk Modulus (GPa) = 88.39515 91.62369 90.00942
# Shear Modulus (GPa) = 38.00448 38.34208 38.17328
#
# Velocity S-wave (km/s) = 3.95864 3.97618 3.96742
# Velocity P-wave (km/s) = 7.57255 7.67205 7.62246
#
# Compressibility (1/GPa) = 0.01131284
#
# Stress axis : x y z
#
# Youngs Moduli (GPa) = 92.08689 92.09061 104.82752
#
# Poissons Ratio (x) = 0.20712 0.40482
# Poissons Ratio (y) = 0.20711 0.40479
# Poissons Ratio (z) = 0.35562 0.35561
#
# Static dielectric constant tensor:
#      x y z
#    x 4.540430 0.000000 0.000000 
#    y 0.000000 4.540460 0.000000 
#    z 0.000000 0.000000 5.101500 
# 
# 
# High freq. dielectric constant tensor:
#      x y z
#    x 1.969030 0.000000 0.000000 
#    y 0.000000 1.969030 0.000000 
#    z 0.000000 0.000000 1.987650 
# 
# From -- ./inp_files/2244.got.cif
#   From: 2010.03.12/outbox.cif.g09.slc.cpg/sg142_2_cif.got.tgz:2244.got - 2010.04.03 13:27:16.
