data_PCOD8321343
_publ_section_title
;
Structure prediction by ZEFSAII (Michael W. Deem and Ramdas Pophale) SiO2 
 PCOD8321343
Probable space group: P 31
;
_chemical_formula_sum "Si O2"
_cell_formula_units_Z 21
_cell_length_a 11.303922
_cell_length_b 11.303922
_cell_length_c 11.114205
_cell_angle_alpha 90.000000
_cell_angle_beta 90.000000
_cell_angle_gamma 120.000000
_cell_volume 1229.893026
_symmetry_space_group_name_H-M "P 31"
_symmetry_group_IT_number 144
_symmetry_cell_setting 'hexagonal'
loop_
_space_group_symop_operation_xyz
x,y,z
-y,x-y,1/3+z
-x+y,-x,2/3+z
loop_
_atom_site_type_symbol
_atom_site_label
_atom_site_fract_x
_atom_site_fract_y
_atom_site_fract_z
Si Si1 0.416006 0.166994 0.857400
Si Si2 0.926434 0.014326 0.842643
Si Si3 0.915678 0.166339 0.623941
Si Si4 0.715724 0.049057 0.407337
Si Si5 0.511634 0.142644 0.414209
Si Si6 0.155032 0.964343 0.733798
Si Si7 0.578774 0.319007 0.638698
O O1 0.303697 0.028427 0.793979
O O2 0.486839 0.287536 0.757346
O O3 0.535617 0.144593 0.915533
O O4 0.339801 0.206820 0.955842
O O5 0.811260 0.868950 0.899142
O O6 0.865969 0.045796 0.723996
O O7 0.055581 0.995123 0.814551
O O8 0.972239 0.139072 0.935114
O O9 0.799644 0.126511 0.525502
O O10 0.941937 0.304906 0.687362
O O11 0.568233 0.036818 0.420410
O O12 0.703486 0.901567 0.394261
O O13 0.499834 0.194261 0.546226
O O14 0.611084 0.272876 0.333456
#
# Coordination Sequence:
#
# PCOD8321343 Si02
#       7
#     3   3   3   3   3   3   3
#     4  10  19  32  51  75 112 138 172 226 264 320
#     4   9  19  31  50  79 104 139 181 214 269 320
#     4  10  19  32  51  75 112 138 172 226 264 320
#     4  10  20  30  48  78 108 144 176 212 276 320
#     4  10  17  33  49  75 110 141 171 219 270 320
#     4  10  17  33  49  75 110 141 171 219 270 320
#     4   9  19  31  50  79 104 139 181 214 269 320
#
# _framework density 17.074655
#
# number of rings (size 3 to 8) (size 9 to 14) (size 15 to 20)
#    0.000    2.286    2.857    0.857    4.000    0.000 
#    0.000    0.000    0.000    0.000    0.000   16.000 
#    0.000    0.000    0.000    0.000    0.000    0.000 
#
# Total GULP energy -260304.951150 kJ/mol
# GULP energy per Si atom -12395.473864 kJ/mol
# Density = 1.703579 g / cm^3
# Si number density = 17.074655 Si / 1000 Ang^3
#
#
#
# Elastic Constant Matrix: (Units=GPa)
#
#
# Indices 1 2 3 4 5 6 
#
# 1 89.4687 46.6427 45.4124 1.3319 -0.0001 0.0000
# 2 46.6427 89.4687 45.4124 -1.3319 0.0001 0.0000
# 3 45.4124 45.4124 116.0240 0.0000 0.0000 0.0000
# 4 1.3319 -1.3319 0.0000 25.4185 0.0000 0.0001
# 5 -0.0001 0.0001 0.0000 0.0000 25.4185 1.3319
# 6 0.0000 0.0000 0.0000 0.0001 1.3319 21.4130
#
#
#
# Elastic Compliance Matrix: (Units=1/GPa)
#
#
# Indices 1 2 3 4 5 6 
#
# 1 0.016685 -0.006741 -0.003892 -0.001228 0.000000 0.000000
# 2 -0.006741 0.016685 -0.003892 0.001228 0.000000 0.000000
# 3 -0.003892 -0.003892 0.011666 0.000000 0.000000 0.000000
# 4 -0.001228 0.001228 0.000000 0.039470 0.000000 0.000000
# 5 0.000000 0.000000 0.000000 0.000000 0.039470 -0.002455
# 6 0.000000 0.000000 0.000000 0.000000 -0.002455 0.046853
#
#
# Mechanical properties :
#
#
# Convention : Reuss Voigt Hill
#
# Bulk Modulus (GPa) = 62.55765 63.32182 62.93974
# Shear Modulus (GPa) = 24.36531 24.94957 24.65744
#
# Velocity S-wave (km/s) = 3.78165 3.82672 3.80425
# Velocity P-wave (km/s) = 7.46894 7.52933 7.49920
#
# Compressibility (1/GPa) = 0.01598525
#
# Stress axis : x y z
#
# Youngs Moduli (GPa) = 59.93270 59.93270 85.72104
#
# Poissons Ratio (x) = 0.40402 0.33364
# Poissons Ratio (y) = 0.40402 0.33364
# Poissons Ratio (z) = 0.23327 0.23327
#
# Static dielectric constant tensor:
#      x y z
#    x 3.032120 0.000000 0.000000 
#    y 0.000000 3.032120 0.000000 
#    z 0.000000 0.000000 3.518220 
# 
# 
# High freq. dielectric constant tensor:
#      x y z
#    x 1.625970 0.000000 0.000000 
#    y 0.000000 1.625970 0.000000 
#    z 0.000000 0.000000 1.689920 
# 
# From -- ./inp_files/635.got.cif
#   From: 2010.03.12/outbox.cif.g09.slc.cpg/sg144_cif.got.tgz:635.got - 2010.04.03 13:34:42.
