data_PCOD8321143
_publ_section_title
;
Structure prediction by ZEFSAII (Michael W. Deem and Ramdas Pophale) SiO2 
 PCOD8321143
Probable space group: I 41/A C D
;
_chemical_formula_sum "Si O2"
_cell_formula_units_Z 160
_cell_length_a 18.067483
_cell_length_b 18.067483
_cell_length_c 26.563125
_cell_angle_alpha 90.000000
_cell_angle_beta 90.000000
_cell_angle_gamma 90.000000
_cell_volume 8671.105604
_symmetry_space_group_name_H-M "I 41/A C D"
_symmetry_group_IT_number 142
_space_group.IT_coordinate_system_code '2'
_symmetry_cell_setting 'tetragonal'
loop_
_space_group_symop_operation_xyz
x,y,z
1/4-y,3/4+x,1/4+z
-x,1/2-y,z
1/4+y,1/4-x,3/4+z
x,-y,1/2-z
1/2-x,y,-z
3/4+y,1/4+x,1/4-z
1/4-y,1/4-x,1/4-z
-x,-y,-z
3/4+y,1/4-x,3/4-z
x,1/2+y,-z
3/4-y,3/4+x,1/4-z
-x,y,1/2+z
1/2+x,-y,z
1/4-y,3/4-x,3/4+z
3/4+y,3/4+x,3/4+z
1/2+x,1/2+y,1/2+z
3/4-y,1/4+x,3/4+z
1/2-x,-y,1/2+z
3/4+y,3/4-x,1/4+z
1/2+x,1/2-y,-z
-x,1/2+y,1/2-z
1/4+y,3/4+x,3/4-z
3/4-y,3/4-x,3/4-z
1/2-x,1/2-y,1/2-z
1/4+y,3/4-x,1/4-z
1/2+x,y,1/2-z
1/4-y,1/4+x,3/4-z
1/2-x,1/2+y,z
x,1/2-y,1/2+z
3/4-y,1/4-x,1/4+z
1/4+y,1/4+x,1/4+z
loop_
_atom_site_type_symbol
_atom_site_label
_atom_site_fract_x
_atom_site_fract_y
_atom_site_fract_z
Si Si1 0.767432 0.878537 0.853427
Si Si2 0.065865 0.803039 0.200317
Si Si3 0.853854 0.491881 0.887909
Si Si4 0.174199 0.252805 0.887003
Si Si5 0.579499 0.037266 0.504229
O O1 0.742930 0.796831 0.869158
O O2 0.767269 0.882002 0.792708
O O3 0.848787 0.901214 0.875000
O O4 0.711270 0.934492 0.879421
O O5 0.031730 0.882537 0.184722
O O6 0.111051 0.763065 0.155491
O O7 0.123572 0.818126 0.245224
O O8 0.000000 0.750000 0.218968
O O9 0.824616 0.574616 0.875000
O O10 0.880090 0.490596 0.945535
O O11 0.919391 0.464320 0.850830
O O12 0.500000 0.000000 0.500000
#
# Coordination Sequence:
#
# PCOD8321143 Si02
#       5
#    32  32  32  32  32
#     4  11  22  38  62  87 126 158 196 254 314 367
#     4  11  18  32  65  94 118 148 212 261 296 356
#     4  10  22  38  63  92 124 159 203 254 311 369
#     4  11  17  36  62  93 118 157 201 256 303 354
#     4  11  22  38  64  90 121 163 208 252 316 368
#
# _framework density 18.452088
#
# number of rings (size 3 to 8) (size 9 to 14) (size 15 to 20)
#    0.000    1.200   10.000    0.000    0.000    3.200 
#    0.000    2.000    4.400    0.000    0.000    0.000 
#    0.000    0.000    0.000    0.000    0.000    0.000 
#
# Total GULP energy -991448.136547 kJ/mol
# GULP energy per Si atom -12393.101707 kJ/mol
# Density = 1.841009 g / cm^3
# Si number density = 18.452088 Si / 1000 Ang^3
#
#
#
# Elastic Constant Matrix: (Units=GPa)
#
#
# Indices 1 2 3 4 5 6 
#
# 1 82.7413 47.8027 29.5712 0.0000 0.0000 0.0000
# 2 47.8027 82.7408 29.5699 0.0000 0.0000 0.0000
# 3 29.5712 29.5699 87.3324 0.0000 0.0000 0.0000
# 4 0.0000 0.0000 0.0000 27.7667 0.0000 0.0000
# 5 0.0000 0.0000 0.0000 0.0000 27.7663 0.0000
# 6 0.0000 0.0000 0.0000 0.0000 0.0000 57.3998
#
#
#
# Elastic Compliance Matrix: (Units=1/GPa)
#
#
# Indices 1 2 3 4 5 6 
#
# 1 0.018835 -0.009787 -0.003064 0.000000 0.000000 0.000000
# 2 -0.009787 0.018835 -0.003063 0.000000 0.000000 0.000000
# 3 -0.003064 -0.003063 0.013525 0.000000 0.000000 0.000000
# 4 0.000000 0.000000 0.000000 0.036014 0.000000 0.000000
# 5 0.000000 0.000000 0.000000 0.000000 0.036015 0.000000
# 6 0.000000 0.000000 0.000000 0.000000 0.000000 0.017422
#
#
# Mechanical properties :
#
#
# Convention : Reuss Voigt Hill
#
# Bulk Modulus (GPa) = 51.63457 51.85578 51.74518
# Shear Modulus (GPa) = 27.94383 32.31127 30.12755
#
# Velocity S-wave (km/s) = 3.89575 4.18914 4.04511
# Velocity P-wave (km/s) = 6.94835 7.18070 7.06548
#
# Compressibility (1/GPa) = 0.01936687
#
# Stress axis : x y z
#
# Youngs Moduli (GPa) = 53.09237 53.09267 73.93584
#
# Poissons Ratio (x) = 0.51961 0.22654
# Poissons Ratio (y) = 0.51960 0.22650
# Poissons Ratio (z) = 0.16267 0.16265
#
# Static dielectric constant tensor:
#      x y z
#    x 3.843610 0.000000 0.000000 
#    y 0.000000 3.843610 0.000000 
#    z 0.000000 0.000000 3.213490 
# 
# 
# High freq. dielectric constant tensor:
#      x y z
#    x 1.721510 0.000000 0.000000 
#    y 0.000000 1.721510 0.000000 
#    z 0.000000 0.000000 1.679820 
# 
# From -- ./inp_files/11284.got.cif
#   From: 2010.03.12/outbox.cif.g09.slc.cpg/sg142_6_cif.got.tgz:11284.got - 2010.04.03 13:27:16.
