data_PCOD8321858
_publ_section_title
;
Structure prediction by ZEFSAII (Michael W. Deem and Ramdas Pophale) SiO2 
 PCOD8321858
Probable space group: P 3 1 2
;
_chemical_formula_sum "Si O2"
_cell_formula_units_Z 32
_cell_length_a 15.850055
_cell_length_b 15.850055
_cell_length_c 8.212006
_cell_angle_alpha 90.000000
_cell_angle_beta 90.000000
_cell_angle_gamma 120.000000
_cell_volume 1786.658035
_symmetry_space_group_name_H-M "P 3 1 2"
_symmetry_group_IT_number 149
_symmetry_cell_setting 'hexagonal'
loop_
_space_group_symop_operation_xyz
x,y,z
-y,x-y,z
-x+y,-x,z
-y,-x,-z
-x+y,y,-z
x,x-y,-z
loop_
_atom_site_type_symbol
_atom_site_label
_atom_site_fract_x
_atom_site_fract_y
_atom_site_fract_z
Si Si1 0.333335 0.666668 0.194146
Si Si2 0.825198 0.858923 0.336442
Si Si3 0.628004 0.891678 0.789932
Si Si4 0.638235 0.707564 0.834914
Si Si5 0.120743 0.566661 0.309818
Si Si6 0.853497 0.036806 0.166199
O O1 0.230064 0.646162 0.259594
O O2 0.333334 0.666667 0.000000
O O3 0.835353 0.917677 0.500000
O O4 0.721012 0.759574 0.321749
O O5 0.906029 0.826746 0.321397
O O6 0.839667 0.927895 0.176964
O O7 0.610706 0.783900 0.753675
O O8 0.538364 0.906607 0.752574
O O9 0.648243 0.921931 0.975081
O O10 0.552326 0.602117 0.771930
O O11 0.745870 0.724775 0.791928
O O12 0.106840 0.553420 0.500000
O O13 0.903410 0.096591 0.000000
#
# Coordination Sequence:
#
# PCOD8321858 Si02
#       6
#     2   6   6   6   6   6
#     4  12  22  35  55  72 109 158 199 231 286 353
#     4  11  23  36  58  85 117 155 195 253 305 352
#     4  10  21  36  55  79 112 151 196 240 288 347
#     4  10  21  37  57  80 108 158 197 244 287 352
#     4  12  24  35  55  83 114 152 198 245 295 347
#     4  11  21  39  58  80 112 154 209 245 295 362
#
# _framework density 17.910534999999999
#
# number of rings (size 3 to 8) (size 9 to 14) (size 15 to 20)
#    0.000    1.125    3.750    3.750    5.250    0.000 
#    0.000    0.000    0.000    0.000    0.000    0.000 
#    1.875    0.375    0.000    0.000    0.000    0.000 
#
# Total GULP energy -396467.657151 kJ/mol
# GULP energy per Si atom -12389.614286 kJ/mol
# Density = 1.786977 g / cm^3
# Si number density = 17.910535 Si / 1000 Ang^3
#
#
#
# Elastic Constant Matrix: (Units=GPa)
#
#
# Indices 1 2 3 4 5 6 
#
# 1 117.0928 56.0622 32.1506 0.0000 -6.4775 0.0001
# 2 56.0622 117.0932 32.1506 0.0004 6.4778 0.0001
# 3 32.1506 32.1506 74.0150 0.0000 0.0000 0.0000
# 4 0.0000 0.0004 0.0000 29.8869 0.0000 6.4777
# 5 -6.4775 6.4778 0.0000 0.0000 29.8867 0.0001
# 6 0.0001 0.0001 0.0000 6.4777 0.0001 30.5154
#
#
#
# Elastic Compliance Matrix: (Units=1/GPa)
#
#
# Indices 1 2 3 4 5 6 
#
# 1 0.012031 -0.005145 -0.002991 0.000000 0.003723 0.000000
# 2 -0.005145 0.012031 -0.002991 0.000000 -0.003723 0.000000
# 3 -0.002991 -0.002991 0.016109 0.000000 0.000000 0.000000
# 4 0.000000 0.000000 0.000000 0.035073 0.000000 -0.007445
# 5 0.003723 -0.003723 0.000000 0.000000 0.035073 0.000000
# 6 0.000000 0.000000 0.000000 -0.007445 0.000000 0.034351
#
#
# Mechanical properties :
#
#
# Convention : Reuss Voigt Hill
#
# Bulk Modulus (GPa) = 55.81370 60.99198 58.40284
# Shear Modulus (GPa) = 28.91945 30.58031 29.74988
#
# Velocity S-wave (km/s) = 4.02264 4.13654 4.07999
# Velocity P-wave (km/s) = 7.26675 7.54601 7.40770
#
# Compressibility (1/GPa) = 0.01791675
#
# Stress axis : x y z
#
# Youngs Moduli (GPa) = 83.12104 83.12115 62.07587
#
# Poissons Ratio (x) = 0.42764 0.18567
# Poissons Ratio (y) = 0.42764 0.18568
# Poissons Ratio (z) = 0.24862 0.24862
#
# Static dielectric constant tensor:
#      x y z
#    x 3.229900 -0.000010 0.000000 
#    y -0.000010 3.229900 0.000000 
#    z 0.000000 0.000000 3.189610 
# 
# 
# High freq. dielectric constant tensor:
#      x y z
#    x 1.669340 0.000000 0.000000 
#    y 0.000000 1.669340 0.000000 
#    z 0.000000 0.000000 1.707300 
# 
# From -- ./inp_files/614.got.cif
#   From: 2010.03.12/outbox.cif.g09.slc.cpg/sg149_cif.got.tgz:614.got - 2010.04.03 13:40:41.
