data_PCOD8321781
_publ_section_title
;
Structure prediction by ZEFSAII (Michael W. Deem and Ramdas Pophale) SiO2 
 PCOD8321781
Probable space group: R -3
;
_chemical_formula_sum "Si O2"
_cell_formula_units_Z 108
_cell_length_a 22.747611
_cell_length_b 22.747611
_cell_length_c 14.157646
_cell_angle_alpha 90.000000
_cell_angle_beta 90.000000
_cell_angle_gamma 120.000000
_cell_volume 6344.439589
_symmetry_space_group_name_H-M "R -3"
_symmetry_group_IT_number 148
_symmetry_cell_setting 'hexagonal'
loop_
_space_group_symop_operation_xyz
x,y,z
-y,x-y,z
-x+y,-x,z
-x,-y,-z
y,-x+y,-z
x-y,x,-z
2/3+x,1/3+y,1/3+z
2/3-y,1/3+x-y,1/3+z
2/3-x+y,1/3-x,1/3+z
2/3-x,1/3-y,1/3-z
2/3+y,1/3-x+y,1/3-z
2/3+x-y,1/3+x,1/3-z
1/3+x,2/3+y,2/3+z
1/3-y,2/3+x-y,2/3+z
1/3-x+y,2/3-x,2/3+z
1/3-x,2/3-y,2/3-z
1/3+y,2/3-x+y,2/3-z
1/3+x-y,2/3+x,2/3-z
loop_
_atom_site_type_symbol
_atom_site_label
_atom_site_fract_x
_atom_site_fract_y
_atom_site_fract_z
Si Si1 0.697516 0.519979 0.931307
Si Si2 0.025046 0.828614 0.605293
Si Si3 0.715562 0.041751 0.897694
Si Si4 0.157692 0.318185 0.182307
Si Si5 0.218302 0.440425 0.315160
Si Si6 0.997528 0.608671 0.734122
O O1 0.764701 0.519238 0.964064
O O2 0.682978 0.505497 0.820803
O O3 0.631529 0.460545 0.982940
O O4 0.696809 0.587536 0.964138
O O5 0.046259 0.771788 0.609518
O O6 0.963245 0.803666 0.679575
O O7 0.790728 0.079654 0.851053
O O8 0.657856 0.001854 0.819534
O O9 0.707685 0.988979 0.979622
O O10 0.194858 0.399178 0.212166
O O11 0.162185 0.279685 0.273536
O O12 0.200192 0.305822 0.101319
#
# Coordination Sequence:
#
# PCOD8321781 Si02
#       6
#    18  18  18  18  18  18
#     4  11  18  31  49  78 113 138 170 212 264 326
#     4  11  18  31  49  78 113 138 170 212 264 326
#     4  11  20  33  54  81 111 140 177 219 269 325
#     4  11  20  34  57  76 103 145 186 221 264 322
#     4  11  20  34  55  78 105 145 182 219 268 324
#     4  11  20  33  54  81 111 140 177 219 269 325
#
# _framework density 17.022780000000001
#
# number of rings (size 3 to 8) (size 9 to 14) (size 15 to 20)
#    0.000    1.000   10.000    2.000    0.000    0.000 
#    1.000    1.667    3.667    0.000    0.000    0.000 
#    0.000    1.333    0.000    0.000    0.000    0.000 
#
# Total GULP energy -446093.996614 kJ/mol
# GULP energy per Si atom -12391.499906 kJ/mol
# Density = 1.698404 g / cm^3
# Si number density = 17.022780 Si / 1000 Ang^3
#
#
#
# Elastic Constant Matrix: (Units=GPa)
#
#
# Indices 1 2 3 4 5 6 
#
# 1 71.5943 22.7235 30.6441 1.6466 0.8138 0.0000
# 2 22.7235 71.5943 30.6441 -1.6466 -0.8138 0.0000
# 3 30.6441 30.6441 52.7354 0.0000 0.0000 0.0000
# 4 1.6466 -1.6466 0.0000 22.8995 0.0000 -0.8138
# 5 0.8138 -0.8138 0.0000 0.0000 22.8995 1.6466
# 6 0.0000 0.0000 0.0000 -0.8138 1.6466 24.4354
#
#
#
# Elastic Compliance Matrix: (Units=1/GPa)
#
#
# Indices 1 2 3 4 5 6 
#
# 1 0.018810 -0.001776 -0.009899 -0.001480 -0.000732 0.000000
# 2 -0.001776 0.018810 -0.009899 0.001480 0.000732 0.000000
# 3 -0.009899 -0.009899 0.030467 0.000000 0.000000 0.000000
# 4 -0.001480 0.001480 0.000000 0.043934 0.000000 0.001463
# 5 -0.000732 0.000732 0.000000 0.000000 0.043934 -0.002961
# 6 0.000000 0.000000 0.000000 0.001463 -0.002961 0.041172
#
#
# Mechanical properties :
#
#
# Convention : Reuss Voigt Hill
#
# Bulk Modulus (GPa) = 40.09427 40.43861 40.26644
# Shear Modulus (GPa) = 20.11359 21.50771 20.81065
#
# Velocity S-wave (km/s) = 3.44112 3.55838 3.50025
# Velocity P-wave (km/s) = 6.27638 6.37887 6.32783
#
# Compressibility (1/GPa) = 0.02494122
#
# Stress axis : x y z
#
# Youngs Moduli (GPa) = 53.16185 53.16185 32.82266
#
# Poissons Ratio (x) = 0.09440 0.32490
# Poissons Ratio (y) = 0.09440 0.32490
# Poissons Ratio (z) = 0.52624 0.52624
#
# Static dielectric constant tensor:
#      x y z
#    x 3.175630 0.000000 0.000000 
#    y 0.000000 3.175630 0.000000 
#    z 0.000000 0.000000 2.883880 
# 
# 
# High freq. dielectric constant tensor:
#      x y z
#    x 1.647250 0.000000 0.000000 
#    y 0.000000 1.647250 0.000000 
#    z 0.000000 0.000000 1.615580 
# 
# From -- ./inp_files/2184.got.cif
#   From: 2010.03.12/outbox.cif.g09.slc.cpg/sg148_2_cif.got.tgz:2184.got - 2010.04.03 13:38:46.
