data_PCOD8321198
_publ_section_title
;
Structure prediction by ZEFSAII (Michael W. Deem and Ramdas Pophale) SiO2 
 PCOD8321198
Probable space group: I 41/A C D
;
_chemical_formula_sum "Si O2"
_cell_formula_units_Z 80
_cell_length_a 21.376456
_cell_length_b 21.376456
_cell_length_c 7.863544
_cell_angle_alpha 90.000000
_cell_angle_beta 90.000000
_cell_angle_gamma 90.000000
_cell_volume 3593.269008
_symmetry_space_group_name_H-M "I 41/A C D"
_symmetry_group_IT_number 142
_space_group.IT_coordinate_system_code '2'
_symmetry_cell_setting 'tetragonal'
loop_
_space_group_symop_operation_xyz
x,y,z
1/4-y,3/4+x,1/4+z
-x,1/2-y,z
1/4+y,1/4-x,3/4+z
x,-y,1/2-z
1/2-x,y,-z
3/4+y,1/4+x,1/4-z
1/4-y,1/4-x,1/4-z
-x,-y,-z
3/4+y,1/4-x,3/4-z
x,1/2+y,-z
3/4-y,3/4+x,1/4-z
-x,y,1/2+z
1/2+x,-y,z
1/4-y,3/4-x,3/4+z
3/4+y,3/4+x,3/4+z
1/2+x,1/2+y,1/2+z
3/4-y,1/4+x,3/4+z
1/2-x,-y,1/2+z
3/4+y,3/4-x,1/4+z
1/2+x,1/2-y,-z
-x,1/2+y,1/2-z
1/4+y,3/4+x,3/4-z
3/4-y,3/4-x,3/4-z
1/2-x,1/2-y,1/2-z
1/4+y,3/4-x,1/4-z
1/2+x,y,1/2-z
1/4-y,1/4+x,3/4-z
1/2-x,1/2+y,z
x,1/2-y,1/2+z
3/4-y,1/4-x,1/4+z
1/4+y,1/4+x,1/4+z
loop_
_atom_site_type_symbol
_atom_site_label
_atom_site_fract_x
_atom_site_fract_y
_atom_site_fract_z
Si Si1 0.356763 0.000000 0.250000
Si Si2 0.551847 0.169860 0.183724
Si Si3 0.296000 0.129184 0.159382
O O1 0.312712 0.056896 0.189700
O O2 0.401272 0.014554 0.412416
O O3 0.579611 0.226539 0.071259
O O4 0.574061 0.175940 0.375000
O O5 0.577593 0.105844 0.110740
O O6 0.250000 0.136829 0.000000
#
# Coordination Sequence:
#
# PCOD8321198 Si02
#       3
#    16  32  32
#     4  10  24  36  78  92 144 190 234 282 358 438
#     4  11  25  46  75 101 141 189 245 302 364 435
#     4  11  24  45  68 107 140 188 240 295 358 431
#
# _framework density 22.263850999999999
#
# number of rings (size 3 to 8) (size 9 to 14) (size 15 to 20)
#    0.000    1.200    0.000    6.000   22.400    0.000 
#    3.600    4.000    0.000    0.000    0.000    0.000 
#    0.000    0.000    0.000    0.000    0.000    0.000 
#
# Total GULP energy -495964.452091 kJ/mol
# GULP energy per Si atom -12399.111302 kJ/mol
# Density = 2.221318 g / cm^3
# Si number density = 22.263851 Si / 1000 Ang^3
#
#
#
# Elastic Constant Matrix: (Units=GPa)
#
#
# Indices 1 2 3 4 5 6 
#
# 1 93.1137 96.5768 62.1656 0.0000 0.0000 0.0000
# 2 96.5768 93.1141 62.1656 0.0000 0.0000 0.0000
# 3 62.1656 62.1656 217.1932 0.0000 0.0000 0.0000
# 4 0.0000 0.0000 0.0000 22.6604 0.0000 0.0000
# 5 0.0000 0.0000 0.0000 0.0000 22.6668 0.0000
# 6 0.0000 0.0000 0.0000 0.0000 0.0000 29.6967
#
#
#
# Elastic Compliance Matrix: (Units=1/GPa)
#
#
# Indices 1 2 3 4 5 6 
#
# 1 -0.141143 0.147632 -0.001857 0.000000 0.000000 0.000000
# 2 0.147632 -0.141142 -0.001857 0.000000 0.000000 0.000000
# 3 -0.001857 -0.001857 0.005667 0.000000 0.000000 0.000000
# 4 0.000000 0.000000 0.000000 0.044130 0.000000 0.000000
# 5 0.000000 0.000000 0.000000 0.000000 0.044117 0.000000
# 6 0.000000 0.000000 0.000000 0.000000 0.000000 0.033674
#
#
# Mechanical properties :
#
#
# Convention : Reuss Voigt Hill
#
# Bulk Modulus (GPa) = 89.15583 93.91523 91.53553
# Shear Modulus (GPa) = -11.39490 27.17232 7.88871
#
# Velocity S-wave (km/s) = -2.26478 3.49731 1.88440
# Velocity P-wave (km/s) = 5.77001 7.65393 6.77775
#
# Compressibility (1/GPa) = 0.01121632
#
# Stress axis : x y z
#
# Youngs Moduli (GPa) = -7.08501 -7.08505 176.44729
#
# Poissons Ratio (x) = 1.04598 0.32771
# Poissons Ratio (y) = 1.04597 0.32773
# Poissons Ratio (z) = -0.01316 -0.01316
#
# Static dielectric constant tensor:
#      x y z
#    x 4.081570 0.000000 0.000000 
#    y 0.000000 4.081770 0.000000 
#    z 0.000000 0.000000 5.152220 
# 
# 
# High freq. dielectric constant tensor:
#      x y z
#    x 1.865590 0.000000 0.000000 
#    y 0.000000 1.865590 0.000000 
#    z 0.000000 0.000000 1.910500 
# 
# From -- ./inp_files/1475.got.cif
#   From: 2010.03.12/outbox.cif.g09.slc.cpg/sg142_1_cif.got.tgz:1475.got - 2010.04.03 13:27:16.
