data_PCOD8321501
_publ_section_title
;
Structure prediction by ZEFSAII (Michael W. Deem and Ramdas Pophale) SiO2 
 PCOD8321501
Probable space group: P 32
;
_chemical_formula_sum "Si O2"
_cell_formula_units_Z 24
_cell_length_a 14.379419
_cell_length_b 14.379419
_cell_length_c 5.233190
_cell_angle_alpha 90.000000
_cell_angle_beta 90.000000
_cell_angle_gamma 120.000000
_cell_volume 937.086782
_symmetry_space_group_name_H-M "P 32"
_symmetry_group_IT_number 145
_symmetry_cell_setting 'hexagonal'
loop_
_space_group_symop_operation_xyz
x,y,z
-y,x-y,2/3+z
-x+y,-x,1/3+z
loop_
_atom_site_type_symbol
_atom_site_label
_atom_site_fract_x
_atom_site_fract_y
_atom_site_fract_z
Si Si1 0.538320 0.909044 0.925730
Si Si2 0.622936 0.048404 0.435510
Si Si3 0.633241 0.411965 0.562565
Si Si4 0.346619 0.073095 0.205759
Si Si5 0.893853 0.971829 0.569814
Si Si6 0.155370 0.353105 0.005442
Si Si7 0.864665 0.143023 0.374694
Si Si8 0.436568 0.686177 0.412217
O O1 0.600142 0.838297 0.912836
O O2 0.562906 0.984248 0.684043
O O3 0.409704 0.831767 0.892846
O O4 0.572430 0.980563 0.178902
O O5 0.620151 0.159479 0.437170
O O6 0.744512 0.078364 0.478128
O O7 0.585416 0.324169 0.339188
O O8 0.663711 0.529009 0.461058
O O9 0.324838 0.137147 0.428789
O O10 0.310005 0.958097 0.344860
O O11 0.288504 0.062163 0.933016
O O12 0.769364 0.891756 0.624902
O O13 0.954668 0.908489 0.483908
O O14 0.904804 0.056356 0.348041
O O15 0.218529 0.439413 0.780277
O O16 0.378847 0.752777 0.330745
#
# Coordination Sequence:
#
# PCOD8321501 Si02
#       8
#     3   3   3   3   3   3   3   3
#     4  12  28  50  85 117 164 213 277 344 422 489
#     4  12  27  50  80 121 159 219 275 340 415 504
#     4  12  28  48  82 113 168 221 278 337 417 494
#     4  12  28  50  76 117 162 212 275 344 407 495
#     4  12  27  50  82 114 164 214 275 339 426 500
#     4  12  27  52  82 124 163 218 276 347 421 500
#     4  12  26  50  76 111 162 209 272 337 408 487
#     4  12  27  52  79 119 168 214 274 342 416 509
#
# _framework density 25.611288999999999
#
# number of rings (size 3 to 8) (size 9 to 14) (size 15 to 20)
#    0.000    0.000    5.000    3.750    1.750    5.000 
#    0.000    0.000    0.000    0.000    0.000    0.000 
#    0.000    0.000    0.000    0.000    0.000    0.000 
#
# Total GULP energy -297362.398043 kJ/mol
# GULP energy per Si atom -12390.099918 kJ/mol
# Density = 2.555300 g / cm^3
# Si number density = 25.611289 Si / 1000 Ang^3
#
#
#
# Elastic Constant Matrix: (Units=GPa)
#
#
# Indices 1 2 3 4 5 6 
#
# 1 122.0547 21.1964 18.1096 3.6840 -6.0010 0.0000
# 2 21.1964 122.0547 18.1096 -3.6840 6.0010 0.0000
# 3 18.1096 18.1096 94.7009 0.0000 0.0000 0.0000
# 4 3.6840 -3.6840 0.0000 36.4443 0.0000 6.0010
# 5 -6.0010 6.0010 0.0000 0.0000 36.4443 3.6840
# 6 0.0000 0.0000 0.0000 6.0010 3.6840 50.4292
#
#
#
# Elastic Compliance Matrix: (Units=1/GPa)
#
#
# Indices 1 2 3 4 5 6 
#
# 1 0.008763 -0.001427 -0.001403 -0.001030 0.001678 0.000000
# 2 -0.001427 0.008763 -0.001403 0.001030 -0.001678 0.000000
# 3 -0.001403 -0.001403 0.011096 0.000000 0.000000 0.000000
# 4 -0.001030 0.001030 0.000000 0.028200 0.000000 -0.003356
# 5 0.001678 -0.001678 0.000000 0.000000 0.028200 -0.002060
# 6 0.000000 0.000000 0.000000 -0.003356 -0.002060 0.020380
#
#
# Mechanical properties :
#
#
# Convention : Reuss Voigt Hill
#
# Bulk Modulus (GPa) = 49.61328 50.40462 50.00895
# Shear Modulus (GPa) = 41.46456 43.42319 42.44387
#
# Velocity S-wave (km/s) = 4.02804 4.12208 4.07533
# Velocity P-wave (km/s) = 6.40681 6.50989 6.45856
#
# Compressibility (1/GPa) = 0.02015589
#
# Stress axis : x y z
#
# Youngs Moduli (GPa) = 114.12120 114.12120 90.12210
#
# Poissons Ratio (x) = 0.16287 0.12642
# Poissons Ratio (y) = 0.16287 0.12642
# Poissons Ratio (z) = 0.16008 0.16008
#
# Static dielectric constant tensor:
#      x y z
#    x 5.128370 0.000000 0.000000 
#    y 0.000000 5.128370 0.000000 
#    z 0.000000 0.000000 4.344550 
# 
# 
# High freq. dielectric constant tensor:
#      x y z
#    x 2.041530 0.000000 0.000000 
#    y 0.000000 2.041530 0.000000 
#    z 0.000000 0.000000 2.005410 
# 
# From -- ./inp_files/183.got.cif
#   From: 2010.03.12/outbox.cif.g09.slc.cpg/sg145_cif.got.tgz:183.got - 2010.04.03 13:35:35.
