data_PCOD8321532
_publ_section_title
;
Structure prediction by ZEFSAII (Michael W. Deem and Ramdas Pophale) SiO2 
 PCOD8321532
Probable space group: R 3
;
_chemical_formula_sum "Si O2"
_cell_formula_units_Z 42
_cell_length_a 12.296463
_cell_length_b 12.296463
_cell_length_c 16.021420
_cell_angle_alpha 90.000000
_cell_angle_beta 90.000000
_cell_angle_gamma 120.000000
_cell_volume 2097.935114
_symmetry_space_group_name_H-M "R 3"
_symmetry_group_IT_number 146
_symmetry_cell_setting 'hexagonal'
loop_
_space_group_symop_operation_xyz
x,y,z
-y,x-y,z
-x+y,-x,z
2/3+x,1/3+y,1/3+z
2/3-y,1/3+x-y,1/3+z
2/3-x+y,1/3-x,1/3+z
1/3+x,2/3+y,2/3+z
1/3-y,2/3+x-y,2/3+z
1/3-x+y,2/3-x,2/3+z
loop_
_atom_site_type_symbol
_atom_site_label
_atom_site_fract_x
_atom_site_fract_y
_atom_site_fract_z
Si Si1 0.996705 0.205074 0.270630
Si Si2 0.000000 0.000000 0.377414
Si Si3 0.260785 0.257675 0.727105
Si Si4 0.333334 0.666668 0.237674
Si Si5 0.003282 0.208365 0.677792
Si Si6 0.924339 0.594116 0.554646
O O1 0.994109 0.120758 0.347615
O O2 0.010275 0.333330 0.307546
O O3 0.115800 0.234479 0.212224
O O4 0.868702 0.130148 0.218739
O O5 0.000000 0.000000 0.474211
O O6 0.234501 0.115811 0.736206
O O7 0.333329 0.319164 0.640874
O O8 0.342447 0.333343 0.807539
O O9 0.131290 0.261428 0.729673
O O10 0.339157 0.793287 0.267471
#
# Coordination Sequence:
#
# PCOD8321532 Si02
#       6
#     9   3   9   3   9   9
#     4   9  20  36  55  81 113 149 189 236 284 335
#     4   9  18  33  54  81 109 143 193 243 282 330
#     4  10  22  39  58  84 117 150 190 237 282 337
#     4   9  18  33  54  81 109 143 193 243 282 330
#     4   9  20  36  55  81 113 149 189 236 284 335
#     4  10  22  39  58  84 117 150 190 237 282 337
#
# _framework density 20.019683000000001
#
# number of rings (size 3 to 8) (size 9 to 14) (size 15 to 20)
#    0.000    2.571    0.000    0.857    0.000   20.571 
#    0.000    0.000    0.000    0.857    0.000    0.000 
#    0.000    0.000    0.000    0.000    0.000    0.000 
#
# Total GULP energy -173580.440902 kJ/mol
# GULP energy per Si atom -12398.602922 kJ/mol
# Density = 1.997412 g / cm^3
# Si number density = 20.019683 Si / 1000 Ang^3
#
#
#
# Elastic Constant Matrix: (Units=GPa)
#
#
# Indices 1 2 3 4 5 6 
#
# 1 79.1544 19.1741 23.4680 -8.5894 0.0010 -0.0001
# 2 19.1741 79.1547 23.4678 8.5897 -0.0007 0.0001
# 3 23.4680 23.4678 130.0369 0.0002 0.0002 -0.0003
# 4 -8.5894 8.5897 0.0002 20.6128 -0.0001 -0.0008
# 5 0.0010 -0.0007 0.0002 -0.0001 20.6128 -8.5893
# 6 -0.0001 0.0001 -0.0003 -0.0008 -8.5893 29.9898
#
#
#
# Elastic Compliance Matrix: (Units=1/GPa)
#
#
# Indices 1 2 3 4 5 6 
#
# 1 0.015030 -0.003901 -0.002008 0.007889 -0.000001 0.000000
# 2 -0.003901 0.015030 -0.002008 -0.007889 0.000001 0.000000
# 3 -0.002008 -0.002008 0.008415 0.000000 0.000000 0.000000
# 4 0.007889 -0.007889 0.000000 0.055088 0.000000 0.000002
# 5 -0.000001 0.000001 0.000000 0.000000 0.055088 0.015778
# 6 0.000000 0.000000 0.000000 0.000002 0.015778 0.037863
#
#
# Mechanical properties :
#
#
# Convention : Reuss Voigt Hill
#
# Bulk Modulus (GPa) = 44.17204 46.72952 45.45078
# Shear Modulus (GPa) = 23.82109 29.05882 26.43995
#
# Velocity S-wave (km/s) = 3.45321 3.81401 3.63808
# Velocity P-wave (km/s) = 6.16537 6.54125 6.35609
#
# Compressibility (1/GPa) = 0.02263876
#
# Stress axis : x y z
#
# Youngs Moduli (GPa) = 66.53290 66.53318 118.83485
#
# Poissons Ratio (x) = 0.25958 0.23867
# Poissons Ratio (y) = 0.25958 0.23866
# Poissons Ratio (z) = 0.13363 0.13362
#
# Static dielectric constant tensor:
#      x y z
#    x 3.844120 0.000010 0.000010 
#    y 0.000010 3.844120 0.000000 
#    z 0.000010 0.000000 3.232180 
# 
# 
# High freq. dielectric constant tensor:
#      x y z
#    x 1.785810 0.000000 0.000000 
#    y 0.000000 1.785810 0.000000 
#    z 0.000000 0.000000 1.755890 
# 
# From -- ./inp_files/1455.got.cif
#   From: 2010.06.25/outbox.cif.g09.slc.cpg/sg146_cif.got.tgz:1455.got - 2010.06.28 11:17:22.
