data_PCOD8321728
_publ_section_title
;
Structure prediction by ZEFSAII (Michael W. Deem and Ramdas Pophale) SiO2 
 PCOD8321728
Probable space group: R -3
;
_chemical_formula_sum "Si O2"
_cell_formula_units_Z 72
_cell_length_a 22.848950
_cell_length_b 22.848950
_cell_length_c 8.138754
_cell_angle_alpha 90.000000
_cell_angle_beta 90.000000
_cell_angle_gamma 120.000000
_cell_volume 3679.773166
_symmetry_space_group_name_H-M "R -3"
_symmetry_group_IT_number 148
_symmetry_cell_setting 'hexagonal'
loop_
_space_group_symop_operation_xyz
x,y,z
-y,x-y,z
-x+y,-x,z
-x,-y,-z
y,-x+y,-z
x-y,x,-z
2/3+x,1/3+y,1/3+z
2/3-y,1/3+x-y,1/3+z
2/3-x+y,1/3-x,1/3+z
2/3-x,1/3-y,1/3-z
2/3+y,1/3-x+y,1/3-z
2/3+x-y,1/3+x,1/3-z
1/3+x,2/3+y,2/3+z
1/3-y,2/3+x-y,2/3+z
1/3-x+y,2/3-x,2/3+z
1/3-x,2/3-y,2/3-z
1/3+y,2/3-x+y,2/3-z
1/3+x-y,2/3+x,2/3-z
loop_
_atom_site_type_symbol
_atom_site_label
_atom_site_fract_x
_atom_site_fract_y
_atom_site_fract_z
Si Si1 0.208332 0.930484 0.835612
Si Si2 0.593912 0.086930 0.121660
Si Si3 0.388801 0.263715 0.668781
Si Si4 0.493099 0.086932 0.621674
O O1 0.245342 0.885883 0.826398
O O2 0.137254 0.900987 0.736037
O O3 0.259519 0.999993 0.749757
O O4 0.196073 0.934672 0.025442
O O5 0.666679 0.152962 0.083140
O O6 0.578668 0.026151 0.992872
O O7 0.529402 0.096981 0.097974
O O8 0.405241 0.267579 0.858568
#
# Coordination Sequence:
#
# PCOD8321728 Si02
#       4
#    18  18  18  18
#     4  10  21  35  55  79 111 144 183 224 272 324
#     4  10  21  35  54  80 109 146 182 224 272 323
#     4  10  21  35  55  79 111 144 183 224 272 324
#     4  10  21  35  54  80 109 146 182 224 272 323
#
# _framework density 19.566423
#
# number of rings (size 3 to 8) (size 9 to 14) (size 15 to 20)
#    0.000    2.000    0.000    3.000    7.000    4.000 
#    0.000    0.000    0.000    1.000    0.000    7.000 
#    0.000    0.000    0.000    0.000    0.000    0.000 
#
# Total GULP energy -297370.111862 kJ/mol
# GULP energy per Si atom -12390.421328 kJ/mol
# Density = 1.952189 g / cm^3
# Si number density = 19.566423 Si / 1000 Ang^3
#
#
#
# Elastic Constant Matrix: (Units=GPa)
#
#
# Indices 1 2 3 4 5 6 
#
# 1 70.2219 8.3393 15.9378 7.0153 -0.1599 -0.0354
# 2 8.3393 70.3150 16.1735 -7.0571 0.0068 -0.0241
# 3 15.9378 16.1735 58.9694 0.0230 -0.5358 0.0294
# 4 7.0153 -7.0571 0.0230 29.5733 0.0473 0.0048
# 5 -0.1599 0.0068 -0.5358 0.0473 29.2825 7.0174
# 6 -0.0354 -0.0241 0.0294 0.0048 7.0174 30.9790
#
#
#
# Elastic Compliance Matrix: (Units=1/GPa)
#
#
# Indices 1 2 3 4 5 6 
#
# 1 0.015684 -0.001379 -0.003859 -0.004047 0.000018 0.000017
# 2 -0.001379 0.015700 -0.003936 0.004077 -0.000098 0.000036
# 3 -0.003859 -0.003936 0.019084 -0.000039 0.000354 -0.000106
# 4 -0.004047 0.004077 -0.000039 0.035747 -0.000084 0.000012
# 5 0.000018 -0.000098 0.000354 -0.000084 0.036118 -0.008182
# 6 0.000017 0.000036 -0.000106 0.000012 -0.008182 0.034133
#
#
# Mechanical properties :
#
#
# Convention : Reuss Voigt Hill
#
# Bulk Modulus (GPa) = 31.13269 31.15637 31.14453
# Shear Modulus (GPa) = 26.95123 28.57068 27.76095
#
# Velocity S-wave (km/s) = 3.71539 3.82539 3.77079
# Velocity P-wave (km/s) = 5.86100 5.95562 5.90850
#
# Compressibility (1/GPa) = 0.03212057
#
# Stress axis : x y z
#
# Youngs Moduli (GPa) = 63.75722 63.69550 52.40057
#
# Poissons Ratio (x) = 0.08781 0.20223
# Poissons Ratio (y) = 0.08790 0.20624
# Poissons Ratio (z) = 0.24605 0.25070
#
# Static dielectric constant tensor:
#      x y z
#    x 3.667650 -0.001070 0.000490 
#    y -0.001070 3.667340 -0.000400 
#    z 0.000490 -0.000400 3.917790 
# 
# 
# High freq. dielectric constant tensor:
#      x y z
#    x 1.736340 0.000000 -0.000010 
#    y 0.000000 1.736340 0.000000 
#    z -0.000010 0.000000 1.784250 
# 
# From -- ./inp_files/816.got.cif
#   From: 2010.03.12/outbox.cif.g09.slc.cpg/sg148_1_cif.got.tgz:816.got - 2010.04.03 13:38:46.
