data_PCOD8321338
_publ_section_title
;
Structure prediction by ZEFSAII (Michael W. Deem and Ramdas Pophale) SiO2 
 PCOD8321338
Probable space group: P 3
;
_chemical_formula_sum "Si O2"
_cell_formula_units_Z 18
_cell_length_a 8.601946
_cell_length_b 8.601946
_cell_length_c 13.454609
_cell_angle_alpha 90.000000
_cell_angle_beta 90.000000
_cell_angle_gamma 120.000000
_cell_volume 862.174427
_symmetry_space_group_name_H-M "P 3"
_symmetry_group_IT_number 143
_symmetry_cell_setting 'hexagonal'
loop_
_space_group_symop_operation_xyz
x,y,z
-y,x-y,z
-x+y,-x,z
loop_
_atom_site_type_symbol
_atom_site_label
_atom_site_fract_x
_atom_site_fract_y
_atom_site_fract_z
Si Si1 0.679162 0.676501 0.451500
Si Si2 0.322648 0.001961 0.221180
Si Si3 0.002065 0.653391 0.143073
Si Si4 0.881642 0.513658 0.930960
Si Si5 0.002447 0.653585 0.529357
Si Si6 0.513063 0.881612 0.741857
O O1 0.723095 0.723191 0.336416
O O2 0.859095 0.716174 0.508353
O O3 0.524065 0.471149 0.464949
O O4 0.607724 0.800231 0.498326
O O5 0.199552 0.808062 0.172252
O O6 0.528082 0.052657 0.207256
O O7 0.282905 0.143277 0.166599
O O8 0.000667 0.611425 0.026840
O O9 0.697434 0.523387 0.931077
O O10 0.998531 0.615701 0.835823
O O11 0.000106 0.609379 0.645353
O O12 0.301988 0.825821 0.743103
#
# Coordination Sequence:
#
# PCOD8321338 Si02
#       6
#     3   3   3   3   3   3
#     4  12  24  42  68  97 137 187 234 283 345 409
#     4  12  24  42  68  97 137 187 234 283 345 409
#     4  12  25  45  66 102 141 179 234 290 340 411
#     4  10  23  43  69  99 134 174 225 279 342 405
#     4  12  25  45  66 102 141 179 234 290 340 411
#     4  10  23  43  69  99 134 174 225 279 342 405
#
# _framework density 20.877445000000002
#
# number of rings (size 3 to 8) (size 9 to 14) (size 15 to 20)
#    0.667    0.000    3.333    5.000    4.667    0.000 
#    0.000    0.000    0.000    0.667    0.000    0.000 
#    0.000    0.000    0.000    0.000    0.000    0.000 
#
# Total GULP energy -223301.766154 kJ/mol
# GULP energy per Si atom -12405.653675 kJ/mol
# Density = 2.082993 g / cm^3
# Si number density = 20.877445 Si / 1000 Ang^3
#
#
#
# Elastic Constant Matrix: (Units=GPa)
#
#
# Indices 1 2 3 4 5 6 
#
# 1 85.2597 20.2360 54.3649 -5.6380 1.3004 0.0000
# 2 20.2360 85.2597 54.3649 5.6380 -1.3004 0.0000
# 3 54.3649 54.3649 185.7656 0.0000 0.0000 0.0000
# 4 -5.6380 5.6380 0.0000 34.7841 0.0000 -1.3004
# 5 1.3004 -1.3004 0.0000 0.0000 34.7841 -5.6380
# 6 0.0000 0.0000 0.0000 -1.3004 -5.6380 32.5118
#
#
#
# Elastic Compliance Matrix: (Units=1/GPa)
#
#
# Indices 1 2 3 4 5 6 
#
# 1 0.014711 -0.001138 -0.003972 0.002569 -0.000593 0.000000
# 2 -0.001138 0.014711 -0.003972 -0.002569 0.000593 0.000000
# 3 -0.003972 -0.003972 0.007708 0.000000 0.000000 0.000000
# 4 0.002569 -0.002569 0.000000 0.029626 0.000000 0.001185
# 5 -0.000593 0.000593 0.000000 0.000000 0.029626 0.005138
# 6 0.000000 0.000000 0.000000 0.001185 0.005138 0.031696
#
#
# Mechanical properties :
#
#
# Convention : Reuss Voigt Hill
#
# Bulk Modulus (GPa) = 52.72770 68.24628 60.48699
# Shear Modulus (GPa) = 32.77336 35.57062 34.17199
#
# Velocity S-wave (km/s) = 3.96637 4.13217 4.05011
# Velocity P-wave (km/s) = 6.80343 7.45160 7.13488
#
# Compressibility (1/GPa) = 0.01896536
#
# Stress axis : x y z
#
# Youngs Moduli (GPa) = 67.97821 67.97821 129.73419
#
# Poissons Ratio (x) = 0.07733 0.51533
# Poissons Ratio (y) = 0.07733 0.51533
# Poissons Ratio (z) = 0.27002 0.27002
#
# Static dielectric constant tensor:
#      x y z
#    x 3.617390 0.000000 0.000000 
#    y 0.000000 3.617390 0.000000 
#    z 0.000000 0.000000 3.701180 
# 
# 
# High freq. dielectric constant tensor:
#      x y z
#    x 1.813430 0.000000 0.000000 
#    y 0.000000 1.813430 0.000000 
#    z 0.000000 0.000000 1.827930 
# 
# From -- ./inp_files/239.got.cif
#   From: 2010.03.12/outbox.cif.g09.slc.cpg/sg143_cif.got.tgz:239.got - 2010.04.03 13:34:35.
