data_PCOD8321276
_publ_section_title
;
Structure prediction by ZEFSAII (Michael W. Deem and Ramdas Pophale) SiO2 
 PCOD8321276
Probable space group: I 41/A C D
;
_chemical_formula_sum "Si O2"
_cell_formula_units_Z 120
_cell_length_a 21.630680
_cell_length_b 21.630680
_cell_length_c 12.617156
_cell_angle_alpha 90.000000
_cell_angle_beta 90.000000
_cell_angle_gamma 90.000000
_cell_volume 5903.394655
_symmetry_space_group_name_H-M "I 41/A C D"
_symmetry_group_IT_number 142
_space_group.IT_coordinate_system_code '2'
_symmetry_cell_setting 'tetragonal'
loop_
_space_group_symop_operation_xyz
x,y,z
1/4-y,3/4+x,1/4+z
-x,1/2-y,z
1/4+y,1/4-x,3/4+z
x,-y,1/2-z
1/2-x,y,-z
3/4+y,1/4+x,1/4-z
1/4-y,1/4-x,1/4-z
-x,-y,-z
3/4+y,1/4-x,3/4-z
x,1/2+y,-z
3/4-y,3/4+x,1/4-z
-x,y,1/2+z
1/2+x,-y,z
1/4-y,3/4-x,3/4+z
3/4+y,3/4+x,3/4+z
1/2+x,1/2+y,1/2+z
3/4-y,1/4+x,3/4+z
1/2-x,-y,1/2+z
3/4+y,3/4-x,1/4+z
1/2+x,1/2-y,-z
-x,1/2+y,1/2-z
1/4+y,3/4+x,3/4-z
3/4-y,3/4-x,3/4-z
1/2-x,1/2-y,1/2-z
1/4+y,3/4-x,1/4-z
1/2+x,y,1/2-z
1/4-y,1/4+x,3/4-z
1/2-x,1/2+y,z
x,1/2-y,1/2+z
3/4-y,1/4-x,1/4+z
1/4+y,1/4+x,1/4+z
loop_
_atom_site_type_symbol
_atom_site_label
_atom_site_fract_x
_atom_site_fract_y
_atom_site_fract_z
Si Si1 0.309795 0.117719 0.270139
Si Si2 0.889864 0.860137 0.875000
Si Si3 0.680409 0.069701 0.540426
Si Si4 0.000000 0.250000 0.375000
Si Si5 0.976502 0.147693 0.043663
O O1 0.332608 0.082608 0.375000
O O2 0.328836 0.082043 0.164037
O O3 0.235902 0.117332 0.268585
O O4 0.336606 0.187145 0.265506
O O5 0.877440 0.906120 0.777158
O O6 0.875963 0.789533 0.846863
O O7 0.750000 0.053220 0.500000
O O8 0.937637 0.240925 0.309464
O O9 0.939910 0.189910 0.125000
#
# Coordination Sequence:
#
# PCOD8321276 Si02
#       5
#    32  16  32   8  32
#     4  11  24  42  71 103 132 181 233 274 346 411
#     4  12  23  44  68  94 144 176 230 285 342 402
#     4  12  23  45  69  99 143 186 221 284 348 406
#     4  12  18  44  72  90 144 172 226 280 364 402
#     4  11  24  42  68 100 128 179 229 285 342 413
#
# _framework density 20.327289
#
# number of rings (size 3 to 8) (size 9 to 14) (size 15 to 20)
#    0.000    0.533    5.333    4.000    0.000    1.067 
#    0.000    0.000    0.000    0.000    0.000    0.000 
#    0.000    0.000    0.000    0.000    0.000    0.000 
#
# Total GULP energy -744013.057530 kJ/mol
# GULP energy per Si atom -12400.217626 kJ/mol
# Density = 2.028102 g / cm^3
# Si number density = 20.327289 Si / 1000 Ang^3
#
#
#
# Elastic Constant Matrix: (Units=GPa)
#
#
# Indices 1 2 3 4 5 6 
#
# 1 95.7656 119.4254 54.1107 0.0000 0.0000 0.0000
# 2 119.4254 95.7632 54.1129 0.0000 0.0000 0.0000
# 3 54.1107 54.1129 158.1708 0.0000 0.0000 0.0000
# 4 0.0000 0.0000 0.0000 33.7279 0.0000 0.0000
# 5 0.0000 0.0000 0.0000 0.0000 33.7296 0.0000
# 6 0.0000 0.0000 0.0000 0.0000 0.0000 37.3321
#
#
#
# Elastic Compliance Matrix: (Units=1/GPa)
#
#
# Indices 1 2 3 4 5 6 
#
# 1 -0.018325 0.023938 -0.001921 0.000000 0.000000 0.000000
# 2 0.023938 -0.018326 -0.001920 0.000000 0.000000 0.000000
# 3 -0.001921 -0.001920 0.007636 0.000000 0.000000 0.000000
# 4 0.000000 0.000000 0.000000 0.029649 0.000000 0.000000
# 5 0.000000 0.000000 0.000000 0.000000 0.029648 0.000000
# 6 0.000000 0.000000 0.000000 0.000000 0.000000 0.026787
#
#
# Mechanical properties :
#
#
# Convention : Reuss Voigt Hill
#
# Bulk Modulus (GPa) = 89.43822 89.44418 89.44120
# Shear Modulus (GPa) = 242.72049 29.09463 135.90756
#
# Velocity S-wave (km/s) = 10.93917 3.78737 8.18565
# Velocity P-wave (km/s) = 14.27055 7.95130 11.55144
#
# Compressibility (1/GPa) = 0.01118090
#
# Stress axis : x y z
#
# Youngs Moduli (GPa) = -54.57042 -54.56765 130.95685
#
# Poissons Ratio (x) = 1.30625 0.25152
# Poissons Ratio (y) = 1.30632 0.25140
# Poissons Ratio (z) = -0.10481 -0.10476
#
# Static dielectric constant tensor:
#      x y z
#    x 3.717290 0.000000 0.000000 
#    y 0.000000 3.717340 0.000000 
#    z 0.000000 0.000000 3.994040 
# 
# 
# High freq. dielectric constant tensor:
#      x y z
#    x 1.791750 0.000000 0.000000 
#    y 0.000000 1.791760 0.000000 
#    z 0.000000 0.000000 1.819700 
# 
# From -- ./inp_files/3517.got.cif
#   From: 2010.03.12/outbox.cif.g09.slc.cpg/sg142_2_cif.got.tgz:3517.got - 2010.04.03 13:27:16.
