data_PCOD8321353
_publ_section_title
;
Structure prediction by ZEFSAII (Michael W. Deem and Ramdas Pophale) SiO2 
 PCOD8321353
Probable space group: P 31
;
_chemical_formula_sum "Si O2"
_cell_formula_units_Z 21
_cell_length_a 11.122175
_cell_length_b 11.122175
_cell_length_c 9.594136
_cell_angle_alpha 90.000000
_cell_angle_beta 90.000000
_cell_angle_gamma 120.000000
_cell_volume 1027.817364
_symmetry_space_group_name_H-M "P 31"
_symmetry_group_IT_number 144
_symmetry_cell_setting 'hexagonal'
loop_
_space_group_symop_operation_xyz
x,y,z
-y,x-y,1/3+z
-x+y,-x,2/3+z
loop_
_atom_site_type_symbol
_atom_site_label
_atom_site_fract_x
_atom_site_fract_y
_atom_site_fract_z
Si Si1 0.134159 0.999175 0.679990
Si Si2 0.780654 0.187683 0.146026
Si Si3 0.021376 0.699035 0.029336
Si Si4 0.040100 0.337055 0.446088
Si Si5 0.936204 0.483893 0.264773
Si Si6 0.938769 0.694250 0.744318
Si Si7 0.999208 0.183308 0.710290
O O1 0.173926 0.950954 0.535856
O O2 0.034059 0.859053 0.759563
O O3 0.262865 0.080008 0.782331
O O4 0.059433 0.088910 0.645520
O O5 0.823999 0.341515 0.193421
O O6 0.689038 0.068404 0.263157
O O7 0.693946 0.153555 0.006287
O O8 0.023522 0.592342 0.141689
O O9 0.898683 0.732297 0.054112
O O10 0.168576 0.838774 0.031153
O O11 0.987351 0.631961 0.871893
O O12 0.057816 0.323213 0.614111
O O13 0.037800 0.470764 0.379574
O O14 0.885335 0.215858 0.416321
#
# Coordination Sequence:
#
# PCOD8321353 Si02
#       7
#     3   3   3   3   3   3   3
#     4  12  18  35  66 106 125 139 196 276 343 364
#     4  11  24  40  58  88 125 165 204 251 301 367
#     4  11  20  39  63  90 122 163 197 247 314 366
#     4  10  21  37  60  91 123 163 193 249 311 367
#     4  11  25  42  60  84 126 169 208 244 293 377
#     4  10  20  34  64 100 120 142 196 272 329 354
#     4  11  18  31  65 103 125 141 190 265 335 365
#
# _framework density 20.431646000000001
#
# number of rings (size 3 to 8) (size 9 to 14) (size 15 to 20)
#    0.000    1.143    5.714    2.571    0.000    3.429 
#    2.571    0.000    6.286    0.000    0.000    0.000 
#    0.000    0.000    0.000    0.000    0.000    0.000 
#
# Total GULP energy -260153.773053 kJ/mol
# GULP energy per Si atom -12388.274907 kJ/mol
# Density = 2.038514 g / cm^3
# Si number density = 20.431646 Si / 1000 Ang^3
#
#
#
# Elastic Constant Matrix: (Units=GPa)
#
#
# Indices 1 2 3 4 5 6 
#
# 1 53.4851 9.3646 20.6611 -0.5395 -5.1314 0.0000
# 2 9.3646 53.4851 20.6611 0.5395 5.1314 0.0000
# 3 20.6611 20.6611 126.0121 0.0000 0.0000 0.0000
# 4 -0.5395 0.5395 0.0000 30.8016 0.0000 5.1314
# 5 -5.1314 5.1314 0.0000 0.0000 30.8016 -0.5395
# 6 0.0000 0.0000 0.0000 5.1314 -0.5395 22.0603
#
#
#
# Elastic Compliance Matrix: (Units=1/GPa)
#
#
# Indices 1 2 3 4 5 6 
#
# 1 0.020711 -0.002878 -0.002924 0.000413 0.003930 0.000000
# 2 -0.002878 0.020711 -0.002924 -0.000413 -0.003930 0.000000
# 3 -0.002924 -0.002924 0.008895 0.000000 0.000000 0.000000
# 4 0.000413 -0.000413 0.000000 0.033790 0.000000 -0.007860
# 5 0.003930 -0.003930 0.000000 0.000000 0.033790 0.000826
# 6 0.000000 0.000000 0.000000 -0.007860 0.000826 0.047179
#
#
# Mechanical properties :
#
#
# Convention : Reuss Voigt Hill
#
# Bulk Modulus (GPa) = 30.42708 37.15067 33.78888
# Shear Modulus (GPa) = 25.84210 28.88574 27.36392
#
# Velocity S-wave (km/s) = 3.56027 3.76410 3.66360
# Velocity P-wave (km/s) = 5.64138 6.09210 5.87106
#
# Compressibility (1/GPa) = 0.03286546
#
# Stress axis : x y z
#
# Youngs Moduli (GPa) = 48.28255 48.28255 112.42788
#
# Poissons Ratio (x) = 0.13896 0.32874
# Poissons Ratio (y) = 0.13896 0.32874
# Poissons Ratio (z) = 0.14118 0.14118
#
# Static dielectric constant tensor:
#      x y z
#    x 3.484440 0.000000 0.000000 
#    y 0.000000 3.484440 0.000000 
#    z 0.000000 0.000000 4.468280 
# 
# 
# High freq. dielectric constant tensor:
#      x y z
#    x 1.763220 0.000000 0.000000 
#    y 0.000000 1.763220 0.000000 
#    z 0.000000 0.000000 1.832290 
# 
# From -- ./inp_files/329.got.cif
#   From: 2010.03.12/outbox.cif.g09.slc.cpg/sg144_cif.got.tgz:329.got - 2010.04.03 13:34:42.
