data_PCOD8321061
_publ_section_title
;
Structure prediction by ZEFSAII (Michael W. Deem and Ramdas Pophale) SiO2 
 PCOD8321061
Probable space group: I 41/A C D
;
_chemical_formula_sum "Si O2"
_cell_formula_units_Z 80
_cell_length_a 20.109556
_cell_length_b 20.109556
_cell_length_c 10.143855
_cell_angle_alpha 90.000000
_cell_angle_beta 90.000000
_cell_angle_gamma 90.000000
_cell_volume 4102.116559
_symmetry_space_group_name_H-M "I 41/A C D"
_symmetry_group_IT_number 142
_space_group.IT_coordinate_system_code '2'
_symmetry_cell_setting 'tetragonal'
loop_
_space_group_symop_operation_xyz
x,y,z
1/4-y,3/4+x,1/4+z
-x,1/2-y,z
1/4+y,1/4-x,3/4+z
x,-y,1/2-z
1/2-x,y,-z
3/4+y,1/4+x,1/4-z
1/4-y,1/4-x,1/4-z
-x,-y,-z
3/4+y,1/4-x,3/4-z
x,1/2+y,-z
3/4-y,3/4+x,1/4-z
-x,y,1/2+z
1/2+x,-y,z
1/4-y,3/4-x,3/4+z
3/4+y,3/4+x,3/4+z
1/2+x,1/2+y,1/2+z
3/4-y,1/4+x,3/4+z
1/2-x,-y,1/2+z
3/4+y,3/4-x,1/4+z
1/2+x,1/2-y,-z
-x,1/2+y,1/2-z
1/4+y,3/4+x,3/4-z
3/4-y,3/4-x,3/4-z
1/2-x,1/2-y,1/2-z
1/4+y,3/4-x,1/4-z
1/2+x,y,1/2-z
1/4-y,1/4+x,3/4-z
1/2-x,1/2+y,z
x,1/2-y,1/2+z
3/4-y,1/4-x,1/4+z
1/4+y,1/4+x,1/4+z
loop_
_atom_site_type_symbol
_atom_site_label
_atom_site_fract_x
_atom_site_fract_y
_atom_site_fract_z
Si Si1 0.295839 0.000000 0.750000
Si Si2 0.886827 0.125370 0.770307
Si Si3 0.702284 0.739829 0.875605
O O1 0.247339 0.997339 0.875000
O O2 0.341134 0.063358 0.756287
O O3 0.905667 0.155667 0.625000
O O4 0.949886 0.099186 0.852058
O O5 0.846000 0.177378 0.857482
O O6 0.750000 0.750000 0.750000
O O7 0.750000 0.728792 0.000000
#
# Coordination Sequence:
#
# PCOD8321061 Si02
#       3
#    16  32  32
#     4  10  20  38  60  92 130 170 220 280 338 396
#     4  11  23  45  67  94 143 183 222 291 349 408
#     4  12  24  45  71 102 139 183 233 286 349 416
#
# _framework density 19.502127999999999
#
# number of rings (size 3 to 8) (size 9 to 14) (size 15 to 20)
#    0.000    0.800    6.000    2.400    2.800    2.400 
#    0.000    2.000    0.000    0.000    0.000    0.000 
#    0.000    0.000    0.000    0.000    0.000    0.000 
#
# Total GULP energy -495767.918658 kJ/mol
# GULP energy per Si atom -12394.197966 kJ/mol
# Density = 1.945774 g / cm^3
# Si number density = 19.502128 Si / 1000 Ang^3
#
#
#
# Elastic Constant Matrix: (Units=GPa)
#
#
# Indices 1 2 3 4 5 6 
#
# 1 118.6784 74.2989 69.3377 0.0000 0.0000 0.0000
# 2 74.2989 118.6784 69.3377 0.0000 0.0000 0.0000
# 3 69.3377 69.3377 154.6763 0.0000 0.0000 0.0000
# 4 0.0000 0.0000 0.0000 41.1806 0.0000 0.0000
# 5 0.0000 0.0000 0.0000 0.0000 41.1806 0.0000
# 6 0.0000 0.0000 0.0000 0.0000 0.0000 22.0864
#
#
#
# Elastic Compliance Matrix: (Units=1/GPa)
#
#
# Indices 1 2 3 4 5 6 
#
# 1 0.015089 -0.007444 -0.003427 0.000000 0.000000 0.000000
# 2 -0.007444 0.015089 -0.003427 0.000000 0.000000 0.000000
# 3 -0.003427 -0.003427 0.009537 0.000000 0.000000 0.000000
# 4 0.000000 0.000000 0.000000 0.024283 0.000000 0.000000
# 5 0.000000 0.000000 0.000000 0.000000 0.024283 0.000000
# 6 0.000000 0.000000 0.000000 0.000000 0.000000 0.045277
#
#
# Mechanical properties :
#
#
# Convention : Reuss Voigt Hill
#
# Bulk Modulus (GPa) = 89.93539 90.88686 90.41112
# Shear Modulus (GPa) = 30.14580 32.82675 31.48627
#
# Velocity S-wave (km/s) = 3.93589 4.10718 4.02245
# Velocity P-wave (km/s) = 8.17746 8.31845 8.24826
#
# Compressibility (1/GPa) = 0.01111909
#
# Stress axis : x y z
#
# Youngs Moduli (GPa) = 66.27464 66.27464 104.84954
#
# Poissons Ratio (x) = 0.49336 0.35930
# Poissons Ratio (y) = 0.49336 0.35930
# Poissons Ratio (z) = 0.22711 0.22711
#
# Static dielectric constant tensor:
#      x y z
#    x 4.169820 0.000000 0.000000 
#    y 0.000000 4.169820 0.000000 
#    z 0.000000 0.000000 4.671190 
# 
# 
# High freq. dielectric constant tensor:
#      x y z
#    x 1.760060 0.000000 0.000000 
#    y 0.000000 1.760060 0.000000 
#    z 0.000000 0.000000 1.781040 
# 
# From -- ./inp_files/1518.got.cif
#   From: 2010.03.12/outbox.cif.g09.slc.cpg/sg142_1_cif.got.tgz:1518.got - 2010.04.03 13:27:16.
