data_PCOD8321616
_publ_section_title
;
Structure prediction by ZEFSAII (Michael W. Deem and Ramdas Pophale) SiO2 
 PCOD8321616
Probable space group: P -3
;
_chemical_formula_sum "Si O2"
_cell_formula_units_Z 24
_cell_length_a 13.561649
_cell_length_b 13.561649
_cell_length_c 8.770018
_cell_angle_alpha 90.000000
_cell_angle_beta 90.000000
_cell_angle_gamma 120.000000
_cell_volume 1396.870405
_symmetry_space_group_name_H-M "P -3"
_symmetry_group_IT_number 147
_symmetry_cell_setting 'hexagonal'
loop_
_space_group_symop_operation_xyz
x,y,z
-y,x-y,z
-x+y,-x,z
-x,-y,-z
y,-x+y,-z
x-y,x,-z
loop_
_atom_site_type_symbol
_atom_site_label
_atom_site_fract_x
_atom_site_fract_y
_atom_site_fract_z
Si Si1 0.673373 0.541846 0.927315
Si Si2 0.131526 0.673373 0.427315
Si Si3 0.871773 0.535693 0.072427
Si Si4 0.871773 0.535693 0.427572
O O1 0.697571 0.538569 0.750000
O O2 0.632616 0.632129 0.964723
O O3 0.789493 0.582747 0.020336
O O4 0.578449 0.416289 0.979170
O O5 0.162159 0.578448 0.479171
O O6 0.206745 0.789493 0.520336
O O7 0.000487 0.632616 0.464723
O O8 0.856550 0.504688 0.250000
#
# Coordination Sequence:
#
# PCOD8321616 Si02
#       4
#     6   6   6   6
#     4  10  20  33  50  72  98 128 160 196 238 283
#     4  10  20  33  50  72  98 128 160 196 238 283
#     4  10  20  33  50  72  98 128 160 196 238 283
#     4  10  20  33  50  72  98 128 160 196 238 283
#
# _framework density 17.181263999999999
#
# number of rings (size 3 to 8) (size 9 to 14) (size 15 to 20)
#    0.000    2.000    0.000    4.000    0.000    6.000 
#    0.000    0.000    0.000    1.000    0.000    0.000 
#    0.000    0.000    0.000    0.000    0.000    0.000 
#
# Total GULP energy -297723.076685 kJ/mol
# GULP energy per Si atom -12405.128195 kJ/mol
# Density = 1.714216 g / cm^3
# Si number density = 17.181264 Si / 1000 Ang^3
#
#
#
# Elastic Constant Matrix: (Units=GPa)
#
#
# Indices 1 2 3 4 5 6 
#
# 1 98.0514 47.5369 28.8810 0.0000 0.0000 0.0000
# 2 47.5369 98.0514 28.8810 0.0000 0.0000 0.0000
# 3 28.8810 28.8810 44.2858 0.0000 0.0000 0.0000
# 4 0.0000 0.0000 0.0000 30.5470 0.0000 0.0000
# 5 0.0000 0.0000 0.0000 0.0000 30.5470 0.0000
# 6 0.0000 0.0000 0.0000 0.0000 0.0000 25.2573
#
#
#
# Elastic Compliance Matrix: (Units=1/GPa)
#
#
# Indices 1 2 3 4 5 6 
#
# 1 0.014531 -0.005265 -0.006043 0.000000 0.000000 0.000000
# 2 -0.005265 0.014531 -0.006043 0.000000 0.000000 0.000000
# 3 -0.006043 -0.006043 0.030462 0.000000 0.000000 0.000000
# 4 0.000000 0.000000 0.000000 0.032736 0.000000 0.000000
# 5 0.000000 0.000000 0.000000 0.000000 0.032736 0.000000
# 6 0.000000 0.000000 0.000000 0.000000 0.000000 0.039593
#
#
# Mechanical properties :
#
#
# Convention : Reuss Voigt Hill
#
# Bulk Modulus (GPa) = 40.28519 50.10960 45.19740
# Shear Modulus (GPa) = 24.08864 26.27625 25.18245
#
# Velocity S-wave (km/s) = 3.74843 3.91494 3.83259
# Velocity P-wave (km/s) = 6.49864 7.04729 6.77852
#
# Compressibility (1/GPa) = 0.02482302
#
# Stress axis : x y z
#
# Youngs Moduli (GPa) = 68.81715 68.81715 32.82728
#
# Poissons Ratio (x) = 0.36232 0.19837
# Poissons Ratio (y) = 0.36232 0.19837
# Poissons Ratio (z) = 0.41586 0.41586
#
# Static dielectric constant tensor:
#      x y z
#    x 3.130070 0.000000 0.000000 
#    y 0.000000 3.130070 0.000000 
#    z 0.000000 0.000000 3.306740 
# 
# 
# High freq. dielectric constant tensor:
#      x y z
#    x 1.650780 0.000000 0.000000 
#    y 0.000000 1.650780 0.000000 
#    z 0.000000 0.000000 1.682870 
# 
# From -- ./inp_files/407.got.cif
#   From: 2010.03.12/outbox.cif.g09.slc.cpg/sg147_cif.got.tgz:407.got - 2010.04.03 13:37:56.
