data_PCOD8321584
_publ_section_title
;
Structure prediction by ZEFSAII (Michael W. Deem and Ramdas Pophale) SiO2 
 PCOD8321584
Probable space group: P -3
;
_chemical_formula_sum "Si O2"
_cell_formula_units_Z 42
_cell_length_a 19.016698
_cell_length_b 19.016698
_cell_length_c 6.238447
_cell_angle_alpha 90.000000
_cell_angle_beta 90.000000
_cell_angle_gamma 120.000000
_cell_volume 1953.787563
_symmetry_space_group_name_H-M "P -3"
_symmetry_group_IT_number 147
_symmetry_cell_setting 'hexagonal'
loop_
_space_group_symop_operation_xyz
x,y,z
-y,x-y,z
-x+y,-x,z
-x,-y,-z
y,-x+y,-z
x-y,x,-z
loop_
_atom_site_type_symbol
_atom_site_label
_atom_site_fract_x
_atom_site_fract_y
_atom_site_fract_z
Si Si1 0.387518 0.833348 0.544679
Si Si2 0.986210 0.556485 0.218746
Si Si3 0.438041 0.341005 0.836457
Si Si4 0.716162 0.032138 0.487707
Si Si5 0.169094 0.674144 0.262023
Si Si6 0.243777 0.765704 0.861400
Si Si7 0.648044 0.855053 0.525795
O O1 0.447476 0.924600 0.641234
O O2 0.342497 0.839964 0.333351
O O3 0.439928 0.791620 0.460675
O O4 0.318902 0.775349 0.715095
O O5 0.969020 0.628452 0.295783
O O6 0.081680 0.590303 0.248708
O O7 0.962332 0.537444 0.965227
O O8 0.355747 0.318969 0.717553
O O9 0.425536 0.274970 0.012790
O O10 0.805430 0.109842 0.463976
O O11 0.718168 0.948729 0.506439
O O12 0.165444 0.755009 0.317635
O O13 0.214474 0.690469 0.031016
O O14 0.165888 0.753166 0.727330
#
# Coordination Sequence:
#
# PCOD8321584 Si02
#       7
#     6   6   6   6   6   6   6
#     4  10  21  35  56  85 124 156 203 268 312 361
#     4   9  19  34  58  88 120 152 203 262 319 369
#     4  10  17  36  56  78 122 156 196 258 308 366
#     4  10  19  35  59  91 122 159 202 267 315 374
#     4  11  22  35  59  91 118 162 210 254 319 380
#     4  11  20  37  59  82 122 167 206 258 311 376
#     4  11  21  38  61  90 124 159 212 263 319 371
#
# _framework density 21.496708999999999
#
# number of rings (size 3 to 8) (size 9 to 14) (size 15 to 20)
#    0.000    1.714    5.714    1.286    0.000    2.857 
#    0.000    0.000    0.000   11.714    0.000    0.000 
#    0.000    1.143    0.000    0.000    0.000    0.000 
#
# Total GULP energy -520369.283262 kJ/mol
# GULP energy per Si atom -12389.744840 kJ/mol
# Density = 2.144778 g / cm^3
# Si number density = 21.496709 Si / 1000 Ang^3
#
#
#
# Elastic Constant Matrix: (Units=GPa)
#
#
# Indices 1 2 3 4 5 6 
#
# 1 90.4432 41.8821 36.0679 1.4436 2.1824 0.0000
# 2 41.8821 90.4432 36.0679 -1.4436 -2.1824 0.0000
# 3 36.0679 36.0679 119.2769 0.0000 0.0000 0.0000
# 4 1.4436 -1.4436 0.0000 27.7185 0.0000 -2.1824
# 5 2.1824 -2.1824 0.0000 0.0000 27.7185 1.4436
# 6 0.0000 0.0000 0.0000 -2.1824 1.4436 24.2806
#
#
#
# Elastic Compliance Matrix: (Units=1/GPa)
#
#
# Indices 1 2 3 4 5 6 
#
# 1 0.014927 -0.005878 -0.002736 -0.001084 -0.001638 0.000000
# 2 -0.005878 0.014927 -0.002736 0.001084 0.001638 0.000000
# 3 -0.002736 -0.002736 0.010039 0.000000 0.000000 0.000000
# 4 -0.001084 0.001084 0.000000 0.036448 0.000000 0.003276
# 5 -0.001638 0.001638 0.000000 0.000000 0.036448 -0.002167
# 6 0.000000 0.000000 0.000000 0.003276 -0.002167 0.041609
#
#
# Mechanical properties :
#
#
# Convention : Reuss Voigt Hill
#
# Bulk Modulus (GPa) = 58.16915 58.68880 58.42898
# Shear Modulus (GPa) = 27.34831 28.35321 27.85076
#
# Velocity S-wave (km/s) = 3.57067 3.63568 3.60332
# Velocity P-wave (km/s) = 6.64213 6.70707 6.67468
#
# Compressibility (1/GPa) = 0.01719124
#
# Stress axis : x y z
#
# Youngs Moduli (GPa) = 66.99486 66.99486 99.61486
#
# Poissons Ratio (x) = 0.39378 0.27257
# Poissons Ratio (y) = 0.39378 0.27257
# Poissons Ratio (z) = 0.18331 0.18331
#
# Static dielectric constant tensor:
#      x y z
#    x 3.755020 0.000000 0.000000 
#    y 0.000000 3.755020 0.000000 
#    z 0.000000 0.000000 4.327930 
# 
# 
# High freq. dielectric constant tensor:
#      x y z
#    x 1.814300 0.000000 0.000000 
#    y 0.000000 1.814300 0.000000 
#    z 0.000000 0.000000 1.871810 
# 
# From -- ./inp_files/234.got.cif
#   From: 2010.03.12/outbox.cif.g09.slc.cpg/sg147_cif.got.tgz:234.got - 2010.04.03 13:37:56.
