data_PCOD8321700
_publ_section_title
;
Structure prediction by ZEFSAII (Michael W. Deem and Ramdas Pophale) SiO2 
 PCOD8321700
Probable space group: R -3
;
_chemical_formula_sum "Si O2"
_cell_formula_units_Z 114
_cell_length_a 14.395940
_cell_length_b 14.395940
_cell_length_c 31.038228
_cell_angle_alpha 90.000000
_cell_angle_beta 90.000000
_cell_angle_gamma 120.000000
_cell_volume 5570.672238
_symmetry_space_group_name_H-M "R -3"
_symmetry_group_IT_number 148
_symmetry_cell_setting 'hexagonal'
loop_
_space_group_symop_operation_xyz
x,y,z
-y,x-y,z
-x+y,-x,z
-x,-y,-z
y,-x+y,-z
x-y,x,-z
2/3+x,1/3+y,1/3+z
2/3-y,1/3+x-y,1/3+z
2/3-x+y,1/3-x,1/3+z
2/3-x,1/3-y,1/3-z
2/3+y,1/3-x+y,1/3-z
2/3+x-y,1/3+x,1/3-z
1/3+x,2/3+y,2/3+z
1/3-y,2/3+x-y,2/3+z
1/3-x+y,2/3-x,2/3+z
1/3-x,2/3-y,2/3-z
1/3+y,2/3-x+y,2/3-z
1/3+x-y,2/3+x,2/3-z
loop_
_atom_site_type_symbol
_atom_site_label
_atom_site_fract_x
_atom_site_fract_y
_atom_site_fract_z
Si Si1 0.333334 0.666667 0.716963
Si Si2 0.183893 0.901178 0.650707
Si Si3 0.142074 0.434474 0.170020
Si Si4 0.339162 0.966100 0.918231
Si Si5 0.570479 0.495619 0.037840
Si Si6 0.600278 0.978695 0.252949
Si Si7 0.221331 0.793271 0.726902
O O1 0.333335 0.666668 0.666667
O O2 0.242534 0.694213 0.732246
O O3 0.085809 0.837006 0.617733
O O4 0.192817 0.811145 0.678281
O O5 0.292469 0.970912 0.624448
O O6 0.167315 0.982889 0.683082
O O7 0.136640 0.538557 0.155699
O O8 0.070161 0.371647 0.211009
O O9 0.101430 0.357431 0.129185
O O10 0.385207 0.888715 0.935368
O O11 0.211837 0.893472 0.908410
O O12 0.592599 0.585611 0.073282
O O13 0.500000 0.500000 0.000000
O O14 0.667286 0.104229 0.260956
#
# Coordination Sequence:
#
# PCOD8321700 Si02
#       7
#     6  18  18  18  18  18  18
#     4  12  21  33  57  96 129 159 201 267 327 381
#     4  10  19  35  61  94 129 160 210 265 328 389
#     4  12  25  43  67  89 123 166 220 272 318 386
#     4  11  21  39  62  89 128 172 215 262 321 391
#     4   9  19  34  58  89 123 168 205 256 326 390
#     4  11  21  38  62  94 124 169 216 262 325 387
#     4  11  23  36  62  96 130 165 215 268 329 382
#
# _framework density 20.464316
#
# number of rings (size 3 to 8) (size 9 to 14) (size 15 to 20)
#    0.000    1.263    3.158    5.842    0.000    0.632 
#    0.000    0.000    0.000   24.632    0.000    0.000 
#    0.000    0.000    0.000    0.000    0.000    0.000 
#
# Total GULP energy -470814.891175 kJ/mol
# GULP energy per Si atom -12389.865557 kJ/mol
# Density = 2.041774 g / cm^3
# Si number density = 20.464316 Si / 1000 Ang^3
#
#
#
# Elastic Constant Matrix: (Units=GPa)
#
#
# Indices 1 2 3 4 5 6 
#
# 1 99.2041 47.8237 36.7389 -1.2769 -5.8723 0.0002
# 2 47.8237 99.2043 36.7390 1.2770 5.8723 0.0001
# 3 36.7389 36.7390 89.1392 0.0001 0.0001 0.0000
# 4 -1.2769 1.2770 0.0001 25.3965 0.0000 5.8724
# 5 -5.8723 5.8723 0.0001 0.0000 25.3963 -1.2769
# 6 0.0002 0.0001 0.0000 5.8724 -1.2769 25.6904
#
#
#
# Elastic Compliance Matrix: (Units=1/GPa)
#
#
# Indices 1 2 3 4 5 6 
#
# 1 0.014584 -0.006019 -0.003530 0.001036 0.004764 0.000000
# 2 -0.006019 0.014584 -0.003530 -0.001036 -0.004764 0.000000
# 3 -0.003530 -0.003530 0.014129 0.000000 0.000000 0.000000
# 4 0.001036 -0.001036 0.000000 0.041683 0.000000 -0.009528
# 5 0.004764 -0.004764 0.000000 0.000000 0.041683 0.002072
# 6 0.000000 0.000000 0.000000 -0.009528 0.002072 0.041206
#
#
# Mechanical properties :
#
#
# Convention : Reuss Voigt Hill
#
# Bulk Modulus (GPa) = 58.34829 58.90563 58.62696
# Shear Modulus (GPa) = 25.03244 26.37972 25.70608
#
# Velocity S-wave (km/s) = 3.50126 3.59424 3.54805
# Velocity P-wave (km/s) = 6.70218 6.78762 6.74503
#
# Compressibility (1/GPa) = 0.01713846
#
# Stress axis : x y z
#
# Youngs Moduli (GPa) = 68.56626 68.56633 70.77869
#
# Poissons Ratio (x) = 0.41268 0.24988
# Poissons Ratio (y) = 0.41268 0.24988
# Poissons Ratio (z) = 0.24207 0.24207
#
# Static dielectric constant tensor:
#      x y z
#    x 3.728040 0.000000 0.000000 
#    y 0.000000 3.728050 0.000000 
#    z 0.000000 0.000000 3.621060 
# 
# 
# High freq. dielectric constant tensor:
#      x y z
#    x 1.795500 0.000000 0.000000 
#    y 0.000000 1.795500 0.000000 
#    z 0.000000 0.000000 1.783190 
# 
# From -- ./inp_files/4031.got.cif
#   From: 2010.03.12/outbox.cif.g09.slc.cpg/sg148_3_cif.got.tgz:4031.got - 2010.04.03 13:38:46.
