data_PCOD8321146
_publ_section_title
;
Structure prediction by ZEFSAII (Michael W. Deem and Ramdas Pophale) SiO2 
 PCOD8321146
Probable space group: I 41/A C D
;
_chemical_formula_sum "Si O2"
_cell_formula_units_Z 216
_cell_length_a 26.087329
_cell_length_b 26.087329
_cell_length_c 15.571536
_cell_angle_alpha 90.000000
_cell_angle_beta 90.000000
_cell_angle_gamma 90.000000
_cell_volume 10597.189117
_symmetry_space_group_name_H-M "I 41/A C D"
_symmetry_group_IT_number 142
_space_group.IT_coordinate_system_code '2'
_symmetry_cell_setting 'tetragonal'
loop_
_space_group_symop_operation_xyz
x,y,z
1/4-y,3/4+x,1/4+z
-x,1/2-y,z
1/4+y,1/4-x,3/4+z
x,-y,1/2-z
1/2-x,y,-z
3/4+y,1/4+x,1/4-z
1/4-y,1/4-x,1/4-z
-x,-y,-z
3/4+y,1/4-x,3/4-z
x,1/2+y,-z
3/4-y,3/4+x,1/4-z
-x,y,1/2+z
1/2+x,-y,z
1/4-y,3/4-x,3/4+z
3/4+y,3/4+x,3/4+z
1/2+x,1/2+y,1/2+z
3/4-y,1/4+x,3/4+z
1/2-x,-y,1/2+z
3/4+y,3/4-x,1/4+z
1/2+x,1/2-y,-z
-x,1/2+y,1/2-z
1/4+y,3/4+x,3/4-z
3/4-y,3/4-x,3/4-z
1/2-x,1/2-y,1/2-z
1/4+y,3/4-x,1/4-z
1/2+x,y,1/2-z
1/4-y,1/4+x,3/4-z
1/2-x,1/2+y,z
x,1/2-y,1/2+z
3/4-y,1/4-x,1/4+z
1/4+y,1/4+x,1/4+z
loop_
_atom_site_type_symbol
_atom_site_label
_atom_site_fract_x
_atom_site_fract_y
_atom_site_fract_z
Si Si1 0.301499 0.510666 0.045614
Si Si2 0.467334 0.847935 0.562553
Si Si3 0.151698 0.048568 0.883696
Si Si4 0.909368 0.630512 0.177814
Si Si5 0.067698 0.690242 0.516479
Si Si6 0.500000 0.750000 0.375000
Si Si7 0.750000 0.820907 0.500000
Si Si8 0.839867 0.751600 0.957161
O O1 0.302298 0.552298 0.125000
O O2 0.296319 0.452353 0.076324
O O3 0.250000 0.527197 0.000000
O O4 0.345910 0.515358 0.972725
O O5 0.443722 0.806279 0.625000
O O6 0.433458 0.853193 0.477718
O O7 0.523961 0.827675 0.546943
O O8 0.471621 0.901994 0.614037
O O9 0.148880 0.106121 0.919162
O O10 0.104849 0.027768 0.824119
O O11 0.924643 0.643206 0.080931
O O12 0.953319 0.594684 0.220946
O O13 0.050359 0.741922 0.567330
O O14 0.118231 0.706554 0.467394
O O15 0.711987 0.780284 0.543825
#
# Coordination Sequence:
#
# PCOD8321146 Si02
#       8
#    32  32  32  32  32   8  16  32
#     4   9  20  42  70  99 122 152 218 288 333 383
#     4  10  22  39  60  95 127 165 218 272 311 387
#     4  11  23  43  70  97 130 171 222 280 341 403
#     4  11  22  40  64  87 129 177 217 258 329 399
#     4  12  19  35  61  87 119 163 213 259 321 376
#     4  12  16  28  62  88 112 156 202 264 288 376
#     4  12  26  44  64  98 142 176 214 280 348 402
#     4  11  24  42  59  90 134 172 215 271 328 401
#
# _framework density 20.382764999999999
#
# number of rings (size 3 to 8) (size 9 to 14) (size 15 to 20)
#    0.000    1.185    5.185    1.333    0.000    4.741 
#    9.333    0.741    0.000    0.000    0.000    0.000 
#    0.000    0.000    0.000    0.000    0.000    0.000 
#
# Total GULP energy -1338033.847129 kJ/mol
# GULP energy per Si atom -12389.202288 kJ/mol
# Density = 2.033637 g / cm^3
# Si number density = 20.382765 Si / 1000 Ang^3
#
#
#
# Elastic Constant Matrix: (Units=GPa)
#
#
# Indices 1 2 3 4 5 6 
#
# 1 75.9781 26.2894 34.2391 0.0000 0.0000 0.0000
# 2 26.2894 75.9786 34.2390 0.0000 0.0000 0.0000
# 3 34.2391 34.2390 92.0551 0.0000 0.0000 0.0000
# 4 0.0000 0.0000 0.0000 14.2960 0.0000 0.0000
# 5 0.0000 0.0000 0.0000 0.0000 14.2986 0.0000
# 6 0.0000 0.0000 0.0000 0.0000 0.0000 32.0781
#
#
#
# Elastic Compliance Matrix: (Units=1/GPa)
#
#
# Indices 1 2 3 4 5 6 
#
# 1 0.016573 -0.003552 -0.004843 0.000000 0.000000 0.000000
# 2 -0.003552 0.016573 -0.004843 0.000000 0.000000 0.000000
# 3 -0.004843 -0.004843 0.014466 0.000000 0.000000 0.000000
# 4 0.000000 0.000000 0.000000 0.069950 0.000000 0.000000
# 5 0.000000 0.000000 0.000000 0.000000 0.069937 0.000000
# 6 0.000000 0.000000 0.000000 0.000000 0.000000 0.031174
#
#
# Mechanical properties :
#
#
# Convention : Reuss Voigt Hill
#
# Bulk Modulus (GPa) = 47.31335 48.17187 47.74261
# Shear Modulus (GPa) = 19.82597 22.08415 20.95506
#
# Velocity S-wave (km/s) = 3.12217 3.29518 3.20984
# Velocity P-wave (km/s) = 6.02163 6.17759 6.10011
#
# Compressibility (1/GPa) = 0.02113568
#
# Stress axis : x y z
#
# Youngs Moduli (GPa) = 60.33813 60.33871 69.12872
#
# Poissons Ratio (x) = 0.21432 0.33480
# Poissons Ratio (y) = 0.21432 0.33479
# Poissons Ratio (z) = 0.29223 0.29222
#
# Static dielectric constant tensor:
#      x y z
#    x 3.621030 0.000000 0.000000 
#    y 0.000000 3.621020 0.000000 
#    z 0.000000 0.000000 4.325980 
# 
# 
# High freq. dielectric constant tensor:
#      x y z
#    x 1.781280 0.000000 0.000000 
#    y 0.000000 1.781280 0.000000 
#    z 0.000000 0.000000 1.815600 
# 
# From -- ./inp_files/5816.got.cif
#   From: 2010.03.12/outbox.cif.g09.slc.cpg/sg142_3_cif.got.tgz:5816.got - 2010.04.03 13:27:16.
