data_PCOD8321877
_publ_section_title
;
Structure prediction by ZEFSAII (Michael W. Deem and Ramdas Pophale) SiO2 
 PCOD8321877
Probable space group: P 3 2 1
;
_chemical_formula_sum "Si O2"
_cell_formula_units_Z 39
_cell_length_a 15.007260
_cell_length_b 15.007260
_cell_length_c 10.740029
_cell_angle_alpha 90.000000
_cell_angle_beta 90.000000
_cell_angle_gamma 120.000000
_cell_volume 2094.782317
_symmetry_space_group_name_H-M "P 3 2 1"
_symmetry_group_IT_number 150
_symmetry_cell_setting 'hexagonal'
loop_
_space_group_symop_operation_xyz
x,y,z
-y,x-y,z
-x+y,-x,z
x-y,-y,-z
-x,-x+y,-z
y,x,-z
loop_
_atom_site_type_symbol
_atom_site_label
_atom_site_fract_x
_atom_site_fract_y
_atom_site_fract_z
Si Si1 0.618303 0.112641 0.939753
Si Si2 0.137931 0.660224 0.343778
Si Si3 0.717326 0.000000 0.500000
Si Si4 0.005071 0.329662 0.800658
Si Si5 0.556148 0.714444 0.005960
Si Si6 0.283799 0.090425 0.417528
Si Si7 0.534274 0.669779 0.403259
O O1 0.622434 0.097965 0.793768
O O2 0.730108 0.184012 0.001726
O O3 0.551015 0.168201 0.953380
O O4 0.563583 0.000000 0.000000
O O5 0.058477 0.688985 0.399858
O O6 0.250321 0.759902 0.333714
O O7 0.142359 0.574503 0.432103
O O8 0.737314 0.921448 0.579280
O O9 0.050195 0.267321 0.725379
O O10 0.913197 0.263530 0.898654
O O11 0.960206 0.370132 0.691866
O O12 0.103128 0.420307 0.871312
O O13 0.397403 0.120038 0.473389
O O14 0.196468 0.000000 0.500000
#
# Coordination Sequence:
#
# PCOD8321877 Si02
#       7
#     6   6   3   6   6   6   6
#     4  12  22  36  57  85 118 154 197 240 285 346
#     4  11  20  34  55  83 115 139 189 231 276 337
#     4  10  24  36  56  92 106 140 192 244 288 344
#     4  10  19  38  56  76 111 156 185 230 286 349
#     4  11  22  37  56  84 116 158 198 229 291 343
#     4   9  21  39  60  78 112 146 189 230 297 346
#     4  10  19  35  56  82 109 151 179 226 284 346
#
# _framework density 18.617688000000001
#
# number of rings (size 3 to 8) (size 9 to 14) (size 15 to 20)
#    0.000    1.538    4.615    0.615    5.385    0.000 
#    0.462    0.000    0.000    0.000    0.000    0.000 
#    6.154    0.000    0.000    0.000    0.000    0.000 
#
# Total GULP energy -483334.358700 kJ/mol
# GULP energy per Si atom -12393.188685 kJ/mol
# Density = 1.857531 g / cm^3
# Si number density = 18.617688 Si / 1000 Ang^3
#
#
#
# Elastic Constant Matrix: (Units=GPa)
#
#
# Indices 1 2 3 4 5 6 
#
# 1 99.6549 69.0894 28.1113 -2.3779 0.0000 0.0000
# 2 69.0894 99.6549 28.1113 2.3779 0.0000 0.0000
# 3 28.1113 28.1113 66.0595 0.0000 0.0000 0.0000
# 4 -2.3779 2.3779 0.0000 18.1416 0.0000 0.0000
# 5 0.0000 0.0000 0.0000 0.0000 18.1416 -2.3779
# 6 0.0000 0.0000 0.0000 0.0000 -2.3779 15.2827
#
#
#
# Elastic Compliance Matrix: (Units=1/GPa)
#
#
# Indices 1 2 3 4 5 6 
#
# 1 0.020151 -0.013246 -0.002938 0.004378 0.000000 0.000000
# 2 -0.013246 0.020151 -0.002938 -0.004378 0.000000 0.000000
# 3 -0.002938 -0.002938 0.017639 0.000000 0.000000 0.000000
# 4 0.004378 -0.004378 0.000000 0.056269 0.000000 0.000000
# 5 0.000000 0.000000 0.000000 0.000000 0.056269 0.008755
# 6 0.000000 0.000000 0.000000 0.000000 0.008755 0.066796
#
#
# Mechanical properties :
#
#
# Convention : Reuss Voigt Hill
#
# Bulk Modulus (GPa) = 50.77364 57.33258 54.05311
# Shear Modulus (GPa) = 17.72498 19.65034 18.68766
#
# Velocity S-wave (km/s) = 3.08888 3.25232 3.17165
# Velocity P-wave (km/s) = 6.32870 6.70559 6.51987
#
# Compressibility (1/GPa) = 0.01969526
#
# Stress axis : x y z
#
# Youngs Moduli (GPa) = 49.62414 49.62414 56.69336
#
# Poissons Ratio (x) = 0.65734 0.16659
# Poissons Ratio (y) = 0.65734 0.16659
# Poissons Ratio (z) = 0.14582 0.14582
#
# Static dielectric constant tensor:
#      x y z
#    x 3.519280 0.000000 0.000000 
#    y 0.000000 3.519280 0.000000 
#    z 0.000000 0.000000 3.473870 
# 
# 
# High freq. dielectric constant tensor:
#      x y z
#    x 1.716820 0.000000 0.000000 
#    y 0.000000 1.716820 0.000000 
#    z 0.000000 0.000000 1.720510 
# 
# From -- ./inp_files/930.got.cif
#   From: 2010.03.12/outbox.cif.g09.slc.cpg/sg150_cif.got.tgz:930.got - 2010.04.03 13:41:37.
