data_PCOD8321745
_publ_section_title
;
Structure prediction by ZEFSAII (Michael W. Deem and Ramdas Pophale) SiO2 
 PCOD8321745
Probable space group: R -3
;
_chemical_formula_sum "Si O2"
_cell_formula_units_Z 66
_cell_length_a 14.515801
_cell_length_b 14.515801
_cell_length_c 18.829654
_cell_angle_alpha 90.000000
_cell_angle_beta 90.000000
_cell_angle_gamma 120.000000
_cell_volume 3436.014461
_symmetry_space_group_name_H-M "R -3"
_symmetry_group_IT_number 148
_symmetry_cell_setting 'hexagonal'
loop_
_space_group_symop_operation_xyz
x,y,z
-y,x-y,z
-x+y,-x,z
-x,-y,-z
y,-x+y,-z
x-y,x,-z
2/3+x,1/3+y,1/3+z
2/3-y,1/3+x-y,1/3+z
2/3-x+y,1/3-x,1/3+z
2/3-x,1/3-y,1/3-z
2/3+y,1/3-x+y,1/3-z
2/3+x-y,1/3+x,1/3-z
1/3+x,2/3+y,2/3+z
1/3-y,2/3+x-y,2/3+z
1/3-x+y,2/3-x,2/3+z
1/3-x,2/3-y,2/3-z
1/3+y,2/3-x+y,2/3-z
1/3+x-y,2/3+x,2/3-z
loop_
_atom_site_type_symbol
_atom_site_label
_atom_site_fract_x
_atom_site_fract_y
_atom_site_fract_z
Si Si1 0.000000 0.000000 0.085223
Si Si2 0.781276 0.202162 0.413658
Si Si3 0.333334 0.666668 0.917869
Si Si4 0.767069 0.889522 0.248911
Si Si5 0.647534 0.983556 0.335969
O O1 0.064333 0.121811 0.056463
O O2 0.000000 0.000000 0.167450
O O3 0.784623 0.198846 0.498451
O O4 0.723404 0.083673 0.383656
O O5 0.898603 0.249863 0.382402
O O6 0.218064 0.641545 0.942180
O O7 0.751650 0.776382 0.274279
O O8 0.697997 0.933443 0.284406
#
# Coordination Sequence:
#
# PCOD8321745 Si02
#       5
#     6  18   6  18  18
#     4   9  21  34  55  84 111 139 175 220 281 337
#     4  11  21  38  58  83 116 146 181 233 278 331
#     4   9  18  36  55  73 109 145 177 226 275 319
#     4  10  22  38  55  83 112 146 191 230 271 330
#     4  11  22  35  58  82 110 151 188 225 280 328
#
# _framework density 19.208302
#
# number of rings (size 3 to 8) (size 9 to 14) (size 15 to 20)
#    0.000    1.636    0.000    4.909    0.000    1.091 
#    0.000   10.909    0.000    0.000    0.000   15.273 
#    0.000    0.000    0.000    0.000    0.000    0.000 
#
# Total GULP energy -272542.254499 kJ/mol
# GULP energy per Si atom -12388.284295 kJ/mol
# Density = 1.916458 g / cm^3
# Si number density = 19.208302 Si / 1000 Ang^3
#
#
#
# Elastic Constant Matrix: (Units=GPa)
#
#
# Indices 1 2 3 4 5 6 
#
# 1 107.7126 50.9413 38.9807 -1.2701 -0.7357 0.0004
# 2 50.9413 107.7097 38.9803 1.2656 0.7377 0.0000
# 3 38.9807 38.9803 107.0223 -0.0005 0.0002 -0.0002
# 4 -1.2701 1.2656 -0.0005 23.5669 0.0025 0.7350
# 5 -0.7357 0.7377 0.0002 0.0025 23.5644 -1.2674
# 6 0.0004 0.0000 -0.0002 0.7350 -1.2674 28.3843
#
#
#
# Elastic Compliance Matrix: (Units=1/GPa)
#
#
# Indices 1 2 3 4 5 6 
#
# 1 0.012674 -0.004997 -0.002796 0.000951 0.000552 0.000000
# 2 -0.004997 0.012675 -0.002796 -0.000950 -0.000553 0.000000
# 3 -0.002796 -0.002796 0.011381 0.000000 0.000000 0.000000
# 4 0.000951 -0.000950 0.000000 0.042569 -0.000004 -0.001103
# 5 0.000552 -0.000553 0.000000 -0.000004 0.042574 0.001901
# 6 0.000000 0.000000 0.000000 -0.001103 0.001901 0.035344
#
#
# Mechanical properties :
#
#
# Convention : Reuss Voigt Hill
#
# Bulk Modulus (GPa) = 64.30810 64.47214 64.39012
# Shear Modulus (GPa) = 27.23615 28.00594 27.62104
#
# Velocity S-wave (km/s) = 3.76963 3.82254 3.79618
# Velocity P-wave (km/s) = 7.24561 7.28834 7.26701
#
# Compressibility (1/GPa) = 0.01555014
#
# Stress axis : x y z
#
# Youngs Moduli (GPa) = 78.89972 78.89778 87.86747
#
# Poissons Ratio (x) = 0.39428 0.24569
# Poissons Ratio (y) = 0.39429 0.24570
# Poissons Ratio (z) = 0.22062 0.22062
#
# Static dielectric constant tensor:
#      x y z
#    x 4.223080 0.000040 0.000020 
#    y 0.000040 4.223180 0.000030 
#    z 0.000020 0.000030 3.617680 
# 
# 
# High freq. dielectric constant tensor:
#      x y z
#    x 1.757860 0.000000 0.000000 
#    y 0.000000 1.757860 0.000000 
#    z 0.000000 0.000000 1.761440 
# 
# From -- ./inp_files/3025.got.cif
#   From: 2010.03.12/outbox.cif.g09.slc.cpg/sg148_2_cif.got.tgz:3025.got - 2010.04.03 13:38:46.
