data_PCOD8321840
_publ_section_title
;
Structure prediction by ZEFSAII (Michael W. Deem and Ramdas Pophale) SiO2 
 PCOD8321840
Probable space group: P 3 1 2
;
_chemical_formula_sum "Si O2"
_cell_formula_units_Z 48
_cell_length_a 13.098919
_cell_length_b 13.098919
_cell_length_c 20.442737
_cell_angle_alpha 90.000000
_cell_angle_beta 90.000000
_cell_angle_gamma 120.000000
_cell_volume 3037.669959
_symmetry_space_group_name_H-M "P 3 1 2"
_symmetry_group_IT_number 149
_symmetry_cell_setting 'hexagonal'
loop_
_space_group_symop_operation_xyz
x,y,z
-y,x-y,z
-x+y,-x,z
-y,-x,-z
-x+y,y,-z
x,x-y,-z
loop_
_atom_site_type_symbol
_atom_site_label
_atom_site_fract_x
_atom_site_fract_y
_atom_site_fract_z
Si Si1 0.093142 0.664477 0.141662
Si Si2 0.430544 0.332942 0.756964
Si Si3 0.430969 0.097303 0.392815
Si Si4 0.100856 0.664458 0.000000
Si Si5 0.091918 0.665056 0.500000
Si Si6 0.430969 0.333666 0.392815
Si Si7 0.430544 0.332942 0.243036
Si Si8 0.571335 0.664477 0.141662
O O1 0.212903 0.787097 0.146393
O O2 0.122436 0.561218 0.156321
O O3 0.004601 0.663450 0.196139
O O4 0.031932 0.646291 0.069018
O O5 0.393341 0.333146 0.682046
O O6 0.560980 0.439020 0.771026
O O7 0.429528 0.214764 0.775121
O O8 0.336550 0.341151 0.803861
O O9 0.418144 0.209072 0.412863
O O10 0.566624 0.133249 0.404566
O O11 0.344968 0.984903 0.436321
O O12 0.031932 0.646291 0.930982
O O13 0.204359 0.795642 0.000000
O O14 0.153935 0.576968 0.000000
O O15 0.209124 0.790877 0.500000
O O16 0.127220 0.563610 0.500000
O O17 0.015097 0.655032 0.436321
O O18 0.393341 0.333146 0.317954
#
# Coordination Sequence:
#
# PCOD8321840 Si02
#       8
#     6   6   6   6   6   6   6   6
#     4   9  16  26  42  64  88 113 142 178 219 260
#     4   9  17  29  45  65  89 116 144 175 213 256
#     4   9  17  30  49  70  88 109 142 184 222 250
#     4   8  13  22  37  58  84 112 142 176 214 254
#     4  10  20  32  46  66  94 124 146 166 202 256
#     4   9  17  30  49  70  88 109 142 184 222 250
#     4   9  17  29  45  65  89 116 144 175 213 256
#     4   9  16  26  42  64  88 113 142 178 219 260
#
# _framework density 15.801586
#
# number of rings (size 3 to 8) (size 9 to 14) (size 15 to 20)
#    0.000    3.000    0.000    1.375    0.000    5.000 
#    0.000    1.875    0.000    5.500    0.000    1.750 
#    0.000    0.000    0.000    0.000    0.000    0.000 
#
# Total GULP energy -594807.029404 kJ/mol
# GULP energy per Si atom -12391.813113 kJ/mol
# Density = 1.576562 g / cm^3
# Si number density = 15.801586 Si / 1000 Ang^3
#
#
#
# Elastic Constant Matrix: (Units=GPa)
#
#
# Indices 1 2 3 4 5 6 
#
# 1 86.1800 41.2304 60.9440 0.0000 0.0000 0.0000
# 2 41.2304 86.1800 60.9440 0.0000 0.0000 0.0000
# 3 60.9440 60.9440 123.3748 0.0000 0.0000 0.0000
# 4 0.0000 0.0000 0.0000 23.7477 0.0000 0.0000
# 5 0.0000 0.0000 0.0000 0.0000 23.7477 0.0000
# 6 0.0000 0.0000 0.0000 0.0000 0.0000 22.4748
#
#
#
# Elastic Compliance Matrix: (Units=1/GPa)
#
#
# Indices 1 2 3 4 5 6 
#
# 1 0.018564 -0.003683 -0.007351 0.000000 0.000000 0.000000
# 2 -0.003683 0.018564 -0.007351 0.000000 0.000000 0.000000
# 3 -0.007351 -0.007351 0.015368 0.000000 0.000000 0.000000
# 4 0.000000 0.000000 0.000000 0.042109 0.000000 0.000000
# 5 0.000000 0.000000 0.000000 0.000000 0.042109 0.000000
# 6 0.000000 0.000000 0.000000 0.000000 0.000000 0.044494
#
#
# Mechanical properties :
#
#
# Convention : Reuss Voigt Hill
#
# Bulk Modulus (GPa) = 63.58823 69.10794 66.34808
# Shear Modulus (GPa) = 22.39946 22.83513 22.61729
#
# Velocity S-wave (km/s) = 3.76911 3.80559 3.78740
# Velocity P-wave (km/s) = 7.69874 7.94606 7.82338
#
# Compressibility (1/GPa) = 0.01572618
#
# Stress axis : x y z
#
# Youngs Moduli (GPa) = 53.86781 53.86781 65.07236
#
# Poissons Ratio (x) = 0.19841 0.47833
# Poissons Ratio (y) = 0.19841 0.47833
# Poissons Ratio (z) = 0.39597 0.39597
#
# Static dielectric constant tensor:
#      x y z
#    x 2.780080 0.000000 0.000000 
#    y 0.000000 2.780080 0.000000 
#    z 0.000000 0.000000 3.498420 
# 
# 
# High freq. dielectric constant tensor:
#      x y z
#    x 1.580200 0.000000 0.000000 
#    y 0.000000 1.580200 0.000000 
#    z 0.000000 0.000000 1.629110 
# 
# From -- ./inp_files/1154.got.cif
#   From: 2010.03.12/outbox.cif.g09.slc.cpg/sg149_cif.got.tgz:1154.got - 2010.04.03 13:40:41.
