data_PCOD8321725
_publ_section_title
;
Structure prediction by ZEFSAII (Michael W. Deem and Ramdas Pophale) SiO2 
 PCOD8321725
Probable space group: R -3
;
_chemical_formula_sum "Si O2"
_cell_formula_units_Z 60
_cell_length_a 18.964383
_cell_length_b 18.964383
_cell_length_c 7.893686
_cell_angle_alpha 90.000000
_cell_angle_beta 90.000000
_cell_angle_gamma 120.000000
_cell_volume 2458.600206
_symmetry_space_group_name_H-M "R -3"
_symmetry_group_IT_number 148
_symmetry_cell_setting 'hexagonal'
loop_
_space_group_symop_operation_xyz
x,y,z
-y,x-y,z
-x+y,-x,z
-x,-y,-z
y,-x+y,-z
x-y,x,-z
2/3+x,1/3+y,1/3+z
2/3-y,1/3+x-y,1/3+z
2/3-x+y,1/3-x,1/3+z
2/3-x,1/3-y,1/3-z
2/3+y,1/3-x+y,1/3-z
2/3+x-y,1/3+x,1/3-z
1/3+x,2/3+y,2/3+z
1/3-y,2/3+x-y,2/3+z
1/3-x+y,2/3-x,2/3+z
1/3-x,2/3-y,2/3-z
1/3+y,2/3-x+y,2/3-z
1/3+x-y,2/3+x,2/3-z
loop_
_atom_site_type_symbol
_atom_site_label
_atom_site_fract_x
_atom_site_fract_y
_atom_site_fract_z
Si Si1 0.760386 0.250860 0.577809
Si Si2 0.114915 0.440610 0.167030
Si Si3 0.325021 0.151181 0.969324
Si Si4 0.333333 0.666667 0.374139
O O1 0.691575 0.188776 0.708732
O O2 0.849601 0.301982 0.657828
O O3 0.765670 0.202337 0.414896
O O4 0.732470 0.315346 0.537847
O O5 0.124272 0.361659 0.132024
O O6 0.031810 0.428486 0.253936
O O7 0.333334 0.166667 0.166667
O O8 0.333335 0.666668 0.166667
#
# Coordination Sequence:
#
# PCOD8321725 Si02
#       4
#    18  18  18   6
#     4  11  22  43  76 111 141 193 240 295 380 429
#     4  10  20  45  74 101 144 186 240 306 364 435
#     4  11  26  47  68 106 151 192 242 299 366 436
#     4  12  18  42  81 102 145 178 236 316 360 433
#
# _framework density 24.404131
#
# number of rings (size 3 to 8) (size 9 to 14) (size 15 to 20)
#    0.000    1.200    3.000    5.400    0.000    2.400 
#   21.600    6.000    0.000    3.600    0.000    0.000 
#    0.000    0.000    0.000    0.000    0.000    0.000 
#
# Total GULP energy -247837.620353 kJ/mol
# GULP energy per Si atom -12391.881018 kJ/mol
# Density = 2.434859 g / cm^3
# Si number density = 24.404131 Si / 1000 Ang^3
#
#
#
# Elastic Constant Matrix: (Units=GPa)
#
#
# Indices 1 2 3 4 5 6 
#
# 1 105.1123 33.0495 39.6494 3.7258 5.4686 0.0070
# 2 33.0495 105.0901 39.6251 -3.7158 -5.4436 0.0000
# 3 39.6494 39.6251 104.7808 0.0057 0.0269 0.0118
# 4 3.7258 -3.7158 0.0057 22.1888 0.0104 -5.4425
# 5 5.4686 -5.4436 0.0269 0.0104 22.2105 3.7256
# 6 0.0070 0.0000 0.0118 -5.4425 3.7256 36.0238
#
#
#
# Elastic Compliance Matrix: (Units=1/GPa)
#
#
# Indices 1 2 3 4 5 6 
#
# 1 0.011962 -0.002717 -0.003498 -0.002461 -0.003606 0.000000
# 2 -0.002717 0.011962 -0.003497 0.002459 0.003604 0.000000
# 3 -0.003498 -0.003497 0.012190 -0.000002 -0.000010 -0.000003
# 4 -0.002461 0.002459 -0.000002 0.047659 -0.000022 0.007203
# 5 -0.003606 0.003604 -0.000010 -0.000022 0.047621 -0.004928
# 6 0.000000 0.000000 -0.000003 0.007203 -0.004928 0.029357
#
#
# Mechanical properties :
#
#
# Convention : Reuss Voigt Hill
#
# Bulk Modulus (GPa) = 59.91284 59.95900 59.93592
# Shear Modulus (GPa) = 26.91948 29.59524 28.25736
#
# Velocity S-wave (km/s) = 3.32485 3.48618 3.40647
# Velocity P-wave (km/s) = 6.27241 6.38961 6.33128
#
# Compressibility (1/GPa) = 0.01669091
#
# Stress axis : x y z
#
# Youngs Moduli (GPa) = 83.59687 83.59720 82.03589
#
# Poissons Ratio (x) = 0.22711 0.28697
# Poissons Ratio (y) = 0.22711 0.28686
# Poissons Ratio (z) = 0.29243 0.29232
#
# Static dielectric constant tensor:
#      x y z
#    x 4.435340 -0.000010 0.000000 
#    y -0.000010 4.435350 0.000000 
#    z 0.000000 0.000000 4.158000 
# 
# 
# High freq. dielectric constant tensor:
#      x y z
#    x 1.968770 0.000000 0.000000 
#    y 0.000000 1.968770 0.000000 
#    z 0.000000 0.000000 1.952660 
# 
# From -- ./inp_files/768.got.cif
#   From: 2010.03.12/outbox.cif.g09.slc.cpg/sg148_1_cif.got.tgz:768.got - 2010.04.03 13:38:46.
