data_PCOD8321535
_publ_section_title
;
Structure prediction by ZEFSAII (Michael W. Deem and Ramdas Pophale) SiO2 
 PCOD8321535
Probable space group: R 3
;
_chemical_formula_sum "Si O2"
_cell_formula_units_Z 42
_cell_length_a 11.389121
_cell_length_b 11.389121
_cell_length_c 20.518471
_cell_angle_alpha 90.000000
_cell_angle_beta 90.000000
_cell_angle_gamma 120.000000
_cell_volume 2304.920977
_symmetry_space_group_name_H-M "R 3"
_symmetry_group_IT_number 146
_symmetry_cell_setting 'hexagonal'
loop_
_space_group_symop_operation_xyz
x,y,z
-y,x-y,z
-x+y,-x,z
2/3+x,1/3+y,1/3+z
2/3-y,1/3+x-y,1/3+z
2/3-x+y,1/3-x,1/3+z
1/3+x,2/3+y,2/3+z
1/3-y,2/3+x-y,2/3+z
1/3-x+y,2/3-x,2/3+z
loop_
_atom_site_type_symbol
_atom_site_label
_atom_site_fract_x
_atom_site_fract_y
_atom_site_fract_z
Si Si1 0.800688 0.635742 0.107030
Si Si2 0.000000 0.000000 0.919315
Si Si3 0.724202 0.737350 0.224392
Si Si4 0.333334 0.666668 0.433739
Si Si5 0.869639 0.156202 0.964647
Si Si6 0.975950 0.717335 0.225555
O O1 0.707086 0.677006 0.150383
O O2 0.716994 0.485078 0.076751
O O3 0.926829 0.655530 0.152353
O O4 0.853993 0.725703 0.042488
O O5 0.873851 0.860964 0.942338
O O6 0.000000 0.000000 0.843413
O O7 0.592037 0.640374 0.268550
O O8 0.736151 0.882220 0.221208
O O9 0.862932 0.750751 0.254914
O O10 0.723003 0.049401 0.936259
#
# Coordination Sequence:
#
# PCOD8321535 Si02
#       6
#     9   3   9   3   9   9
#     4  10  24  36  68  89 119 163 211 259 312 370
#     4  12  18  42  66  87 111 162 223 257 289 378
#     4  10  22  40  59  90 125 155 204 262 307 374
#     4  12  18  48  60  90 123 162 208 269 319 369
#     4  12  22  38  66  90 117 169 208 257 318 371
#     4  10  22  40  59  90 125 155 204 262 307 374
#
# _framework density 18.221883999999999
#
# number of rings (size 3 to 8) (size 9 to 14) (size 15 to 20)
#    1.286    0.000    6.429    0.429    6.000    0.000 
#    1.286    0.000    0.000    0.000    0.000    0.000 
#    0.000    0.000    0.000    0.000    0.000    0.000 
#
# Total GULP energy -173478.876900 kJ/mol
# GULP energy per Si atom -12391.348350 kJ/mol
# Density = 1.818041 g / cm^3
# Si number density = 18.221884 Si / 1000 Ang^3
#
#
#
# Elastic Constant Matrix: (Units=GPa)
#
#
# Indices 1 2 3 4 5 6 
#
# 1 99.6536 21.3926 11.0520 7.9874 -0.8380 -0.0004
# 2 21.3926 99.6537 11.0519 -7.9872 0.8380 -0.0002
# 3 11.0520 11.0519 94.2338 0.0007 0.0003 0.0002
# 4 7.9874 -7.9872 0.0007 25.4587 0.0002 0.8380
# 5 -0.8380 0.8380 0.0003 0.0002 25.4590 7.9873
# 6 -0.0004 -0.0002 0.0002 0.8380 7.9873 39.1302
#
#
#
# Elastic Compliance Matrix: (Units=1/GPa)
#
#
# Indices 1 2 3 4 5 6 
#
# 1 0.011052 -0.002610 -0.000990 -0.004286 0.000450 0.000000
# 2 -0.002610 0.011052 -0.000990 0.004286 -0.000450 0.000000
# 3 -0.000990 -0.000990 0.010844 0.000000 0.000000 0.000000
# 4 -0.004286 0.004286 0.000000 0.041999 0.000000 -0.000899
# 5 0.000450 -0.000450 0.000000 0.000000 0.041998 -0.008573
# 6 0.000000 0.000000 0.000000 -0.000899 -0.008573 0.027325
#
#
# Mechanical properties :
#
#
# Convention : Reuss Voigt Hill
#
# Bulk Modulus (GPa) = 42.07351 42.28156 42.17753
# Shear Modulus (GPa) = 30.98408 34.67922 32.83165
#
# Velocity S-wave (km/s) = 4.12804 4.36726 4.24933
# Velocity P-wave (km/s) = 6.77204 6.97744 6.87551
#
# Compressibility (1/GPa) = 0.02376793
#
# Stress axis : x y z
#
# Youngs Moduli (GPa) = 90.47960 90.47978 92.21568
#
# Poissons Ratio (x) = 0.23616 0.09130
# Poissons Ratio (y) = 0.23616 0.09131
# Poissons Ratio (z) = 0.08958 0.08959
#
# Static dielectric constant tensor:
#      x y z
#    x 3.172370 0.000000 0.000000 
#    y 0.000000 3.172360 0.000000 
#    z 0.000000 0.000000 3.168450 
# 
# 
# High freq. dielectric constant tensor:
#      x y z
#    x 1.701940 0.000000 0.000000 
#    y 0.000000 1.701940 0.000000 
#    z 0.000000 0.000000 1.692900 
# 
# From -- ./inp_files/1668.got.cif
#   From: 2010.06.25/outbox.cif.g09.slc.cpg/sg146_cif.got.tgz:1668.got - 2010.06.28 11:17:22.
