data_PCOD8321282
_publ_section_title
;
Structure prediction by ZEFSAII (Michael W. Deem and Ramdas Pophale) SiO2 
 PCOD8321282
Probable space group: I 41/A C D
;
_chemical_formula_sum "Si O2"
_cell_formula_units_Z 96
_cell_length_a 15.415017
_cell_length_b 15.415017
_cell_length_c 17.557323
_cell_angle_alpha 90.000000
_cell_angle_beta 90.000000
_cell_angle_gamma 90.000000
_cell_volume 4172.019358
_symmetry_space_group_name_H-M "I 41/A C D"
_symmetry_group_IT_number 142
_space_group.IT_coordinate_system_code '2'
_symmetry_cell_setting 'tetragonal'
loop_
_space_group_symop_operation_xyz
x,y,z
1/4-y,3/4+x,1/4+z
-x,1/2-y,z
1/4+y,1/4-x,3/4+z
x,-y,1/2-z
1/2-x,y,-z
3/4+y,1/4+x,1/4-z
1/4-y,1/4-x,1/4-z
-x,-y,-z
3/4+y,1/4-x,3/4-z
x,1/2+y,-z
3/4-y,3/4+x,1/4-z
-x,y,1/2+z
1/2+x,-y,z
1/4-y,3/4-x,3/4+z
3/4+y,3/4+x,3/4+z
1/2+x,1/2+y,1/2+z
3/4-y,1/4+x,3/4+z
1/2-x,-y,1/2+z
3/4+y,3/4-x,1/4+z
1/2+x,1/2-y,-z
-x,1/2+y,1/2-z
1/4+y,3/4+x,3/4-z
3/4-y,3/4-x,3/4-z
1/2-x,1/2-y,1/2-z
1/4+y,3/4-x,1/4-z
1/2+x,y,1/2-z
1/4-y,1/4+x,3/4-z
1/2-x,1/2+y,z
x,1/2-y,1/2+z
3/4-y,1/4-x,1/4+z
1/4+y,1/4+x,1/4+z
loop_
_atom_site_type_symbol
_atom_site_label
_atom_site_fract_x
_atom_site_fract_y
_atom_site_fract_z
Si Si1 0.320736 0.835983 0.788091
Si Si2 0.329907 0.750257 0.447793
Si Si3 0.075656 0.382840 0.042722
O O1 0.396179 0.906513 0.796573
O O2 0.313796 0.772757 0.860886
O O3 0.224231 0.878769 0.779256
O O4 0.342781 0.776197 0.714864
O O5 0.250000 0.722337 0.500000
O O6 0.408032 0.690636 0.478944
O O7 0.093458 0.343458 0.125000
#
# Coordination Sequence:
#
# PCOD8321282 Si02
#       3
#    32  32  32
#     4  11  25  44  68 104 138 184 237 289 352 425
#     4  12  24  44  70 101 142 188 230 289 360 416
#     4  11  24  45  70 100 138 181 235 290 350 420
#
# _framework density 23.010441
#
# number of rings (size 3 to 8) (size 9 to 14) (size 15 to 20)
#    0.000    0.667    6.667    1.000    0.000    4.000 
#    0.000    0.000    0.000    0.000    0.000    0.000 
#    0.000    0.000    0.000    0.000    0.000    0.000 
#
# Total GULP energy -595000.336894 kJ/mol
# GULP energy per Si atom -12395.840352 kJ/mol
# Density = 2.295807 g / cm^3
# Si number density = 23.010441 Si / 1000 Ang^3
#
#
#
# Elastic Constant Matrix: (Units=GPa)
#
#
# Indices 1 2 3 4 5 6 
#
# 1 80.8982 -9.7216 24.6639 0.0000 0.0000 0.0000
# 2 -9.7216 80.8982 24.6639 0.0000 0.0000 0.0000
# 3 24.6639 24.6639 92.7428 0.0000 0.0000 0.0000
# 4 0.0000 0.0000 0.0000 31.6432 0.0000 0.0000
# 5 0.0000 0.0000 0.0000 0.0000 31.6432 0.0000
# 6 0.0000 0.0000 0.0000 0.0000 0.0000 23.4097
#
#
#
# Elastic Compliance Matrix: (Units=1/GPa)
#
#
# Indices 1 2 3 4 5 6 
#
# 1 0.014130 0.003094 -0.004581 0.000000 0.000000 0.000000
# 2 0.003094 0.014130 -0.004581 0.000000 0.000000 0.000000
# 3 -0.004581 -0.004581 0.013219 0.000000 0.000000 0.000000
# 4 0.000000 0.000000 0.000000 0.031602 0.000000 0.000000
# 5 0.000000 0.000000 0.000000 0.000000 0.031602 0.000000
# 6 0.000000 0.000000 0.000000 0.000000 0.000000 0.042717
#
#
# Mechanical properties :
#
#
# Convention : Reuss Voigt Hill
#
# Bulk Modulus (GPa) = 34.07769 37.08352 35.58060
# Shear Modulus (GPa) = 29.53079 31.66810 30.59944
#
# Velocity S-wave (km/s) = 3.58629 3.71381 3.65061
# Velocity P-wave (km/s) = 5.65601 5.87714 5.76764
#
# Compressibility (1/GPa) = 0.02934471
#
# Stress axis : x y z
#
# Youngs Moduli (GPa) = 70.77350 70.77351 75.64984
#
# Poissons Ratio (x) = -0.21901 0.34652
# Poissons Ratio (y) = -0.21901 0.34652
# Poissons Ratio (z) = 0.32418 0.32418
#
# Static dielectric constant tensor:
#      x y z
#    x 4.201950 0.000000 0.000000 
#    y 0.000000 4.201950 0.000000 
#    z 0.000000 0.000000 4.117280 
# 
# 
# High freq. dielectric constant tensor:
#      x y z
#    x 1.900520 0.000000 0.000000 
#    y 0.000000 1.900520 0.000000 
#    z 0.000000 0.000000 1.915530 
# 
# From -- ./inp_files/6571.got.cif
#   From: 2010.03.12/outbox.cif.g09.slc.cpg/sg142_4_cif.got.tgz:6571.got - 2010.04.03 13:27:16.
