data_PCOD8321356
_publ_section_title
;
Structure prediction by ZEFSAII (Michael W. Deem and Ramdas Pophale) SiO2 
 PCOD8321356
Probable space group: P 31
;
_chemical_formula_sum "Si O2"
_cell_formula_units_Z 21
_cell_length_a 9.618252
_cell_length_b 9.618252
_cell_length_c 11.961233
_cell_angle_alpha 90.000000
_cell_angle_beta 90.000000
_cell_angle_gamma 120.000000
_cell_volume 958.294256
_symmetry_space_group_name_H-M "P 31"
_symmetry_group_IT_number 144
_symmetry_cell_setting 'hexagonal'
loop_
_space_group_symop_operation_xyz
x,y,z
-y,x-y,1/3+z
-x+y,-x,2/3+z
loop_
_atom_site_type_symbol
_atom_site_label
_atom_site_fract_x
_atom_site_fract_y
_atom_site_fract_z
Si Si1 0.359624 0.213914 0.039780
Si Si2 0.682664 0.012804 0.138920
Si Si3 0.547247 0.026290 0.555660
Si Si4 0.723453 0.727911 0.084152
Si Si5 0.003194 0.653863 0.123186
Si Si6 0.560865 0.333333 0.631053
Si Si7 0.061244 0.390120 0.511288
O O1 0.350596 0.333333 0.131053
O O2 0.281671 0.033036 0.086505
O O3 0.281076 0.226103 0.924611
O O4 0.544363 0.272961 0.018148
O O5 0.742498 0.903025 0.078583
O O6 0.488527 0.930878 0.147673
O O7 0.745516 0.170427 0.061218
O O8 0.606293 0.211030 0.577292
O O9 0.366370 0.948337 0.508935
O O10 0.559436 0.947743 0.670829
O O11 0.890982 0.735788 0.114433
O O12 0.666667 0.641237 0.964387
O O13 0.172806 0.763642 0.183524
O O14 0.908423 0.496240 0.200889
#
# Coordination Sequence:
#
# PCOD8321356 Si02
#       7
#     3   3   3   3   3   3   3
#     4  11  21  39  65  93 120 159 216 264 312 377
#     4  11  23  41  63  96 128 167 211 262 322 386
#     4  11  21  39  65  93 120 159 216 264 312 377
#     4  11  23  42  65  92 129 173 210 264 326 381
#     4  11  23  41  63  96 128 167 211 262 322 386
#     4  10  20  36  68  92 122 160 214 260 308 374
#     4  11  23  42  65  92 129 173 210 264 326 381
#
# _framework density 21.913938000000002
#
# number of rings (size 3 to 8) (size 9 to 14) (size 15 to 20)
#    0.000    1.143    4.286    4.286    0.000    2.286 
#    0.000    0.000    0.000    0.000    0.000    0.000 
#    0.000    0.000    0.000    0.000    0.000    0.000 
#
# Total GULP energy -260352.924101 kJ/mol
# GULP energy per Si atom -12397.758291 kJ/mol
# Density = 2.186406 g / cm^3
# Si number density = 21.913938 Si / 1000 Ang^3
#
#
#
# Elastic Constant Matrix: (Units=GPa)
#
#
# Indices 1 2 3 4 5 6 
#
# 1 47.8158 15.0598 8.2895 -2.4561 0.0000 0.0000
# 2 15.0598 47.8158 8.2895 2.4561 0.0000 0.0000
# 3 8.2895 8.2895 127.0973 0.0000 0.0000 0.0000
# 4 -2.4561 2.4561 0.0000 31.7575 0.0000 0.0000
# 5 0.0000 0.0000 0.0000 0.0000 31.7575 -2.4561
# 6 0.0000 0.0000 0.0000 0.0000 -2.4561 16.3780
#
#
#
# Elastic Compliance Matrix: (Units=1/GPa)
#
#
# Indices 1 2 3 4 5 6 
#
# 1 0.023535 -0.007352 -0.001055 0.002389 0.000000 0.000000
# 2 -0.007352 0.023535 -0.001055 -0.002389 0.000000 0.000000
# 3 -0.001055 -0.001055 0.008006 0.000000 0.000000 0.000000
# 4 0.002389 -0.002389 0.000000 0.031858 0.000000 0.000000
# 5 0.000000 0.000000 0.000000 0.000000 0.031858 0.004777
# 6 0.000000 0.000000 0.000000 0.000000 0.004777 0.061774
#
#
# Mechanical properties :
#
#
# Convention : Reuss Voigt Hill
#
# Bulk Modulus (GPa) = 27.66309 31.77850 29.72079
# Shear Modulus (GPa) = 23.63604 28.71796 26.17700
#
# Velocity S-wave (km/s) = 3.28774 3.62399 3.45996
# Velocity P-wave (km/s) = 5.20224 5.66075 5.43633
#
# Compressibility (1/GPa) = 0.03614926
#
# Stress axis : x y z
#
# Youngs Moduli (GPa) = 42.49018 42.49018 124.91157
#
# Poissons Ratio (x) = 0.31239 0.13184
# Poissons Ratio (y) = 0.31239 0.13184
# Poissons Ratio (z) = 0.04485 0.04485
#
# Static dielectric constant tensor:
#      x y z
#    x 3.655950 0.000000 0.000000 
#    y 0.000000 3.655950 0.000000 
#    z 0.000000 0.000000 4.473400 
# 
# 
# High freq. dielectric constant tensor:
#      x y z
#    x 1.837740 0.000000 0.000000 
#    y 0.000000 1.837740 0.000000 
#    z 0.000000 0.000000 1.888130 
# 
# From -- ./inp_files/592.got.cif
#   From: 2010.03.12/outbox.cif.g09.slc.cpg/sg144_cif.got.tgz:592.got - 2010.04.03 13:34:42.
