data_PCOD8321264
_publ_section_title
;
Structure prediction by ZEFSAII (Michael W. Deem and Ramdas Pophale) SiO2 
 PCOD8321264
Probable space group: I 41/A C D
;
_chemical_formula_sum "Si O2"
_cell_formula_units_Z 128
_cell_length_a 19.408349
_cell_length_b 19.408349
_cell_length_c 16.986292
_cell_angle_alpha 90.000000
_cell_angle_beta 90.000000
_cell_angle_gamma 90.000000
_cell_volume 6398.464601
_symmetry_space_group_name_H-M "I 41/A C D"
_symmetry_group_IT_number 142
_space_group.IT_coordinate_system_code '2'
_symmetry_cell_setting 'tetragonal'
loop_
_space_group_symop_operation_xyz
x,y,z
1/4-y,3/4+x,1/4+z
-x,1/2-y,z
1/4+y,1/4-x,3/4+z
x,-y,1/2-z
1/2-x,y,-z
3/4+y,1/4+x,1/4-z
1/4-y,1/4-x,1/4-z
-x,-y,-z
3/4+y,1/4-x,3/4-z
x,1/2+y,-z
3/4-y,3/4+x,1/4-z
-x,y,1/2+z
1/2+x,-y,z
1/4-y,3/4-x,3/4+z
3/4+y,3/4+x,3/4+z
1/2+x,1/2+y,1/2+z
3/4-y,1/4+x,3/4+z
1/2-x,-y,1/2+z
3/4+y,3/4-x,1/4+z
1/2+x,1/2-y,-z
-x,1/2+y,1/2-z
1/4+y,3/4+x,3/4-z
3/4-y,3/4-x,3/4-z
1/2-x,1/2-y,1/2-z
1/4+y,3/4-x,1/4-z
1/2+x,y,1/2-z
1/4-y,1/4+x,3/4-z
1/2-x,1/2+y,z
x,1/2-y,1/2+z
3/4-y,1/4-x,1/4+z
1/4+y,1/4+x,1/4+z
loop_
_atom_site_type_symbol
_atom_site_label
_atom_site_fract_x
_atom_site_fract_y
_atom_site_fract_z
Si Si1 0.680316 0.650698 0.448539
Si Si2 0.935358 0.290141 0.216616
Si Si3 0.743195 0.067636 0.800703
Si Si4 0.547685 0.939533 0.473272
O O1 0.750000 0.658474 0.500000
O O2 0.615084 0.677414 0.496301
O O3 0.663820 0.571553 0.425417
O O4 0.685401 0.698362 0.371316
O O5 0.945314 0.304687 0.125000
O O6 0.875511 0.236289 0.235306
O O7 0.000000 0.250000 0.252953
O O8 0.704026 0.125748 0.752655
O O9 0.748075 0.000000 0.750000
O O10 0.695545 0.054456 0.875000
O O11 0.500000 0.000000 0.500000
#
# Coordination Sequence:
#
# PCOD8321264 Si02
#       4
#    32  32  32  32
#     4  11  25  44  74 100 136 182 228 283 351 413
#     4  11  27  47  68 101 142 183 229 285 345 410
#     4  11  23  43  69 104 138 173 230 288 343 404
#     4  12  25  44  69 100 137 180 228 283 342 412
#
# _framework density 20.004801
#
# number of rings (size 3 to 8) (size 9 to 14) (size 15 to 20)
#    0.000    0.750    5.000    1.500    7.000    0.000 
#    0.000    0.000    0.000    0.000    0.000    0.000 
#    0.000    0.000    0.000    0.000    0.000    0.000 
#
# Total GULP energy -793418.804829 kJ/mol
# GULP energy per Si atom -12397.168825 kJ/mol
# Density = 1.995927 g / cm^3
# Si number density = 20.004801 Si / 1000 Ang^3
#
#
#
# Elastic Constant Matrix: (Units=GPa)
#
#
# Indices 1 2 3 4 5 6 
#
# 1 145.0947 74.9282 48.6648 0.0000 0.0000 0.0000
# 2 74.9282 145.0936 48.6643 0.0000 0.0000 0.0000
# 3 48.6648 48.6643 107.6231 0.0000 0.0000 0.0000
# 4 0.0000 0.0000 0.0000 37.9720 0.0000 0.0000
# 5 0.0000 0.0000 0.0000 0.0000 37.9726 0.0000
# 6 0.0000 0.0000 0.0000 0.0000 0.0000 41.2117
#
#
#
# Elastic Compliance Matrix: (Units=1/GPa)
#
#
# Indices 1 2 3 4 5 6 
#
# 1 0.009967 -0.004285 -0.002569 0.000000 0.000000 0.000000
# 2 -0.004285 0.009967 -0.002569 0.000000 0.000000 0.000000
# 3 -0.002569 -0.002569 0.011615 0.000000 0.000000 0.000000
# 4 0.000000 0.000000 0.000000 0.026335 0.000000 0.000000
# 5 0.000000 0.000000 0.000000 0.000000 0.026335 0.000000
# 6 0.000000 0.000000 0.000000 0.000000 0.000000 0.024265
#
#
# Mechanical properties :
#
#
# Convention : Reuss Voigt Hill
#
# Bulk Modulus (GPa) = 78.72900 82.48068 80.60484
# Shear Modulus (GPa) = 38.00443 38.46822 38.23632
#
# Velocity S-wave (km/s) = 4.36336 4.38990 4.37665
# Velocity P-wave (km/s) = 8.05144 8.18627 8.11913
#
# Compressibility (1/GPa) = 0.01270180
#
# Stress axis : x y z
#
# Youngs Moduli (GPa) = 100.33463 100.33416 86.09585
#
# Poissons Ratio (x) = 0.42996 0.22118
# Poissons Ratio (y) = 0.42996 0.22118
# Poissons Ratio (z) = 0.25776 0.25776
#
# Static dielectric constant tensor:
#      x y z
#    x 3.619620 0.000000 0.000000 
#    y 0.000000 3.618770 0.000000 
#    z 0.000000 0.000000 3.613050 
# 
# 
# High freq. dielectric constant tensor:
#      x y z
#    x 1.796790 0.000000 0.000000 
#    y 0.000000 1.796790 0.000000 
#    z 0.000000 0.000000 1.787770 
# 
# From -- ./inp_files/7094.got.cif
#   From: 2010.03.12/outbox.cif.g09.slc.cpg/sg142_4_cif.got.tgz:7094.got - 2010.04.03 13:27:16.
