data_PCOD8321437
_publ_section_title
;
Structure prediction by ZEFSAII (Michael W. Deem and Ramdas Pophale) SiO2 
 PCOD8321437
Probable space group: P 31
;
_chemical_formula_sum "Si O2"
_cell_formula_units_Z 18
_cell_length_a 11.376865
_cell_length_b 11.376865
_cell_length_c 5.932284
_cell_angle_alpha 90.000000
_cell_angle_beta 90.000000
_cell_angle_gamma 120.000000
_cell_volume 664.963451
_symmetry_space_group_name_H-M "P 31"
_symmetry_group_IT_number 144
_symmetry_cell_setting 'hexagonal'
loop_
_space_group_symop_operation_xyz
x,y,z
-y,x-y,1/3+z
-x+y,-x,2/3+z
loop_
_atom_site_type_symbol
_atom_site_label
_atom_site_fract_x
_atom_site_fract_y
_atom_site_fract_z
Si Si1 0.082879 0.375607 0.166980
Si Si2 0.028233 0.817947 0.598047
Si Si3 0.629281 0.104368 0.172221
Si Si4 0.702983 0.547526 0.191412
Si Si5 0.405335 0.793239 0.120327
Si Si6 0.185386 0.017048 0.241169
O O1 0.203730 0.520964 0.241999
O O2 0.035312 0.281669 0.384540
O O3 0.164760 0.339091 0.986327
O O4 0.953778 0.378222 0.056583
O O5 0.903168 0.662501 0.597719
O O6 0.982410 0.881173 0.799820
O O7 0.052392 0.892828 0.358281
O O8 0.564247 0.161880 0.350103
O O9 0.527203 0.947768 0.115028
O O10 0.690677 0.206274 0.957254
O O11 0.802971 0.693639 0.080615
O O12 0.322153 0.760211 0.358233
#
# Coordination Sequence:
#
# PCOD8321437 Si02
#       6
#     3   3   3   3   3   3
#     4  11  25  49  77 124 165 212 277 354 431 523
#     4  11  27  47  82 113 169 213 273 351 432 516
#     4  12  27  56  85 122 168 229 284 357 432 521
#     4  11  28  54  83 121 166 222 290 346 435 520
#     4  12  28  48  84 126 162 221 285 363 434 500
#     4  11  25  52  75 126 160 217 279 345 432 516
#
# _framework density 27.069156
#
# number of rings (size 3 to 8) (size 9 to 14) (size 15 to 20)
#    0.000    0.667    3.333    2.000   11.667    1.333 
#    0.000   10.000    0.000    0.000    0.000    0.000 
#    0.000    0.000    0.000    0.000    0.000    0.000 
#
# Total GULP energy -223104.691910 kJ/mol
# GULP energy per Si atom -12394.705106 kJ/mol
# Density = 2.700755 g / cm^3
# Si number density = 27.069156 Si / 1000 Ang^3
#
#
#
# Elastic Constant Matrix: (Units=GPa)
#
#
# Indices 1 2 3 4 5 6 
#
# 1 124.8503 41.5124 56.4909 -4.7231 -3.0409 0.0000
# 2 41.5124 124.8503 56.4909 4.7231 3.0409 0.0000
# 3 56.4909 56.4909 121.9827 0.0000 0.0000 0.0000
# 4 -4.7231 4.7231 0.0000 60.2745 0.0000 3.0409
# 5 -3.0409 3.0409 0.0000 0.0000 60.2745 -4.7231
# 6 0.0000 0.0000 0.0000 3.0409 -4.7231 41.6690
#
#
#
# Elastic Compliance Matrix: (Units=1/GPa)
#
#
# Indices 1 2 3 4 5 6 
#
# 1 0.010460 -0.001692 -0.004061 0.000952 0.000613 0.000000
# 2 -0.001692 0.010460 -0.004061 -0.000952 -0.000613 0.000000
# 3 -0.004061 -0.004061 0.011959 0.000000 0.000000 0.000000
# 4 0.000952 -0.000952 0.000000 0.016802 0.000000 -0.001226
# 5 0.000613 -0.000613 0.000000 0.000000 0.016802 0.001904
# 6 0.000000 0.000000 0.000000 -0.001226 0.001904 0.024304
#
#
# Mechanical properties :
#
#
# Convention : Reuss Voigt Hill
#
# Bulk Modulus (GPa) = 75.45341 75.63020 75.54181
# Shear Modulus (GPa) = 43.54178 46.92289 45.23234
#
# Velocity S-wave (km/s) = 4.01501 4.16798 4.09221
# Velocity P-wave (km/s) = 7.03055 7.15284 7.09195
#
# Compressibility (1/GPa) = 0.01325321
#
# Stress axis : x y z
#
# Youngs Moduli (GPa) = 95.59841 95.59841 83.61808
#
# Poissons Ratio (x) = 0.16171 0.33956
# Poissons Ratio (y) = 0.16171 0.33956
# Poissons Ratio (z) = 0.38822 0.38822
#
# Static dielectric constant tensor:
#      x y z
#    x 5.283300 0.000000 0.000000 
#    y 0.000000 5.283300 0.000000 
#    z 0.000000 0.000000 5.013400 
# 
# 
# High freq. dielectric constant tensor:
#      x y z
#    x 2.097440 0.000000 0.000000 
#    y 0.000000 2.097440 0.000000 
#    z 0.000000 0.000000 2.098140 
# 
# From -- ./inp_files/96.got.cif
#   From: 2010.03.12/outbox.cif.g09.slc.cpg/sg144_cif.got.tgz:96.got - 2010.04.03 13:34:42.
