data_PCOD8321021
_publ_section_title
;
Structure prediction by ZEFSAII (Michael W. Deem and Ramdas Pophale) SiO2 
 PCOD8321021
Probable space group: I 41/A C D
;
_chemical_formula_sum "Si O2"
_cell_formula_units_Z 144
_cell_length_a 20.147300
_cell_length_b 20.147300
_cell_length_c 16.749155
_cell_angle_alpha 90.000000
_cell_angle_beta 90.000000
_cell_angle_gamma 90.000000
_cell_volume 6798.711433
_symmetry_space_group_name_H-M "I 41/A C D"
_symmetry_group_IT_number 142
_space_group.IT_coordinate_system_code '2'
_symmetry_cell_setting 'tetragonal'
loop_
_space_group_symop_operation_xyz
x,y,z
1/4-y,3/4+x,1/4+z
-x,1/2-y,z
1/4+y,1/4-x,3/4+z
x,-y,1/2-z
1/2-x,y,-z
3/4+y,1/4+x,1/4-z
1/4-y,1/4-x,1/4-z
-x,-y,-z
3/4+y,1/4-x,3/4-z
x,1/2+y,-z
3/4-y,3/4+x,1/4-z
-x,y,1/2+z
1/2+x,-y,z
1/4-y,3/4-x,3/4+z
3/4+y,3/4+x,3/4+z
1/2+x,1/2+y,1/2+z
3/4-y,1/4+x,3/4+z
1/2-x,-y,1/2+z
3/4+y,3/4-x,1/4+z
1/2+x,1/2-y,-z
-x,1/2+y,1/2-z
1/4+y,3/4+x,3/4-z
3/4-y,3/4-x,3/4-z
1/2-x,1/2-y,1/2-z
1/4+y,3/4-x,1/4-z
1/2+x,y,1/2-z
1/4-y,1/4+x,3/4-z
1/2-x,1/2+y,z
x,1/2-y,1/2+z
3/4-y,1/4-x,1/4+z
1/4+y,1/4+x,1/4+z
loop_
_atom_site_type_symbol
_atom_site_label
_atom_site_fract_x
_atom_site_fract_y
_atom_site_fract_z
Si Si1 0.724663 0.652557 0.230015
Si Si2 0.852867 0.726868 0.470404
Si Si3 0.282004 0.261265 0.625476
Si Si4 0.164526 0.068694 0.214780
Si Si5 0.594486 0.155515 0.875000
O O1 0.707300 0.673338 0.320848
O O2 0.776886 0.701155 0.187103
O O3 0.769878 0.586709 0.234005
O O4 0.655839 0.645580 0.184446
O O5 0.786034 0.733170 0.421145
O O6 0.842283 0.749396 0.562694
O O7 0.871467 0.647884 0.469461
O O8 0.905421 0.775784 0.426218
O O9 0.188748 0.061253 0.125000
O O10 0.135840 0.000000 0.250000
#
# Coordination Sequence:
#
# PCOD8321021 Si02
#       5
#    32  32  32  32  16
#     4  10  21  38  62  97 125 165 214 275 314 397
#     4  10  19  40  61  90 121 176 209 261 322 404
#     4   9  18  38  64  82 125 174 208 241 338 398
#     4  12  23  38  62  93 128 167 214 264 331 393
#     4  10  24  40  67  98 128 164 224 275 334 384
#
# _framework density 21.180485000000001
#
# number of rings (size 3 to 8) (size 9 to 14) (size 15 to 20)
#    0.000    1.778    4.444    0.000    1.556    3.556 
#    4.000    0.556    0.000    0.000    5.778    0.000 
#    0.000    0.000    0.000    0.000    0.000    0.000 
#
# Total GULP energy -891996.006835 kJ/mol
# GULP energy per Si atom -12388.833428 kJ/mol
# Density = 2.113228 g / cm^3
# Si number density = 21.180485 Si / 1000 Ang^3
#
#
#
# Elastic Constant Matrix: (Units=GPa)
#
#
# Indices 1 2 3 4 5 6 
#
# 1 84.2657 28.4798 36.5770 0.0000 0.0000 0.0000
# 2 28.4798 84.2655 36.5773 0.0000 0.0000 0.0000
# 3 36.5770 36.5773 131.9948 0.0000 0.0000 0.0000
# 4 0.0000 0.0000 0.0000 14.2061 0.0000 0.0000
# 5 0.0000 0.0000 0.0000 0.0000 14.2092 0.0000
# 6 0.0000 0.0000 0.0000 0.0000 0.0000 22.1873
#
#
#
# Elastic Compliance Matrix: (Units=1/GPa)
#
#
# Indices 1 2 3 4 5 6 
#
# 1 0.014370 -0.003556 -0.002997 0.000000 0.000000 0.000000
# 2 -0.003556 0.014370 -0.002997 0.000000 0.000000 0.000000
# 3 -0.002997 -0.002997 0.009237 0.000000 0.000000 0.000000
# 4 0.000000 0.000000 0.000000 0.070393 0.000000 0.000000
# 5 0.000000 0.000000 0.000000 0.000000 0.070377 0.000000
# 6 0.000000 0.000000 0.000000 0.000000 0.000000 0.045071
#
#
# Mechanical properties :
#
#
# Convention : Reuss Voigt Hill
#
# Bulk Modulus (GPa) = 52.97149 55.97713 54.47431
# Shear Modulus (GPa) = 20.06356 23.37997 21.72176
#
# Velocity S-wave (km/s) = 3.08111 3.32602 3.20590
# Velocity P-wave (km/s) = 6.14178 6.42152 6.28321
#
# Compressibility (1/GPa) = 0.01887808
#
# Stress axis : x y z
#
# Youngs Moduli (GPa) = 69.59055 69.59019 108.26197
#
# Poissons Ratio (x) = 0.24746 0.32442
# Poissons Ratio (y) = 0.24746 0.32443
# Poissons Ratio (z) = 0.20854 0.20854
#
# Static dielectric constant tensor:
#      x y z
#    x 3.813660 0.000000 0.000000 
#    y 0.000000 3.813660 0.000000 
#    z 0.000000 0.000000 4.323250 
# 
# 
# High freq. dielectric constant tensor:
#      x y z
#    x 1.806090 0.000000 0.000000 
#    y 0.000000 1.806090 0.000000 
#    z 0.000000 0.000000 1.853640 
# 
# From -- ./inp_files/7288.got.cif
#   From: 2010.03.12/outbox.cif.g09.slc.cpg/sg142_4_cif.got.tgz:7288.got - 2010.04.03 13:27:16.
