data_PCOD8321358
_publ_section_title
;
Structure prediction by ZEFSAII (Michael W. Deem and Ramdas Pophale) SiO2 
 PCOD8321358
Probable space group: P 31
;
_chemical_formula_sum "Si O2"
_cell_formula_units_Z 24
_cell_length_a 7.852633
_cell_length_b 7.852633
_cell_length_c 20.663731
_cell_angle_alpha 90.000000
_cell_angle_beta 90.000000
_cell_angle_gamma 120.000000
_cell_volume 1103.493992
_symmetry_space_group_name_H-M "P 31"
_symmetry_group_IT_number 144
_symmetry_cell_setting 'hexagonal'
loop_
_space_group_symop_operation_xyz
x,y,z
-y,x-y,1/3+z
-x+y,-x,2/3+z
loop_
_atom_site_type_symbol
_atom_site_label
_atom_site_fract_x
_atom_site_fract_y
_atom_site_fract_z
Si Si1 0.213643 0.166567 0.750000
Si Si2 0.091411 0.327911 0.184649
Si Si3 0.467857 0.334321 0.207943
Si Si4 0.675369 0.789530 0.198438
Si Si5 0.797652 0.335715 0.277730
Si Si6 0.802654 0.999163 0.939400
Si Si7 0.208190 0.511082 0.517478
Si Si8 0.486926 0.120018 0.086849
O O1 0.114896 0.268584 0.790608
O O2 0.119200 0.144906 0.679410
O O3 0.448948 0.294693 0.748351
O O4 0.170891 0.961644 0.783246
O O5 0.243957 0.280571 0.223480
O O6 0.183994 0.559645 0.170138
O O7 0.892379 0.250299 0.226416
O O8 0.599974 0.564948 0.209071
O O9 0.565813 0.249720 0.259269
O O10 0.483944 0.275383 0.135262
O O11 0.511649 0.848201 0.218353
O O12 0.874049 0.893023 0.240867
O O13 0.834275 0.271138 0.348456
O O14 0.908552 0.569998 0.272317
O O15 0.677565 0.796855 0.898774
O O16 0.099876 0.436679 0.447691
#
# Coordination Sequence:
#
# PCOD8321358 Si02
#       8
#     3   3   3   3   3   3   3   3
#     4  10  20  39  59  85 121 160 199 257 316 368
#     4  10  20  39  59  87 123 158 207 262 309 380
#     4  10  20  39  59  85 122 158 203 255 311 376
#     4   9  20  39  57  84 120 155 200 257 305 378
#     4   9  19  40  62  86 122 162 204 258 319 378
#     4   9  19  38  63  84 118 163 205 254 320 374
#     4   9  20  39  61  85 118 161 202 257 318 383
#     4  10  20  39  62  86 118 161 202 254 324 379
#
# _framework density 21.749102000000001
#
# number of rings (size 3 to 8) (size 9 to 14) (size 15 to 20)
#    0.000    2.500    1.250    0.000    1.750    0.000 
#   22.500    0.000    0.000    0.000    0.000    0.000 
#    0.000    0.000    0.000    0.000    0.000    0.000 
#
# Total GULP energy -297359.498676 kJ/mol
# GULP energy per Si atom -12389.979111 kJ/mol
# Density = 2.169960 g / cm^3
# Si number density = 21.749102 Si / 1000 Ang^3
#
#
#
# Elastic Constant Matrix: (Units=GPa)
#
#
# Indices 1 2 3 4 5 6 
#
# 1 73.4959 42.2254 41.9211 -0.1413 1.5757 0.0000
# 2 42.2254 73.4959 41.9211 0.1413 -1.5757 0.0000
# 3 41.9211 41.9211 153.6829 0.0000 0.0000 0.0000
# 4 -0.1413 0.1413 0.0000 27.1406 0.0000 -1.5757
# 5 1.5757 -1.5757 0.0000 0.0000 27.1406 -0.1413
# 6 0.0000 0.0000 0.0000 -1.5757 -0.1413 15.6352
#
#
#
# Elastic Compliance Matrix: (Units=1/GPa)
#
#
# Indices 1 2 3 4 5 6 
#
# 1 0.021469 -0.010699 -0.002938 0.000168 -0.001868 0.000000
# 2 -0.010699 0.021469 -0.002938 -0.000168 0.001868 0.000000
# 3 -0.002938 -0.002938 0.008110 0.000000 0.000000 0.000000
# 4 0.000168 -0.000168 0.000000 0.037064 0.000000 0.003735
# 5 -0.001868 0.001868 0.000000 0.000000 0.037064 0.000335
# 6 0.000000 0.000000 0.000000 0.003735 0.000335 0.064338
#
#
# Mechanical properties :
#
#
# Convention : Reuss Voigt Hill
#
# Bulk Modulus (GPa) = 55.87112 61.42335 58.64723
# Shear Modulus (GPa) = 21.86944 25.62375 23.74660
#
# Velocity S-wave (km/s) = 3.17445 3.43615 3.30789
# Velocity P-wave (km/s) = 6.25947 6.63671 6.45085
#
# Compressibility (1/GPa) = 0.01789833
#
# Stress axis : x y z
#
# Youngs Moduli (GPa) = 46.57805 46.57805 123.31033
#
# Poissons Ratio (x) = 0.49836 0.36226
# Poissons Ratio (y) = 0.49836 0.36226
# Poissons Ratio (z) = 0.13684 0.13684
#
# Static dielectric constant tensor:
#      x y z
#    x 4.042600 0.000000 0.000000 
#    y 0.000000 4.042600 0.000000 
#    z 0.000000 0.000000 3.939820 
# 
# 
# High freq. dielectric constant tensor:
#      x y z
#    x 1.859530 0.000000 0.000000 
#    y 0.000000 1.859530 0.000000 
#    z 0.000000 0.000000 1.830680 
# 
# From -- ./inp_files/823.got.cif
#   From: 2010.03.12/outbox.cif.g09.slc.cpg/sg144_cif.got.tgz:823.got - 2010.04.03 13:34:42.
