data_PCOD8321777
_publ_section_title
;
Structure prediction by ZEFSAII (Michael W. Deem and Ramdas Pophale) SiO2 
 PCOD8321777
Probable space group: R -3
;
_chemical_formula_sum "Si O2"
_cell_formula_units_Z 54
_cell_length_a 13.834920
_cell_length_b 13.834920
_cell_length_c 13.296427
_cell_angle_alpha 90.000000
_cell_angle_beta 90.000000
_cell_angle_gamma 120.000000
_cell_volume 2204.037044
_symmetry_space_group_name_H-M "R -3"
_symmetry_group_IT_number 148
_symmetry_cell_setting 'hexagonal'
loop_
_space_group_symop_operation_xyz
x,y,z
-y,x-y,z
-x+y,-x,z
-x,-y,-z
y,-x+y,-z
x-y,x,-z
2/3+x,1/3+y,1/3+z
2/3-y,1/3+x-y,1/3+z
2/3-x+y,1/3-x,1/3+z
2/3-x,1/3-y,1/3-z
2/3+y,1/3-x+y,1/3-z
2/3+x-y,1/3+x,1/3-z
1/3+x,2/3+y,2/3+z
1/3-y,2/3+x-y,2/3+z
1/3-x+y,2/3-x,2/3+z
1/3-x,2/3-y,2/3-z
1/3+y,2/3-x+y,2/3-z
1/3+x-y,2/3+x,2/3-z
loop_
_atom_site_type_symbol
_atom_site_label
_atom_site_fract_x
_atom_site_fract_y
_atom_site_fract_z
Si Si1 0.980903 0.422676 0.251921
Si Si2 0.430845 0.322540 0.192651
Si Si3 0.191055 0.586770 0.359763
O O1 0.991310 0.330840 0.189873
O O2 0.103304 0.530995 0.270181
O O3 0.908664 0.461774 0.187020
O O4 0.923319 0.375503 0.358288
O O5 0.457917 0.235291 0.133277
O O6 0.277110 0.539764 0.352162
#
# Coordination Sequence:
#
# PCOD8321777 Si02
#       3
#    18  18  18
#     4  12  27  47  76 106 151 192 243 298 368 428
#     4  12  27  47  74 109 146 194 243 303 359 433
#     4  10  25  46  73 103 144 188 245 292 361 426
#
# _framework density 24.500494
#
# number of rings (size 3 to 8) (size 9 to 14) (size 15 to 20)
#    0.667    0.000    3.333    3.000    9.333    2.667 
#    0.000    3.333    0.000    0.000    0.000    0.000 
#    0.000    0.000    0.000    0.000    0.000    0.000 
#
# Total GULP energy -223118.671832 kJ/mol
# GULP energy per Si atom -12395.481768 kJ/mol
# Density = 2.444473 g / cm^3
# Si number density = 24.500494 Si / 1000 Ang^3
#
#
#
# Elastic Constant Matrix: (Units=GPa)
#
#
# Indices 1 2 3 4 5 6 
#
# 1 98.9512 26.7553 12.1814 2.7434 -0.9082 0.0000
# 2 26.7553 98.9512 12.1814 -2.7434 0.9082 0.0000
# 3 12.1814 12.1814 43.6646 0.0000 0.0000 0.0000
# 4 2.7434 -2.7434 0.0000 31.5831 0.0000 0.9082
# 5 -0.9082 0.9082 0.0000 0.0000 31.5831 2.7434
# 6 0.0000 0.0000 0.0000 0.9082 2.7434 36.0980
#
#
#
# Elastic Compliance Matrix: (Units=1/GPa)
#
#
# Indices 1 2 3 4 5 6 
#
# 1 0.011182 -0.002772 -0.002346 -0.001212 0.000401 0.000000
# 2 -0.002772 0.011182 -0.002346 0.001212 -0.000401 0.000000
# 3 -0.002346 -0.002346 0.024211 0.000000 0.000000 0.000000
# 4 -0.001212 0.001212 0.000000 0.031896 0.000000 -0.000802
# 5 0.000401 -0.000401 0.000000 0.000000 0.031896 -0.002424
# 6 0.000000 0.000000 0.000000 -0.000802 -0.002424 0.027907
#
#
# Mechanical properties :
#
#
# Convention : Reuss Voigt Hill
#
# Bulk Modulus (GPa) = 31.59968 38.20032 34.90000
# Shear Modulus (GPa) = 30.53437 32.54942 31.54190
#
# Velocity S-wave (km/s) = 3.53409 3.64884 3.59193
# Velocity P-wave (km/s) = 5.43863 5.77733 5.61054
#
# Compressibility (1/GPa) = 0.03164589
#
# Stress axis : x y z
#
# Youngs Moduli (GPa) = 89.43289 89.43289 41.30377
#
# Poissons Ratio (x) = 0.24789 0.09690
# Poissons Ratio (y) = 0.24789 0.09690
# Poissons Ratio (z) = 0.20982 0.20982
#
# Static dielectric constant tensor:
#      x y z
#    x 4.717760 0.000000 0.000000 
#    y 0.000000 4.717760 0.000000 
#    z 0.000000 0.000000 4.217330 
# 
# 
# High freq. dielectric constant tensor:
#      x y z
#    x 1.986400 0.000000 0.000000 
#    y 0.000000 1.986400 0.000000 
#    z 0.000000 0.000000 1.961760 
# 
# From -- ./inp_files/1773.got.cif
#   From: 2010.03.12/outbox.cif.g09.slc.cpg/sg148_1_cif.got.tgz:1773.got - 2010.04.03 13:38:46.
