data_PCOD8321697
_publ_section_title
;
Structure prediction by ZEFSAII (Michael W. Deem and Ramdas Pophale) SiO2 
 PCOD8321697
Probable space group: R -3
;
_chemical_formula_sum "Si O2"
_cell_formula_units_Z 126
_cell_length_a 17.082474
_cell_length_b 17.082474
_cell_length_c 27.335604
_cell_angle_alpha 90.000000
_cell_angle_beta 90.000000
_cell_angle_gamma 120.000000
_cell_volume 6908.135427
_symmetry_space_group_name_H-M "R -3"
_symmetry_group_IT_number 148
_symmetry_cell_setting 'hexagonal'
loop_
_space_group_symop_operation_xyz
x,y,z
-y,x-y,z
-x+y,-x,z
-x,-y,-z
y,-x+y,-z
x-y,x,-z
2/3+x,1/3+y,1/3+z
2/3-y,1/3+x-y,1/3+z
2/3-x+y,1/3-x,1/3+z
2/3-x,1/3-y,1/3-z
2/3+y,1/3-x+y,1/3-z
2/3+x-y,1/3+x,1/3-z
1/3+x,2/3+y,2/3+z
1/3-y,2/3+x-y,2/3+z
1/3-x+y,2/3-x,2/3+z
1/3-x,2/3-y,2/3-z
1/3+y,2/3-x+y,2/3-z
1/3+x-y,2/3+x,2/3-z
loop_
_atom_site_type_symbol
_atom_site_label
_atom_site_fract_x
_atom_site_fract_y
_atom_site_fract_z
Si Si1 0.288784 0.054399 0.048537
Si Si2 0.000849 0.178521 0.854500
Si Si3 0.752775 0.070716 0.770397
Si Si4 0.348726 0.262618 0.562936
Si Si5 0.666667 0.153107 0.833333
Si Si6 0.665818 0.511005 0.478833
Si Si7 0.044549 0.432281 0.618130
O O1 0.376100 0.044607 0.060362
O O2 0.215859 0.008973 0.091197
O O3 0.319724 0.159862 0.041994
O O4 0.240706 1.000000 0.000000
O O5 0.976467 0.236968 0.818855
O O6 0.094276 0.188551 0.835738
O O7 0.008973 0.215859 0.908803
O O8 0.926185 0.073815 0.854418
O O9 0.850198 0.149802 0.751681
O O10 0.689982 0.112490 0.785724
O O11 0.763032 0.023533 0.818855
O O12 0.709433 0.998159 0.727028
O O13 0.244158 0.220843 0.547610
O O14 0.582192 0.164384 0.817983
#
# Coordination Sequence:
#
# PCOD8321697 Si02
#       7
#    18  18  18  18  18  18  18
#     4  11  22  35  53  78 109 146 183 221 265 320
#     4  10  19  33  53  79 108 139 176 219 269 322
#     4  10  20  35  57  79 104 138 179 227 275 322
#     4  10  20  35  57  79 104 138 179 227 275 322
#     4  10  19  32  53  80 108 136 172 220 271 318
#     4  10  19  33  53  79 108 139 176 219 269 322
#     4  11  22  35  53  78 109 146 183 221 265 320
#
# _framework density 18.239363999999998
#
# number of rings (size 3 to 8) (size 9 to 14) (size 15 to 20)
#    0.000    1.714    2.857    2.143    0.000    4.000 
#    0.000    0.000    0.000    5.143    0.000    2.000 
#    0.000    0.000    0.000    0.000    0.000    0.000 
#
# Total GULP energy -520929.686112 kJ/mol
# GULP energy per Si atom -12403.087765 kJ/mol
# Density = 1.819785 g / cm^3
# Si number density = 18.239364 Si / 1000 Ang^3
#
#
#
# Elastic Constant Matrix: (Units=GPa)
#
#
# Indices 1 2 3 4 5 6 
#
# 1 117.8588 59.1090 27.2655 -1.5085 0.0000 0.0000
# 2 59.1090 117.8588 27.2655 1.5085 0.0000 0.0000
# 3 27.2655 27.2655 54.8641 0.0000 0.0000 0.0000
# 4 -1.5085 1.5085 0.0000 25.8482 0.0000 0.0000
# 5 0.0000 0.0000 0.0000 0.0000 25.8482 -1.5085
# 6 0.0000 0.0000 0.0000 0.0000 -1.5085 29.3749
#
#
#
# Elastic Compliance Matrix: (Units=1/GPa)
#
#
# Indices 1 2 3 4 5 6 
#
# 1 0.011873 -0.005200 -0.003316 0.000996 0.000000 0.000000
# 2 -0.005200 0.011873 -0.003316 -0.000996 0.000000 0.000000
# 3 -0.003316 -0.003316 0.021523 0.000000 0.000000 0.000000
# 4 0.000996 -0.000996 0.000000 0.038804 0.000000 0.000000
# 5 0.000000 0.000000 0.000000 0.000000 0.038804 0.001993
# 6 0.000000 0.000000 0.000000 0.000000 0.001993 0.034145
#
#
# Mechanical properties :
#
#
# Convention : Reuss Voigt Hill
#
# Bulk Modulus (GPa) = 46.28825 57.54021 51.91423
# Shear Modulus (GPa) = 26.61193 28.01035 27.31114
#
# Velocity S-wave (km/s) = 3.82388 3.92306 3.87379
# Velocity P-wave (km/s) = 6.70294 7.22055 6.96655
#
# Compressibility (1/GPa) = 0.02160376
#
# Stress axis : x y z
#
# Youngs Moduli (GPa) = 84.22809 84.22809 46.46245
#
# Poissons Ratio (x) = 0.43798 0.15407
# Poissons Ratio (y) = 0.43798 0.15407
# Poissons Ratio (z) = 0.27930 0.27930
#
# Static dielectric constant tensor:
#      x y z
#    x 3.515650 0.000000 0.000000 
#    y 0.000000 3.515650 0.000000 
#    z 0.000000 0.000000 3.062420 
# 
# 
# High freq. dielectric constant tensor:
#      x y z
#    x 1.718650 0.000000 0.000000 
#    y 0.000000 1.718650 0.000000 
#    z 0.000000 0.000000 1.676200 
# 
# From -- ./inp_files/3469.got.cif
#   From: 2010.03.12/outbox.cif.g09.slc.cpg/sg148_2_cif.got.tgz:3469.got - 2010.04.03 13:38:46.
