data_PCOD8321569
_publ_section_title
;
Structure prediction by ZEFSAII (Michael W. Deem and Ramdas Pophale) SiO2 
 PCOD8321569
Probable space group: R 3
;
_chemical_formula_sum "Si O2"
_cell_formula_units_Z 51
_cell_length_a 16.678197
_cell_length_b 16.678197
_cell_length_c 7.723546
_cell_angle_alpha 90.000000
_cell_angle_beta 90.000000
_cell_angle_gamma 120.000000
_cell_volume 1860.568088
_symmetry_space_group_name_H-M "R 3"
_symmetry_group_IT_number 146
_symmetry_cell_setting 'hexagonal'
loop_
_space_group_symop_operation_xyz
x,y,z
-y,x-y,z
-x+y,-x,z
2/3+x,1/3+y,1/3+z
2/3-y,1/3+x-y,1/3+z
2/3-x+y,1/3-x,1/3+z
1/3+x,2/3+y,2/3+z
1/3-y,2/3+x-y,2/3+z
1/3-x+y,2/3-x,2/3+z
loop_
_atom_site_type_symbol
_atom_site_label
_atom_site_fract_x
_atom_site_fract_y
_atom_site_fract_z
Si Si1 0.022649 0.559244 0.632580
Si Si2 0.000000 0.000000 0.272879
Si Si3 0.733661 0.678058 0.476047
Si Si4 0.674655 0.167387 0.759934
Si Si5 0.333335 0.666668 0.528191
Si Si6 0.798022 0.112312 0.937844
Si Si7 0.943284 0.123268 0.707412
O O1 0.045592 0.501607 0.776527
O O2 0.911324 0.512391 0.635369
O O3 0.038586 0.534215 0.438090
O O4 0.077083 0.669746 0.659432
O O5 0.896037 0.961419 0.344847
O O6 0.000000 0.000000 0.066904
O O7 0.652751 0.624692 0.615476
O O8 0.795621 0.780007 0.564498
O O9 0.755275 0.141472 0.779305
O O10 0.633571 0.159472 0.951883
O O11 0.351237 0.764836 0.451849
O O12 0.902395 0.147892 0.876101
#
# Coordination Sequence:
#
# PCOD8321569 Si02
#       7
#     9   3   9   9   3   9   9
#     4  11  24  47  79 121 160 217 276 356 417 505
#     4  12  28  50  76 117 172 230 277 358 440 496
#     4  11  30  57  81 124 172 225 280 345 435 510
#     4  11  23  47  74 116 163 212 279 345 422 503
#     4  12  28  56  76 120 163 218 289 355 443 499
#     4  12  23  46  79 120 162 213 288 347 425 505
#     4  11  26  49  81 114 160 221 275 360 416 508
#
# _framework density 27.410983000000002
#
# number of rings (size 3 to 8) (size 9 to 14) (size 15 to 20)
#    0.000    0.706    3.529    2.118    4.941    5.647 
#   12.706    0.000    0.000    0.000    0.000    0.000 
#    0.000    0.000    0.000    0.000    0.000    0.000 
#
# Total GULP energy -210653.741232 kJ/mol
# GULP energy per Si atom -12391.396543 kJ/mol
# Density = 2.734859 g / cm^3
# Si number density = 27.410983 Si / 1000 Ang^3
#
#
#
# Elastic Constant Matrix: (Units=GPa)
#
#
# Indices 1 2 3 4 5 6 
#
# 1 100.9553 29.9801 30.3619 -3.1964 -7.0222 -0.0001
# 2 29.9801 100.9538 30.3591 3.1971 7.0249 -0.0007
# 3 30.3619 30.3591 142.6096 0.0042 0.0067 0.0018
# 4 -3.1964 3.1971 0.0042 39.6738 0.0031 7.0249
# 5 -7.0222 7.0249 0.0067 0.0031 39.6785 -3.1955
# 6 -0.0001 -0.0007 0.0018 7.0249 -3.1955 35.4881
#
#
#
# Elastic Compliance Matrix: (Units=1/GPa)
#
#
# Indices 1 2 3 4 5 6 
#
# 1 0.011593 -0.003119 -0.001804 0.001185 0.002604 0.000000
# 2 -0.003119 0.011593 -0.001804 -0.001185 -0.002604 0.000000
# 3 -0.001804 -0.001804 0.007780 -0.000001 -0.000001 0.000000
# 4 0.001185 -0.001185 -0.000001 0.026319 -0.000002 -0.005210
# 5 0.002604 -0.002604 -0.000001 -0.000002 0.026315 0.002370
# 6 0.000000 0.000000 0.000000 -0.005210 0.002370 0.029423
#
#
# Mechanical properties :
#
#
# Convention : Reuss Voigt Hill
#
# Bulk Modulus (GPa) = 57.10329 58.43565 57.76947
# Shear Modulus (GPa) = 37.78865 39.88927 38.83896
#
# Velocity S-wave (km/s) = 3.71697 3.81889 3.76827
# Velocity P-wave (km/s) = 6.26886 6.38825 6.32884
#
# Compressibility (1/GPa) = 0.01751213
#
# Stress axis : x y z
#
# Youngs Moduli (GPa) = 86.25991 86.25986 128.52986
#
# Poissons Ratio (x) = 0.26903 0.23191
# Poissons Ratio (y) = 0.26903 0.23184
# Poissons Ratio (z) = 0.15564 0.15559
#
# Static dielectric constant tensor:
#      x y z
#    x 4.841980 0.000010 -0.000010 
#    y 0.000010 4.842000 0.000010 
#    z -0.000010 0.000010 5.051620 
# 
# 
# High freq. dielectric constant tensor:
#      x y z
#    x 2.095310 0.000000 0.000000 
#    y 0.000000 2.095310 0.000000 
#    z 0.000000 0.000000 2.123140 
# 
# From -- ./inp_files/666.got.cif
#   From: 2010.06.25/outbox.cif.g09.slc.cpg/sg146_cif.got.tgz:666.got - 2010.06.28 11:17:22.
