data_PCOD8321743
_publ_section_title
;
Structure prediction by ZEFSAII (Michael W. Deem and Ramdas Pophale) SiO2 
 PCOD8321743
Probable space group: R -3
;
_chemical_formula_sum "Si O2"
_cell_formula_units_Z 144
_cell_length_a 29.346382
_cell_length_b 29.346382
_cell_length_c 9.436948
_cell_angle_alpha 90.000000
_cell_angle_beta 90.000000
_cell_angle_gamma 120.000000
_cell_volume 7038.357570
_symmetry_space_group_name_H-M "R -3"
_symmetry_group_IT_number 148
_symmetry_cell_setting 'hexagonal'
loop_
_space_group_symop_operation_xyz
x,y,z
-y,x-y,z
-x+y,-x,z
-x,-y,-z
y,-x+y,-z
x-y,x,-z
2/3+x,1/3+y,1/3+z
2/3-y,1/3+x-y,1/3+z
2/3-x+y,1/3-x,1/3+z
2/3-x,1/3-y,1/3-z
2/3+y,1/3-x+y,1/3-z
2/3+x-y,1/3+x,1/3-z
1/3+x,2/3+y,2/3+z
1/3-y,2/3+x-y,2/3+z
1/3-x+y,2/3-x,2/3+z
1/3-x,2/3-y,2/3-z
1/3+y,2/3-x+y,2/3-z
1/3+x-y,2/3+x,2/3-z
loop_
_atom_site_type_symbol
_atom_site_label
_atom_site_fract_x
_atom_site_fract_y
_atom_site_fract_z
Si Si1 0.425911 0.064101 0.212911
Si Si2 0.905216 0.293819 0.945945
Si Si3 0.907067 0.904146 0.082322
Si Si4 0.339500 0.574941 0.246181
Si Si5 0.135494 0.267560 0.198582
Si Si6 0.472711 0.526778 0.185776
Si Si7 0.539743 0.851698 0.556918
Si Si8 0.854136 0.545071 0.926990
O O1 0.483964 0.076237 0.170889
O O2 0.428899 0.096871 0.349718
O O3 0.386525 0.002407 0.231096
O O4 0.399025 0.084102 0.102979
O O5 0.848354 0.242296 0.942158
O O6 0.906850 0.339743 0.852080
O O7 0.919151 0.916042 0.251604
O O8 0.854376 0.848291 0.064401
O O9 0.899995 0.948200 0.002479
O O10 0.289307 0.566668 0.160317
O O11 0.342823 0.523028 0.217074
O O12 0.120971 0.253535 0.363817
O O13 0.149318 0.326775 0.165967
O O14 0.084366 0.230213 0.105232
O O15 0.420034 0.504655 0.277001
O O16 0.548026 0.876987 0.403627
#
# Coordination Sequence:
#
# PCOD8321743 Si02
#       8
#    18  18  18  18  18  18  18  18
#     4  11  26  43  66  98 136 174 220 273 332 401
#     4  11  24  43  66  97 129 175 220 267 337 388
#     4  11  24  42  64  91 131 181 222 276 347 406
#     4  11  24  40  64  98 132 171 227 285 333 399
#     4  10  21  42  66  93 131 174 215 268 337 393
#     4  10  21  40  68  95 127 171 217 272 329 398
#     4  11  25  42  65  99 133 173 220 274 337 401
#     4  11  23  40  69  97 127 169 223 275 329 398
#
# _framework density 20.459319000000001
#
# number of rings (size 3 to 8) (size 9 to 14) (size 15 to 20)
#    0.000    1.250    2.500    2.500    1.750    8.000 
#    0.000    2.500    0.000    0.000    0.000    0.000 
#    0.000    0.000    0.000    0.000    0.000    0.000 
#
# Total GULP energy -595275.445019 kJ/mol
# GULP energy per Si atom -12401.571771 kJ/mol
# Density = 2.041275 g / cm^3
# Si number density = 20.459319 Si / 1000 Ang^3
#
#
#
# Elastic Constant Matrix: (Units=GPa)
#
#
# Indices 1 2 3 4 5 6 
#
# 1 151.9260 -16.9704 42.7190 20.6568 -25.9527 -0.2852
# 2 -16.9704 152.1393 43.2140 -20.6626 26.0563 0.3683
# 3 42.7190 43.2140 79.0590 -0.0870 0.1178 0.0612
# 4 20.6568 -20.6626 -0.0870 57.8018 -0.1324 25.3391
# 5 -25.9527 26.0563 0.1178 -0.1324 58.2927 20.8639
# 6 -0.2852 0.3683 0.0612 25.3391 20.8639 84.1941
#
#
#
# Elastic Compliance Matrix: (Units=1/GPa)
#
#
# Indices 1 2 3 4 5 6 
#
# 1 0.009462 0.001845 -0.006129 -0.002727 0.003391 0.000009
# 2 0.001845 0.009482 -0.006172 0.002716 -0.003396 -0.000007
# 3 -0.006129 -0.006172 0.019334 0.000019 -0.000005 -0.000012
# 4 -0.002727 0.002716 0.000019 0.022185 0.000021 -0.006703
# 5 0.003391 -0.003396 -0.000005 0.000021 0.022139 -0.005466
# 6 0.000009 -0.000007 -0.000012 -0.006703 -0.005466 0.015249
#
#
# Mechanical properties :
#
#
# Convention : Reuss Voigt Hill
#
# Bulk Modulus (GPa) = 57.58282 57.89440 57.73861
# Shear Modulus (GPa) = 40.14366 61.00183 50.57275
#
# Velocity S-wave (km/s) = 4.43439 5.46634 4.97718
# Velocity P-wave (km/s) = 7.37730 8.25833 7.83021
#
# Compressibility (1/GPa) = 0.01736629
#
# Stress axis : x y z
#
# Youngs Moduli (GPa) = 105.68864 105.45815 51.72103
#
# Poissons Ratio (x) = -0.19460 0.31701
# Poissons Ratio (y) = -0.19503 0.31923
# Poissons Ratio (z) = 0.64780 0.65091
#
# Static dielectric constant tensor:
#      x y z
#    x 3.819360 -0.000030 -0.000200 
#    y -0.000030 3.819450 0.000010 
#    z -0.000200 0.000010 3.683100 
# 
# 
# High freq. dielectric constant tensor:
#      x y z
#    x 1.811470 0.000000 -0.000010 
#    y 0.000000 1.811480 0.000000 
#    z -0.000010 0.000000 1.797860 
# 
# From -- ./inp_files/1126.got.cif
#   From: 2010.03.12/outbox.cif.g09.slc.cpg/sg148_1_cif.got.tgz:1126.got - 2010.04.03 13:38:46.
