data_PCOD8321612
_publ_section_title
;
Structure prediction by ZEFSAII (Michael W. Deem and Ramdas Pophale) SiO2 
 PCOD8321612
Probable space group: P -3
;
_chemical_formula_sum "Si O2"
_cell_formula_units_Z 42
_cell_length_a 12.818414
_cell_length_b 12.818414
_cell_length_c 17.659121
_cell_angle_alpha 90.000000
_cell_angle_beta 90.000000
_cell_angle_gamma 120.000000
_cell_volume 2512.860051
_symmetry_space_group_name_H-M "P -3"
_symmetry_group_IT_number 147
_symmetry_cell_setting 'hexagonal'
loop_
_space_group_symop_operation_xyz
x,y,z
-y,x-y,z
-x+y,-x,z
-x,-y,-z
y,-x+y,-z
x-y,x,-z
loop_
_atom_site_type_symbol
_atom_site_label
_atom_site_fract_x
_atom_site_fract_y
_atom_site_fract_z
Si Si1 0.092281 0.424642 0.939487
Si Si2 0.667128 0.576913 0.637529
Si Si3 0.333437 0.426073 0.768398
Si Si4 0.909785 0.576913 0.637529
Si Si5 0.756187 0.000000 0.500000
Si Si6 0.092636 0.426073 0.768398
Si Si7 0.667640 0.575358 0.060513
O O1 0.049688 0.379467 0.853799
O O2 0.219888 0.439775 0.956545
O O3 0.106196 0.553098 0.954105
O O4 0.000000 0.329355 0.000000
O O5 0.773672 0.547344 0.647591
O O6 0.545824 0.454176 0.617696
O O7 0.693495 0.671421 0.571343
O O8 0.655649 0.636035 0.714873
O O9 0.363965 0.344351 0.714873
O O10 0.206299 0.412597 0.744705
O O11 0.433521 0.566479 0.760997
O O12 0.329778 0.379467 0.853799
O O13 0.977926 0.671421 0.571343
O O14 0.886060 0.113940 0.482683
#
# Coordination Sequence:
#
# PCOD8321612 Si02
#       7
#     6   6   6   6   6   6   6
#     4   9  17  29  46  68  93 121 153 190 231 274
#     4  10  20  33  49  70  97 126 154 186 228 278
#     4   9  17  30  48  69  92 119 153 192 232 273
#     4  10  20  33  49  70  97 126 154 186 228 278
#     4  10  20  34  52  72  94 122 158 198 234 268
#     4   9  17  30  48  69  92 119 153 192 232 273
#     4   9  17  29  46  68  93 121 153 190 231 274
#
# _framework density 16.714022
#
# number of rings (size 3 to 8) (size 9 to 14) (size 15 to 20)
#    0.000    2.571    0.000    2.286    0.000    3.429 
#    0.000    0.000    0.000   13.429    0.000    0.000 
#    0.000    0.000    0.000    0.000    0.000    0.000 
#
# Total GULP energy -520804.062135 kJ/mol
# GULP energy per Si atom -12400.096717 kJ/mol
# Density = 1.667598 g / cm^3
# Si number density = 16.714022 Si / 1000 Ang^3
#
#
#
# Elastic Constant Matrix: (Units=GPa)
#
#
# Indices 1 2 3 4 5 6 
#
# 1 100.3402 51.5681 60.6685 -2.4488 0.0000 0.0000
# 2 51.5681 100.3402 60.6685 2.4488 0.0000 0.0000
# 3 60.6685 60.6685 103.2318 0.0000 0.0000 0.0000
# 4 -2.4488 2.4488 0.0000 29.6932 0.0000 0.0000
# 5 0.0000 0.0000 0.0000 0.0000 29.6932 -2.4488
# 6 0.0000 0.0000 0.0000 0.0000 -2.4488 24.3861
#
#
#
# Elastic Compliance Matrix: (Units=1/GPa)
#
#
# Indices 1 2 3 4 5 6 
#
# 1 0.016541 -0.004134 -0.007292 0.001705 0.000000 0.000000
# 2 -0.004134 0.016541 -0.007292 -0.001705 0.000000 0.000000
# 3 -0.007292 -0.007292 0.018257 0.000000 0.000000 0.000000
# 4 0.001705 -0.001705 0.000000 0.033959 0.000000 0.000000
# 5 0.000000 0.000000 0.000000 0.000000 0.033959 0.003410
# 6 0.000000 0.000000 0.000000 0.000000 0.003410 0.041349
#
#
# Mechanical properties :
#
#
# Convention : Reuss Voigt Hill
#
# Bulk Modulus (GPa) = 71.91517 72.19139 72.05328
# Shear Modulus (GPa) = 24.67001 25.48830 25.07916
#
# Velocity S-wave (km/s) = 3.84605 3.90932 3.87781
# Velocity P-wave (km/s) = 7.92736 7.97890 7.95317
#
# Compressibility (1/GPa) = 0.01390527
#
# Stress axis : x y z
#
# Youngs Moduli (GPa) = 60.45633 60.45633 54.77277
#
# Poissons Ratio (x) = 0.24992 0.39938
# Poissons Ratio (y) = 0.24992 0.39938
# Poissons Ratio (z) = 0.44082 0.44082
#
# Static dielectric constant tensor:
#      x y z
#    x 3.101630 0.000000 0.000000 
#    y 0.000000 3.101630 0.000000 
#    z 0.000000 0.000000 3.353870 
# 
# 
# High freq. dielectric constant tensor:
#      x y z
#    x 1.640780 0.000000 0.000000 
#    y 0.000000 1.640780 0.000000 
#    z 0.000000 0.000000 1.654470 
# 
# From -- ./inp_files/1021.got.cif
#   From: 2010.03.12/outbox.cif.g09.slc.cpg/sg147_cif.got.tgz:1021.got - 2010.04.03 13:37:56.
