data_PCOD8321804
_publ_section_title
;
Structure prediction by ZEFSAII (Michael W. Deem and Ramdas Pophale) SiO2 
 PCOD8321804
Probable space group: R -3
;
_chemical_formula_sum "Si O2"
_cell_formula_units_Z 84
_cell_length_a 15.755304
_cell_length_b 15.755304
_cell_length_c 20.010451
_cell_angle_alpha 90.000000
_cell_angle_beta 90.000000
_cell_angle_gamma 120.000000
_cell_volume 4301.709547
_symmetry_space_group_name_H-M "R -3"
_symmetry_group_IT_number 148
_symmetry_cell_setting 'hexagonal'
loop_
_space_group_symop_operation_xyz
x,y,z
-y,x-y,z
-x+y,-x,z
-x,-y,-z
y,-x+y,-z
x-y,x,-z
2/3+x,1/3+y,1/3+z
2/3-y,1/3+x-y,1/3+z
2/3-x+y,1/3-x,1/3+z
2/3-x,1/3-y,1/3-z
2/3+y,1/3-x+y,1/3-z
2/3+x-y,1/3+x,1/3-z
1/3+x,2/3+y,2/3+z
1/3-y,2/3+x-y,2/3+z
1/3-x+y,2/3-x,2/3+z
1/3-x,2/3-y,2/3-z
1/3+y,2/3-x+y,2/3-z
1/3+x-y,2/3+x,2/3-z
loop_
_atom_site_type_symbol
_atom_site_label
_atom_site_fract_x
_atom_site_fract_y
_atom_site_fract_z
Si Si1 0.000000 0.000000 0.217862
Si Si2 0.713025 0.770249 0.912295
Si Si3 0.376420 0.170757 0.392816
Si Si4 0.666668 0.333334 0.706030
Si Si5 0.543777 0.155579 0.790697
Si Si6 0.828936 0.527866 0.172910
O O1 0.896675 0.909873 0.195696
O O2 0.000000 0.000000 0.295531
O O3 0.774456 0.715624 0.926251
O O4 0.606864 0.695956 0.878637
O O5 0.770669 0.856545 0.859313
O O6 0.702142 0.817531 0.980688
O O7 0.282081 0.084294 0.428120
O O8 0.463613 0.160513 0.425747
O O9 0.614341 0.222436 0.731827
O O10 0.480532 0.201854 0.819377
#
# Coordination Sequence:
#
# PCOD8321804 Si02
#       6
#     6  18  18   6  18  18
#     4  12  21  40  62  85 120 156 196 239 298 348
#     4  11  24  39  59  88 120 155 196 242 288 347
#     4  12  21  40  62  85 120 156 196 239 298 348
#     4   9  19  37  60  85 115 153 196 242 292 348
#     4   9  19  37  60  85 115 153 196 242 292 348
#     4  11  24  39  59  88 120 155 196 242 288 347
#
# _framework density 19.527118999999999
#
# number of rings (size 3 to 8) (size 9 to 14) (size 15 to 20)
#    0.000    1.286    4.286    3.429    0.000    0.000 
#    0.000    2.143    0.000   10.286    0.000    0.000 
#    0.000    0.000    0.000    0.000    0.000    0.000 
#
# Total GULP energy -347179.535493 kJ/mol
# GULP energy per Si atom -12399.269125 kJ/mol
# Density = 1.948267 g / cm^3
# Si number density = 19.527119 Si / 1000 Ang^3
#
#
#
# Elastic Constant Matrix: (Units=GPa)
#
#
# Indices 1 2 3 4 5 6 
#
# 1 71.5438 -4.0816 15.6873 0.3230 0.4977 0.0003
# 2 -4.0816 71.5422 15.6876 -0.3229 -0.4974 -0.0005
# 3 15.6873 15.6876 108.1977 0.0000 0.0000 -0.0004
# 4 0.3230 -0.3229 0.0000 31.0230 0.0000 -0.4974
# 5 0.4977 -0.4974 0.0000 0.0000 31.0229 0.3229
# 6 0.0003 -0.0005 -0.0004 -0.4974 0.3229 37.8123
#
#
#
# Elastic Compliance Matrix: (Units=1/GPa)
#
#
# Indices 1 2 3 4 5 6 
#
# 1 0.014561 0.001334 -0.002305 -0.000138 -0.000212 0.000000
# 2 0.001334 0.014561 -0.002305 0.000138 0.000212 0.000000
# 3 -0.002305 -0.002305 0.009911 0.000000 0.000000 0.000000
# 4 -0.000138 0.000138 0.000000 0.032244 0.000000 0.000424
# 5 -0.000212 0.000212 0.000000 0.000000 0.032244 -0.000275
# 6 0.000000 0.000000 0.000000 0.000424 -0.000275 0.026454
#
#
# Mechanical properties :
#
#
# Convention : Reuss Voigt Hill
#
# Bulk Modulus (GPa) = 30.78592 33.98561 32.38576
# Shear Modulus (GPa) = 33.93212 34.90434 34.41823
#
# Velocity S-wave (km/s) = 4.17309 4.23245 4.20287
# Velocity P-wave (km/s) = 6.24656 6.42860 6.33823
#
# Compressibility (1/GPa) = 0.03248239
#
# Stress axis : x y z
#
# Youngs Moduli (GPa) = 68.67676 68.67508 100.90184
#
# Poissons Ratio (x) = -0.09161 0.23253
# Poissons Ratio (y) = -0.09161 0.23254
# Poissons Ratio (z) = 0.15827 0.15827
#
# Static dielectric constant tensor:
#      x y z
#    x 2.529150 0.000210 -0.000070 
#    y 0.000210 2.527120 -0.000060 
#    z -0.000070 -0.000060 3.546540 
# 
# 
# High freq. dielectric constant tensor:
#      x y z
#    x 1.758190 0.000000 0.000000 
#    y 0.000000 1.758190 0.000000 
#    z 0.000000 0.000000 1.766470 
# 
# From -- ./inp_files/1981.got.cif
#   From: 2010.03.12/outbox.cif.g09.slc.cpg/sg148_1_cif.got.tgz:1981.got - 2010.04.03 13:38:46.
