data_PCOD8321888
_publ_section_title
;
Structure prediction by ZEFSAII (Michael W. Deem and Ramdas Pophale) SiO2 
 PCOD8321888
Probable space group: P 3 2 1
;
_chemical_formula_sum "Si O2"
_cell_formula_units_Z 32
_cell_length_a 14.806765
_cell_length_b 14.806765
_cell_length_c 8.429768
_cell_angle_alpha 90.000000
_cell_angle_beta 90.000000
_cell_angle_gamma 120.000000
_cell_volume 1600.540328
_symmetry_space_group_name_H-M "P 3 2 1"
_symmetry_group_IT_number 150
_symmetry_cell_setting 'hexagonal'
loop_
_space_group_symop_operation_xyz
x,y,z
-y,x-y,z
-x+y,-x,z
x-y,-y,-z
-x,-x+y,-z
y,x,-z
loop_
_atom_site_type_symbol
_atom_site_label
_atom_site_fract_x
_atom_site_fract_y
_atom_site_fract_z
Si Si1 0.795982 0.000000 0.188352
Si Si2 0.826753 0.570122 0.189677
Si Si3 0.883920 0.403070 0.814466
Si Si4 0.826753 0.570122 0.810323
Si Si5 0.000000 0.000000 0.313593
Si Si6 0.116080 0.519150 0.814466
O O1 0.689106 0.898833 0.248766
O O2 0.896578 1.000000 0.256501
O O3 0.790274 0.101167 0.248766
O O4 0.804353 0.000000 0.000000
O O5 0.710449 0.521222 0.260350
O O6 0.867055 0.494404 0.257729
O O7 0.828963 0.571671 1.000000
O O8 0.867055 0.494404 0.742271
O O9 0.810773 0.289550 0.739650
O O10 0.000000 0.428614 0.778546
O O11 0.860222 0.397367 1.000000
O O12 0.000000 0.000000 0.500000
#
# Coordination Sequence:
#
# PCOD8321888 Si02
#       6
#     6   6   6   6   2   6
#     4  10  20  36  57  80 104 138 185 228 259 306
#     4   9  16  26  43  71 107 142 173 210 259 313
#     4   9  15  23  36  61 100 138 166 198 253 312
#     4   9  16  26  43  71 107 142 173 210 259 313
#     4  12  28  44  55  72 100 140 181 222 277 326
#     4   9  15  23  36  61 100 138 166 198 253 312
#
# _framework density 19.993248000000001
#
# number of rings (size 3 to 8) (size 9 to 14) (size 15 to 20)
#    0.000    2.625    1.875    1.312    2.625    3.000 
#    0.000    0.000    0.000    0.000    0.000    5.250 
#    0.000    0.000    0.000    0.000    0.000    0.000 
#
# Total GULP energy -396556.693966 kJ/mol
# GULP energy per Si atom -12392.396686 kJ/mol
# Density = 1.994774 g / cm^3
# Si number density = 19.993248 Si / 1000 Ang^3
#
#
#
# Elastic Constant Matrix: (Units=GPa)
#
#
# Indices 1 2 3 4 5 6 
#
# 1 171.5244 96.7843 15.9461 0.0000 0.0000 0.0000
# 2 96.7843 171.5244 15.9461 0.0000 0.0000 0.0000
# 3 15.9461 15.9461 16.9874 0.0000 0.0000 0.0000
# 4 0.0000 0.0000 0.0000 -0.0344 0.0000 0.0000
# 5 0.0000 0.0000 0.0000 0.0000 -0.0344 0.0000
# 6 0.0000 0.0000 0.0000 0.0000 0.0000 37.3700
#
#
#
# Elastic Compliance Matrix: (Units=1/GPa)
#
#
# Indices 1 2 3 4 5 6 
#
# 1 0.008787 -0.004592 -0.003938 0.000003 0.000000 0.000000
# 2 -0.004592 0.008787 -0.003938 -0.000003 0.000000 0.000000
# 3 -0.003938 -0.003938 0.066260 0.000000 0.000000 0.000000
# 4 0.000003 -0.000003 0.000000-29.068861 0.000004 0.000000
# 5 0.000000 0.000000 0.000000 0.000004-29.068866 0.000005
# 6 0.000000 0.000000 0.000000 0.000000 0.000005 0.026759
#
#
# Mechanical properties :
#
#
# Convention : Reuss Voigt Hill
#
# Bulk Modulus (GPa) = 16.97831 68.59882 42.78856
# Shear Modulus (GPa) = -0.08623 22.88423 11.39900
#
# Velocity S-wave (km/s) = -0.20791 3.38686 2.39036
# Velocity P-wave (km/s) = 2.90737 7.04840 5.39132
#
# Compressibility (1/GPa) = 0.05889868
#
# Stress axis : x y z
#
# Youngs Moduli (GPa) = 113.79910 113.79910 15.09199
#
# Poissons Ratio (x) = 0.52260 0.05943
# Poissons Ratio (y) = 0.52260 0.05943
# Poissons Ratio (z) = 0.44814 0.44814
#
# Static dielectric constant tensor:
#      x y z
#    x 3.938720 0.000000 0.000000 
#    y 0.000000 3.938720 0.000000 
#    z 0.000000 0.000000 2.759270 
# 
# 
# High freq. dielectric constant tensor:
#      x y z
#    x 1.798310 0.000000 0.000000 
#    y 0.000000 1.798310 0.000000 
#    z 0.000000 0.000000 1.685330 
# 
# From -- ./inp_files/655.got.cif
#   From: 2010.03.12/outbox.cif.g09.slc.cpg/sg150_cif.got.tgz:655.got - 2010.04.03 13:41:37.
