data_PCOD8321361
_publ_section_title
;
Structure prediction by ZEFSAII (Michael W. Deem and Ramdas Pophale) SiO2 
 PCOD8321361
Probable space group: P 31
;
_chemical_formula_sum "Si O2"
_cell_formula_units_Z 21
_cell_length_a 9.234803
_cell_length_b 9.234803
_cell_length_c 12.373552
_cell_angle_alpha 90.000000
_cell_angle_beta 90.000000
_cell_angle_gamma 120.000000
_cell_volume 913.861308
_symmetry_space_group_name_H-M "P 31"
_symmetry_group_IT_number 144
_symmetry_cell_setting 'hexagonal'
loop_
_space_group_symop_operation_xyz
x,y,z
-y,x-y,1/3+z
-x+y,-x,2/3+z
loop_
_atom_site_type_symbol
_atom_site_label
_atom_site_fract_x
_atom_site_fract_y
_atom_site_fract_z
Si Si1 0.710723 0.205975 0.554260
Si Si2 0.312522 0.709578 0.987742
Si Si3 0.310299 0.428218 0.103212
Si Si4 0.996386 0.123416 0.609613
Si Si5 0.971793 0.126454 0.120561
Si Si6 0.544085 0.204687 0.770639
Si Si7 0.597233 0.918173 0.852476
O O1 0.580597 0.196302 0.644567
O O2 0.764468 0.373809 0.486902
O O3 0.866566 0.194442 0.606814
O O4 0.614059 0.069640 0.459870
O O5 0.209245 0.703847 0.883183
O O6 0.498725 0.863771 0.967179
O O7 0.345156 0.553639 0.003772
O O8 0.220107 0.721773 0.093205
O O9 0.143903 0.262038 0.064241
O O10 0.070892 0.123971 0.727052
O O11 0.152428 0.226508 0.529337
O O12 0.903105 0.930408 0.571652
O O13 0.859224 0.211352 0.128017
O O14 0.615923 0.095801 0.826498
#
# Coordination Sequence:
#
# PCOD8321361 Si02
#       7
#     3   3   3   3   3   3   3
#     4  11  26  43  72 102 146 181 243 298 359 426
#     4  10  20  40  73 102 143 183 235 288 360 419
#     4  10  20  43  71 105 138 190 234 290 355 425
#     4  11  27  45  67 102 138 188 235 295 358 433
#     4  11  24  46  71  96 138 188 234 292 358 424
#     4  12  24  45  71 103 139 189 234 302 357 419
#     4  11  23  42  71 104 144 183 241 295 355 430
#
# _framework density 22.979417999999999
#
# number of rings (size 3 to 8) (size 9 to 14) (size 15 to 20)
#    0.000    1.143    4.286    1.714    4.000    4.571 
#    5.143    0.000    0.000    0.000    0.000    0.000 
#    0.000    0.000    0.000    0.000    0.000    0.000 
#
# Total GULP energy -260161.975412 kJ/mol
# GULP energy per Si atom -12388.665496 kJ/mol
# Density = 2.292712 g / cm^3
# Si number density = 22.979418 Si / 1000 Ang^3
#
#
#
# Elastic Constant Matrix: (Units=GPa)
#
#
# Indices 1 2 3 4 5 6 
#
# 1 118.9467 39.3317 31.9754 -8.9004 0.1533 0.0000
# 2 39.3317 118.9467 31.9754 8.9004 -0.1533 0.0000
# 3 31.9754 31.9754 42.0212 0.0000 0.0000 0.0000
# 4 -8.9004 8.9004 0.0000 36.1877 0.0000 -0.1533
# 5 0.1533 -0.1533 0.0000 0.0000 36.1877 -8.9004
# 6 0.0000 0.0000 0.0000 -0.1533 -8.9004 39.8075
#
#
#
# Elastic Compliance Matrix: (Units=1/GPa)
#
#
# Indices 1 2 3 4 5 6 
#
# 1 0.011207 -0.002084 -0.006942 0.003269 -0.000056 0.000000
# 2 -0.002084 0.011207 -0.006942 -0.003269 0.000056 0.000000
# 3 -0.006942 -0.006942 0.034362 0.000000 0.000000 0.000000
# 4 0.003269 -0.003269 0.000000 0.029242 0.000000 0.000113
# 5 -0.000056 0.000056 0.000000 0.000000 0.029242 0.006538
# 6 0.000000 0.000000 0.000000 0.000113 0.006538 0.026583
#
#
# Mechanical properties :
#
#
# Convention : Reuss Voigt Hill
#
# Bulk Modulus (GPa) = 40.25722 54.05328 47.15525
# Shear Modulus (GPa) = 27.46345 34.21206 30.83775
#
# Velocity S-wave (km/s) = 3.46082 3.86270 3.66727
# Velocity P-wave (km/s) = 5.79021 6.59299 6.20460
#
# Compressibility (1/GPa) = 0.02484027
#
# Stress axis : x y z
#
# Youngs Moduli (GPa) = 89.22862 89.22862 29.10189
#
# Poissons Ratio (x) = 0.18599 0.20202
# Poissons Ratio (y) = 0.18599 0.20202
# Poissons Ratio (z) = 0.61941 0.61941
#
# Static dielectric constant tensor:
#      x y z
#    x 4.423760 0.000000 0.000000 
#    y 0.000000 4.423760 0.000000 
#    z 0.000000 0.000000 4.127380 
# 
# 
# High freq. dielectric constant tensor:
#      x y z
#    x 1.913780 0.000000 0.000000 
#    y 0.000000 1.913780 0.000000 
#    z 0.000000 0.000000 1.893720 
# 
# From -- ./inp_files/595.got.cif
#   From: 2010.03.12/outbox.cif.g09.slc.cpg/sg144_cif.got.tgz:595.got - 2010.04.03 13:34:42.
