data_PCOD8321111
_publ_section_title
;
Structure prediction by ZEFSAII (Michael W. Deem and Ramdas Pophale) SiO2 
 PCOD8321111
Probable space group: I 41/A C D
;
_chemical_formula_sum "Si O2"
_cell_formula_units_Z 176
_cell_length_a 23.727611
_cell_length_b 23.727611
_cell_length_c 15.401135
_cell_angle_alpha 90.000000
_cell_angle_beta 90.000000
_cell_angle_gamma 90.000000
_cell_volume 8670.831670
_symmetry_space_group_name_H-M "I 41/A C D"
_symmetry_group_IT_number 142
_space_group.IT_coordinate_system_code '2'
_symmetry_cell_setting 'tetragonal'
loop_
_space_group_symop_operation_xyz
x,y,z
1/4-y,3/4+x,1/4+z
-x,1/2-y,z
1/4+y,1/4-x,3/4+z
x,-y,1/2-z
1/2-x,y,-z
3/4+y,1/4+x,1/4-z
1/4-y,1/4-x,1/4-z
-x,-y,-z
3/4+y,1/4-x,3/4-z
x,1/2+y,-z
3/4-y,3/4+x,1/4-z
-x,y,1/2+z
1/2+x,-y,z
1/4-y,3/4-x,3/4+z
3/4+y,3/4+x,3/4+z
1/2+x,1/2+y,1/2+z
3/4-y,1/4+x,3/4+z
1/2-x,-y,1/2+z
3/4+y,3/4-x,1/4+z
1/2+x,1/2-y,-z
-x,1/2+y,1/2-z
1/4+y,3/4+x,3/4-z
3/4-y,3/4-x,3/4-z
1/2-x,1/2-y,1/2-z
1/4+y,3/4-x,1/4-z
1/2+x,y,1/2-z
1/4-y,1/4+x,3/4-z
1/2-x,1/2+y,z
x,1/2-y,1/2+z
3/4-y,1/4-x,1/4+z
1/4+y,1/4+x,1/4+z
loop_
_atom_site_type_symbol
_atom_site_label
_atom_site_fract_x
_atom_site_fract_y
_atom_site_fract_z
Si Si1 0.557457 0.066524 0.751706
Si Si2 0.716189 0.435654 0.734325
Si Si3 0.984210 0.570355 0.409803
Si Si4 0.148112 0.077372 0.433609
Si Si5 0.812536 0.274218 0.848060
Si Si6 0.637658 0.112343 0.375000
O O1 0.533154 0.088247 0.843159
O O2 0.618375 0.094618 0.743571
O O3 0.515869 0.085970 0.673929
O O4 0.564503 0.000000 0.750000
O O5 0.732656 0.500000 0.750000
O O6 0.770846 0.397912 0.757046
O O7 0.699444 0.424973 0.634828
O O8 0.662252 0.419657 0.791529
O O9 0.973765 0.504404 0.402378
O O10 0.928460 0.602946 0.381891
O O11 0.001604 0.587305 0.507065
O O12 0.088135 0.082694 0.385354
#
# Coordination Sequence:
#
# PCOD8321111 Si02
#       6
#    32  32  32  32  32  16
#     4  10  23  39  60  90 126 164 209 256 311 375
#     4  12  22  37  58  98 130 160 196 252 336 399
#     4  10  21  38  62  89 121 166 213 258 305 371
#     4  12  24  39  63  90 131 165 206 260 318 384
#     4  10  21  41  60  87 123 165 213 251 306 377
#     4  12  20  38  66  91 126 162 210 262 314 381
#
# _framework density 20.297937000000001
#
# number of rings (size 3 to 8) (size 9 to 14) (size 15 to 20)
#    0.000    1.091    3.636    2.727    5.091    2.182 
#    0.000    0.000    0.000    4.909    0.000    0.000 
#    0.000    0.000    0.000    0.000    0.000    0.000 
#
# Total GULP energy -1091617.186335 kJ/mol
# GULP energy per Si atom -12404.740754 kJ/mol
# Density = 2.025174 g / cm^3
# Si number density = 20.297937 Si / 1000 Ang^3
#
#
#
# Elastic Constant Matrix: (Units=GPa)
#
#
# Indices 1 2 3 4 5 6 
#
# 1 90.2559 37.6504 38.7202 0.0000 0.0000 0.0000
# 2 37.6504 90.2560 38.7207 0.0000 0.0000 0.0000
# 3 38.7202 38.7207 114.3903 0.0000 0.0000 0.0000
# 4 0.0000 0.0000 0.0000 26.5013 0.0000 0.0000
# 5 0.0000 0.0000 0.0000 0.0000 26.5022 0.0000
# 6 0.0000 0.0000 0.0000 0.0000 0.0000 19.4113
#
#
#
# Elastic Compliance Matrix: (Units=1/GPa)
#
#
# Indices 1 2 3 4 5 6 
#
# 1 0.014421 -0.004588 -0.003329 0.000000 0.000000 0.000000
# 2 -0.004588 0.014421 -0.003329 0.000000 0.000000 0.000000
# 3 -0.003329 -0.003329 0.010995 0.000000 0.000000 0.000000
# 4 0.000000 0.000000 0.000000 0.037734 0.000000 0.000000
# 5 0.000000 0.000000 0.000000 0.000000 0.037733 0.000000
# 6 0.000000 0.000000 0.000000 0.000000 0.000000 0.051516
#
#
# Mechanical properties :
#
#
# Convention : Reuss Voigt Hill
#
# Bulk Modulus (GPa) = 57.64323 58.34276 57.99299
# Shear Modulus (GPa) = 25.62862 26.47035 26.04949
#
# Velocity S-wave (km/s) = 3.55719 3.61514 3.58628
# Velocity P-wave (km/s) = 6.73288 6.79935 6.76620
#
# Compressibility (1/GPa) = 0.01734809
#
# Stress axis : x y z
#
# Youngs Moduli (GPa) = 69.34125 69.34106 90.94697
#
# Poissons Ratio (x) = 0.31813 0.30272
# Poissons Ratio (y) = 0.31813 0.30273
# Poissons Ratio (z) = 0.23081 0.23081
#
# Static dielectric constant tensor:
#      x y z
#    x 3.559790 0.000000 0.000000 
#    y 0.000000 3.559770 0.000000 
#    z 0.000000 0.000000 3.946160 
# 
# 
# High freq. dielectric constant tensor:
#      x y z
#    x 1.776830 0.000000 0.000000 
#    y 0.000000 1.776830 0.000000 
#    z 0.000000 0.000000 1.805240 
# 
# From -- ./inp_files/5568.got.cif
#   From: 2010.03.12/outbox.cif.g09.slc.cpg/sg142_3_cif.got.tgz:5568.got - 2010.04.03 13:27:16.
