data_PCOD8321003
_publ_section_title
;
Structure prediction by ZEFSAII (Michael W. Deem and Ramdas Pophale) SiO2 
 PCOD8321003
Probable space group: I 41/A C D
;
_chemical_formula_sum "Si O2"
_cell_formula_units_Z 176
_cell_length_a 15.777367
_cell_length_b 15.777367
_cell_length_c 34.369930
_cell_angle_alpha 90.000000
_cell_angle_beta 90.000000
_cell_angle_gamma 90.000000
_cell_volume 8555.545461
_symmetry_space_group_name_H-M "I 41/A C D"
_symmetry_group_IT_number 142
_space_group.IT_coordinate_system_code '2'
_symmetry_cell_setting 'tetragonal'
loop_
_space_group_symop_operation_xyz
x,y,z
1/4-y,3/4+x,1/4+z
-x,1/2-y,z
1/4+y,1/4-x,3/4+z
x,-y,1/2-z
1/2-x,y,-z
3/4+y,1/4+x,1/4-z
1/4-y,1/4-x,1/4-z
-x,-y,-z
3/4+y,1/4-x,3/4-z
x,1/2+y,-z
3/4-y,3/4+x,1/4-z
-x,y,1/2+z
1/2+x,-y,z
1/4-y,3/4-x,3/4+z
3/4+y,3/4+x,3/4+z
1/2+x,1/2+y,1/2+z
3/4-y,1/4+x,3/4+z
1/2-x,-y,1/2+z
3/4+y,3/4-x,1/4+z
1/2+x,1/2-y,-z
-x,1/2+y,1/2-z
1/4+y,3/4+x,3/4-z
3/4-y,3/4-x,3/4-z
1/2-x,1/2-y,1/2-z
1/4+y,3/4-x,1/4-z
1/2+x,y,1/2-z
1/4-y,1/4+x,3/4-z
1/2-x,1/2+y,z
x,1/2-y,1/2+z
3/4-y,1/4-x,1/4+z
1/4+y,1/4+x,1/4+z
loop_
_atom_site_type_symbol
_atom_site_label
_atom_site_fract_x
_atom_site_fract_y
_atom_site_fract_z
Si Si1 0.882395 0.323564 0.370767
Si Si2 0.055968 0.083997 0.961673
Si Si3 0.735680 0.368690 0.220948
Si Si4 0.832589 0.329556 0.520108
Si Si5 0.178948 0.005513 0.835749
Si Si6 0.500000 0.750000 0.248416
O O1 0.884524 0.222703 0.371900
O O2 0.844031 0.354161 0.329267
O O3 0.821577 0.354806 0.404549
O O4 0.979496 0.015063 0.956486
O O5 0.017183 0.173635 0.972696
O O6 0.123989 0.054632 0.994279
O O7 0.644130 0.391931 0.236719
O O8 0.752063 0.439604 0.187294
O O9 0.750000 0.283135 0.500000
O O10 0.815988 0.382873 0.559640
O O11 0.914407 0.267899 0.527380
O O12 0.216795 0.966795 0.875000
#
# Coordination Sequence:
#
# PCOD8321003 Si02
#       6
#    32  32  32  32  32  16
#     4  11  22  36  61  92 123 154 205 263 329 373
#     4  10  19  35  62  87 121 158 196 258 315 373
#     4   9  19  38  58  86 116 161 209 245 306 372
#     4   9  20  37  61  85 121 163 209 257 314 379
#     4  11  22  40  60  87 122 164 205 261 315 384
#     4  10  20  38  62  92 122 158 210 258 316 380
#
# _framework density 20.571452000000001
#
# number of rings (size 3 to 8) (size 9 to 14) (size 15 to 20)
#    0.000    2.000    1.818    2.182    5.091    0.000 
#    3.273    3.182    0.000    0.000    0.000    0.000 
#    0.000    0.000    0.000    0.000    0.000    0.000 
#
# Total GULP energy -1090390.478579 kJ/mol
# GULP energy per Si atom -12390.800893 kJ/mol
# Density = 2.052463 g / cm^3
# Si number density = 20.571452 Si / 1000 Ang^3
#
#
#
# Elastic Constant Matrix: (Units=GPa)
#
#
# Indices 1 2 3 4 5 6 
#
# 1 68.7731 26.3202 34.5451 0.0000 0.0000 0.0000
# 2 26.3202 68.7731 34.5451 0.0000 0.0000 0.0000
# 3 34.5451 34.5451 132.1186 0.0000 0.0000 0.0000
# 4 0.0000 0.0000 0.0000 28.3032 0.0000 0.0000
# 5 0.0000 0.0000 0.0000 0.0000 28.3032 0.0000
# 6 0.0000 0.0000 0.0000 0.0000 0.0000 24.7497
#
#
#
# Elastic Compliance Matrix: (Units=1/GPa)
#
#
# Indices 1 2 3 4 5 6 
#
# 1 0.018269 -0.005287 -0.003394 0.000000 0.000000 0.000000
# 2 -0.005287 0.018269 -0.003394 0.000000 0.000000 0.000000
# 3 -0.003394 -0.003394 0.009344 0.000000 0.000000 0.000000
# 4 0.000000 0.000000 0.000000 0.035332 0.000000 0.000000
# 5 0.000000 0.000000 0.000000 0.000000 0.035332 0.000000
# 6 0.000000 0.000000 0.000000 0.000000 0.000000 0.040405
#
#
# Mechanical properties :
#
#
# Convention : Reuss Voigt Hill
#
# Bulk Modulus (GPa) = 46.01790 51.16506 48.59148
# Shear Modulus (GPa) = 26.54711 27.88818 27.21765
#
# Velocity S-wave (km/s) = 3.59623 3.68594 3.64136
# Velocity P-wave (km/s) = 6.29779 6.56055 6.43051
#
# Compressibility (1/GPa) = 0.02173067
#
# Stress axis : x y z
#
# Youngs Moduli (GPa) = 54.73792 54.73792 107.01983
#
# Poissons Ratio (x) = 0.28938 0.36328
# Poissons Ratio (y) = 0.28938 0.36328
# Poissons Ratio (z) = 0.18581 0.18581
#
# Static dielectric constant tensor:
#      x y z
#    x 3.853520 0.000000 0.000000 
#    y 0.000000 3.853520 0.000000 
#    z 0.000000 0.000000 3.788100 
# 
# 
# High freq. dielectric constant tensor:
#      x y z
#    x 1.790690 0.000000 0.000000 
#    y 0.000000 1.790690 0.000000 
#    z 0.000000 0.000000 1.803200 
# 
# From -- ./inp_files/11453.got.cif
#   From: 2010.03.12/outbox.cif.g09.slc.cpg/sg142_6_cif.got.tgz:11453.got - 2010.04.03 13:27:16.
