data_PCOD8321861
_publ_section_title
;
Structure prediction by ZEFSAII (Michael W. Deem and Ramdas Pophale) SiO2 
 PCOD8321861
Probable space group: P 3 1 2
;
_chemical_formula_sum "Si O2"
_cell_formula_units_Z 40
_cell_length_a 11.584932
_cell_length_b 11.584932
_cell_length_c 17.191828
_cell_angle_alpha 90.000000
_cell_angle_beta 90.000000
_cell_angle_gamma 120.000000
_cell_volume 1998.203278
_symmetry_space_group_name_H-M "P 3 1 2"
_symmetry_group_IT_number 149
_symmetry_cell_setting 'hexagonal'
loop_
_space_group_symop_operation_xyz
x,y,z
-y,x-y,z
-x+y,-x,z
-y,-x,-z
-x+y,y,-z
x,x-y,-z
loop_
_atom_site_type_symbol
_atom_site_label
_atom_site_fract_x
_atom_site_fract_y
_atom_site_fract_z
Si Si1 0.000000 0.000000 0.136480
Si Si2 0.600070 0.926719 0.648203
Si Si3 0.862012 0.129977 0.411622
Si Si4 0.324338 0.925919 0.168843
Si Si5 0.342648 0.406436 0.169143
Si Si6 0.297895 0.143567 0.909894
Si Si7 0.000000 0.000000 0.678043
Si Si8 0.065220 0.405595 0.647637
O O1 0.143334 0.102067 0.103665
O O2 0.000000 0.000000 0.229456
O O3 0.624790 0.944773 0.739647
O O4 0.605582 0.797516 0.619430
O O5 0.458771 0.908516 0.623713
O O6 0.713545 0.059025 0.606589
O O7 0.891958 0.108043 0.500000
O O8 0.903209 0.050613 0.352044
O O9 0.704114 0.067105 0.397348
O O10 0.446159 0.903980 0.145822
O O11 0.187780 0.797578 0.140470
O O12 0.344498 0.059101 0.128916
O O13 0.374886 0.301314 0.127598
O O14 0.339990 0.383081 0.260749
O O15 0.333589 0.166795 0.000000
#
# Coordination Sequence:
#
# PCOD8321861 Si02
#       8
#     2   6   6   6   6   6   2   6
#     4  12  22  38  64  90 118 155 202 255 298 356
#     4  10  21  39  64  91 120 158 204 251 297 357
#     4  12  24  38  60  92 126 159 196 249 310 364
#     4  10  21  39  64  91 120 158 204 251 297 357
#     4  10  21  39  64  91 120 158 204 251 297 357
#     4  12  24  38  60  92 126 159 196 249 310 364
#     4  12  22  38  64  90 118 155 202 255 298 356
#     4  10  21  39  64  91 120 158 204 251 297 357
#
# _framework density 20.017983000000001
#
# number of rings (size 3 to 8) (size 9 to 14) (size 15 to 20)
#    0.000    1.200    3.000    4.200    0.000    3.600 
#    1.800    0.000    0.000    3.600    0.000    0.000 
#    0.000    0.000    0.000    0.000    0.000    0.000 
#
# Total GULP energy -496175.257866 kJ/mol
# GULP energy per Si atom -12404.381447 kJ/mol
# Density = 1.997242 g / cm^3
# Si number density = 20.017983 Si / 1000 Ang^3
#
#
#
# Elastic Constant Matrix: (Units=GPa)
#
#
# Indices 1 2 3 4 5 6 
#
# 1 121.3639 50.8876 35.2974 0.0000 1.2465 0.0000
# 2 50.8876 121.3639 35.2974 0.0000 -1.2465 0.0000
# 3 35.2974 35.2974 45.5199 0.0000 0.0000 0.0000
# 4 0.0000 0.0000 0.0000 9.9788 0.0000 -1.2465
# 5 1.2465 -1.2465 0.0000 0.0000 9.9788 0.0000
# 6 0.0000 0.0000 0.0000 -1.2465 0.0000 35.2381
#
#
#
# Elastic Compliance Matrix: (Units=1/GPa)
#
#
# Indices 1 2 3 4 5 6 
#
# 1 0.011381 -0.002871 -0.006599 0.000000 -0.001780 0.000000
# 2 -0.002871 0.011381 -0.006599 0.000000 0.001780 0.000000
# 3 -0.006599 -0.006599 0.032202 0.000000 0.000000 0.000000
# 4 0.000000 0.000000 0.000000 0.100657 0.000000 0.003561
# 5 -0.001780 0.001780 0.000000 0.000000 0.100657 0.000000
# 6 0.000000 0.000000 0.000000 0.003561 0.000000 0.028504
#
#
# Mechanical properties :
#
#
# Convention : Reuss Voigt Hill
#
# Bulk Modulus (GPa) = 43.80821 59.02361 51.41591
# Shear Modulus (GPa) = 15.40696 22.15684 18.78190
#
# Velocity S-wave (km/s) = 2.77728 3.33054 3.06641
# Velocity P-wave (km/s) = 5.67594 6.65878 6.18691
#
# Compressibility (1/GPa) = 0.02282677
#
# Stress axis : x y z
#
# Youngs Moduli (GPa) = 87.86555 87.86555 31.05371
#
# Poissons Ratio (x) = 0.25227 0.20492
# Poissons Ratio (y) = 0.25227 0.20492
# Poissons Ratio (z) = 0.57981 0.57981
#
# Static dielectric constant tensor:
#      x y z
#    x 3.733060 0.000000 0.000000 
#    y 0.000000 3.733060 0.000000 
#    z 0.000000 0.000000 3.551660 
# 
# 
# High freq. dielectric constant tensor:
#      x y z
#    x 1.782800 0.000000 0.000000 
#    y 0.000000 1.782800 0.000000 
#    z 0.000000 0.000000 1.771980 
# 
# From -- ./inp_files/1106.got.cif
#   From: 2010.03.12/outbox.cif.g09.slc.cpg/sg149_cif.got.tgz:1106.got - 2010.04.03 13:40:41.
