data_PCOD8321204
_publ_section_title
;
Structure prediction by ZEFSAII (Michael W. Deem and Ramdas Pophale) SiO2 
 PCOD8321204
Probable space group: I 41/A C D
;
_chemical_formula_sum "Si O2"
_cell_formula_units_Z 88
_cell_length_a 13.569218
_cell_length_b 13.569218
_cell_length_c 21.649106
_cell_angle_alpha 90.000000
_cell_angle_beta 90.000000
_cell_angle_gamma 90.000000
_cell_volume 3986.113003
_symmetry_space_group_name_H-M "I 41/A C D"
_symmetry_group_IT_number 142
_space_group.IT_coordinate_system_code '2'
_symmetry_cell_setting 'tetragonal'
loop_
_space_group_symop_operation_xyz
x,y,z
1/4-y,3/4+x,1/4+z
-x,1/2-y,z
1/4+y,1/4-x,3/4+z
x,-y,1/2-z
1/2-x,y,-z
3/4+y,1/4+x,1/4-z
1/4-y,1/4-x,1/4-z
-x,-y,-z
3/4+y,1/4-x,3/4-z
x,1/2+y,-z
3/4-y,3/4+x,1/4-z
-x,y,1/2+z
1/2+x,-y,z
1/4-y,3/4-x,3/4+z
3/4+y,3/4+x,3/4+z
1/2+x,1/2+y,1/2+z
3/4-y,1/4+x,3/4+z
1/2-x,-y,1/2+z
3/4+y,3/4-x,1/4+z
1/2+x,1/2-y,-z
-x,1/2+y,1/2-z
1/4+y,3/4+x,3/4-z
3/4-y,3/4-x,3/4-z
1/2-x,1/2-y,1/2-z
1/4+y,3/4-x,1/4-z
1/2+x,y,1/2-z
1/4-y,1/4+x,3/4-z
1/2-x,1/2+y,z
x,1/2-y,1/2+z
3/4-y,1/4-x,1/4+z
1/4+y,1/4+x,1/4+z
loop_
_atom_site_type_symbol
_atom_site_label
_atom_site_fract_x
_atom_site_fract_y
_atom_site_fract_z
Si Si1 0.610574 0.344461 0.653917
Si Si2 0.278417 0.971584 0.625000
Si Si3 0.557863 0.410322 0.967159
Si Si4 0.500000 0.750000 0.125000
O O1 0.513016 0.388609 0.622285
O O2 0.704250 0.414221 0.641524
O O3 0.587870 0.338319 0.726827
O O4 0.303173 0.906972 0.684823
O O5 0.494704 0.348237 0.917382
O O6 0.500000 0.500000 0.000000
#
# Coordination Sequence:
#
# PCOD8321204 Si02
#       4
#    32  16  32   8
#     4  11  23  44  73 101 144 194 248 305 369 442
#     4  11  24  44  68 105 144 186 248 300 364 438
#     4  11  23  44  68 105 145 185 245 301 369 438
#     4  10  24  42  74 100 152 188 236 314 364 436
#
# _framework density 22.076646
#
# number of rings (size 3 to 8) (size 9 to 14) (size 15 to 20)
#    0.000    1.091    3.636    3.273    0.000    1.455 
#    0.000    3.636    0.000    0.000    0.000    0.000 
#    0.000    0.000    0.000    0.000    0.000    0.000 
#
# Total GULP energy -545502.377732 kJ/mol
# GULP energy per Si atom -12397.781312 kJ/mol
# Density = 2.202640 g / cm^3
# Si number density = 22.076646 Si / 1000 Ang^3
#
#
#
# Elastic Constant Matrix: (Units=GPa)
#
#
# Indices 1 2 3 4 5 6 
#
# 1 101.2461 59.7899 44.0139 0.0000 0.0000 0.0000
# 2 59.7899 101.2469 44.0135 0.0000 0.0000 0.0000
# 3 44.0139 44.0135 173.0592 0.0000 0.0000 0.0000
# 4 0.0000 0.0000 0.0000 33.0551 0.0000 0.0000
# 5 0.0000 0.0000 0.0000 0.0000 33.0558 0.0000
# 6 0.0000 0.0000 0.0000 0.0000 0.0000 47.5239
#
#
#
# Elastic Compliance Matrix: (Units=1/GPa)
#
#
# Indices 1 2 3 4 5 6 
#
# 1 0.015667 -0.008455 -0.001834 0.000000 0.000000 0.000000
# 2 -0.008455 0.015667 -0.001834 0.000000 0.000000 0.000000
# 3 -0.001834 -0.001834 0.006711 0.000000 0.000000 0.000000
# 4 0.000000 0.000000 0.000000 0.030252 0.000000 0.000000
# 5 0.000000 0.000000 0.000000 0.000000 0.030252 0.000000
# 6 0.000000 0.000000 0.000000 0.000000 0.000000 0.021042
#
#
# Mechanical properties :
#
#
# Convention : Reuss Voigt Hill
#
# Bulk Modulus (GPa) = 72.46881 74.57632 73.52257
# Shear Modulus (GPa) = 33.68408 37.90929 35.79668
#
# Velocity S-wave (km/s) = 3.91036 4.14837 4.03112
# Velocity P-wave (km/s) = 7.29967 7.53653 7.41904
#
# Compressibility (1/GPa) = 0.01379904
#
# Stress axis : x y z
#
# Youngs Moduli (GPa) = 63.82787 63.82853 148.99999
#
# Poissons Ratio (x) = 0.53964 0.27332
# Poissons Ratio (y) = 0.53964 0.27331
# Poissons Ratio (z) = 0.11708 0.11708
#
# Static dielectric constant tensor:
#      x y z
#    x 3.840300 0.000000 0.000000 
#    y 0.000000 3.840280 0.000000 
#    z 0.000000 0.000000 4.628810 
# 
# 
# High freq. dielectric constant tensor:
#      x y z
#    x 1.858510 0.000000 0.000000 
#    y 0.000000 1.858510 0.000000 
#    z 0.000000 0.000000 1.898200 
# 
# From -- ./inp_files/8263.got.cif
#   From: 2010.03.12/outbox.cif.g09.slc.cpg/sg142_5_cif.got.tgz:8263.got - 2010.04.03 13:27:16.
