data_PCOD8321618
_publ_section_title
;
Structure prediction by ZEFSAII (Michael W. Deem and Ramdas Pophale) SiO2 
 PCOD8321618
Probable space group: P -3
;
_chemical_formula_sum "Si O2"
_cell_formula_units_Z 30
_cell_length_a 13.170989
_cell_length_b 13.170989
_cell_length_c 13.405966
_cell_angle_alpha 90.000000
_cell_angle_beta 90.000000
_cell_angle_gamma 120.000000
_cell_volume 2014.028071
_symmetry_space_group_name_H-M "P -3"
_symmetry_group_IT_number 147
_symmetry_cell_setting 'hexagonal'
loop_
_space_group_symop_operation_xyz
x,y,z
-y,x-y,z
-x+y,-x,z
-x,-y,-z
y,-x+y,-z
x-y,x,-z
loop_
_atom_site_type_symbol
_atom_site_label
_atom_site_fract_x
_atom_site_fract_y
_atom_site_fract_z
Si Si1 0.761888 0.000001 0.000001
Si Si2 0.899343 0.561800 0.153360
Si Si3 0.407748 0.592248 0.468157
Si Si4 0.484245 0.515755 0.664679
Si Si5 0.100654 0.662453 0.846642
O O1 0.699019 0.016929 0.096184
O O2 0.888229 0.111771 0.979571
O O3 0.682088 0.983074 0.903821
O O4 0.944994 0.573014 0.267700
O O5 0.901925 0.450964 0.101815
O O6 0.766660 0.533324 0.153074
O O7 0.467350 0.733673 0.463633
O O8 0.441726 0.558268 0.571287
O O9 0.449123 0.550869 0.371995
O O10 0.371985 0.426984 0.732302
#
# Coordination Sequence:
#
# PCOD8321618 Si02
#       5
#     6   6   6   6   6
#     4  10  20  34  48  68  96 128 162 200 236 290
#     4   9  18  30  50  71  93 121 162 198 241 286
#     4   9  18  30  46  66 100 128 158 193 245 284
#     4   9  18  29  48  72  90 129 162 192 238 293
#     4   9  18  30  50  71  93 121 162 198 241 286
#
# _framework density 14.895522
#
# number of rings (size 3 to 8) (size 9 to 14) (size 15 to 20)
#    1.600    1.200    0.000    2.400    0.000    1.600 
#    0.000    0.000    0.000    0.800    0.000    0.000 
#    0.000    0.000    0.000   49.600    0.000    0.000 
#
# Total GULP energy -371676.949751 kJ/mol
# GULP energy per Si atom -12389.231658 kJ/mol
# Density = 1.486162 g / cm^3
# Si number density = 14.895522 Si / 1000 Ang^3
#
#
#
# Elastic Constant Matrix: (Units=GPa)
#
#
# Indices 1 2 3 4 5 6 
#
# 1 102.8216 69.3747 51.7817 2.2302 0.0006 0.0000
# 2 69.3747 102.8216 51.7817 -2.2302 -0.0006 0.0000
# 3 51.7817 51.7817 77.4666 0.0000 0.0000 0.0000
# 4 2.2302 -2.2302 0.0000 23.5471 0.0000 -0.0006
# 5 0.0006 -0.0006 0.0000 0.0000 23.5471 2.2302
# 6 0.0000 0.0000 0.0000 -0.0006 2.2302 16.7234
#
#
#
# Elastic Compliance Matrix: (Units=1/GPa)
#
#
# Indices 1 2 3 4 5 6 
#
# 1 0.019996 -0.010285 -0.006492 -0.002868 -0.000001 0.000000
# 2 -0.010285 0.019996 -0.006492 0.002868 0.000001 0.000000
# 3 -0.006492 -0.006492 0.021587 0.000000 0.000000 0.000000
# 4 -0.002868 0.002868 0.000000 0.043011 0.000000 0.000002
# 5 -0.000001 0.000001 0.000000 0.000000 0.043011 -0.005736
# 6 0.000000 0.000000 0.000000 0.000002 -0.005736 0.060561
#
#
# Mechanical properties :
#
#
# Convention : Reuss Voigt Hill
#
# Bulk Modulus (GPa) = 66.47162 69.88733 68.17947
# Shear Modulus (GPa) = 19.25200 20.10830 19.68015
#
# Velocity S-wave (km/s) = 3.59899 3.67816 3.63879
# Velocity P-wave (km/s) = 7.87353 8.06590 7.97029
#
# Compressibility (1/GPa) = 0.01504402
#
# Stress axis : x y z
#
# Youngs Moduli (GPa) = 50.00983 50.00983 46.32375
#
# Poissons Ratio (x) = 0.51433 0.30071
# Poissons Ratio (y) = 0.51433 0.30071
# Poissons Ratio (z) = 0.32464 0.32464
#
# Static dielectric constant tensor:
#      x y z
#    x 2.828860 0.000000 0.000000 
#    y 0.000000 2.828860 0.000000 
#    z 0.000000 0.000000 2.808230 
# 
# 
# High freq. dielectric constant tensor:
#      x y z
#    x 1.566830 0.000000 0.000000 
#    y 0.000000 1.566830 0.000000 
#    z 0.000000 0.000000 1.565420 
# 
# From -- ./inp_files/903.got.cif
#   From: 2010.03.12/outbox.cif.g09.slc.cpg/sg147_cif.got.tgz:903.got - 2010.04.03 13:37:56.
