data_PCOD8321847
_publ_section_title
;
Structure prediction by ZEFSAII (Michael W. Deem and Ramdas Pophale) SiO2 
 PCOD8321847
Probable space group: P 3 1 2
;
_chemical_formula_sum "Si O2"
_cell_formula_units_Z 30
_cell_length_a 12.659928
_cell_length_b 12.659928
_cell_length_c 12.656056
_cell_angle_alpha 90.000000
_cell_angle_beta 90.000000
_cell_angle_gamma 120.000000
_cell_volume 1756.675284
_symmetry_space_group_name_H-M "P 3 1 2"
_symmetry_group_IT_number 149
_symmetry_cell_setting 'hexagonal'
loop_
_space_group_symop_operation_xyz
x,y,z
-y,x-y,z
-x+y,-x,z
-y,-x,-z
-x+y,y,-z
x,x-y,-z
loop_
_atom_site_type_symbol
_atom_site_label
_atom_site_fract_x
_atom_site_fract_y
_atom_site_fract_z
Si Si1 0.754231 0.752506 1.000000
Si Si2 0.333407 0.424077 0.379767
Si Si3 0.333407 0.424077 0.620233
Si Si4 0.666950 0.579833 0.805393
Si Si5 0.912883 0.333050 0.194607
O O1 0.687264 0.674513 0.102839
O O2 0.741925 0.870963 0.000000
O O3 0.687264 0.674513 0.897160
O O4 0.896015 0.792029 0.000000
O O5 0.331305 0.381332 0.500000
O O6 0.434708 0.565292 0.365186
O O7 0.204712 0.409423 0.347007
O O8 0.361701 0.338645 0.305744
O O9 0.361701 0.338645 0.694257
O O10 0.543858 0.456142 0.830681
O O11 0.774627 0.549253 0.799470
#
# Coordination Sequence:
#
# PCOD8321847 Si02
#       5
#     6   6   6   6   6
#     4  10  20  34  52  72  94 122 158 200 244 288
#     4   9  17  30  49  72  97 126 161 202 247 291
#     4   9  17  30  49  72  97 126 161 202 247 291
#     4  10  20  33  50  72  99 131 164 197 235 282
#     4  10  20  33  50  72  99 131 164 197 235 282
#
# _framework density 17.077715000000001
#
# number of rings (size 3 to 8) (size 9 to 14) (size 15 to 20)
#    0.000    2.400    0.000    2.800    0.000    2.400 
#    0.000    2.000    0.000    8.800    0.000    0.000 
#    0.000    0.000    0.000    0.000    0.000    0.000 
#
# Total GULP energy -372070.420597 kJ/mol
# GULP energy per Si atom -12402.347353 kJ/mol
# Density = 1.703885 g / cm^3
# Si number density = 17.077715 Si / 1000 Ang^3
#
#
#
# Elastic Constant Matrix: (Units=GPa)
#
#
# Indices 1 2 3 4 5 6 
#
# 1 114.1683 68.9235 64.0819 0.0000 0.0000 0.0000
# 2 68.9235 114.1683 64.0819 0.0000 0.0000 0.0000
# 3 64.0819 64.0819 112.9479 0.0000 0.0000 0.0000
# 4 0.0000 0.0000 0.0000 24.6128 0.0000 0.0000
# 5 0.0000 0.0000 0.0000 0.0000 24.6128 0.0000
# 6 0.0000 0.0000 0.0000 0.0000 0.0000 22.6224
#
#
#
# Elastic Compliance Matrix: (Units=1/GPa)
#
#
# Indices 1 2 3 4 5 6 
#
# 1 0.015581 -0.006521 -0.005140 0.000000 0.000000 0.000000
# 2 -0.006521 0.015581 -0.005140 0.000000 0.000000 0.000000
# 3 -0.005140 -0.005140 0.014686 0.000000 0.000000 0.000000
# 4 0.000000 0.000000 0.000000 0.040629 0.000000 0.000000
# 5 0.000000 0.000000 0.000000 0.000000 0.040629 0.000000
# 6 0.000000 0.000000 0.000000 0.000000 0.000000 0.044204
#
#
# Mechanical properties :
#
#
# Convention : Reuss Voigt Hill
#
# Bulk Modulus (GPa) = 81.66415 81.71765 81.69090
# Shear Modulus (GPa) = 23.92398 23.98274 23.95336
#
# Velocity S-wave (km/s) = 3.74691 3.75150 3.74921
# Velocity P-wave (km/s) = 8.16346 8.16819 8.16582
#
# Compressibility (1/GPa) = 0.01224527
#
# Stress axis : x y z
#
# Youngs Moduli (GPa) = 64.18103 64.18103 68.09077
#
# Poissons Ratio (x) = 0.41853 0.35000
# Poissons Ratio (y) = 0.41853 0.35000
# Poissons Ratio (z) = 0.32990 0.32990
#
# Static dielectric constant tensor:
#      x y z
#    x 3.110670 0.000000 0.000000 
#    y 0.000000 3.110670 0.000000 
#    z 0.000000 0.000000 3.414680 
# 
# 
# High freq. dielectric constant tensor:
#      x y z
#    x 1.657330 0.000000 0.000000 
#    y 0.000000 1.657330 0.000000 
#    z 0.000000 0.000000 1.671740 
# 
# From -- ./inp_files/980.got.cif
#   From: 2010.03.12/outbox.cif.g09.slc.cpg/sg149_cif.got.tgz:980.got - 2010.04.03 13:40:41.
