data_PCOD8321016
_publ_section_title
;
Structure prediction by ZEFSAII (Michael W. Deem and Ramdas Pophale) SiO2 
 PCOD8321016
Probable space group: I 41/A C D
;
_chemical_formula_sum "Si O2"
_cell_formula_units_Z 168
_cell_length_a 22.237559
_cell_length_b 22.237559
_cell_length_c 16.813252
_cell_angle_alpha 90.000000
_cell_angle_beta 90.000000
_cell_angle_gamma 90.000000
_cell_volume 8314.304942
_symmetry_space_group_name_H-M "I 41/A C D"
_symmetry_group_IT_number 142
_space_group.IT_coordinate_system_code '2'
_symmetry_cell_setting 'tetragonal'
loop_
_space_group_symop_operation_xyz
x,y,z
1/4-y,3/4+x,1/4+z
-x,1/2-y,z
1/4+y,1/4-x,3/4+z
x,-y,1/2-z
1/2-x,y,-z
3/4+y,1/4+x,1/4-z
1/4-y,1/4-x,1/4-z
-x,-y,-z
3/4+y,1/4-x,3/4-z
x,1/2+y,-z
3/4-y,3/4+x,1/4-z
-x,y,1/2+z
1/2+x,-y,z
1/4-y,3/4-x,3/4+z
3/4+y,3/4+x,3/4+z
1/2+x,1/2+y,1/2+z
3/4-y,1/4+x,3/4+z
1/2-x,-y,1/2+z
3/4+y,3/4-x,1/4+z
1/2+x,1/2-y,-z
-x,1/2+y,1/2-z
1/4+y,3/4+x,3/4-z
3/4-y,3/4-x,3/4-z
1/2-x,1/2-y,1/2-z
1/4+y,3/4-x,1/4-z
1/2+x,y,1/2-z
1/4-y,1/4+x,3/4-z
1/2-x,1/2+y,z
x,1/2-y,1/2+z
3/4-y,1/4-x,1/4+z
1/4+y,1/4+x,1/4+z
loop_
_atom_site_type_symbol
_atom_site_label
_atom_site_fract_x
_atom_site_fract_y
_atom_site_fract_z
Si Si1 0.322259 0.664938 0.333076
Si Si2 0.285764 0.280920 0.923986
Si Si3 0.256219 0.942910 0.206126
Si Si4 0.371481 0.115876 0.242239
Si Si5 0.000000 0.750000 0.375000
Si Si6 0.127029 0.749745 0.800017
O O1 0.263513 0.701581 0.358920
O O2 0.300407 0.600761 0.301907
O O3 0.367371 0.654149 0.406767
O O4 0.358584 0.700808 0.266525
O O5 0.332000 0.235825 0.878929
O O6 0.250000 0.252501 0.000000
O O7 0.325113 0.338811 0.948338
O O8 0.289363 0.960638 0.125000
O O9 0.306510 0.914772 0.264537
O O10 0.228152 0.000000 0.250000
O O11 0.359838 0.182934 0.271631
O O12 0.996949 0.693019 0.432005
#
# Coordination Sequence:
#
# PCOD8321016 Si02
#       6
#    32  32  32  32   8  32
#     4  11  24  38  68 106 130 170 230 289 344 406
#     4  10  19  38  69  99 121 163 224 285 339 405
#     4  12  20  38  68  99 137 175 217 281 357 422
#     4  11  20  39  68  96 130 174 228 279 336 421
#     4  12  28  48  66  84 140 212 226 284 340 424
#     4  12  24  45  66  94 139 183 242 280 341 414
#
# _framework density 20.206137999999999
#
# number of rings (size 3 to 8) (size 9 to 14) (size 15 to 20)
#    0.000    0.762    7.619    1.143    0.000    1.524 
#    1.714    0.000    0.000    0.000    0.000    0.000 
#    0.000    0.000    0.000    0.000    0.000    0.000 
#
# Total GULP energy -1041477.988039 kJ/mol
# GULP energy per Si atom -12398.547477 kJ/mol
# Density = 2.016015 g / cm^3
# Si number density = 20.206138 Si / 1000 Ang^3
#
#
#
# Elastic Constant Matrix: (Units=GPa)
#
#
# Indices 1 2 3 4 5 6 
#
# 1 99.9711 36.3791 59.7061 0.0000 0.0000 0.0000
# 2 36.3791 99.9714 59.7073 0.0000 0.0000 0.0000
# 3 59.7061 59.7073 119.3139 0.0000 0.0000 0.0000
# 4 0.0000 0.0000 0.0000 29.5937 0.0000 0.0000
# 5 0.0000 0.0000 0.0000 0.0000 29.5941 0.0000
# 6 0.0000 0.0000 0.0000 0.0000 0.0000 30.9277
#
#
#
# Elastic Compliance Matrix: (Units=1/GPa)
#
#
# Indices 1 2 3 4 5 6 
#
# 1 0.014390 -0.001335 -0.006533 0.000000 0.000000 0.000000
# 2 -0.001335 0.014391 -0.006533 0.000000 0.000000 0.000000
# 3 -0.006533 -0.006533 0.014920 0.000000 0.000000 0.000000
# 4 0.000000 0.000000 0.000000 0.033791 0.000000 0.000000
# 5 0.000000 0.000000 0.000000 0.000000 0.033791 0.000000
# 6 0.000000 0.000000 0.000000 0.000000 0.000000 0.032333
#
#
# Mechanical properties :
#
#
# Convention : Reuss Voigt Hill
#
# Bulk Modulus (GPa) = 67.12172 70.09348 68.60760
# Shear Modulus (GPa) = 28.18727 28.92070 28.55399
#
# Velocity S-wave (km/s) = 3.73900 3.78733 3.76325
# Velocity P-wave (km/s) = 7.20630 7.34096 7.27394
#
# Compressibility (1/GPa) = 0.01489831
#
# Stress axis : x y z
#
# Youngs Moduli (GPa) = 69.49059 69.48966 67.02385
#
# Poissons Ratio (x) = 0.09275 0.43788
# Poissons Ratio (y) = 0.09275 0.43790
# Poissons Ratio (z) = 0.45400 0.45401
#
# Static dielectric constant tensor:
#      x y z
#    x 3.644920 0.000000 0.000000 
#    y 0.000000 3.644920 0.000000 
#    z 0.000000 0.000000 3.758330 
# 
# 
# High freq. dielectric constant tensor:
#      x y z
#    x 1.776730 0.000000 0.000000 
#    y 0.000000 1.776730 0.000000 
#    z 0.000000 0.000000 1.793220 
# 
# From -- ./inp_files/7579.got.cif
#   From: 2010.03.12/outbox.cif.g09.slc.cpg/sg142_4_cif.got.tgz:7579.got - 2010.04.03 13:27:16.
