data_PCOD8321317
_publ_section_title
;
Structure prediction by ZEFSAII (Michael W. Deem and Ramdas Pophale) SiO2 
 PCOD8321317
Probable space group: I 41/A C D
;
_chemical_formula_sum "Si O2"
_cell_formula_units_Z 120
_cell_length_a 18.799918
_cell_length_b 18.799918
_cell_length_c 15.299817
_cell_angle_alpha 90.000000
_cell_angle_beta 90.000000
_cell_angle_gamma 90.000000
_cell_volume 5407.520148
_symmetry_space_group_name_H-M "I 41/A C D"
_symmetry_group_IT_number 142
_space_group.IT_coordinate_system_code '2'
_symmetry_cell_setting 'tetragonal'
loop_
_space_group_symop_operation_xyz
x,y,z
1/4-y,3/4+x,1/4+z
-x,1/2-y,z
1/4+y,1/4-x,3/4+z
x,-y,1/2-z
1/2-x,y,-z
3/4+y,1/4+x,1/4-z
1/4-y,1/4-x,1/4-z
-x,-y,-z
3/4+y,1/4-x,3/4-z
x,1/2+y,-z
3/4-y,3/4+x,1/4-z
-x,y,1/2+z
1/2+x,-y,z
1/4-y,3/4-x,3/4+z
3/4+y,3/4+x,3/4+z
1/2+x,1/2+y,1/2+z
3/4-y,1/4+x,3/4+z
1/2-x,-y,1/2+z
3/4+y,3/4-x,1/4+z
1/2+x,1/2-y,-z
-x,1/2+y,1/2-z
1/4+y,3/4+x,3/4-z
3/4-y,3/4-x,3/4-z
1/2-x,1/2-y,1/2-z
1/4+y,3/4-x,1/4-z
1/2+x,y,1/2-z
1/4-y,1/4+x,3/4-z
1/2-x,1/2+y,z
x,1/2-y,1/2+z
3/4-y,1/4-x,1/4+z
1/4+y,1/4+x,1/4+z
loop_
_atom_site_type_symbol
_atom_site_label
_atom_site_fract_x
_atom_site_fract_y
_atom_site_fract_z
Si Si1 0.628664 0.121336 0.375000
Si Si2 0.826458 0.386778 0.530594
Si Si3 0.639712 0.736660 0.478937
Si Si4 0.000000 0.250000 0.375000
Si Si5 0.937082 0.021598 0.932836
O O1 0.616668 0.174603 0.455438
O O2 0.706457 0.133594 0.334950
O O3 0.750000 0.413397 0.500000
O O4 0.831385 0.418616 0.625000
O O5 0.830221 0.301525 0.535911
O O6 0.890068 0.414998 0.470623
O O7 0.569254 0.763921 0.432067
O O8 0.701363 0.717005 0.409813
O O9 0.000000 0.000000 0.000000
#
# Coordination Sequence:
#
# PCOD8321317 Si02
#       5
#    16  32  32   8  32
#     4  12  28  43  82 104 154 198 250 313 394 460
#     4  12  28  47  77 108 153 195 249 311 381 449
#     4  12  26  49  72 114 148 197 258 312 382 456
#     4  12  24  42  80 104 144 202 252 316 370 456
#     4  12  27  51  75 111 155 199 253 322 381 469
#
# _framework density 22.191319
#
# number of rings (size 3 to 8) (size 9 to 14) (size 15 to 20)
#    0.000    0.000    2.667    7.200    9.333    0.000 
#    0.000    0.000    0.000    0.000    0.000    0.000 
#    0.000    0.000    0.000    0.000    0.000    0.000 
#
# Total GULP energy -744275.313569 kJ/mol
# GULP energy per Si atom -12404.588559 kJ/mol
# Density = 2.214081 g / cm^3
# Si number density = 22.191319 Si / 1000 Ang^3
#
#
#
# Elastic Constant Matrix: (Units=GPa)
#
#
# Indices 1 2 3 4 5 6 
#
# 1 133.1698 50.7409 54.0568 0.0000 0.0000 0.0000
# 2 50.7409 133.1681 54.0556 0.0000 0.0000 0.0000
# 3 54.0568 54.0556 147.3143 0.0000 0.0000 0.0000
# 4 0.0000 0.0000 0.0000 36.3065 0.0000 0.0000
# 5 0.0000 0.0000 0.0000 0.0000 36.3027 0.0000
# 6 0.0000 0.0000 0.0000 0.0000 0.0000 40.2151
#
#
#
# Elastic Compliance Matrix: (Units=1/GPa)
#
#
# Indices 1 2 3 4 5 6 
#
# 1 0.009532 -0.002599 -0.002544 0.000000 0.000000 0.000000
# 2 -0.002599 0.009532 -0.002544 0.000000 0.000000 0.000000
# 3 -0.002544 -0.002544 0.008655 0.000000 0.000000 0.000000
# 4 0.000000 0.000000 0.000000 0.027543 0.000000 0.000000
# 5 0.000000 0.000000 0.000000 0.000000 0.027546 0.000000
# 6 0.000000 0.000000 0.000000 0.000000 0.000000 0.024866
#
#
# Mechanical properties :
#
#
# Convention : Reuss Voigt Hill
#
# Bulk Modulus (GPa) = 81.00379 81.26207 81.13293
# Shear Modulus (GPa) = 39.31878 39.55143 39.43511
#
# Velocity S-wave (km/s) = 4.21385 4.22630 4.22008
# Velocity P-wave (km/s) = 7.76255 7.77906 7.77081
#
# Compressibility (1/GPa) = 0.01234510
#
# Stress axis : x y z
#
# Youngs Moduli (GPa) = 104.90597 104.90528 115.53704
#
# Poissons Ratio (x) = 0.27269 0.29393
# Poissons Ratio (y) = 0.27269 0.29392
# Poissons Ratio (z) = 0.26689 0.26688
#
# Static dielectric constant tensor:
#      x y z
#    x 4.021560 0.000000 0.000000 
#    y 0.000000 4.021580 0.000000 
#    z 0.000000 0.000000 4.052350 
# 
# 
# High freq. dielectric constant tensor:
#      x y z
#    x 1.889700 0.000000 0.000000 
#    y 0.000000 1.889700 0.000000 
#    z 0.000000 0.000000 1.886990 
# 
# From -- ./inp_files/5050.got.cif
#   From: 2010.03.12/outbox.cif.g09.slc.cpg/sg142_3_cif.got.tgz:5050.got - 2010.04.03 13:27:16.
