data_PCOD8321425
_publ_section_title
;
Structure prediction by ZEFSAII (Michael W. Deem and Ramdas Pophale) SiO2 
 PCOD8321425
Probable space group: P 31
;
_chemical_formula_sum "Si O2"
_cell_formula_units_Z 18
_cell_length_a 9.841980
_cell_length_b 9.841980
_cell_length_c 9.950623
_cell_angle_alpha 90.000000
_cell_angle_beta 90.000000
_cell_angle_gamma 120.000000
_cell_volume 834.729689
_symmetry_space_group_name_H-M "P 31"
_symmetry_group_IT_number 144
_symmetry_cell_setting 'hexagonal'
loop_
_space_group_symop_operation_xyz
x,y,z
-y,x-y,1/3+z
-x+y,-x,2/3+z
loop_
_atom_site_type_symbol
_atom_site_label
_atom_site_fract_x
_atom_site_fract_y
_atom_site_fract_z
Si Si1 0.872656 0.421886 0.323630
Si Si2 0.741549 0.766766 0.113131
Si Si3 0.053544 0.250381 0.298715
Si Si4 0.556177 0.435014 0.967233
Si Si5 0.034154 0.764586 0.206372
Si Si6 0.197641 0.252067 0.022623
O O1 0.682741 0.310357 0.313126
O O2 0.923676 0.450047 0.478670
O O3 0.956622 0.335145 0.257867
O O4 0.934605 0.579886 0.237746
O O5 0.675423 0.796454 0.253380
O O6 0.919127 0.817227 0.142723
O O7 0.652079 0.590643 0.056415
O O8 0.741100 0.890484 0.010571
O O9 0.172686 0.341066 0.424154
O O10 0.158502 0.265831 0.173925
O O11 0.929580 0.067811 0.325017
O O12 0.383403 0.351715 0.024393
#
# Coordination Sequence:
#
# PCOD8321425 Si02
#       6
#     3   3   3   3   3   3
#     4  11  25  47  68 102 150 189 236 294 360 436
#     4  12  24  44  74 101 139 189 237 303 358 418
#     4  11  24  45  71 104 140 183 239 294 352 428
#     4  11  25  47  68 102 150 189 236 294 360 436
#     4  12  24  44  74 101 139 189 237 303 358 418
#     4  11  24  45  71 104 140 183 239 294 352 428
#
# _framework density 21.563869
#
# number of rings (size 3 to 8) (size 9 to 14) (size 15 to 20)
#    0.000    0.667    3.333    5.000    4.667    1.333 
#    6.000    0.000    0.000    0.000    0.000    0.000 
#    0.000    0.000    0.000    0.000    0.000    0.000 
#
# Total GULP energy -223129.302656 kJ/mol
# GULP energy per Si atom -12396.072370 kJ/mol
# Density = 2.151479 g / cm^3
# Si number density = 21.563869 Si / 1000 Ang^3
#
#
#
# Elastic Constant Matrix: (Units=GPa)
#
#
# Indices 1 2 3 4 5 6 
#
# 1 102.4898 51.2761 28.3870 -4.8407 -0.3678 0.0000
# 2 51.2761 102.4898 28.3870 4.8407 0.3678 0.0000
# 3 28.3870 28.3870 111.2221 0.0000 0.0000 0.0000
# 4 -4.8407 4.8407 0.0000 30.1971 0.0000 0.3678
# 5 -0.3678 0.3678 0.0000 0.0000 30.1971 -4.8407
# 6 0.0000 0.0000 0.0000 0.3678 -4.8407 25.6069
#
#
#
# Elastic Compliance Matrix: (Units=1/GPa)
#
#
# Indices 1 2 3 4 5 6 
#
# 1 0.013660 -0.006480 -0.001833 0.003228 0.000245 0.000000
# 2 -0.006480 0.013660 -0.001833 -0.003228 -0.000245 0.000000
# 3 -0.001833 -0.001833 0.009926 0.000000 0.000000 0.000000
# 4 0.003228 -0.003228 0.000000 0.034157 0.000000 -0.000491
# 5 0.000245 -0.000245 0.000000 0.000000 0.034157 0.006457
# 6 0.000000 0.000000 0.000000 -0.000491 0.006457 0.040280
#
#
# Mechanical properties :
#
#
# Convention : Reuss Voigt Hill
#
# Bulk Modulus (GPa) = 58.97508 59.14464 59.05986
# Shear Modulus (GPa) = 29.10669 31.07697 30.09183
#
# Velocity S-wave (km/s) = 3.67793 3.80038 3.73966
# Velocity P-wave (km/s) = 6.74127 6.83699 6.78929
#
# Compressibility (1/GPa) = 0.01695631
#
# Stress axis : x y z
#
# Youngs Moduli (GPa) = 73.20682 73.20682 100.74093
#
# Poissons Ratio (x) = 0.47437 0.18461
# Poissons Ratio (y) = 0.47437 0.18461
# Poissons Ratio (z) = 0.13415 0.13415
#
# Static dielectric constant tensor:
#      x y z
#    x 3.946500 0.000000 0.000000 
#    y 0.000000 3.946500 0.000000 
#    z 0.000000 0.000000 4.035330 
# 
# 
# High freq. dielectric constant tensor:
#      x y z
#    x 1.844140 0.000000 0.000000 
#    y 0.000000 1.844140 0.000000 
#    z 0.000000 0.000000 1.864880 
# 
# From -- ./inp_files/268.got.cif
#   From: 2010.03.12/outbox.cif.g09.slc.cpg/sg144_cif.got.tgz:268.got - 2010.04.03 13:34:42.
