data_PCOD8321498
_publ_section_title
;
Structure prediction by ZEFSAII (Michael W. Deem and Ramdas Pophale) SiO2 
 PCOD8321498
Probable space group: P 32
;
_chemical_formula_sum "Si O2"
_cell_formula_units_Z 15
_cell_length_a 10.644402
_cell_length_b 10.644402
_cell_length_c 6.303488
_cell_angle_alpha 90.000000
_cell_angle_beta 90.000000
_cell_angle_gamma 120.000000
_cell_volume 618.520499
_symmetry_space_group_name_H-M "P 32"
_symmetry_group_IT_number 145
_symmetry_cell_setting 'hexagonal'
loop_
_space_group_symop_operation_xyz
x,y,z
-y,x-y,2/3+z
-x+y,-x,1/3+z
loop_
_atom_site_type_symbol
_atom_site_label
_atom_site_fract_x
_atom_site_fract_y
_atom_site_fract_z
Si Si1 0.110862 0.244197 0.651680
Si Si2 0.333048 0.550772 0.784176
Si Si3 0.999993 0.383467 0.327752
Si Si4 0.866631 0.755774 0.670500
Si Si5 0.782274 0.449213 0.538088
O O1 0.253282 0.376897 0.757535
O O2 0.026609 0.312307 0.532394
O O3 0.154737 0.154682 0.494490
O O4 0.999988 0.133631 0.827754
O O5 0.396292 0.624801 0.555805
O O6 0.460962 0.599245 0.954058
O O7 0.861669 0.400671 0.368226
O O8 0.973397 0.285793 0.122988
O O9 0.876412 0.623096 0.564674
O O10 0.624793 0.396290 0.433142
#
# Coordination Sequence:
#
# PCOD8321498 Si02
#       5
#     3   3   3   3   3
#     4  12  30  51  79 114 161 215 267 327 408 487
#     4  12  26  47  81 117 154 202 268 340 402 469
#     4  12  28  48  74 116 156 204 266 336 396 476
#     4  12  30  51  79 114 161 215 267 327 408 487
#     4  12  26  47  81 117 154 202 268 340 402 469
#
# _framework density 24.251418000000001
#
# number of rings (size 3 to 8) (size 9 to 14) (size 15 to 20)
#    0.000    0.000    8.000    0.000   11.200    3.200 
#    0.000    0.000    0.000    0.000    0.000    0.000 
#    0.000    0.000    0.000    0.000    0.000    0.000 
#
# Total GULP energy -186105.099780 kJ/mol
# GULP energy per Si atom -12407.006652 kJ/mol
# Density = 2.419622 g / cm^3
# Si number density = 24.251418 Si / 1000 Ang^3
#
#
#
# Elastic Constant Matrix: (Units=GPa)
#
#
# Indices 1 2 3 4 5 6 
#
# 1 123.4978 65.9228 61.6262 0.9210 -0.0018 0.0000
# 2 65.9228 123.4978 61.6262 -0.9210 0.0018 0.0000
# 3 61.6262 61.6262 130.8155 0.0000 0.0000 0.0000
# 4 0.9210 -0.9210 0.0000 56.3542 0.0000 0.0018
# 5 -0.0018 0.0018 0.0000 0.0000 56.3542 0.9210
# 6 0.0000 0.0000 0.0000 0.0018 0.9210 28.7875
#
#
#
# Elastic Compliance Matrix: (Units=1/GPa)
#
#
# Indices 1 2 3 4 5 6 
#
# 1 0.012495 -0.004882 -0.003586 -0.000284 0.000001 0.000000
# 2 -0.004882 0.012495 -0.003586 0.000284 -0.000001 0.000000
# 3 -0.003586 -0.003586 0.011023 0.000000 0.000000 0.000000
# 4 -0.000284 0.000284 0.000000 0.017754 0.000000 -0.000001
# 5 0.000001 -0.000001 0.000000 0.000000 0.017754 -0.000568
# 6 0.000000 0.000000 0.000000 -0.000001 -0.000568 0.034755
#
#
# Mechanical properties :
#
#
# Convention : Reuss Voigt Hill
#
# Bulk Modulus (GPa) = 84.00801 84.01793 84.01297
# Shear Modulus (GPa) = 37.21460 40.87493 39.04476
#
# Velocity S-wave (km/s) = 3.92156 4.10990 4.01683
# Velocity P-wave (km/s) = 7.43105 7.56581 7.49873
#
# Compressibility (1/GPa) = 0.01190363
#
# Stress axis : x y z
#
# Youngs Moduli (GPa) = 80.03024 80.03024 90.71655
#
# Poissons Ratio (x) = 0.39074 0.32534
# Poissons Ratio (y) = 0.39074 0.32534
# Poissons Ratio (z) = 0.28702 0.28702
#
# Static dielectric constant tensor:
#      x y z
#    x 4.362070 0.000000 0.000000 
#    y 0.000000 4.362070 0.000000 
#    z 0.000000 0.000000 4.308000 
# 
# 
# High freq. dielectric constant tensor:
#      x y z
#    x 1.967090 0.000000 0.000000 
#    y 0.000000 1.967090 0.000000 
#    z 0.000000 0.000000 1.971370 
# 
# From -- ./inp_files/75.got.cif
#   From: 2010.03.12/outbox.cif.g09.slc.cpg/sg145_cif.got.tgz:75.got - 2010.04.03 13:35:35.
