data_PCOD8321839
_publ_section_title
;
Structure prediction by ZEFSAII (Michael W. Deem and Ramdas Pophale) SiO2 
 PCOD8321839
Probable space group: P 3 1 2
;
_chemical_formula_sum "Si O2"
_cell_formula_units_Z 48
_cell_length_a 12.717539
_cell_length_b 12.717539
_cell_length_c 20.294038
_cell_angle_alpha 90.000000
_cell_angle_beta 90.000000
_cell_angle_gamma 120.000000
_cell_volume 2842.531311
_symmetry_space_group_name_H-M "P 3 1 2"
_symmetry_group_IT_number 149
_symmetry_cell_setting 'hexagonal'
loop_
_space_group_symop_operation_xyz
x,y,z
-y,x-y,z
-x+y,-x,z
-y,-x,-z
-x+y,y,-z
x,x-y,-z
loop_
_atom_site_type_symbol
_atom_site_label
_atom_site_fract_x
_atom_site_fract_y
_atom_site_fract_z
Si Si1 0.758801 0.758614 0.885623
Si Si2 0.242313 0.242079 0.264053
Si Si3 0.910809 0.332531 0.000000
Si Si4 0.245793 0.998187 0.500000
Si Si5 0.999814 0.758614 0.885623
Si Si6 0.331849 0.420176 0.621035
Si Si7 0.579824 0.911672 0.378965
Si Si8 0.242313 0.000234 0.264053
O O1 0.717849 0.714505 0.810860
O O2 0.899116 0.798232 0.895763
O O3 0.744180 0.872090 0.904173
O O4 0.673556 0.651168 0.934356
O O5 0.326650 0.356864 0.309486
O O6 0.256255 0.128127 0.285360
O O7 0.101190 0.202380 0.272487
O O8 0.977612 0.326444 0.065644
O O9 0.771413 0.228588 0.000000
O O10 0.918997 0.459499 0.000000
O O11 0.104718 0.895282 0.500000
O O12 0.313472 0.987430 0.436132
O O13 0.313472 0.987430 0.563868
O O14 0.255562 0.127781 0.500000
O O15 0.996656 0.714505 0.810860
O O16 0.229536 0.459073 0.616896
O O17 0.461586 0.538414 0.612926
O O18 0.326650 0.356864 0.690514
#
# Coordination Sequence:
#
# PCOD8321839 Si02
#       8
#     6   6   6   6   6   6   6   6
#     4   9  17  30  50  75  98 120 150 193 245 292
#     4   9  17  30  50  75 100 124 152 192 242 290
#     4  10  20  32  46  64  90 126 164 198 230 272
#     4  10  20  34  54  78 100 122 152 196 248 294
#     4   9  17  30  50  75  98 120 150 193 245 292
#     4  10  20  33  50  71  97 130 165 198 229 269
#     4  10  20  33  50  71  97 130 165 198 229 269
#     4   9  17  30  50  75 100 124 152 192 242 290
#
# _framework density 16.886357
#
# number of rings (size 3 to 8) (size 9 to 14) (size 15 to 20)
#    0.000    2.500    0.000    2.500    0.000    3.000 
#    0.000    5.000    0.000    9.000    0.000    0.000 
#    0.000    0.000    0.000    0.000    0.000    0.000 
#
# Total GULP energy -595287.667161 kJ/mol
# GULP energy per Si atom -12401.826399 kJ/mol
# Density = 1.684792 g / cm^3
# Si number density = 16.886357 Si / 1000 Ang^3
#
#
#
# Elastic Constant Matrix: (Units=GPa)
#
#
# Indices 1 2 3 4 5 6 
#
# 1 118.8165 74.6532 67.3585 0.0000 0.0000 0.0000
# 2 74.6532 118.8165 67.3585 0.0000 0.0000 0.0000
# 3 67.3585 67.3585 123.4405 0.0000 0.0000 0.0000
# 4 0.0000 0.0000 0.0000 18.9718 0.0000 0.0000
# 5 0.0000 0.0000 0.0000 0.0000 18.9718 0.0000
# 6 0.0000 0.0000 0.0000 0.0000 0.0000 22.0816
#
#
#
# Elastic Compliance Matrix: (Units=1/GPa)
#
#
# Indices 1 2 3 4 5 6 
#
# 1 0.015490 -0.007153 -0.004549 0.000000 0.000000 0.000000
# 2 -0.007153 0.015490 -0.004549 0.000000 0.000000 0.000000
# 3 -0.004549 -0.004549 0.013066 0.000000 0.000000 0.000000
# 4 0.000000 0.000000 0.000000 0.052710 0.000000 0.000000
# 5 0.000000 0.000000 0.000000 0.000000 0.052710 0.000000
# 6 0.000000 0.000000 0.000000 0.000000 0.000000 0.045286
#
#
# Mechanical properties :
#
#
# Convention : Reuss Voigt Hill
#
# Bulk Modulus (GPa) = 86.63672 86.64599 86.64136
# Shear Modulus (GPa) = 21.63555 22.11861 21.87708
#
# Velocity S-wave (km/s) = 3.58333 3.62311 3.60328
# Velocity P-wave (km/s) = 8.27874 8.30212 8.29044
#
# Compressibility (1/GPa) = 0.01154245
#
# Stress axis : x y z
#
# Youngs Moduli (GPa) = 64.55884 64.55884 76.53736
#
# Poissons Ratio (x) = 0.46182 0.34816
# Poissons Ratio (y) = 0.46182 0.34816
# Poissons Ratio (z) = 0.29367 0.29367
#
# Static dielectric constant tensor:
#      x y z
#    x 2.958500 0.000000 0.000000 
#    y 0.000000 2.958500 0.000000 
#    z 0.000000 0.000000 3.565260 
# 
# 
# High freq. dielectric constant tensor:
#      x y z
#    x 1.636970 0.000000 0.000000 
#    y 0.000000 1.636970 0.000000 
#    z 0.000000 0.000000 1.671380 
# 
# From -- ./inp_files/1151.got.cif
#   From: 2010.03.12/outbox.cif.g09.slc.cpg/sg149_cif.got.tgz:1151.got - 2010.04.03 13:40:41.
