data_PCOD8321018
_publ_section_title
;
Structure prediction by ZEFSAII (Michael W. Deem and Ramdas Pophale) SiO2 
 PCOD8321018
Probable space group: I 41/A C D
;
_chemical_formula_sum "Si O2"
_cell_formula_units_Z 160
_cell_length_a 18.048381
_cell_length_b 18.048381
_cell_length_c 24.849957
_cell_angle_alpha 90.000000
_cell_angle_beta 90.000000
_cell_angle_gamma 90.000000
_cell_volume 8094.725803
_symmetry_space_group_name_H-M "I 41/A C D"
_symmetry_group_IT_number 142
_space_group.IT_coordinate_system_code '2'
_symmetry_cell_setting 'tetragonal'
loop_
_space_group_symop_operation_xyz
x,y,z
1/4-y,3/4+x,1/4+z
-x,1/2-y,z
1/4+y,1/4-x,3/4+z
x,-y,1/2-z
1/2-x,y,-z
3/4+y,1/4+x,1/4-z
1/4-y,1/4-x,1/4-z
-x,-y,-z
3/4+y,1/4-x,3/4-z
x,1/2+y,-z
3/4-y,3/4+x,1/4-z
-x,y,1/2+z
1/2+x,-y,z
1/4-y,3/4-x,3/4+z
3/4+y,3/4+x,3/4+z
1/2+x,1/2+y,1/2+z
3/4-y,1/4+x,3/4+z
1/2-x,-y,1/2+z
3/4+y,3/4-x,1/4+z
1/2+x,1/2-y,-z
-x,1/2+y,1/2-z
1/4+y,3/4+x,3/4-z
3/4-y,3/4-x,3/4-z
1/2-x,1/2-y,1/2-z
1/4+y,3/4-x,1/4-z
1/2+x,y,1/2-z
1/4-y,1/4+x,3/4-z
1/2-x,1/2+y,z
x,1/2-y,1/2+z
3/4-y,1/4-x,1/4+z
1/4+y,1/4+x,1/4+z
loop_
_atom_site_type_symbol
_atom_site_label
_atom_site_fract_x
_atom_site_fract_y
_atom_site_fract_z
Si Si1 0.832241 0.219354 0.987620
Si Si2 0.704224 0.856646 0.914680
Si Si3 0.829060 0.825680 0.204681
Si Si4 0.628094 0.163394 0.431999
Si Si5 0.810142 0.162985 0.772845
O O1 0.866798 0.254726 0.042171
O O2 0.750000 0.186922 0.000000
O O3 0.826568 0.280852 0.940688
O O4 0.889678 0.158106 0.968425
O O5 0.698586 0.860795 0.850719
O O6 0.789320 0.870025 0.929195
O O7 0.657345 0.924161 0.939521
O O8 0.830380 0.737439 0.194529
O O9 0.775232 0.842632 0.254920
O O10 0.585629 0.164372 0.375000
O O11 0.581360 0.109543 0.469508
#
# Coordination Sequence:
#
# PCOD8321018 Si02
#       5
#    32  32  32  32  32
#     4   9  21  37  59  88 120 151 201 249 293 357
#     4  10  20  38  63  85 115 161 202 241 297 360
#     4  11  21  38  59  86 124 156 190 261 303 342
#     4  10  19  39  61  81 116 164 196 238 302 365
#     4  10  22  36  60  88 120 154 205 242 300 364
#
# _framework density 19.765957
#
# number of rings (size 3 to 8) (size 9 to 14) (size 15 to 20)
#    0.000    2.000    2.000    3.000    0.000    4.800 
#    0.000    6.000    0.000    0.000    0.000    0.000 
#    0.000    0.000    0.000    0.000    0.000    0.000 
#
# Total GULP energy -992002.539089 kJ/mol
# GULP energy per Si atom -12400.031739 kJ/mol
# Density = 1.972097 g / cm^3
# Si number density = 19.765957 Si / 1000 Ang^3
#
#
#
# Elastic Constant Matrix: (Units=GPa)
#
#
# Indices 1 2 3 4 5 6 
#
# 1 56.0887 27.7018 14.5869 0.0000 0.0000 0.0000
# 2 27.7018 56.0885 14.5870 0.0000 0.0000 0.0000
# 3 14.5869 14.5870 79.8354 0.0000 0.0000 0.0000
# 4 0.0000 0.0000 0.0000 25.2466 0.0000 0.0000
# 5 0.0000 0.0000 0.0000 0.0000 25.2470 0.0000
# 6 0.0000 0.0000 0.0000 0.0000 0.0000 33.1643
#
#
#
# Elastic Compliance Matrix: (Units=1/GPa)
#
#
# Indices 1 2 3 4 5 6 
#
# 1 0.023986 -0.011241 -0.002329 0.000000 0.000000 0.000000
# 2 -0.011241 0.023987 -0.002329 0.000000 0.000000 0.000000
# 3 -0.002329 -0.002329 0.013377 0.000000 0.000000 0.000000
# 4 0.000000 0.000000 0.000000 0.039609 0.000000 0.000000
# 5 0.000000 0.000000 0.000000 0.000000 0.039609 0.000000
# 6 0.000000 0.000000 0.000000 0.000000 0.000000 0.030153
#
#
# Mechanical properties :
#
#
# Convention : Reuss Voigt Hill
#
# Bulk Modulus (GPa) = 33.83810 33.97380 33.90595
# Shear Modulus (GPa) = 23.54397 25.74073 24.64235
#
# Velocity S-wave (km/s) = 3.45503 3.61262 3.53470
# Velocity P-wave (km/s) = 5.75090 5.88445 5.81806
#
# Compressibility (1/GPa) = 0.02955249
#
# Stress axis : x y z
#
# Youngs Moduli (GPa) = 41.69020 41.69002 74.75659
#
# Poissons Ratio (x) = 0.46864 0.17409
# Poissons Ratio (y) = 0.46865 0.17409
# Poissons Ratio (z) = 0.09708 0.09709
#
# Static dielectric constant tensor:
#      x y z
#    x 3.491250 0.000000 0.000000 
#    y 0.000000 3.491250 0.000000 
#    z 0.000000 0.000000 3.893750 
# 
# 
# High freq. dielectric constant tensor:
#      x y z
#    x 1.761840 0.000000 0.000000 
#    y 0.000000 1.761840 0.000000 
#    z 0.000000 0.000000 1.777190 
# 
# From -- ./inp_files/11273.got.cif
#   From: 2010.03.12/outbox.cif.g09.slc.cpg/sg142_6_cif.got.tgz:11273.got - 2010.04.03 13:27:16.
