data_PCOD8321645
_publ_section_title
;
Structure prediction by ZEFSAII (Michael W. Deem and Ramdas Pophale) SiO2 
 PCOD8321645
Probable space group: P -3
;
_chemical_formula_sum "Si O2"
_cell_formula_units_Z 48
_cell_length_a 14.152761
_cell_length_b 14.152761
_cell_length_c 13.339036
_cell_angle_alpha 90.000000
_cell_angle_beta 90.000000
_cell_angle_gamma 120.000000
_cell_volume 2313.861829
_symmetry_space_group_name_H-M "P -3"
_symmetry_group_IT_number 147
_symmetry_cell_setting 'hexagonal'
loop_
_space_group_symop_operation_xyz
x,y,z
-y,x-y,z
-x+y,-x,z
-x,-y,-z
y,-x+y,-z
x-y,x,-z
loop_
_atom_site_type_symbol
_atom_site_label
_atom_site_fract_x
_atom_site_fract_y
_atom_site_fract_z
Si Si1 0.930486 0.179406 0.488580
Si Si2 0.403229 0.877094 0.996139
Si Si3 0.247349 0.441561 0.377150
Si Si4 0.844193 0.753851 0.990321
Si Si5 0.249447 0.857905 0.170275
Si Si6 0.310950 0.372187 0.708720
Si Si7 0.194037 0.745132 0.891956
Si Si8 0.492739 0.572722 0.414711
O O1 0.907383 0.237959 0.581445
O O2 0.914898 0.228786 0.383970
O O3 0.050923 0.201064 0.505796
O O4 0.311204 0.854289 0.911056
O O5 0.456037 0.803860 0.962073
O O6 0.342648 0.851190 0.103984
O O7 0.500000 0.000000 0.000000
O O8 0.227750 0.444227 0.259672
O O9 0.369860 0.537811 0.388815
O O10 0.157048 0.455875 0.441391
O O11 0.765346 0.669099 0.073731
O O12 0.811560 0.844311 0.969529
O O13 0.824577 0.684357 0.890392
O O14 0.283023 0.976012 0.214942
O O15 0.283136 0.453979 0.772802
O O16 0.437673 0.440563 0.674496
O O17 0.500000 0.500000 0.500000
#
# Coordination Sequence:
#
# PCOD8321645 Si02
#       8
#     6   6   6   6   6   6   6   6
#     4  12  24  45  70  99 139 186 234 295 354 419
#     4  11  22  42  70  96 138 182 230 285 344 422
#     4  11  23  44  68 103 139 182 234 283 358 421
#     4  11  22  40  65  95 131 172 221 280 337 398
#     4  10  22  43  68  96 134 178 227 279 339 417
#     4  11  22  44  66  95 143 176 230 292 343 419
#     4  11  23  44  65  99 140 177 229 284 348 414
#     4  11  22  44  72 101 145 179 229 294 350 419
#
# _framework density 20.744539
#
# number of rings (size 3 to 8) (size 9 to 14) (size 15 to 20)
#    0.000    1.000    6.250    1.500    0.000    5.000 
#    9.000    0.000    0.000    0.000    0.000    0.000 
#    0.000    0.000    0.000    0.000    0.000    0.000 
#
# Total GULP energy -594761.099324 kJ/mol
# GULP energy per Si atom -12390.856236 kJ/mol
# Density = 2.069732 g / cm^3
# Si number density = 20.744539 Si / 1000 Ang^3
#
#
#
# Elastic Constant Matrix: (Units=GPa)
#
#
# Indices 1 2 3 4 5 6 
#
# 1 98.4446 24.6619 62.6875 6.7492 -4.9527 0.0000
# 2 24.6619 98.4446 62.6875 -6.7492 4.9527 0.0000
# 3 62.6875 62.6875 129.3003 0.0000 0.0000 0.0000
# 4 6.7492 -6.7492 0.0000 37.7678 0.0000 4.9527
# 5 -4.9527 4.9527 0.0000 0.0000 37.7678 6.7492
# 6 0.0000 0.0000 0.0000 4.9527 6.7492 36.8913
#
#
#
# Elastic Compliance Matrix: (Units=1/GPa)
#
#
# Indices 1 2 3 4 5 6 
#
# 1 0.015158 0.000887 -0.007779 -0.002550 0.001871 0.000000
# 2 0.000887 0.015158 -0.007779 0.002550 -0.001871 0.000000
# 3 -0.007779 -0.007779 0.015277 0.000000 0.000000 0.000000
# 4 -0.002550 0.002550 0.000000 0.027880 0.000000 -0.003743
# 5 0.001871 -0.001871 0.000000 0.000000 0.027880 -0.005101
# 6 0.000000 0.000000 0.000000 -0.003743 -0.005101 0.028542
#
#
# Mechanical properties :
#
#
# Convention : Reuss Voigt Hill
#
# Bulk Modulus (GPa) = 61.53359 69.58482 65.55921
# Shear Modulus (GPa) = 30.36639 34.22889 32.29764
#
# Velocity S-wave (km/s) = 3.83015 4.06645 3.95007
# Velocity P-wave (km/s) = 7.02047 7.46087 7.24402
#
# Compressibility (1/GPa) = 0.01625129
#
# Stress axis : x y z
#
# Youngs Moduli (GPa) = 65.96992 65.96992 65.45751
#
# Poissons Ratio (x) = -0.05853 0.50921
# Poissons Ratio (y) = -0.05853 0.50921
# Poissons Ratio (z) = 0.51320 0.51320
#
# Static dielectric constant tensor:
#      x y z
#    x 4.260240 0.000000 0.000000 
#    y 0.000000 4.260240 0.000000 
#    z 0.000000 0.000000 4.196350 
# 
# 
# High freq. dielectric constant tensor:
#      x y z
#    x 1.817900 0.000000 0.000000 
#    y 0.000000 1.817900 0.000000 
#    z 0.000000 0.000000 1.806120 
# 
# From -- ./inp_files/869.got.cif
#   From: 2010.03.12/outbox.cif.g09.slc.cpg/sg147_cif.got.tgz:869.got - 2010.04.03 13:37:56.
