data_PCOD8321803
_publ_section_title
;
Structure prediction by ZEFSAII (Michael W. Deem and Ramdas Pophale) SiO2 
 PCOD8321803
Probable space group: R -3
;
_chemical_formula_sum "Si O2"
_cell_formula_units_Z 72
_cell_length_a 11.966294
_cell_length_b 11.966294
_cell_length_c 26.733609
_cell_angle_alpha 90.000000
_cell_angle_beta 90.000000
_cell_angle_gamma 120.000000
_cell_volume 3315.183416
_symmetry_space_group_name_H-M "R -3"
_symmetry_group_IT_number 148
_symmetry_cell_setting 'hexagonal'
loop_
_space_group_symop_operation_xyz
x,y,z
-y,x-y,z
-x+y,-x,z
-x,-y,-z
y,-x+y,-z
x-y,x,-z
2/3+x,1/3+y,1/3+z
2/3-y,1/3+x-y,1/3+z
2/3-x+y,1/3-x,1/3+z
2/3-x,1/3-y,1/3-z
2/3+y,1/3-x+y,1/3-z
2/3+x-y,1/3+x,1/3-z
1/3+x,2/3+y,2/3+z
1/3-y,2/3+x-y,2/3+z
1/3-x+y,2/3-x,2/3+z
1/3-x,2/3-y,2/3-z
1/3+y,2/3-x+y,2/3-z
1/3+x-y,2/3+x,2/3-z
loop_
_atom_site_type_symbol
_atom_site_label
_atom_site_fract_x
_atom_site_fract_y
_atom_site_fract_z
Si Si1 0.333334 0.666667 0.412044
Si Si2 0.483712 0.434529 0.446901
Si Si3 0.333334 0.666668 0.802018
Si Si4 0.092158 0.417445 0.378996
Si Si5 0.588502 0.710278 0.265880
Si Si6 0.333334 0.666667 0.225485
O O1 0.333334 0.666667 0.471628
O O2 0.235869 0.529610 0.389803
O O3 0.500000 0.500000 0.500000
O O4 0.546117 0.343230 0.447809
O O5 0.561302 0.547081 0.406556
O O6 0.331681 0.350019 0.435743
O O7 0.061806 0.407711 0.320199
O O8 0.099212 0.293466 0.398230
O O9 0.444356 0.637674 0.244326
O O10 0.333335 0.666668 0.166667
#
# Coordination Sequence:
#
# PCOD8321803 Si02
#       6
#     6  18   6  18  18   6
#     4  12  19  46  72 103 131 193 241 283 342 424
#     4  12  27  45  75 104 145 187 240 287 352 426
#     4  12  27  43  68 112 144 185 230 291 354 427
#     4  11  23  45  77 101 138 185 246 290 345 422
#     4  11  27  46  73 107 138 189 236 297 354 417
#     4  12  31  44  73 105 153 175 230 304 364 416
#
# _framework density 21.718254999999999
#
# number of rings (size 3 to 8) (size 9 to 14) (size 15 to 20)
#    0.000    0.500    5.000    1.500   10.500    0.000 
#    0.000    1.250    0.000    0.000    0.000    0.000 
#    0.000    0.000    0.000    0.000    0.000    0.000 
#
# Total GULP energy -297676.226256 kJ/mol
# GULP energy per Si atom -12403.176094 kJ/mol
# Density = 2.166882 g / cm^3
# Si number density = 21.718255 Si / 1000 Ang^3
#
#
#
# Elastic Constant Matrix: (Units=GPa)
#
#
# Indices 1 2 3 4 5 6 
#
# 1 99.3443 26.9863 53.4560 8.3018 -0.5457 -0.0011
# 2 26.9863 99.3446 53.4568 -8.3030 0.5461 -0.0003
# 3 53.4560 53.4568 120.6945 0.0000 0.0005 -0.0002
# 4 8.3018 -8.3030 0.0000 33.7148 -0.0044 0.5582
# 5 -0.5457 0.5461 0.0005 -0.0044 33.7049 8.2982
# 6 -0.0011 -0.0003 -0.0002 0.5582 8.2982 36.1914
#
#
#
# Elastic Compliance Matrix: (Units=1/GPa)
#
#
# Indices 1 2 3 4 5 6 
#
# 1 0.013657 -0.000995 -0.005608 -0.003608 0.000236 0.000002
# 2 -0.000995 0.013657 -0.005608 0.003608 -0.000237 -0.000001
# 3 -0.005608 -0.005608 0.013253 0.000000 0.000000 0.000000
# 4 -0.003608 0.003608 0.000000 0.031446 0.000007 -0.000487
# 5 0.000236 -0.000237 0.000000 0.000007 0.031453 -0.007212
# 6 0.000002 -0.000001 0.000000 -0.000487 -0.007212 0.029292
#
#
# Mechanical properties :
#
#
# Convention : Reuss Voigt Hill
#
# Bulk Modulus (GPa) = 61.94032 65.24239 63.59135
# Shear Modulus (GPa) = 30.75794 33.08785 31.92290
#
# Velocity S-wave (km/s) = 3.76736 3.90744 3.83804
# Velocity P-wave (km/s) = 6.89245 7.10373 6.99889
#
# Compressibility (1/GPa) = 0.01614457
#
# Stress axis : x y z
#
# Youngs Moduli (GPa) = 73.22469 73.22373 75.45482
#
# Poissons Ratio (x) = 0.07286 0.42314
# Poissons Ratio (y) = 0.07286 0.42315
# Poissons Ratio (z) = 0.41063 0.41064
#
# Static dielectric constant tensor:
#      x y z
#    x 3.797590 -0.000030 0.000000 
#    y -0.000030 3.797580 0.000000 
#    z 0.000000 0.000000 3.981940 
# 
# 
# High freq. dielectric constant tensor:
#      x y z
#    x 1.858440 0.000000 0.000000 
#    y 0.000000 1.858440 0.000000 
#    z 0.000000 0.000000 1.860230 
# 
# From -- ./inp_files/3945.got.cif
#   From: 2010.03.12/outbox.cif.g09.slc.cpg/sg148_2_cif.got.tgz:3945.got - 2010.04.03 13:38:46.
