data_PCOD8321244
_publ_section_title
;
Structure prediction by ZEFSAII (Michael W. Deem and Ramdas Pophale) SiO2 
 PCOD8321244
Probable space group: I 41/A C D
;
_chemical_formula_sum "Si O2"
_cell_formula_units_Z 160
_cell_length_a 19.601815
_cell_length_b 19.601815
_cell_length_c 18.216272
_cell_angle_alpha 90.000000
_cell_angle_beta 90.000000
_cell_angle_gamma 90.000000
_cell_volume 6999.259163
_symmetry_space_group_name_H-M "I 41/A C D"
_symmetry_group_IT_number 142
_space_group.IT_coordinate_system_code '2'
_symmetry_cell_setting 'tetragonal'
loop_
_space_group_symop_operation_xyz
x,y,z
1/4-y,3/4+x,1/4+z
-x,1/2-y,z
1/4+y,1/4-x,3/4+z
x,-y,1/2-z
1/2-x,y,-z
3/4+y,1/4+x,1/4-z
1/4-y,1/4-x,1/4-z
-x,-y,-z
3/4+y,1/4-x,3/4-z
x,1/2+y,-z
3/4-y,3/4+x,1/4-z
-x,y,1/2+z
1/2+x,-y,z
1/4-y,3/4-x,3/4+z
3/4+y,3/4+x,3/4+z
1/2+x,1/2+y,1/2+z
3/4-y,1/4+x,3/4+z
1/2-x,-y,1/2+z
3/4+y,3/4-x,1/4+z
1/2+x,1/2-y,-z
-x,1/2+y,1/2-z
1/4+y,3/4+x,3/4-z
3/4-y,3/4-x,3/4-z
1/2-x,1/2-y,1/2-z
1/4+y,3/4-x,1/4-z
1/2+x,y,1/2-z
1/4-y,1/4+x,3/4-z
1/2-x,1/2+y,z
x,1/2-y,1/2+z
3/4-y,1/4-x,1/4+z
1/4+y,1/4+x,1/4+z
loop_
_atom_site_type_symbol
_atom_site_label
_atom_site_fract_x
_atom_site_fract_y
_atom_site_fract_z
Si Si1 0.929842 0.925794 0.343541
Si Si2 0.681590 0.869299 0.438531
Si Si3 0.311869 0.476132 0.454089
Si Si4 0.051650 0.332247 0.405496
Si Si5 0.817632 0.284869 0.217511
O O1 0.882623 0.867378 0.375000
O O2 0.935248 0.919274 0.254806
O O3 0.002504 0.919848 0.386430
O O4 0.896061 0.999657 0.357074
O O5 0.625186 0.864487 0.375970
O O6 0.679393 0.944056 0.474440
O O7 0.250000 0.442848 0.500000
O O8 0.281949 0.468052 0.375000
O O9 0.383789 0.438398 0.462488
O O10 0.080046 0.255343 0.410830
O O11 0.021619 0.365967 0.480178
O O12 0.750000 0.250000 0.250000
#
# Coordination Sequence:
#
# PCOD8321244 Si02
#       5
#    32  32  32  32  32
#     4  11  22  40  67  98 137 186 242 292 358 442
#     4  11  23  39  68  97 139 187 244 292 371 449
#     4  12  26  45  71 108 148 193 245 320 388 448
#     4  11  24  43  67  96 137 188 239 300 370 444
#     4  12  25  43  70 104 143 189 246 304 369 453
#
# _framework density 22.859562
#
# number of rings (size 3 to 8) (size 9 to 14) (size 15 to 20)
#    0.000    0.600    4.000    5.400    0.000    1.600 
#    3.600    0.000    0.000    3.600    0.000    0.000 
#    0.000    0.000    0.000    0.000    0.000    0.000 
#
# Total GULP energy -991159.164048 kJ/mol
# GULP energy per Si atom -12389.489551 kJ/mol
# Density = 2.280753 g / cm^3
# Si number density = 22.859562 Si / 1000 Ang^3
#
#
#
# Elastic Constant Matrix: (Units=GPa)
#
#
# Indices 1 2 3 4 5 6 
#
# 1 106.6274 31.5324 33.7210 0.0000 0.0000 0.0000
# 2 31.5324 106.6250 33.7233 0.0000 0.0000 0.0000
# 3 33.7210 33.7233 104.4419 0.0000 0.0000 0.0000
# 4 0.0000 0.0000 0.0000 35.8879 0.0000 0.0000
# 5 0.0000 0.0000 0.0000 0.0000 35.8880 0.0000
# 6 0.0000 0.0000 0.0000 0.0000 0.0000 29.1796
#
#
#
# Elastic Compliance Matrix: (Units=1/GPa)
#
#
# Indices 1 2 3 4 5 6 
#
# 1 0.010954 -0.002362 -0.002774 0.000000 0.000000 0.000000
# 2 -0.002362 0.010955 -0.002775 0.000000 0.000000 0.000000
# 3 -0.002774 -0.002775 0.011366 0.000000 0.000000 0.000000
# 4 0.000000 0.000000 0.000000 0.027865 0.000000 0.000000
# 5 0.000000 0.000000 0.000000 0.000000 0.027864 0.000000
# 6 0.000000 0.000000 0.000000 0.000000 0.000000 0.034271
#
#
# Mechanical properties :
#
#
# Convention : Reuss Voigt Hill
#
# Bulk Modulus (GPa) = 57.29419 57.29419 57.29419
# Shear Modulus (GPa) = 34.50316 34.77227 34.63771
#
# Velocity S-wave (km/s) = 3.88925 3.90439 3.89683
# Velocity P-wave (km/s) = 6.72951 6.74119 6.73536
#
# Compressibility (1/GPa) = 0.01745378
#
# Stress axis : x y z
#
# Youngs Moduli (GPa) = 91.28828 91.28457 87.97991
#
# Poissons Ratio (x) = 0.21563 0.24406
# Poissons Ratio (y) = 0.21564 0.24410
# Poissons Ratio (z) = 0.25324 0.25327
#
# Static dielectric constant tensor:
#      x y z
#    x 4.230730 0.000000 0.000000 
#    y 0.000000 4.230710 0.000000 
#    z 0.000000 0.000000 4.232830 
# 
# 
# High freq. dielectric constant tensor:
#      x y z
#    x 1.898040 0.000000 0.000000 
#    y 0.000000 1.898040 0.000000 
#    z 0.000000 0.000000 1.903480 
# 
# From -- ./inp_files/7417.got.cif
#   From: 2010.03.12/outbox.cif.g09.slc.cpg/sg142_4_cif.got.tgz:7417.got - 2010.04.03 13:27:16.
