data_PCOD8321941
_publ_section_title
;
Structure prediction by ZEFSAII (Michael W. Deem and Ramdas Pophale) SiO2 
 PCOD8321941
Probable space group: P 31 1 2
;
_chemical_formula_sum "Si O2"
_cell_formula_units_Z 36
_cell_length_a 8.962725
_cell_length_b 8.962725
_cell_length_c 26.526832
_cell_angle_alpha 90.000000
_cell_angle_beta 90.000000
_cell_angle_gamma 120.000000
_cell_volume 1845.423987
_symmetry_space_group_name_H-M "P 31 1 2"
_symmetry_group_IT_number 151
_symmetry_cell_setting 'hexagonal'
loop_
_space_group_symop_operation_xyz
x,y,z
-y,x-y,1/3+z
-x+y,-x,2/3+z
-y,-x,2/3-z
-x+y,y,1/3-z
x,x-y,-z
loop_
_atom_site_type_symbol
_atom_site_label
_atom_site_fract_x
_atom_site_fract_y
_atom_site_fract_z
Si Si1 0.277475 0.453717 0.034039
Si Si2 0.042719 0.550182 0.555717
Si Si3 0.204857 0.365616 0.612843
Si Si4 0.800972 0.530805 0.722690
Si Si5 0.776887 0.181818 0.892744
Si Si6 0.137693 0.663046 0.072273
O O1 0.463182 0.621912 0.038248
O O2 0.300355 0.294546 0.052606
O O3 0.144103 0.485014 0.067541
O O4 0.213440 0.429152 0.976829
O O5 0.970857 0.485429 0.500000
O O6 0.910239 0.589372 0.584700
O O7 0.069720 0.407542 0.585300
O O8 0.221884 0.732440 0.549861
O O9 0.133422 0.266844 0.666667
O O10 0.245445 0.247881 0.575842
O O11 0.730110 0.460219 0.666667
O O12 0.799457 0.382798 0.756362
O O13 0.798028 0.201973 0.833334
O O14 0.944269 0.331561 0.919058
#
# Coordination Sequence:
#
# PCOD8321941 Si02
#       6
#     6   6   6   6   6   6
#     4   9  18  37  63  85 109 150 211 250 292 364
#     4  11  20  35  62  87 119 162 198 244 312 375
#     4  10  18  40  61  83 115 161 208 244 293 381
#     4  11  21  38  60  87 120 160 206 254 308 379
#     4  11  24  38  58  91 128 159 202 263 321 374
#     4  10  19  38  59  87 117 153 208 254 307 364
#
# _framework density 19.507711
#
# number of rings (size 3 to 8) (size 9 to 14) (size 15 to 20)
#    0.000    1.667    5.000    2.500    2.333    0.000 
#    3.000    0.000    0.000    2.000    0.000    0.000 
#    0.000    0.000    0.000    0.000    0.000    0.000 
#
# Total GULP energy -446248.334016 kJ/mol
# GULP energy per Si atom -12395.787056 kJ/mol
# Density = 1.946331 g / cm^3
# Si number density = 19.507711 Si / 1000 Ang^3
#
#
#
# Elastic Constant Matrix: (Units=GPa)
#
#
# Indices 1 2 3 4 5 6 
#
# 1 102.1437 46.5983 41.6566 0.0007 -3.8771 0.0000
# 2 46.5983 102.1437 41.6566 -0.0007 3.8771 0.0000
# 3 41.6566 41.6566 124.9337 0.0000 0.0000 0.0000
# 4 0.0007 -0.0007 0.0000 20.1940 0.0000 3.8771
# 5 -3.8771 3.8771 0.0000 0.0000 20.1940 0.0007
# 6 0.0000 0.0000 0.0000 3.8771 0.0007 27.7727
#
#
#
# Elastic Compliance Matrix: (Units=1/GPa)
#
#
# Indices 1 2 3 4 5 6 
#
# 1 0.013383 -0.005116 -0.002756 -0.000001 0.003552 0.000000
# 2 -0.005116 0.013383 -0.002756 0.000001 -0.003552 0.000000
# 3 -0.002756 -0.002756 0.009842 0.000000 0.000000 0.000000
# 4 -0.000001 0.000001 0.000000 0.050883 0.000000 -0.007103
# 5 0.003552 -0.003552 0.000000 0.000000 0.050883 -0.000001
# 6 0.000000 0.000000 0.000000 -0.007103 -0.000001 0.036998
#
#
# Mechanical properties :
#
#
# Convention : Reuss Voigt Hill
#
# Bulk Modulus (GPa) = 65.14419 65.44935 65.29677
# Shear Modulus (GPa) = 24.78332 26.91943 25.85138
#
# Velocity S-wave (km/s) = 3.56819 3.71878 3.64426
# Velocity P-wave (km/s) = 7.10229 7.21543 7.15908
#
# Compressibility (1/GPa) = 0.01535056
#
# Stress axis : x y z
#
# Youngs Moduli (GPa) = 74.72135 74.72135 101.60106
#
# Poissons Ratio (x) = 0.38228 0.28006
# Poissons Ratio (y) = 0.38228 0.28006
# Poissons Ratio (z) = 0.20597 0.20597
#
# Static dielectric constant tensor:
#      x y z
#    x 3.684930 0.000000 0.000000 
#    y 0.000000 3.684930 0.000000 
#    z 0.000000 0.000000 3.477090 
# 
# 
# High freq. dielectric constant tensor:
#      x y z
#    x 1.747880 0.000000 0.000000 
#    y 0.000000 1.747880 0.000000 
#    z 0.000000 0.000000 1.762350 
# 
# From -- ./inp_files/4657.got.cif
#   From: 2010.03.12/outbox.cif.g09.slc.cpg/sg151_3_cif.got.tgz:4657.got - 2010.04.03 13:42:29.
