data_PCOD8321547
_publ_section_title
;
Structure prediction by ZEFSAII (Michael W. Deem and Ramdas Pophale) SiO2 
 PCOD8321547
Probable space group: R 3
;
_chemical_formula_sum "Si O2"
_cell_formula_units_Z 45
_cell_length_a 14.955795
_cell_length_b 14.955795
_cell_length_c 10.626209
_cell_angle_alpha 90.000000
_cell_angle_beta 90.000000
_cell_angle_gamma 120.000000
_cell_volume 2058.391560
_symmetry_space_group_name_H-M "R 3"
_symmetry_group_IT_number 146
_symmetry_cell_setting 'hexagonal'
loop_
_space_group_symop_operation_xyz
x,y,z
-y,x-y,z
-x+y,-x,z
2/3+x,1/3+y,1/3+z
2/3-y,1/3+x-y,1/3+z
2/3-x+y,1/3-x,1/3+z
1/3+x,2/3+y,2/3+z
1/3-y,2/3+x-y,2/3+z
1/3-x+y,2/3-x,2/3+z
loop_
_atom_site_type_symbol
_atom_site_label
_atom_site_fract_x
_atom_site_fract_y
_atom_site_fract_z
Si Si1 0.124418 0.630019 0.188930
Si Si2 0.757611 0.754489 0.160735
Si Si3 0.836021 0.052465 0.797924
Si Si4 0.298050 0.831603 0.093433
Si Si5 0.050506 0.205505 0.893667
O O1 0.141372 0.672417 0.327833
O O2 0.188405 0.725531 0.093485
O O3 0.173625 0.556323 0.180172
O O4 0.002989 0.570890 0.161824
O O5 0.637938 0.718242 0.155018
O O6 0.808661 0.821925 0.285952
O O7 0.771613 0.655558 0.177101
O O8 0.812759 0.816848 0.034874
O O9 0.956025 0.138999 0.800134
O O10 0.823337 0.963855 0.895032
#
# Coordination Sequence:
#
# PCOD8321547 Si02
#       5
#     9   9   9   9   9
#     4  12  26  43  70 106 138 177 236 283 344 412
#     4  10  24  46  72  92 138 186 222 274 364 392
#     4  12  26  43  70 106 138 177 236 283 344 412
#     4  11  24  46  71  99 138 182 224 286 344 416
#     4  11  24  46  71  99 138 182 224 286 344 416
#
# _framework density 21.861730999999999
#
# number of rings (size 3 to 8) (size 9 to 14) (size 15 to 20)
#    0.000    0.800    2.000    4.400   11.200    1.600 
#    0.000    0.000    0.000    0.000    0.000    0.000 
#    0.000    0.000    0.000    0.000    0.000    0.000 
#
# Total GULP energy -186034.167730 kJ/mol
# GULP energy per Si atom -12402.277849 kJ/mol
# Density = 2.181197 g / cm^3
# Si number density = 21.861731 Si / 1000 Ang^3
#
#
#
# Elastic Constant Matrix: (Units=GPa)
#
#
# Indices 1 2 3 4 5 6 
#
# 1 92.6254 44.9311 44.8224 1.6607 0.7402 0.0000
# 2 44.9311 92.6254 44.8224 -1.6607 -0.7402 0.0000
# 3 44.8224 44.8224 128.1818 0.0000 0.0000 0.0000
# 4 1.6607 -1.6607 0.0000 25.4583 0.0000 -0.7402
# 5 0.7402 -0.7402 0.0000 0.0000 25.4583 1.6607
# 6 0.0000 0.0000 0.0000 -0.7402 1.6607 23.8471
#
#
#
# Elastic Compliance Matrix: (Units=1/GPa)
#
#
# Indices 1 2 3 4 5 6 
#
# 1 0.015249 -0.005833 -0.003292 -0.001375 -0.000613 0.000000
# 2 -0.005833 0.015249 -0.003292 0.001375 0.000613 0.000000
# 3 -0.003292 -0.003292 0.010104 0.000000 0.000000 0.000000
# 4 -0.001375 0.001375 0.000000 0.039495 0.000000 0.001226
# 5 -0.000613 0.000613 0.000000 0.000000 0.039495 -0.002750
# 6 0.000000 0.000000 0.000000 0.001226 -0.002750 0.042163
#
#
# Mechanical properties :
#
#
# Convention : Reuss Voigt Hill
#
# Bulk Modulus (GPa) = 63.43060 64.73159 64.08110
# Shear Modulus (GPa) = 26.06272 26.87654 26.46963
#
# Velocity S-wave (km/s) = 3.45652 3.51007 3.48339
# Velocity P-wave (km/s) = 6.70876 6.78979 6.74940
#
# Compressibility (1/GPa) = 0.01576526
#
# Stress axis : x y z
#
# Youngs Moduli (GPa) = 65.58019 65.58019 98.97123
#
# Poissons Ratio (x) = 0.38254 0.32585
# Poissons Ratio (y) = 0.38254 0.32585
# Poissons Ratio (z) = 0.21591 0.21591
#
# Static dielectric constant tensor:
#      x y z
#    x 4.135650 0.000000 0.000000 
#    y 0.000000 4.135650 0.000000 
#    z 0.000000 0.000000 4.040170 
# 
# 
# High freq. dielectric constant tensor:
#      x y z
#    x 1.866120 0.000000 0.000000 
#    y 0.000000 1.866120 0.000000 
#    z 0.000000 0.000000 1.866130 
# 
# From -- ./inp_files/1079.got.cif
#   From: 2010.06.25/outbox.cif.g09.slc.cpg/sg146_cif.got.tgz:1079.got - 2010.06.28 11:17:22.
