data_PCOD8321504
_publ_section_title
;
Structure prediction by ZEFSAII (Michael W. Deem and Ramdas Pophale) SiO2 
 PCOD8321504
Probable space group: R 3
;
_chemical_formula_sum "Si O2"
_cell_formula_units_Z 36
_cell_length_a 15.509549
_cell_length_b 15.509549
_cell_length_c 5.370847
_cell_angle_alpha 90.000000
_cell_angle_beta 90.000000
_cell_angle_gamma 120.000000
_cell_volume 1118.849703
_symmetry_space_group_name_H-M "R 3"
_symmetry_group_IT_number 146
_symmetry_cell_setting 'hexagonal'
loop_
_space_group_symop_operation_xyz
x,y,z
-y,x-y,z
-x+y,-x,z
2/3+x,1/3+y,1/3+z
2/3-y,1/3+x-y,1/3+z
2/3-x+y,1/3-x,1/3+z
1/3+x,2/3+y,2/3+z
1/3-y,2/3+x-y,2/3+z
1/3-x+y,2/3-x,2/3+z
loop_
_atom_site_type_symbol
_atom_site_label
_atom_site_fract_x
_atom_site_fract_y
_atom_site_fract_z
Si Si1 0.010053 0.428937 0.331650
Si Si2 0.289476 0.786514 0.202043
Si Si3 0.956127 0.836298 0.035353
Si Si4 0.343405 0.247790 0.498387
O O1 0.061956 0.406749 0.562875
O O2 0.108042 0.500003 0.158750
O O3 0.947628 0.481820 0.423472
O O4 0.283902 0.728295 0.460917
O O5 0.200859 0.815157 0.256854
O O6 0.271717 0.716123 0.960919
O O7 0.058619 0.833344 0.992127
O O8 0.395289 0.321885 0.729584
#
# Coordination Sequence:
#
# PCOD8321504 Si02
#       4
#     9   9   9   9
#     4  10  18  32  46  72 104 138 168 218 262 324
#     4  10  20  30  48  70 102 140 168 216 266 320
#     4  10  20  30  48  70 102 140 168 216 266 320
#     4  10  18  32  46  72 104 138 168 218 262 324
#
# _framework density 32.175901000000003
#
# number of rings (size 3 to 8) (size 9 to 14) (size 15 to 20)
#    0.000    2.000    5.000    0.000    0.000    0.000 
#    0.000    0.000    0.000    0.000    0.000    0.000 
#    5.000   18.000    0.000    0.000    0.000    0.000 
#
# Total GULP energy -148690.278441 kJ/mol
# GULP energy per Si atom -12390.856537 kJ/mol
# Density = 3.210267 g / cm^3
# Si number density = 32.175901 Si / 1000 Ang^3
#
#
#
# Elastic Constant Matrix: (Units=GPa)
#
#
# Indices 1 2 3 4 5 6 
#
# 1 114.1233 29.1997 -19.8026 10.3504 0.3174 0.0298
# 2 29.1997 114.2564 -19.6168 -10.8435 0.2942 0.0254
# 3 -19.8026 -19.6168 165.8661 -0.2817 0.9000 0.0516
# 4 10.3504 -10.8435 -0.2817 -49.6341 -0.7943 -0.1676
# 5 0.3174 0.2942 0.9000 -0.7943 -48.4838 10.7824
# 6 0.0298 0.0254 0.0516 -0.1676 10.7824 42.4904
#
#
#
# Elastic Compliance Matrix: (Units=1/GPa)
#
#
# Indices 1 2 3 4 5 6 
#
# 1 0.009207 -0.001981 0.000869 0.002347 0.000025 -0.000003
# 2 -0.001981 0.009173 0.000844 -0.002423 0.000090 -0.000037
# 3 0.000869 0.000844 0.006232 -0.000040 0.000118 -0.000039
# 4 0.002347 -0.002423 -0.000040 -0.019132 0.000281 -0.000147
# 5 0.000025 0.000090 0.000118 0.000281 -0.019525 0.004956
# 6 -0.000003 -0.000037 -0.000039 -0.000147 0.004956 0.022277
#
#
# Mechanical properties :
#
#
# Convention : Reuss Voigt Hill
#
# Bulk Modulus (GPa) = 41.53686 41.53406 41.53546
# Shear Modulus (GPa) = 297.73215 15.83885 156.78550
#
# Velocity S-wave (km/s) = 9.62983 2.22110 6.98809
# Velocity P-wave (km/s) = 11.68683 4.41748 8.83448
#
# Compressibility (1/GPa) = 0.02407500
#
# Stress axis : x y z
#
# Youngs Moduli (GPa) = 108.61164 109.01304 160.46792
#
# Poissons Ratio (x) = 0.21597 -0.13941
# Poissons Ratio (y) = 0.21517 -0.13540
# Poissons Ratio (z) = -0.09436 -0.09198
#
# Static dielectric constant tensor:
#      x y z
#    x 6.090190 0.001280 0.000990 
#    y 0.001280 6.088400 -0.000160 
#    z 0.000990 -0.000160 6.553820 
# 
# 
# High freq. dielectric constant tensor:
#      x y z
#    x 2.321830 -0.000010 -0.000030 
#    y -0.000010 2.321840 -0.000010 
#    z -0.000030 -0.000010 2.346220 
# 
# From -- ./inp_files/186.got.cif
#   From: 2010.06.25/outbox.cif.g09.slc.cpg/sg146_cif.got.tgz:186.got - 2010.06.28 11:17:22.
