data_PCOD8321599
_publ_section_title
;
Structure prediction by ZEFSAII (Michael W. Deem and Ramdas Pophale) SiO2 
 PCOD8321599
Probable space group: P -3
;
_chemical_formula_sum "Si O2"
_cell_formula_units_Z 40
_cell_length_a 19.012969
_cell_length_b 19.012969
_cell_length_c 8.632873
_cell_angle_alpha 90.000000
_cell_angle_beta 90.000000
_cell_angle_gamma 120.000000
_cell_volume 2702.625461
_symmetry_space_group_name_H-M "P -3"
_symmetry_group_IT_number 147
_symmetry_cell_setting 'hexagonal'
loop_
_space_group_symop_operation_xyz
x,y,z
-y,x-y,z
-x+y,-x,z
-x,-y,-z
y,-x+y,-z
x-y,x,-z
loop_
_atom_site_type_symbol
_atom_site_label
_atom_site_fract_x
_atom_site_fract_y
_atom_site_fract_z
Si Si1 0.666668 0.333334 0.566377
Si Si2 0.333335 0.666668 0.066360
Si Si3 0.625294 0.089001 0.431428
Si Si4 0.378690 0.460866 0.568026
Si Si5 0.536291 0.625293 0.931426
Si Si6 0.484034 0.239326 0.567095
Si Si7 0.539136 0.917826 0.931969
Si Si8 0.755289 0.515965 0.932913
O O1 0.666668 0.333334 0.750008
O O2 0.575643 0.288001 0.502493
O O3 0.287655 0.575643 0.002477
O O4 0.552211 0.105041 0.481465
O O5 0.641208 0.100236 0.250001
O O6 0.708532 0.150796 0.518718
O O7 0.603547 0.999204 0.480971
O O8 0.289692 0.441535 0.515211
O O9 0.381297 0.448333 0.749997
O O10 0.447168 0.552209 0.981461
O O11 0.604342 0.603548 0.980977
O O12 0.557731 0.708530 0.018713
O O13 0.479091 0.226284 0.750004
O O14 0.558470 0.848161 0.984787
#
# Coordination Sequence:
#
# PCOD8321599 Si02
#       8
#     2   2   6   6   6   6   6   6
#     4   9  18  27  40  62  85 111 148 185 220 261
#     4   9  18  27  40  62  85 111 148 185 220 261
#     4  10  20  32  45  63  86 114 147 185 225 266
#     4  10  20  32  45  63  86 114 147 185 225 266
#     4  10  20  32  45  63  86 114 147 185 225 266
#     4  11  19  31  47  64  86 115 148 187 227 266
#     4  10  20  32  45  63  86 114 147 185 225 266
#     4  11  19  31  47  64  86 115 148 187 227 266
#
# _framework density 14.800423
#
# number of rings (size 3 to 8) (size 9 to 14) (size 15 to 20)
#    0.000    1.800    3.000    2.700    0.000    2.400 
#    0.000    0.000    0.000    0.000    0.000    0.000 
#    0.000    0.000    0.000    0.900    0.000   12.600 
#
# Total GULP energy -496125.261271 kJ/mol
# GULP energy per Si atom -12403.131532 kJ/mol
# Density = 1.476674 g / cm^3
# Si number density = 14.800423 Si / 1000 Ang^3
#
#
#
# Elastic Constant Matrix: (Units=GPa)
#
#
# Indices 1 2 3 4 5 6 
#
# 1 72.6384 27.0126 9.5736 0.0000 -0.0001 0.0000
# 2 27.0126 72.6384 9.5735 -0.0001 0.0001 0.0000
# 3 9.5736 9.5735 40.3560 -0.0001 0.0000 0.0000
# 4 0.0000 -0.0001 -0.0001 23.8675 0.0000 0.0001
# 5 -0.0001 0.0001 0.0000 0.0000 23.8676 -0.0001
# 6 0.0000 0.0000 0.0000 0.0001 -0.0001 22.8129
#
#
#
# Elastic Compliance Matrix: (Units=1/GPa)
#
#
# Indices 1 2 3 4 5 6 
#
# 1 0.016216 -0.005702 -0.002494 0.000000 0.000000 0.000000
# 2 -0.005702 0.016216 -0.002494 0.000000 0.000000 0.000000
# 3 -0.002494 -0.002494 0.025963 0.000000 0.000000 0.000000
# 4 0.000000 0.000000 0.000000 0.041898 0.000000 0.000000
# 5 0.000000 0.000000 0.000000 0.000000 0.041898 0.000000
# 6 0.000000 0.000000 0.000000 0.000000 0.000000 0.043835
#
#
# Mechanical properties :
#
#
# Convention : Reuss Voigt Hill
#
# Bulk Modulus (GPa) = 27.01655 30.88359 28.95007
# Shear Modulus (GPa) = 22.75379 23.40780 23.08080
#
# Velocity S-wave (km/s) = 3.92519 3.98120 3.95330
# Velocity P-wave (km/s) = 6.23188 6.48423 6.35931
#
# Compressibility (1/GPa) = 0.03701434
#
# Stress axis : x y z
#
# Youngs Moduli (GPa) = 61.66805 61.66805 38.51649
#
# Poissons Ratio (x) = 0.35161 0.09607
# Poissons Ratio (y) = 0.35161 0.09607
# Poissons Ratio (z) = 0.15382 0.15382
#
# Static dielectric constant tensor:
#      x y z
#    x 2.710280 0.000000 0.000000 
#    y 0.000000 2.710280 0.000000 
#    z 0.000000 0.000000 2.810360 
# 
# 
# High freq. dielectric constant tensor:
#      x y z
#    x 1.539240 0.000000 0.000000 
#    y 0.000000 1.539240 0.000000 
#    z 0.000000 0.000000 1.578950 
# 
# From -- ./inp_files/644.got.cif
#   From: 2010.03.12/outbox.cif.g09.slc.cpg/sg147_cif.got.tgz:644.got - 2010.04.03 13:37:56.
