data_PCOD8321092
_publ_section_title
;
Structure prediction by ZEFSAII (Michael W. Deem and Ramdas Pophale) SiO2 
 PCOD8321092
Probable space group: I 41/A C D
;
_chemical_formula_sum "Si O2"
_cell_formula_units_Z 176
_cell_length_a 26.512010
_cell_length_b 26.512010
_cell_length_c 10.798221
_cell_angle_alpha 90.000000
_cell_angle_beta 90.000000
_cell_angle_gamma 90.000000
_cell_volume 7589.925646
_symmetry_space_group_name_H-M "I 41/A C D"
_symmetry_group_IT_number 142
_space_group.IT_coordinate_system_code '2'
_symmetry_cell_setting 'tetragonal'
loop_
_space_group_symop_operation_xyz
x,y,z
1/4-y,3/4+x,1/4+z
-x,1/2-y,z
1/4+y,1/4-x,3/4+z
x,-y,1/2-z
1/2-x,y,-z
3/4+y,1/4+x,1/4-z
1/4-y,1/4-x,1/4-z
-x,-y,-z
3/4+y,1/4-x,3/4-z
x,1/2+y,-z
3/4-y,3/4+x,1/4-z
-x,y,1/2+z
1/2+x,-y,z
1/4-y,3/4-x,3/4+z
3/4+y,3/4+x,3/4+z
1/2+x,1/2+y,1/2+z
3/4-y,1/4+x,3/4+z
1/2-x,-y,1/2+z
3/4+y,3/4-x,1/4+z
1/2+x,1/2-y,-z
-x,1/2+y,1/2-z
1/4+y,3/4+x,3/4-z
3/4-y,3/4-x,3/4-z
1/2-x,1/2-y,1/2-z
1/4+y,3/4-x,1/4-z
1/2+x,y,1/2-z
1/4-y,1/4+x,3/4-z
1/2-x,1/2+y,z
x,1/2-y,1/2+z
3/4-y,1/4-x,1/4+z
1/4+y,1/4+x,1/4+z
loop_
_atom_site_type_symbol
_atom_site_label
_atom_site_fract_x
_atom_site_fract_y
_atom_site_fract_z
Si Si1 0.982694 0.173221 0.352619
Si Si2 0.088070 0.161931 0.625000
Si Si3 0.334465 0.228224 0.264278
Si Si4 0.447729 0.514694 0.118078
Si Si5 0.700777 0.901645 0.238345
Si Si6 0.310224 0.941743 0.257628
O O1 0.947100 0.212608 0.425495
O O2 0.958741 0.162206 0.219322
O O3 0.987740 0.124980 0.441368
O O4 0.076426 0.108483 0.555783
O O5 0.287815 0.220738 0.174495
O O6 0.309815 0.260623 0.377933
O O7 0.423519 0.500000 0.250000
O O8 0.406115 0.532694 0.019842
O O9 0.663767 0.913767 0.125000
O O10 0.671027 0.911260 0.369239
O O11 0.750294 0.936243 0.229008
O O12 0.323704 0.000000 0.250000
O O13 0.331002 0.918999 0.125000
#
# Coordination Sequence:
#
# PCOD8321092 Si02
#       6
#    32  16  32  32  32  32
#     4   9  19  37  66 101 133 168 218 282 343 399
#     4  10  20  43  68 100 130 170 222 284 326 412
#     4  10  23  44  66  92 132 174 220 274 344 400
#     4  11  24  44  65  90 134 182 219 274 341 417
#     4  11  20  37  62  90 128 171 224 273 330 401
#     4   9  18  35  58  88 126 169 215 281 333 369
#
# _framework density 23.188632999999999
#
# number of rings (size 3 to 8) (size 9 to 14) (size 15 to 20)
#    0.000    2.000    0.000    4.364    0.000    5.818 
#   21.273   12.727    0.000    0.000    0.000    0.000 
#    0.000    0.000    0.000    0.000    0.000    0.000 
#
# Total GULP energy -1090238.633635 kJ/mol
# GULP energy per Si atom -12389.075382 kJ/mol
# Density = 2.313585 g / cm^3
# Si number density = 23.188633 Si / 1000 Ang^3
#
#
#
# Elastic Constant Matrix: (Units=GPa)
#
#
# Indices 1 2 3 4 5 6 
#
# 1 96.3552 35.9671 43.0237 0.0000 0.0000 0.0000
# 2 35.9671 96.3552 43.0243 0.0000 0.0000 0.0000
# 3 43.0237 43.0243 139.0879 0.0000 0.0000 0.0000
# 4 0.0000 0.0000 0.0000 17.9940 0.0000 0.0000
# 5 0.0000 0.0000 0.0000 0.0000 17.9940 0.0000
# 6 0.0000 0.0000 0.0000 0.0000 0.0000 6.2795
#
#
#
# Elastic Compliance Matrix: (Units=1/GPa)
#
#
# Indices 1 2 3 4 5 6 
#
# 1 0.013010 -0.003550 -0.002926 0.000000 0.000000 0.000000
# 2 -0.003550 0.013010 -0.002926 0.000000 0.000000 0.000000
# 3 -0.002926 -0.002926 0.009000 0.000000 0.000000 0.000000
# 4 0.000000 0.000000 0.000000 0.055574 0.000000 0.000000
# 5 0.000000 0.000000 0.000000 0.000000 0.055574 0.000000
# 6 0.000000 0.000000 0.000000 0.000000 0.000000 0.159249
#
#
# Mechanical properties :
#
#
# Convention : Reuss Voigt Hill
#
# Bulk Modulus (GPa) = 61.67019 63.98095 62.82557
# Shear Modulus (GPa) = 15.16866 22.43905 18.80385
#
# Velocity S-wave (km/s) = 2.56039 3.11412 2.85073
# Velocity P-wave (km/s) = 5.94925 6.37038 6.16341
#
# Compressibility (1/GPa) = 0.01621529
#
# Stress axis : x y z
#
# Youngs Moduli (GPa) = 76.86454 76.86423 111.10976
#
# Poissons Ratio (x) = 0.27284 0.32514
# Poissons Ratio (y) = 0.27284 0.32515
# Poissons Ratio (z) = 0.22493 0.22493
#
# Static dielectric constant tensor:
#      x y z
#    x 4.070110 0.000000 0.000000 
#    y 0.000000 4.070120 0.000000 
#    z 0.000000 0.000000 4.582390 
# 
# 
# High freq. dielectric constant tensor:
#      x y z
#    x 1.908610 0.000000 0.000000 
#    y 0.000000 1.908610 0.000000 
#    z 0.000000 0.000000 1.921460 
# 
# From -- ./inp_files/4001.got.cif
#   From: 2010.03.12/outbox.cif.g09.slc.cpg/sg142_3_cif.got.tgz:4001.got - 2010.04.03 13:27:16.
