data_PCOD8321006
_publ_section_title
;
Structure prediction by ZEFSAII (Michael W. Deem and Ramdas Pophale) SiO2 
 PCOD8321006
Probable space group: I 41/A C D
;
_chemical_formula_sum "Si O2"
_cell_formula_units_Z 160
_cell_length_a 16.855677
_cell_length_b 16.855677
_cell_length_c 25.796380
_cell_angle_alpha 90.000000
_cell_angle_beta 90.000000
_cell_angle_gamma 90.000000
_cell_volume 7329.108764
_symmetry_space_group_name_H-M "I 41/A C D"
_symmetry_group_IT_number 142
_space_group.IT_coordinate_system_code '2'
_symmetry_cell_setting 'tetragonal'
loop_
_space_group_symop_operation_xyz
x,y,z
1/4-y,3/4+x,1/4+z
-x,1/2-y,z
1/4+y,1/4-x,3/4+z
x,-y,1/2-z
1/2-x,y,-z
3/4+y,1/4+x,1/4-z
1/4-y,1/4-x,1/4-z
-x,-y,-z
3/4+y,1/4-x,3/4-z
x,1/2+y,-z
3/4-y,3/4+x,1/4-z
-x,y,1/2+z
1/2+x,-y,z
1/4-y,3/4-x,3/4+z
3/4+y,3/4+x,3/4+z
1/2+x,1/2+y,1/2+z
3/4-y,1/4+x,3/4+z
1/2-x,-y,1/2+z
3/4+y,3/4-x,1/4+z
1/2+x,1/2-y,-z
-x,1/2+y,1/2-z
1/4+y,3/4+x,3/4-z
3/4-y,3/4-x,3/4-z
1/2-x,1/2-y,1/2-z
1/4+y,3/4-x,1/4-z
1/2+x,y,1/2-z
1/4-y,1/4+x,3/4-z
1/2-x,1/2+y,z
x,1/2-y,1/2+z
3/4-y,1/4-x,1/4+z
1/4+y,1/4+x,1/4+z
loop_
_atom_site_type_symbol
_atom_site_label
_atom_site_fract_x
_atom_site_fract_y
_atom_site_fract_z
Si Si1 0.589719 0.936179 0.081927
Si Si2 0.536553 0.167418 0.268953
Si Si3 0.317758 0.554293 0.852579
Si Si4 0.319910 0.307708 0.900484
Si Si5 0.587297 0.682073 0.402060
O O1 0.639552 0.889552 0.125000
O O2 0.581448 0.880335 0.031904
O O3 0.504069 0.957954 0.106021
O O4 0.638633 0.015801 0.064443
O O5 0.500000 0.250000 0.287726
O O6 0.489005 0.099470 0.299073
O O7 0.527006 0.154665 0.207910
O O8 0.262377 0.487624 0.875000
O O9 0.392598 0.506843 0.828659
O O10 0.348264 0.612409 0.898168
O O11 0.387263 0.362737 0.875000
O O12 0.499056 0.647260 0.392038
#
# Coordination Sequence:
#
# PCOD8321006 Si02
#       5
#    32  32  32  32  32
#     4   9  19  36  63  95 127 163 209 274 324 376
#     4  11  20  39  70 102 120 162 231 276 318 375
#     4  10  22  42  59  89 135 174 203 257 340 389
#     4  10  19  35  68  99 129 165 216 276 325 387
#     4  11  23  43  68  90 129 178 222 266 318 393
#
# _framework density 21.830756999999998
#
# number of rings (size 3 to 8) (size 9 to 14) (size 15 to 20)
#    0.000    1.800    4.000    1.200    0.000    0.000 
#    0.000   26.000    0.000    0.000    0.000    0.000 
#    0.000    0.000    0.000    0.000    0.000    0.000 
#
# Total GULP energy -991339.904726 kJ/mol
# GULP energy per Si atom -12391.748809 kJ/mol
# Density = 2.178107 g / cm^3
# Si number density = 21.830757 Si / 1000 Ang^3
#
#
#
# Elastic Constant Matrix: (Units=GPa)
#
#
# Indices 1 2 3 4 5 6 
#
# 1 120.3418 84.2458 34.7598 0.0000 0.0000 0.0000
# 2 84.2458 120.3415 34.7610 0.0000 0.0000 0.0000
# 3 34.7598 34.7610 96.1076 0.0000 0.0000 0.0000
# 4 0.0000 0.0000 0.0000 22.3172 0.0000 0.0000
# 5 0.0000 0.0000 0.0000 0.0000 22.3086 0.0000
# 6 0.0000 0.0000 0.0000 0.0000 0.0000 63.8565
#
#
#
# Elastic Compliance Matrix: (Units=1/GPa)
#
#
# Indices 1 2 3 4 5 6 
#
# 1 0.016638 -0.011066 -0.002015 0.000000 0.000000 0.000000
# 2 -0.011066 0.016639 -0.002016 0.000000 0.000000 0.000000
# 3 -0.002015 -0.002016 0.011863 0.000000 0.000000 0.000000
# 4 0.000000 0.000000 0.000000 0.044809 0.000000 0.000000
# 5 0.000000 0.000000 0.000000 0.000000 0.044826 0.000000
# 6 0.000000 0.000000 0.000000 0.000000 0.000000 0.015660
#
#
# Mechanical properties :
#
#
# Convention : Reuss Voigt Hill
#
# Bulk Modulus (GPa) = 66.90631 71.59158 69.24895
# Shear Modulus (GPa) = 26.93822 33.89807 30.41814
#
# Velocity S-wave (km/s) = 3.51658 3.94479 3.73683
# Velocity P-wave (km/s) = 6.87042 7.32213 7.09987
#
# Compressibility (1/GPa) = 0.01494627
#
# Stress axis : x y z
#
# Youngs Moduli (GPa) = 60.10216 60.10153 84.29567
#
# Poissons Ratio (x) = 0.66506 0.16989
# Poissons Ratio (y) = 0.66507 0.16992
# Poissons Ratio (z) = 0.12113 0.12115
#
# Static dielectric constant tensor:
#      x y z
#    x 4.432070 0.000000 0.000000 
#    y 0.000000 4.432070 0.000000 
#    z 0.000000 0.000000 3.406550 
# 
# 
# High freq. dielectric constant tensor:
#      x y z
#    x 1.876580 0.000000 0.000000 
#    y 0.000000 1.876580 0.000000 
#    z 0.000000 0.000000 1.802560 
# 
# From -- ./inp_files/11296.got.cif
#   From: 2010.03.12/outbox.cif.g09.slc.cpg/sg142_6_cif.got.tgz:11296.got - 2010.04.03 13:27:16.
