data_PCOD8321631
_publ_section_title
;
Structure prediction by ZEFSAII (Michael W. Deem and Ramdas Pophale) SiO2 
 PCOD8321631
Probable space group: P -3
;
_chemical_formula_sum "Si O2"
_cell_formula_units_Z 42
_cell_length_a 8.650242
_cell_length_b 8.650242
_cell_length_c 28.677875
_cell_angle_alpha 90.000000
_cell_angle_beta 90.000000
_cell_angle_gamma 120.000000
_cell_volume 1858.378251
_symmetry_space_group_name_H-M "P -3"
_symmetry_group_IT_number 147
_symmetry_cell_setting 'hexagonal'
loop_
_space_group_symop_operation_xyz
x,y,z
-y,x-y,z
-x+y,-x,z
-x,-y,-z
y,-x+y,-z
x-y,x,-z
loop_
_atom_site_type_symbol
_atom_site_label
_atom_site_fract_x
_atom_site_fract_y
_atom_site_fract_z
Si Si1 0.317862 0.339212 0.482032
Si Si2 0.888108 0.769976 0.891820
Si Si3 0.348220 0.018638 0.234283
Si Si4 0.338008 0.024306 0.624026
Si Si5 0.969278 0.660507 0.983453
Si Si6 0.653852 0.979275 0.660298
Si Si7 0.696361 0.664908 0.798951
O O1 0.500000 0.500000 0.500000
O O2 0.166720 0.326088 0.516157
O O3 0.271813 0.363727 0.429131
O O4 0.858537 0.634659 0.934970
O O5 0.792923 0.650083 0.846357
O O6 0.798001 0.896531 0.892729
O O7 0.404563 0.090905 0.286748
O O8 0.299012 0.147494 0.205230
O O9 0.506155 0.011243 0.206584
O O10 0.173226 0.822847 0.239901
O O11 0.327857 0.162591 0.659100
O O12 0.504101 0.004536 0.636774
O O13 0.160162 0.836961 0.629422
O O14 0.842533 0.682321 0.021241
O O15 0.000000 0.500000 0.000000
#
# Coordination Sequence:
#
# PCOD8321631 Si02
#       7
#     6   6   6   6   6   6   6
#     4  12  25  44  67  96 130 177 230 289 355 426
#     4  10  20  46  74 100 139 191 231 287 351 401
#     4  12  24  44  70 101 142 184 236 290 354 426
#     4  12  25  44  67  97 136 177 232 289 354 429
#     4  12  24  45  76 112 153 197 246 300 359 424
#     4  12  25  43  67  99 135 182 228 288 355 424
#     4  12  25  45  71 106 143 189 238 294 352 424
#
# _framework density 22.600348
#
# number of rings (size 3 to 8) (size 9 to 14) (size 15 to 20)
#    0.286    0.000    2.857    7.714    0.000    1.143 
#    0.000    0.000    0.000    0.000    0.000    0.000 
#    0.000    0.000    0.000    0.000    0.000    0.000 
#
# Total GULP energy -520652.529686 kJ/mol
# GULP energy per Si atom -12396.488802 kJ/mol
# Density = 2.254891 g / cm^3
# Si number density = 22.600348 Si / 1000 Ang^3
#
#
#
# Elastic Constant Matrix: (Units=GPa)
#
#
# Indices 1 2 3 4 5 6 
#
# 1 133.9150 52.7986 25.1064 -2.2484 -12.6521 0.0000
# 2 52.7986 133.9150 25.1064 2.2484 12.6521 0.0000
# 3 25.1064 25.1064 144.5261 0.0000 0.0000 0.0000
# 4 -2.2484 2.2484 0.0000 30.4840 0.0000 12.6521
# 5 -12.6521 12.6521 0.0000 0.0000 30.4840 -2.2484
# 6 0.0000 0.0000 0.0000 12.6521 -2.2484 40.5582
#
#
#
# Elastic Compliance Matrix: (Units=1/GPa)
#
#
# Indices 1 2 3 4 5 6 
#
# 1 0.009923 -0.004305 -0.000976 0.001049 0.005905 0.000000
# 2 -0.004305 0.009923 -0.000976 -0.001049 -0.005905 0.000000
# 3 -0.000976 -0.000976 0.007258 0.000000 0.000000 0.000000
# 4 0.001049 -0.001049 0.000000 0.037861 0.000000 -0.011811
# 5 0.005905 -0.005905 0.000000 0.000000 0.037861 0.002099
# 6 0.000000 0.000000 0.000000 -0.011811 0.002099 0.028457
#
#
# Mechanical properties :
#
#
# Convention : Reuss Voigt Hill
#
# Bulk Modulus (GPa) = 68.53602 68.70876 68.62239
# Shear Modulus (GPa) = 33.63367 40.92822 37.28094
#
# Velocity S-wave (km/s) = 3.86189 4.26015 4.06590
# Velocity P-wave (km/s) = 7.09061 7.39365 7.24371
#
# Compressibility (1/GPa) = 0.01459087
#
# Stress axis : x y z
#
# Youngs Moduli (GPa) = 100.77310 100.77310 137.77422
#
# Poissons Ratio (x) = 0.43383 0.13446
# Poissons Ratio (y) = 0.43383 0.13446
# Poissons Ratio (z) = 0.09835 0.09835
#
# Static dielectric constant tensor:
#      x y z
#    x 5.581450 0.000000 0.000000 
#    y 0.000000 5.581450 0.000000 
#    z 0.000000 0.000000 4.093600 
# 
# 
# High freq. dielectric constant tensor:
#      x y z
#    x 1.891290 0.000000 0.000000 
#    y 0.000000 1.891290 0.000000 
#    z 0.000000 0.000000 1.900420 
# 
# From -- ./inp_files/1131.got.cif
#   From: 2010.03.12/outbox.cif.g09.slc.cpg/sg147_cif.got.tgz:1131.got - 2010.04.03 13:37:56.
