data_PCOD8321635
_publ_section_title
;
Structure prediction by ZEFSAII (Michael W. Deem and Ramdas Pophale) SiO2 
 PCOD8321635
Probable space group: P -3
;
_chemical_formula_sum "Si O2"
_cell_formula_units_Z 42
_cell_length_a 18.955723
_cell_length_b 18.955723
_cell_length_c 6.865902
_cell_angle_alpha 90.000000
_cell_angle_beta 90.000000
_cell_angle_gamma 120.000000
_cell_volume 2136.529725
_symmetry_space_group_name_H-M "P -3"
_symmetry_group_IT_number 147
_symmetry_cell_setting 'hexagonal'
loop_
_space_group_symop_operation_xyz
x,y,z
-y,x-y,z
-x+y,-x,z
-x,-y,-z
y,-x+y,-z
x-y,x,-z
loop_
_atom_site_type_symbol
_atom_site_label
_atom_site_fract_x
_atom_site_fract_y
_atom_site_fract_z
Si Si1 0.885473 0.058639 0.549402
Si Si2 0.610340 0.533465 0.654050
Si Si3 0.805513 0.118247 0.273068
Si Si4 0.350987 0.337179 0.052024
Si Si5 0.626342 0.068139 0.645109
Si Si6 0.895316 0.169306 0.887309
Si Si7 0.800321 0.214474 0.592273
O O1 0.809897 0.057359 0.434055
O O2 0.907842 0.106406 0.755045
O O3 0.965850 0.104162 0.412985
O O4 0.622315 0.573705 0.866846
O O5 0.533738 0.444782 0.673975
O O6 0.601539 0.594079 0.503222
O O7 0.688315 0.522778 0.602198
O O8 0.713127 0.089728 0.199671
O O9 0.837983 0.202907 0.390727
O O10 0.862019 0.127627 0.092993
O O11 0.253025 0.275790 0.060932
O O12 0.388660 0.347783 0.840443
O O13 0.702879 0.154043 0.576570
O O14 0.831919 0.189648 0.782285
#
# Coordination Sequence:
#
# PCOD8321635 Si02
#       7
#     6   6   6   6   6   6   6
#     4  11  24  38  53  77 115 158 201 248 299 359
#     4  10  23  39  59  92 121 161 203 239 304 369
#     4  11  21  35  59  83 111 148 198 251 292 348
#     4  11  20  37  60  87 112 150 198 250 296 349
#     4  11  21  39  64  87 124 158 195 252 302 364
#     4  10  22  35  57  85 111 147 198 248 301 345
#     4  10  21  37  59  87 120 153 195 243 299 356
#
# _framework density 19.658047
#
# number of rings (size 3 to 8) (size 9 to 14) (size 15 to 20)
#    0.000    1.429    4.286    1.429    2.000    0.000 
#    0.857    0.000    0.000    1.714    0.000    2.000 
#    0.000    0.000    0.000    0.000    0.000    0.000 
#
# Total GULP energy -520390.273518 kJ/mol
# GULP energy per Si atom -12390.244608 kJ/mol
# Density = 1.961330 g / cm^3
# Si number density = 19.658047 Si / 1000 Ang^3
#
#
#
# Elastic Constant Matrix: (Units=GPa)
#
#
# Indices 1 2 3 4 5 6 
#
# 1 87.7229 31.8804 31.0846 -1.3708 0.6880 0.0000
# 2 31.8804 87.7229 31.0846 1.3708 -0.6880 0.0000
# 3 31.0846 31.0846 102.2691 0.0000 0.0000 0.0000
# 4 -1.3708 1.3708 0.0000 24.6640 0.0000 -0.6880
# 5 0.6880 -0.6880 0.0000 0.0000 24.6640 -1.3708
# 6 0.0000 0.0000 0.0000 -0.6880 -1.3708 27.9212
#
#
#
# Elastic Compliance Matrix: (Units=1/GPa)
#
#
# Indices 1 2 3 4 5 6 
#
# 1 0.013949 -0.004020 -0.003018 0.000999 -0.000501 0.000000
# 2 -0.004020 0.013949 -0.003018 -0.000999 0.000501 0.000000
# 3 -0.003018 -0.003018 0.011613 0.000000 0.000000 0.000000
# 4 0.000999 -0.000999 0.000000 0.040684 0.000000 0.001003
# 5 -0.000501 0.000501 0.000000 0.000000 0.040684 0.001997
# 6 0.000000 0.000000 0.000000 0.001003 0.001997 0.035938
#
#
# Mechanical properties :
#
#
# Convention : Reuss Voigt Hill
#
# Bulk Modulus (GPa) = 51.54687 51.75715 51.65201
# Shear Modulus (GPa) = 27.26350 27.69421 27.47885
#
# Velocity S-wave (km/s) = 3.72813 3.75747 3.74283
# Velocity P-wave (km/s) = 6.69408 6.72389 6.70900
#
# Compressibility (1/GPa) = 0.01939982
#
# Stress axis : x y z
#
# Youngs Moduli (GPa) = 71.68796 71.68796 86.11147
#
# Poissons Ratio (x) = 0.28815 0.25990
# Poissons Ratio (y) = 0.28815 0.25990
# Poissons Ratio (z) = 0.21637 0.21637
#
# Static dielectric constant tensor:
#      x y z
#    x 3.535610 0.000000 0.000000 
#    y 0.000000 3.535610 0.000000 
#    z 0.000000 0.000000 3.583140 
# 
# 
# High freq. dielectric constant tensor:
#      x y z
#    x 1.752030 0.000000 0.000000 
#    y 0.000000 1.752030 0.000000 
#    z 0.000000 0.000000 1.775890 
# 
# From -- ./inp_files/249.got.cif
#   From: 2010.03.12/outbox.cif.g09.slc.cpg/sg147_cif.got.tgz:249.got - 2010.04.03 13:37:56.
