data_PCOD8321820
_publ_section_title
;
Structure prediction by ZEFSAII (Michael W. Deem and Ramdas Pophale) SiO2 
 PCOD8321820
Probable space group: R -3
;
_chemical_formula_sum "Si O2"
_cell_formula_units_Z 72
_cell_length_a 14.386108
_cell_length_b 14.386108
_cell_length_c 16.532562
_cell_angle_alpha 90.000000
_cell_angle_beta 90.000000
_cell_angle_gamma 120.000000
_cell_volume 2963.175843
_symmetry_space_group_name_H-M "R -3"
_symmetry_group_IT_number 148
_symmetry_cell_setting 'hexagonal'
loop_
_space_group_symop_operation_xyz
x,y,z
-y,x-y,z
-x+y,-x,z
-x,-y,-z
y,-x+y,-z
x-y,x,-z
2/3+x,1/3+y,1/3+z
2/3-y,1/3+x-y,1/3+z
2/3-x+y,1/3-x,1/3+z
2/3-x,1/3-y,1/3-z
2/3+y,1/3-x+y,1/3-z
2/3+x-y,1/3+x,1/3-z
1/3+x,2/3+y,2/3+z
1/3-y,2/3+x-y,2/3+z
1/3-x+y,2/3-x,2/3+z
1/3-x,2/3-y,2/3-z
1/3+y,2/3-x+y,2/3-z
1/3+x-y,2/3+x,2/3-z
loop_
_atom_site_type_symbol
_atom_site_label
_atom_site_fract_x
_atom_site_fract_y
_atom_site_fract_z
Si Si1 0.932163 0.800875 0.295141
Si Si2 0.391738 0.531467 0.115410
Si Si3 0.102557 0.554247 0.692991
Si Si4 0.767168 0.856864 0.210905
O O1 0.868185 0.679410 0.324703
O O2 0.854255 0.836574 0.254817
O O3 0.995785 0.875958 0.372019
O O4 0.021826 0.816063 0.229404
O O5 0.312683 0.486766 0.193086
O O6 0.436004 0.452635 0.089590
O O7 0.174124 0.682490 0.698639
O O8 0.097312 0.506819 0.781714
#
# Coordination Sequence:
#
# PCOD8321820 Si02
#       4
#    18  18  18  18
#     4  12  27  49  81 115 160 207 265 326 398 472
#     4  12  26  49  79 118 161 208 264 331 396 471
#     4  12  28  50  78 113 156 210 265 324 394 476
#     4  12  28  50  80 117 158 210 263 330 398 474
#
# _framework density 24.298255000000001
#
# number of rings (size 3 to 8) (size 9 to 14) (size 15 to 20)
#    0.000    0.000    2.500    6.250    3.500    2.000 
#    0.000    0.000    0.000    0.000    0.000    0.000 
#    0.000    0.000    0.000    0.000    0.000    0.000 
#
# Total GULP energy -297698.508697 kJ/mol
# GULP energy per Si atom -12404.104529 kJ/mol
# Density = 2.424295 g / cm^3
# Si number density = 24.298255 Si / 1000 Ang^3
#
#
#
# Elastic Constant Matrix: (Units=GPa)
#
#
# Indices 1 2 3 4 5 6 
#
# 1 145.7392 77.9892 47.6486 5.9648 0.0632 0.0000
# 2 77.9892 145.7392 47.6486 -5.9648 -0.0632 0.0000
# 3 47.6486 47.6486 100.4312 0.0000 0.0000 0.0000
# 4 5.9648 -5.9648 0.0000 39.5618 0.0000 -0.0632
# 5 0.0632 -0.0632 0.0000 0.0000 39.5618 5.9648
# 6 0.0000 0.0000 0.0000 -0.0632 5.9648 33.8750
#
#
#
# Elastic Compliance Matrix: (Units=1/GPa)
#
#
# Indices 1 2 3 4 5 6 
#
# 1 0.010382 -0.004780 -0.002658 -0.002286 -0.000024 0.000000
# 2 -0.004780 0.010382 -0.002658 0.002286 0.000024 0.000000
# 3 -0.002658 -0.002658 0.012479 0.000000 0.000000 0.000000
# 4 -0.002286 0.002286 0.000000 0.025966 0.000000 0.000048
# 5 -0.000024 0.000024 0.000000 0.000000 0.025966 -0.004572
# 6 0.000000 0.000000 0.000000 0.000048 -0.004572 0.030325
#
#
# Mechanical properties :
#
#
# Convention : Reuss Voigt Hill
#
# Bulk Modulus (GPa) = 76.61886 82.05361 79.33623
# Shear Modulus (GPa) = 35.70308 37.17458 36.43883
#
# Velocity S-wave (km/s) = 3.83739 3.91567 3.87673
# Velocity P-wave (km/s) = 7.15788 7.36790 7.26365
#
# Compressibility (1/GPa) = 0.01305162
#
# Stress axis : x y z
#
# Youngs Moduli (GPa) = 96.31822 96.31822 80.13527
#
# Poissons Ratio (x) = 0.46045 0.21298
# Poissons Ratio (y) = 0.46045 0.21298
# Poissons Ratio (z) = 0.25598 0.25598
#
# Static dielectric constant tensor:
#      x y z
#    x 4.458540 0.000000 0.000000 
#    y 0.000000 4.458540 0.000000 
#    z 0.000000 0.000000 4.566330 
# 
# 
# High freq. dielectric constant tensor:
#      x y z
#    x 1.974180 0.000000 0.000000 
#    y 0.000000 1.974180 0.000000 
#    z 0.000000 0.000000 1.975290 
# 
# From -- ./inp_files/2536.got.cif
#   From: 2010.03.12/outbox.cif.g09.slc.cpg/sg148_2_cif.got.tgz:2536.got - 2010.04.03 13:38:46.
