data_PCOD8321151
_publ_section_title
;
Structure prediction by ZEFSAII (Michael W. Deem and Ramdas Pophale) SiO2 
 PCOD8321151
Probable space group: I 41/A C D
;
_chemical_formula_sum "Si O2"
_cell_formula_units_Z 160
_cell_length_a 18.310234
_cell_length_b 18.310234
_cell_length_c 23.373076
_cell_angle_alpha 90.000000
_cell_angle_beta 90.000000
_cell_angle_gamma 90.000000
_cell_volume 7836.166592
_symmetry_space_group_name_H-M "I 41/A C D"
_symmetry_group_IT_number 142
_space_group.IT_coordinate_system_code '2'
_symmetry_cell_setting 'tetragonal'
loop_
_space_group_symop_operation_xyz
x,y,z
1/4-y,3/4+x,1/4+z
-x,1/2-y,z
1/4+y,1/4-x,3/4+z
x,-y,1/2-z
1/2-x,y,-z
3/4+y,1/4+x,1/4-z
1/4-y,1/4-x,1/4-z
-x,-y,-z
3/4+y,1/4-x,3/4-z
x,1/2+y,-z
3/4-y,3/4+x,1/4-z
-x,y,1/2+z
1/2+x,-y,z
1/4-y,3/4-x,3/4+z
3/4+y,3/4+x,3/4+z
1/2+x,1/2+y,1/2+z
3/4-y,1/4+x,3/4+z
1/2-x,-y,1/2+z
3/4+y,3/4-x,1/4+z
1/2+x,1/2-y,-z
-x,1/2+y,1/2-z
1/4+y,3/4+x,3/4-z
3/4-y,3/4-x,3/4-z
1/2-x,1/2-y,1/2-z
1/4+y,3/4-x,1/4-z
1/2+x,y,1/2-z
1/4-y,1/4+x,3/4-z
1/2-x,1/2+y,z
x,1/2-y,1/2+z
3/4-y,1/4-x,1/4+z
1/4+y,1/4+x,1/4+z
loop_
_atom_site_type_symbol
_atom_site_label
_atom_site_fract_x
_atom_site_fract_y
_atom_site_fract_z
Si Si1 0.567731 0.630625 0.564245
Si Si2 0.980585 0.863626 0.626159
Si Si3 0.106681 0.371619 0.059794
Si Si4 0.071647 0.974460 0.031442
Si Si5 0.832789 0.765633 0.003056
O O1 0.584856 0.665145 0.625000
O O2 0.480755 0.640698 0.555099
O O3 0.599344 0.547558 0.563074
O O4 0.610931 0.671339 0.514226
O O5 0.923616 0.803060 0.648931
O O6 0.943841 0.912840 0.578084
O O7 0.005962 0.908600 0.681045
O O8 0.133856 0.383856 0.125000
O O9 0.125027 0.440911 0.018091
O O10 0.152387 0.303267 0.037361
O O11 0.000000 0.000000 0.000000
O O12 0.750000 0.793614 0.000000
#
# Coordination Sequence:
#
# PCOD8321151 Si02
#       5
#    32  32  32  32  32
#     4  11  22  40  69  98 128 171 224 277 326 392
#     4  11  22  38  63  93 126 160 210 271 326 387
#     4  11  22  41  68  97 126 169 230 281 319 389
#     4  10  22  40  64  95 132 167 214 271 343 385
#     4  12  25  40  61  96 132 167 217 268 329 386
#
# _framework density 20.418147000000001
#
# number of rings (size 3 to 8) (size 9 to 14) (size 15 to 20)
#    0.000    1.000    4.000    4.200    5.600    0.000 
#    0.000    1.000    0.000    4.800    0.000    0.000 
#    0.000    0.000    0.000    0.000    0.000    0.000 
#
# Total GULP energy -991515.600894 kJ/mol
# GULP energy per Si atom -12393.945011 kJ/mol
# Density = 2.037167 g / cm^3
# Si number density = 20.418147 Si / 1000 Ang^3
#
#
#
# Elastic Constant Matrix: (Units=GPa)
#
#
# Indices 1 2 3 4 5 6 
#
# 1 70.0216 -3.3516 11.3537 0.0000 0.0000 0.0000
# 2 -3.3516 70.0206 11.3532 0.0000 0.0000 0.0000
# 3 11.3537 11.3532 122.0738 0.0000 0.0000 0.0000
# 4 0.0000 0.0000 0.0000 22.9808 0.0000 0.0000
# 5 0.0000 0.0000 0.0000 0.0000 22.9818 0.0000
# 6 0.0000 0.0000 0.0000 0.0000 0.0000 9.5316
#
#
#
# Elastic Compliance Matrix: (Units=1/GPa)
#
#
# Indices 1 2 3 4 5 6 
#
# 1 0.014559 0.000931 -0.001441 0.000000 0.000000 0.000000
# 2 0.000931 0.014560 -0.001441 0.000000 0.000000 0.000000
# 3 -0.001441 -0.001441 0.008460 0.000000 0.000000 0.000000
# 4 0.000000 0.000000 0.000000 0.043515 0.000000 0.000000
# 5 0.000000 0.000000 0.000000 0.000000 0.043513 0.000000
# 6 0.000000 0.000000 0.000000 0.000000 0.000000 0.104915
#
#
# Mechanical properties :
#
#
# Convention : Reuss Voigt Hill
#
# Bulk Modulus (GPa) = 29.69366 33.42518 31.55942
# Shear Modulus (GPa) = 20.43751 27.28288 23.86020
#
# Velocity S-wave (km/s) = 3.16721 3.65938 3.42216
# Velocity P-wave (km/s) = 5.28671 5.85326 5.57718
#
# Compressibility (1/GPa) = 0.03367722
#
# Stress axis : x y z
#
# Youngs Moduli (GPa) = 68.68393 68.68307 118.20694
#
# Poissons Ratio (x) = -0.06391 0.17030
# Poissons Ratio (y) = -0.06391 0.17029
# Poissons Ratio (z) = 0.09895 0.09895
#
# Static dielectric constant tensor:
#      x y z
#    x 3.838060 0.000000 0.000000 
#    y 0.000000 3.838060 0.000000 
#    z 0.000000 0.000000 3.994730 
# 
# 
# High freq. dielectric constant tensor:
#      x y z
#    x 1.780780 0.000000 0.000000 
#    y 0.000000 1.780780 0.000000 
#    z 0.000000 0.000000 1.823260 
# 
# From -- ./inp_files/11265.got.cif
#   From: 2010.03.12/outbox.cif.g09.slc.cpg/sg142_6_cif.got.tgz:11265.got - 2010.04.03 13:27:16.
