data_PCOD8321154
_publ_section_title
;
Structure prediction by ZEFSAII (Michael W. Deem and Ramdas Pophale) SiO2 
 PCOD8321154
Probable space group: I 41/A C D
;
_chemical_formula_sum "Si O2"
_cell_formula_units_Z 168
_cell_length_a 19.660182
_cell_length_b 19.660182
_cell_length_c 21.007084
_cell_angle_alpha 90.000000
_cell_angle_beta 90.000000
_cell_angle_gamma 90.000000
_cell_volume 8119.716009
_symmetry_space_group_name_H-M "I 41/A C D"
_symmetry_group_IT_number 142
_space_group.IT_coordinate_system_code '2'
_symmetry_cell_setting 'tetragonal'
loop_
_space_group_symop_operation_xyz
x,y,z
1/4-y,3/4+x,1/4+z
-x,1/2-y,z
1/4+y,1/4-x,3/4+z
x,-y,1/2-z
1/2-x,y,-z
3/4+y,1/4+x,1/4-z
1/4-y,1/4-x,1/4-z
-x,-y,-z
3/4+y,1/4-x,3/4-z
x,1/2+y,-z
3/4-y,3/4+x,1/4-z
-x,y,1/2+z
1/2+x,-y,z
1/4-y,3/4-x,3/4+z
3/4+y,3/4+x,3/4+z
1/2+x,1/2+y,1/2+z
3/4-y,1/4+x,3/4+z
1/2-x,-y,1/2+z
3/4+y,3/4-x,1/4+z
1/2+x,1/2-y,-z
-x,1/2+y,1/2-z
1/4+y,3/4+x,3/4-z
3/4-y,3/4-x,3/4-z
1/2-x,1/2-y,1/2-z
1/4+y,3/4-x,1/4-z
1/2+x,y,1/2-z
1/4-y,1/4+x,3/4-z
1/2-x,1/2+y,z
x,1/2-y,1/2+z
3/4-y,1/4-x,1/4+z
1/4+y,1/4+x,1/4+z
loop_
_atom_site_type_symbol
_atom_site_label
_atom_site_fract_x
_atom_site_fract_y
_atom_site_fract_z
Si Si1 0.817159 0.179346 0.964158
Si Si2 0.000000 0.250000 0.125000
Si Si3 0.745725 0.268115 0.350023
Si Si4 0.803188 0.655670 0.737382
Si Si5 0.183027 0.562185 0.799940
Si Si6 0.863267 0.712355 0.443208
O O1 0.799307 0.187997 0.890426
O O2 0.877969 0.127062 0.971846
O O3 0.750000 0.152144 0.000000
O O4 0.842103 0.251653 0.991405
O O5 0.933720 0.254285 0.080152
O O6 0.791364 0.220211 0.306794
O O7 0.698803 0.319760 0.310296
O O8 0.696772 0.222632 0.392678
O O9 0.747670 0.597925 0.729624
O O10 0.167765 0.500000 0.750000
O O11 0.202613 0.547388 0.875000
O O12 0.119128 0.614992 0.797017
#
# Coordination Sequence:
#
# PCOD8321154 Si02
#       6
#    32   8  32  32  32  32
#     4  10  23  40  63  91 126 169 214 273 336 400
#     4  12  20  36  68  96 130 176 240 264 334 420
#     4  10  22  41  62  86 132 167 216 272 341 405
#     4  11  23  40  62  95 124 172 221 275 338 410
#     4  12  25  42  69 100 139 178 230 291 356 417
#     4  11  22  42  64  95 130 178 220 282 338 411
#
# _framework density 20.690377999999999
#
# number of rings (size 3 to 8) (size 9 to 14) (size 15 to 20)
#    0.000    1.143    2.857    3.429    2.667    3.810 
#    0.000    0.000    0.000    0.000    0.000    0.000 
#    0.000    0.000    0.000    0.000    0.000    0.000 
#
# Total GULP energy -1041416.462784 kJ/mol
# GULP energy per Si atom -12397.815033 kJ/mol
# Density = 2.064329 g / cm^3
# Si number density = 20.690378 Si / 1000 Ang^3
#
#
#
# Elastic Constant Matrix: (Units=GPa)
#
#
# Indices 1 2 3 4 5 6 
#
# 1 71.9901 15.8581 38.2374 0.0000 0.0000 0.0000
# 2 15.8581 71.9902 38.2373 0.0000 0.0000 0.0000
# 3 38.2374 38.2373 116.6138 0.0000 0.0000 0.0000
# 4 0.0000 0.0000 0.0000 23.9838 0.0000 0.0000
# 5 0.0000 0.0000 0.0000 0.0000 23.9839 0.0000
# 6 0.0000 0.0000 0.0000 0.0000 0.0000 37.1749
#
#
#
# Elastic Compliance Matrix: (Units=1/GPa)
#
#
# Indices 1 2 3 4 5 6 
#
# 1 0.016873 -0.000942 -0.005224 0.000000 0.000000 0.000000
# 2 -0.000942 0.016873 -0.005224 0.000000 0.000000 0.000000
# 3 -0.005224 -0.005224 0.012001 0.000000 0.000000 0.000000
# 4 0.000000 0.000000 0.000000 0.041695 0.000000 0.000000
# 5 0.000000 0.000000 0.000000 0.000000 0.041695 0.000000
# 6 0.000000 0.000000 0.000000 0.000000 0.000000 0.026900
#
#
# Mechanical properties :
#
#
# Convention : Reuss Voigt Hill
#
# Bulk Modulus (GPa) = 43.53941 49.47329 46.50635
# Shear Modulus (GPa) = 26.81386 28.24594 27.52990
#
# Velocity S-wave (km/s) = 3.60385 3.69883 3.65165
# Velocity P-wave (km/s) = 6.19725 6.49654 6.34866
#
# Compressibility (1/GPa) = 0.02296770
#
# Stress axis : x y z
#
# Youngs Moduli (GPa) = 59.26666 59.26687 83.32689
#
# Poissons Ratio (x) = 0.05585 0.43527
# Poissons Ratio (y) = 0.05585 0.43526
# Poissons Ratio (z) = 0.30959 0.30959
#
# Static dielectric constant tensor:
#      x y z
#    x 3.716560 0.000000 0.000000 
#    y 0.000000 3.716560 0.000000 
#    z 0.000000 0.000000 4.012460 
# 
# 
# High freq. dielectric constant tensor:
#      x y z
#    x 1.809880 0.000000 0.000000 
#    y 0.000000 1.809880 0.000000 
#    z 0.000000 0.000000 1.818180 
# 
# From -- ./inp_files/9092.got.cif
#   From: 2010.03.12/outbox.cif.g09.slc.cpg/sg142_5_cif.got.tgz:9092.got - 2010.04.03 13:27:16.
