data_PCOD8321560
_publ_section_title
;
Structure prediction by ZEFSAII (Michael W. Deem and Ramdas Pophale) SiO2 
 PCOD8321560
Probable space group: R 3
;
_chemical_formula_sum "Si O2"
_cell_formula_units_Z 42
_cell_length_a 15.828660
_cell_length_b 15.828660
_cell_length_c 10.221154
_cell_angle_alpha 90.000000
_cell_angle_beta 90.000000
_cell_angle_gamma 120.000000
_cell_volume 2217.782052
_symmetry_space_group_name_H-M "R 3"
_symmetry_group_IT_number 146
_symmetry_cell_setting 'hexagonal'
loop_
_space_group_symop_operation_xyz
x,y,z
-y,x-y,z
-x+y,-x,z
2/3+x,1/3+y,1/3+z
2/3-y,1/3+x-y,1/3+z
2/3-x+y,1/3-x,1/3+z
1/3+x,2/3+y,2/3+z
1/3-y,2/3+x-y,2/3+z
1/3-x+y,2/3-x,2/3+z
loop_
_atom_site_type_symbol
_atom_site_label
_atom_site_fract_x
_atom_site_fract_y
_atom_site_fract_z
Si Si1 0.123037 0.406566 0.103640
Si Si2 0.666668 0.333334 0.399728
Si Si3 0.791542 0.170707 0.773649
Si Si4 0.191023 0.154240 0.632703
Si Si5 0.713992 0.530807 0.535633
Si Si6 0.000000 0.000000 0.757076
O O1 0.044760 0.440917 0.145601
O O2 0.214458 0.463976 0.198453
O O3 0.075833 0.290511 0.109731
O O4 0.157490 0.442305 0.954115
O O5 0.693191 0.439701 0.448318
O O6 0.666668 0.333334 0.245418
O O7 0.810802 0.082197 0.746574
O O8 0.753797 0.197366 0.638749
O O9 0.713082 0.133678 0.888480
O O10 0.087452 0.100553 0.703303
#
# Coordination Sequence:
#
# PCOD8321560 Si02
#       6
#     9   3   9   9   9   3
#     4   9  19  37  67  88 120 164 205 249 308 378
#     4  12  24  40  59 103 123 162 211 263 304 366
#     4   9  21  37  69  91 119 162 217 250 309 370
#     4  11  20  42  64  93 121 165 208 259 306 372
#     4   9  20  38  62  93 122 162 206 252 307 371
#     4  12  24  40  65  88 129 165 205 251 316 375
#
# _framework density 18.937837999999999
#
# number of rings (size 3 to 8) (size 9 to 14) (size 15 to 20)
#    1.286    0.857    2.143    1.286    0.000    3.429 
#    7.714    2.143    0.000    0.000    0.000    0.000 
#    0.000    0.000    0.000    0.000    0.000    0.000 
#
# Total GULP energy -173471.539062 kJ/mol
# GULP energy per Si atom -12390.824219 kJ/mol
# Density = 1.889473 g / cm^3
# Si number density = 18.937838 Si / 1000 Ang^3
#
#
#
# Elastic Constant Matrix: (Units=GPa)
#
#
# Indices 1 2 3 4 5 6 
#
# 1 87.4747 49.8993 28.5956 8.9716 2.7590 0.0000
# 2 49.8993 87.4761 28.5973 -8.9720 -2.7584 -0.0003
# 3 28.5956 28.5973 62.5905 -0.0006 0.0004 -0.0001
# 4 8.9716 -8.9720 -0.0006 27.9277 -0.0001 -2.7584
# 5 2.7590 -2.7584 0.0004 -0.0001 27.9277 8.9718
# 6 0.0000 -0.0003 -0.0001 -2.7584 8.9718 18.7879
#
#
#
# Elastic Compliance Matrix: (Units=1/GPa)
#
#
# Indices 1 2 3 4 5 6 
#
# 1 0.020486 -0.011497 -0.004107 -0.010275 -0.003159 0.000000
# 2 -0.011497 0.020486 -0.004107 0.010275 0.003159 0.000000
# 3 -0.004107 -0.004107 0.019730 0.000000 0.000000 0.000000
# 4 -0.010275 0.010275 0.000000 0.043032 0.000000 0.006318
# 5 -0.003159 0.003159 0.000000 0.000000 0.043032 -0.020549
# 6 0.000000 0.000000 0.000000 0.006318 -0.020549 0.063966
#
#
# Mechanical properties :
#
#
# Convention : Reuss Voigt Hill
#
# Bulk Modulus (GPa) = 46.99226 50.19174 48.59200
# Shear Modulus (GPa) = 19.43653 23.62527 21.53090
#
# Velocity S-wave (km/s) = 3.20712 3.53585 3.37549
# Velocity P-wave (km/s) = 6.21144 6.57500 6.39580
#
# Compressibility (1/GPa) = 0.02128010
#
# Stress axis : x y z
#
# Youngs Moduli (GPa) = 48.81375 48.81364 50.68505
#
# Poissons Ratio (x) = 0.56120 0.20814
# Poissons Ratio (y) = 0.56120 0.20818
# Poissons Ratio (z) = 0.20046 0.20050
#
# Static dielectric constant tensor:
#      x y z
#    x 3.298710 0.000010 0.000000 
#    y 0.000010 3.298700 -0.000010 
#    z 0.000000 -0.000010 3.341520 
# 
# 
# High freq. dielectric constant tensor:
#      x y z
#    x 1.726920 0.000000 0.000000 
#    y 0.000000 1.726920 0.000000 
#    z 0.000000 0.000000 1.726700 
# 
# From -- ./inp_files/621.got.cif
#   From: 2010.06.25/outbox.cif.g09.slc.cpg/sg146_cif.got.tgz:621.got - 2010.06.28 11:17:22.
