data_PCOD8321181
_publ_section_title
;
Structure prediction by ZEFSAII (Michael W. Deem and Ramdas Pophale) SiO2 
 PCOD8321181
Probable space group: I 41/A C D
;
_chemical_formula_sum "Si O2"
_cell_formula_units_Z 64
_cell_length_a 14.122335
_cell_length_b 14.122335
_cell_length_c 12.473564
_cell_angle_alpha 90.000000
_cell_angle_beta 90.000000
_cell_angle_gamma 90.000000
_cell_volume 2487.731918
_symmetry_space_group_name_H-M "I 41/A C D"
_symmetry_group_IT_number 142
_space_group.IT_coordinate_system_code '2'
_symmetry_cell_setting 'tetragonal'
loop_
_space_group_symop_operation_xyz
x,y,z
1/4-y,3/4+x,1/4+z
-x,1/2-y,z
1/4+y,1/4-x,3/4+z
x,-y,1/2-z
1/2-x,y,-z
3/4+y,1/4+x,1/4-z
1/4-y,1/4-x,1/4-z
-x,-y,-z
3/4+y,1/4-x,3/4-z
x,1/2+y,-z
3/4-y,3/4+x,1/4-z
-x,y,1/2+z
1/2+x,-y,z
1/4-y,3/4-x,3/4+z
3/4+y,3/4+x,3/4+z
1/2+x,1/2+y,1/2+z
3/4-y,1/4+x,3/4+z
1/2-x,-y,1/2+z
3/4+y,3/4-x,1/4+z
1/2+x,1/2-y,-z
-x,1/2+y,1/2-z
1/4+y,3/4+x,3/4-z
3/4-y,3/4-x,3/4-z
1/2-x,1/2-y,1/2-z
1/4+y,3/4-x,1/4-z
1/2+x,y,1/2-z
1/4-y,1/4+x,3/4-z
1/2-x,1/2+y,z
x,1/2-y,1/2+z
3/4-y,1/4-x,1/4+z
1/4+y,1/4+x,1/4+z
loop_
_atom_site_type_symbol
_atom_site_label
_atom_site_fract_x
_atom_site_fract_y
_atom_site_fract_z
Si Si1 0.105216 0.784012 0.771865
Si Si2 0.251903 0.354861 0.379012
O O1 0.102612 0.852612 0.875000
O O2 0.147378 0.841807 0.670905
O O3 0.171136 0.695182 0.801746
O O4 0.000000 0.750000 0.741670
O O5 0.250000 0.314243 0.500000
O O6 0.284468 0.465533 0.375000
#
# Coordination Sequence:
#
# PCOD8321181 Si02
#       2
#    32  32
#     4  10  22  47  76 112 152 214 265 333 419 491
#     4  11  25  44  71 117 156 199 273 330 408 508
#
# _framework density 25.726244999999999
#
# number of rings (size 3 to 8) (size 9 to 14) (size 15 to 20)
#    0.000    1.500    5.000    0.000    0.000   12.000 
#    0.000    0.000    0.000    0.000    0.000    0.000 
#    0.000    0.000    0.000    0.000    0.000    0.000 
#
# Total GULP energy -396782.950339 kJ/mol
# GULP energy per Si atom -12399.467198 kJ/mol
# Density = 2.566769 g / cm^3
# Si number density = 25.726245 Si / 1000 Ang^3
#
#
#
# Elastic Constant Matrix: (Units=GPa)
#
#
# Indices 1 2 3 4 5 6 
#
# 1 139.8876 58.3558 75.5355 0.0000 0.0000 0.0000
# 2 58.3558 139.8857 75.5358 0.0000 0.0000 0.0000
# 3 75.5355 75.5358 209.5979 0.0000 0.0000 0.0000
# 4 0.0000 0.0000 0.0000 42.3330 0.0000 0.0000
# 5 0.0000 0.0000 0.0000 0.0000 42.3335 0.0000
# 6 0.0000 0.0000 0.0000 0.0000 0.0000 29.0285
#
#
#
# Elastic Compliance Matrix: (Units=1/GPa)
#
#
# Indices 1 2 3 4 5 6 
#
# 1 0.009610 -0.002656 -0.002506 0.000000 0.000000 0.000000
# 2 -0.002656 0.009610 -0.002506 0.000000 0.000000 0.000000
# 3 -0.002506 -0.002506 0.006577 0.000000 0.000000 0.000000
# 4 0.000000 0.000000 0.000000 0.023622 0.000000 0.000000
# 5 0.000000 0.000000 0.000000 0.000000 0.023622 0.000000
# 6 0.000000 0.000000 0.000000 0.000000 0.000000 0.034449
#
#
# Mechanical properties :
#
#
# Convention : Reuss Voigt Hill
#
# Bulk Modulus (GPa) = 95.59263 100.91396 98.25330
# Shear Modulus (GPa) = 39.58428 41.40194 40.49311
#
# Velocity S-wave (km/s) = 3.92685 4.01599 3.97167
# Velocity P-wave (km/s) = 7.60253 7.79843 7.70110
#
# Compressibility (1/GPa) = 0.01046106
#
# Stress axis : x y z
#
# Youngs Moduli (GPa) = 104.06217 104.06027 152.03571
#
# Poissons Ratio (x) = 0.27634 0.38102
# Poissons Ratio (y) = 0.27634 0.38103
# Poissons Ratio (z) = 0.26079 0.26080
#
# Static dielectric constant tensor:
#      x y z
#    x 4.700940 0.000000 0.000000 
#    y 0.000000 4.700960 0.000000 
#    z 0.000000 0.000000 4.970200 
# 
# 
# High freq. dielectric constant tensor:
#      x y z
#    x 2.013300 0.000000 0.000000 
#    y 0.000000 2.013300 0.000000 
#    z 0.000000 0.000000 2.048920 
# 
# From -- ./inp_files/2853.got.cif
#   From: 2010.03.12/outbox.cif.g09.slc.cpg/sg142_2_cif.got.tgz:2853.got - 2010.04.03 13:27:16.
