data_PCOD8321633
_publ_section_title
;
Structure prediction by ZEFSAII (Michael W. Deem and Ramdas Pophale) SiO2 
 PCOD8321633
Probable space group: P -3
;
_chemical_formula_sum "Si O2"
_cell_formula_units_Z 34
_cell_length_a 11.036395
_cell_length_b 11.036395
_cell_length_c 16.291111
_cell_angle_alpha 90.000000
_cell_angle_beta 90.000000
_cell_angle_gamma 120.000000
_cell_volume 1718.445670
_symmetry_space_group_name_H-M "P -3"
_symmetry_group_IT_number 147
_symmetry_cell_setting 'hexagonal'
loop_
_space_group_symop_operation_xyz
x,y,z
-y,x-y,z
-x+y,-x,z
-x,-y,-z
y,-x+y,-z
x-y,x,-z
loop_
_atom_site_type_symbol
_atom_site_label
_atom_site_fract_x
_atom_site_fract_y
_atom_site_fract_z
Si Si1 0.507940 0.492060 0.192069
Si Si2 0.286302 0.000014 0.499999
Si Si3 0.666668 0.333334 0.191264
Si Si4 0.273704 0.274697 0.093009
Si Si5 0.491328 0.508687 0.613698
Si Si6 0.333335 0.666667 0.615323
Si Si7 0.999004 0.725302 0.906990
O O1 0.587669 0.412337 0.159763
O O2 0.353580 0.406454 0.153928
O O3 0.497457 0.502535 0.289290
O O4 0.593545 0.646423 0.153931
O O5 0.396119 0.043157 0.576372
O O6 0.133725 0.866296 0.520011
O O7 0.352981 0.956888 0.423623
O O8 0.666668 0.333334 0.287931
O O9 0.300329 0.150164 0.120677
O O10 0.109099 0.218196 0.099911
O O11 0.324277 0.324274 0.999999
O O12 0.411568 0.588522 0.582714
#
# Coordination Sequence:
#
# PCOD8321633 Si02
#       7
#     6   6   2   6   6   2   6
#     4  11  20  38  60  85 113 150 196 244 287 346
#     4  11  23  40  62  90 119 151 188 238 292 347
#     4   9  18  30  60  84  99 142 200 241 273 336
#     4  10  21  37  58  84 117 157 199 242 290 345
#     4  10  22  38  62  86 114 150 195 237 286 350
#     4   9  15  36  60  81 108 142 194 235 270 336
#     4  10  21  37  58  84 117 157 199 242 290 345
#
# _framework density 19.785321
#
# number of rings (size 3 to 8) (size 9 to 14) (size 15 to 20)
#    0.000    1.765    3.529    1.059    0.000    2.824 
#    2.118    0.000    0.000    4.235    0.000    0.000 
#    0.000    0.000    0.000    0.000    0.000    0.000 
#
# Total GULP energy -421504.817429 kJ/mol
# GULP energy per Si atom -12397.200513 kJ/mol
# Density = 1.974029 g / cm^3
# Si number density = 19.785321 Si / 1000 Ang^3
#
#
#
# Elastic Constant Matrix: (Units=GPa)
#
#
# Indices 1 2 3 4 5 6 
#
# 1 80.4735 29.2880 40.7171 -2.0569 -0.0003 -0.0001
# 2 29.2880 80.4735 40.7171 2.0568 0.0002 -0.0001
# 3 40.7171 40.7171 127.2942 0.0000 -0.0001 -0.0001
# 4 -2.0569 2.0568 0.0000 24.5468 -0.0001 0.0002
# 5 -0.0003 0.0002 -0.0001 -0.0001 24.5468 -2.0569
# 6 -0.0001 -0.0001 -0.0001 0.0002 -2.0569 25.5928
#
#
#
# Elastic Compliance Matrix: (Units=1/GPa)
#
#
# Indices 1 2 3 4 5 6 
#
# 1 0.015807 -0.003862 -0.003821 0.001648 0.000000 0.000000
# 2 -0.003862 0.015807 -0.003821 -0.001648 0.000000 0.000000
# 3 -0.003821 -0.003821 0.010300 0.000000 0.000000 0.000000
# 4 0.001648 -0.001648 0.000000 0.041015 0.000000 0.000000
# 5 0.000000 0.000000 0.000000 0.000000 0.041015 0.003296
# 6 0.000000 0.000000 0.000000 0.000000 0.003296 0.039338
#
#
# Mechanical properties :
#
#
# Convention : Reuss Voigt Hill
#
# Bulk Modulus (GPa) = 52.88941 56.63174 54.76057
# Shear Modulus (GPa) = 25.96150 26.77188 26.36669
#
# Velocity S-wave (km/s) = 3.62630 3.68247 3.65449
# Velocity P-wave (km/s) = 6.65756 6.83857 6.74867
#
# Compressibility (1/GPa) = 0.01890738
#
# Stress axis : x y z
#
# Youngs Moduli (GPa) = 63.26166 63.26162 97.08536
#
# Poissons Ratio (x) = 0.24431 0.37096
# Poissons Ratio (y) = 0.24431 0.37096
# Poissons Ratio (z) = 0.24172 0.24172
#
# Static dielectric constant tensor:
#      x y z
#    x 3.568680 0.000010 0.000000 
#    y 0.000010 3.568670 0.000000 
#    z 0.000000 0.000000 3.378480 
# 
# 
# High freq. dielectric constant tensor:
#      x y z
#    x 1.768570 0.000000 0.000000 
#    y 0.000000 1.768570 0.000000 
#    z 0.000000 0.000000 1.760290 
# 
# From -- ./inp_files/954.got.cif
#   From: 2010.03.12/outbox.cif.g09.slc.cpg/sg147_cif.got.tgz:954.got - 2010.04.03 13:37:56.
