data_PCOD8321399
_publ_section_title
;
Structure prediction by ZEFSAII (Michael W. Deem and Ramdas Pophale) SiO2 
 PCOD8321399
Probable space group: P 31
;
_chemical_formula_sum "Si O2"
_cell_formula_units_Z 15
_cell_length_a 10.782785
_cell_length_b 10.782785
_cell_length_c 6.191103
_cell_angle_alpha 90.000000
_cell_angle_beta 90.000000
_cell_angle_gamma 120.000000
_cell_volume 623.391035
_symmetry_space_group_name_H-M "P 31"
_symmetry_group_IT_number 144
_symmetry_cell_setting 'hexagonal'
loop_
_space_group_symop_operation_xyz
x,y,z
-y,x-y,1/3+z
-x+y,-x,2/3+z
loop_
_atom_site_type_symbol
_atom_site_label
_atom_site_fract_x
_atom_site_fract_y
_atom_site_fract_z
Si Si1 0.670961 0.455948 0.645660
Si Si2 0.408958 0.456346 0.473432
Si Si3 0.153424 0.248530 0.766038
Si Si4 0.581840 0.772563 0.486454
Si Si5 0.943404 0.165650 0.397611
O O1 0.590248 0.359026 0.850143
O O2 0.555589 0.451443 0.472564
O O3 0.773579 0.609105 0.751404
O O4 0.292542 0.323176 0.613239
O O5 0.452990 0.616369 0.559576
O O6 0.347206 0.449314 0.232226
O O7 0.002317 0.159404 0.637676
O O8 0.165606 0.384876 0.897470
O O9 0.152604 0.137004 0.938962
O O10 0.728754 0.810504 0.599707
#
# Coordination Sequence:
#
# PCOD8321399 Si02
#       5
#     3   3   3   3   3
#     4  11  24  43  75 109 151 193 246 307 364 440
#     4  10  24  44  67 111 144 192 242 298 366 429
#     4  11  24  47  75 101 152 185 248 295 370 441
#     4  10  25  41  73 104 146 191 241 301 359 442
#     4  10  25  47  70 111 139 199 239 305 365 434
#
# _framework density 24.061942999999999
#
# number of rings (size 3 to 8) (size 9 to 14) (size 15 to 20)
#    0.000    1.600    2.000    0.000    5.600   11.200 
#    0.000    0.000    0.000    0.000    0.000    0.000 
#    0.000    0.000    0.000    0.000    0.000    0.000 
#
# Total GULP energy -185900.023595 kJ/mol
# GULP energy per Si atom -12393.334906 kJ/mol
# Density = 2.400718 g / cm^3
# Si number density = 24.061943 Si / 1000 Ang^3
#
#
#
# Elastic Constant Matrix: (Units=GPa)
#
#
# Indices 1 2 3 4 5 6 
#
# 1 113.0966 56.0666 56.7277 9.0370 6.5207 0.0000
# 2 56.0666 113.0966 56.7277 -9.0370 -6.5207 0.0000
# 3 56.7277 56.7277 120.0389 0.0000 0.0000 0.0000
# 4 9.0370 -9.0370 0.0000 43.4326 0.0000 -6.5207
# 5 6.5207 -6.5207 0.0000 0.0000 43.4326 9.0370
# 6 0.0000 0.0000 0.0000 -6.5207 9.0370 28.5150
#
#
#
# Elastic Compliance Matrix: (Units=1/GPa)
#
#
# Indices 1 2 3 4 5 6 
#
# 1 0.014072 -0.005417 -0.004090 -0.004055 -0.002926 0.000000
# 2 -0.005417 0.014072 -0.004090 0.004055 0.002926 0.000000
# 3 -0.004090 -0.004090 0.012196 0.000000 0.000000 0.000000
# 4 -0.004055 0.004055 0.000000 0.025590 0.000000 0.005852
# 5 -0.002926 0.002926 0.000000 0.000000 0.025590 -0.008110
# 6 0.000000 0.000000 0.000000 0.005852 -0.008110 0.038978
#
#
# Mechanical properties :
#
#
# Convention : Reuss Voigt Hill
#
# Bulk Modulus (GPa) = 76.07131 76.14177 76.10654
# Shear Modulus (GPa) = 30.85017 34.85673 32.85345
#
# Velocity S-wave (km/s) = 3.58455 3.81021 3.69910
# Velocity P-wave (km/s) = 6.98680 7.14631 7.06700
#
# Compressibility (1/GPa) = 0.01314556
#
# Stress axis : x y z
#
# Youngs Moduli (GPa) = 71.06468 71.06468 81.99249
#
# Poissons Ratio (x) = 0.38497 0.33534
# Poissons Ratio (y) = 0.38497 0.33534
# Poissons Ratio (z) = 0.29065 0.29065
#
# Static dielectric constant tensor:
#      x y z
#    x 4.502830 0.000000 0.000000 
#    y 0.000000 4.502830 0.000000 
#    z 0.000000 0.000000 4.405970 
# 
# 
# High freq. dielectric constant tensor:
#      x y z
#    x 1.962880 0.000000 0.000000 
#    y 0.000000 1.962880 0.000000 
#    z 0.000000 0.000000 1.941030 
# 
# From -- ./inp_files/74.got.cif
#   From: 2010.03.12/outbox.cif.g09.slc.cpg/sg144_cif.got.tgz:74.got - 2010.04.03 13:34:42.
