data_PCOD8321416
_publ_section_title
;
Structure prediction by ZEFSAII (Michael W. Deem and Ramdas Pophale) SiO2 
 PCOD8321416
Probable space group: P 31
;
_chemical_formula_sum "Si O2"
_cell_formula_units_Z 21
_cell_length_a 9.208898
_cell_length_b 9.208898
_cell_length_c 11.720047
_cell_angle_alpha 90.000000
_cell_angle_beta 90.000000
_cell_angle_gamma 120.000000
_cell_volume 860.746589
_symmetry_space_group_name_H-M "P 31"
_symmetry_group_IT_number 144
_symmetry_cell_setting 'hexagonal'
loop_
_space_group_symop_operation_xyz
x,y,z
-y,x-y,1/3+z
-x+y,-x,2/3+z
loop_
_atom_site_type_symbol
_atom_site_label
_atom_site_fract_x
_atom_site_fract_y
_atom_site_fract_z
Si Si1 0.751631 0.726599 0.637920
Si Si2 0.728120 0.973138 0.777406
Si Si3 0.079428 0.217471 0.677905
Si Si4 0.721494 0.895640 0.261519
Si Si5 0.618043 0.584753 0.409077
Si Si6 0.739354 0.334452 0.429128
Si Si7 0.549417 0.507418 0.980146
O O1 0.683346 0.722548 0.510757
O O2 0.693204 0.532500 0.659418
O O3 0.955942 0.847933 0.653910
O O4 0.662909 0.785765 0.729786
O O5 0.566396 0.995542 0.767297
O O6 0.877829 0.091330 0.689875
O O7 0.809525 0.989105 0.905181
O O8 0.173549 0.234219 0.795185
O O9 0.097594 0.397460 0.655401
O O10 0.656552 0.702757 0.297283
O O11 0.572452 0.927498 0.291917
O O12 0.732649 0.500064 0.397130
O O13 0.559274 0.159719 0.428004
O O14 0.824570 0.347789 0.548387
#
# Coordination Sequence:
#
# PCOD8321416 Si02
#       7
#     3   3   3   3   3   3   3
#     4  11  27  49  75 107 159 190 249 315 380 441
#     4  12  29  48  76 114 152 202 254 315 377 455
#     4  12  28  45  79 109 154 200 256 308 383 452
#     4  11  29  47  76 111 155 197 252 314 383 445
#     4  12  28  47  81 112 149 199 258 308 375 463
#     4  11  22  47  74 106 139 197 248 302 369 444
#     4  11  25  45  75 107 148 195 245 314 369 442
#
# _framework density 24.397424999999998
#
# number of rings (size 3 to 8) (size 9 to 14) (size 15 to 20)
#    0.000    0.571    5.714    0.857   12.000    3.429 
#    0.000    0.000    0.000    0.000    0.000    0.000 
#    0.000    0.000    0.000    0.000    0.000    0.000 
#
# Total GULP energy -260247.377392 kJ/mol
# GULP energy per Si atom -12392.732257 kJ/mol
# Density = 2.434190 g / cm^3
# Si number density = 24.397425 Si / 1000 Ang^3
#
#
#
# Elastic Constant Matrix: (Units=GPa)
#
#
# Indices 1 2 3 4 5 6 
#
# 1 91.1664 34.8636 32.3012 4.5010 4.3843 0.0000
# 2 34.8636 91.1664 32.3012 -4.5010 -4.3843 0.0000
# 3 32.3012 32.3012 93.6913 0.0000 0.0000 0.0000
# 4 4.5010 -4.5010 0.0000 36.5995 0.0000 -4.3843
# 5 4.3843 -4.3843 0.0000 0.0000 36.5995 4.5010
# 6 0.0000 0.0000 0.0000 -4.3843 4.5010 28.1514
#
#
#
# Elastic Compliance Matrix: (Units=1/GPa)
#
#
# Indices 1 2 3 4 5 6 
#
# 1 0.014053 -0.004415 -0.003323 -0.002271 -0.002212 0.000000
# 2 -0.004415 0.014053 -0.003323 0.002271 0.002212 0.000000
# 3 -0.003323 -0.003323 0.012964 0.000000 0.000000 0.000000
# 4 -0.002271 0.002271 0.000000 0.028412 0.000000 0.004425
# 5 -0.002212 0.002212 0.000000 0.000000 0.028412 -0.004543
# 6 0.000000 0.000000 0.000000 0.004425 -0.004543 0.036938
#
#
# Mechanical properties :
#
#
# Convention : Reuss Voigt Hill
#
# Bulk Modulus (GPa) = 52.77291 52.77291 52.77291
# Shear Modulus (GPa) = 30.62408 32.04060 31.33234
#
# Velocity S-wave (km/s) = 3.54675 3.62785 3.58753
# Velocity P-wave (km/s) = 6.20081 6.26306 6.23201
#
# Compressibility (1/GPa) = 0.01894912
#
# Stress axis : x y z
#
# Youngs Moduli (GPa) = 71.15749 71.15749 77.13393
#
# Poissons Ratio (x) = 0.31420 0.25630
# Poissons Ratio (y) = 0.31420 0.25630
# Poissons Ratio (z) = 0.23644 0.23644
#
# Static dielectric constant tensor:
#      x y z
#    x 4.459220 0.000000 0.000000 
#    y 0.000000 4.459220 0.000000 
#    z 0.000000 0.000000 4.391220 
# 
# 
# High freq. dielectric constant tensor:
#      x y z
#    x 1.973390 0.000000 0.000000 
#    y 0.000000 1.973390 0.000000 
#    z 0.000000 0.000000 1.968100 
# 
# From -- ./inp_files/611.got.cif
#   From: 2010.03.12/outbox.cif.g09.slc.cpg/sg144_cif.got.tgz:611.got - 2010.04.03 13:34:42.
