data_PCOD8321639
_publ_section_title
;
Structure prediction by ZEFSAII (Michael W. Deem and Ramdas Pophale) SiO2 
 PCOD8321639
Probable space group: P -3
;
_chemical_formula_sum "Si O2"
_cell_formula_units_Z 36
_cell_length_a 11.349108
_cell_length_b 11.349108
_cell_length_c 14.803225
_cell_angle_alpha 90.000000
_cell_angle_beta 90.000000
_cell_angle_gamma 120.000000
_cell_volume 1651.240871
_symmetry_space_group_name_H-M "P -3"
_symmetry_group_IT_number 147
_symmetry_cell_setting 'hexagonal'
loop_
_space_group_symop_operation_xyz
x,y,z
-y,x-y,z
-x+y,-x,z
-x,-y,-z
y,-x+y,-z
x-y,x,-z
loop_
_atom_site_type_symbol
_atom_site_label
_atom_site_fract_x
_atom_site_fract_y
_atom_site_fract_z
Si Si1 0.265336 0.031517 0.740870
Si Si2 0.049717 0.418657 0.393456
Si Si3 0.234498 0.296364 0.983047
Si Si4 0.704481 0.603977 0.564022
Si Si5 0.489064 0.814750 0.135122
Si Si6 0.249060 0.278341 0.783392
O O1 0.267146 0.039832 0.631799
O O2 0.420037 0.100374 0.779477
O O3 0.198142 0.116945 0.781237
O O4 0.179442 0.875009 0.766372
O O5 0.203842 0.466808 0.425247
O O6 0.035504 0.550342 0.401871
O O7 0.945155 0.297913 0.460626
O O8 0.013419 0.366599 0.291044
O O9 0.303062 0.333731 0.883755
O O10 0.248941 0.173804 0.025722
O O11 0.316666 0.431573 0.043130
O O12 0.341286 0.804491 0.138788
#
# Coordination Sequence:
#
# PCOD8321639 Si02
#       6
#     6   6   6   6   6   6
#     4  11  22  40  66  94 130 163 217 274 323 396
#     4  10  22  40  63  94 131 167 224 257 330 386
#     4  12  22  41  64  95 125 169 214 278 331 394
#     4  10  22  38  62  92 124 174 205 272 309 392
#     4  10  25  42  60  93 126 172 225 266 325 400
#     4  11  22  39  63  96 120 168 210 271 330 379
#
# _framework density 21.801784999999999
#
# number of rings (size 3 to 8) (size 9 to 14) (size 15 to 20)
#    0.333    1.000    3.333    1.833    4.667    0.667 
#    3.000    0.000    0.000    6.000    0.000    0.000 
#    0.000    0.000    0.000    0.000    0.000    0.000 
#
# Total GULP energy -446249.471578 kJ/mol
# GULP energy per Si atom -12395.818655 kJ/mol
# Density = 2.175216 g / cm^3
# Si number density = 21.801785 Si / 1000 Ang^3
#
#
#
# Elastic Constant Matrix: (Units=GPa)
#
#
# Indices 1 2 3 4 5 6 
#
# 1 61.2862 1.2743 22.4986 1.6913 2.9629 0.0000
# 2 1.2743 61.2862 22.4986 -1.6913 -2.9629 0.0000
# 3 22.4986 22.4986 142.7673 0.0000 0.0000 0.0000
# 4 1.6913 -1.6913 0.0000 30.4821 0.0000 -2.9629
# 5 2.9629 -2.9629 0.0000 0.0000 30.4821 1.6913
# 6 0.0000 0.0000 0.0000 -2.9629 1.6913 30.0060
#
#
#
# Elastic Compliance Matrix: (Units=1/GPa)
#
#
# Indices 1 2 3 4 5 6 
#
# 1 0.017453 0.000575 -0.002841 -0.000936 -0.001641 0.000000
# 2 0.000575 0.017453 -0.002841 0.000936 0.001641 0.000000
# 3 -0.002841 -0.002841 0.007900 0.000000 0.000000 0.000000
# 4 -0.000936 0.000936 0.000000 0.033229 0.000000 0.003281
# 5 -0.001641 0.001641 0.000000 0.000000 0.033229 -0.001873
# 6 0.000000 0.000000 0.000000 0.003281 -0.001873 0.033756
#
#
# Mechanical properties :
#
#
# Convention : Reuss Voigt Hill
#
# Bulk Modulus (GPa) = 30.68268 39.76473 35.22371
# Shear Modulus (GPa) = 30.46956 32.79860 31.63408
#
# Velocity S-wave (km/s) = 3.74247 3.88287 3.81331
# Velocity P-wave (km/s) = 5.72527 6.19524 5.96489
#
# Compressibility (1/GPa) = 0.03259167
#
# Stress axis : x y z
#
# Youngs Moduli (GPa) = 57.29662 57.29662 126.58498
#
# Poissons Ratio (x) = -0.03294 0.35963
# Poissons Ratio (y) = -0.03294 0.35963
# Poissons Ratio (z) = 0.16278 0.16278
#
# Static dielectric constant tensor:
#      x y z
#    x 3.719080 0.000000 0.000000 
#    y 0.000000 3.719080 0.000000 
#    z 0.000000 0.000000 4.133400 
# 
# 
# High freq. dielectric constant tensor:
#      x y z
#    x 1.842480 0.000000 0.000000 
#    y 0.000000 1.842480 0.000000 
#    z 0.000000 0.000000 1.876340 
# 
# From -- ./inp_files/935.got.cif
#   From: 2010.03.12/outbox.cif.g09.slc.cpg/sg147_cif.got.tgz:935.got - 2010.04.03 13:37:56.
