data_PCOD8321122
_publ_section_title
;
Structure prediction by ZEFSAII (Michael W. Deem and Ramdas Pophale) SiO2 
 PCOD8321122
Probable space group: I 41/A C D
;
_chemical_formula_sum "Si O2"
_cell_formula_units_Z 128
_cell_length_a 17.004269
_cell_length_b 17.004269
_cell_length_c 22.352856
_cell_angle_alpha 90.000000
_cell_angle_beta 90.000000
_cell_angle_gamma 90.000000
_cell_volume 6463.220219
_symmetry_space_group_name_H-M "I 41/A C D"
_symmetry_group_IT_number 142
_space_group.IT_coordinate_system_code '2'
_symmetry_cell_setting 'tetragonal'
loop_
_space_group_symop_operation_xyz
x,y,z
1/4-y,3/4+x,1/4+z
-x,1/2-y,z
1/4+y,1/4-x,3/4+z
x,-y,1/2-z
1/2-x,y,-z
3/4+y,1/4+x,1/4-z
1/4-y,1/4-x,1/4-z
-x,-y,-z
3/4+y,1/4-x,3/4-z
x,1/2+y,-z
3/4-y,3/4+x,1/4-z
-x,y,1/2+z
1/2+x,-y,z
1/4-y,3/4-x,3/4+z
3/4+y,3/4+x,3/4+z
1/2+x,1/2+y,1/2+z
3/4-y,1/4+x,3/4+z
1/2-x,-y,1/2+z
3/4+y,3/4-x,1/4+z
1/2+x,1/2-y,-z
-x,1/2+y,1/2-z
1/4+y,3/4+x,3/4-z
3/4-y,3/4-x,3/4-z
1/2-x,1/2-y,1/2-z
1/4+y,3/4-x,1/4-z
1/2+x,y,1/2-z
1/4-y,1/4+x,3/4-z
1/2-x,1/2+y,z
x,1/2-y,1/2+z
3/4-y,1/4-x,1/4+z
1/4+y,1/4+x,1/4+z
loop_
_atom_site_type_symbol
_atom_site_label
_atom_site_fract_x
_atom_site_fract_y
_atom_site_fract_z
Si Si1 0.466206 0.169301 0.440074
Si Si2 0.658257 0.086302 0.725855
Si Si3 0.604751 0.324744 0.635546
Si Si4 0.072649 0.443682 0.508714
O O1 0.500000 0.250000 0.467203
O O2 0.429659 0.179659 0.375000
O O3 0.399441 0.136875 0.483509
O O4 0.543305 0.112764 0.437311
O O5 0.624214 0.090576 0.659245
O O6 0.752661 0.102194 0.724902
O O7 0.641895 0.000000 0.750000
O O8 0.516561 0.358058 0.632575
O O9 0.640340 0.339363 0.700823
O O10 0.000000 0.500000 0.500000
#
# Coordination Sequence:
#
# PCOD8321122 Si02
#       4
#    32  32  32  32
#     4  10  21  41  66  90 127 170 217 271 326 391
#     4  11  25  38  64  97 133 177 219 270 339 396
#     4  11  21  39  69  95 125 174 230 272 320 402
#     4  10  21  40  60  91 134 162 211 277 330 383
#
# _framework density 19.804369000000001
#
# number of rings (size 3 to 8) (size 9 to 14) (size 15 to 20)
#    0.000    1.500    5.000    1.500    7.000    0.000 
#    0.000   10.000    0.000    0.000    0.000    0.000 
#    0.000    0.000    0.000    0.000    0.000    0.000 
#
# Total GULP energy -793252.055902 kJ/mol
# GULP energy per Si atom -12394.563373 kJ/mol
# Density = 1.975929 g / cm^3
# Si number density = 19.804369 Si / 1000 Ang^3
#
#
#
# Elastic Constant Matrix: (Units=GPa)
#
#
# Indices 1 2 3 4 5 6 
#
# 1 99.1737 42.7213 34.2939 0.0000 0.0000 0.0000
# 2 42.7213 99.1737 34.2939 0.0000 0.0000 0.0000
# 3 34.2939 34.2939 114.4876 0.0000 0.0000 0.0000
# 4 0.0000 0.0000 0.0000 30.9412 0.0000 0.0000
# 5 0.0000 0.0000 0.0000 0.0000 30.9412 0.0000
# 6 0.0000 0.0000 0.0000 0.0000 0.0000 34.4814
#
#
#
# Elastic Compliance Matrix: (Units=1/GPa)
#
#
# Indices 1 2 3 4 5 6 
#
# 1 0.012977 -0.004737 -0.002468 0.000000 0.000000 0.000000
# 2 -0.004737 0.012977 -0.002468 0.000000 0.000000 0.000000
# 3 -0.002468 -0.002468 0.010213 0.000000 0.000000 0.000000
# 4 0.000000 0.000000 0.000000 0.032319 0.000000 0.000000
# 5 0.000000 0.000000 0.000000 0.000000 0.032319 0.000000
# 6 0.000000 0.000000 0.000000 0.000000 0.000000 0.029001
#
#
# Mechanical properties :
#
#
# Convention : Reuss Voigt Hill
#
# Bulk Modulus (GPa) = 59.44970 59.49479 59.47225
# Shear Modulus (GPa) = 32.30768 32.70782 32.50775
#
# Velocity S-wave (km/s) = 4.04337 4.06833 4.05587
# Velocity P-wave (km/s) = 7.20292 7.22322 7.21308
#
# Compressibility (1/GPa) = 0.01682094
#
# Stress axis : x y z
#
# Youngs Moduli (GPa) = 77.05738 77.05738 97.91093
#
# Poissons Ratio (x) = 0.36500 0.24169
# Poissons Ratio (y) = 0.36500 0.24169
# Poissons Ratio (z) = 0.19021 0.19021
#
# Static dielectric constant tensor:
#      x y z
#    x 4.140330 0.000000 0.000000 
#    y 0.000000 4.140330 0.000000 
#    z 0.000000 0.000000 3.647460 
# 
# 
# High freq. dielectric constant tensor:
#      x y z
#    x 1.775290 0.000000 0.000000 
#    y 0.000000 1.775290 0.000000 
#    z 0.000000 0.000000 1.767110 
# 
# From -- ./inp_files/9975.got.cif
#   From: 2010.03.12/outbox.cif.g09.slc.cpg/sg142_5_cif.got.tgz:9975.got - 2010.04.03 13:27:16.
