data_PCOD8321707
_publ_section_title
;
Structure prediction by ZEFSAII (Michael W. Deem and Ramdas Pophale) SiO2 
 PCOD8321707
Probable space group: R -3
;
_chemical_formula_sum "Si O2"
_cell_formula_units_Z 54
_cell_length_a 21.454667
_cell_length_b 21.454667
_cell_length_c 7.672677
_cell_angle_alpha 90.000000
_cell_angle_beta 90.000000
_cell_angle_gamma 120.000000
_cell_volume 3058.588871
_symmetry_space_group_name_H-M "R -3"
_symmetry_group_IT_number 148
_symmetry_cell_setting 'hexagonal'
loop_
_space_group_symop_operation_xyz
x,y,z
-y,x-y,z
-x+y,-x,z
-x,-y,-z
y,-x+y,-z
x-y,x,-z
2/3+x,1/3+y,1/3+z
2/3-y,1/3+x-y,1/3+z
2/3-x+y,1/3-x,1/3+z
2/3-x,1/3-y,1/3-z
2/3+y,1/3-x+y,1/3-z
2/3+x-y,1/3+x,1/3-z
1/3+x,2/3+y,2/3+z
1/3-y,2/3+x-y,2/3+z
1/3-x+y,2/3-x,2/3+z
1/3-x,2/3-y,2/3-z
1/3+y,2/3-x+y,2/3-z
1/3+x-y,2/3+x,2/3-z
loop_
_atom_site_type_symbol
_atom_site_label
_atom_site_fract_x
_atom_site_fract_y
_atom_site_fract_z
Si Si1 0.915927 0.428810 0.659658
Si Si2 0.088668 0.792394 0.036099
Si Si3 0.220661 0.216506 0.353499
O O1 0.915779 0.394133 0.473196
O O2 0.867207 0.467320 0.649909
O O3 0.883783 0.365669 0.798679
O O4 0.998325 0.490249 0.711074
O O5 0.054374 0.810216 0.200106
O O6 0.067015 0.708108 0.033650
#
# Coordination Sequence:
#
# PCOD8321707 Si02
#       3
#    18  18  18
#     4   9  21  33  49  76 102 134 167 200 249 295
#     4   9  21  32  49  78 104 131 166 201 245 296
#     4  10  20  32  52  73 105 133 164 203 246 299
#
# _framework density 17.655200000000001
#
# number of rings (size 3 to 8) (size 9 to 14) (size 15 to 20)
#    2.000    0.667    0.000    1.000    4.667    2.667 
#    0.000    0.000    0.000    0.667    0.000    2.333 
#    0.000    0.000    0.000    0.000    0.000    0.000 
#
# Total GULP energy -223022.483964 kJ/mol
# GULP energy per Si atom -12390.137998 kJ/mol
# Density = 1.761502 g / cm^3
# Si number density = 17.655200 Si / 1000 Ang^3
#
#
#
# Elastic Constant Matrix: (Units=GPa)
#
#
# Indices 1 2 3 4 5 6 
#
# 1 42.6675 10.2084 19.4881 9.2903 -8.3483 -0.0051
# 2 10.2084 42.7759 19.5849 -9.2844 8.2842 0.0017
# 3 19.4881 19.5849 83.3010 -0.0051 -0.0634 -0.0361
# 4 9.2903 -9.2844 -0.0051 27.1598 -0.0084 8.2428
# 5 -8.3483 8.2842 -0.0634 -0.0084 26.9359 9.2592
# 6 -0.0051 0.0017 -0.0361 8.2428 9.2592 16.3165
#
#
#
# Elastic Compliance Matrix: (Units=1/GPa)
#
#
# Indices 1 2 3 4 5 6 
#
# 1 0.035249 -0.012352 -0.005332 -0.016219 0.014771 -0.000188
# 2 -0.012352 0.035151 -0.005385 0.016194 -0.014694 0.000138
# 3 -0.005332 -0.005385 0.014518 -0.000022 0.000029 0.000026
# 4 -0.016219 0.016194 -0.000022 0.056537 -0.000210 -0.028449
# 5 0.014771 -0.014694 0.000029 -0.000210 0.057376 -0.032447
# 6 -0.000188 0.000138 0.000026 -0.028449 -0.032447 0.094072
#
#
# Mechanical properties :
#
#
# Convention : Reuss Voigt Hill
#
# Bulk Modulus (GPa) = 25.78578 29.70079 27.74329
# Shear Modulus (GPa) = 14.20585 22.04666 18.12625
#
# Velocity S-wave (km/s) = 2.83967 3.53758 3.20766
# Velocity P-wave (km/s) = 5.03871 5.79182 5.42834
#
# Compressibility (1/GPa) = 0.03878106
#
# Stress axis : x y z
#
# Youngs Moduli (GPa) = 28.36943 28.44842 68.87891
#
# Poissons Ratio (x) = 0.35138 0.36728
# Poissons Ratio (y) = 0.35041 0.37091
# Poissons Ratio (z) = 0.15127 0.15319
#
# Static dielectric constant tensor:
#      x y z
#    x 2.946720 -0.000020 -0.000010 
#    y -0.000020 2.946760 0.000000 
#    z -0.000010 0.000000 3.177280 
# 
# 
# High freq. dielectric constant tensor:
#      x y z
#    x 1.648750 0.000000 0.000000 
#    y 0.000000 1.648760 0.000000 
#    z 0.000000 0.000000 1.696020 
# 
# From -- ./inp_files/271.got.cif
#   From: 2010.03.12/outbox.cif.g09.slc.cpg/sg148_1_cif.got.tgz:271.got - 2010.04.03 13:38:46.
