data_PCOD8321039
_publ_section_title
;
Structure prediction by ZEFSAII (Michael W. Deem and Ramdas Pophale) SiO2 
 PCOD8321039
Probable space group: I 41/A C D
;
_chemical_formula_sum "Si O2"
_cell_formula_units_Z 160
_cell_length_a 22.291659
_cell_length_b 22.291659
_cell_length_c 14.640901
_cell_angle_alpha 90.000000
_cell_angle_beta 90.000000
_cell_angle_gamma 90.000000
_cell_volume 7275.328136
_symmetry_space_group_name_H-M "I 41/A C D"
_symmetry_group_IT_number 142
_space_group.IT_coordinate_system_code '2'
_symmetry_cell_setting 'tetragonal'
loop_
_space_group_symop_operation_xyz
x,y,z
1/4-y,3/4+x,1/4+z
-x,1/2-y,z
1/4+y,1/4-x,3/4+z
x,-y,1/2-z
1/2-x,y,-z
3/4+y,1/4+x,1/4-z
1/4-y,1/4-x,1/4-z
-x,-y,-z
3/4+y,1/4-x,3/4-z
x,1/2+y,-z
3/4-y,3/4+x,1/4-z
-x,y,1/2+z
1/2+x,-y,z
1/4-y,3/4-x,3/4+z
3/4+y,3/4+x,3/4+z
1/2+x,1/2+y,1/2+z
3/4-y,1/4+x,3/4+z
1/2-x,-y,1/2+z
3/4+y,3/4-x,1/4+z
1/2+x,1/2-y,-z
-x,1/2+y,1/2-z
1/4+y,3/4+x,3/4-z
3/4-y,3/4-x,3/4-z
1/2-x,1/2-y,1/2-z
1/4+y,3/4-x,1/4-z
1/2+x,y,1/2-z
1/4-y,1/4+x,3/4-z
1/2-x,1/2+y,z
x,1/2-y,1/2+z
3/4-y,1/4-x,1/4+z
1/4+y,1/4+x,1/4+z
loop_
_atom_site_type_symbol
_atom_site_label
_atom_site_fract_x
_atom_site_fract_y
_atom_site_fract_z
Si Si1 0.837769 0.390895 0.925725
Si Si2 0.561318 0.094745 0.343560
Si Si3 0.643557 0.310286 0.329667
Si Si4 0.110115 0.998260 0.475082
Si Si5 0.433849 0.811008 0.343254
O O1 0.787387 0.396925 0.848324
O O2 0.900644 0.369834 0.881687
O O3 0.819197 0.340308 0.000432
O O4 0.843331 0.457094 0.968488
O O5 0.595553 0.154448 0.375000
O O6 0.489974 0.107056 0.340000
O O7 0.564976 0.045310 0.423003
O O8 0.622390 0.372390 0.375000
O O9 0.709881 0.320896 0.290868
O O10 0.595656 0.290707 0.252183
O O11 0.504977 0.824992 0.335717
#
# Coordination Sequence:
#
# PCOD8321039 Si02
#       5
#    32  32  32  32  32
#     4  10  21  40  63  89 118 160 208 252 303 361
#     4  10  20  37  62  90 118 152 194 243 297 362
#     4  11  23  39  60  90 123 157 197 245 303 363
#     4  10  22  41  61  85 120 160 203 252 304 358
#     4  10  20  36  59  90 126 159 192 242 305 369
#
# _framework density 21.992135000000001
#
# number of rings (size 3 to 8) (size 9 to 14) (size 15 to 20)
#    0.000    1.800    0.000    4.800    0.000    3.600 
#    0.000   17.000    0.000    0.000    0.000    0.000 
#    0.000    0.000    0.000    0.000    0.000    0.000 
#
# Total GULP energy -991918.397942 kJ/mol
# GULP energy per Si atom -12398.979974 kJ/mol
# Density = 2.194208 g / cm^3
# Si number density = 21.992135 Si / 1000 Ang^3
#
#
#
# Elastic Constant Matrix: (Units=GPa)
#
#
# Indices 1 2 3 4 5 6 
#
# 1 121.0287 44.9615 37.7294 0.0000 0.0000 0.0000
# 2 44.9615 121.0265 37.7288 0.0000 0.0000 0.0000
# 3 37.7294 37.7288 80.0276 0.0000 0.0000 0.0000
# 4 0.0000 0.0000 0.0000 32.5948 0.0000 0.0000
# 5 0.0000 0.0000 0.0000 0.0000 32.5960 0.0000
# 6 0.0000 0.0000 0.0000 0.0000 0.0000 7.3694
#
#
#
# Elastic Compliance Matrix: (Units=1/GPa)
#
#
# Indices 1 2 3 4 5 6 
#
# 1 0.010407 -0.002739 -0.003615 0.000000 0.000000 0.000000
# 2 -0.002739 0.010407 -0.003615 0.000000 0.000000 0.000000
# 3 -0.003615 -0.003615 0.015904 0.000000 0.000000 0.000000
# 4 0.000000 0.000000 0.000000 0.030680 0.000000 0.000000
# 5 0.000000 0.000000 0.000000 0.000000 0.030679 0.000000
# 6 0.000000 0.000000 0.000000 0.000000 0.000000 0.135697
#
#
# Mechanical properties :
#
#
# Convention : Reuss Voigt Hill
#
# Bulk Modulus (GPa) = 59.59498 62.54694 61.07096
# Shear Modulus (GPa) = 19.28224 27.95624 23.61924
#
# Velocity S-wave (km/s) = 2.96426 3.56925 3.28073
# Velocity P-wave (km/s) = 6.23481 6.74451 6.49466
#
# Compressibility (1/GPa) = 0.01677994
#
# Stress axis : x y z
#
# Youngs Moduli (GPa) = 96.08837 96.08687 62.87603
#
# Poissons Ratio (x) = 0.26321 0.22730
# Poissons Ratio (y) = 0.26321 0.22730
# Poissons Ratio (z) = 0.34736 0.34736
#
# Static dielectric constant tensor:
#      x y z
#    x 3.804880 0.000000 0.000000 
#    y 0.000000 3.804880 0.000000 
#    z 0.000000 0.000000 4.014250 
# 
# 
# High freq. dielectric constant tensor:
#      x y z
#    x 1.856710 0.000000 0.000000 
#    y 0.000000 1.856710 0.000000 
#    z 0.000000 0.000000 1.865710 
# 
# From -- ./inp_files/5457.got.cif
#   From: 2010.03.12/outbox.cif.g09.slc.cpg/sg142_3_cif.got.tgz:5457.got - 2010.04.03 13:27:16.
