data_PCOD8321461
_publ_section_title
;
Structure prediction by ZEFSAII (Michael W. Deem and Ramdas Pophale) SiO2 
 PCOD8321461
Probable space group: P 32
;
_chemical_formula_sum "Si O2"
_cell_formula_units_Z 24
_cell_length_a 7.988144
_cell_length_b 7.988144
_cell_length_c 20.005963
_cell_angle_alpha 90.000000
_cell_angle_beta 90.000000
_cell_angle_gamma 120.000000
_cell_volume 1105.558845
_symmetry_space_group_name_H-M "P 32"
_symmetry_group_IT_number 145
_symmetry_cell_setting 'hexagonal'
loop_
_space_group_symop_operation_xyz
x,y,z
-y,x-y,2/3+z
-x+y,-x,1/3+z
loop_
_atom_site_type_symbol
_atom_site_label
_atom_site_fract_x
_atom_site_fract_y
_atom_site_fract_z
Si Si1 0.868077 0.071912 0.683040
Si Si2 0.704374 0.620312 0.219936
Si Si3 0.700253 0.191250 0.421610
Si Si4 0.971584 0.638952 0.629535
Si Si5 0.581318 0.931383 0.221764
Si Si6 0.934418 0.178414 0.306353
Si Si7 0.925418 0.416450 0.757371
Si Si8 0.591869 0.646479 0.671858
O O1 0.824551 0.161888 0.618001
O O2 0.058813 0.060821 0.672209
O O3 0.916366 0.211637 0.747040
O O4 0.674186 0.865611 0.697531
O O5 0.830774 0.612586 0.158842
O O6 0.501286 0.423604 0.232234
O O7 0.649261 0.781543 0.203033
O O8 0.870083 0.271366 0.365711
O O9 0.626449 0.338261 0.431662
O O10 0.509908 0.992173 0.397891
O O11 0.028643 0.555314 0.693867
O O12 0.777081 0.643795 0.642241
O O13 0.161774 0.847050 0.613298
O O14 0.481526 0.962252 0.157573
O O15 0.777749 0.123533 0.246848
O O16 0.417730 0.850448 0.279658
#
# Coordination Sequence:
#
# PCOD8321461 Si02
#       8
#     3   3   3   3   3   3   3   3
#     4   9  20  38  58  79 110 152 193 239 293 341
#     4  10  20  35  56  85 116 148 188 240 298 353
#     4  10  20  35  56  82 113 146 188 237 290 347
#     4   9  18  36  58  79 112 151 187 235 290 342
#     4  10  20  35  56  84 116 149 192 239 289 350
#     4   9  19  37  59  81 110 149 191 237 288 346
#     4  10  20  35  56  81 114 150 186 233 289 349
#     4   9  19  37  57  79 111 153 195 238 287 348
#
# _framework density 21.708476999999998
#
# number of rings (size 3 to 8) (size 9 to 14) (size 15 to 20)
#    0.000    2.500    0.000    1.500    0.000    3.000 
#    0.000   16.250    0.000    0.000    0.000    0.000 
#    0.000    0.000    0.000    0.000    0.000    0.000 
#
# Total GULP energy -297476.393083 kJ/mol
# GULP energy per Si atom -12394.849712 kJ/mol
# Density = 2.165907 g / cm^3
# Si number density = 21.708477 Si / 1000 Ang^3
#
#
#
# Elastic Constant Matrix: (Units=GPa)
#
#
# Indices 1 2 3 4 5 6 
#
# 1 84.8622 21.1278 42.9653 1.9663 6.8499 0.0000
# 2 21.1278 84.8622 42.9653 -1.9663 -6.8499 0.0000
# 3 42.9653 42.9653 118.6267 0.0000 0.0000 0.0000
# 4 1.9663 -1.9663 0.0000 26.1618 0.0000 -6.8499
# 5 6.8499 -6.8499 0.0000 0.0000 26.1618 1.9663
# 6 0.0000 0.0000 0.0000 -6.8499 1.9663 31.8672
#
#
#
# Elastic Compliance Matrix: (Units=1/GPa)
#
#
# Indices 1 2 3 4 5 6 
#
# 1 0.015032 -0.001675 -0.004838 -0.001256 -0.004375 0.000000
# 2 -0.001675 0.015032 -0.004838 0.001256 0.004375 0.000000
# 3 -0.004838 -0.004838 0.011934 0.000000 0.000000 0.000000
# 4 -0.001256 0.001256 0.000000 0.040703 0.000000 0.008749
# 5 -0.004375 0.004375 0.000000 0.000000 0.040703 -0.002511
# 6 0.000000 0.000000 0.000000 0.008749 -0.002511 0.033416
#
#
# Mechanical properties :
#
#
# Convention : Reuss Voigt Hill
#
# Bulk Modulus (GPa) = 51.82109 55.82976 53.82543
# Shear Modulus (GPa) = 26.88813 28.92435 27.90624
#
# Velocity S-wave (km/s) = 3.52319 3.65416 3.58928
# Velocity P-wave (km/s) = 6.36189 6.60134 6.48272
#
# Compressibility (1/GPa) = 0.01929716
#
# Stress axis : x y z
#
# Youngs Moduli (GPa) = 66.52262 66.52262 83.79294
#
# Poissons Ratio (x) = 0.11146 0.40537
# Poissons Ratio (y) = 0.11146 0.40537
# Poissons Ratio (z) = 0.32182 0.32182
#
# Static dielectric constant tensor:
#      x y z
#    x 4.056470 0.000000 0.000000 
#    y 0.000000 4.056470 0.000000 
#    z 0.000000 0.000000 3.862990 
# 
# 
# High freq. dielectric constant tensor:
#      x y z
#    x 1.849300 0.000000 0.000000 
#    y 0.000000 1.849300 0.000000 
#    z 0.000000 0.000000 1.834790 
# 
# From -- ./inp_files/946.got.cif
#   From: 2010.03.12/outbox.cif.g09.slc.cpg/sg145_cif.got.tgz:946.got - 2010.04.03 13:35:35.
