data_PCOD8321336
_publ_section_title
;
Structure prediction by ZEFSAII (Michael W. Deem and Ramdas Pophale) SiO2 
 PCOD8321336
Probable space group: P 3
;
_chemical_formula_sum "Si O2"
_cell_formula_units_Z 12
_cell_length_a 7.917715
_cell_length_b 7.917715
_cell_length_c 10.406938
_cell_angle_alpha 90.000000
_cell_angle_beta 90.000000
_cell_angle_gamma 120.000000
_cell_volume 565.006351
_symmetry_space_group_name_H-M "P 3"
_symmetry_group_IT_number 143
_symmetry_cell_setting 'hexagonal'
loop_
_space_group_symop_operation_xyz
x,y,z
-y,x-y,z
-x+y,-x,z
loop_
_atom_site_type_symbol
_atom_site_label
_atom_site_fract_x
_atom_site_fract_y
_atom_site_fract_z
Si Si1 0.666564 0.549578 0.428690
Si Si2 0.116972 0.450307 0.178691
Si Si3 0.000103 0.216349 0.928690
Si Si4 0.549693 0.666666 0.678690
O O1 0.473862 0.332191 0.428690
O O2 0.668474 0.668983 0.303840
O O3 0.668475 0.668986 0.553540
O O4 0.333333 0.474599 0.178691
O O5 0.998192 0.333844 0.053542
O O6 0.192805 0.191663 0.928689
O O7 0.998192 0.333848 0.803841
O O8 0.525401 0.858734 0.678689
#
# Coordination Sequence:
#
# PCOD8321336 Si02
#       4
#     3   3   3   3
#     4  10  24  38  64  96 128 162 222 264 314 370
#     4  10  22  42  68  90 132 174 210 260 332 384
#     4  10  24  38  64  96 128 162 222 264 314 370
#     4  10  22  42  68  90 132 174 210 260 332 384
#
# _framework density 21.238697999999999
#
# number of rings (size 3 to 8) (size 9 to 14) (size 15 to 20)
#    2.000    0.000    0.000    3.000    7.000    0.000 
#    0.000    0.000    0.000    0.000    0.000    0.000 
#    0.000    0.000    0.000    0.000    0.000    0.000 
#
# Total GULP energy -148684.848641 kJ/mol
# GULP energy per Si atom -12390.404053 kJ/mol
# Density = 2.119036 g / cm^3
# Si number density = 21.238698 Si / 1000 Ang^3
#
#
#
# Elastic Constant Matrix: (Units=GPa)
#
#
# Indices 1 2 3 4 5 6 
#
# 1 66.4205 9.7702 47.7156 -0.0005 0.0001 0.0000
# 2 9.7702 66.4205 47.7156 0.0005 -0.0001 0.0000
# 3 47.7156 47.7156 229.7703 0.0000 0.0000 0.0000
# 4 -0.0005 0.0005 0.0000 34.8073 0.0000 -0.0001
# 5 0.0001 -0.0001 0.0000 0.0000 34.8073 -0.0005
# 6 0.0000 0.0000 0.0000 -0.0001 -0.0005 28.3251
#
#
#
# Elastic Compliance Matrix: (Units=1/GPa)
#
#
# Indices 1 2 3 4 5 6 
#
# 1 0.017696 0.000043 -0.003684 0.000000 0.000000 0.000000
# 2 0.000043 0.017696 -0.003684 0.000000 0.000000 0.000000
# 3 -0.003684 -0.003684 0.005882 0.000000 0.000000 0.000000
# 4 0.000000 0.000000 0.000000 0.028730 0.000000 0.000000
# 5 0.000000 0.000000 0.000000 0.000000 0.028730 0.000000
# 6 0.000000 0.000000 0.000000 0.000000 0.000000 0.035304
#
#
# Mechanical properties :
#
#
# Convention : Reuss Voigt Hill
#
# Bulk Modulus (GPa) = 37.55863 63.66825 50.61344
# Shear Modulus (GPa) = 31.73388 36.74860 34.24124
#
# Velocity S-wave (km/s) = 3.86962 4.16416 4.01959
# Velocity P-wave (km/s) = 6.13903 7.29129 6.73983
#
# Compressibility (1/GPa) = 0.02662504
#
# Stress axis : x y z
#
# Youngs Moduli (GPa) = 56.51118 56.51118 170.00491
#
# Poissons Ratio (x) = -0.00245 0.62627
# Poissons Ratio (y) = -0.00245 0.62627
# Poissons Ratio (z) = 0.20818 0.20818
#
# Static dielectric constant tensor:
#      x y z
#    x 3.447150 0.000000 0.000000 
#    y 0.000000 3.447150 0.000000 
#    z 0.000000 0.000000 3.702310 
# 
# 
# High freq. dielectric constant tensor:
#      x y z
#    x 1.806340 0.000000 0.000000 
#    y 0.000000 1.806340 0.000000 
#    z 0.000000 0.000000 1.844920 
# 
# From -- ./inp_files/89.got.cif
#   From: 2010.03.12/outbox.cif.g09.slc.cpg/sg143_cif.got.tgz:89.got - 2010.04.03 13:34:35.
