data_PCOD8321011
_publ_section_title
;
Structure prediction by ZEFSAII (Michael W. Deem and Ramdas Pophale) SiO2 
 PCOD8321011
Probable space group: I 41/A C D
;
_chemical_formula_sum "Si O2"
_cell_formula_units_Z 176
_cell_length_a 18.551325
_cell_length_b 18.551325
_cell_length_c 26.046115
_cell_angle_alpha 90.000000
_cell_angle_beta 90.000000
_cell_angle_gamma 90.000000
_cell_volume 8963.813694
_symmetry_space_group_name_H-M "I 41/A C D"
_symmetry_group_IT_number 142
_space_group.IT_coordinate_system_code '2'
_symmetry_cell_setting 'tetragonal'
loop_
_space_group_symop_operation_xyz
x,y,z
1/4-y,3/4+x,1/4+z
-x,1/2-y,z
1/4+y,1/4-x,3/4+z
x,-y,1/2-z
1/2-x,y,-z
3/4+y,1/4+x,1/4-z
1/4-y,1/4-x,1/4-z
-x,-y,-z
3/4+y,1/4-x,3/4-z
x,1/2+y,-z
3/4-y,3/4+x,1/4-z
-x,y,1/2+z
1/2+x,-y,z
1/4-y,3/4-x,3/4+z
3/4+y,3/4+x,3/4+z
1/2+x,1/2+y,1/2+z
3/4-y,1/4+x,3/4+z
1/2-x,-y,1/2+z
3/4+y,3/4-x,1/4+z
1/2+x,1/2-y,-z
-x,1/2+y,1/2-z
1/4+y,3/4+x,3/4-z
3/4-y,3/4-x,3/4-z
1/2-x,1/2-y,1/2-z
1/4+y,3/4-x,1/4-z
1/2+x,y,1/2-z
1/4-y,1/4+x,3/4-z
1/2-x,1/2+y,z
x,1/2-y,1/2+z
3/4-y,1/4-x,1/4+z
1/4+y,1/4+x,1/4+z
loop_
_atom_site_type_symbol
_atom_site_label
_atom_site_fract_x
_atom_site_fract_y
_atom_site_fract_z
Si Si1 0.599588 0.684247 0.790045
Si Si2 0.771124 0.978877 0.875000
Si Si3 0.563047 0.155757 0.725120
Si Si4 0.201866 0.772507 0.948920
Si Si5 0.310567 0.358577 0.113128
Si Si6 0.817186 0.114454 0.536716
O O1 0.595850 0.765436 0.769929
O O2 0.518469 0.654011 0.798416
O O3 0.643825 0.680797 0.842753
O O4 0.641038 0.639894 0.746329
O O5 0.686815 0.963535 0.882187
O O6 0.815556 0.951576 0.924034
O O7 0.561952 0.122093 0.782804
O O8 0.614058 0.110065 0.687390
O O9 0.238805 0.813071 0.901200
O O10 0.186664 0.690178 0.932183
O O11 0.250000 0.771919 0.000000
O O12 0.750000 0.106270 0.500000
#
# Coordination Sequence:
#
# PCOD8321011 Si02
#       6
#    32  16  32  32  32  32
#     4  10  19  36  65  93 116 149 206 254 301 357
#     4  12  26  36  56  85 124 163 200 240 292 370
#     4   9  19  35  63  95 118 148 200 262 302 350
#     4   8  18  36  60  80 116 157 191 237 308 350
#     4  11  21  35  57  90 120 158 200 252 298 347
#     4  10  20  40  58  81 119 163 192 234 305 367
#
# _framework density 19.634501
#
# number of rings (size 3 to 8) (size 9 to 14) (size 15 to 20)
#    0.000    2.182    1.818    2.182    2.545    3.636 
#    0.000    2.727    0.000    7.636    0.000    0.000 
#    0.000    0.000    0.000    0.000    0.000    0.000 
#
# Total GULP energy -1091094.041453 kJ/mol
# GULP energy per Si atom -12398.795926 kJ/mol
# Density = 1.958981 g / cm^3
# Si number density = 19.634501 Si / 1000 Ang^3
#
#
#
# Elastic Constant Matrix: (Units=GPa)
#
#
# Indices 1 2 3 4 5 6 
#
# 1 89.6277 28.5888 37.1919 0.0000 0.0000 0.0000
# 2 28.5888 89.6282 37.1915 0.0000 0.0000 0.0000
# 3 37.1919 37.1915 75.4274 0.0000 0.0000 0.0000
# 4 0.0000 0.0000 0.0000 7.6163 0.0000 0.0000
# 5 0.0000 0.0000 0.0000 0.0000 7.6137 0.0000
# 6 0.0000 0.0000 0.0000 0.0000 0.0000 16.2847
#
#
#
# Elastic Compliance Matrix: (Units=1/GPa)
#
#
# Indices 1 2 3 4 5 6 
#
# 1 0.014324 -0.002059 -0.006047 0.000000 0.000000 0.000000
# 2 -0.002059 0.014323 -0.006047 0.000000 0.000000 0.000000
# 3 -0.006047 -0.006047 0.019221 0.000000 0.000000 0.000000
# 4 0.000000 0.000000 0.000000 0.131297 0.000000 0.000000
# 5 0.000000 0.000000 0.000000 0.000000 0.131342 0.000000
# 6 0.000000 0.000000 0.000000 0.000000 0.000000 0.061407
#
#
# Mechanical properties :
#
#
# Convention : Reuss Voigt Hill
#
# Bulk Modulus (GPa) = 51.12297 51.18085 51.15191
# Shear Modulus (GPa) = 12.29282 16.41704 14.35493
#
# Velocity S-wave (km/s) = 2.50488 2.89473 2.70683
# Velocity P-wave (km/s) = 5.87024 6.10705 5.98981
#
# Compressibility (1/GPa) = 0.01956068
#
# Stress axis : x y z
#
# Youngs Moduli (GPa) = 69.81523 69.81614 52.02600
#
# Poissons Ratio (x) = 0.14379 0.31461
# Poissons Ratio (y) = 0.14378 0.31460
# Poissons Ratio (z) = 0.42219 0.42218
#
# Static dielectric constant tensor:
#      x y z
#    x 3.676980 0.000000 0.000000 
#    y 0.000000 3.676960 0.000000 
#    z 0.000000 0.000000 2.749170 
# 
# 
# High freq. dielectric constant tensor:
#      x y z
#    x 1.763260 0.000000 0.000000 
#    y 0.000000 1.763260 0.000000 
#    z 0.000000 0.000000 1.740450 
# 
# From -- ./inp_files/11449.got.cif
#   From: 2010.03.12/outbox.cif.g09.slc.cpg/sg142_6_cif.got.tgz:11449.got - 2010.04.03 13:27:16.
