data_PCOD8321078
_publ_section_title
;
Structure prediction by ZEFSAII (Michael W. Deem and Ramdas Pophale) SiO2 
 PCOD8321078
Probable space group: I 41/A C D
;
_chemical_formula_sum "Si O2"
_cell_formula_units_Z 240
_cell_length_a 19.663915
_cell_length_b 19.663915
_cell_length_c 28.287411
_cell_angle_alpha 90.000000
_cell_angle_beta 90.000000
_cell_angle_gamma 90.000000
_cell_volume 10937.880570
_symmetry_space_group_name_H-M "I 41/A C D"
_symmetry_group_IT_number 142
_space_group.IT_coordinate_system_code '2'
_symmetry_cell_setting 'tetragonal'
loop_
_space_group_symop_operation_xyz
x,y,z
1/4-y,3/4+x,1/4+z
-x,1/2-y,z
1/4+y,1/4-x,3/4+z
x,-y,1/2-z
1/2-x,y,-z
3/4+y,1/4+x,1/4-z
1/4-y,1/4-x,1/4-z
-x,-y,-z
3/4+y,1/4-x,3/4-z
x,1/2+y,-z
3/4-y,3/4+x,1/4-z
-x,y,1/2+z
1/2+x,-y,z
1/4-y,3/4-x,3/4+z
3/4+y,3/4+x,3/4+z
1/2+x,1/2+y,1/2+z
3/4-y,1/4+x,3/4+z
1/2-x,-y,1/2+z
3/4+y,3/4-x,1/4+z
1/2+x,1/2-y,-z
-x,1/2+y,1/2-z
1/4+y,3/4+x,3/4-z
3/4-y,3/4-x,3/4-z
1/2-x,1/2-y,1/2-z
1/4+y,3/4-x,1/4-z
1/2+x,y,1/2-z
1/4-y,1/4+x,3/4-z
1/2-x,1/2+y,z
x,1/2-y,1/2+z
3/4-y,1/4-x,1/4+z
1/4+y,1/4+x,1/4+z
loop_
_atom_site_type_symbol
_atom_site_label
_atom_site_fract_x
_atom_site_fract_y
_atom_site_fract_z
Si Si1 0.745084 0.605583 0.366131
Si Si2 0.977261 0.897786 0.258524
Si Si3 0.352277 0.785130 0.772601
Si Si4 0.000000 0.750000 0.014565
Si Si5 0.347255 0.458604 0.706438
Si Si6 0.187866 0.629173 0.031807
Si Si7 0.514696 0.529343 0.569851
Si Si8 0.184860 0.665376 0.396130
O O1 0.789787 0.539787 0.375000
O O2 0.700724 0.596180 0.318311
O O3 0.702283 0.623668 0.412602
O O4 0.791260 0.669724 0.352736
O O5 0.913960 0.920132 0.226030
O O6 0.969426 0.923207 0.311886
O O7 0.983295 0.816854 0.265294
O O8 0.042701 0.930017 0.233909
O O9 0.428694 0.766667 0.792352
O O10 0.339337 0.866723 0.774319
O O11 0.340693 0.763970 0.717956
O O12 0.297149 0.739800 0.799636
O O13 0.312477 0.500000 0.750000
O O14 0.359569 0.512750 0.664855
O O15 0.250000 0.597892 0.000000
O O16 0.448820 0.530884 0.601544
O O17 0.116641 0.633360 0.375000
#
# Coordination Sequence:
#
# PCOD8321078 Si02
#       8
#    32  32  32  16  32  32  32  32
#     4  12  25  39  62  91 124 166 214 265 322 396
#     4  10  21  40  65  91 127 170 207 267 333 392
#     4  10  23  40  64  88 125 168 206 267 328 386
#     4  10  20  40  63  91 120 162 218 252 316 403
#     4  10  22  40  63  91 126 166 213 267 327 393
#     4  11  22  40  62  89 125 166 213 264 326 396
#     4  11  23  41  61  92 127 162 210 266 329 390
#     4  11  22  39  65  93 123 164 216 268 327 399
#
# _framework density 21.942093
#
# number of rings (size 3 to 8) (size 9 to 14) (size 15 to 20)
#    0.000    1.333    0.000    6.400    0.000    5.867 
#    0.000    3.667    0.000    7.200    0.000    0.000 
#    0.000    0.000    0.000    0.000    0.000    0.000 
#
# Total GULP energy -1486993.040070 kJ/mol
# GULP energy per Si atom -12391.608667 kJ/mol
# Density = 2.189215 g / cm^3
# Si number density = 21.942093 Si / 1000 Ang^3
#
#
#
# Elastic Constant Matrix: (Units=GPa)
#
#
# Indices 1 2 3 4 5 6 
#
# 1 92.8323 23.1089 37.5760 0.0000 0.0000 0.0000
# 2 23.1089 92.8302 37.5768 0.0000 0.0000 0.0000
# 3 37.5760 37.5768 131.4147 0.0000 0.0000 0.0000
# 4 0.0000 0.0000 0.0000 33.9790 0.0000 0.0000
# 5 0.0000 0.0000 0.0000 0.0000 33.9783 0.0000
# 6 0.0000 0.0000 0.0000 0.0000 0.0000 33.7238
#
#
#
# Elastic Compliance Matrix: (Units=1/GPa)
#
#
# Indices 1 2 3 4 5 6 
#
# 1 0.012465 -0.001878 -0.003027 0.000000 0.000000 0.000000
# 2 -0.001878 0.012465 -0.003027 0.000000 0.000000 0.000000
# 3 -0.003027 -0.003027 0.009341 0.000000 0.000000 0.000000
# 4 0.000000 0.000000 0.000000 0.029430 0.000000 0.000000
# 5 0.000000 0.000000 0.000000 0.000000 0.029431 0.000000
# 6 0.000000 0.000000 0.000000 0.000000 0.000000 0.029653
#
#
# Mechanical properties :
#
#
# Convention : Reuss Voigt Hill
#
# Bulk Modulus (GPa) = 54.32924 57.06675 55.69800
# Shear Modulus (GPa) = 34.53420 34.92392 34.72906
#
# Velocity S-wave (km/s) = 3.97152 3.99386 3.98271
# Velocity P-wave (km/s) = 6.77087 6.87985 6.82557
#
# Compressibility (1/GPa) = 0.01840629
#
# Stress axis : x y z
#
# Youngs Moduli (GPa) = 80.22560 80.22312 107.05753
#
# Poissons Ratio (x) = 0.15062 0.32409
# Poissons Ratio (y) = 0.15063 0.32411
# Poissons Ratio (z) = 0.24286 0.24287
#
# Static dielectric constant tensor:
#      x y z
#    x 4.074980 0.000000 0.000000 
#    y 0.000000 4.074990 0.000000 
#    z 0.000000 0.000000 3.927260 
# 
# 
# High freq. dielectric constant tensor:
#      x y z
#    x 1.869410 0.000000 0.000000 
#    y 0.000000 1.869410 0.000000 
#    z 0.000000 0.000000 1.857220 
# 
# From -- ./inp_files/11667.got.cif
#   From: 2010.03.12/outbox.cif.g09.slc.cpg/sg142_6_cif.got.tgz:11667.got - 2010.04.03 13:27:16.
