data_PCOD8321396
_publ_section_title
;
Structure prediction by ZEFSAII (Michael W. Deem and Ramdas Pophale) SiO2 
 PCOD8321396
Probable space group: P 31
;
_chemical_formula_sum "Si O2"
_cell_formula_units_Z 12
_cell_length_a 9.514979
_cell_length_b 9.514979
_cell_length_c 5.672055
_cell_angle_alpha 90.000000
_cell_angle_beta 90.000000
_cell_angle_gamma 120.000000
_cell_volume 444.720074
_symmetry_space_group_name_H-M "P 31"
_symmetry_group_IT_number 144
_symmetry_cell_setting 'hexagonal'
loop_
_space_group_symop_operation_xyz
x,y,z
-y,x-y,1/3+z
-x+y,-x,2/3+z
loop_
_atom_site_type_symbol
_atom_site_label
_atom_site_fract_x
_atom_site_fract_y
_atom_site_fract_z
Si Si1 0.397806 0.336163 0.181600
Si Si2 0.933851 0.098184 0.832202
Si Si3 0.486656 0.716272 0.632013
Si Si4 0.681012 0.568586 0.490086
O O1 0.229312 0.193736 0.286562
O O2 0.335513 0.463192 0.120938
O O3 0.537806 0.398566 0.385123
O O4 0.456230 0.275726 0.952421
O O5 0.101756 0.127297 0.721367
O O6 0.946285 0.261633 0.929079
O O7 0.443849 0.769303 0.875616
O O8 0.618581 0.658067 0.671979
#
# Coordination Sequence:
#
# PCOD8321396 Si02
#       4
#     3   3   3   3
#     4  11  26  46  72 106 146 191 239 301 370 434
#     4  12  25  46  77 106 140 190 250 300 355 436
#     4  10  23  44  71 100 134 180 236 292 353 424
#     4  11  26  46  72 106 146 191 239 301 370 434
#
# _framework density 26.983266
#
# number of rings (size 3 to 8) (size 9 to 14) (size 15 to 20)
#    0.000    1.000    0.000    6.000    0.000   20.000 
#    0.000    2.500    0.000    0.000    0.000    0.000 
#    0.000    0.000    0.000    0.000    0.000    0.000 
#
# Total GULP energy -148731.204034 kJ/mol
# GULP energy per Si atom -12394.267003 kJ/mol
# Density = 2.692185 g / cm^3
# Si number density = 26.983266 Si / 1000 Ang^3
#
#
#
# Elastic Constant Matrix: (Units=GPa)
#
#
# Indices 1 2 3 4 5 6 
#
# 1 93.2161 15.2836 8.6636 -5.5261 3.1813 0.0000
# 2 15.2836 93.2161 8.6636 5.5261 -3.1813 0.0000
# 3 8.6636 8.6636 57.5239 0.0000 0.0000 0.0000
# 4 -5.5261 5.5261 0.0000 38.1615 0.0000 -3.1813
# 5 3.1813 -3.1813 0.0000 0.0000 38.1615 -5.5261
# 6 0.0000 0.0000 0.0000 -3.1813 -5.5261 38.9663
#
#
#
# Elastic Compliance Matrix: (Units=1/GPa)
#
#
# Indices 1 2 3 4 5 6 
#
# 1 0.011318 -0.001874 -0.001422 0.001910 -0.001100 0.000000
# 2 -0.001874 0.011318 -0.001422 -0.001910 0.001100 0.000000
# 3 -0.001422 -0.001422 0.017813 0.000000 0.000000 0.000000
# 4 0.001910 -0.001910 0.000000 0.026941 0.000000 0.002200
# 5 -0.001100 0.001100 0.000000 0.000000 0.026941 0.003821
# 6 0.000000 0.000000 0.000000 0.002200 0.003821 0.026385
#
#
# Mechanical properties :
#
#
# Convention : Reuss Voigt Hill
#
# Bulk Modulus (GPa) = 32.24686 34.35308 33.29997
# Shear Modulus (GPa) = 35.58970 37.14754 36.36862
#
# Velocity S-wave (km/s) = 3.63568 3.71440 3.67525
# Velocity P-wave (km/s) = 5.44067 5.58163 5.51160
#
# Compressibility (1/GPa) = 0.03101077
#
# Stress axis : x y z
#
# Youngs Moduli (GPa) = 88.35455 88.35455 56.14034
#
# Poissons Ratio (x) = 0.16560 0.07985
# Poissons Ratio (y) = 0.16560 0.07985
# Poissons Ratio (z) = 0.12567 0.12567
#
# Static dielectric constant tensor:
#      x y z
#    x 4.994090 0.000000 0.000000 
#    y 0.000000 4.994090 0.000000 
#    z 0.000000 0.000000 4.227400 
# 
# 
# High freq. dielectric constant tensor:
#      x y z
#    x 2.095660 0.000000 0.000000 
#    y 0.000000 2.095660 0.000000 
#    z 0.000000 0.000000 2.054190 
# 
# From -- ./inp_files/46.got.cif
#   From: 2010.03.12/outbox.cif.g09.slc.cpg/sg144_cif.got.tgz:46.got - 2010.04.03 13:34:42.
