data_PCOD8321433
_publ_section_title
;
Structure prediction by ZEFSAII (Michael W. Deem and Ramdas Pophale) SiO2 
 PCOD8321433
Probable space group: P 31
;
_chemical_formula_sum "Si O2"
_cell_formula_units_Z 21
_cell_length_a 8.843565
_cell_length_b 8.843565
_cell_length_c 13.254524
_cell_angle_alpha 90.000000
_cell_angle_beta 90.000000
_cell_angle_gamma 120.000000
_cell_volume 897.737800
_symmetry_space_group_name_H-M "P 31"
_symmetry_group_IT_number 144
_symmetry_cell_setting 'hexagonal'
loop_
_space_group_symop_operation_xyz
x,y,z
-y,x-y,1/3+z
-x+y,-x,2/3+z
loop_
_atom_site_type_symbol
_atom_site_label
_atom_site_fract_x
_atom_site_fract_y
_atom_site_fract_z
Si Si1 0.502154 0.135480 0.350360
Si Si2 0.121002 0.616056 0.203791
Si Si3 0.210345 0.225764 0.825543
Si Si4 0.318911 0.766493 0.412231
Si Si5 0.307123 0.039923 0.976082
Si Si6 0.195538 0.164337 0.414086
Si Si7 0.615433 0.198695 0.124336
O O1 0.311402 0.112801 0.343864
O O2 0.601479 0.182704 0.244808
O O3 0.601534 0.300808 0.425213
O O4 0.488601 0.957806 0.394710
O O5 0.218693 0.706253 0.306485
O O6 0.258236 0.634215 0.117728
O O7 0.996213 0.408644 0.221749
O O8 0.004506 0.701706 0.170359
O O9 0.207980 0.407167 0.829603
O O10 0.252939 0.178335 0.935604
O O11 0.380510 0.268379 0.754659
O O12 0.023148 0.064880 0.789572
O O13 0.421684 0.102686 0.077145
O O14 0.130226 0.868404 0.005763
#
# Coordination Sequence:
#
# PCOD8321433 Si02
#       7
#     3   3   3   3   3   3   3
#     4  11  27  44  75 104 150 199 247 310 377 454
#     4  12  24  49  73 106 148 196 252 307 379 450
#     4  11  25  46  70 105 143 194 241 309 374 441
#     4  11  25  47  73 104 149 195 249 307 380 449
#     4  12  26  44  75 106 147 189 246 314 367 454
#     4  11  27  46  70 110 144 193 249 310 377 451
#     4  12  24  50  70 105 151 198 254 305 378 451
#
# _framework density 23.392130000000002
#
# number of rings (size 3 to 8) (size 9 to 14) (size 15 to 20)
#    0.000    0.571    4.286    2.571    8.000    0.000 
#    2.571    0.000    0.000    0.000    0.000    0.000 
#    0.000    0.000    0.000    0.000    0.000    0.000 
#
# Total GULP energy -260270.546249 kJ/mol
# GULP energy per Si atom -12393.835536 kJ/mol
# Density = 2.333889 g / cm^3
# Si number density = 23.392130 Si / 1000 Ang^3
#
#
#
# Elastic Constant Matrix: (Units=GPa)
#
#
# Indices 1 2 3 4 5 6 
#
# 1 120.2415 30.2420 41.8769 -5.6329 -1.8223 0.0000
# 2 30.2420 120.2415 41.8769 5.6329 1.8223 0.0000
# 3 41.8769 41.8769 92.0746 0.0000 0.0000 0.0000
# 4 -5.6329 5.6329 0.0000 40.0006 0.0000 1.8223
# 5 -1.8223 1.8223 0.0000 0.0000 40.0006 -5.6329
# 6 0.0000 0.0000 0.0000 1.8223 -5.6329 44.9997
#
#
#
# Elastic Compliance Matrix: (Units=1/GPa)
#
#
# Indices 1 2 3 4 5 6 
#
# 1 0.010115 -0.001217 -0.004047 0.001596 0.000516 0.000000
# 2 -0.001217 0.010115 -0.004047 -0.001596 -0.000516 0.000000
# 3 -0.004047 -0.004047 0.014542 0.000000 0.000000 0.000000
# 4 0.001596 -0.001596 0.000000 0.025496 0.000000 -0.001032
# 5 0.000516 -0.000516 0.000000 0.000000 0.025496 0.003191
# 6 0.000000 0.000000 0.000000 -0.001032 0.003191 0.022664
#
#
# Mechanical properties :
#
#
# Convention : Reuss Voigt Hill
#
# Bulk Modulus (GPa) = 61.91987 62.28328 62.10158
# Shear Modulus (GPa) = 37.75537 39.57096 38.66316
#
# Velocity S-wave (km/s) = 4.02185 4.11741 4.06991
# Velocity P-wave (km/s) = 6.93504 7.02052 6.97791
#
# Compressibility (1/GPa) = 0.01614990
#
# Stress axis : x y z
#
# Youngs Moduli (GPa) = 98.86632 98.86632 68.76740
#
# Poissons Ratio (x) = 0.12034 0.27828
# Poissons Ratio (y) = 0.12034 0.27828
# Poissons Ratio (z) = 0.40008 0.40008
#
# Static dielectric constant tensor:
#      x y z
#    x 4.501890 0.000000 0.000000 
#    y 0.000000 4.501890 0.000000 
#    z 0.000000 0.000000 3.964650 
# 
# 
# High freq. dielectric constant tensor:
#      x y z
#    x 1.939290 0.000000 0.000000 
#    y 0.000000 1.939290 0.000000 
#    z 0.000000 0.000000 1.903270 
# 
# From -- ./inp_files/596.got.cif
#   From: 2010.03.12/outbox.cif.g09.slc.cpg/sg144_cif.got.tgz:596.got - 2010.04.03 13:34:42.
