data_PCOD8321937
_publ_section_title
;
Structure prediction by ZEFSAII (Michael W. Deem and Ramdas Pophale) SiO2 
 PCOD8321937
Probable space group: P 31 1 2
;
_chemical_formula_sum "Si O2"
_cell_formula_units_Z 42
_cell_length_a 9.287455
_cell_length_b 9.287455
_cell_length_c 29.103596
_cell_angle_alpha 90.000000
_cell_angle_beta 90.000000
_cell_angle_gamma 120.000000
_cell_volume 2174.056016
_symmetry_space_group_name_H-M "P 31 1 2"
_symmetry_group_IT_number 151
_symmetry_cell_setting 'hexagonal'
loop_
_space_group_symop_operation_xyz
x,y,z
-y,x-y,1/3+z
-x+y,-x,2/3+z
-y,-x,2/3-z
-x+y,y,1/3-z
x,x-y,-z
loop_
_atom_site_type_symbol
_atom_site_label
_atom_site_fract_x
_atom_site_fract_y
_atom_site_fract_z
Si Si1 0.063937 0.106081 0.451602
Si Si2 0.732496 0.026628 0.700825
Si Si3 0.257888 0.742113 0.333334
Si Si4 0.439242 0.057766 0.280173
Si Si5 0.710038 0.355019 0.000000
Si Si6 0.988692 0.789026 0.933362
Si Si7 0.342246 0.884178 0.125484
Si Si8 0.380389 0.587324 0.263815
O O1 0.208240 0.159137 0.413194
O O2 0.038781 0.260900 0.463834
O O3 0.112918 0.056459 0.500000
O O4 0.895175 0.957115 0.429672
O O5 0.714957 0.187614 0.694051
O O6 0.814762 0.995248 0.655326
O O7 0.545434 0.874807 0.704463
O O8 0.252621 0.627452 0.290514
O O9 0.066167 0.674422 0.346311
O O10 0.612591 0.212050 0.297607
O O11 0.330393 0.124460 0.253606
O O12 0.504682 0.957497 0.252201
O O13 0.088680 0.694964 0.919719
O O14 0.470553 0.941105 0.166667
O O15 0.243770 0.683574 0.118661
#
# Coordination Sequence:
#
# PCOD8321937 Si02
#       8
#     6   6   3   6   3   6   6   6
#     4  11  25  39  63  89 124 164 216 255 308 377
#     4  10  18  38  64  91 120 163 197 264 308 364
#     4  10  19  34  52  93 124 158 194 240 313 366
#     4  10  22  35  60  89 127 157 195 257 310 370
#     4  10  19  36  60  93 124 152 200 256 327 362
#     4  11  20  37  66  96 120 153 213 261 311 362
#     4  10  23  44  59  82 126 172 203 247 316 372
#     4  10  18  37  66  86 120 163 203 252 303 377
#
# _framework density 19.318731
#
# number of rings (size 3 to 8) (size 9 to 14) (size 15 to 20)
#    0.000    1.714    4.286    1.286    4.000    1.714 
#    0.000    0.714    3.143    0.000    0.000    0.000 
#    0.000    0.000    0.000    0.000    0.000    0.000 
#
# Total GULP energy -520484.292719 kJ/mol
# GULP energy per Si atom -12392.483160 kJ/mol
# Density = 1.927476 g / cm^3
# Si number density = 19.318731 Si / 1000 Ang^3
#
#
#
# Elastic Constant Matrix: (Units=GPa)
#
#
# Indices 1 2 3 4 5 6 
#
# 1 111.2769 56.1737 41.0806 -0.0001 -2.2870 0.0000
# 2 56.1737 111.2769 41.0806 0.0001 2.2870 0.0000
# 3 41.0806 41.0806 94.6318 0.0000 0.0000 0.0000
# 4 -0.0001 0.0001 0.0000 19.1207 0.0000 2.2870
# 5 -2.2870 2.2870 0.0000 0.0000 19.1207 -0.0001
# 6 0.0000 0.0000 0.0000 2.2870 -0.0001 27.5516
#
#
#
# Elastic Compliance Matrix: (Units=1/GPa)
#
#
# Indices 1 2 3 4 5 6 
#
# 1 0.012959 -0.005371 -0.003294 0.000000 0.002192 0.000000
# 2 -0.005371 0.012959 -0.003294 0.000000 -0.002192 0.000000
# 3 -0.003294 -0.003294 0.013427 0.000000 0.000000 0.000000
# 4 0.000000 0.000000 0.000000 0.052824 0.000000 -0.004385
# 5 0.002192 -0.002192 0.000000 0.000000 0.052824 0.000000
# 6 0.000000 0.000000 0.000000 -0.004385 0.000000 0.036660
#
#
# Mechanical properties :
#
#
# Convention : Reuss Voigt Hill
#
# Bulk Modulus (GPa) = 64.82043 65.98394 65.40219
# Shear Modulus (GPa) = 23.72898 25.08197 24.40548
#
# Velocity S-wave (km/s) = 3.50850 3.60714 3.55816
# Velocity P-wave (km/s) = 7.07381 7.18179 7.12800
#
# Compressibility (1/GPa) = 0.01542723
#
# Stress axis : x y z
#
# Youngs Moduli (GPa) = 77.16650 77.16650 74.47517
#
# Poissons Ratio (x) = 0.41445 0.24533
# Poissons Ratio (y) = 0.41445 0.24533
# Poissons Ratio (z) = 0.25420 0.25420
#
# Static dielectric constant tensor:
#      x y z
#    x 3.612750 0.000000 0.000000 
#    y 0.000000 3.612750 0.000000 
#    z 0.000000 0.000000 3.647310 
# 
# 
# High freq. dielectric constant tensor:
#      x y z
#    x 1.753320 0.000000 0.000000 
#    y 0.000000 1.753320 0.000000 
#    z 0.000000 0.000000 1.735240 
# 
# From -- ./inp_files/5089.got.cif
#   From: 2010.03.12/outbox.cif.g09.slc.cpg/sg151_3_cif.got.tgz:5089.got - 2010.04.03 13:42:29.
