data_PCOD8321638
_publ_section_title
;
Structure prediction by ZEFSAII (Michael W. Deem and Ramdas Pophale) SiO2 
 PCOD8321638
Probable space group: P -3
;
_chemical_formula_sum "Si O2"
_cell_formula_units_Z 40
_cell_length_a 17.275234
_cell_length_b 17.275234
_cell_length_c 8.375028
_cell_angle_alpha 90.000000
_cell_angle_beta 90.000000
_cell_angle_gamma 120.000000
_cell_volume 2164.535819
_symmetry_space_group_name_H-M "P -3"
_symmetry_group_IT_number 147
_symmetry_cell_setting 'hexagonal'
loop_
_space_group_symop_operation_xyz
x,y,z
-y,x-y,z
-x+y,-x,z
-x,-y,-z
y,-x+y,-z
x-y,x,-z
loop_
_atom_site_type_symbol
_atom_site_label
_atom_site_fract_x
_atom_site_fract_y
_atom_site_fract_z
Si Si1 0.340214 0.245149 0.085477
Si Si2 0.925449 0.428109 0.390647
Si Si3 0.208643 0.725487 0.377731
Si Si4 0.409064 0.421153 0.931832
Si Si5 0.656047 0.896904 0.117647
Si Si6 0.666667 0.333335 0.172456
Si Si7 0.301295 0.808897 0.681589
Si Si8 0.333334 0.666667 0.207012
O O1 0.259719 0.261231 0.148515
O O2 0.396855 0.241729 0.234650
O O3 0.405763 0.327313 0.968513
O O4 0.303689 0.154201 0.984430
O O5 0.859626 0.347027 0.499908
O O6 0.971215 0.397196 0.257211
O O7 0.878865 0.473767 0.292701
O O8 0.000000 0.500000 0.500000
O O9 0.157018 0.765897 0.278569
O O10 0.282709 0.801800 0.491468
O O11 0.255563 0.685161 0.266506
O O12 0.500000 0.500000 0.000000
O O13 0.325379 0.421166 0.019811
O O14 0.720060 0.285561 0.240571
O O15 0.666668 0.333334 0.982822
#
# Coordination Sequence:
#
# PCOD8321638 Si02
#       8
#     6   6   6   6   6   2   6   2
#     4  10  23  41  64  88 119 161 203 260 301 377
#     4  12  23  35  55  81 123 166 208 261 304 364
#     4  12  23  39  54  91 122 161 214 258 313 361
#     4  10  21  39  61  89 122 165 211 246 309 361
#     4  10  24  41  63  89 121 156 211 253 314 371
#     4  12  25  35  55  81 121 170 217 258 301 353
#     4  12  22  38  56  84 125 163 212 254 314 352
#     4  12  25  35  58  81 121 167 214 267 295 359
#
# _framework density 18.479711999999999
#
# number of rings (size 3 to 8) (size 9 to 14) (size 15 to 20)
#    0.900    0.000    4.500    3.600    4.200    2.400 
#    0.000    0.000    0.000    0.300    0.000    0.000 
#    0.000    1.200    0.000    0.000    0.000    0.000 
#
# Total GULP energy -495874.866080 kJ/mol
# GULP energy per Si atom -12396.871652 kJ/mol
# Density = 1.843765 g / cm^3
# Si number density = 18.479712 Si / 1000 Ang^3
#
#
#
# Elastic Constant Matrix: (Units=GPa)
#
#
# Indices 1 2 3 4 5 6 
#
# 1 72.0456 20.3061 26.4714 0.5525 5.6373 -0.0001
# 2 20.3061 72.0461 26.4716 -0.5523 -5.6374 0.0000
# 3 26.4714 26.4716 117.6261 0.0001 0.0000 0.0001
# 4 0.5525 -0.5523 0.0001 27.0396 0.0000 -5.6374
# 5 5.6373 -5.6374 0.0000 0.0000 27.0393 0.5524
# 6 -0.0001 0.0000 0.0001 -5.6374 0.5524 25.8698
#
#
#
# Elastic Compliance Matrix: (Units=1/GPa)
#
#
# Indices 1 2 3 4 5 6 
#
# 1 0.016344 -0.003912 -0.002798 -0.000414 -0.004223 0.000000
# 2 -0.003912 0.016344 -0.002798 0.000414 0.004223 0.000000
# 3 -0.002798 -0.002798 0.009761 0.000000 0.000000 0.000000
# 4 -0.000414 0.000414 0.000000 0.038761 0.000000 0.008447
# 5 -0.004223 0.004223 0.000000 0.000000 0.038761 -0.000828
# 6 0.000000 0.000000 0.000000 0.008447 -0.000828 0.040513
#
#
# Mechanical properties :
#
#
# Convention : Reuss Voigt Hill
#
# Bulk Modulus (GPa) = 42.67362 45.35733 44.01547
# Shear Modulus (GPa) = 26.69346 28.55431 27.62388
#
# Velocity S-wave (km/s) = 3.80475 3.93513 3.87049
# Velocity P-wave (km/s) = 6.51489 6.72642 6.62150
#
# Compressibility (1/GPa) = 0.02343368
#
# Stress axis : x y z
#
# Youngs Moduli (GPa) = 61.18306 61.18346 102.45064
#
# Poissons Ratio (x) = 0.23937 0.28664
# Poissons Ratio (y) = 0.23937 0.28664
# Poissons Ratio (z) = 0.17118 0.17118
#
# Static dielectric constant tensor:
#      x y z
#    x 3.212760 0.000000 -0.000010 
#    y 0.000000 3.212740 0.000000 
#    z -0.000010 0.000000 3.423150 
# 
# 
# High freq. dielectric constant tensor:
#      x y z
#    x 1.695920 0.000000 0.000000 
#    y 0.000000 1.695920 0.000000 
#    z 0.000000 0.000000 1.727230 
# 
# From -- ./inp_files/650.got.cif
#   From: 2010.03.12/outbox.cif.g09.slc.cpg/sg147_cif.got.tgz:650.got - 2010.04.03 13:37:56.
