data_PCOD8321715
_publ_section_title
;
Structure prediction by ZEFSAII (Michael W. Deem and Ramdas Pophale) SiO2 
 PCOD8321715
Probable space group: R -3
;
_chemical_formula_sum "Si O2"
_cell_formula_units_Z 144
_cell_length_a 22.884321
_cell_length_b 22.884321
_cell_length_c 17.619352
_cell_angle_alpha 90.000000
_cell_angle_beta 90.000000
_cell_angle_gamma 120.000000
_cell_volume 7990.917110
_symmetry_space_group_name_H-M "R -3"
_symmetry_group_IT_number 148
_symmetry_cell_setting 'hexagonal'
loop_
_space_group_symop_operation_xyz
x,y,z
-y,x-y,z
-x+y,-x,z
-x,-y,-z
y,-x+y,-z
x-y,x,-z
2/3+x,1/3+y,1/3+z
2/3-y,1/3+x-y,1/3+z
2/3-x+y,1/3-x,1/3+z
2/3-x,1/3-y,1/3-z
2/3+y,1/3-x+y,1/3-z
2/3+x-y,1/3+x,1/3-z
1/3+x,2/3+y,2/3+z
1/3-y,2/3+x-y,2/3+z
1/3-x+y,2/3-x,2/3+z
1/3-x,2/3-y,2/3-z
1/3+y,2/3-x+y,2/3-z
1/3+x-y,2/3+x,2/3-z
loop_
_atom_site_type_symbol
_atom_site_label
_atom_site_fract_x
_atom_site_fract_y
_atom_site_fract_z
Si Si1 0.594134 0.880137 0.303600
Si Si2 0.582736 0.638063 0.871155
Si Si3 0.283581 0.011725 0.795187
Si Si4 0.591956 0.755609 0.248977
Si Si5 0.082261 0.465066 0.325410
Si Si6 0.581381 0.498960 0.748104
Si Si7 0.404235 0.278124 0.386519
Si Si8 0.521037 0.594347 0.722032
O O1 0.572133 0.902738 0.382586
O O2 0.665016 0.935286 0.266048
O O3 0.592671 0.809255 0.308625
O O4 0.531835 0.869858 0.251521
O O5 0.657126 0.686258 0.838573
O O6 0.569856 0.567916 0.907236
O O7 0.528273 0.627768 0.805786
O O8 0.256205 0.044225 0.856400
O O9 0.216353 0.961916 0.748271
O O10 0.541997 0.681314 0.280321
O O11 0.574565 0.773175 0.165933
O O12 0.101761 0.542246 0.313218
O O13 0.007338 0.414442 0.294832
O O14 0.568125 0.560967 0.730371
O O15 0.451785 0.347023 0.341127
O O16 0.425954 0.222120 0.367702
#
# Coordination Sequence:
#
# PCOD8321715 Si02
#       8
#    18  18  18  18  18  18  18  18
#     4  12  21  33  54  80 109 144 184 223 270 326
#     4  11  20  33  52  79 112 141 179 217 270 324
#     4  12  19  34  56  80 116 145 174 225 273 333
#     4  11  20  31  55  78 108 143 180 223 270 321
#     4  11  21  34  52  79 112 143 182 218 279 327
#     4  10  20  36  51  77 112 146 178 223 270 327
#     4  11  21  38  56  79 112 146 182 225 277 331
#     4  10  21  37  55  77 108 149 180 227 273 329
#
# _framework density 18.02046
#
# number of rings (size 3 to 8) (size 9 to 14) (size 15 to 20)
#    0.000    1.000    6.250    4.125    1.750    0.000 
#    2.250    1.875    0.000    0.750    0.000    1.750 
#    3.750    0.000    0.000    0.000    0.000    0.000 
#
# Total GULP energy -594723.102194 kJ/mol
# GULP energy per Si atom -12390.064629 kJ/mol
# Density = 1.797945 g / cm^3
# Si number density = 18.020460 Si / 1000 Ang^3
#
#
#
# Elastic Constant Matrix: (Units=GPa)
#
#
# Indices 1 2 3 4 5 6 
#
# 1 68.6773 31.3081 26.9563 5.0786 -1.1283 0.0000
# 2 31.3081 68.6773 26.9563 -5.0786 1.1283 0.0000
# 3 26.9563 26.9563 101.7805 0.0000 0.0000 0.0000
# 4 5.0786 -5.0786 0.0000 25.8876 0.0000 1.1283
# 5 -1.1283 1.1283 0.0000 0.0000 25.8876 5.0786
# 6 0.0000 0.0000 0.0000 1.1283 5.0786 18.6846
#
#
#
# Elastic Compliance Matrix: (Units=1/GPa)
#
#
# Indices 1 2 3 4 5 6 
#
# 1 0.020007 -0.008339 -0.003090 -0.005561 0.001235 0.000000
# 2 -0.008339 0.020007 -0.003090 0.005561 -0.001235 0.000000
# 3 -0.003090 -0.003090 0.011462 0.000000 0.000000 0.000000
# 4 -0.005561 0.005561 0.000000 0.040918 0.000000 -0.002471
# 5 0.001235 -0.001235 0.000000 0.000000 0.040918 -0.011122
# 6 0.000000 0.000000 0.000000 -0.002471 -0.011122 0.056692
#
#
# Mechanical properties :
#
#
# Convention : Reuss Voigt Hill
#
# Bulk Modulus (GPa) = 44.56995 45.50852 45.03924
# Shear Modulus (GPa) = 22.07290 24.35291 23.21291
#
# Velocity S-wave (km/s) = 3.50363 3.68013 3.59296
# Velocity P-wave (km/s) = 6.41513 6.58532 6.50078
#
# Compressibility (1/GPa) = 0.02243664
#
# Stress axis : x y z
#
# Youngs Moduli (GPa) = 49.98275 49.98275 87.24551
#
# Poissons Ratio (x) = 0.41682 0.26960
# Poissons Ratio (y) = 0.41682 0.26960
# Poissons Ratio (z) = 0.15445 0.15445
#
# Static dielectric constant tensor:
#      x y z
#    x 3.094460 0.000000 0.000000 
#    y 0.000000 3.094460 0.000000 
#    z 0.000000 0.000000 3.834470 
# 
# 
# High freq. dielectric constant tensor:
#      x y z
#    x 1.665850 0.000000 0.000000 
#    y 0.000000 1.665850 0.000000 
#    z 0.000000 0.000000 1.720820 
# 
# From -- ./inp_files/2817.got.cif
#   From: 2010.03.12/outbox.cif.g09.slc.cpg/sg148_2_cif.got.tgz:2817.got - 2010.04.03 13:38:46.
