data_PCOD8321075
_publ_section_title
;
Structure prediction by ZEFSAII (Michael W. Deem and Ramdas Pophale) SiO2 
 PCOD8321075
Probable space group: I 41/A C D
;
_chemical_formula_sum "Si O2"
_cell_formula_units_Z 144
_cell_length_a 18.203279
_cell_length_b 18.203279
_cell_length_c 21.589572
_cell_angle_alpha 90.000000
_cell_angle_beta 90.000000
_cell_angle_gamma 90.000000
_cell_volume 7153.906898
_symmetry_space_group_name_H-M "I 41/A C D"
_symmetry_group_IT_number 142
_space_group.IT_coordinate_system_code '2'
_symmetry_cell_setting 'tetragonal'
loop_
_space_group_symop_operation_xyz
x,y,z
1/4-y,3/4+x,1/4+z
-x,1/2-y,z
1/4+y,1/4-x,3/4+z
x,-y,1/2-z
1/2-x,y,-z
3/4+y,1/4+x,1/4-z
1/4-y,1/4-x,1/4-z
-x,-y,-z
3/4+y,1/4-x,3/4-z
x,1/2+y,-z
3/4-y,3/4+x,1/4-z
-x,y,1/2+z
1/2+x,-y,z
1/4-y,3/4-x,3/4+z
3/4+y,3/4+x,3/4+z
1/2+x,1/2+y,1/2+z
3/4-y,1/4+x,3/4+z
1/2-x,-y,1/2+z
3/4+y,3/4-x,1/4+z
1/2+x,1/2-y,-z
-x,1/2+y,1/2-z
1/4+y,3/4+x,3/4-z
3/4-y,3/4-x,3/4-z
1/2-x,1/2-y,1/2-z
1/4+y,3/4-x,1/4-z
1/2+x,y,1/2-z
1/4-y,1/4+x,3/4-z
1/2-x,1/2+y,z
x,1/2-y,1/2+z
3/4-y,1/4-x,1/4+z
1/4+y,1/4+x,1/4+z
loop_
_atom_site_type_symbol
_atom_site_label
_atom_site_fract_x
_atom_site_fract_y
_atom_site_fract_z
Si Si1 0.713130 0.653747 0.299535
Si Si2 0.084155 0.583908 0.747473
Si Si3 0.191986 0.329222 0.952915
Si Si4 0.575522 0.547391 0.434380
Si Si5 0.650437 0.099564 0.375000
O O1 0.630387 0.627646 0.304319
O O2 0.743236 0.632682 0.231494
O O3 0.703213 0.739895 0.302658
O O4 0.765694 0.615797 0.351798
O O5 0.114673 0.500000 0.750000
O O6 0.123856 0.634985 0.696231
O O7 0.096395 0.617173 0.816913
O O8 0.999438 0.584348 0.727894
O O9 0.230429 0.329594 0.885871
O O10 0.250000 0.364320 0.000000
#
# Coordination Sequence:
#
# PCOD8321075 Si02
#       5
#    32  32  32  32  16
#     4  10  22  37  59  86 115 152 195 246 296 363
#     4  10  21  38  62  85 116 158 198 246 303 366
#     4  11  22  36  57  86 115 148 196 250 300 354
#     4  10  21  39  58  81 115 155 198 238 293 368
#     4  10  20  40  62  85 120 162 196 233 314 380
#
# _framework density 20.128862000000002
#
# number of rings (size 3 to 8) (size 9 to 14) (size 15 to 20)
#    0.000    1.778    0.000    5.333    0.000    7.111 
#    0.000    2.222    0.000   12.000    0.000    0.000 
#    0.000    0.000    0.000    0.000    0.000    0.000 
#
# Total GULP energy -892069.363920 kJ/mol
# GULP energy per Si atom -12389.852277 kJ/mol
# Density = 2.008305 g / cm^3
# Si number density = 20.128862 Si / 1000 Ang^3
#
#
#
# Elastic Constant Matrix: (Units=GPa)
#
#
# Indices 1 2 3 4 5 6 
#
# 1 80.7501 50.9797 34.6721 0.0000 0.0000 0.0000
# 2 50.9797 80.7491 34.6727 0.0000 0.0000 0.0000
# 3 34.6721 34.6727 169.7267 0.0000 0.0000 0.0000
# 4 0.0000 0.0000 0.0000 24.5734 0.0000 0.0000
# 5 0.0000 0.0000 0.0000 0.0000 24.5737 0.0000
# 6 0.0000 0.0000 0.0000 0.0000 0.0000 15.5243
#
#
#
# Elastic Compliance Matrix: (Units=1/GPa)
#
#
# Indices 1 2 3 4 5 6 
#
# 1 0.021048 -0.012542 -0.001738 0.000000 0.000000 0.000000
# 2 -0.012542 0.021049 -0.001738 0.000000 0.000000 0.000000
# 3 -0.001738 -0.001738 0.006602 0.000000 0.000000 0.000000
# 4 0.000000 0.000000 0.000000 0.040694 0.000000 0.000000
# 5 0.000000 0.000000 0.000000 0.000000 0.040694 0.000000
# 6 0.000000 0.000000 0.000000 0.000000 0.000000 0.064415
#
#
# Mechanical properties :
#
#
# Convention : Reuss Voigt Hill
#
# Bulk Modulus (GPa) = 60.01215 63.54164 61.77689
# Shear Modulus (GPa) = 21.54317 26.99439 24.26878
#
# Velocity S-wave (km/s) = 3.27504 3.66605 3.47604
# Velocity P-wave (km/s) = 6.64679 7.03959 6.84601
#
# Compressibility (1/GPa) = 0.01666329
#
# Stress axis : x y z
#
# Youngs Moduli (GPa) = 47.50962 47.50882 151.47455
#
# Poissons Ratio (x) = 0.59588 0.26319
# Poissons Ratio (y) = 0.59589 0.26322
# Poissons Ratio (z) = 0.08255 0.08256
#
# Static dielectric constant tensor:
#      x y z
#    x 3.592290 0.000000 0.000000 
#    y 0.000000 3.592300 0.000000 
#    z 0.000000 0.000000 4.266650 
# 
# 
# High freq. dielectric constant tensor:
#      x y z
#    x 1.772210 0.000000 0.000000 
#    y 0.000000 1.772210 0.000000 
#    z 0.000000 0.000000 1.814950 
# 
# From -- ./inp_files/10141.got.cif
#   From: 2010.03.12/outbox.cif.g09.slc.cpg/sg142_6_cif.got.tgz:10141.got - 2010.04.03 13:27:16.
