data_PCOD8321454
_publ_section_title
;
Structure prediction by ZEFSAII (Michael W. Deem and Ramdas Pophale) SiO2 
 PCOD8321454
Probable space group: P 31
;
_chemical_formula_sum "Si O2"
_cell_formula_units_Z 6
_cell_length_a 7.857095
_cell_length_b 7.857095
_cell_length_c 4.892349
_cell_angle_alpha 90.000000
_cell_angle_beta 90.000000
_cell_angle_gamma 120.000000
_cell_volume 261.560447
_symmetry_space_group_name_H-M "P 31"
_symmetry_group_IT_number 144
_symmetry_cell_setting 'hexagonal'
loop_
_space_group_symop_operation_xyz
x,y,z
-y,x-y,1/3+z
-x+y,-x,2/3+z
loop_
_atom_site_type_symbol
_atom_site_label
_atom_site_fract_x
_atom_site_fract_y
_atom_site_fract_z
Si Si1 0.283473 0.337638 0.009490
Si Si2 0.670972 0.720833 0.842824
O O1 0.172366 0.400278 0.229200
O O2 0.308784 0.163155 0.127508
O O3 0.496487 0.521038 0.960838
O O4 0.160969 0.266388 0.729198
#
# Coordination Sequence:
#
# PCOD8321454 Si02
#       2
#     3   3
#     4  12  26  46  70 100 136 178 224 276 334 398
#     4  12  26  46  70 100 136 178 224 276 334 398
#
# _framework density 22.939246000000001
#
# number of rings (size 3 to 8) (size 9 to 14) (size 15 to 20)
#    0.000    0.000    0.000   12.000    0.000    8.000 
#    0.000    0.000    0.000    0.000    0.000    0.000 
#    0.000    0.000    0.000    0.000    0.000    0.000 
#
# Total GULP energy -74473.515670 kJ/mol
# GULP energy per Si atom -12412.252612 kJ/mol
# Density = 2.288704 g / cm^3
# Si number density = 22.939246 Si / 1000 Ang^3
#
#
#
# Elastic Constant Matrix: (Units=GPa)
#
#
# Indices 1 2 3 4 5 6 
#
# 1 124.3237 60.8779 25.9183 0.0000 0.0003 0.0000
# 2 60.8779 124.3237 25.9183 0.0000 -0.0003 0.0000
# 3 25.9183 25.9183 111.9833 0.0000 0.0000 0.0000
# 4 0.0000 0.0000 0.0000 48.9705 0.0000 -0.0003
# 5 0.0003 -0.0003 0.0000 0.0000 48.9705 0.0000
# 6 0.0000 0.0000 0.0000 -0.0003 0.0000 31.7229
#
#
#
# Elastic Compliance Matrix: (Units=1/GPa)
#
#
# Indices 1 2 3 4 5 6 
#
# 1 0.010768 -0.004994 -0.001336 0.000000 0.000000 0.000000
# 2 -0.004994 0.010768 -0.001336 0.000000 0.000000 0.000000
# 3 -0.001336 -0.001336 0.009548 0.000000 0.000000 0.000000
# 4 0.000000 0.000000 0.000000 0.020420 0.000000 0.000000
# 5 0.000000 0.000000 0.000000 0.000000 0.020420 0.000000
# 6 0.000000 0.000000 0.000000 0.000000 0.000000 0.031523
#
#
# Mechanical properties :
#
#
# Convention : Reuss Voigt Hill
#
# Bulk Modulus (GPa) = 63.49033 65.11777 64.30405
# Shear Modulus (GPa) = 40.31266 42.46052 41.38659
#
# Velocity S-wave (km/s) = 4.19664 4.30699 4.25218
# Velocity P-wave (km/s) = 7.15682 7.29262 7.22504
#
# Compressibility (1/GPa) = 0.01575043
#
# Stress axis : x y z
#
# Youngs Moduli (GPa) = 92.87204 92.87204 104.72895
#
# Poissons Ratio (x) = 0.46380 0.13995
# Poissons Ratio (y) = 0.46380 0.13995
# Poissons Ratio (z) = 0.12410 0.12410
#
# Static dielectric constant tensor:
#      x y z
#    x 4.073420 0.000000 0.000000 
#    y 0.000000 4.073420 0.000000 
#    z 0.000000 0.000000 4.558790 
# 
# 
# High freq. dielectric constant tensor:
#      x y z
#    x 1.917090 0.000000 0.000000 
#    y 0.000000 1.917090 0.000000 
#    z 0.000000 0.000000 1.932340 
# 
# From -- ./inp_files/31.got.cif
#   From: 2010.03.12/outbox.cif.g09.slc.cpg/sg144_cif.got.tgz:31.got - 2010.04.03 13:34:42.
