data_PCOD8321860
_publ_section_title
;
Structure prediction by ZEFSAII (Michael W. Deem and Ramdas Pophale) SiO2 
 PCOD8321860
Probable space group: P 3 1 2
;
_chemical_formula_sum "Si O2"
_cell_formula_units_Z 14
_cell_length_a 10.801935
_cell_length_b 10.801935
_cell_length_c 7.021806
_cell_angle_alpha 90.000000
_cell_angle_beta 90.000000
_cell_angle_gamma 120.000000
_cell_volume 709.549302
_symmetry_space_group_name_H-M "P 3 1 2"
_symmetry_group_IT_number 149
_symmetry_cell_setting 'hexagonal'
loop_
_space_group_symop_operation_xyz
x,y,z
-y,x-y,z
-x+y,-x,z
-y,-x,-z
-x+y,y,-z
x,x-y,-z
loop_
_atom_site_type_symbol
_atom_site_label
_atom_site_fract_x
_atom_site_fract_y
_atom_site_fract_z
Si Si1 0.339500 0.382322 0.500000
Si Si2 0.839533 0.679067 0.774790
Si Si3 0.000000 0.000000 0.223353
O O1 0.448071 0.551930 0.500000
O O2 0.178478 0.356955 0.500000
O O3 0.378722 0.317064 0.684624
O O4 0.378721 0.317064 0.315376
O O5 0.920475 0.840949 0.701729
O O6 0.825889 0.651777 0.000000
O O7 0.000000 0.000000 0.000000
#
# Coordination Sequence:
#
# PCOD8321860 Si02
#       3
#     6   6   2
#     4  11  23  38  60  88 123 157 196 242 296 357
#     4  10  21  39  64  89 115 150 197 250 299 347
#     4   9  15  31  65  94 103 131 190 250 296 334
#
# _framework density 19.730833000000001
#
# number of rings (size 3 to 8) (size 9 to 14) (size 15 to 20)
#    0.000    1.714    4.286    0.429    0.000    1.714 
#   10.286    0.000    0.000    5.143    0.000    0.000 
#    0.000    0.000    0.000    0.000    0.000    0.000 
#
# Total GULP energy -173433.244302 kJ/mol
# GULP energy per Si atom -12388.088879 kJ/mol
# Density = 1.968592 g / cm^3
# Si number density = 19.730833 Si / 1000 Ang^3
#
#
#
# Elastic Constant Matrix: (Units=GPa)
#
#
# Indices 1 2 3 4 5 6 
#
# 1 95.4879 23.6988 35.2178 0.0000 -0.0001 0.0000
# 2 23.6988 95.4879 35.2178 0.0000 0.0001 0.0000
# 3 35.2178 35.2178 166.1697 0.0000 0.0000 0.0000
# 4 0.0000 0.0000 0.0000 17.7494 0.0000 0.0001
# 5 -0.0001 0.0001 0.0000 0.0000 17.7494 0.0000
# 6 0.0000 0.0000 0.0000 0.0001 0.0000 35.8945
#
#
#
# Elastic Compliance Matrix: (Units=1/GPa)
#
#
# Indices 1 2 3 4 5 6 
#
# 1 0.011761 -0.002169 -0.002033 0.000000 0.000000 0.000000
# 2 -0.002169 0.011761 -0.002033 0.000000 0.000000 0.000000
# 3 -0.002033 -0.002033 0.006880 0.000000 0.000000 0.000000
# 4 0.000000 0.000000 0.000000 0.056340 0.000000 0.000000
# 5 0.000000 0.000000 0.000000 0.000000 0.056340 0.000000
# 6 0.000000 0.000000 0.000000 0.000000 0.000000 0.027859
#
#
# Mechanical properties :
#
#
# Convention : Reuss Voigt Hill
#
# Bulk Modulus (GPa) = 55.76809 60.60158 58.18484
# Shear Modulus (GPa) = 26.40101 31.81274 29.10687
#
# Velocity S-wave (km/s) = 3.66192 4.01975 3.84500
# Velocity P-wave (km/s) = 6.79745 7.23362 7.01893
#
# Compressibility (1/GPa) = 0.01793140
#
# Stress axis : x y z
#
# Youngs Moduli (GPa) = 85.02959 85.02959 145.35712
#
# Poissons Ratio (x) = 0.18444 0.29548
# Poissons Ratio (y) = 0.18444 0.29548
# Poissons Ratio (z) = 0.17285 0.17285
#
# Static dielectric constant tensor:
#      x y z
#    x 4.407790 0.000000 0.000000 
#    y 0.000000 4.407790 0.000000 
#    z 0.000000 0.000000 3.428080 
# 
# 
# High freq. dielectric constant tensor:
#      x y z
#    x 1.761850 0.000000 0.000000 
#    y 0.000000 1.761850 0.000000 
#    z 0.000000 0.000000 1.773550 
# 
# From -- ./inp_files/334.got.cif
#   From: 2010.03.12/outbox.cif.g09.slc.cpg/sg149_cif.got.tgz:334.got - 2010.04.03 13:40:41.
