data_PCOD8321579
_publ_section_title
;
Structure prediction by ZEFSAII (Michael W. Deem and Ramdas Pophale) SiO2 
 PCOD8321579
Probable space group: R 3
;
_chemical_formula_sum "Si O2"
_cell_formula_units_Z 42
_cell_length_a 15.605268
_cell_length_b 15.605268
_cell_length_c 9.662389
_cell_angle_alpha 90.000000
_cell_angle_beta 90.000000
_cell_angle_gamma 120.000000
_cell_volume 2037.781488
_symmetry_space_group_name_H-M "R 3"
_symmetry_group_IT_number 146
_symmetry_cell_setting 'hexagonal'
loop_
_space_group_symop_operation_xyz
x,y,z
-y,x-y,z
-x+y,-x,z
2/3+x,1/3+y,1/3+z
2/3-y,1/3+x-y,1/3+z
2/3-x+y,1/3-x,1/3+z
1/3+x,2/3+y,2/3+z
1/3-y,2/3+x-y,2/3+z
1/3-x+y,2/3-x,2/3+z
loop_
_atom_site_type_symbol
_atom_site_label
_atom_site_fract_x
_atom_site_fract_y
_atom_site_fract_z
Si Si1 0.297187 0.840122 0.535420
Si Si2 0.779314 0.727688 0.176889
Si Si3 0.666667 0.333335 0.801996
Si Si4 0.000000 0.000000 0.792860
Si Si5 0.490310 0.501232 0.976198
Si Si6 0.877395 0.486254 0.725224
O O1 0.284904 0.839127 0.699757
O O2 0.337455 0.765537 0.511505
O O3 0.197747 0.811154 0.449827
O O4 0.374485 0.946956 0.476941
O O5 0.718860 0.773683 0.251187
O O6 0.864170 0.730674 0.272497
O O7 0.778169 0.382266 0.748755
O O8 0.666668 0.333334 0.964073
O O9 0.478739 0.421083 0.863213
O O10 0.383270 0.483209 0.010290
#
# Coordination Sequence:
#
# PCOD8321579 Si02
#       6
#     9   9   3   3   9   9
#     4  12  27  46  73 101 147 183 234 288 357 423
#     4  12  26  46  74 105 143 189 232 291 359 419
#     4  12  24  49  74 103 144 193 236 286 345 439
#     4  12  30  43  71 112 138 184 236 292 360 409
#     4  12  26  48  71 109 139 192 235 290 359 415
#     4  12  27  46  77 104 145 185 241 291 350 421
#
# _framework density 20.610648999999999
#
# number of rings (size 3 to 8) (size 9 to 14) (size 15 to 20)
#    0.000    0.000    8.571    0.000    6.000    3.429 
#    0.000    0.000    0.000    0.000    0.000    0.000 
#    0.000    0.000    0.000    0.000    0.000    0.000 
#
# Total GULP energy -173667.365137 kJ/mol
# GULP energy per Si atom -12404.811795 kJ/mol
# Density = 2.056374 g / cm^3
# Si number density = 20.610649 Si / 1000 Ang^3
#
#
#
# Elastic Constant Matrix: (Units=GPa)
#
#
# Indices 1 2 3 4 5 6 
#
# 1 110.8228 31.7299 20.0105 -6.1984 3.0042 -0.0005
# 2 31.7299 110.8216 20.0107 6.1968 -3.0042 -0.0010
# 3 20.0105 20.0107 111.2222 0.0004 0.0004 -0.0002
# 4 -6.1984 6.1968 0.0004 44.9830 0.0032 -3.0060
# 5 3.0042 -3.0042 0.0004 0.0032 44.9825 -6.1967
# 6 -0.0005 -0.0010 -0.0002 -3.0060 -6.1967 39.5463
#
#
#
# Elastic Compliance Matrix: (Units=1/GPa)
#
#
# Indices 1 2 3 4 5 6 
#
# 1 0.010189 -0.002801 -0.001329 0.001790 -0.000868 0.000000
# 2 -0.002801 0.010189 -0.001329 -0.001790 0.000868 0.000000
# 3 -0.001329 -0.001329 0.009469 0.000000 0.000000 0.000000
# 4 0.001790 -0.001790 0.000000 0.022840 -0.000002 0.001736
# 5 -0.000868 0.000868 0.000000 -0.000002 0.022840 0.003579
# 6 0.000000 0.000000 0.000000 0.001736 0.003579 0.025980
#
#
# Mechanical properties :
#
#
# Convention : Reuss Voigt Hill
#
# Bulk Modulus (GPa) = 52.82996 52.92987 52.87991
# Shear Modulus (GPa) = 42.11071 43.31006 42.71039
#
# Velocity S-wave (km/s) = 4.52503 4.58901 4.55713
# Velocity P-wave (km/s) = 7.27937 7.33589 7.30768
#
# Compressibility (1/GPa) = 0.01892865
#
# Stress axis : x y z
#
# Youngs Moduli (GPa) = 98.14531 98.14451 105.60427
#
# Poissons Ratio (x) = 0.27489 0.14037
# Poissons Ratio (y) = 0.27489 0.14038
# Poissons Ratio (z) = 0.13046 0.13046
#
# Static dielectric constant tensor:
#      x y z
#    x 3.770080 0.000000 0.000000 
#    y 0.000000 3.770060 0.000020 
#    z 0.000000 0.000020 3.905810 
# 
# 
# High freq. dielectric constant tensor:
#      x y z
#    x 1.814890 0.000000 0.000000 
#    y 0.000000 1.814890 0.000000 
#    z 0.000000 0.000000 1.824960 
# 
# From -- ./inp_files/1100.got.cif
#   From: 2010.06.25/outbox.cif.g09.slc.cpg/sg146_cif.got.tgz:1100.got - 2010.06.28 11:17:22.
