data_PCOD8321458
_publ_section_title
;
Structure prediction by ZEFSAII (Michael W. Deem and Ramdas Pophale) SiO2 
 PCOD8321458
Probable space group: P 32
;
_chemical_formula_sum "Si O2"
_cell_formula_units_Z 21
_cell_length_a 10.894603
_cell_length_b 10.894603
_cell_length_c 8.876915
_cell_angle_alpha 90.000000
_cell_angle_beta 90.000000
_cell_angle_gamma 120.000000
_cell_volume 912.463522
_symmetry_space_group_name_H-M "P 32"
_symmetry_group_IT_number 145
_symmetry_cell_setting 'hexagonal'
loop_
_space_group_symop_operation_xyz
x,y,z
-y,x-y,2/3+z
-x+y,-x,1/3+z
loop_
_atom_site_type_symbol
_atom_site_label
_atom_site_fract_x
_atom_site_fract_y
_atom_site_fract_z
Si Si1 0.766037 0.988631 0.017040
Si Si2 0.263196 0.054847 0.581455
Si Si3 0.395726 0.959166 0.328605
Si Si4 0.472085 0.852742 0.884827
Si Si5 0.457712 0.110787 0.853578
Si Si6 0.199655 0.673757 0.221448
Si Si7 0.439837 0.213173 0.158024
O O1 0.818053 0.064431 0.178574
O O2 0.822690 0.110740 0.890067
O O3 0.829190 0.884731 0.993055
O O4 0.595835 0.902761 0.009529
O O5 0.392750 0.126330 0.698324
O O6 0.297235 0.967802 0.458496
O O7 0.293203 0.844464 0.202136
O O8 0.493014 0.904871 0.415705
O O9 0.487088 0.109142 0.242981
O O10 0.368365 0.689178 0.916485
O O11 0.532688 0.885023 0.712299
O O12 0.395037 0.945876 0.899650
O O13 0.627823 0.190838 0.851208
O O14 0.414075 0.184326 0.981600
#
# Coordination Sequence:
#
# PCOD8321458 Si02
#       7
#     3   3   3   3   3   3   3
#     4  10  22  43  68 103 137 188 241 308 361 448
#     4  11  22  44  73  97 148 190 244 305 377 428
#     4  10  21  40  67 111 141 186 235 303 372 436
#     4  10  19  36  64 102 139 180 234 296 362 425
#     4  11  24  46  68  96 144 194 245 300 362 449
#     4  10  18  35  72 101 146 178 229 306 369 420
#     4  10  26  44  68 100 147 186 246 300 369 454
#
# _framework density 23.014616
#
# number of rings (size 3 to 8) (size 9 to 14) (size 15 to 20)
#    0.000    1.714    4.286    0.000    4.000    4.571 
#    0.000    1.429    0.000    0.000    0.000    0.000 
#    0.000    0.000    0.000    0.000    0.000    0.000 
#
# Total GULP energy -260287.450059 kJ/mol
# GULP energy per Si atom -12394.640479 kJ/mol
# Density = 2.296223 g / cm^3
# Si number density = 23.014616 Si / 1000 Ang^3
#
#
#
# Elastic Constant Matrix: (Units=GPa)
#
#
# Indices 1 2 3 4 5 6 
#
# 1 96.0588 38.1089 55.6645 1.3407 2.4630 0.0000
# 2 38.1089 96.0588 55.6645 -1.3407 -2.4630 0.0000
# 3 55.6645 55.6645 95.5514 0.0000 0.0000 0.0000
# 4 1.3407 -1.3407 0.0000 36.4299 0.0000 -2.4630
# 5 2.4630 -2.4630 0.0000 0.0000 36.4299 1.3407
# 6 0.0000 0.0000 0.0000 -2.4630 1.3407 28.9749
#
#
#
# Elastic Compliance Matrix: (Units=1/GPa)
#
#
# Indices 1 2 3 4 5 6 
#
# 1 0.015907 -0.001479 -0.008405 -0.000640 -0.001175 0.000000
# 2 -0.001479 0.015907 -0.008405 0.000640 0.001175 0.000000
# 3 -0.008405 -0.008405 0.020258 0.000000 0.000000 0.000000
# 4 -0.000640 0.000640 0.000000 0.027656 0.000000 0.002351
# 5 -0.001175 0.001175 0.000000 0.000000 0.027656 -0.001280
# 6 0.000000 0.000000 0.000000 0.002351 -0.001280 0.034772
#
#
# Mechanical properties :
#
#
# Convention : Reuss Voigt Hill
#
# Bulk Modulus (GPa) = 64.54222 65.17165 64.85693
# Shear Modulus (GPa) = 27.18896 29.58233 28.38565
#
# Velocity S-wave (km/s) = 3.44085 3.58910 3.51575
# Velocity P-wave (km/s) = 6.62501 6.74941 6.68750
#
# Compressibility (1/GPa) = 0.01549373
#
# Stress axis : x y z
#
# Youngs Moduli (GPa) = 62.86658 62.86658 49.36227
#
# Poissons Ratio (x) = 0.09299 0.41489
# Poissons Ratio (y) = 0.09299 0.41489
# Poissons Ratio (z) = 0.52839 0.52839
#
# Static dielectric constant tensor:
#      x y z
#    x 4.118550 0.000000 0.000000 
#    y 0.000000 4.118550 0.000000 
#    z 0.000000 0.000000 4.220610 
# 
# 
# High freq. dielectric constant tensor:
#      x y z
#    x 1.897500 0.000000 0.000000 
#    y 0.000000 1.897500 0.000000 
#    z 0.000000 0.000000 1.911110 
# 
# From -- ./inp_files/426.got.cif
#   From: 2010.03.12/outbox.cif.g09.slc.cpg/sg145_cif.got.tgz:426.got - 2010.04.03 13:35:35.
