data_PCOD8321662
_publ_section_title
;
Structure prediction by ZEFSAII (Michael W. Deem and Ramdas Pophale) SiO2 
 PCOD8321662
Probable space group: P -3
;
_chemical_formula_sum "Si O2"
_cell_formula_units_Z 42
_cell_length_a 14.658357
_cell_length_b 14.658357
_cell_length_c 11.082629
_cell_angle_alpha 90.000000
_cell_angle_beta 90.000000
_cell_angle_gamma 120.000000
_cell_volume 2062.262839
_symmetry_space_group_name_H-M "P -3"
_symmetry_group_IT_number 147
_symmetry_cell_setting 'hexagonal'
loop_
_space_group_symop_operation_xyz
x,y,z
-y,x-y,z
-x+y,-x,z
-x,-y,-z
y,-x+y,-z
x-y,x,-z
loop_
_atom_site_type_symbol
_atom_site_label
_atom_site_fract_x
_atom_site_fract_y
_atom_site_fract_z
Si Si1 0.869989 0.352575 0.325454
Si Si2 0.503338 0.622176 0.291869
Si Si3 0.513732 0.689422 0.799744
Si Si4 0.288628 0.460677 0.400718
Si Si5 0.166097 0.954623 0.966870
Si Si6 0.752729 0.190346 0.941954
Si Si7 0.708467 0.662885 0.795324
O O1 0.803822 0.235981 0.267064
O O2 0.809796 0.410983 0.270613
O O3 0.855219 0.337871 0.468192
O O4 0.994742 0.411887 0.302720
O O5 0.383486 0.532983 0.309291
O O6 0.523946 0.711440 0.392299
O O7 0.507651 0.663353 0.157921
O O8 0.589908 0.640282 0.796911
O O9 0.490438 0.711834 0.937066
O O10 0.255553 0.346794 0.341250
O O11 0.217528 0.006428 0.837809
O O12 0.235341 0.909915 0.025539
O O13 0.045301 0.869536 0.943175
O O14 0.864289 0.282145 0.889841
#
# Coordination Sequence:
#
# PCOD8321662 Si02
#       7
#     6   6   6   6   6   6   6
#     4  12  26  40  68  97 130 175 228 272 342 388
#     4  11  24  41  68  95 125 182 218 275 337 396
#     4  11  24  41  65  94 132 167 215 279 329 396
#     4  11  23  43  62  92 130 164 227 270 321 397
#     4   9  17  32  56  88 124 158 206 265 331 396
#     4   9  22  39  61  92 128 160 216 258 340 397
#     4   9  20  38  60  84 123 169 203 266 321 391
#
# _framework density 20.365978999999999
#
# number of rings (size 3 to 8) (size 9 to 14) (size 15 to 20)
#    0.000    1.714    1.429    2.000   10.000    2.857 
#    0.000    0.000    0.000    0.000    0.000    0.000 
#    0.000    8.857    0.000    0.000    0.000    0.000 
#
# Total GULP energy -520386.176914 kJ/mol
# GULP energy per Si atom -12390.147069 kJ/mol
# Density = 2.031962 g / cm^3
# Si number density = 20.365979 Si / 1000 Ang^3
#
#
#
# Elastic Constant Matrix: (Units=GPa)
#
#
# Indices 1 2 3 4 5 6 
#
# 1 91.3306 43.7815 47.9446 -1.1395 4.1807 0.0000
# 2 43.7815 91.3306 47.9446 1.1395 -4.1807 0.0000
# 3 47.9446 47.9446 140.2240 0.0000 0.0000 0.0000
# 4 -1.1395 1.1395 0.0000 26.3349 0.0000 -4.1807
# 5 4.1807 -4.1807 0.0000 0.0000 26.3349 -1.1395
# 6 0.0000 0.0000 0.0000 -4.1807 -1.1395 23.7746
#
#
#
# Elastic Compliance Matrix: (Units=1/GPa)
#
#
# Indices 1 2 3 4 5 6 
#
# 1 0.015727 -0.005954 -0.003341 0.000938 -0.003442 0.000000
# 2 -0.005954 0.015727 -0.003341 -0.000938 0.003442 0.000000
# 3 -0.003341 -0.003341 0.009416 0.000000 0.000000 0.000000
# 4 0.000938 -0.000938 0.000000 0.039146 0.000000 0.006884
# 5 -0.003442 0.003442 0.000000 0.000000 0.039146 0.001876
# 6 0.000000 0.000000 0.000000 0.006884 0.001876 0.043362
#
#
# Mechanical properties :
#
#
# Convention : Reuss Voigt Hill
#
# Bulk Modulus (GPa) = 64.11873 66.91410 65.51641
# Shear Modulus (GPa) = 25.90698 27.50316 26.70507
#
# Velocity S-wave (km/s) = 3.57048 3.67883 3.62506
# Velocity P-wave (km/s) = 6.96774 7.13948 7.05413
#
# Compressibility (1/GPa) = 0.01559607
#
# Stress axis : x y z
#
# Youngs Moduli (GPa) = 63.58536 63.58536 106.19764
#
# Poissons Ratio (x) = 0.37860 0.35485
# Poissons Ratio (y) = 0.37860 0.35485
# Poissons Ratio (z) = 0.21247 0.21247
#
# Static dielectric constant tensor:
#      x y z
#    x 3.829290 0.000000 0.000000 
#    y 0.000000 3.829290 0.000000 
#    z 0.000000 0.000000 3.798160 
# 
# 
# High freq. dielectric constant tensor:
#      x y z
#    x 1.795510 0.000000 0.000000 
#    y 0.000000 1.795510 0.000000 
#    z 0.000000 0.000000 1.790110 
# 
# From -- ./inp_files/845.got.cif
#   From: 2010.03.12/outbox.cif.g09.slc.cpg/sg147_cif.got.tgz:845.got - 2010.04.03 13:37:56.
