data_PCOD8321010
_publ_section_title
;
Structure prediction by ZEFSAII (Michael W. Deem and Ramdas Pophale) SiO2 
 PCOD8321010
Probable space group: I 41/A C D
;
_chemical_formula_sum "Si O2"
_cell_formula_units_Z 128
_cell_length_a 15.075309
_cell_length_b 15.075309
_cell_length_c 27.629897
_cell_angle_alpha 90.000000
_cell_angle_beta 90.000000
_cell_angle_gamma 90.000000
_cell_volume 6279.306924
_symmetry_space_group_name_H-M "I 41/A C D"
_symmetry_group_IT_number 142
_space_group.IT_coordinate_system_code '2'
_symmetry_cell_setting 'tetragonal'
loop_
_space_group_symop_operation_xyz
x,y,z
1/4-y,3/4+x,1/4+z
-x,1/2-y,z
1/4+y,1/4-x,3/4+z
x,-y,1/2-z
1/2-x,y,-z
3/4+y,1/4+x,1/4-z
1/4-y,1/4-x,1/4-z
-x,-y,-z
3/4+y,1/4-x,3/4-z
x,1/2+y,-z
3/4-y,3/4+x,1/4-z
-x,y,1/2+z
1/2+x,-y,z
1/4-y,3/4-x,3/4+z
3/4+y,3/4+x,3/4+z
1/2+x,1/2+y,1/2+z
3/4-y,1/4+x,3/4+z
1/2-x,-y,1/2+z
3/4+y,3/4-x,1/4+z
1/2+x,1/2-y,-z
-x,1/2+y,1/2-z
1/4+y,3/4+x,3/4-z
3/4-y,3/4-x,3/4-z
1/2-x,1/2-y,1/2-z
1/4+y,3/4-x,1/4-z
1/2+x,y,1/2-z
1/4-y,1/4+x,3/4-z
1/2-x,1/2+y,z
x,1/2-y,1/2+z
3/4-y,1/4-x,1/4+z
1/4+y,1/4+x,1/4+z
loop_
_atom_site_type_symbol
_atom_site_label
_atom_site_fract_x
_atom_site_fract_y
_atom_site_fract_z
Si Si1 0.659741 0.913321 0.179863
Si Si2 0.473640 0.155825 0.004032
Si Si3 0.044828 0.577482 0.671739
Si Si4 0.625486 0.399489 0.568078
O O1 0.636641 0.886641 0.125000
O O2 0.647792 0.827092 0.212887
O O3 0.764243 0.939694 0.185275
O O4 0.596573 0.994218 0.195769
O O5 0.500000 0.250000 0.980758
O O6 0.415384 0.173098 0.051645
O O7 0.561219 0.103268 0.021240
O O8 0.064997 0.588890 0.615488
O O9 0.938908 0.564246 0.678828
#
# Coordination Sequence:
#
# PCOD8321010 Si02
#       4
#    32  32  32  32
#     4  10  22  37  55  88 127 152 194 244 301 363
#     4  10  20  35  61  85 116 157 198 239 298 354
#     4  10  19  36  62  87 114 152 202 253 292 349
#     4  10  19  36  63  88 113 156 203 248 299 357
#
# _framework density 20.384416000000002
#
# number of rings (size 3 to 8) (size 9 to 14) (size 15 to 20)
#    0.000    2.000    2.500    1.500    0.000    0.500 
#    0.000   12.500    5.500    0.000    0.000    0.000 
#    0.000    0.000    0.000    0.000    0.000    0.000 
#
# Total GULP energy -793487.000847 kJ/mol
# GULP energy per Si atom -12398.234388 kJ/mol
# Density = 2.033802 g / cm^3
# Si number density = 20.384416 Si / 1000 Ang^3
#
#
#
# Elastic Constant Matrix: (Units=GPa)
#
#
# Indices 1 2 3 4 5 6 
#
# 1 120.8068 71.6402 27.8074 0.0000 0.0000 0.0000
# 2 71.6402 120.8068 27.8074 0.0000 0.0000 0.0000
# 3 27.8074 27.8074 50.0919 0.0000 0.0000 0.0000
# 4 0.0000 0.0000 0.0000 17.2242 0.0000 0.0000
# 5 0.0000 0.0000 0.0000 0.0000 17.2242 0.0000
# 6 0.0000 0.0000 0.0000 0.0000 0.0000 36.3617
#
#
#
# Elastic Compliance Matrix: (Units=1/GPa)
#
#
# Indices 1 2 3 4 5 6 
#
# 1 0.013264 -0.007075 -0.003436 0.000000 0.000000 0.000000
# 2 -0.007075 0.013264 -0.003436 0.000000 0.000000 0.000000
# 3 -0.003436 -0.003436 0.023778 0.000000 0.000000 0.000000
# 4 0.000000 0.000000 0.000000 0.058058 0.000000 0.000000
# 5 0.000000 0.000000 0.000000 0.000000 0.058058 0.000000
# 6 0.000000 0.000000 0.000000 0.000000 0.000000 0.027501
#
#
# Mechanical properties :
#
#
# Convention : Reuss Voigt Hill
#
# Bulk Modulus (GPa) = 44.61678 60.69062 52.65370
# Shear Modulus (GPa) = 21.80676 25.12541 23.46609
#
# Velocity S-wave (km/s) = 3.27429 3.51462 3.39658
# Velocity P-wave (km/s) = 6.01912 6.80498 6.42408
#
# Compressibility (1/GPa) = 0.02241309
#
# Stress axis : x y z
#
# Youngs Moduli (GPa) = 75.39174 75.39174 42.05593
#
# Poissons Ratio (x) = 0.53339 0.14449
# Poissons Ratio (y) = 0.53339 0.14449
# Poissons Ratio (z) = 0.25903 0.25903
#
# Static dielectric constant tensor:
#      x y z
#    x 3.790180 0.000000 0.000000 
#    y 0.000000 3.790180 0.000000 
#    z 0.000000 0.000000 3.538960 
# 
# 
# High freq. dielectric constant tensor:
#      x y z
#    x 1.788110 0.000000 0.000000 
#    y 0.000000 1.788110 0.000000 
#    z 0.000000 0.000000 1.794860 
# 
# From -- ./inp_files/9983.got.cif
#   From: 2010.03.12/outbox.cif.g09.slc.cpg/sg142_5_cif.got.tgz:9983.got - 2010.04.03 13:27:16.
