data_PCOD8321723
_publ_section_title
;
Structure prediction by ZEFSAII (Michael W. Deem and Ramdas Pophale) SiO2 
 PCOD8321723
Probable space group: R -3
;
_chemical_formula_sum "Si O2"
_cell_formula_units_Z 108
_cell_length_a 17.462009
_cell_length_b 17.462009
_cell_length_c 20.064694
_cell_angle_alpha 90.000000
_cell_angle_beta 90.000000
_cell_angle_gamma 120.000000
_cell_volume 5298.483521
_symmetry_space_group_name_H-M "R -3"
_symmetry_group_IT_number 148
_symmetry_cell_setting 'hexagonal'
loop_
_space_group_symop_operation_xyz
x,y,z
-y,x-y,z
-x+y,-x,z
-x,-y,-z
y,-x+y,-z
x-y,x,-z
2/3+x,1/3+y,1/3+z
2/3-y,1/3+x-y,1/3+z
2/3-x+y,1/3-x,1/3+z
2/3-x,1/3-y,1/3-z
2/3+y,1/3-x+y,1/3-z
2/3+x-y,1/3+x,1/3-z
1/3+x,2/3+y,2/3+z
1/3-y,2/3+x-y,2/3+z
1/3-x+y,2/3-x,2/3+z
1/3-x,2/3-y,2/3-z
1/3+y,2/3-x+y,2/3-z
1/3+x-y,2/3+x,2/3-z
loop_
_atom_site_type_symbol
_atom_site_label
_atom_site_fract_x
_atom_site_fract_y
_atom_site_fract_z
Si Si1 0.128998 0.544686 0.680758
Si Si2 0.215130 0.270701 0.256582
Si Si3 0.515548 0.458152 0.656191
Si Si4 0.885694 0.500583 0.993770
Si Si5 0.785370 0.518063 0.804157
Si Si6 0.506117 0.986454 0.793342
O O1 0.178001 0.650190 0.673909
O O2 0.097716 0.519179 0.758709
O O3 0.039642 0.499542 0.634965
O O4 0.245648 0.200497 0.271660
O O5 0.277459 0.359561 0.298014
O O6 0.112672 0.236524 0.275057
O O7 0.223886 0.288071 0.176982
O O8 0.617907 0.485051 0.654094
O O9 0.474986 0.429808 0.731518
O O10 0.845658 0.422648 0.938837
O O11 0.823466 0.453930 0.813444
O O12 0.854515 0.618355 0.829596
#
# Coordination Sequence:
#
# PCOD8321723 Si02
#       6
#    18  18  18  18  18  18
#     4  10  21  41  66  89 116 156 198 258 311 360
#     4  10  21  41  59  85 123 165 196 243 314 354
#     4  10  20  40  60  89 124 153 207 254 297 361
#     4  10  21  36  59  83 121 165 196 246 300 358
#     4  11  19  33  54  88 117 161 204 240 292 363
#     4   9  22  39  59  87 120 155 202 248 305 366
#
# _framework density 20.383191
#
# number of rings (size 3 to 8) (size 9 to 14) (size 15 to 20)
#    1.000    1.000    1.667    2.333    0.000    0.000 
#    4.000    0.833    0.000    0.000    0.000    0.000 
#    0.000    0.000    0.000    0.000    0.000    0.000 
#
# Total GULP energy -446009.335742 kJ/mol
# GULP energy per Si atom -12389.148215 kJ/mol
# Density = 2.033680 g / cm^3
# Si number density = 20.383191 Si / 1000 Ang^3
#
#
#
# Elastic Constant Matrix: (Units=GPa)
#
#
# Indices 1 2 3 4 5 6 
#
# 1 72.6684 18.7484 25.2333 -4.6964 -4.5384 0.0000
# 2 18.7484 72.6684 25.2333 4.6964 4.5384 0.0000
# 3 25.2333 25.2333 47.0736 0.0000 0.0000 0.0000
# 4 -4.6964 4.6964 0.0000 20.0681 0.0000 4.5384
# 5 -4.5384 4.5384 0.0000 0.0000 20.0681 -4.6964
# 6 0.0000 0.0000 0.0000 4.5384 -4.6964 26.9600
#
#
#
# Elastic Compliance Matrix: (Units=1/GPa)
#
#
# Indices 1 2 3 4 5 6 
#
# 1 0.017835 -0.002298 -0.008328 0.004712 0.004553 0.000000
# 2 -0.002298 0.017835 -0.008328 -0.004712 -0.004553 0.000000
# 3 -0.008328 -0.008328 0.030172 0.000000 0.000000 0.000000
# 4 0.004712 -0.004712 0.000000 0.054095 0.000000 -0.009106
# 5 0.004553 -0.004553 0.000000 0.000000 0.054095 0.009423
# 6 0.000000 0.000000 0.000000 -0.009106 0.009423 0.040266
#
#
# Mechanical properties :
#
#
# Convention : Reuss Voigt Hill
#
# Bulk Modulus (GPa) = 35.80114 36.76005 36.28059
# Shear Modulus (GPa) = 19.11915 21.63227 20.37571
#
# Velocity S-wave (km/s) = 3.06598 3.26126 3.16513
# Velocity P-wave (km/s) = 5.48961 5.67933 5.58527
#
# Compressibility (1/GPa) = 0.02793207
#
# Stress axis : x y z
#
# Youngs Moduli (GPa) = 56.07006 56.07006 33.14365
#
# Poissons Ratio (x) = 0.12887 0.27602
# Poissons Ratio (y) = 0.12887 0.27602
# Poissons Ratio (z) = 0.46696 0.46696
#
# Static dielectric constant tensor:
#      x y z
#    x 3.556030 0.000000 0.000000 
#    y 0.000000 3.556030 0.000000 
#    z 0.000000 0.000000 3.611670 
# 
# 
# High freq. dielectric constant tensor:
#      x y z
#    x 1.785740 0.000000 0.000000 
#    y 0.000000 1.785740 0.000000 
#    z 0.000000 0.000000 1.778140 
# 
# From -- ./inp_files/3418.got.cif
#   From: 2010.03.12/outbox.cif.g09.slc.cpg/sg148_2_cif.got.tgz:3418.got - 2010.04.03 13:38:46.
