data_PCOD8321622
_publ_section_title
;
Structure prediction by ZEFSAII (Michael W. Deem and Ramdas Pophale) SiO2 
 PCOD8321622
Probable space group: P -3
;
_chemical_formula_sum "Si O2"
_cell_formula_units_Z 48
_cell_length_a 13.755987
_cell_length_b 13.755987
_cell_length_c 13.118750
_cell_angle_alpha 90.000000
_cell_angle_beta 90.000000
_cell_angle_gamma 120.000000
_cell_volume 2149.842287
_symmetry_space_group_name_H-M "P -3"
_symmetry_group_IT_number 147
_symmetry_cell_setting 'hexagonal'
loop_
_space_group_symop_operation_xyz
x,y,z
-y,x-y,z
-x+y,-x,z
-x,-y,-z
y,-x+y,-z
x-y,x,-z
loop_
_atom_site_type_symbol
_atom_site_label
_atom_site_fract_x
_atom_site_fract_y
_atom_site_fract_z
Si Si1 0.490747 0.611426 0.881885
Si Si2 0.455364 0.265173 0.787009
Si Si3 0.331414 0.868019 0.441295
Si Si4 0.286290 0.447923 0.772130
Si Si5 0.085083 0.837924 0.890303
Si Si6 0.536746 0.126362 0.904851
Si Si7 0.867517 0.326093 0.456906
Si Si8 0.086065 0.841298 0.115546
O O1 0.415202 0.537157 0.789245
O O2 0.538021 0.737753 0.846062
O O3 0.590591 0.582479 0.901540
O O4 0.407384 0.574771 0.979408
O O5 0.489244 0.323002 0.676631
O O6 0.535888 0.220341 0.832367
O O7 0.470302 0.365536 0.860900
O O8 0.331067 0.158704 0.795444
O O9 0.203516 0.787043 0.477921
O O10 0.420827 0.843884 0.500388
O O11 0.368788 0.999168 0.456839
O O12 0.255974 0.322746 0.805542
O O13 0.276770 0.463404 0.653025
O O14 0.972900 0.846341 0.895877
O O15 0.185690 0.957130 0.852400
O O16 0.108833 0.804262 0.003546
#
# Coordination Sequence:
#
# PCOD8321622 Si02
#       8
#     6   6   6   6   6   6   6   6
#     4  11  23  38  59  91 130 167 201 241 295 365
#     4  12  23  39  61  86 119 159 204 253 307 372
#     4  11  25  45  68  94 124 163 217 283 352 412
#     4  12  23  39  61  86 119 159 204 253 307 372
#     4  10  20  35  57  87 123 161 199 239 288 354
#     4  11  23  38  59  91 130 167 201 241 295 365
#     4  11  25  45  68  94 124 163 217 283 352 412
#     4  10  20  35  57  87 123 161 199 239 288 354
#
# _framework density 22.327218999999999
#
# number of rings (size 3 to 8) (size 9 to 14) (size 15 to 20)
#    0.000    1.000    0.000    7.750    0.000    9.000 
#    0.000    0.000    0.000    0.250    0.000    0.000 
#    0.000    0.000    0.000    0.000    0.000    0.000 
#
# Total GULP energy -594779.949685 kJ/mol
# GULP energy per Si atom -12391.248952 kJ/mol
# Density = 2.227640 g / cm^3
# Si number density = 22.327219 Si / 1000 Ang^3
#
#
#
# Elastic Constant Matrix: (Units=GPa)
#
#
# Indices 1 2 3 4 5 6 
#
# 1 89.1906 19.9665 30.5758 -2.0839 3.0450 0.0000
# 2 19.9665 89.1906 30.5758 2.0839 -3.0450 0.0000
# 3 30.5758 30.5758 108.6083 0.0000 0.0000 0.0000
# 4 -2.0839 2.0839 0.0000 28.1364 0.0000 -3.0450
# 5 3.0450 -3.0450 0.0000 0.0000 28.1364 -2.0839
# 6 0.0000 0.0000 0.0000 -3.0450 -2.0839 34.6121
#
#
#
# Elastic Compliance Matrix: (Units=1/GPa)
#
#
# Indices 1 2 3 4 5 6 
#
# 1 0.012764 -0.001887 -0.003062 0.001085 -0.001586 0.000000
# 2 -0.001887 0.012764 -0.003062 -0.001085 0.001586 0.000000
# 3 -0.003062 -0.003062 0.010931 0.000000 0.000000 0.000000
# 4 0.001085 -0.001085 0.000000 0.036045 0.000000 0.003171
# 5 -0.001586 0.001586 0.000000 0.000000 0.036045 0.002170
# 6 0.000000 0.000000 0.000000 0.003171 0.002170 0.029301
#
#
# Mechanical properties :
#
#
# Convention : Reuss Voigt Hill
#
# Bulk Modulus (GPa) = 48.93214 49.91397 49.42305
# Shear Modulus (GPa) = 31.11692 31.90174 31.50933
#
# Velocity S-wave (km/s) = 3.73725 3.78408 3.76074
# Velocity P-wave (km/s) = 6.37073 6.44178 6.40635
#
# Compressibility (1/GPa) = 0.02043646
#
# Stress axis : x y z
#
# Youngs Moduli (GPa) = 78.34801 78.34801 91.47928
#
# Poissons Ratio (x) = 0.14785 0.28011
# Poissons Ratio (y) = 0.14785 0.28011
# Poissons Ratio (z) = 0.23990 0.23990
#
# Static dielectric constant tensor:
#      x y z
#    x 3.997420 0.000000 0.000000 
#    y 0.000000 3.997420 0.000000 
#    z 0.000000 0.000000 3.885660 
# 
# 
# High freq. dielectric constant tensor:
#      x y z
#    x 1.886530 0.000000 0.000000 
#    y 0.000000 1.886530 0.000000 
#    z 0.000000 0.000000 1.864610 
# 
# From -- ./inp_files/870.got.cif
#   From: 2010.03.12/outbox.cif.g09.slc.cpg/sg147_cif.got.tgz:870.got - 2010.04.03 13:37:56.
