data_PCOD8321347
_publ_section_title
;
Structure prediction by ZEFSAII (Michael W. Deem and Ramdas Pophale) SiO2 
 PCOD8321347
Probable space group: P 31
;
_chemical_formula_sum "Si O2"
_cell_formula_units_Z 12
_cell_length_a 9.712413
_cell_length_b 9.712413
_cell_length_c 7.533408
_cell_angle_alpha 90.000000
_cell_angle_beta 90.000000
_cell_angle_gamma 120.000000
_cell_volume 615.426799
_symmetry_space_group_name_H-M "P 31"
_symmetry_group_IT_number 144
_symmetry_cell_setting 'hexagonal'
loop_
_space_group_symop_operation_xyz
x,y,z
-y,x-y,1/3+z
-x+y,-x,2/3+z
loop_
_atom_site_type_symbol
_atom_site_label
_atom_site_fract_x
_atom_site_fract_y
_atom_site_fract_z
Si Si1 0.417363 0.109390 0.332260
Si Si2 0.250479 0.533086 0.640201
Si Si3 0.778199 0.252493 0.297043
Si Si4 0.921980 0.612519 0.277382
O O1 0.606207 0.222170 0.356050
O O2 0.329071 0.163593 0.473056
O O3 0.381741 0.931796 0.367627
O O4 0.364763 0.132070 0.134612
O O5 0.359334 0.639883 0.800698
O O6 0.278411 0.388104 0.591169
O O7 0.881114 0.434100 0.233048
O O8 0.762529 0.132470 0.141841
#
# Coordination Sequence:
#
# PCOD8321347 Si02
#       4
#     3   3   3   3
#     4  11  21  40  67  91 121 169 223 267 313 388
#     4  12  28  41  61 104 140 172 208 282 350 383
#     4  10  18  37  63  94 110 160 230 250 296 391
#     4  11  21  40  67  91 121 169 223 267 313 388
#
# _framework density 19.498664000000002
#
# number of rings (size 3 to 8) (size 9 to 14) (size 15 to 20)
#    0.000    1.000   10.000    0.000    7.000    0.000 
#    0.000    2.500    0.000    0.000    0.000    0.000 
#    0.000    0.000    0.000    0.000    0.000    0.000 
#
# Total GULP energy -148786.519045 kJ/mol
# GULP energy per Si atom -12398.876587 kJ/mol
# Density = 1.945428 g / cm^3
# Si number density = 19.498664 Si / 1000 Ang^3
#
#
#
# Elastic Constant Matrix: (Units=GPa)
#
#
# Indices 1 2 3 4 5 6 
#
# 1 59.0362 11.1306 42.6342 1.0996 2.4601 0.0000
# 2 11.1306 59.0362 42.6342 -1.0996 -2.4601 0.0000
# 3 42.6342 42.6342 140.2160 0.0000 0.0000 0.0000
# 4 1.0996 -1.0996 0.0000 27.7482 0.0000 -2.4601
# 5 2.4601 -2.4601 0.0000 0.0000 27.7482 1.0996
# 6 0.0000 0.0000 0.0000 -2.4601 1.0996 23.9528
#
#
#
# Elastic Compliance Matrix: (Units=1/GPa)
#
#
# Indices 1 2 3 4 5 6 
#
# 1 0.021854 0.000749 -0.006873 -0.000836 -0.001871 0.000000
# 2 0.000749 0.021854 -0.006873 0.000836 0.001871 0.000000
# 3 -0.006873 -0.006873 0.011311 0.000000 0.000000 0.000000
# 4 -0.000836 0.000836 0.000000 0.036436 0.000000 0.003742
# 5 -0.001871 0.001871 0.000000 0.000000 0.036436 -0.001673
# 6 0.000000 0.000000 0.000000 0.003742 -0.001673 0.042210
#
#
# Mechanical properties :
#
#
# Convention : Reuss Voigt Hill
#
# Bulk Modulus (GPa) = 34.45017 50.12073 42.28545
# Shear Modulus (GPa) = 24.29875 26.68247 25.49061
#
# Velocity S-wave (km/s) = 3.53395 3.70324 3.61958
# Velocity P-wave (km/s) = 5.86157 6.63670 6.26114
#
# Compressibility (1/GPa) = 0.02902743
#
# Stress axis : x y z
#
# Youngs Moduli (GPa) = 45.75727 45.75727 88.40593
#
# Poissons Ratio (x) = -0.03429 0.60761
# Poissons Ratio (y) = -0.03429 0.60761
# Poissons Ratio (z) = 0.31449 0.31449
#
# Static dielectric constant tensor:
#      x y z
#    x 3.361880 0.000000 0.000000 
#    y 0.000000 3.361880 0.000000 
#    z 0.000000 0.000000 3.767280 
# 
# 
# High freq. dielectric constant tensor:
#      x y z
#    x 1.738400 0.000000 0.000000 
#    y 0.000000 1.738400 0.000000 
#    z 0.000000 0.000000 1.775700 
# 
# From -- ./inp_files/200.got.cif
#   From: 2010.03.12/outbox.cif.g09.slc.cpg/sg144_cif.got.tgz:200.got - 2010.04.03 13:34:42.
