data_PCOD8321278
_publ_section_title
;
Structure prediction by ZEFSAII (Michael W. Deem and Ramdas Pophale) SiO2 
 PCOD8321278
Probable space group: I 41/A C D
;
_chemical_formula_sum "Si O2"
_cell_formula_units_Z 176
_cell_length_a 18.196031
_cell_length_b 18.196031
_cell_length_c 25.490421
_cell_angle_alpha 90.000000
_cell_angle_beta 90.000000
_cell_angle_gamma 90.000000
_cell_volume 8439.764812
_symmetry_space_group_name_H-M "I 41/A C D"
_symmetry_group_IT_number 142
_space_group.IT_coordinate_system_code '2'
_symmetry_cell_setting 'tetragonal'
loop_
_space_group_symop_operation_xyz
x,y,z
1/4-y,3/4+x,1/4+z
-x,1/2-y,z
1/4+y,1/4-x,3/4+z
x,-y,1/2-z
1/2-x,y,-z
3/4+y,1/4+x,1/4-z
1/4-y,1/4-x,1/4-z
-x,-y,-z
3/4+y,1/4-x,3/4-z
x,1/2+y,-z
3/4-y,3/4+x,1/4-z
-x,y,1/2+z
1/2+x,-y,z
1/4-y,3/4-x,3/4+z
3/4+y,3/4+x,3/4+z
1/2+x,1/2+y,1/2+z
3/4-y,1/4+x,3/4+z
1/2-x,-y,1/2+z
3/4+y,3/4-x,1/4+z
1/2+x,1/2-y,-z
-x,1/2+y,1/2-z
1/4+y,3/4+x,3/4-z
3/4-y,3/4-x,3/4-z
1/2-x,1/2-y,1/2-z
1/4+y,3/4-x,1/4-z
1/2+x,y,1/2-z
1/4-y,1/4+x,3/4-z
1/2-x,1/2+y,z
x,1/2-y,1/2+z
3/4-y,1/4-x,1/4+z
1/4+y,1/4+x,1/4+z
loop_
_atom_site_type_symbol
_atom_site_label
_atom_site_fract_x
_atom_site_fract_y
_atom_site_fract_z
Si Si1 0.030139 0.413117 0.745803
Si Si2 0.908484 0.930669 0.332675
Si Si3 0.025283 0.860549 0.139575
Si Si4 0.306193 0.861136 0.737690
Si Si5 0.262083 0.241815 0.669479
Si Si6 0.750000 0.046642 0.000000
O O1 0.031135 0.500000 0.750000
O O2 0.007500 0.379692 0.800980
O O3 0.110248 0.385266 0.729342
O O4 0.966407 0.388042 0.705102
O O5 0.875408 0.874593 0.375000
O O6 0.954549 0.988691 0.365427
O O7 0.846392 0.971903 0.298373
O O8 0.086666 0.799758 0.138351
O O9 0.049010 0.926091 0.100817
O O10 0.289027 0.824781 0.793718
O O11 0.296773 0.795413 0.695811
O O12 0.253982 0.932297 0.729963
#
# Coordination Sequence:
#
# PCOD8321278 Si02
#       6
#    32  32  32  32  32  16
#     4  12  24  45  70 102 142 180 234 294 354 421
#     4  12  26  46  71 104 146 190 225 291 370 427
#     4  11  24  42  71  98 131 188 237 284 345 428
#     4  11  26  43  71 102 139 183 239 295 342 424
#     4  11  24  45  66 100 145 178 227 292 360 412
#     4  12  24  46  78 104 134 188 248 288 348 428
#
# _framework density 20.853660999999999
#
# number of rings (size 3 to 8) (size 9 to 14) (size 15 to 20)
#    0.000    0.545    7.273    0.000    5.091    0.727 
#    3.273    0.909    0.000    0.000    0.000    0.000 
#    0.000    0.000    0.000    0.000    0.000    0.000 
#
# Total GULP energy -1090609.456452 kJ/mol
# GULP energy per Si atom -12393.289278 kJ/mol
# Density = 2.080620 g / cm^3
# Si number density = 20.853661 Si / 1000 Ang^3
#
#
#
# Elastic Constant Matrix: (Units=GPa)
#
#
# Indices 1 2 3 4 5 6 
#
# 1 110.0715 42.5148 58.9318 0.0000 0.0000 0.0000
# 2 42.5148 110.0716 58.9322 0.0000 0.0000 0.0000
# 3 58.9318 58.9322 145.3926 0.0000 0.0000 0.0000
# 4 0.0000 0.0000 0.0000 30.6423 0.0000 0.0000
# 5 0.0000 0.0000 0.0000 0.0000 30.6420 0.0000
# 6 0.0000 0.0000 0.0000 0.0000 0.0000 -43.5845
#
#
#
# Elastic Compliance Matrix: (Units=1/GPa)
#
#
# Indices 1 2 3 4 5 6 
#
# 1 0.012172 -0.002631 -0.003867 0.000000 0.000000 0.000000
# 2 -0.002631 0.012172 -0.003867 0.000000 0.000000 0.000000
# 3 -0.003867 -0.003867 0.010013 0.000000 0.000000 0.000000
# 4 0.000000 0.000000 0.000000 0.032635 0.000000 0.000000
# 5 0.000000 0.000000 0.000000 0.000000 0.032635 0.000000
# 6 0.000000 0.000000 0.000000 0.000000 0.000000 -0.022944
#
#
# Mechanical properties :
#
#
# Convention : Reuss Voigt Hill
#
# Bulk Modulus (GPa) = 73.39002 76.25480 74.82241
# Shear Modulus (GPa) = 49.04175 17.21710 33.12942
#
# Velocity S-wave (km/s) = 4.85470 2.87647 3.99013
# Velocity P-wave (km/s) = 8.16661 6.90493 7.56213
#
# Compressibility (1/GPa) = 0.01362583
#
# Stress axis : x y z
#
# Youngs Moduli (GPa) = 82.15857 82.15827 99.87114
#
# Poissons Ratio (x) = 0.21614 0.38622
# Poissons Ratio (y) = 0.21614 0.38622
# Poissons Ratio (z) = 0.31772 0.31772
#
# Static dielectric constant tensor:
#      x y z
#    x 2.843660 0.000000 0.000000 
#    y 0.000000 2.844480 0.000000 
#    z 0.000000 0.000000 3.681020 
# 
# 
# High freq. dielectric constant tensor:
#      x y z
#    x 1.822070 0.000000 0.000000 
#    y 0.000000 1.822070 0.000000 
#    z 0.000000 0.000000 1.830350 
# 
# From -- ./inp_files/11463.got.cif
#   From: 2010.03.12/outbox.cif.g09.slc.cpg/sg142_6_cif.got.tgz:11463.got - 2010.04.03 13:27:16.
