data_PCOD8321819
_publ_section_title
;
Structure prediction by ZEFSAII (Michael W. Deem and Ramdas Pophale) SiO2 
 PCOD8321819
Probable space group: R -3
;
_chemical_formula_sum "Si O2"
_cell_formula_units_Z 72
_cell_length_a 18.930878
_cell_length_b 18.930878
_cell_length_c 9.344143
_cell_angle_alpha 90.000000
_cell_angle_beta 90.000000
_cell_angle_gamma 120.000000
_cell_volume 2900.090971
_symmetry_space_group_name_H-M "R -3"
_symmetry_group_IT_number 148
_symmetry_cell_setting 'hexagonal'
loop_
_space_group_symop_operation_xyz
x,y,z
-y,x-y,z
-x+y,-x,z
-x,-y,-z
y,-x+y,-z
x-y,x,-z
2/3+x,1/3+y,1/3+z
2/3-y,1/3+x-y,1/3+z
2/3-x+y,1/3-x,1/3+z
2/3-x,1/3-y,1/3-z
2/3+y,1/3-x+y,1/3-z
2/3+x-y,1/3+x,1/3-z
1/3+x,2/3+y,2/3+z
1/3-y,2/3+x-y,2/3+z
1/3-x+y,2/3-x,2/3+z
1/3-x,2/3-y,2/3-z
1/3+y,2/3-x+y,2/3-z
1/3+x-y,2/3+x,2/3-z
loop_
_atom_site_type_symbol
_atom_site_label
_atom_site_fract_x
_atom_site_fract_y
_atom_site_fract_z
Si Si1 0.015592 0.754171 0.728270
Si Si2 0.355708 0.520414 0.151258
Si Si3 0.835294 0.355708 0.348742
Si Si4 0.928089 0.348926 0.105063
O O1 0.939025 0.678252 0.647874
O O2 0.060921 0.817024 0.598249
O O3 0.987635 0.798035 0.843319
O O4 0.072561 0.727642 0.814540
O O5 0.278283 0.520584 0.223982
O O6 0.320969 0.464702 0.009986
O O7 0.757698 0.278283 0.276018
O O8 0.910563 0.394254 0.235084
#
# Coordination Sequence:
#
# PCOD8321819 Si02
#       4
#    18  18  18  18
#     4  12  24  48  70 108 136 178 232 288 352 398
#     4  12  27  46  72 102 141 186 228 282 340 414
#     4  12  27  46  72 102 141 186 228 282 340 414
#     4  12  24  48  70 108 136 178 232 288 352 398
#
# _framework density 24.826806000000001
#
# number of rings (size 3 to 8) (size 9 to 14) (size 15 to 20)
#    0.000    0.000    5.000    3.500    0.000   12.000 
#    0.000    5.000    0.000    0.000    0.000    0.000 
#    0.000    0.000    0.000    0.000    0.000    0.000 
#
# Total GULP energy -297394.118252 kJ/mol
# GULP energy per Si atom -12391.421594 kJ/mol
# Density = 2.477030 g / cm^3
# Si number density = 24.826806 Si / 1000 Ang^3
#
#
#
# Elastic Constant Matrix: (Units=GPa)
#
#
# Indices 1 2 3 4 5 6 
#
# 1 42.1664 4.3839 18.3012 0.3478 6.2147 0.0000
# 2 4.3839 42.1664 18.3015 -0.3478 -6.2146 0.0000
# 3 18.3012 18.3015 150.8897 0.0003 0.0007 -0.0003
# 4 0.3478 -0.3478 0.0003 32.0009 0.0002 -6.2148
# 5 6.2147 -6.2146 0.0007 0.0002 32.0013 0.3476
# 6 0.0000 0.0000 -0.0003 -6.2148 0.3476 18.8910
#
#
#
# Elastic Compliance Matrix: (Units=1/GPa)
#
#
# Indices 1 2 3 4 5 6 
#
# 1 0.026013 -0.002266 -0.002880 -0.000307 -0.005492 0.000000
# 2 -0.002266 0.026013 -0.002880 0.000307 0.005492 0.000000
# 3 -0.002880 -0.002880 0.007326 0.000000 0.000000 0.000000
# 4 -0.000307 0.000307 0.000000 0.033389 0.000000 0.010984
# 5 -0.005492 0.005492 0.000000 0.000000 0.033388 -0.000614
# 6 0.000000 0.000000 0.000000 0.010984 -0.000614 0.056560
#
#
# Mechanical properties :
#
#
# Convention : Reuss Voigt Hill
#
# Bulk Modulus (GPa) = 23.09531 35.24398 29.16964
# Shear Modulus (GPa) = 23.45469 29.52771 26.49120
#
# Velocity S-wave (km/s) = 3.07698 3.45243 3.27010
# Velocity P-wave (km/s) = 4.68471 5.48809 5.10224
#
# Compressibility (1/GPa) = 0.04329883
#
# Stress axis : x y z
#
# Youngs Moduli (GPa) = 38.44197 38.44189 136.49929
#
# Poissons Ratio (x) = 0.08712 0.39315
# Poissons Ratio (y) = 0.08712 0.39316
# Poissons Ratio (z) = 0.11072 0.11072
#
# Static dielectric constant tensor:
#      x y z
#    x 4.157550 0.000000 0.000000 
#    y 0.000000 4.157550 0.000000 
#    z 0.000000 0.000000 4.785100 
# 
# 
# High freq. dielectric constant tensor:
#      x y z
#    x 1.969510 0.000000 0.000000 
#    y 0.000000 1.969510 0.000000 
#    z 0.000000 0.000000 2.015650 
# 
# From -- ./inp_files/812.got.cif
#   From: 2010.03.12/outbox.cif.g09.slc.cpg/sg148_1_cif.got.tgz:812.got - 2010.04.03 13:38:46.
