data_PCOD8321717
_publ_section_title
;
Structure prediction by ZEFSAII (Michael W. Deem and Ramdas Pophale) SiO2 
 PCOD8321717
Probable space group: R -3
;
_chemical_formula_sum "Si O2"
_cell_formula_units_Z 48
_cell_length_a 13.245606
_cell_length_b 13.245606
_cell_length_c 13.872293
_cell_angle_alpha 90.000000
_cell_angle_beta 90.000000
_cell_angle_gamma 120.000000
_cell_volume 2107.766753
_symmetry_space_group_name_H-M "R -3"
_symmetry_group_IT_number 148
_symmetry_cell_setting 'hexagonal'
loop_
_space_group_symop_operation_xyz
x,y,z
-y,x-y,z
-x+y,-x,z
-x,-y,-z
y,-x+y,-z
x-y,x,-z
2/3+x,1/3+y,1/3+z
2/3-y,1/3+x-y,1/3+z
2/3-x+y,1/3-x,1/3+z
2/3-x,1/3-y,1/3-z
2/3+y,1/3-x+y,1/3-z
2/3+x-y,1/3+x,1/3-z
1/3+x,2/3+y,2/3+z
1/3-y,2/3+x-y,2/3+z
1/3-x+y,2/3-x,2/3+z
1/3-x,2/3-y,2/3-z
1/3+y,2/3-x+y,2/3-z
1/3+x-y,2/3+x,2/3-z
loop_
_atom_site_type_symbol
_atom_site_label
_atom_site_fract_x
_atom_site_fract_y
_atom_site_fract_z
Si Si1 0.235794 0.410762 0.484965
Si Si2 0.568712 0.890941 0.282827
Si Si3 0.666668 0.333334 0.716174
Si Si4 0.333334 0.666668 0.825289
O O1 0.328616 0.427114 0.400257
O O2 0.223659 0.329504 0.573833
O O3 0.114672 0.356506 0.426168
O O4 0.268735 0.531609 0.539336
O O5 0.459391 0.768047 0.247091
O O6 0.666668 0.333334 0.604712
#
# Coordination Sequence:
#
# PCOD8321717 Si02
#       4
#    18  18   6   6
#     4  10  21  37  60  89 120 153 193 242 293 346
#     4  10  20  36  63  93 117 149 195 247 295 342
#     4   9  18  37  64  93 116 141 196 256 295 336
#     4   9  21  39  55  83 125 158 190 237 289 350
#
# _framework density 22.772917
#
# number of rings (size 3 to 8) (size 9 to 14) (size 15 to 20)
#    0.000    2.250    0.000    2.250    0.000    6.000 
#    0.000    0.000    0.000   11.250    0.000    0.000 
#    0.000    0.000    0.000    0.000    0.000    0.000 
#
# Total GULP energy -198266.676645 kJ/mol
# GULP energy per Si atom -12391.667290 kJ/mol
# Density = 2.272108 g / cm^3
# Si number density = 22.772917 Si / 1000 Ang^3
#
#
#
# Elastic Constant Matrix: (Units=GPa)
#
#
# Indices 1 2 3 4 5 6 
#
# 1 0.7324 178.7251 6.5976 48.2485 -11.6444 0.0196
# 2 178.7251 0.7274 6.5904 -48.2503 11.6431 -0.0154
# 3 6.5976 6.5904 41.7816 -0.0014 -0.0001 0.0015
# 4 48.2485 -48.2503 -0.0014 16.8952 0.0025 11.6305
# 5 -11.6444 11.6431 -0.0001 0.0025 16.8917 48.2560
# 6 0.0196 -0.0154 0.0015 11.6305 48.2560 -89.0085
#
#
#
# Elastic Compliance Matrix: (Units=1/GPa)
#
#
# Indices 1 2 3 4 5 6 
#
# 1 0.001754 0.003884 -0.000889 0.006081 -0.001466 -0.000001
# 2 0.003884 0.001754 -0.000890 -0.006081 0.001466 0.000001
# 3 -0.000889 -0.000890 0.024215 0.000000 0.000000 0.000000
# 4 0.006081 -0.006081 0.000000 0.022434 0.000000 0.002934
# 5 -0.001466 0.001466 0.000000 0.000000 0.022434 0.012162
# 6 -0.000001 0.000001 0.000000 0.002934 0.012162 -0.004258
#
#
# Mechanical properties :
#
#
# Convention : Reuss Voigt Hill
#
# Bulk Modulus (GPa) = 31.31713 47.45198 39.38455
# Shear Modulus (GPa) = 66.87208 -20.95578 22.95815
#
# Velocity S-wave (km/s) = 5.42480 -3.03678 3.17856
# Velocity P-wave (km/s) = 7.28147 2.93022 5.55004
#
# Compressibility (1/GPa) = 0.03193141
#
# Stress axis : x y z
#
# Youngs Moduli (GPa) = 570.01590 570.05003 41.29698
#
# Poissons Ratio (x) = -2.21381 0.03673
# Poissons Ratio (y) = -2.21367 0.03676
# Poissons Ratio (z) = 0.50697 0.50742
#
# Static dielectric constant tensor:
#      x y z
#    x 5.509040 -0.000030 0.000010 
#    y -0.000030 5.509150 0.000000 
#    z 0.000010 0.000000 4.048990 
# 
# 
# High freq. dielectric constant tensor:
#      x y z
#    x 1.888520 0.000000 0.000000 
#    y 0.000000 1.888520 0.000000 
#    z 0.000000 0.000000 1.892710 
# 
# From -- ./inp_files/1814.got.cif
#   From: 2010.03.12/outbox.cif.g09.slc.cpg/sg148_1_cif.got.tgz:1814.got - 2010.04.03 13:38:46.
