data_PCOD8321089
_publ_section_title
;
Structure prediction by ZEFSAII (Michael W. Deem and Ramdas Pophale) SiO2 
 PCOD8321089
Probable space group: I 41/A C D
;
_chemical_formula_sum "Si O2"
_cell_formula_units_Z 120
_cell_length_a 25.750605
_cell_length_b 25.750605
_cell_length_c 8.964756
_cell_angle_alpha 90.000000
_cell_angle_beta 90.000000
_cell_angle_gamma 90.000000
_cell_volume 5944.472848
_symmetry_space_group_name_H-M "I 41/A C D"
_symmetry_group_IT_number 142
_space_group.IT_coordinate_system_code '2'
_symmetry_cell_setting 'tetragonal'
loop_
_space_group_symop_operation_xyz
x,y,z
1/4-y,3/4+x,1/4+z
-x,1/2-y,z
1/4+y,1/4-x,3/4+z
x,-y,1/2-z
1/2-x,y,-z
3/4+y,1/4+x,1/4-z
1/4-y,1/4-x,1/4-z
-x,-y,-z
3/4+y,1/4-x,3/4-z
x,1/2+y,-z
3/4-y,3/4+x,1/4-z
-x,y,1/2+z
1/2+x,-y,z
1/4-y,3/4-x,3/4+z
3/4+y,3/4+x,3/4+z
1/2+x,1/2+y,1/2+z
3/4-y,1/4+x,3/4+z
1/2-x,-y,1/2+z
3/4+y,3/4-x,1/4+z
1/2+x,1/2-y,-z
-x,1/2+y,1/2-z
1/4+y,3/4+x,3/4-z
3/4-y,3/4-x,3/4-z
1/2-x,1/2-y,1/2-z
1/4+y,3/4-x,1/4-z
1/2+x,y,1/2-z
1/4-y,1/4+x,3/4-z
1/2-x,1/2+y,z
x,1/2-y,1/2+z
3/4-y,1/4-x,1/4+z
1/4+y,1/4+x,1/4+z
loop_
_atom_site_type_symbol
_atom_site_label
_atom_site_fract_x
_atom_site_fract_y
_atom_site_fract_z
Si Si1 0.000000 0.750000 0.125000
Si Si2 0.708911 0.458911 0.875000
Si Si3 0.101329 0.487851 0.479661
Si Si4 0.939775 0.810225 0.375000
Si Si5 0.438902 0.428350 0.778244
Si Si6 0.469016 0.000000 0.750000
O O1 0.044167 0.724285 0.230925
O O2 0.719530 0.500000 0.750000
O O3 0.716628 0.403631 0.799670
O O4 0.077380 0.437387 0.394772
O O5 0.104532 0.538467 0.371289
O O6 0.065908 0.511832 0.608417
O O7 0.880186 0.804505 0.420299
O O8 0.496197 0.451294 0.797919
#
# Coordination Sequence:
#
# PCOD8321089 Si02
#       6
#     8  16  32  16  32  16
#     4  10  28  50  56 110 140 178 236 282 344 422
#     4  12  28  43  64  93 144 183 216 283 325 418
#     4  10  23  43  64 104 128 170 231 270 343 400
#     4  11  26  45  72  93 142 184 222 282 355 404
#     4  10  23  41  73  94 133 173 220 287 335 407
#     4  10  20  42  68 104 126 162 234 288 322 398
#
# _framework density 20.186820000000001
#
# number of rings (size 3 to 8) (size 9 to 14) (size 15 to 20)
#    0.000    1.867    1.333    3.200   14.933    0.000 
#    0.000    0.000    0.000    0.000    0.000    0.000 
#    0.000    0.000    0.000    0.000    0.000    0.000 
#
# Total GULP energy -743345.444655 kJ/mol
# GULP energy per Si atom -12389.090744 kJ/mol
# Density = 2.014087 g / cm^3
# Si number density = 20.186820 Si / 1000 Ang^3
#
#
#
# Elastic Constant Matrix: (Units=GPa)
#
#
# Indices 1 2 3 4 5 6 
#
# 1 118.9454 42.9649 44.1371 0.0000 0.0000 0.0000
# 2 42.9649 118.9456 44.1371 0.0000 0.0000 0.0000
# 3 44.1371 44.1371 123.1142 0.0000 0.0000 0.0000
# 4 0.0000 0.0000 0.0000 35.9945 0.0000 0.0000
# 5 0.0000 0.0000 0.0000 0.0000 35.9942 0.0000
# 6 0.0000 0.0000 0.0000 0.0000 0.0000 19.6315
#
#
#
# Elastic Compliance Matrix: (Units=1/GPa)
#
#
# Indices 1 2 3 4 5 6 
#
# 1 0.010419 -0.002742 -0.002752 0.000000 0.000000 0.000000
# 2 -0.002742 0.010419 -0.002752 0.000000 0.000000 0.000000
# 3 -0.002752 -0.002752 0.010096 0.000000 0.000000 0.000000
# 4 0.000000 0.000000 0.000000 0.027782 0.000000 0.000000
# 5 0.000000 0.000000 0.000000 0.000000 0.027782 0.000000
# 6 0.000000 0.000000 0.000000 0.000000 0.000000 0.050939
#
#
# Mechanical properties :
#
#
# Convention : Reuss Voigt Hill
#
# Bulk Modulus (GPa) = 69.24856 69.27593 69.26225
# Shear Modulus (GPa) = 31.49734 33.64175 32.56955
#
# Velocity S-wave (km/s) = 3.95434 4.08673 4.02108
# Velocity P-wave (km/s) = 7.43151 7.52731 7.47957
#
# Compressibility (1/GPa) = 0.01444073
#
# Stress axis : x y z
#
# Youngs Moduli (GPa) = 95.97846 95.97860 99.05050
#
# Poissons Ratio (x) = 0.26320 0.27260
# Poissons Ratio (y) = 0.26320 0.27260
# Poissons Ratio (z) = 0.26415 0.26415
#
# Static dielectric constant tensor:
#      x y z
#    x 3.659850 0.000000 0.000000 
#    y 0.000000 3.659770 0.000000 
#    z 0.000000 0.000000 4.122670 
# 
# 
# High freq. dielectric constant tensor:
#      x y z
#    x 1.780380 0.000000 0.000000 
#    y 0.000000 1.780380 0.000000 
#    z 0.000000 0.000000 1.816190 
# 
# From -- ./inp_files/1902.got.cif
#   From: 2010.03.12/outbox.cif.g09.slc.cpg/sg142_1_cif.got.tgz:1902.got - 2010.04.03 13:27:16.
