data_PCOD8321891
_publ_section_title
;
Structure prediction by ZEFSAII (Michael W. Deem and Ramdas Pophale) SiO2 
 PCOD8321891
Probable space group: P 3 2 1
;
_chemical_formula_sum "Si O2"
_cell_formula_units_Z 32
_cell_length_a 15.016765
_cell_length_b 15.016765
_cell_length_c 8.015632
_cell_angle_alpha 90.000000
_cell_angle_beta 90.000000
_cell_angle_gamma 120.000000
_cell_volume 1565.385011
_symmetry_space_group_name_H-M "P 3 2 1"
_symmetry_group_IT_number 150
_symmetry_cell_setting 'hexagonal'
loop_
_space_group_symop_operation_xyz
x,y,z
-y,x-y,z
-x+y,-x,z
x-y,-y,-z
-x,-x+y,-z
y,x,-z
loop_
_atom_site_type_symbol
_atom_site_label
_atom_site_fract_x
_atom_site_fract_y
_atom_site_fract_z
Si Si1 0.496151 0.000000 0.000000
Si Si2 0.668278 0.600987 0.734024
Si Si3 0.296461 0.296461 0.500000
Si Si4 0.000000 0.000000 0.196108
Si Si5 0.217631 0.079652 0.649463
Si Si6 0.523038 0.868109 0.727248
Si Si7 0.519381 0.675554 0.600685
O O1 0.514941 0.915679 0.904152
O O2 0.469765 0.075155 0.890329
O O3 0.775133 0.705559 0.781074
O O4 0.594264 0.636292 0.656917
O O5 0.698333 0.539033 0.598357
O O6 0.281712 0.191062 0.569988
O O7 0.342863 0.379494 0.645283
O O8 0.051086 0.934825 0.260209
O O9 0.000000 0.000000 0.000000
O O10 0.190420 0.000000 0.500000
O O11 0.541050 0.770607 0.723093
O O12 0.418351 0.822699 0.621664
#
# Coordination Sequence:
#
# PCOD8321891 Si02
#       7
#     3   6   3   2   6   6   6
#     4  10  24  42  64  96 148 168 218 308 358 412
#     4  10  20  41  65  94 124 180 223 274 342 416
#     4  12  22  40  70  98 128 184 238 282 322 434
#     4  12  28  41  61 105 157 173 220 300 355 413
#     4  12  21  42  70  99 133 185 236 275 330 426
#     4  11  22  42  62  99 129 177 229 287 343 408
#     4  10  20  39  69  86 127 174 231 272 329 414
#
# _framework density 20.442256
#
# number of rings (size 3 to 8) (size 9 to 14) (size 15 to 20)
#    0.000    1.125    5.625    2.625    1.312    0.000 
#    8.438    0.000    0.000    0.000    0.000    0.000 
#    0.000    0.000    0.000    0.000    0.000    0.000 
#
# Total GULP energy -396475.739661 kJ/mol
# GULP energy per Si atom -12389.866864 kJ/mol
# Density = 2.039573 g / cm^3
# Si number density = 20.442256 Si / 1000 Ang^3
#
#
#
# Elastic Constant Matrix: (Units=GPa)
#
#
# Indices 1 2 3 4 5 6 
#
# 1 93.3689 26.5416 50.3234 -3.9442 0.0000 0.0000
# 2 26.5416 93.3689 50.3234 3.9442 0.0000 0.0000
# 3 50.3234 50.3234 112.3608 0.0000 0.0000 0.0000
# 4 -3.9442 3.9442 0.0000 28.0743 0.0000 0.0000
# 5 0.0000 0.0000 0.0000 0.0000 28.0743 -3.9442
# 6 0.0000 0.0000 0.0000 0.0000 -3.9442 33.4136
#
#
#
# Elastic Compliance Matrix: (Units=1/GPa)
#
#
# Indices 1 2 3 4 5 6 
#
# 1 0.014290 -0.000927 -0.005985 0.002138 0.000000 0.000000
# 2 -0.000927 0.014290 -0.005985 -0.002138 0.000000 0.000000
# 3 -0.005985 -0.005985 0.014261 0.000000 0.000000 0.000000
# 4 0.002138 -0.002138 0.000000 0.036220 0.000000 0.000000
# 5 0.000000 0.000000 0.000000 0.000000 0.036220 0.004276
# 6 0.000000 0.000000 0.000000 0.000000 0.004276 0.030433
#
#
# Mechanical properties :
#
#
# Convention : Reuss Voigt Hill
#
# Bulk Modulus (GPa) = 58.66081 61.49726 60.07904
# Shear Modulus (GPa) = 28.21846 29.37315 28.79580
#
# Velocity S-wave (km/s) = 3.71940 3.79474 3.75726
# Velocity P-wave (km/s) = 6.87048 7.02487 6.94810
#
# Compressibility (1/GPa) = 0.01704716
#
# Stress axis : x y z
#
# Youngs Moduli (GPa) = 69.98077 69.98077 70.12190
#
# Poissons Ratio (x) = 0.06485 0.41967
# Poissons Ratio (y) = 0.06485 0.41967
# Poissons Ratio (z) = 0.41883 0.41883
#
# Static dielectric constant tensor:
#      x y z
#    x 4.005540 0.000000 0.000000 
#    y 0.000000 4.005540 0.000000 
#    z 0.000000 0.000000 13.648530 
# 
# 
# High freq. dielectric constant tensor:
#      x y z
#    x 1.810170 0.000000 0.000000 
#    y 0.000000 1.810170 0.000000 
#    z 0.000000 0.000000 1.771610 
# 
# From -- ./inp_files/671.got.cif
#   From: 2010.03.12/outbox.cif.g09.slc.cpg/sg150_cif.got.tgz:671.got - 2010.04.03 13:41:37.
