data_PCOD8321695
_publ_section_title
;
Structure prediction by ZEFSAII (Michael W. Deem and Ramdas Pophale) SiO2 
 PCOD8321695
Probable space group: R -3
;
_chemical_formula_sum "Si O2"
_cell_formula_units_Z 90
_cell_length_a 17.315212
_cell_length_b 17.315212
_cell_length_c 19.732648
_cell_angle_alpha 90.000000
_cell_angle_beta 90.000000
_cell_angle_gamma 120.000000
_cell_volume 5123.557647
_symmetry_space_group_name_H-M "R -3"
_symmetry_group_IT_number 148
_symmetry_cell_setting 'hexagonal'
loop_
_space_group_symop_operation_xyz
x,y,z
-y,x-y,z
-x+y,-x,z
-x,-y,-z
y,-x+y,-z
x-y,x,-z
2/3+x,1/3+y,1/3+z
2/3-y,1/3+x-y,1/3+z
2/3-x+y,1/3-x,1/3+z
2/3-x,1/3-y,1/3-z
2/3+y,1/3-x+y,1/3-z
2/3+x-y,1/3+x,1/3-z
1/3+x,2/3+y,2/3+z
1/3-y,2/3+x-y,2/3+z
1/3-x+y,2/3-x,2/3+z
1/3-x,2/3-y,2/3-z
1/3+y,2/3-x+y,2/3-z
1/3+x-y,2/3+x,2/3-z
loop_
_atom_site_type_symbol
_atom_site_label
_atom_site_fract_x
_atom_site_fract_y
_atom_site_fract_z
Si Si1 0.307284 0.065993 0.362735
Si Si2 0.359383 0.092043 0.970599
Si Si3 0.179276 0.998380 0.759207
Si Si4 0.514229 0.668286 0.907459
Si Si5 0.666667 0.008200 0.833333
O O1 0.341252 0.170626 0.362062
O O2 0.219715 0.011419 0.316579
O O3 0.388087 0.054754 0.333333
O O4 0.282314 0.026785 0.438373
O O5 0.384353 0.077805 0.894960
O O6 0.446952 0.125038 0.016754
O O7 0.182480 0.091240 0.764833
O O8 0.080359 0.919641 0.775947
O O9 0.245452 0.994697 0.814316
O O10 0.584088 0.671969 0.852351
#
# Coordination Sequence:
#
# PCOD8321695 Si02
#       5
#    18  18  18  18  18
#     4   9  19  33  50  72  98 129 163 201 244 290
#     4   9  19  33  50  72  98 129 163 201 244 290
#     4  10  20  34  52  74 100 130 164 202 244 290
#     4  10  20  34  52  74 100 130 164 202 244 290
#     4  10  19  32  52  74  99 128 164 204 243 288
#
# _framework density 17.565919999999998
#
# number of rings (size 3 to 8) (size 9 to 14) (size 15 to 20)
#    0.000    2.400    0.000    2.200    0.000   10.400 
#    0.000    0.000    0.000    0.400    0.000    7.000 
#    0.000    0.000    0.000    0.000    0.000    0.000 
#
# Total GULP energy -372032.902283 kJ/mol
# GULP energy per Si atom -12401.096743 kJ/mol
# Density = 1.752594 g / cm^3
# Si number density = 17.565920 Si / 1000 Ang^3
#
#
#
# Elastic Constant Matrix: (Units=GPa)
#
#
# Indices 1 2 3 4 5 6 
#
# 1 127.1004 75.7688 33.2085 -7.9716 0.0000 0.0000
# 2 75.7688 127.1004 33.2085 7.9716 0.0000 0.0000
# 3 33.2085 33.2085 86.5256 0.0000 0.0000 0.0000
# 4 -7.9716 7.9716 0.0000 19.1179 0.0000 0.0000
# 5 0.0000 0.0000 0.0000 0.0000 19.1179 -7.9716
# 6 0.0000 0.0000 0.0000 0.0000 -7.9716 25.6658
#
#
#
# Elastic Compliance Matrix: (Units=1/GPa)
#
#
# Indices 1 2 3 4 5 6 
#
# 1 0.014009 -0.008371 -0.002164 0.009332 0.000000 0.000000
# 2 -0.008371 0.014009 -0.002164 -0.009332 0.000000 0.000000
# 3 -0.002164 -0.002164 0.013218 0.000000 0.000000 0.000000
# 4 0.009332 -0.009332 0.000000 0.060089 0.000000 0.000000
# 5 0.000000 0.000000 0.000000 0.000000 0.060089 0.018663
# 6 0.000000 0.000000 0.000000 0.000000 0.018663 0.044759
#
#
# Mechanical properties :
#
#
# Convention : Reuss Voigt Hill
#
# Bulk Modulus (GPa) = 63.13710 69.45535 66.29623
# Shear Modulus (GPa) = 21.11053 26.01637 23.56345
#
# Velocity S-wave (km/s) = 3.47044 3.85264 3.66653
# Velocity P-wave (km/s) = 7.21662 7.70819 7.46645
#
# Compressibility (1/GPa) = 0.01583855
#
# Stress axis : x y z
#
# Youngs Moduli (GPa) = 71.38477 71.38477 75.65347
#
# Poissons Ratio (x) = 0.59756 0.16369
# Poissons Ratio (y) = 0.59756 0.16369
# Poissons Ratio (z) = 0.15446 0.15446
#
# Static dielectric constant tensor:
#      x y z
#    x 3.220330 0.000000 0.000000 
#    y 0.000000 3.220330 0.000000 
#    z 0.000000 0.000000 3.483550 
# 
# 
# High freq. dielectric constant tensor:
#      x y z
#    x 1.673940 0.000000 0.000000 
#    y 0.000000 1.673940 0.000000 
#    z 0.000000 0.000000 1.689090 
# 
# From -- ./inp_files/2680.got.cif
#   From: 2010.03.12/outbox.cif.g09.slc.cpg/sg148_2_cif.got.tgz:2680.got - 2010.04.03 13:38:46.
