data_PCOD8321088
_publ_section_title
;
Structure prediction by ZEFSAII (Michael W. Deem and Ramdas Pophale) SiO2 
 PCOD8321088
Probable space group: I 41/A C D
;
_chemical_formula_sum "Si O2"
_cell_formula_units_Z 160
_cell_length_a 20.773857
_cell_length_b 20.773857
_cell_length_c 17.748412
_cell_angle_alpha 90.000000
_cell_angle_beta 90.000000
_cell_angle_gamma 90.000000
_cell_volume 7659.382834
_symmetry_space_group_name_H-M "I 41/A C D"
_symmetry_group_IT_number 142
_space_group.IT_coordinate_system_code '2'
_symmetry_cell_setting 'tetragonal'
loop_
_space_group_symop_operation_xyz
x,y,z
1/4-y,3/4+x,1/4+z
-x,1/2-y,z
1/4+y,1/4-x,3/4+z
x,-y,1/2-z
1/2-x,y,-z
3/4+y,1/4+x,1/4-z
1/4-y,1/4-x,1/4-z
-x,-y,-z
3/4+y,1/4-x,3/4-z
x,1/2+y,-z
3/4-y,3/4+x,1/4-z
-x,y,1/2+z
1/2+x,-y,z
1/4-y,3/4-x,3/4+z
3/4+y,3/4+x,3/4+z
1/2+x,1/2+y,1/2+z
3/4-y,1/4+x,3/4+z
1/2-x,-y,1/2+z
3/4+y,3/4-x,1/4+z
1/2+x,1/2-y,-z
-x,1/2+y,1/2-z
1/4+y,3/4+x,3/4-z
3/4-y,3/4-x,3/4-z
1/2-x,1/2-y,1/2-z
1/4+y,3/4-x,1/4-z
1/2+x,y,1/2-z
1/4-y,1/4+x,3/4-z
1/2-x,1/2+y,z
x,1/2-y,1/2+z
3/4-y,1/4-x,1/4+z
1/4+y,1/4+x,1/4+z
loop_
_atom_site_type_symbol
_atom_site_label
_atom_site_fract_x
_atom_site_fract_y
_atom_site_fract_z
Si Si1 0.284409 0.768582 0.573166
Si Si2 0.331519 0.191285 0.174865
Si Si3 0.194510 0.846982 0.843627
Si Si4 0.660550 0.662717 0.830974
Si Si5 0.315482 0.904092 0.543301
O O1 0.250000 0.737543 0.500000
O O2 0.234723 0.803044 0.630219
O O3 0.331789 0.716826 0.613195
O O4 0.327993 0.827616 0.545949
O O5 0.317378 0.159016 0.255159
O O6 0.360538 0.263319 0.183406
O O7 0.380134 0.144796 0.130618
O O8 0.161341 0.911341 0.875000
O O9 0.269410 0.842496 0.870625
O O10 0.676888 0.627565 0.752481
O O11 0.250000 0.923104 0.500000
O O12 0.312597 0.937404 0.625000
#
# Coordination Sequence:
#
# PCOD8321088 Si02
#       5
#    32  32  32  32  32
#     4  10  20  42  66  89 128 180 213 252 336 395
#     4  11  23  44  65  95 133 178 214 268 338 387
#     4  11  26  41  66  96 132 169 217 275 329 393
#     4  11  24  42  67  96 135 173 218 271 326 401
#     4  11  21  38  67  98 127 170 222 269 326 395
#
# _framework density 20.889410999999999
#
# number of rings (size 3 to 8) (size 9 to 14) (size 15 to 20)
#    0.000    1.200    4.000    4.800    5.600    1.200 
#    0.000    0.000    0.000    4.200    0.000    0.000 
#    0.000    0.000    0.000    0.000    0.000    0.000 
#
# Total GULP energy -991498.887196 kJ/mol
# GULP energy per Si atom -12393.736090 kJ/mol
# Density = 2.084187 g / cm^3
# Si number density = 20.889411 Si / 1000 Ang^3
#
#
#
# Elastic Constant Matrix: (Units=GPa)
#
#
# Indices 1 2 3 4 5 6 
#
# 1 97.8893 47.1089 39.6871 0.0000 0.0000 0.0000
# 2 47.1089 97.8888 39.6868 0.0000 0.0000 0.0000
# 3 39.6871 39.6868 147.1960 0.0000 0.0000 0.0000
# 4 0.0000 0.0000 0.0000 32.4024 0.0000 0.0000
# 5 0.0000 0.0000 0.0000 0.0000 32.4022 0.0000
# 6 0.0000 0.0000 0.0000 0.0000 0.0000 28.8635
#
#
#
# Elastic Compliance Matrix: (Units=1/GPa)
#
#
# Indices 1 2 3 4 5 6 
#
# 1 0.013892 -0.005801 -0.002181 0.000000 0.000000 0.000000
# 2 -0.005801 0.013892 -0.002181 0.000000 0.000000 0.000000
# 3 -0.002181 -0.002181 0.007970 0.000000 0.000000 0.000000
# 4 0.000000 0.000000 0.000000 0.030862 0.000000 0.000000
# 5 0.000000 0.000000 0.000000 0.000000 0.030862 0.000000
# 6 0.000000 0.000000 0.000000 0.000000 0.000000 0.034646
#
#
# Mechanical properties :
#
#
# Convention : Reuss Voigt Hill
#
# Bulk Modulus (GPa) = 64.82635 66.21551 65.52093
# Shear Modulus (GPa) = 31.72731 33.16638 32.44685
#
# Velocity S-wave (km/s) = 3.90144 3.98893 3.94543
# Velocity P-wave (km/s) = 7.16906 7.27890 7.22419
#
# Compressibility (1/GPa) = 0.01542582
#
# Stress axis : x y z
#
# Youngs Moduli (GPa) = 71.98530 71.98493 125.47077
#
# Poissons Ratio (x) = 0.41758 0.27371
# Poissons Ratio (y) = 0.41758 0.27371
# Poissons Ratio (z) = 0.15703 0.15703
#
# Static dielectric constant tensor:
#      x y z
#    x 3.791800 0.000000 0.000000 
#    y 0.000000 3.791800 0.000000 
#    z 0.000000 0.000000 4.145980 
# 
# 
# High freq. dielectric constant tensor:
#      x y z
#    x 1.805770 0.000000 0.000000 
#    y 0.000000 1.805770 0.000000 
#    z 0.000000 0.000000 1.839590 
# 
# From -- ./inp_files/7357.got.cif
#   From: 2010.03.12/outbox.cif.g09.slc.cpg/sg142_4_cif.got.tgz:7357.got - 2010.04.03 13:27:16.
