data_PCOD8321771
_publ_section_title
;
Structure prediction by ZEFSAII (Michael W. Deem and Ramdas Pophale) SiO2 
 PCOD8321771
Probable space group: R -3
;
_chemical_formula_sum "Si O2"
_cell_formula_units_Z 84
_cell_length_a 13.868636
_cell_length_b 13.868636
_cell_length_c 22.660967
_cell_angle_alpha 90.000000
_cell_angle_beta 90.000000
_cell_angle_gamma 120.000000
_cell_volume 3774.648966
_symmetry_space_group_name_H-M "R -3"
_symmetry_group_IT_number 148
_symmetry_cell_setting 'hexagonal'
loop_
_space_group_symop_operation_xyz
x,y,z
-y,x-y,z
-x+y,-x,z
-x,-y,-z
y,-x+y,-z
x-y,x,-z
2/3+x,1/3+y,1/3+z
2/3-y,1/3+x-y,1/3+z
2/3-x+y,1/3-x,1/3+z
2/3-x,1/3-y,1/3-z
2/3+y,1/3-x+y,1/3-z
2/3+x-y,1/3+x,1/3-z
1/3+x,2/3+y,2/3+z
1/3-y,2/3+x-y,2/3+z
1/3-x+y,2/3-x,2/3+z
1/3-x,2/3-y,2/3-z
1/3+y,2/3-x+y,2/3-z
1/3+x-y,2/3+x,2/3-z
loop_
_atom_site_type_symbol
_atom_site_label
_atom_site_fract_x
_atom_site_fract_y
_atom_site_fract_z
Si Si1 0.666668 0.333334 0.663801
Si Si2 0.587277 0.497642 0.179143
Si Si3 0.360520 0.344662 0.241733
Si Si4 0.666667 0.333334 0.526265
Si Si5 0.209504 0.876998 0.900665
Si Si6 0.811397 0.042677 0.673632
O O1 0.666668 0.333334 0.594900
O O2 0.746129 0.287486 0.685718
O O3 0.459325 0.416895 0.195839
O O4 0.598230 0.577081 0.124118
O O5 0.648472 0.430855 0.162945
O O6 0.658979 0.573176 0.235205
O O7 0.362628 0.236552 0.268685
O O8 0.374173 0.416960 0.299158
O O9 0.166667 0.833334 0.833334
O O10 0.317503 0.872201 0.927193
O O11 0.833334 0.166667 0.666667
#
# Coordination Sequence:
#
# PCOD8321771 Si02
#       6
#     6  18  18   6  18  18
#     4  12  27  42  72 103 143 190 237 279 367 434
#     4  11  24  42  70 102 141 185 241 299 365 433
#     4  11  26  41  71 105 140 191 235 303 364 437
#     4  12  21  45  75 103 131 187 243 297 340 434
#     4  10  23  45  70  99 139 189 249 295 364 440
#     4  12  27  45  72 103 147 187 242 303 361 439
#
# _framework density 22.253723999999998
#
# number of rings (size 3 to 8) (size 9 to 14) (size 15 to 20)
#    0.000    0.857    2.143    5.143   15.000    0.000 
#    0.000    0.000    0.000    4.286    0.000    0.000 
#    0.000    0.000    0.000    0.000    0.000    0.000 
#
# Total GULP energy -346928.941763 kJ/mol
# GULP energy per Si atom -12390.319349 kJ/mol
# Density = 2.220307 g / cm^3
# Si number density = 22.253724 Si / 1000 Ang^3
#
#
#
# Elastic Constant Matrix: (Units=GPa)
#
#
# Indices 1 2 3 4 5 6 
#
# 1 142.4658 37.4683 23.4316 13.7558 9.8255 -0.0002
# 2 37.4683 142.4648 23.4308 -13.7559 -9.8252 0.0006
# 3 23.4316 23.4308 63.3611 0.0003 -0.0003 0.0000
# 4 13.7558 -13.7559 0.0003 42.3198 0.0007 -9.8249
# 5 9.8255 -9.8252 -0.0003 0.0007 42.3196 13.7552
# 6 -0.0002 0.0006 0.0000 -9.8249 13.7552 52.4979
#
#
#
# Elastic Compliance Matrix: (Units=1/GPa)
#
#
# Indices 1 2 3 4 5 6 
#
# 1 0.008540 -0.002390 -0.002274 -0.003553 -0.002538 0.000000
# 2 -0.002390 0.008540 -0.002274 0.003553 0.002538 0.000000
# 3 -0.002274 -0.002274 0.017465 0.000000 0.000000 0.000000
# 4 -0.003553 0.003553 0.000000 0.027117 0.000000 0.005075
# 5 -0.002538 0.002538 0.000000 0.000000 0.027117 -0.007105
# 6 0.000000 0.000000 0.000000 0.005075 -0.007105 0.021860
#
#
# Mechanical properties :
#
#
# Convention : Reuss Voigt Hill
#
# Bulk Modulus (GPa) = 48.38539 57.43922 52.91230
# Shear Modulus (GPa) = 38.05024 45.02484 41.53754
#
# Velocity S-wave (km/s) = 4.13950 4.50293 4.32504
# Velocity P-wave (km/s) = 6.68110 7.27340 6.98353
#
# Compressibility (1/GPa) = 0.02066740
#
# Stress axis : x y z
#
# Youngs Moduli (GPa) = 117.09763 117.09723 57.25866
#
# Poissons Ratio (x) = 0.27986 0.13023
# Poissons Ratio (y) = 0.27986 0.13022
# Poissons Ratio (z) = 0.26632 0.26630
#
# Static dielectric constant tensor:
#      x y z
#    x 4.339020 0.000000 0.000010 
#    y 0.000000 4.339020 0.000020 
#    z 0.000010 0.000020 4.109050 
# 
# 
# High freq. dielectric constant tensor:
#      x y z
#    x 1.891690 0.000000 0.000000 
#    y 0.000000 1.891690 0.000000 
#    z 0.000000 0.000000 1.852620 
# 
# From -- ./inp_files/3355.got.cif
#   From: 2010.03.12/outbox.cif.g09.slc.cpg/sg148_2_cif.got.tgz:3355.got - 2010.04.03 13:38:46.
