data_PCOD8321320
_publ_section_title
;
Structure prediction by ZEFSAII (Michael W. Deem and Ramdas Pophale) SiO2 
 PCOD8321320
Probable space group: I 41/A C D
;
_chemical_formula_sum "Si O2"
_cell_formula_units_Z 56
_cell_length_a 16.332318
_cell_length_b 16.332318
_cell_length_c 7.254491
_cell_angle_alpha 90.000000
_cell_angle_beta 90.000000
_cell_angle_gamma 90.000000
_cell_volume 1935.096382
_symmetry_space_group_name_H-M "I 41/A C D"
_symmetry_group_IT_number 142
_space_group.IT_coordinate_system_code '2'
_symmetry_cell_setting 'tetragonal'
loop_
_space_group_symop_operation_xyz
x,y,z
1/4-y,3/4+x,1/4+z
-x,1/2-y,z
1/4+y,1/4-x,3/4+z
x,-y,1/2-z
1/2-x,y,-z
3/4+y,1/4+x,1/4-z
1/4-y,1/4-x,1/4-z
-x,-y,-z
3/4+y,1/4-x,3/4-z
x,1/2+y,-z
3/4-y,3/4+x,1/4-z
-x,y,1/2+z
1/2+x,-y,z
1/4-y,3/4-x,3/4+z
3/4+y,3/4+x,3/4+z
1/2+x,1/2+y,1/2+z
3/4-y,1/4+x,3/4+z
1/2-x,-y,1/2+z
3/4+y,3/4-x,1/4+z
1/2+x,1/2-y,-z
-x,1/2+y,1/2-z
1/4+y,3/4+x,3/4-z
3/4-y,3/4-x,3/4-z
1/2-x,1/2-y,1/2-z
1/4+y,3/4-x,1/4-z
1/2+x,y,1/2-z
1/4-y,1/4+x,3/4-z
1/2-x,1/2+y,z
x,1/2-y,1/2+z
3/4-y,1/4-x,1/4+z
1/4+y,1/4+x,1/4+z
loop_
_atom_site_type_symbol
_atom_site_label
_atom_site_fract_x
_atom_site_fract_y
_atom_site_fract_z
Si Si1 0.329639 0.420361 0.375000
Si Si2 0.430667 0.589938 0.775242
Si Si3 0.000000 0.250000 0.875000
O O1 0.332007 0.500000 0.250000
O O2 0.404987 0.414092 0.513317
O O3 0.471163 0.500000 0.750000
O O4 0.357510 0.607510 0.625000
O O5 0.496508 0.664527 0.757445
#
# Coordination Sequence:
#
# PCOD8321320 Si02
#       3
#    16  32   8
#     4  12  24  47  86 132 174 227 304 376 448 546
#     4  12  28  54  84 128 178 239 304 375 451 534
#     4  12  34  56  86 130 188 242 310 372 446 546
#
# _framework density 28.939126999999999
#
# number of rings (size 3 to 8) (size 9 to 14) (size 15 to 20)
#    0.000    0.000    5.714    2.571    8.000    4.571 
#    0.000    0.000    0.000    0.000    0.000    0.000 
#    0.000    0.000    0.000    0.000    0.000    0.000 
#
# Total GULP energy -346886.307083 kJ/mol
# GULP energy per Si atom -12388.796682 kJ/mol
# Density = 2.887326 g / cm^3
# Si number density = 28.939127 Si / 1000 Ang^3
#
#
#
# Elastic Constant Matrix: (Units=GPa)
#
#
# Indices 1 2 3 4 5 6 
#
# 1 210.1447 81.0702 47.1817 0.0000 0.0000 0.0000
# 2 81.0702 210.1449 47.1814 0.0000 0.0000 0.0000
# 3 47.1817 47.1814 196.2911 0.0000 0.0000 0.0000
# 4 0.0000 0.0000 0.0000 36.1236 0.0000 0.0000
# 5 0.0000 0.0000 0.0000 0.0000 36.1237 0.0000
# 6 0.0000 0.0000 0.0000 0.0000 0.0000 43.2151
#
#
#
# Elastic Compliance Matrix: (Units=1/GPa)
#
#
# Indices 1 2 3 4 5 6 
#
# 1 0.005736 -0.002012 -0.000895 0.000000 0.000000 0.000000
# 2 -0.002012 0.005736 -0.000895 0.000000 0.000000 0.000000
# 3 -0.000895 -0.000895 0.005525 0.000000 0.000000 0.000000
# 4 0.000000 0.000000 0.000000 0.027683 0.000000 0.000000
# 5 0.000000 0.000000 0.000000 0.000000 0.027683 0.000000
# 6 0.000000 0.000000 0.000000 0.000000 0.000000 0.023140
#
#
# Mechanical properties :
#
#
# Convention : Reuss Voigt Hill
#
# Bulk Modulus (GPa) = 106.47102 107.49414 106.98258
# Shear Modulus (GPa) = 47.06491 52.50233 49.78362
#
# Velocity S-wave (km/s) = 4.03717 4.26400 4.15213
# Velocity P-wave (km/s) = 7.65525 7.84014 7.74825
#
# Compressibility (1/GPa) = 0.00939223
#
# Stress axis : x y z
#
# Youngs Moduli (GPa) = 174.34664 174.34694 181.00279
#
# Poissons Ratio (x) = 0.35074 0.16202
# Poissons Ratio (y) = 0.35074 0.16201
# Poissons Ratio (z) = 0.15606 0.15606
#
# Static dielectric constant tensor:
#      x y z
#    x 5.397760 0.000000 0.000000 
#    y 0.000000 5.397750 0.000000 
#    z 0.000000 0.000000 6.021320 
# 
# 
# High freq. dielectric constant tensor:
#      x y z
#    x 2.170560 0.000000 0.000000 
#    y 0.000000 2.170550 0.000000 
#    z 0.000000 0.000000 2.205020 
# 
# From -- ./inp_files/1013.got.cif
#   From: 2010.03.12/outbox.cif.g09.slc.cpg/sg142_1_cif.got.tgz:1013.got - 2010.04.03 13:27:16.
