data_PCOD8321422
_publ_section_title
;
Structure prediction by ZEFSAII (Michael W. Deem and Ramdas Pophale) SiO2 
 PCOD8321422
Probable space group: P 31
;
_chemical_formula_sum "Si O2"
_cell_formula_units_Z 21
_cell_length_a 9.080004
_cell_length_b 9.080004
_cell_length_c 11.864044
_cell_angle_alpha 90.000000
_cell_angle_beta 90.000000
_cell_angle_gamma 120.000000
_cell_volume 847.101518
_symmetry_space_group_name_H-M "P 31"
_symmetry_group_IT_number 144
_symmetry_cell_setting 'hexagonal'
loop_
_space_group_symop_operation_xyz
x,y,z
-y,x-y,1/3+z
-x+y,-x,2/3+z
loop_
_atom_site_type_symbol
_atom_site_label
_atom_site_fract_x
_atom_site_fract_y
_atom_site_fract_z
Si Si1 0.037180 0.261081 0.372570
Si Si2 0.591527 0.041870 0.108428
Si Si3 0.422392 0.050166 0.514775
Si Si4 0.616921 0.196635 0.736899
Si Si5 0.598467 0.905623 0.878643
Si Si6 0.512684 0.767279 0.506141
Si Si7 0.722432 0.902853 0.292459
O O1 0.139223 0.255321 0.483520
O O2 0.176524 0.351797 0.274450
O O3 0.965199 0.381946 0.410140
O O4 0.892544 0.070948 0.337062
O O5 0.719147 0.238198 0.128402
O O6 0.602137 0.954450 0.223322
O O7 0.652195 0.962917 0.007202
O O8 0.562625 0.159473 0.608332
O O9 0.478103 0.176164 0.407501
O O10 0.441510 0.892212 0.482377
O O11 0.225838 0.986803 0.551378
O O12 0.556607 0.036096 0.816123
O O13 0.407624 0.743503 0.866490
O O14 0.613778 0.775057 0.393117
#
# Coordination Sequence:
#
# PCOD8321422 Si02
#       7
#     3   3   3   3   3   3   3
#     4  11  25  46  75 111 151 192 244 314 376 440
#     4  11  25  47  76 108 146 201 248 304 376 460
#     4  12  27  46  75 105 147 203 247 304 368 452
#     4  12  24  48  70 103 145 198 246 294 375 444
#     4  11  23  48  76 102 147 193 243 310 377 436
#     4  11  23  47  75 108 148 192 249 301 369 452
#     4  12  27  46  73 117 152 189 251 319 373 442
#
# _framework density 24.790417000000001
#
# number of rings (size 3 to 8) (size 9 to 14) (size 15 to 20)
#    0.000    0.571    4.286    3.429    2.000    4.571 
#    2.571    0.000    0.000    0.000    0.000    0.000 
#    0.000    0.000    0.000    0.000    0.000    0.000 
#
# Total GULP energy -260272.703316 kJ/mol
# GULP energy per Si atom -12393.938253 kJ/mol
# Density = 2.473399 g / cm^3
# Si number density = 24.790417 Si / 1000 Ang^3
#
#
#
# Elastic Constant Matrix: (Units=GPa)
#
#
# Indices 1 2 3 4 5 6 
#
# 1 100.9287 47.2610 33.4042 -0.7346 -7.9362 0.0000
# 2 47.2610 100.9287 33.4042 0.7346 7.9362 0.0000
# 3 33.4042 33.4042 52.7647 0.0000 0.0000 0.0000
# 4 -0.7346 0.7346 0.0000 29.9599 0.0000 7.9362
# 5 -7.9362 7.9362 0.0000 0.0000 29.9599 -0.7346
# 6 0.0000 0.0000 0.0000 7.9362 -0.7346 26.8338
#
#
#
# Elastic Compliance Matrix: (Units=1/GPa)
#
#
# Indices 1 2 3 4 5 6 
#
# 1 0.014838 -0.005394 -0.005978 0.000496 0.005359 0.000000
# 2 -0.005394 0.014838 -0.005978 -0.000496 -0.005359 0.000000
# 3 -0.005978 -0.005978 0.026522 0.000000 0.000000 0.000000
# 4 0.000496 -0.000496 0.000000 0.036242 0.000000 -0.010719
# 5 0.005359 -0.005359 0.000000 0.000000 0.036242 0.000992
# 6 0.000000 0.000000 0.000000 -0.010719 0.000992 0.040464
#
#
# Mechanical properties :
#
#
# Convention : Reuss Voigt Hill
#
# Bulk Modulus (GPa) = 46.52289 53.64012 50.08151
# Shear Modulus (GPa) = 23.69550 26.72087 25.20818
#
# Velocity S-wave (km/s) = 3.09501 3.28666 3.19227
# Velocity P-wave (km/s) = 5.61955 6.00726 5.81664
#
# Compressibility (1/GPa) = 0.02149479
#
# Stress axis : x y z
#
# Youngs Moduli (GPa) = 67.39645 67.39645 37.70505
#
# Poissons Ratio (x) = 0.36355 0.22542
# Poissons Ratio (y) = 0.36355 0.22542
# Poissons Ratio (z) = 0.40292 0.40292
#
# Static dielectric constant tensor:
#      x y z
#    x 4.674760 0.000000 0.000000 
#    y 0.000000 4.674760 0.000000 
#    z 0.000000 0.000000 5.150760 
# 
# 
# High freq. dielectric constant tensor:
#      x y z
#    x 1.990960 0.000000 0.000000 
#    y 0.000000 1.990960 0.000000 
#    z 0.000000 0.000000 1.987990 
# 
# From -- ./inp_files/587.got.cif
#   From: 2010.03.12/outbox.cif.g09.slc.cpg/sg144_cif.got.tgz:587.got - 2010.04.03 13:34:42.
