data_PCOD8321168
_publ_section_title
;
Structure prediction by ZEFSAII (Michael W. Deem and Ramdas Pophale) SiO2 
 PCOD8321168
Probable space group: I 41/A C D
;
_chemical_formula_sum "Si O2"
_cell_formula_units_Z 112
_cell_length_a 17.977814
_cell_length_b 17.977814
_cell_length_c 15.683675
_cell_angle_alpha 90.000000
_cell_angle_beta 90.000000
_cell_angle_gamma 90.000000
_cell_volume 5068.991931
_symmetry_space_group_name_H-M "I 41/A C D"
_symmetry_group_IT_number 142
_space_group.IT_coordinate_system_code '2'
_symmetry_cell_setting 'tetragonal'
loop_
_space_group_symop_operation_xyz
x,y,z
1/4-y,3/4+x,1/4+z
-x,1/2-y,z
1/4+y,1/4-x,3/4+z
x,-y,1/2-z
1/2-x,y,-z
3/4+y,1/4+x,1/4-z
1/4-y,1/4-x,1/4-z
-x,-y,-z
3/4+y,1/4-x,3/4-z
x,1/2+y,-z
3/4-y,3/4+x,1/4-z
-x,y,1/2+z
1/2+x,-y,z
1/4-y,3/4-x,3/4+z
3/4+y,3/4+x,3/4+z
1/2+x,1/2+y,1/2+z
3/4-y,1/4+x,3/4+z
1/2-x,-y,1/2+z
3/4+y,3/4-x,1/4+z
1/2+x,1/2-y,-z
-x,1/2+y,1/2-z
1/4+y,3/4+x,3/4-z
3/4-y,3/4-x,3/4-z
1/2-x,1/2-y,1/2-z
1/4+y,3/4-x,1/4-z
1/2+x,y,1/2-z
1/4-y,1/4+x,3/4-z
1/2-x,1/2+y,z
x,1/2-y,1/2+z
3/4-y,1/4-x,1/4+z
1/4+y,1/4+x,1/4+z
loop_
_atom_site_type_symbol
_atom_site_label
_atom_site_fract_x
_atom_site_fract_y
_atom_site_fract_z
Si Si1 0.860307 0.381104 0.900144
Si Si2 0.389866 0.639866 0.625000
Si Si3 0.589672 0.010464 0.004879
Si Si4 0.014367 0.913344 0.734125
O O1 0.782139 0.366413 0.850713
O O2 0.860801 0.439618 0.977744
O O3 0.920056 0.410297 0.833638
O O4 0.882165 0.303972 0.944808
O O5 0.324067 0.633787 0.691733
O O6 0.380802 0.716091 0.571510
O O7 0.500000 0.000000 0.000000
O O8 0.995378 0.000000 0.750000
#
# Coordination Sequence:
#
# PCOD8321168 Si02
#       4
#    32  16  32  32
#     4  11  23  43  76  94 149 188 235 298 368 408
#     4  10  22  42  73  94 142 182 232 297 362 404
#     4  11  22  45  69 106 141 184 239 303 345 427
#     4  11  22  45  68 104 139 184 234 304 347 431
#
# _framework density 22.095123999999998
#
# number of rings (size 3 to 8) (size 9 to 14) (size 15 to 20)
#    0.000    1.143    5.714    0.000    0.000    0.571 
#    5.143    5.714    0.000    0.000    0.000    0.000 
#    0.000    0.000    0.000    0.000    0.000    0.000 
#
# Total GULP energy -693934.082144 kJ/mol
# GULP energy per Si atom -12391.680038 kJ/mol
# Density = 2.204483 g / cm^3
# Si number density = 22.095124 Si / 1000 Ang^3
#
#
#
# Elastic Constant Matrix: (Units=GPa)
#
#
# Indices 1 2 3 4 5 6 
#
# 1 88.3021 35.1639 44.8832 0.0000 0.0000 0.0000
# 2 35.1639 88.3021 44.8832 0.0000 0.0000 0.0000
# 3 44.8832 44.8832 104.1678 0.0000 0.0000 0.0000
# 4 0.0000 0.0000 0.0000 39.7885 0.0000 0.0000
# 5 0.0000 0.0000 0.0000 0.0000 39.7885 0.0000
# 6 0.0000 0.0000 0.0000 0.0000 0.0000 19.3909
#
#
#
# Elastic Compliance Matrix: (Units=1/GPa)
#
#
# Indices 1 2 3 4 5 6 
#
# 1 0.015306 -0.003512 -0.005082 0.000000 0.000000 0.000000
# 2 -0.003512 0.015306 -0.005082 0.000000 0.000000 0.000000
# 3 -0.005082 -0.005082 0.013979 0.000000 0.000000 0.000000
# 4 0.000000 0.000000 0.000000 0.025133 0.000000 0.000000
# 5 0.000000 0.000000 0.000000 0.000000 0.025133 0.000000
# 6 0.000000 0.000000 0.000000 0.000000 0.000000 0.051571
#
#
# Mechanical properties :
#
#
# Convention : Reuss Voigt Hill
#
# Bulk Modulus (GPa) = 58.00384 58.95915 58.48150
# Shear Modulus (GPa) = 27.85097 30.18302 29.01699
#
# Velocity S-wave (km/s) = 3.55421 3.70002 3.62785
# Velocity P-wave (km/s) = 6.56902 6.70788 6.63882
#
# Compressibility (1/GPa) = 0.01724024
#
# Stress axis : x y z
#
# Youngs Moduli (GPa) = 65.33179 65.33179 71.53539
#
# Poissons Ratio (x) = 0.22947 0.36353
# Poissons Ratio (y) = 0.22947 0.36353
# Poissons Ratio (z) = 0.33200 0.33200
#
# Static dielectric constant tensor:
#      x y z
#    x 4.452560 0.000000 0.000000 
#    y 0.000000 4.452560 0.000000 
#    z 0.000000 0.000000 4.604590 
# 
# 
# High freq. dielectric constant tensor:
#      x y z
#    x 1.856430 0.000000 0.000000 
#    y 0.000000 1.856430 0.000000 
#    z 0.000000 0.000000 1.893980 
# 
# From -- ./inp_files/6831.got.cif
#   From: 2010.03.12/outbox.cif.g09.slc.cpg/sg142_4_cif.got.tgz:6831.got - 2010.04.03 13:27:16.
