data_PCOD8321782
_publ_section_title
;
Structure prediction by ZEFSAII (Michael W. Deem and Ramdas Pophale) SiO2 
 PCOD8321782
Probable space group: R -3
;
_chemical_formula_sum "Si O2"
_cell_formula_units_Z 108
_cell_length_a 19.016788
_cell_length_b 19.016788
_cell_length_c 19.642804
_cell_angle_alpha 90.000000
_cell_angle_beta 90.000000
_cell_angle_gamma 120.000000
_cell_volume 6151.888349
_symmetry_space_group_name_H-M "R -3"
_symmetry_group_IT_number 148
_symmetry_cell_setting 'hexagonal'
loop_
_space_group_symop_operation_xyz
x,y,z
-y,x-y,z
-x+y,-x,z
-x,-y,-z
y,-x+y,-z
x-y,x,-z
2/3+x,1/3+y,1/3+z
2/3-y,1/3+x-y,1/3+z
2/3-x+y,1/3-x,1/3+z
2/3-x,1/3-y,1/3-z
2/3+y,1/3-x+y,1/3-z
2/3+x-y,1/3+x,1/3-z
1/3+x,2/3+y,2/3+z
1/3-y,2/3+x-y,2/3+z
1/3-x+y,2/3-x,2/3+z
1/3-x,2/3-y,2/3-z
1/3+y,2/3-x+y,2/3-z
1/3+x-y,2/3+x,2/3-z
loop_
_atom_site_type_symbol
_atom_site_label
_atom_site_fract_x
_atom_site_fract_y
_atom_site_fract_z
Si Si1 0.636679 0.234320 0.148237
Si Si2 0.568281 0.072478 0.087790
Si Si3 0.768819 0.264832 0.370337
Si Si4 0.888218 0.667249 0.896943
Si Si5 0.897305 0.082517 0.504720
Si Si6 0.896254 0.270695 0.723142
O O1 0.729716 0.305585 0.139476
O O2 0.616705 0.169460 0.089426
O O3 0.627142 0.199412 0.222848
O O4 0.587412 0.039635 0.156495
O O5 0.472505 0.043637 0.081378
O O6 0.601732 0.044610 0.024981
O O7 0.679860 0.199409 0.342133
O O8 0.824036 0.221801 0.380893
O O9 0.798334 0.588471 0.886017
O O10 0.951947 0.640406 0.922355
O O11 0.853291 0.075547 0.576304
O O12 0.992322 0.126530 0.523312
#
# Coordination Sequence:
#
# PCOD8321782 Si02
#       6
#    18  18  18  18  18  18
#     4   9  17  32  52  78 105 133 169 225 267 313
#     4   9  18  35  56  73 106 143 175 213 272 316
#     4  11  18  34  56  81 105 142 181 221 267 326
#     4   9  20  35  53  81 109 139 180 219 266 321
#     4   9  17  34  56  80 109 141 178 226 267 316
#     4   9  18  37  52  76 106 149 176 214 268 326
#
# _framework density 17.555585000000001
#
# number of rings (size 3 to 8) (size 9 to 14) (size 15 to 20)
#    0.333    2.333    1.667    0.333    0.000    0.000 
#   24.000    0.000    0.000    4.000    0.000    0.000 
#    0.000    0.000    0.000    0.000    0.000    0.000 
#
# Total GULP energy -446049.528896 kJ/mol
# GULP energy per Si atom -12390.264692 kJ/mol
# Density = 1.751563 g / cm^3
# Si number density = 17.555585 Si / 1000 Ang^3
#
#
#
# Elastic Constant Matrix: (Units=GPa)
#
#
# Indices 1 2 3 4 5 6 
#
# 1 82.0066 23.3718 22.0155 -9.4035 2.4033 0.0000
# 2 23.3718 82.0066 22.0155 9.4035 -2.4033 0.0000
# 3 22.0155 22.0155 66.9020 0.0000 0.0000 0.0000
# 4 -9.4035 9.4035 0.0000 15.8518 0.0000 -2.4033
# 5 2.4033 -2.4033 0.0000 0.0000 15.8518 -9.4035
# 6 0.0000 0.0000 0.0000 -2.4033 -9.4035 29.3174
#
#
#
# Elastic Compliance Matrix: (Units=1/GPa)
#
#
# Indices 1 2 3 4 5 6 
#
# 1 0.016197 -0.005194 -0.003621 0.012689 -0.003243 0.000000
# 2 -0.005194 0.016197 -0.003621 -0.012689 0.003243 0.000000
# 3 -0.003621 -0.003621 0.017330 0.000000 0.000000 0.000000
# 4 0.012689 -0.012689 0.000000 0.079122 0.000000 0.006486
# 5 -0.003243 0.003243 0.000000 0.000000 0.079122 0.025378
# 6 0.000000 0.000000 0.000000 0.006486 0.025378 0.042781
#
#
# Mechanical properties :
#
#
# Convention : Reuss Voigt Hill
#
# Bulk Modulus (GPa) = 40.23722 40.63566 40.43644
# Shear Modulus (GPa) = 17.61161 23.10503 20.35832
#
# Velocity S-wave (km/s) = 3.17076 3.63175 3.40906
# Velocity P-wave (km/s) = 6.03113 6.38618 6.21119
#
# Compressibility (1/GPa) = 0.02485261
#
# Stress axis : x y z
#
# Youngs Moduli (GPa) = 61.74172 61.74172 57.70313
#
# Poissons Ratio (x) = 0.32069 0.20892
# Poissons Ratio (y) = 0.32069 0.20892
# Poissons Ratio (z) = 0.22354 0.22354
#
# Static dielectric constant tensor:
#      x y z
#    x 3.421350 0.000000 0.000000 
#    y 0.000000 3.421350 0.000000 
#    z 0.000000 0.000000 3.160820 
# 
# 
# High freq. dielectric constant tensor:
#      x y z
#    x 1.671860 0.000000 0.000000 
#    y 0.000000 1.671860 0.000000 
#    z 0.000000 0.000000 1.671700 
# 
# From -- ./inp_files/3129.got.cif
#   From: 2010.03.12/outbox.cif.g09.slc.cpg/sg148_2_cif.got.tgz:3129.got - 2010.04.03 13:38:46.
