data_PCOD8321699
_publ_section_title
;
Structure prediction by ZEFSAII (Michael W. Deem and Ramdas Pophale) SiO2 
 PCOD8321699
Probable space group: R -3
;
_chemical_formula_sum "Si O2"
_cell_formula_units_Z 108
_cell_length_a 24.820450
_cell_length_b 24.820450
_cell_length_c 11.681623
_cell_angle_alpha 90.000000
_cell_angle_beta 90.000000
_cell_angle_gamma 120.000000
_cell_volume 6232.368445
_symmetry_space_group_name_H-M "R -3"
_symmetry_group_IT_number 148
_symmetry_cell_setting 'hexagonal'
loop_
_space_group_symop_operation_xyz
x,y,z
-y,x-y,z
-x+y,-x,z
-x,-y,-z
y,-x+y,-z
x-y,x,-z
2/3+x,1/3+y,1/3+z
2/3-y,1/3+x-y,1/3+z
2/3-x+y,1/3-x,1/3+z
2/3-x,1/3-y,1/3-z
2/3+y,1/3-x+y,1/3-z
2/3+x-y,1/3+x,1/3-z
1/3+x,2/3+y,2/3+z
1/3-y,2/3+x-y,2/3+z
1/3-x+y,2/3-x,2/3+z
1/3-x,2/3-y,2/3-z
1/3+y,2/3-x+y,2/3-z
1/3+x-y,2/3+x,2/3-z
loop_
_atom_site_type_symbol
_atom_site_label
_atom_site_fract_x
_atom_site_fract_y
_atom_site_fract_z
Si Si1 0.585704 0.958676 0.954431
Si Si2 0.686173 0.954146 0.541877
Si Si3 0.523886 0.643040 0.747098
Si Si4 0.308661 0.210320 0.266438
Si Si5 0.258304 0.853530 0.918939
Si Si6 0.250891 0.826718 0.576226
O O1 0.603298 0.906313 0.984404
O O2 0.520943 0.928188 0.885358
O O3 0.639676 0.013821 0.879907
O O4 0.578663 0.982308 0.079376
O O5 0.617939 0.913476 0.594724
O O6 0.734502 0.943908 0.617620
O O7 0.534275 0.686477 0.857972
O O8 0.528676 0.681879 0.632102
O O9 0.456961 0.581422 0.759219
O O10 0.341930 0.245524 0.148514
O O11 0.258523 0.137975 0.245494
O O12 0.361338 0.213941 0.351052
#
# Coordination Sequence:
#
# PCOD8321699 Si02
#       6
#    18  18  18  18  18  18
#     4  12  21  34  51  83 117 150 190 227 275 339
#     4  12  19  33  52  80 118 152 180 230 278 339
#     4  11  22  37  57  81 114 146 196 234 282 339
#     4  10  19  33  56  78 106 148 193 230 274 346
#     4  10  20  33  52  75 105 148 191 228 278 327
#     4  11  23  36  57  85 113 153 193 236 283 337
#
# _framework density 17.328886000000001
#
# number of rings (size 3 to 8) (size 9 to 14) (size 15 to 20)
#    0.000    1.000    8.333    1.000    4.667    0.667 
#    3.000    0.000    0.000    0.333    0.000    0.000 
#    0.000    0.000    0.000    3.000    0.000    0.000 
#
# Total GULP energy -446350.616614 kJ/mol
# GULP energy per Si atom -12398.628239 kJ/mol
# Density = 1.728944 g / cm^3
# Si number density = 17.328886 Si / 1000 Ang^3
#
#
#
# Elastic Constant Matrix: (Units=GPa)
#
#
# Indices 1 2 3 4 5 6 
#
# 1 80.8148 34.1863 32.8790 -2.8607 -0.4851 0.0001
# 2 34.1863 80.8142 32.8780 2.8610 0.4860 0.0000
# 3 32.8790 32.8780 112.1294 0.0009 0.0036 0.0004
# 4 -2.8607 2.8610 0.0009 19.2828 0.0004 0.4859
# 5 -0.4851 0.4860 0.0036 0.0004 19.2842 -2.8608
# 6 0.0001 0.0000 0.0004 0.4859 -2.8608 23.3140
#
#
#
# Elastic Compliance Matrix: (Units=1/GPa)
#
#
# Indices 1 2 3 4 5 6 
#
# 1 0.016151 -0.005704 -0.003063 0.003243 0.000551 0.000000
# 2 -0.005704 0.016151 -0.003063 -0.003242 -0.000550 0.000000
# 3 -0.003063 -0.003063 0.010715 0.000000 -0.000002 0.000000
# 4 0.003243 -0.003242 0.000000 0.052850 -0.000001 -0.001102
# 5 0.000551 -0.000550 -0.000002 -0.000001 0.052846 0.006485
# 6 0.000000 0.000000 0.000000 -0.001102 0.006485 0.043711
#
#
# Mechanical properties :
#
#
# Convention : Reuss Voigt Hill
#
# Bulk Modulus (GPa) = 51.66405 52.62722 52.14564
# Shear Modulus (GPa) = 22.46813 23.96389 23.21601
#
# Velocity S-wave (km/s) = 3.60470 3.72275 3.66420
# Velocity P-wave (km/s) = 6.87049 6.99386 6.93245
#
# Compressibility (1/GPa) = 0.01935582
#
# Stress axis : x y z
#
# Youngs Moduli (GPa) = 61.91416 61.91426 93.32952
#
# Poissons Ratio (x) = 0.35317 0.28591
# Poissons Ratio (y) = 0.35317 0.28588
# Poissons Ratio (z) = 0.18967 0.18965
#
# Static dielectric constant tensor:
#      x y z
#    x 3.041780 0.000000 0.000000 
#    y 0.000000 3.041780 0.000000 
#    z 0.000000 0.000000 3.333810 
# 
# 
# High freq. dielectric constant tensor:
#      x y z
#    x 1.638700 0.000000 0.000000 
#    y 0.000000 1.638700 0.000000 
#    z 0.000000 0.000000 1.677330 
# 
# From -- ./inp_files/1546.got.cif
#   From: 2010.03.12/outbox.cif.g09.slc.cpg/sg148_1_cif.got.tgz:1546.got - 2010.04.03 13:38:46.
