data_PCOD8321572
_publ_section_title
;
Structure prediction by ZEFSAII (Michael W. Deem and Ramdas Pophale) SiO2 
 PCOD8321572
Probable space group: R 3
;
_chemical_formula_sum "Si O2"
_cell_formula_units_Z 45
_cell_length_a 19.537045
_cell_length_b 19.537045
_cell_length_c 6.831128
_cell_angle_alpha 90.000000
_cell_angle_beta 90.000000
_cell_angle_gamma 120.000000
_cell_volume 2258.087717
_symmetry_space_group_name_H-M "R 3"
_symmetry_group_IT_number 146
_symmetry_cell_setting 'hexagonal'
loop_
_space_group_symop_operation_xyz
x,y,z
-y,x-y,z
-x+y,-x,z
2/3+x,1/3+y,1/3+z
2/3-y,1/3+x-y,1/3+z
2/3-x+y,1/3-x,1/3+z
1/3+x,2/3+y,2/3+z
1/3-y,2/3+x-y,2/3+z
1/3-x+y,2/3-x,2/3+z
loop_
_atom_site_type_symbol
_atom_site_label
_atom_site_fract_x
_atom_site_fract_y
_atom_site_fract_z
Si Si1 0.312384 0.131047 0.169150
Si Si2 0.454191 0.897921 0.176178
Si Si3 0.406159 0.354562 0.684228
Si Si4 0.566207 0.272230 0.151876
Si Si5 0.112980 0.488398 0.773287
O O1 0.285453 0.185435 0.278089
O O2 0.366230 0.112925 0.314098
O O3 0.235303 0.050998 0.109657
O O4 0.358136 0.172159 0.971678
O O5 0.531553 0.893765 0.123233
O O6 0.392990 0.818121 0.288215
O O7 0.410533 0.906041 0.988751
O O8 0.352130 0.307852 0.501789
O O9 0.631683 0.243863 0.156045
O O10 0.509539 0.238181 0.340246
#
# Coordination Sequence:
#
# PCOD8321572 Si02
#       5
#     9   9   9   9   9
#     4  11  27  43  67  99 134 178 223 276 322 411
#     4  11  25  43  68  99 132 172 221 272 339 387
#     4  12  24  44  70  99 133 171 228 282 335 387
#     4   9  24  43  63  98 133 164 218 272 322 396
#     4  11  26  43  66  97 134 179 220 266 336 391
#
# _framework density 19.928367000000001
#
# number of rings (size 3 to 8) (size 9 to 14) (size 15 to 20)
#    0.400    0.800    4.000    0.000    8.400    3.200 
#    0.000    0.000    0.000    0.000    0.000    0.000 
#    0.000    0.000    0.000    0.000    0.000    0.000 
#
# Total GULP energy -186057.675216 kJ/mol
# GULP energy per Si atom -12403.845014 kJ/mol
# Density = 1.988301 g / cm^3
# Si number density = 19.928367 Si / 1000 Ang^3
#
#
#
# Elastic Constant Matrix: (Units=GPa)
#
#
# Indices 1 2 3 4 5 6 
#
# 1 86.3838 67.0832 42.7228 -4.5797 -6.6199 -0.0080
# 2 67.0832 86.3478 42.7450 4.5564 6.6850 0.1051
# 3 42.7228 42.7450 120.7023 -0.0094 0.1288 0.2189
# 4 -4.5797 4.5564 -0.0094 26.9445 0.0071 6.6065
# 5 -6.6199 6.6850 0.1288 0.0071 26.9687 -4.5549
# 6 -0.0080 0.1051 0.2189 6.6065 -4.5549 9.8087
#
#
#
# Elastic Compliance Matrix: (Units=1/GPa)
#
#
# Indices 1 2 3 4 5 6 
#
# 1 0.038647 -0.030539 -0.002883 0.011582 0.017168 0.000595
# 2 -0.030539 0.038665 -0.002865 -0.011595 -0.017153 -0.000531
# 3 -0.002883 -0.002865 0.010321 0.000070 -0.000096 -0.000294
# 4 0.011582 -0.011595 0.000070 0.049102 0.000152 -0.032869
# 5 0.017168 -0.017153 -0.000096 0.000152 0.049441 0.023056
# 6 0.000595 -0.000531 -0.000294 -0.032869 0.023056 0.134809
#
#
# Mechanical properties :
#
#
# Convention : Reuss Voigt Hill
#
# Bulk Modulus (GPa) = 66.40305 66.50396 66.45351
# Shear Modulus (GPa) = 12.54461 22.13656 17.34058
#
# Velocity S-wave (km/s) = 2.51168 3.33649 2.95302
# Velocity P-wave (km/s) = 6.46564 6.94887 6.71161
#
# Compressibility (1/GPa) = 0.01505955
#
# Stress axis : x y z
#
# Youngs Moduli (GPa) = 25.87519 25.86302 96.89393
#
# Poissons Ratio (x) = 0.78982 0.27933
# Poissons Ratio (y) = 0.79019 0.27762
# Poissons Ratio (z) = 0.07460 0.07410
#
# Static dielectric constant tensor:
#      x y z
#    x 3.693950 0.000070 0.000040 
#    y 0.000070 3.693580 -0.000190 
#    z 0.000040 -0.000190 3.806550 
# 
# 
# High freq. dielectric constant tensor:
#      x y z
#    x 1.782860 0.000000 -0.000010 
#    y 0.000000 1.782870 0.000000 
#    z -0.000010 0.000000 1.791820 
# 
# From -- ./inp_files/232.got.cif
#   From: 2010.06.25/outbox.cif.g09.slc.cpg/sg146_cif.got.tgz:232.got - 2010.06.28 11:17:22.
