data_PCOD8321159
_publ_section_title
;
Structure prediction by ZEFSAII (Michael W. Deem and Ramdas Pophale) SiO2 
 PCOD8321159
Probable space group: I 41/A C D
;
_chemical_formula_sum "Si O2"
_cell_formula_units_Z 176
_cell_length_a 25.992151
_cell_length_b 25.992151
_cell_length_c 11.508714
_cell_angle_alpha 90.000000
_cell_angle_beta 90.000000
_cell_angle_gamma 90.000000
_cell_volume 7775.194114
_symmetry_space_group_name_H-M "I 41/A C D"
_symmetry_group_IT_number 142
_space_group.IT_coordinate_system_code '2'
_symmetry_cell_setting 'tetragonal'
loop_
_space_group_symop_operation_xyz
x,y,z
1/4-y,3/4+x,1/4+z
-x,1/2-y,z
1/4+y,1/4-x,3/4+z
x,-y,1/2-z
1/2-x,y,-z
3/4+y,1/4+x,1/4-z
1/4-y,1/4-x,1/4-z
-x,-y,-z
3/4+y,1/4-x,3/4-z
x,1/2+y,-z
3/4-y,3/4+x,1/4-z
-x,y,1/2+z
1/2+x,-y,z
1/4-y,3/4-x,3/4+z
3/4+y,3/4+x,3/4+z
1/2+x,1/2+y,1/2+z
3/4-y,1/4+x,3/4+z
1/2-x,-y,1/2+z
3/4+y,3/4-x,1/4+z
1/2+x,1/2-y,-z
-x,1/2+y,1/2-z
1/4+y,3/4+x,3/4-z
3/4-y,3/4-x,3/4-z
1/2-x,1/2-y,1/2-z
1/4+y,3/4-x,1/4-z
1/2+x,y,1/2-z
1/4-y,1/4+x,3/4-z
1/2-x,1/2+y,z
x,1/2-y,1/2+z
3/4-y,1/4-x,1/4+z
1/4+y,1/4+x,1/4+z
loop_
_atom_site_type_symbol
_atom_site_label
_atom_site_fract_x
_atom_site_fract_y
_atom_site_fract_z
Si Si1 0.227140 0.477140 0.125000
Si Si2 0.107350 0.717583 0.818721
Si Si3 0.073108 0.103971 0.493543
Si Si4 0.390702 0.994712 0.117361
Si Si5 0.073637 0.902274 0.649879
Si Si6 0.968529 0.938364 0.742565
O O1 0.246660 0.500000 0.250000
O O2 0.236001 0.418445 0.149668
O O3 0.053844 0.696156 0.875000
O O4 0.109047 0.779490 0.800232
O O5 0.108585 0.693705 0.689862
O O6 0.157794 0.700005 0.892150
O O7 0.076058 0.050766 0.563335
O O8 0.127123 0.135494 0.491159
O O9 0.062759 0.085805 0.363149
O O10 0.406847 0.000000 0.250000
O O11 0.403778 0.051611 0.068932
O O12 0.027999 0.924937 0.726795
O O13 0.959151 0.000000 0.750000
#
# Coordination Sequence:
#
# PCOD8321159 Si02
#       6
#    16  32  32  32  32  32
#     4  10  22  42  62  94 141 180 226 278 347 422
#     4  11  23  43  65  93 132 170 215 283 338 401
#     4  11  23  41  68  97 130 177 222 272 349 403
#     4  11  22  39  66  99 130 171 225 280 328 403
#     4  11  23  42  66  96 130 170 223 276 332 407
#     4  11  23  41  68  97 129 172 222 275 334 405
#
# _framework density 22.636089999999999
#
# number of rings (size 3 to 8) (size 9 to 14) (size 15 to 20)
#    0.000    1.091    1.818    6.000    0.000    5.091 
#    1.636    3.636    0.000    0.000    0.000    0.000 
#    0.000    0.000    0.000    0.000    0.000    0.000 
#
# Total GULP energy -1090308.916980 kJ/mol
# GULP energy per Si atom -12389.874057 kJ/mol
# Density = 2.258457 g / cm^3
# Si number density = 22.636090 Si / 1000 Ang^3
#
#
#
# Elastic Constant Matrix: (Units=GPa)
#
#
# Indices 1 2 3 4 5 6 
#
# 1 103.4565 57.3002 15.3696 0.0000 0.0000 0.0000
# 2 57.3002 103.4547 15.3700 0.0000 0.0000 0.0000
# 3 15.3696 15.3700 80.7078 0.0000 0.0000 0.0000
# 4 0.0000 0.0000 0.0000 27.5634 0.0000 0.0000
# 5 0.0000 0.0000 0.0000 0.0000 27.5634 0.0000
# 6 0.0000 0.0000 0.0000 0.0000 0.0000 37.4251
#
#
#
# Elastic Compliance Matrix: (Units=1/GPa)
#
#
# Indices 1 2 3 4 5 6 
#
# 1 0.014061 -0.007605 -0.001229 0.000000 0.000000 0.000000
# 2 -0.007605 0.014061 -0.001229 0.000000 0.000000 0.000000
# 3 -0.001229 -0.001229 0.012859 0.000000 0.000000 0.000000
# 4 0.000000 0.000000 0.000000 0.036280 0.000000 0.000000
# 5 0.000000 0.000000 0.000000 0.000000 0.036280 0.000000
# 6 0.000000 0.000000 0.000000 0.000000 0.000000 0.026720
#
#
# Mechanical properties :
#
#
# Convention : Reuss Voigt Hill
#
# Bulk Modulus (GPa) = 47.95611 51.52205 49.73908
# Shear Modulus (GPa) = 29.87948 31.81567 30.84757
#
# Velocity S-wave (km/s) = 3.63711 3.75310 3.69556
# Velocity P-wave (km/s) = 6.23456 6.44915 6.34276
#
# Compressibility (1/GPa) = 0.02085240
#
# Stress axis : x y z
#
# Youngs Moduli (GPa) = 71.12030 71.11890 77.76882
#
# Poissons Ratio (x) = 0.54087 0.09560
# Poissons Ratio (y) = 0.54088 0.09562
# Poissons Ratio (z) = 0.08743 0.08744
#
# Static dielectric constant tensor:
#      x y z
#    x 4.305660 0.000000 0.000000 
#    y 0.000000 4.305660 0.000000 
#    z 0.000000 0.000000 4.227160 
# 
# 
# High freq. dielectric constant tensor:
#      x y z
#    x 1.890550 0.000000 0.000000 
#    y 0.000000 1.890550 0.000000 
#    z 0.000000 0.000000 1.907520 
# 
# From -- ./inp_files/3977.got.cif
#   From: 2010.03.12/outbox.cif.g09.slc.cpg/sg142_2_cif.got.tgz:3977.got - 2010.04.03 13:27:16.
