data_PCOD8321862
_publ_section_title
;
Structure prediction by ZEFSAII (Michael W. Deem and Ramdas Pophale) SiO2 
 PCOD8321862
Probable space group: P 3 1 2
;
_chemical_formula_sum "Si O2"
_cell_formula_units_Z 44
_cell_length_a 8.625086
_cell_length_b 8.625086
_cell_length_c 32.314555
_cell_angle_alpha 90.000000
_cell_angle_beta 90.000000
_cell_angle_gamma 120.000000
_cell_volume 2081.879935
_symmetry_space_group_name_H-M "P 3 1 2"
_symmetry_group_IT_number 149
_symmetry_cell_setting 'hexagonal'
loop_
_space_group_symop_operation_xyz
x,y,z
-y,x-y,z
-x+y,-x,z
-y,-x,-z
-x+y,y,-z
x,x-y,-z
loop_
_atom_site_type_symbol
_atom_site_label
_atom_site_fract_x
_atom_site_fract_y
_atom_site_fract_z
Si Si1 0.344599 0.334841 0.352783
Si Si2 0.668693 0.675920 0.385633
Si Si3 0.346692 0.012132 0.742753
Si Si4 0.667125 0.977468 0.774812
Si Si5 0.331597 0.333696 0.516657
Si Si6 0.039281 0.333788 0.132330
Si Si7 0.370009 0.036428 0.896626
Si Si8 0.666668 0.333334 0.951259
O O1 0.528069 0.472663 0.374638
O O2 0.194194 0.388215 0.362612
O O3 0.395853 0.338018 0.304900
O O4 0.272467 0.137828 0.370634
O O5 0.669440 0.689662 0.434506
O O6 0.161108 0.827115 0.742088
O O7 0.493458 0.993045 0.768245
O O8 0.325954 0.159982 0.767229
O O9 0.668446 0.901543 0.820656
O O10 0.529836 0.470165 0.500000
O O11 0.198591 0.397182 0.500000
O O12 0.275157 0.137579 0.500000
O O13 0.177322 0.326129 0.098435
O O14 0.027767 0.512134 0.127855
O O15 0.841735 0.165354 0.128889
O O16 0.485961 0.150476 0.936802
O O17 0.666668 0.333334 0.000000
#
# Coordination Sequence:
#
# PCOD8321862 Si02
#       8
#     6   6   6   6   6   6   6   2
#     4  12  25  44  64  88 123 160 210 244 293 363
#     4  12  25  44  67  90 117 160 192 241 301 364
#     4  12  25  41  59  89 120 166 209 263 301 354
#     4  12  24  39  61  87 125 163 211 260 317 355
#     4  12  25  44  67  96 124 147 186 241 301 369
#     4  11  20  38  58  91 123 167 210 262 315 378
#     4  10  22  37  63  91 129 167 213 262 319 378
#     4   9  21  45  69  96 129 168 213 267 321 381
#
# _framework density 21.134741999999999
#
# number of rings (size 3 to 8) (size 9 to 14) (size 15 to 20)
#    0.000    0.545    0.000   10.227    0.000    0.000 
#    0.000    2.727    0.000    0.000    0.000    0.000 
#    0.000    0.000    0.000    0.000    0.000    0.000 
#
# Total GULP energy -545632.936995 kJ/mol
# GULP energy per Si atom -12400.748568 kJ/mol
# Density = 2.108664 g / cm^3
# Si number density = 21.134742 Si / 1000 Ang^3
#
#
#
# Elastic Constant Matrix: (Units=GPa)
#
#
# Indices 1 2 3 4 5 6 
#
# 1 122.9417 28.6712 31.5200 0.0002 0.0424 0.0000
# 2 28.6712 122.9416 31.5202 -0.0002 -0.0424 -0.0001
# 3 31.5200 31.5202 140.3396 -0.0002 -0.0001 0.0001
# 4 0.0002 -0.0002 -0.0002 21.2996 -0.0001 -0.0424
# 5 0.0424 -0.0424 -0.0001 -0.0001 21.2997 0.0002
# 6 0.0000 -0.0001 0.0001 -0.0424 0.0002 47.1352
#
#
#
# Elastic Compliance Matrix: (Units=1/GPa)
#
#
# Indices 1 2 3 4 5 6 
#
# 1 0.008941 -0.001666 -0.001634 0.000000 -0.000021 0.000000
# 2 -0.001666 0.008941 -0.001634 0.000000 0.000021 0.000000
# 3 -0.001634 -0.001634 0.007860 0.000000 0.000000 0.000000
# 4 0.000000 0.000000 0.000000 0.046949 0.000000 0.000042
# 5 -0.000021 0.000021 0.000000 0.000000 0.046949 0.000000
# 6 0.000000 0.000000 0.000000 0.000042 0.000000 0.021216
#
#
# Mechanical properties :
#
#
# Convention : Reuss Voigt Hill
#
# Bulk Modulus (GPa) = 62.99648 63.29397 63.14523
# Shear Modulus (GPa) = 32.04793 37.58101 34.81447
#
# Velocity S-wave (km/s) = 3.89827 4.22140 4.06305
# Velocity P-wave (km/s) = 7.08053 7.33302 7.20788
#
# Compressibility (1/GPa) = 0.01587390
#
# Stress axis : x y z
#
# Youngs Moduli (GPa) = 111.83847 111.83829 127.23358
#
# Poissons Ratio (x) = 0.18636 0.20790
# Poissons Ratio (y) = 0.18636 0.20790
# Poissons Ratio (z) = 0.18274 0.18274
#
# Static dielectric constant tensor:
#      x y z
#    x 3.794250 0.000000 0.000000 
#    y 0.000000 3.794260 0.000000 
#    z 0.000000 0.000000 3.575470 
# 
# 
# High freq. dielectric constant tensor:
#      x y z
#    x 1.845490 0.000000 0.000000 
#    y 0.000000 1.845490 0.000000 
#    z 0.000000 0.000000 1.811240 
# 
# From -- ./inp_files/1177.got.cif
#   From: 2010.03.12/outbox.cif.g09.slc.cpg/sg149_cif.got.tgz:1177.got - 2010.04.03 13:40:41.
