data_PCOD8321052
_publ_section_title
;
Structure prediction by ZEFSAII (Michael W. Deem and Ramdas Pophale) SiO2 
 PCOD8321052
Probable space group: I 41/A C D
;
_chemical_formula_sum "Si O2"
_cell_formula_units_Z 176
_cell_length_a 24.385266
_cell_length_b 24.385266
_cell_length_c 13.565806
_cell_angle_alpha 90.000000
_cell_angle_beta 90.000000
_cell_angle_gamma 90.000000
_cell_volume 8066.787130
_symmetry_space_group_name_H-M "I 41/A C D"
_symmetry_group_IT_number 142
_space_group.IT_coordinate_system_code '2'
_symmetry_cell_setting 'tetragonal'
loop_
_space_group_symop_operation_xyz
x,y,z
1/4-y,3/4+x,1/4+z
-x,1/2-y,z
1/4+y,1/4-x,3/4+z
x,-y,1/2-z
1/2-x,y,-z
3/4+y,1/4+x,1/4-z
1/4-y,1/4-x,1/4-z
-x,-y,-z
3/4+y,1/4-x,3/4-z
x,1/2+y,-z
3/4-y,3/4+x,1/4-z
-x,y,1/2+z
1/2+x,-y,z
1/4-y,3/4-x,3/4+z
3/4+y,3/4+x,3/4+z
1/2+x,1/2+y,1/2+z
3/4-y,1/4+x,3/4+z
1/2-x,-y,1/2+z
3/4+y,3/4-x,1/4+z
1/2+x,1/2-y,-z
-x,1/2+y,1/2-z
1/4+y,3/4+x,3/4-z
3/4-y,3/4-x,3/4-z
1/2-x,1/2-y,1/2-z
1/4+y,3/4-x,1/4-z
1/2+x,y,1/2-z
1/4-y,1/4+x,3/4-z
1/2-x,1/2+y,z
x,1/2-y,1/2+z
3/4-y,1/4-x,1/4+z
1/4+y,1/4+x,1/4+z
loop_
_atom_site_type_symbol
_atom_site_label
_atom_site_fract_x
_atom_site_fract_y
_atom_site_fract_z
Si Si1 0.622006 0.756631 0.257574
Si Si2 0.668767 0.563466 0.420314
Si Si3 0.012948 0.577051 0.311910
Si Si4 0.427414 0.866534 0.815573
Si Si5 0.713349 0.536652 0.625000
Si Si6 0.944553 0.535802 0.624086
O O1 0.627601 0.728476 0.148691
O O2 0.602020 0.713126 0.338025
O O3 0.581743 0.809216 0.257733
O O4 0.682689 0.779078 0.282293
O O5 0.644644 0.622663 0.392871
O O6 0.687653 0.567077 0.532907
O O7 0.721760 0.546663 0.357026
O O8 0.618951 0.520338 0.400307
O O9 0.016609 0.516346 0.358403
O O10 0.056541 0.576492 0.221195
O O11 0.954820 0.590332 0.259892
#
# Coordination Sequence:
#
# PCOD8321052 Si02
#       6
#    32  32  32  32  16  32
#     4  10  21  39  62  92 128 171 212 274 330 387
#     4  10  23  41  61  94 134 171 215 268 321 406
#     4  10  20  37  64  96 121 172 212 270 333 376
#     4  10  23  40  63  95 129 166 225 271 330 396
#     4  10  24  40  66  96 128 185 211 250 348 390
#     4   9  21  37  60  97 129 163 222 264 326 392
#
# _framework density 21.817855000000002
#
# number of rings (size 3 to 8) (size 9 to 14) (size 15 to 20)
#    0.000    2.182    0.000    1.091    7.636    9.091 
#    0.000    8.182    0.000    6.545    0.000    0.000 
#    0.000    0.000    0.000    0.000    0.000    0.000 
#
# Total GULP energy -1090192.261132 kJ/mol
# GULP energy per Si atom -12388.548422 kJ/mol
# Density = 2.176820 g / cm^3
# Si number density = 21.817855 Si / 1000 Ang^3
#
#
#
# Elastic Constant Matrix: (Units=GPa)
#
#
# Indices 1 2 3 4 5 6 
#
# 1 105.6702 40.8647 26.0460 0.0000 0.0000 0.0000
# 2 40.8647 105.6683 26.0458 0.0000 0.0000 0.0000
# 3 26.0460 26.0458 89.9515 0.0000 0.0000 0.0000
# 4 0.0000 0.0000 0.0000 29.3472 0.0000 0.0000
# 5 0.0000 0.0000 0.0000 0.0000 29.3474 0.0000
# 6 0.0000 0.0000 0.0000 0.0000 0.0000 36.4299
#
#
#
# Elastic Compliance Matrix: (Units=1/GPa)
#
#
# Indices 1 2 3 4 5 6 
#
# 1 0.011519 -0.003912 -0.002203 0.000000 0.000000 0.000000
# 2 -0.003912 0.011519 -0.002203 0.000000 0.000000 0.000000
# 3 -0.002203 -0.002203 0.012393 0.000000 0.000000 0.000000
# 4 0.000000 0.000000 0.000000 0.034075 0.000000 0.000000
# 5 0.000000 0.000000 0.000000 0.000000 0.034075 0.000000
# 6 0.000000 0.000000 0.000000 0.000000 0.000000 0.027450
#
#
# Mechanical properties :
#
#
# Convention : Reuss Voigt Hill
#
# Bulk Modulus (GPa) = 53.20131 54.13366 53.66749
# Shear Modulus (GPa) = 32.48216 32.91381 32.69798
#
# Velocity S-wave (km/s) = 3.86267 3.88825 3.87548
# Velocity P-wave (km/s) = 6.65814 6.70995 6.68410
#
# Compressibility (1/GPa) = 0.01879653
#
# Stress axis : x y z
#
# Youngs Moduli (GPa) = 86.81219 86.81062 80.69237
#
# Poissons Ratio (x) = 0.33959 0.17775
# Poissons Ratio (y) = 0.33959 0.17775
# Poissons Ratio (z) = 0.19123 0.19123
#
# Static dielectric constant tensor:
#      x y z
#    x 3.907170 0.000000 0.000000 
#    y 0.000000 3.907200 0.000000 
#    z 0.000000 0.000000 4.131300 
# 
# 
# High freq. dielectric constant tensor:
#      x y z
#    x 1.843760 0.000000 0.000000 
#    y 0.000000 1.843760 0.000000 
#    z 0.000000 0.000000 1.865170 
# 
# From -- ./inp_files/5561.got.cif
#   From: 2010.03.12/outbox.cif.g09.slc.cpg/sg142_3_cif.got.tgz:5561.got - 2010.04.03 13:27:16.
