data_PCOD8321410
_publ_section_title
;
Structure prediction by ZEFSAII (Michael W. Deem and Ramdas Pophale) SiO2 
 PCOD8321410
Probable space group: P 31
;
_chemical_formula_sum "Si O2"
_cell_formula_units_Z 24
_cell_length_a 8.846400
_cell_length_b 8.846400
_cell_length_c 18.909927
_cell_angle_alpha 90.000000
_cell_angle_beta 90.000000
_cell_angle_gamma 120.000000
_cell_volume 1281.603336
_symmetry_space_group_name_H-M "P 31"
_symmetry_group_IT_number 144
_symmetry_cell_setting 'hexagonal'
loop_
_space_group_symop_operation_xyz
x,y,z
-y,x-y,1/3+z
-x+y,-x,2/3+z
loop_
_atom_site_type_symbol
_atom_site_label
_atom_site_fract_x
_atom_site_fract_y
_atom_site_fract_z
Si Si1 0.972307 0.496450 0.214230
Si Si2 0.640336 0.810683 0.276296
Si Si3 0.475837 0.503575 0.384353
Si Si4 0.310978 0.117453 0.496112
Si Si5 0.829694 0.189305 0.322264
Si Si6 0.312529 0.848703 0.245290
Si Si7 0.848633 0.312535 0.686615
Si Si8 0.117431 0.310886 0.435798
O O1 0.000036 0.458157 0.132626
O O2 0.133955 0.663906 0.251664
O O3 0.816603 0.542323 0.211021
O O4 0.926081 0.326723 0.259479
O O5 0.599281 0.673331 0.339110
O O6 0.722180 0.777698 0.207610
O O7 0.465591 0.807047 0.255305
O O8 0.789164 0.999999 0.299261
O O9 0.470124 0.336166 0.346917
O O10 0.274234 0.457618 0.387558
O O11 0.400917 0.074873 0.431387
O O12 0.173963 0.173921 0.465955
O O13 0.658608 0.193006 0.343240
O O14 0.944465 0.222152 0.390961
O O15 0.325992 0.925203 0.167188
O O16 0.331077 0.000035 0.299290
#
# Coordination Sequence:
#
# PCOD8321410 Si02
#       8
#     3   3   3   3   3   3   3   3
#     4   9  20  39  57  78 111 146 180 225 274 322
#     4  11  22  35  56  84 110 141 184 226 270 327
#     4   9  20  39  57  78 111 146 180 225 274 322
#     4   9  21  39  55  77 110 143 178 223 272 320
#     4  11  22  35  56  84 110 141 184 226 270 327
#     4   9  20  37  57  81 109 144 183 220 272 331
#     4   9  20  37  57  81 109 144 183 220 272 331
#     4   9  21  39  55  77 110 143 178 223 272 320
#
# _framework density 18.726541999999998
#
# number of rings (size 3 to 8) (size 9 to 14) (size 15 to 20)
#    0.000    3.000    0.000    1.500    0.000   15.000 
#    0.000    0.000    0.000    0.000    0.000    0.000 
#    0.000    0.000    0.000    0.000    0.000    0.000 
#
# Total GULP energy -297381.377104 kJ/mol
# GULP energy per Si atom -12390.890713 kJ/mol
# Density = 1.868392 g / cm^3
# Si number density = 18.726542 Si / 1000 Ang^3
#
#
#
# Elastic Constant Matrix: (Units=GPa)
#
#
# Indices 1 2 3 4 5 6 
#
# 1 92.7685 44.9840 67.1509 10.1029 -0.0004 0.0000
# 2 44.9840 92.7685 67.1509 -10.1029 0.0004 0.0000
# 3 67.1509 67.1509 113.4862 0.0000 0.0000 0.0000
# 4 10.1029 -10.1029 0.0000 34.3757 0.0000 0.0004
# 5 -0.0004 0.0004 0.0000 0.0000 34.3757 10.1029
# 6 0.0000 0.0000 0.0000 0.0004 10.1029 23.8923
#
#
#
# Elastic Compliance Matrix: (Units=1/GPa)
#
#
# Indices 1 2 3 4 5 6 
#
# 1 0.020527 -0.003370 -0.010152 -0.007023 0.000000 0.000000
# 2 -0.003370 0.020527 -0.010152 0.007023 0.000000 0.000000
# 3 -0.010152 -0.010152 0.020826 0.000000 0.000000 0.000000
# 4 -0.007023 0.007023 0.000000 0.033219 0.000000 -0.000001
# 5 0.000000 0.000000 0.000000 0.000000 0.033219 -0.014046
# 6 0.000000 0.000000 0.000000 -0.000001 -0.014046 0.047794
#
#
# Mechanical properties :
#
#
# Convention : Reuss Voigt Hill
#
# Bulk Modulus (GPa) = 68.81430 73.06609 70.94019
# Shear Modulus (GPa) = 21.90070 26.51123 24.20596
#
# Velocity S-wave (km/s) = 3.42351 3.76667 3.59918
# Velocity P-wave (km/s) = 7.24251 7.61703 7.43213
#
# Compressibility (1/GPa) = 0.01453186
#
# Stress axis : x y z
#
# Youngs Moduli (GPa) = 48.71608 48.71608 48.01737
#
# Poissons Ratio (x) = 0.16417 0.48748
# Poissons Ratio (y) = 0.16417 0.48748
# Poissons Ratio (z) = 0.49457 0.49457
#
# Static dielectric constant tensor:
#      x y z
#    x 3.432940 0.000000 0.000000 
#    y 0.000000 3.432940 0.000000 
#    z 0.000000 0.000000 3.876230 
# 
# 
# High freq. dielectric constant tensor:
#      x y z
#    x 1.725820 0.000000 0.000000 
#    y 0.000000 1.725820 0.000000 
#    z 0.000000 0.000000 1.733960 
# 
# From -- ./inp_files/850.got.cif
#   From: 2010.03.12/outbox.cif.g09.slc.cpg/sg144_cif.got.tgz:850.got - 2010.04.03 13:34:42.
