data_PCOD8321594
_publ_section_title
;
Structure prediction by ZEFSAII (Michael W. Deem and Ramdas Pophale) SiO2 
 PCOD8321594
Probable space group: P -3
;
_chemical_formula_sum "Si O2"
_cell_formula_units_Z 34
_cell_length_a 12.682610
_cell_length_b 12.682610
_cell_length_c 12.841219
_cell_angle_alpha 90.000000
_cell_angle_beta 90.000000
_cell_angle_gamma 120.000000
_cell_volume 1788.768589
_symmetry_space_group_name_H-M "P -3"
_symmetry_group_IT_number 147
_symmetry_cell_setting 'hexagonal'
loop_
_space_group_symop_operation_xyz
x,y,z
-y,x-y,z
-x+y,-x,z
-x,-y,-z
y,-x+y,-z
x-y,x,-z
loop_
_atom_site_type_symbol
_atom_site_label
_atom_site_fract_x
_atom_site_fract_y
_atom_site_fract_z
Si Si1 0.086969 0.633569 0.363342
Si Si2 0.666668 0.333334 0.660015
Si Si3 0.633711 0.554606 0.412000
Si Si4 0.571417 0.648796 0.823149
Si Si5 0.311600 0.414136 0.805211
Si Si6 0.999984 0.753998 0.992244
Si Si7 0.333335 0.666668 0.584835
O O1 0.215702 0.676488 0.304302
O O2 0.097162 0.701795 0.475424
O O3 0.041608 0.498269 0.408453
O O4 0.995284 0.642842 0.282488
O O5 0.666668 0.333334 0.537605
O O6 0.706003 0.639348 0.313203
O O7 0.621572 0.425070 0.376994
O O8 0.447374 0.521772 0.830316
O O9 0.539819 0.755934 0.823108
O O10 0.657510 0.667391 0.921276
O O11 0.289129 0.304803 0.879473
O O12 0.883291 0.768633 0.981859
#
# Coordination Sequence:
#
# PCOD8321594 Si02
#       7
#     6   2   6   6   6   6   2
#     4   9  18  29  45  71 102 138 174 205 247 299
#     4   9  18  30  42  64 104 145 177 213 250 293
#     4   9  16  28  47  72 101 133 169 204 249 304
#     4  10  20  34  54  79 104 132 166 206 255 307
#     4  10  19  33  53  77 105 133 165 208 255 302
#     4  10  22  39  57  75  97 130 171 212 253 300
#     4   9  15  27  48  70  98 136 171 213 259 305
#
# _framework density 19.007490000000001
#
# number of rings (size 3 to 8) (size 9 to 14) (size 15 to 20)
#    0.000    2.471    0.000    3.176    0.000    4.235 
#    0.000    0.000    0.000    0.706    0.000    0.000 
#    0.000    7.059    0.000    0.000    0.000    0.000 
#
# Total GULP energy -421251.309545 kJ/mol
# GULP energy per Si atom -12389.744398 kJ/mol
# Density = 1.896423 g / cm^3
# Si number density = 19.007490 Si / 1000 Ang^3
#
#
#
# Elastic Constant Matrix: (Units=GPa)
#
#
# Indices 1 2 3 4 5 6 
#
# 1 70.7219 41.2343 50.3358 -2.9746 2.3609 -0.0002
# 2 41.2343 70.7223 50.3356 2.9747 -2.3607 -0.0002
# 3 50.3358 50.3356 128.5480 0.0001 0.0000 -0.0001
# 4 -2.9746 2.9747 0.0001 23.2630 -0.0001 -2.3608
# 5 2.3609 -2.3607 0.0000 -0.0001 23.2628 -2.9747
# 6 -0.0002 -0.0002 -0.0001 -2.3608 -2.9747 14.7437
#
#
#
# Elastic Compliance Matrix: (Units=1/GPa)
#
#
# Indices 1 2 3 4 5 6 
#
# 1 0.024594 -0.010807 -0.005398 0.004527 -0.003593 0.000000
# 2 -0.010807 0.024593 -0.005398 -0.004527 0.003593 0.000000
# 3 -0.005398 -0.005398 0.012007 0.000000 0.000000 0.000000
# 4 0.004527 -0.004527 0.000000 0.044874 0.000000 0.007185
# 5 -0.003593 0.003593 0.000000 0.000000 0.044874 0.009054
# 6 0.000000 0.000000 0.000000 0.007185 0.009054 0.070803
#
#
# Mechanical properties :
#
#
# Convention : Reuss Voigt Hill
#
# Bulk Modulus (GPa) = 55.59854 61.53373 58.56613
# Shear Modulus (GPa) = 18.45375 20.79299 19.62337
#
# Velocity S-wave (km/s) = 3.11926 3.31106 3.21659
# Velocity P-wave (km/s) = 6.50287 6.86012 6.68388
#
# Compressibility (1/GPa) = 0.01798608
#
# Stress axis : x y z
#
# Youngs Moduli (GPa) = 40.66077 40.66134 83.28609
#
# Poissons Ratio (x) = 0.43944 0.44961
# Poissons Ratio (y) = 0.43944 0.44959
# Poissons Ratio (z) = 0.21950 0.21950
#
# Static dielectric constant tensor:
#      x y z
#    x 3.481560 0.000010 0.000000 
#    y 0.000010 3.481540 0.000000 
#    z 0.000000 0.000000 3.850800 
# 
# 
# High freq. dielectric constant tensor:
#      x y z
#    x 1.715660 0.000000 0.000000 
#    y 0.000000 1.715660 0.000000 
#    z 0.000000 0.000000 1.753590 
# 
# From -- ./inp_files/955.got.cif
#   From: 2010.03.12/outbox.cif.g09.slc.cpg/sg147_cif.got.tgz:955.got - 2010.04.03 13:37:56.
