data_PCOD8321853
_publ_section_title
;
Structure prediction by ZEFSAII (Michael W. Deem and Ramdas Pophale) SiO2 
 PCOD8321853
Probable space group: P 3 1 2
;
_chemical_formula_sum "Si O2"
_cell_formula_units_Z 28
_cell_length_a 14.275852
_cell_length_b 14.275852
_cell_length_c 8.994541
_cell_angle_alpha 90.000000
_cell_angle_beta 90.000000
_cell_angle_gamma 120.000000
_cell_volume 1587.499917
_symmetry_space_group_name_H-M "P 3 1 2"
_symmetry_group_IT_number 149
_symmetry_cell_setting 'hexagonal'
loop_
_space_group_symop_operation_xyz
x,y,z
-y,x-y,z
-x+y,-x,z
-y,-x,-z
-x+y,y,-z
x,x-y,-z
loop_
_atom_site_type_symbol
_atom_site_label
_atom_site_fract_x
_atom_site_fract_y
_atom_site_fract_z
Si Si1 0.451649 0.896110 0.675961
Si Si2 0.274189 0.931720 0.177940
Si Si3 0.650952 0.708776 0.834556
Si Si4 0.000000 0.000000 0.672406
Si Si5 0.888960 0.786626 0.832171
Si Si6 0.333333 0.666667 0.823755
O O1 0.439710 0.879420 0.500000
O O2 0.577737 0.951538 0.717143
O O3 0.393098 0.960337 0.735542
O O4 0.393482 0.785862 0.764220
O O5 0.162166 0.821945 0.219268
O O6 0.264424 0.037281 0.211913
O O7 0.306531 0.925867 0.008162
O O8 0.761260 0.704398 0.814872
O O9 0.000000 0.000000 0.500000
O O10 0.908673 0.884259 0.727420
O O11 0.915670 0.831339 0.000000
O O12 0.333334 0.666667 0.000000
#
# Coordination Sequence:
#
# PCOD8321853 Si02
#       6
#     6   6   6   2   6   2
#     4  12  24  36  53  80 117 150 182 223 276 335
#     4  10  20  35  59  83 109 145 186 229 273 322
#     4  10  20  35  59  83 109 145 186 229 273 322
#     4  12  22  29  49  84 121 152 178 219 268 332
#     4  10  20  38  59  80 109 148 190 229 268 321
#     4  12  22  35  55  78 109 146 190 231 268 320
#
# _framework density 17.637796999999999
#
# number of rings (size 3 to 8) (size 9 to 14) (size 15 to 20)
#    0.000    1.286    4.286    3.214    0.000    1.714 
#    0.000    0.000    0.000    0.857    0.000    3.000 
#    0.000    0.000    0.000    0.000    0.000    0.000 
#
# Total GULP energy -347137.730414 kJ/mol
# GULP energy per Si atom -12397.776086 kJ/mol
# Density = 1.759765 g / cm^3
# Si number density = 17.637797 Si / 1000 Ang^3
#
#
#
# Elastic Constant Matrix: (Units=GPa)
#
#
# Indices 1 2 3 4 5 6 
#
# 1 103.2905 41.7208 44.6719 0.0005 3.0594 -0.0001
# 2 41.7208 103.2907 44.6719 -0.0001 -3.0593 -0.0001
# 3 44.6719 44.6719 109.8566 0.0002 -0.0002 -0.0003
# 4 0.0005 -0.0001 0.0002 2.8100 -0.0006 -3.0598
# 5 3.0594 -3.0593 -0.0002 -0.0006 2.8110 -0.0003
# 6 -0.0001 -0.0001 -0.0003 -3.0598 -0.0003 30.7848
#
#
#
# Elastic Compliance Matrix: (Units=1/GPa)
#
#
# Indices 1 2 3 4 5 6 
#
# 1 0.013706 -0.004505 -0.003742 -0.000008 -0.019821 -0.000001
# 2 -0.004505 0.013706 -0.003742 0.000007 0.019820 0.000001
# 3 -0.003742 -0.003742 0.012146 0.000000 0.000001 0.000000
# 4 -0.000008 0.000007 0.000000 0.399055 0.000104 0.039663
# 5 -0.019821 0.019820 0.000001 0.000104 0.398894 0.000014
# 6 -0.000001 0.000001 0.000000 0.039663 0.000014 0.036426
#
#
# Mechanical properties :
#
#
# Convention : Reuss Voigt Hill
#
# Bulk Modulus (GPa) = 64.17703 64.28523 64.23113
# Shear Modulus (GPa) = 5.53646 19.63938 12.58792
#
# Velocity S-wave (km/s) = 1.77364 3.34051 2.67440
# Velocity P-wave (km/s) = 6.37648 7.16974 6.78471
#
# Compressibility (1/GPa) = 0.01558190
#
# Stress axis : x y z
#
# Youngs Moduli (GPa) = 72.95837 72.95904 82.33354
#
# Poissons Ratio (x) = 0.32869 0.30806
# Poissons Ratio (y) = 0.32869 0.30805
# Poissons Ratio (z) = 0.27298 0.27298
#
# Static dielectric constant tensor:
#      x y z
#    x 3.232610 0.000010 0.000000 
#    y 0.000010 3.232630 0.000000 
#    z 0.000000 0.000000 3.228450 
# 
# 
# High freq. dielectric constant tensor:
#      x y z
#    x 1.672200 0.000000 0.000000 
#    y 0.000000 1.672200 0.000000 
#    z 0.000000 0.000000 1.679060 
# 
# From -- ./inp_files/573.got.cif
#   From: 2010.03.12/outbox.cif.g09.slc.cpg/sg149_cif.got.tgz:573.got - 2010.04.03 13:40:41.
