data_PCOD8321121
_publ_section_title
;
Structure prediction by ZEFSAII (Michael W. Deem and Ramdas Pophale) SiO2 
 PCOD8321121
Probable space group: I 41/A C D
;
_chemical_formula_sum "Si O2"
_cell_formula_units_Z 160
_cell_length_a 20.875327
_cell_length_b 20.875327
_cell_length_c 17.531418
_cell_angle_alpha 90.000000
_cell_angle_beta 90.000000
_cell_angle_gamma 90.000000
_cell_volume 7639.828667
_symmetry_space_group_name_H-M "I 41/A C D"
_symmetry_group_IT_number 142
_space_group.IT_coordinate_system_code '2'
_symmetry_cell_setting 'tetragonal'
loop_
_space_group_symop_operation_xyz
x,y,z
1/4-y,3/4+x,1/4+z
-x,1/2-y,z
1/4+y,1/4-x,3/4+z
x,-y,1/2-z
1/2-x,y,-z
3/4+y,1/4+x,1/4-z
1/4-y,1/4-x,1/4-z
-x,-y,-z
3/4+y,1/4-x,3/4-z
x,1/2+y,-z
3/4-y,3/4+x,1/4-z
-x,y,1/2+z
1/2+x,-y,z
1/4-y,3/4-x,3/4+z
3/4+y,3/4+x,3/4+z
1/2+x,1/2+y,1/2+z
3/4-y,1/4+x,3/4+z
1/2-x,-y,1/2+z
3/4+y,3/4-x,1/4+z
1/2+x,1/2-y,-z
-x,1/2+y,1/2-z
1/4+y,3/4+x,3/4-z
3/4-y,3/4-x,3/4-z
1/2-x,1/2-y,1/2-z
1/4+y,3/4-x,1/4-z
1/2+x,y,1/2-z
1/4-y,1/4+x,3/4-z
1/2-x,1/2+y,z
x,1/2-y,1/2+z
3/4-y,1/4-x,1/4+z
1/4+y,1/4+x,1/4+z
loop_
_atom_site_type_symbol
_atom_site_label
_atom_site_fract_x
_atom_site_fract_y
_atom_site_fract_z
Si Si1 0.155802 0.367943 0.007253
Si Si2 0.195603 0.696644 0.342938
Si Si3 0.946386 0.840954 0.118602
Si Si4 0.316896 0.322802 0.261474
Si Si5 0.245609 0.050700 0.198546
O O1 0.198814 0.326684 0.068197
O O2 0.092061 0.390425 0.049798
O O3 0.138447 0.322678 0.936776
O O4 0.190744 0.430968 0.975040
O O5 0.264461 0.689293 0.304113
O O6 0.177291 0.770891 0.329513
O O7 0.913158 0.772956 0.131879
O O8 0.922735 0.867015 0.036121
O O9 0.297374 0.386206 0.306992
O O10 0.208408 0.000000 0.250000
O O11 0.243266 0.006735 0.125000
#
# Coordination Sequence:
#
# PCOD8321121 Si02
#       5
#    32  32  32  32  32
#     4  10  21  39  66  90 126 169 224 262 324 396
#     4   9  20  39  64  95 119 169 218 266 317 388
#     4  11  23  39  61  92 125 168 216 273 323 380
#     4  10  21  41  64  89 134 167 210 272 326 383
#     4  11  25  40  62  98 133 170 214 272 332 398
#
# _framework density 20.942876999999999
#
# number of rings (size 3 to 8) (size 9 to 14) (size 15 to 20)
#    0.000    1.800    2.000    1.200    8.400    1.600 
#    0.000    0.000    0.000    0.000    0.000    0.000 
#    0.000    0.000    0.000    0.000    0.000    0.000 
#
# Total GULP energy -991046.325209 kJ/mol
# GULP energy per Si atom -12388.079065 kJ/mol
# Density = 2.089521 g / cm^3
# Si number density = 20.942877 Si / 1000 Ang^3
#
#
#
# Elastic Constant Matrix: (Units=GPa)
#
#
# Indices 1 2 3 4 5 6 
#
# 1 86.0199 47.6129 47.9203 0.0000 0.0000 0.0000
# 2 47.6129 86.0216 47.9217 0.0000 0.0000 0.0000
# 3 47.9203 47.9217 127.6434 0.0000 0.0000 0.0000
# 4 0.0000 0.0000 0.0000 29.6152 0.0000 0.0000
# 5 0.0000 0.0000 0.0000 0.0000 29.6102 0.0000
# 6 0.0000 0.0000 0.0000 0.0000 0.0000 5.0033
#
#
#
# Elastic Compliance Matrix: (Units=1/GPa)
#
#
# Indices 1 2 3 4 5 6 
#
# 1 0.018138 -0.007898 -0.003844 0.000000 0.000000 0.000000
# 2 -0.007898 0.018138 -0.003845 0.000000 0.000000 0.000000
# 3 -0.003844 -0.003845 0.010721 0.000000 0.000000 0.000000
# 4 0.000000 0.000000 0.000000 0.033766 0.000000 0.000000
# 5 0.000000 0.000000 0.000000 0.000000 0.033772 0.000000
# 6 0.000000 0.000000 0.000000 0.000000 0.000000 0.199867
#
#
# Mechanical properties :
#
#
# Convention : Reuss Voigt Hill
#
# Bulk Modulus (GPa) = 63.19627 65.17718 64.18672
# Shear Modulus (GPa) = 14.25103 23.26107 18.75605
#
# Velocity S-wave (km/s) = 2.61142 3.33632 2.99587
# Velocity P-wave (km/s) = 6.27166 6.78457 6.53315
#
# Compressibility (1/GPa) = 0.01582372
#
# Stress axis : x y z
#
# Youngs Moduli (GPa) = 55.13142 55.13193 93.27451
#
# Poissons Ratio (x) = 0.43543 0.35859
# Poissons Ratio (y) = 0.43542 0.35861
# Poissons Ratio (z) = 0.21195 0.21196
#
# Static dielectric constant tensor:
#      x y z
#    x 3.812580 0.000000 0.000000 
#    y 0.000000 3.812580 0.000000 
#    z 0.000000 0.000000 3.748680 
# 
# 
# High freq. dielectric constant tensor:
#      x y z
#    x 1.818630 0.000000 0.000000 
#    y 0.000000 1.818630 0.000000 
#    z 0.000000 0.000000 1.822200 
# 
# From -- ./inp_files/7350.got.cif
#   From: 2010.03.12/outbox.cif.g09.slc.cpg/sg142_4_cif.got.tgz:7350.got - 2010.04.03 13:27:16.
