data_PCOD8321611
_publ_section_title
;
Structure prediction by ZEFSAII (Michael W. Deem and Ramdas Pophale) SiO2 
 PCOD8321611
Probable space group: P -3
;
_chemical_formula_sum "Si O2"
_cell_formula_units_Z 30
_cell_length_a 12.655458
_cell_length_b 12.655458
_cell_length_c 12.662513
_cell_angle_alpha 90.000000
_cell_angle_beta 90.000000
_cell_angle_gamma 120.000000
_cell_volume 1756.330607
_symmetry_space_group_name_H-M "P -3"
_symmetry_group_IT_number 147
_symmetry_cell_setting 'hexagonal'
loop_
_space_group_symop_operation_xyz
x,y,z
-y,x-y,z
-x+y,-x,z
-x,-y,-z
y,-x+y,-z
x-y,x,-z
loop_
_atom_site_type_symbol
_atom_site_label
_atom_site_fract_x
_atom_site_fract_y
_atom_site_fract_z
Si Si1 0.752867 0.752867 1.000000
Si Si2 0.667945 0.579799 0.805094
Si Si3 0.999987 0.757102 0.620263
Si Si4 0.332056 0.911855 0.194905
Si Si5 0.757102 0.999987 0.379737
O O1 0.672620 0.686812 0.101851
O O2 0.769281 0.884641 0.981392
O O3 0.686813 0.672620 0.898148
O O4 0.769917 0.539834 0.808787
O O5 0.537471 0.462529 0.818886
O O6 0.671560 0.643216 0.694027
O O7 0.971658 0.643217 0.694027
O O8 0.000000 0.716025 0.500000
O O9 0.898667 0.797333 0.636158
O O10 0.129104 0.870897 0.652645
#
# Coordination Sequence:
#
# PCOD8321611 Si02
#       5
#     6   6   6   6   6
#     4  10  20  34  54  78 100 122 152 196 248 294
#     4  10  20  33  49  69  96 131 167 199 233 279
#     4   9  17  30  50  75 100 126 158 200 249 294
#     4  10  20  33  49  69  96 131 167 199 233 279
#     4   9  17  30  50  75 100 126 158 200 249 294
#
# _framework density 17.081066
#
# number of rings (size 3 to 8) (size 9 to 14) (size 15 to 20)
#    0.000    2.400    0.000    2.800    0.000    2.400 
#    0.000    4.000    0.000    8.800    0.000    0.000 
#    0.000    0.000    0.000    0.000    0.000    0.000 
#
# Total GULP energy -372084.302363 kJ/mol
# GULP energy per Si atom -12402.810079 kJ/mol
# Density = 1.704219 g / cm^3
# Si number density = 17.081066 Si / 1000 Ang^3
#
#
#
# Elastic Constant Matrix: (Units=GPa)
#
#
# Indices 1 2 3 4 5 6 
#
# 1 115.5422 76.3190 65.2548 2.9022 0.0003 0.0000
# 2 76.3190 115.5422 65.2548 -2.9022 -0.0003 0.0000
# 3 65.2548 65.2548 116.2924 0.0000 0.0000 0.0000
# 4 2.9022 -2.9022 0.0000 19.4521 0.0000 -0.0003
# 5 0.0003 -0.0003 0.0000 0.0000 19.4521 2.9022
# 6 0.0000 0.0000 0.0000 -0.0003 2.9022 19.6116
#
#
#
# Elastic Compliance Matrix: (Units=1/GPa)
#
#
# Indices 1 2 3 4 5 6 
#
# 1 0.017250 -0.008821 -0.004730 -0.003890 0.000000 0.000000
# 2 -0.008821 0.017250 -0.004730 0.003890 0.000000 0.000000
# 3 -0.004730 -0.004730 0.013907 0.000000 0.000000 0.000000
# 4 -0.003890 0.003890 0.000000 0.052569 0.000000 0.000001
# 5 0.000000 0.000000 0.000000 0.000000 0.052569 -0.007779
# 6 0.000000 0.000000 0.000000 0.000001 -0.007779 0.052141
#
#
# Mechanical properties :
#
#
# Convention : Reuss Voigt Hill
#
# Bulk Modulus (GPa) = 84.41464 84.55930 84.48697
# Shear Modulus (GPa) = 20.30891 21.07305 20.69098
#
# Velocity S-wave (km/s) = 3.45189 3.51623 3.48421
# Velocity P-wave (km/s) = 8.08793 8.13003 8.10901
#
# Compressibility (1/GPa) = 0.01184629
#
# Stress axis : x y z
#
# Youngs Moduli (GPa) = 57.97038 57.97038 71.90419
#
# Poissons Ratio (x) = 0.51133 0.34011
# Poissons Ratio (y) = 0.51133 0.34011
# Poissons Ratio (z) = 0.27421 0.27421
#
# Static dielectric constant tensor:
#      x y z
#    x 3.036410 0.000000 0.000000 
#    y 0.000000 3.036410 0.000000 
#    z 0.000000 0.000000 3.450270 
# 
# 
# High freq. dielectric constant tensor:
#      x y z
#    x 1.650900 0.000000 0.000000 
#    y 0.000000 1.650900 0.000000 
#    z 0.000000 0.000000 1.676710 
# 
# From -- ./inp_files/899.got.cif
#   From: 2010.03.12/outbox.cif.g09.slc.cpg/sg147_cif.got.tgz:899.got - 2010.04.03 13:37:56.
