data_PCOD8321974
_publ_section_title
;
Structure prediction by ZEFSAII (Michael W. Deem and Ramdas Pophale) SiO2 
 PCOD8321974
Probable space group: P 31 1 2
;
_chemical_formula_sum "Si O2"
_cell_formula_units_Z 21
_cell_length_a 7.399995
_cell_length_b 7.399995
_cell_length_c 20.071477
_cell_angle_alpha 90.000000
_cell_angle_beta 90.000000
_cell_angle_gamma 120.000000
_cell_volume 951.859429
_symmetry_space_group_name_H-M "P 31 1 2"
_symmetry_group_IT_number 151
_symmetry_cell_setting 'hexagonal'
loop_
_space_group_symop_operation_xyz
x,y,z
-y,x-y,1/3+z
-x+y,-x,2/3+z
-y,-x,2/3-z
-x+y,y,1/3-z
x,x-y,-z
loop_
_atom_site_type_symbol
_atom_site_label
_atom_site_fract_x
_atom_site_fract_y
_atom_site_fract_z
Si Si1 0.541024 0.532817 0.127936
Si Si2 0.222656 0.643963 0.072410
Si Si3 0.769957 0.100189 0.258720
Si Si4 0.945451 0.054550 0.833334
O O1 0.377368 0.556401 0.083293
O O2 0.505013 0.542617 0.207287
O O3 0.524787 0.312530 0.106362
O O4 0.766185 0.734866 0.114620
O O5 0.359709 0.897791 0.077418
O O6 0.120684 0.560342 0.000000
O O7 0.857143 0.142858 0.333334
O O8 0.911998 0.047525 0.212020
#
# Coordination Sequence:
#
# PCOD8321974 Si02
#       4
#     6   6   6   3
#     4  10  22  40  61  94 134 165 223 275 323 402
#     4  10  20  38  66  89 125 177 215 269 341 391
#     4  11  22  40  66  94 131 177 217 276 340 390
#     4  10  24  40  62  98 130 170 226 270 324 408
#
# _framework density 22.062080999999999
#
# number of rings (size 3 to 8) (size 9 to 14) (size 15 to 20)
#    0.000    1.714    2.857    1.714    0.000    5.714 
#    0.000    5.714    0.000    0.000    0.000    0.000 
#    0.000    0.000    0.000    0.000    0.000    0.000 
#
# Total GULP energy -260168.247943 kJ/mol
# GULP energy per Si atom -12388.964188 kJ/mol
# Density = 2.201187 g / cm^3
# Si number density = 22.062081 Si / 1000 Ang^3
#
#
#
# Elastic Constant Matrix: (Units=GPa)
#
#
# Indices 1 2 3 4 5 6 
#
# 1 69.0450 2.2748 24.0515 0.0007 0.0667 0.0000
# 2 2.2748 69.0450 24.0515 -0.0007 -0.0667 0.0000
# 3 24.0515 24.0515 133.3562 0.0000 0.0000 0.0000
# 4 0.0007 -0.0007 0.0000 20.5300 0.0000 -0.0667
# 5 0.0667 -0.0667 0.0000 0.0000 20.5300 0.0007
# 6 0.0000 0.0000 0.0000 -0.0667 0.0007 33.3851
#
#
#
# Elastic Compliance Matrix: (Units=1/GPa)
#
#
# Indices 1 2 3 4 5 6 
#
# 1 0.015470 0.000493 -0.002879 0.000000 -0.000049 0.000000
# 2 0.000493 0.015470 -0.002879 0.000000 0.000049 0.000000
# 3 -0.002879 -0.002879 0.008537 0.000000 0.000000 0.000000
# 4 0.000000 0.000000 0.000000 0.048709 0.000000 0.000097
# 5 -0.000049 0.000049 0.000000 0.000000 0.048709 -0.000001
# 6 0.000000 0.000000 0.000000 0.000097 -0.000001 0.029954
#
#
# Mechanical properties :
#
#
# Convention : Reuss Voigt Hill
#
# Bulk Modulus (GPa) = 34.54543 41.35576 37.95060
# Shear Modulus (GPa) = 26.73385 29.62693 28.18039
#
# Velocity S-wave (km/s) = 3.48480 3.66852 3.57784
# Velocity P-wave (km/s) = 5.64660 6.06052 5.85722
#
# Compressibility (1/GPa) = 0.02894739
#
# Stress axis : x y z
#
# Youngs Moduli (GPa) = 64.64123 64.64123 117.13420
#
# Poissons Ratio (x) = -0.03188 0.33723
# Poissons Ratio (y) = -0.03188 0.33723
# Poissons Ratio (z) = 0.18610 0.18610
#
# Static dielectric constant tensor:
#      x y z
#    x 4.082140 0.000000 0.000000 
#    y 0.000000 4.082140 0.000000 
#    z 0.000000 0.000000 4.036410 
# 
# 
# High freq. dielectric constant tensor:
#      x y z
#    x 1.862410 0.000000 0.000000 
#    y 0.000000 1.862410 0.000000 
#    z 0.000000 0.000000 1.872340 
# 
# From -- ./inp_files/3290.got.cif
#   From: 2010.03.12/outbox.cif.g09.slc.cpg/sg151_2_cif.got.tgz:3290.got - 2010.04.03 13:42:29.
