data_PCOD8321286
_publ_section_title
;
Structure prediction by ZEFSAII (Michael W. Deem and Ramdas Pophale) SiO2 
 PCOD8321286
Probable space group: I 41/A C D
;
_chemical_formula_sum "Si O2"
_cell_formula_units_Z 104
_cell_length_a 14.305537
_cell_length_b 14.305537
_cell_length_c 19.302522
_cell_angle_alpha 90.000000
_cell_angle_beta 90.000000
_cell_angle_gamma 90.000000
_cell_volume 3950.230028
_symmetry_space_group_name_H-M "I 41/A C D"
_symmetry_group_IT_number 142
_space_group.IT_coordinate_system_code '2'
_symmetry_cell_setting 'tetragonal'
loop_
_space_group_symop_operation_xyz
x,y,z
1/4-y,3/4+x,1/4+z
-x,1/2-y,z
1/4+y,1/4-x,3/4+z
x,-y,1/2-z
1/2-x,y,-z
3/4+y,1/4+x,1/4-z
1/4-y,1/4-x,1/4-z
-x,-y,-z
3/4+y,1/4-x,3/4-z
x,1/2+y,-z
3/4-y,3/4+x,1/4-z
-x,y,1/2+z
1/2+x,-y,z
1/4-y,3/4-x,3/4+z
3/4+y,3/4+x,3/4+z
1/2+x,1/2+y,1/2+z
3/4-y,1/4+x,3/4+z
1/2-x,-y,1/2+z
3/4+y,3/4-x,1/4+z
1/2+x,1/2-y,-z
-x,1/2+y,1/2-z
1/4+y,3/4+x,3/4-z
3/4-y,3/4-x,3/4-z
1/2-x,1/2-y,1/2-z
1/4+y,3/4-x,1/4-z
1/2+x,y,1/2-z
1/4-y,1/4+x,3/4-z
1/2-x,1/2+y,z
x,1/2-y,1/2+z
3/4-y,1/4-x,1/4+z
1/4+y,1/4+x,1/4+z
loop_
_atom_site_type_symbol
_atom_site_label
_atom_site_fract_x
_atom_site_fract_y
_atom_site_fract_z
Si Si1 0.826429 0.849652 0.311707
Si Si2 0.500000 0.750000 0.375000
Si Si3 0.360067 0.253493 0.507360
Si Si4 0.195829 0.140026 0.190692
O O1 0.824274 0.925727 0.375000
O O2 0.779610 0.892170 0.241679
O O3 0.785200 0.747555 0.333573
O O4 0.936148 0.836136 0.295926
O O5 0.484948 0.846480 0.332992
O O6 0.250000 0.234701 0.500000
O O7 0.386646 0.358427 0.490771
O O8 0.179415 0.070586 0.125000
#
# Coordination Sequence:
#
# PCOD8321286 Si02
#       4
#    32   8  32  32
#     4  11  24  46  80 114 156 209 265 329 398 475
#     4  12  28  48  70 108 160 208 256 322 396 476
#     4  12  28  45  72 108 154 203 258 323 390 473
#     4  11  24  46  80 114 156 209 265 329 398 475
#
# _framework density 26.327582
#
# number of rings (size 3 to 8) (size 9 to 14) (size 15 to 20)
#    0.000    0.615    6.154    0.000    8.615    1.231 
#    0.000    3.077    0.000    0.000    0.000    0.000 
#    0.000    0.000    0.000    0.000    0.000    0.000 
#
# Total GULP energy -644402.914264 kJ/mol
# GULP energy per Si atom -12392.363736 kJ/mol
# Density = 2.626766 g / cm^3
# Si number density = 26.327582 Si / 1000 Ang^3
#
#
#
# Elastic Constant Matrix: (Units=GPa)
#
#
# Indices 1 2 3 4 5 6 
#
# 1 99.2011 32.2074 61.5813 0.0000 0.0000 0.0000
# 2 32.2074 99.2010 61.5805 0.0000 0.0000 0.0000
# 3 61.5813 61.5805 200.7780 0.0000 0.0000 0.0000
# 4 0.0000 0.0000 0.0000 60.3370 0.0000 0.0000
# 5 0.0000 0.0000 0.0000 0.0000 60.3369 0.0000
# 6 0.0000 0.0000 0.0000 0.0000 0.0000 25.9590
#
#
#
# Elastic Compliance Matrix: (Units=1/GPa)
#
#
# Indices 1 2 3 4 5 6 
#
# 1 0.012803 -0.002123 -0.003276 0.000000 0.000000 0.000000
# 2 -0.002123 0.012803 -0.003276 0.000000 0.000000 0.000000
# 3 -0.003276 -0.003276 0.006990 0.000000 0.000000 0.000000
# 4 0.000000 0.000000 0.000000 0.016574 0.000000 0.000000
# 5 0.000000 0.000000 0.000000 0.000000 0.016574 0.000000
# 6 0.000000 0.000000 0.000000 0.000000 0.000000 0.038522
#
#
# Mechanical properties :
#
#
# Convention : Reuss Voigt Hill
#
# Bulk Modulus (GPa) = 65.58560 78.87983 72.23272
# Shear Modulus (GPa) = 39.46391 45.58065 42.52228
#
# Velocity S-wave (km/s) = 3.87584 4.16539 4.02322
# Velocity P-wave (km/s) = 6.70783 7.29108 7.00553
#
# Compressibility (1/GPa) = 0.01524725
#
# Stress axis : x y z
#
# Youngs Moduli (GPa) = 78.10430 78.10464 143.06171
#
# Poissons Ratio (x) = 0.16585 0.46863
# Poissons Ratio (y) = 0.16585 0.46862
# Poissons Ratio (z) = 0.25585 0.25584
#
# Static dielectric constant tensor:
#      x y z
#    x 4.716250 0.000000 0.000000 
#    y 0.000000 4.716250 0.000000 
#    z 0.000000 0.000000 4.869310 
# 
# 
# High freq. dielectric constant tensor:
#      x y z
#    x 2.048660 0.000000 0.000000 
#    y 0.000000 2.048660 0.000000 
#    z 0.000000 0.000000 2.063970 
# 
# From -- ./inp_files/6733.got.cif
#   From: 2010.03.12/outbox.cif.g09.slc.cpg/sg142_4_cif.got.tgz:6733.got - 2010.04.03 13:27:16.
