data_PCOD8321114
_publ_section_title
;
Structure prediction by ZEFSAII (Michael W. Deem and Ramdas Pophale) SiO2 
 PCOD8321114
Probable space group: I 41/A C D
;
_chemical_formula_sum "Si O2"
_cell_formula_units_Z 136
_cell_length_a 21.949940
_cell_length_b 21.949940
_cell_length_c 12.174083
_cell_angle_alpha 90.000000
_cell_angle_beta 90.000000
_cell_angle_gamma 90.000000
_cell_volume 5865.471558
_symmetry_space_group_name_H-M "I 41/A C D"
_symmetry_group_IT_number 142
_space_group.IT_coordinate_system_code '2'
_symmetry_cell_setting 'tetragonal'
loop_
_space_group_symop_operation_xyz
x,y,z
1/4-y,3/4+x,1/4+z
-x,1/2-y,z
1/4+y,1/4-x,3/4+z
x,-y,1/2-z
1/2-x,y,-z
3/4+y,1/4+x,1/4-z
1/4-y,1/4-x,1/4-z
-x,-y,-z
3/4+y,1/4-x,3/4-z
x,1/2+y,-z
3/4-y,3/4+x,1/4-z
-x,y,1/2+z
1/2+x,-y,z
1/4-y,3/4-x,3/4+z
3/4+y,3/4+x,3/4+z
1/2+x,1/2+y,1/2+z
3/4-y,1/4+x,3/4+z
1/2-x,-y,1/2+z
3/4+y,3/4-x,1/4+z
1/2+x,1/2-y,-z
-x,1/2+y,1/2-z
1/4+y,3/4+x,3/4-z
3/4-y,3/4-x,3/4-z
1/2-x,1/2-y,1/2-z
1/4+y,3/4-x,1/4-z
1/2+x,y,1/2-z
1/4-y,1/4+x,3/4-z
1/2-x,1/2+y,z
x,1/2-y,1/2+z
3/4-y,1/4-x,1/4+z
1/4+y,1/4+x,1/4+z
loop_
_atom_site_type_symbol
_atom_site_label
_atom_site_fract_x
_atom_site_fract_y
_atom_site_fract_z
Si Si1 0.124482 0.228651 0.522635
Si Si2 0.316339 0.149702 0.040377
Si Si3 0.808690 0.808771 0.285948
Si Si4 0.071317 0.426277 0.439870
Si Si5 0.000000 0.750000 0.875000
O O1 0.170773 0.285620 0.516097
O O2 0.140589 0.180931 0.620498
O O3 0.129445 0.192592 0.408579
O O4 0.056377 0.252341 0.541374
O O5 0.318642 0.155322 0.173044
O O6 0.367622 0.100518 0.002953
O O7 0.250000 0.127098 0.000000
O O8 0.816531 0.735384 0.272505
O O9 0.746440 0.831426 0.344933
#
# Coordination Sequence:
#
# PCOD8321114 Si02
#       5
#    32  32  32  32   8
#     4  11  22  40  61  92 131 166 208 261 325 389
#     4  11  23  38  62  94 128 166 214 269 320 380
#     4  10  21  39  64  91 124 169 209 256 320 386
#     4  10  21  38  63  91 125 168 213 257 313 385
#     4  12  24  36  66 100 128 162 204 272 330 380
#
# _framework density 23.186543
#
# number of rings (size 3 to 8) (size 9 to 14) (size 15 to 20)
#    0.000    1.412    0.000    7.765    0.000    4.706 
#    0.000    4.706    0.000   11.294    0.000    0.000 
#    0.000    0.000    0.000    0.000    0.000    0.000 
#
# Total GULP energy -842626.254710 kJ/mol
# GULP energy per Si atom -12391.562569 kJ/mol
# Density = 2.313377 g / cm^3
# Si number density = 23.186543 Si / 1000 Ang^3
#
#
#
# Elastic Constant Matrix: (Units=GPa)
#
#
# Indices 1 2 3 4 5 6 
#
# 1 129.7575 41.2868 30.0169 0.0000 0.0000 0.0000
# 2 41.2868 129.7575 30.0169 0.0000 0.0000 0.0000
# 3 30.0169 30.0169 108.4229 0.0000 0.0000 0.0000
# 4 0.0000 0.0000 0.0000 11.2208 0.0000 0.0000
# 5 0.0000 0.0000 0.0000 0.0000 11.2208 0.0000
# 6 0.0000 0.0000 0.0000 0.0000 0.0000 32.7815
#
#
#
# Elastic Compliance Matrix: (Units=1/GPa)
#
#
# Indices 1 2 3 4 5 6 
#
# 1 0.008889 -0.002414 -0.001793 0.000000 0.000000 0.000000
# 2 -0.002414 0.008889 -0.001793 0.000000 0.000000 0.000000
# 3 -0.001793 -0.001793 0.010216 0.000000 0.000000 0.000000
# 4 0.000000 0.000000 0.000000 0.089120 0.000000 0.000000
# 5 0.000000 0.000000 0.000000 0.000000 0.089120 0.000000
# 6 0.000000 0.000000 0.000000 0.000000 0.000000 0.030505
#
#
# Mechanical properties :
#
#
# Convention : Reuss Voigt Hill
#
# Bulk Modulus (GPa) = 62.51561 63.39766 62.95664
# Shear Modulus (GPa) = 19.67954 28.81909 24.24932
#
# Velocity S-wave (km/s) = 2.91649 3.52934 3.23745
# Velocity P-wave (km/s) = 6.19369 6.63401 6.41763
#
# Compressibility (1/GPa) = 0.01599600
#
# Stress axis : x y z
#
# Youngs Moduli (GPa) = 112.49314 112.49314 97.88744
#
# Poissons Ratio (x) = 0.27153 0.17549
# Poissons Ratio (y) = 0.27153 0.17549
# Poissons Ratio (z) = 0.20168 0.20168
#
# Static dielectric constant tensor:
#      x y z
#    x 4.174730 0.000000 0.000000 
#    y 0.000000 4.174730 0.000000 
#    z 0.000000 0.000000 4.036390 
# 
# 
# High freq. dielectric constant tensor:
#      x y z
#    x 1.906330 0.000000 0.000000 
#    y 0.000000 1.906330 0.000000 
#    z 0.000000 0.000000 1.921340 
# 
# From -- ./inp_files/3592.got.cif
#   From: 2010.03.12/outbox.cif.g09.slc.cpg/sg142_2_cif.got.tgz:3592.got - 2010.04.03 13:27:16.
