data_PCOD8321647
_publ_section_title
;
Structure prediction by ZEFSAII (Michael W. Deem and Ramdas Pophale) SiO2 
 PCOD8321647
Probable space group: P -3
;
_chemical_formula_sum "Si O2"
_cell_formula_units_Z 36
_cell_length_a 8.738840
_cell_length_b 8.738840
_cell_length_c 26.681263
_cell_angle_alpha 90.000000
_cell_angle_beta 90.000000
_cell_angle_gamma 120.000000
_cell_volume 1764.593159
_symmetry_space_group_name_H-M "P -3"
_symmetry_group_IT_number 147
_symmetry_cell_setting 'hexagonal'
loop_
_space_group_symop_operation_xyz
x,y,z
-y,x-y,z
-x+y,-x,z
-x,-y,-z
y,-x+y,-z
x-y,x,-z
loop_
_atom_site_type_symbol
_atom_site_label
_atom_site_fract_x
_atom_site_fract_y
_atom_site_fract_z
Si Si1 0.964535 0.787624 0.778866
Si Si2 0.339001 0.323774 0.480173
Si Si3 0.678649 0.015433 0.673717
Si Si4 0.545724 0.705644 0.127895
Si Si5 0.018985 0.338228 0.018889
Si Si6 0.014312 0.340757 0.635569
O O1 0.939492 0.660487 0.732318
O O2 0.812648 0.844108 0.777308
O O3 0.952070 0.681127 0.828691
O O4 0.500000 0.500000 0.500000
O O5 0.160010 0.327618 0.486401
O O6 0.374069 0.304788 0.422310
O O7 0.629178 0.814726 0.665323
O O8 0.519695 0.045170 0.657109
O O9 0.852055 0.142923 0.641638
O O10 0.487436 0.855603 0.131769
O O11 0.640569 0.725114 0.075550
O O12 0.159199 0.326006 0.982952
O O13 0.000000 0.500000 0.000000
#
# Coordination Sequence:
#
# PCOD8321647 Si02
#       6
#     6   6   6   6   6   6
#     4  10  23  43  66  97 133 171 218 278 337 403
#     4  12  25  43  66  97 133 173 222 275 336 403
#     4  12  25  45  66 100 131 176 225 277 334 411
#     4  10  23  41  66 102 136 179 224 278 343 402
#     4  12  24  44  68 102 145 192 242 290 341 408
#     4  12  24  43  69  95 133 177 222 275 338 402
#
# _framework density 20.401304
#
# number of rings (size 3 to 8) (size 9 to 14) (size 15 to 20)
#    0.667    0.000    3.333    5.000    4.667    0.000 
#    0.000    0.000    0.000    0.667    0.000    0.000 
#    0.000    0.000    0.000    0.000    0.000    0.000 
#
# Total GULP energy -446527.952407 kJ/mol
# GULP energy per Si atom -12403.554234 kJ/mol
# Density = 2.035487 g / cm^3
# Si number density = 20.401304 Si / 1000 Ang^3
#
#
#
# Elastic Constant Matrix: (Units=GPa)
#
#
# Indices 1 2 3 4 5 6 
#
# 1 107.5814 33.0840 35.3382 6.3373 -1.8189 0.0000
# 2 33.0840 107.5814 35.3382 -6.3373 1.8189 0.0000
# 3 35.3382 35.3382 151.7342 0.0000 0.0000 0.0000
# 4 6.3373 -6.3373 0.0000 36.9322 0.0000 1.8189
# 5 -1.8189 1.8189 0.0000 0.0000 36.9322 6.3373
# 6 0.0000 0.0000 0.0000 1.8189 6.3373 37.2487
#
#
#
# Elastic Compliance Matrix: (Units=1/GPa)
#
#
# Indices 1 2 3 4 5 6 
#
# 1 0.010956 -0.002905 -0.001875 -0.002379 0.000683 0.000000
# 2 -0.002905 0.010956 -0.001875 0.002379 -0.000683 0.000000
# 3 -0.001875 -0.001875 0.007464 0.000000 0.000000 0.000000
# 4 -0.002379 0.002379 0.000000 0.027960 0.000000 -0.001365
# 5 0.000683 -0.000683 0.000000 0.000000 0.027960 -0.004757
# 6 0.000000 0.000000 0.000000 -0.001365 -0.004757 0.027723
#
#
# Mechanical properties :
#
#
# Convention : Reuss Voigt Hill
#
# Bulk Modulus (GPa) = 62.24358 63.82419 63.03388
# Shear Modulus (GPa) = 37.96937 39.76504 38.86721
#
# Velocity S-wave (km/s) = 4.31876 4.41970 4.36952
# Velocity P-wave (km/s) = 7.44612 7.57610 7.51139
#
# Compressibility (1/GPa) = 0.01606591
#
# Stress axis : x y z
#
# Youngs Moduli (GPa) = 91.27216 91.27216 133.97881
#
# Poissons Ratio (x) = 0.26515 0.25122
# Poissons Ratio (y) = 0.26515 0.25122
# Poissons Ratio (z) = 0.17114 0.17114
#
# Static dielectric constant tensor:
#      x y z
#    x 3.723980 0.000000 0.000000 
#    y 0.000000 3.723980 0.000000 
#    z 0.000000 0.000000 3.758650 
# 
# 
# High freq. dielectric constant tensor:
#      x y z
#    x 1.798490 0.000000 0.000000 
#    y 0.000000 1.798490 0.000000 
#    z 0.000000 0.000000 1.808310 
# 
# From -- ./inp_files/1114.got.cif
#   From: 2010.03.12/outbox.cif.g09.slc.cpg/sg147_cif.got.tgz:1114.got - 2010.04.03 13:37:56.
