data_PCOD8321243
_publ_section_title
;
Structure prediction by ZEFSAII (Michael W. Deem and Ramdas Pophale) SiO2 
 PCOD8321243
Probable space group: I 41/A C D
;
_chemical_formula_sum "Si O2"
_cell_formula_units_Z 168
_cell_length_a 18.894257
_cell_length_b 18.894257
_cell_length_c 21.699286
_cell_angle_alpha 90.000000
_cell_angle_beta 90.000000
_cell_angle_gamma 90.000000
_cell_volume 7746.492070
_symmetry_space_group_name_H-M "I 41/A C D"
_symmetry_group_IT_number 142
_space_group.IT_coordinate_system_code '2'
_symmetry_cell_setting 'tetragonal'
loop_
_space_group_symop_operation_xyz
x,y,z
1/4-y,3/4+x,1/4+z
-x,1/2-y,z
1/4+y,1/4-x,3/4+z
x,-y,1/2-z
1/2-x,y,-z
3/4+y,1/4+x,1/4-z
1/4-y,1/4-x,1/4-z
-x,-y,-z
3/4+y,1/4-x,3/4-z
x,1/2+y,-z
3/4-y,3/4+x,1/4-z
-x,y,1/2+z
1/2+x,-y,z
1/4-y,3/4-x,3/4+z
3/4+y,3/4+x,3/4+z
1/2+x,1/2+y,1/2+z
3/4-y,1/4+x,3/4+z
1/2-x,-y,1/2+z
3/4+y,3/4-x,1/4+z
1/2+x,1/2-y,-z
-x,1/2+y,1/2-z
1/4+y,3/4+x,3/4-z
3/4-y,3/4-x,3/4-z
1/2-x,1/2-y,1/2-z
1/4+y,3/4-x,1/4-z
1/2+x,y,1/2-z
1/4-y,1/4+x,3/4-z
1/2-x,1/2+y,z
x,1/2-y,1/2+z
3/4-y,1/4-x,1/4+z
1/4+y,1/4+x,1/4+z
loop_
_atom_site_type_symbol
_atom_site_label
_atom_site_fract_x
_atom_site_fract_y
_atom_site_fract_z
Si Si1 0.085296 0.664705 0.375000
Si Si2 0.683589 0.314914 0.199985
Si Si3 0.415679 0.079877 0.252657
Si Si4 0.085064 0.086102 0.007525
Si Si5 0.549697 0.608188 0.818021
Si Si6 0.500000 0.750000 0.375000
Si Si7 0.420619 0.329381 0.375000
O O1 0.133115 0.642565 0.433208
O O2 0.098447 0.747440 0.367763
O O3 0.623119 0.374531 0.199914
O O4 0.754417 0.350145 0.227564
O O5 0.658180 0.247929 0.240059
O O6 0.692706 0.293386 0.127959
O O7 0.499331 0.078700 0.236550
O O8 0.386827 0.000000 0.250000
O O9 0.110465 0.134922 0.064240
O O10 0.134886 0.117948 0.953380
O O11 0.523603 0.687443 0.830508
#
# Coordination Sequence:
#
# PCOD8321243 Si02
#       7
#    16  32  32  32  32   8  16
#     4  11  24  40  67  96 142 172 229 284 344 397
#     4  11  24  42  66  98 141 180 220 291 353 411
#     4  12  26  43  66 101 140 187 225 279 353 429
#     4  11  23  41  69 100 134 174 236 286 348 405
#     4  12  22  40  69 102 132 177 236 282 340 410
#     4  12  20  36  68 102 120 164 224 288 326 392
#     4  11  22  40  67  98 130 176 227 298 334 393
#
# _framework density 21.687237
#
# number of rings (size 3 to 8) (size 9 to 14) (size 15 to 20)
#    0.000    0.571    7.619    0.000    2.667    1.524 
#    0.000    3.810    0.000    0.000    0.000    0.000 
#    0.000    0.000    0.000    0.000    0.000    0.000 
#
# Total GULP energy -1041156.470969 kJ/mol
# GULP energy per Si atom -12394.719892 kJ/mol
# Density = 2.163788 g / cm^3
# Si number density = 21.687237 Si / 1000 Ang^3
#
#
#
# Elastic Constant Matrix: (Units=GPa)
#
#
# Indices 1 2 3 4 5 6 
#
# 1 117.1346 -2.2255 35.1739 0.0000 0.0000 0.0000
# 2 -2.2255 117.1303 35.1726 0.0000 0.0000 0.0000
# 3 35.1739 35.1726 125.9005 0.0000 0.0000 0.0000
# 4 0.0000 0.0000 0.0000 29.0071 0.0000 0.0000
# 5 0.0000 0.0000 0.0000 0.0000 29.0070 0.0000
# 6 0.0000 0.0000 0.0000 0.0000 0.0000 17.9838
#
#
#
# Elastic Compliance Matrix: (Units=1/GPa)
#
#
# Indices 1 2 3 4 5 6 
#
# 1 0.009438 0.001060 -0.002933 0.000000 0.000000 0.000000
# 2 0.001060 0.009438 -0.002933 0.000000 0.000000 0.000000
# 3 -0.002933 -0.002933 0.009582 0.000000 0.000000 0.000000
# 4 0.000000 0.000000 0.000000 0.034474 0.000000 0.000000
# 5 0.000000 0.000000 0.000000 0.000000 0.034474 0.000000
# 6 0.000000 0.000000 0.000000 0.000000 0.000000 0.055606
#
#
# Mechanical properties :
#
#
# Convention : Reuss Voigt Hill
#
# Bulk Modulus (GPa) = 53.06074 55.15635 54.10855
# Shear Modulus (GPa) = 29.60225 34.66921 32.13573
#
# Velocity S-wave (km/s) = 3.69855 4.00259 3.85357
# Velocity P-wave (km/s) = 6.53900 6.84462 6.69355
#
# Compressibility (1/GPa) = 0.01884633
#
# Stress axis : x y z
#
# Youngs Moduli (GPa) = 105.95412 105.95063 104.36732
#
# Poissons Ratio (x) = -0.11231 0.30610
# Poissons Ratio (y) = -0.11232 0.30610
# Poissons Ratio (z) = 0.31076 0.31075
#
# Static dielectric constant tensor:
#      x y z
#    x 3.787080 0.000000 0.000000 
#    y 0.000000 3.787080 0.000000 
#    z 0.000000 0.000000 3.958770 
# 
# 
# High freq. dielectric constant tensor:
#      x y z
#    x 1.832850 0.000000 0.000000 
#    y 0.000000 1.832850 0.000000 
#    z 0.000000 0.000000 1.863000 
# 
# From -- ./inp_files/9097.got.cif
#   From: 2010.03.12/outbox.cif.g09.slc.cpg/sg142_5_cif.got.tgz:9097.got - 2010.04.03 13:27:16.
