data_PCOD8321507
_publ_section_title
;
Structure prediction by ZEFSAII (Michael W. Deem and Ramdas Pophale) SiO2 
 PCOD8321507
Probable space group: R 3
;
_chemical_formula_sum "Si O2"
_cell_formula_units_Z 63
_cell_length_a 17.806583
_cell_length_b 17.806583
_cell_length_c 11.513659
_cell_angle_alpha 90.000000
_cell_angle_beta 90.000000
_cell_angle_gamma 120.000000
_cell_volume 3161.587248
_symmetry_space_group_name_H-M "R 3"
_symmetry_group_IT_number 146
_symmetry_cell_setting 'hexagonal'
loop_
_space_group_symop_operation_xyz
x,y,z
-y,x-y,z
-x+y,-x,z
2/3+x,1/3+y,1/3+z
2/3-y,1/3+x-y,1/3+z
2/3-x+y,1/3-x,1/3+z
1/3+x,2/3+y,2/3+z
1/3-y,2/3+x-y,2/3+z
1/3-x+y,2/3-x,2/3+z
loop_
_atom_site_type_symbol
_atom_site_label
_atom_site_fract_x
_atom_site_fract_y
_atom_site_fract_z
Si Si1 0.150993 0.913504 0.146170
Si Si2 0.419843 0.332096 0.749492
Si Si3 0.915912 0.192973 0.031912
Si Si4 0.566587 0.757206 0.209841
Si Si5 0.587825 0.900221 0.812320
Si Si6 0.781260 0.844936 0.394446
Si Si7 0.764293 0.727381 0.768204
O O1 0.221216 0.883221 0.168776
O O2 0.128518 0.947239 0.265039
O O3 0.061579 0.834142 0.097565
O O4 0.190549 0.994643 0.061490
O O5 0.493187 0.385156 0.845689
O O6 0.333118 0.334934 0.783179
O O7 0.449828 0.367130 0.617754
O O8 0.404484 0.235816 0.765163
O O9 0.834546 0.103927 0.074499
O O10 0.902083 0.267011 0.093843
O O11 0.922090 0.200161 0.893789
O O12 0.487295 0.674089 0.145570
O O13 0.554478 0.733741 0.346912
O O14 0.704598 0.745389 0.392083
#
# Coordination Sequence:
#
# PCOD8321507 Si02
#       7
#     9   9   9   9   9   9   9
#     4   9  20  37  60  87 122 156 199 258 299 357
#     4  10  23  40  63  91 129 165 199 264 311 367
#     4  12  22  39  64  92 124 162 211 252 313 368
#     4  10  19  38  60  89 124 154 206 256 306 356
#     4  10  24  39  61  92 125 167 202 250 319 365
#     4  10  18  38  61  89 121 157 207 254 301 363
#     4  11  22  35  61  94 117 165 206 260 297 360
#
# _framework density 19.926698999999999
#
# number of rings (size 3 to 8) (size 9 to 14) (size 15 to 20)
#    0.000    1.714    2.857    2.571    6.000    0.000 
#    1.714    1.429    0.000    0.000    0.000    0.000 
#    1.429    0.000    0.000    0.000    0.000    0.000 
#
# Total GULP energy -260187.261751 kJ/mol
# GULP energy per Si atom -12389.869607 kJ/mol
# Density = 1.988135 g / cm^3
# Si number density = 19.926699 Si / 1000 Ang^3
#
#
#
# Elastic Constant Matrix: (Units=GPa)
#
#
# Indices 1 2 3 4 5 6 
#
# 1 89.0334 34.4936 30.9898 2.0405 -0.5635 0.0000
# 2 34.4936 89.0334 30.9898 -2.0405 0.5635 0.0000
# 3 30.9898 30.9898 91.2374 0.0000 0.0000 0.0000
# 4 2.0405 -2.0405 0.0000 27.4871 0.0000 0.5635
# 5 -0.5635 0.5635 0.0000 0.0000 27.4871 2.0405
# 6 0.0000 0.0000 0.0000 0.5635 2.0405 27.2699
#
#
#
# Elastic Compliance Matrix: (Units=1/GPa)
#
#
# Indices 1 2 3 4 5 6 
#
# 1 0.014102 -0.004344 -0.003315 -0.001369 0.000378 0.000000
# 2 -0.004344 0.014102 -0.003315 0.001369 -0.000378 0.000000
# 3 -0.003315 -0.003315 0.013212 0.000000 0.000000 0.000000
# 4 -0.001369 0.001369 0.000000 0.036599 0.000000 -0.000756
# 5 0.000378 -0.000378 0.000000 0.000000 0.036599 -0.002739
# 6 0.000000 0.000000 0.000000 -0.000756 -0.002739 0.036891
#
#
# Mechanical properties :
#
#
# Convention : Reuss Voigt Hill
#
# Bulk Modulus (GPa) = 51.35913 51.36119 51.36016
# Shear Modulus (GPa) = 27.78680 27.97090 27.87885
#
# Velocity S-wave (km/s) = 3.73829 3.75065 3.74447
# Velocity P-wave (km/s) = 6.66806 6.67739 6.67273
#
# Compressibility (1/GPa) = 0.01947074
#
# Stress axis : x y z
#
# Youngs Moduli (GPa) = 70.91195 70.91195 75.68825
#
# Poissons Ratio (x) = 0.30801 0.25088
# Poissons Ratio (y) = 0.30801 0.25088
# Poissons Ratio (z) = 0.23504 0.23504
#
# Static dielectric constant tensor:
#      x y z
#    x 3.525700 0.000000 0.000000 
#    y 0.000000 3.525700 0.000000 
#    z 0.000000 0.000000 3.829460 
# 
# 
# High freq. dielectric constant tensor:
#      x y z
#    x 1.760460 0.000000 0.000000 
#    y 0.000000 1.760460 0.000000 
#    z 0.000000 0.000000 1.781920 
# 
# From -- ./inp_files/1229.got.cif
#   From: 2010.06.25/outbox.cif.g09.slc.cpg/sg146_cif.got.tgz:1229.got - 2010.06.28 11:17:22.
