data_PCOD8321876
_publ_section_title
;
Structure prediction by ZEFSAII (Michael W. Deem and Ramdas Pophale) SiO2 
 PCOD8321876
Probable space group: P 3 2 1
;
_chemical_formula_sum "Si O2"
_cell_formula_units_Z 30
_cell_length_a 14.045198
_cell_length_b 14.045198
_cell_length_c 9.643470
_cell_angle_alpha 90.000000
_cell_angle_beta 90.000000
_cell_angle_gamma 120.000000
_cell_volume 1647.478279
_symmetry_space_group_name_H-M "P 3 2 1"
_symmetry_group_IT_number 150
_symmetry_cell_setting 'hexagonal'
loop_
_space_group_symop_operation_xyz
x,y,z
-y,x-y,z
-x+y,-x,z
x-y,-y,-z
-x,-x+y,-z
y,x,-z
loop_
_atom_site_type_symbol
_atom_site_label
_atom_site_fract_x
_atom_site_fract_y
_atom_site_fract_z
Si Si1 0.783417 0.127033 0.500000
Si Si2 0.473020 0.719107 0.000000
Si Si3 0.419414 0.127738 0.271538
Si Si4 0.580586 0.708324 0.271538
Si Si5 0.874219 0.432812 0.500000
O O1 0.853118 0.185914 0.361998
O O2 0.853118 0.185914 0.638002
O O3 0.678606 0.143915 0.500000
O O4 0.750454 0.000000 0.500000
O O5 0.411292 0.791048 0.000000
O O6 0.550833 0.750327 0.133196
O O7 0.550833 0.750327 0.866804
O O8 0.532661 0.173158 0.360855
O O9 0.364098 0.000000 0.230687
O O10 0.467339 0.640498 0.360855
O O11 0.000000 0.464462 0.500000
#
# Coordination Sequence:
#
# PCOD8321876 Si02
#       5
#     6   6   6   6   6
#     4  10  19  33  53  77 101 135 183 226 266 316
#     4  10  21  32  50  80 107 146 178 210 254 312
#     4  10  19  34  52  75 108 142 176 218 269 315
#     4  10  19  34  52  75 108 142 176 218 269 315
#     4   8  16  29  48  71  98 135 176 220 265 310
#
# _framework density 18.209647
#
# number of rings (size 3 to 8) (size 9 to 14) (size 15 to 20)
#    0.400    2.000    0.000    4.800    0.000    0.000 
#    9.600    3.000    0.000    3.200    0.000    0.000 
#    0.000    0.000    0.000    0.000    0.000    0.000 
#
# Total GULP energy -371837.457426 kJ/mol
# GULP energy per Si atom -12394.581914 kJ/mol
# Density = 1.816820 g / cm^3
# Si number density = 18.209647 Si / 1000 Ang^3
#
#
#
# Elastic Constant Matrix: (Units=GPa)
#
#
# Indices 1 2 3 4 5 6 
#
# 1 50.2824 2.5016 17.9435 0.0000 0.0000 0.0000
# 2 2.5016 50.2824 17.9435 0.0000 0.0000 0.0000
# 3 17.9435 17.9435 134.1782 0.0000 0.0000 0.0000
# 4 0.0000 0.0000 0.0000 16.2289 0.0000 0.0000
# 5 0.0000 0.0000 0.0000 0.0000 16.2289 0.0000
# 6 0.0000 0.0000 0.0000 0.0000 0.0000 23.8904
#
#
#
# Elastic Compliance Matrix: (Units=1/GPa)
#
#
# Indices 1 2 3 4 5 6 
#
# 1 0.020884 -0.000044 -0.002787 0.000000 0.000000 0.000000
# 2 -0.000044 0.020884 -0.002787 0.000000 0.000000 0.000000
# 3 -0.002787 -0.002787 0.008198 0.000000 0.000000 0.000000
# 4 0.000000 0.000000 0.000000 0.061619 0.000000 0.000000
# 5 0.000000 0.000000 0.000000 0.000000 0.061619 0.000000
# 6 0.000000 0.000000 0.000000 0.000000 0.000000 0.041858
#
#
# Mechanical properties :
#
#
# Convention : Reuss Voigt Hill
#
# Bulk Modulus (GPa) = 25.81950 34.61333 30.21642
# Shear Modulus (GPa) = 20.90227 24.35993 22.63110
#
# Velocity S-wave (km/s) = 3.39170 3.66149 3.52917
# Velocity P-wave (km/s) = 5.43580 6.07658 5.76510
#
# Compressibility (1/GPa) = 0.03873041
#
# Stress axis : x y z
#
# Youngs Moduli (GPa) = 47.88260 47.88260 121.97867
#
# Poissons Ratio (x) = 0.00213 0.33994
# Poissons Ratio (y) = 0.00213 0.33994
# Poissons Ratio (z) = 0.13344 0.13344
#
# Static dielectric constant tensor:
#      x y z
#    x 3.147380 0.000000 0.000000 
#    y 0.000000 3.147380 0.000000 
#    z 0.000000 0.000000 3.332720 
# 
# 
# High freq. dielectric constant tensor:
#      x y z
#    x 1.680830 0.000000 0.000000 
#    y 0.000000 1.680830 0.000000 
#    z 0.000000 0.000000 1.710750 
# 
# From -- ./inp_files/583.got.cif
#   From: 2010.03.12/outbox.cif.g09.slc.cpg/sg150_cif.got.tgz:583.got - 2010.04.03 13:41:37.
