data_PCOD8321637
_publ_section_title
;
Structure prediction by ZEFSAII (Michael W. Deem and Ramdas Pophale) SiO2 
 PCOD8321637
Probable space group: P -3
;
_chemical_formula_sum "Si O2"
_cell_formula_units_Z 18
_cell_length_a 11.772458
_cell_length_b 11.772458
_cell_length_c 7.499171
_cell_angle_alpha 90.000000
_cell_angle_beta 90.000000
_cell_angle_gamma 120.000000
_cell_volume 900.073940
_symmetry_space_group_name_H-M "P -3"
_symmetry_group_IT_number 147
_symmetry_cell_setting 'hexagonal'
loop_
_space_group_symop_operation_xyz
x,y,z
-y,x-y,z
-x+y,-x,z
-x,-y,-z
y,-x+y,-z
x-y,x,-z
loop_
_atom_site_type_symbol
_atom_site_label
_atom_site_fract_x
_atom_site_fract_y
_atom_site_fract_z
Si Si1 0.298726 0.200047 0.794797
Si Si2 0.492188 0.699205 0.500000
Si Si3 0.799952 0.098679 0.205202
O O1 0.426444 0.287068 0.677226
O O2 0.189178 0.237352 0.747297
O O3 0.237357 0.048175 0.747294
O O4 0.342332 0.229466 0.999999
O O5 0.445780 0.808668 0.499999
O O6 0.573553 0.712933 0.677230
#
# Coordination Sequence:
#
# PCOD8321637 Si02
#       3
#     6   6   6
#     4  10  21  38  62  89 114 143 184 238 294 340
#     4  10  24  40  54  80 120 156 196 228 266 330
#     4  10  21  38  62  89 114 143 184 238 294 340
#
# _framework density 19.998358
#
# number of rings (size 3 to 8) (size 9 to 14) (size 15 to 20)
#    0.667    1.333    0.000    2.667    0.000   10.667 
#    0.000   10.000    0.000    0.000    0.000    0.000 
#    0.000    0.000    0.000    0.000    0.000    0.000 
#
# Total GULP energy -223230.000748 kJ/mol
# GULP energy per Si atom -12401.666708 kJ/mol
# Density = 1.995284 g / cm^3
# Si number density = 19.998358 Si / 1000 Ang^3
#
#
#
# Elastic Constant Matrix: (Units=GPa)
#
#
# Indices 1 2 3 4 5 6 
#
# 1 54.4664 -26.8976 19.1130 0.0005 0.0007 0.0000
# 2 -26.8976 54.4664 19.1130 -0.0005 -0.0007 0.0000
# 3 19.1130 19.1130 90.8253 0.0000 0.0000 0.0000
# 4 0.0005 -0.0005 0.0000 14.2387 0.0000 -0.0007
# 5 0.0007 -0.0007 0.0000 0.0000 14.2387 0.0005
# 6 0.0000 0.0000 0.0000 -0.0007 0.0005 40.6820
#
#
#
# Elastic Compliance Matrix: (Units=1/GPa)
#
#
# Indices 1 2 3 4 5 6 
#
# 1 0.031754 0.019463 -0.010778 0.000000 -0.000001 0.000000
# 2 0.019463 0.031754 -0.010778 0.000000 0.000001 0.000000
# 3 -0.010778 -0.010778 0.015546 0.000000 0.000000 0.000000
# 4 0.000000 0.000000 0.000000 0.070231 0.000000 0.000001
# 5 -0.000001 0.000001 0.000000 0.000000 0.070231 -0.000001
# 6 0.000000 0.000000 0.000000 0.000001 -0.000001 0.024581
#
#
# Mechanical properties :
#
#
# Convention : Reuss Voigt Hill
#
# Bulk Modulus (GPa) = 13.35667 24.71274 19.03471
# Shear Modulus (GPa) = 18.29903 26.39387 22.34645
#
# Velocity S-wave (km/s) = 3.02822 3.63685 3.34640
# Velocity P-wave (km/s) = 4.34974 5.47903 4.94672
#
# Compressibility (1/GPa) = 0.07486893
#
# Stress axis : x y z
#
# Youngs Moduli (GPa) = 31.49223 31.49223 64.32393
#
# Poissons Ratio (x) = -0.61295 0.69328
# Poissons Ratio (y) = -0.61295 0.69328
# Poissons Ratio (z) = 0.33942 0.33942
#
# Static dielectric constant tensor:
#      x y z
#    x 3.551190 0.000000 0.000000 
#    y 0.000000 3.551190 0.000000 
#    z 0.000000 0.000000 3.645780 
# 
# 
# High freq. dielectric constant tensor:
#      x y z
#    x 1.780030 0.000000 0.000000 
#    y 0.000000 1.780030 0.000000 
#    z 0.000000 0.000000 1.790750 
# 
# From -- ./inp_files/331.got.cif
#   From: 2010.03.12/outbox.cif.g09.slc.cpg/sg147_cif.got.tgz:331.got - 2010.04.03 13:37:56.
