data_PCOD8321976
_publ_section_title
;
Structure prediction by ZEFSAII (Michael W. Deem and Ramdas Pophale) SiO2 
 PCOD8321976
Probable space group: P 31 1 2
;
_chemical_formula_sum "Si O2"
_cell_formula_units_Z 36
_cell_length_a 9.219202
_cell_length_b 9.219202
_cell_length_c 23.814889
_cell_angle_alpha 90.000000
_cell_angle_beta 90.000000
_cell_angle_gamma 120.000000
_cell_volume 1752.935172
_symmetry_space_group_name_H-M "P 31 1 2"
_symmetry_group_IT_number 151
_symmetry_cell_setting 'hexagonal'
loop_
_space_group_symop_operation_xyz
x,y,z
-y,x-y,1/3+z
-x+y,-x,2/3+z
-y,-x,2/3-z
-x+y,y,1/3-z
x,x-y,-z
loop_
_atom_site_type_symbol
_atom_site_label
_atom_site_fract_x
_atom_site_fract_y
_atom_site_fract_z
Si Si1 0.722847 0.499241 0.283101
Si Si2 0.751616 0.857764 0.435775
Si Si3 0.973571 0.742938 0.367014
Si Si4 0.456686 0.578789 0.267001
Si Si5 0.762879 0.187984 0.398899
Si Si6 0.433944 0.508875 0.897499
O O1 0.614837 0.385164 0.333334
O O2 0.867369 0.659428 0.312158
O O3 0.615515 0.560703 0.245796
O O4 0.791805 0.395476 0.246923
O O5 0.808416 0.904208 0.500000
O O6 0.889015 0.826867 0.404417
O O7 0.566664 0.699258 0.432465
O O8 0.733791 0.004814 0.407770
O O9 0.013030 0.623356 0.405071
O O10 0.135358 0.864643 0.333334
O O11 0.444586 0.555415 0.333334
O O12 0.474747 0.757619 0.256365
O O13 0.780024 0.219977 0.333334
O O14 0.928660 0.317508 0.431927
O O15 0.442672 0.557329 0.833334
#
# Coordination Sequence:
#
# PCOD8321976 Si02
#       6
#     6   6   6   6   6   6
#     4  10  20  42  68  91 118 163 223 259 308 373
#     4  12  25  42  65  97 134 170 214 274 332 379
#     4  12  25  43  68  95 130 171 221 269 315 394
#     4  11  22  42  68  91 130 171 216 263 316 391
#     4  11  22  41  69  94 122 170 224 256 317 395
#     4  12  25  42  65  98 135 166 208 273 334 379
#
# _framework density 20.536985000000001
#
# number of rings (size 3 to 8) (size 9 to 14) (size 15 to 20)
#    0.000    0.667    6.667    3.500    4.667    0.000 
#    0.000    0.000    0.000    0.000    0.000    0.000 
#    0.000    0.000    0.000    0.000    0.000    0.000 
#
# Total GULP energy -446161.460129 kJ/mol
# GULP energy per Si atom -12393.373892 kJ/mol
# Density = 2.049024 g / cm^3
# Si number density = 20.536985 Si / 1000 Ang^3
#
#
#
# Elastic Constant Matrix: (Units=GPa)
#
#
# Indices 1 2 3 4 5 6 
#
# 1 128.8764 52.4695 22.7984 -0.0001 4.0988 0.0000
# 2 52.4695 128.8764 22.7984 0.0001 -4.0988 0.0000
# 3 22.7984 22.7984 46.7400 0.0000 0.0000 0.0000
# 4 -0.0001 0.0001 0.0000 14.7490 0.0000 -4.0988
# 5 4.0988 -4.0988 0.0000 0.0000 14.7490 -0.0001
# 6 0.0000 0.0000 0.0000 -4.0988 -0.0001 38.2035
#
#
#
# Elastic Compliance Matrix: (Units=1/GPa)
#
#
# Indices 1 2 3 4 5 6 
#
# 1 0.009888 -0.003602 -0.003066 0.000000 -0.003749 0.000000
# 2 -0.003602 0.009888 -0.003066 0.000000 0.003749 0.000000
# 3 -0.003066 -0.003066 0.024386 0.000000 0.000000 0.000000
# 4 0.000000 0.000000 0.000000 0.069885 0.000000 0.007498
# 5 -0.003749 0.003749 0.000000 0.000000 0.069885 0.000000
# 6 0.000000 0.000000 0.000000 0.007498 0.000000 0.026980
#
#
# Mechanical properties :
#
#
# Convention : Reuss Voigt Hill
#
# Bulk Modulus (GPa) = 40.49707 55.62503 48.06105
# Shear Modulus (GPa) = 20.95473 27.30207 24.12840
#
# Velocity S-wave (km/s) = 3.19774 3.65006 3.43136
# Velocity P-wave (km/s) = 5.77893 6.70135 6.25716
#
# Compressibility (1/GPa) = 0.02469315
#
# Stress axis : x y z
#
# Youngs Moduli (GPa) = 101.13683 101.13683 41.00765
#
# Poissons Ratio (x) = 0.36434 0.12572
# Poissons Ratio (y) = 0.36434 0.12572
# Poissons Ratio (z) = 0.31006 0.31006
#
# Static dielectric constant tensor:
#      x y z
#    x 4.154370 0.000000 0.000000 
#    y 0.000000 4.154370 0.000000 
#    z 0.000000 0.000000 3.475880 
# 
# 
# High freq. dielectric constant tensor:
#      x y z
#    x 1.822950 0.000000 0.000000 
#    y 0.000000 1.822950 0.000000 
#    z 0.000000 0.000000 1.781150 
# 
# From -- ./inp_files/4674.got.cif
#   From: 2010.03.12/outbox.cif.g09.slc.cpg/sg151_3_cif.got.tgz:4674.got - 2010.04.03 13:42:29.
