data_PCOD8321795
_publ_section_title
;
Structure prediction by ZEFSAII (Michael W. Deem and Ramdas Pophale) SiO2 
 PCOD8321795
Probable space group: R -3
;
_chemical_formula_sum "Si O2"
_cell_formula_units_Z 66
_cell_length_a 13.698376
_cell_length_b 13.698376
_cell_length_c 18.093550
_cell_angle_alpha 90.000000
_cell_angle_beta 90.000000
_cell_angle_gamma 120.000000
_cell_volume 2940.306352
_symmetry_space_group_name_H-M "R -3"
_symmetry_group_IT_number 148
_symmetry_cell_setting 'hexagonal'
loop_
_space_group_symop_operation_xyz
x,y,z
-y,x-y,z
-x+y,-x,z
-x,-y,-z
y,-x+y,-z
x-y,x,-z
2/3+x,1/3+y,1/3+z
2/3-y,1/3+x-y,1/3+z
2/3-x+y,1/3-x,1/3+z
2/3-x,1/3-y,1/3-z
2/3+y,1/3-x+y,1/3-z
2/3+x-y,1/3+x,1/3-z
1/3+x,2/3+y,2/3+z
1/3-y,2/3+x-y,2/3+z
1/3-x+y,2/3-x,2/3+z
1/3-x,2/3-y,2/3-z
1/3+y,2/3-x+y,2/3-z
1/3+x-y,2/3+x,2/3-z
loop_
_atom_site_type_symbol
_atom_site_label
_atom_site_fract_x
_atom_site_fract_y
_atom_site_fract_z
Si Si1 0.345123 0.977724 0.997394
Si Si2 0.000000 0.000000 0.606372
Si Si3 0.666668 0.333335 0.551113
Si Si4 0.784875 0.599499 0.911358
Si Si5 0.250248 0.107799 0.774971
O O1 0.405952 0.052519 0.070401
O O2 0.225273 0.881042 0.026008
O O3 0.344676 0.054089 0.930888
O O4 0.402528 0.910426 0.963007
O O5 0.054399 0.129215 0.576249
O O6 0.000000 0.000000 0.693912
O O7 0.540080 0.289587 0.520618
O O8 0.837510 0.649211 0.830997
#
# Coordination Sequence:
#
# PCOD8321795 Si02
#       5
#    18   6   6  18  18
#     4  11  22  42  62  99 142 172 228 293 334 405
#     4  12  21  48  74  96 136 184 226 296 337 382
#     4  12  21  48  70  92 142 189 214 278 355 399
#     4  12  25  41  71 100 134 184 232 279 347 405
#     4  11  23  40  70 100 131 183 231 277 344 413
#
# _framework density 22.446641
#
# number of rings (size 3 to 8) (size 9 to 14) (size 15 to 20)
#    0.000    0.545    5.455    3.273    0.000    4.364 
#    0.000   13.636    0.000    2.182    0.000    0.000 
#    0.000    0.000    0.000    0.000    0.000    0.000 
#
# Total GULP energy -272632.768646 kJ/mol
# GULP energy per Si atom -12392.398575 kJ/mol
# Density = 2.239555 g / cm^3
# Si number density = 22.446641 Si / 1000 Ang^3
#
#
#
# Elastic Constant Matrix: (Units=GPa)
#
#
# Indices 1 2 3 4 5 6 
#
# 1 92.4257 37.9059 17.5418 7.0925 6.0662 0.0003
# 2 37.9059 92.4269 17.5417 -7.0925 -6.0663 0.0004
# 3 17.5418 17.5417 84.9250 0.0004 0.0000 0.0002
# 4 7.0925 -7.0925 0.0004 34.7446 0.0002 -6.0663
# 5 6.0662 -6.0663 0.0000 0.0002 34.7449 7.0925
# 6 0.0003 0.0004 0.0002 -6.0663 7.0925 27.2599
#
#
#
# Elastic Compliance Matrix: (Units=1/GPa)
#
#
# Indices 1 2 3 4 5 6 
#
# 1 0.014162 -0.006037 -0.001678 -0.004123 -0.003527 0.000000
# 2 -0.006037 0.014162 -0.001678 0.004123 0.003527 0.000000
# 3 -0.001678 -0.001678 0.012468 0.000000 0.000000 0.000000
# 4 -0.004123 0.004123 0.000000 0.031696 0.000000 0.007054
# 5 -0.003527 0.003527 0.000000 0.000000 0.031696 -0.008247
# 6 0.000000 0.000000 0.000000 0.007054 -0.008247 0.040399
#
#
# Mechanical properties :
#
#
# Convention : Reuss Voigt Hill
#
# Bulk Modulus (GPa) = 45.44498 46.19516 45.82007
# Shear Modulus (GPa) = 29.29008 32.46910 30.87959
#
# Velocity S-wave (km/s) = 3.61623 3.80742 3.71305
# Velocity P-wave (km/s) = 6.14214 6.32086 6.23214
#
# Compressibility (1/GPa) = 0.02200463
#
# Stress axis : x y z
#
# Youngs Moduli (GPa) = 70.61153 70.61245 80.20297
#
# Poissons Ratio (x) = 0.42632 0.13459
# Poissons Ratio (y) = 0.42631 0.13459
# Poissons Ratio (z) = 0.11850 0.11850
#
# Static dielectric constant tensor:
#      x y z
#    x 4.076900 0.000000 0.000000 
#    y 0.000000 4.076880 0.000010 
#    z 0.000000 0.000010 3.808730 
# 
# 
# High freq. dielectric constant tensor:
#      x y z
#    x 1.876220 0.000000 0.000000 
#    y 0.000000 1.876220 0.000000 
#    z 0.000000 0.000000 1.875880 
# 
# From -- ./inp_files/3027.got.cif
#   From: 2010.03.12/outbox.cif.g09.slc.cpg/sg148_2_cif.got.tgz:3027.got - 2010.04.03 13:38:46.
