data_PCOD8321568
_publ_section_title
;
Structure prediction by ZEFSAII (Michael W. Deem and Ramdas Pophale) SiO2 
 PCOD8321568
Probable space group: R 3
;
_chemical_formula_sum "Si O2"
_cell_formula_units_Z 51
_cell_length_a 10.502825
_cell_length_b 10.502825
_cell_length_c 21.949692
_cell_angle_alpha 90.000000
_cell_angle_beta 90.000000
_cell_angle_gamma 120.000000
_cell_volume 2096.869104
_symmetry_space_group_name_H-M "R 3"
_symmetry_group_IT_number 146
_symmetry_cell_setting 'hexagonal'
loop_
_space_group_symop_operation_xyz
x,y,z
-y,x-y,z
-x+y,-x,z
2/3+x,1/3+y,1/3+z
2/3-y,1/3+x-y,1/3+z
2/3-x+y,1/3-x,1/3+z
1/3+x,2/3+y,2/3+z
1/3-y,2/3+x-y,2/3+z
1/3-x+y,2/3-x,2/3+z
loop_
_atom_site_type_symbol
_atom_site_label
_atom_site_fract_x
_atom_site_fract_y
_atom_site_fract_z
Si Si1 0.342988 0.427784 0.327740
Si Si2 0.854458 0.180986 0.339637
Si Si3 0.753487 0.751600 0.597101
Si Si4 0.333334 0.666668 0.519865
Si Si5 0.787405 0.659831 0.470935
Si Si6 0.333334 0.666668 0.663052
Si Si7 0.868999 0.652142 0.129515
O O1 0.263564 0.251358 0.320608
O O2 0.225838 0.475898 0.309128
O O3 0.476570 0.496891 0.278547
O O4 0.409077 0.482700 0.394179
O O5 0.931219 0.189256 0.405302
O O6 0.751583 0.252129 0.355233
O O7 0.966419 0.253260 0.283933
O O8 0.799238 0.765577 0.526700
O O9 0.333334 0.666667 0.591396
O O10 0.443112 0.835819 0.501131
O O11 0.621992 0.524180 0.472070
O O12 0.917365 0.623072 0.482400
#
# Coordination Sequence:
#
# PCOD8321568 Si02
#       7
#     9   9   9   3   9   3   9
#     4  11  25  46  73 100 149 192 238 309 376 452
#     4  11  23  47  68 106 140 191 243 302 366 443
#     4  12  25  45  74 106 144 189 249 301 379 444
#     4  12  27  39  84 120 150 195 277 320 370 465
#     4  11  25  43  74 107 149 193 248 309 380 445
#     4  12  21  42  78  99 141 183 253 299 358 441
#     4  11  24  48  73 114 153 199 254 316 385 460
#
# _framework density 24.321974000000001
#
# number of rings (size 3 to 8) (size 9 to 14) (size 15 to 20)
#    0.000    0.706    3.529    3.882    4.941    0.000 
#    4.235    0.000    0.000    0.706    0.000    0.000 
#    0.000    0.000    0.000    0.000    0.000    0.000 
#
# Total GULP energy -210730.750185 kJ/mol
# GULP energy per Si atom -12395.926481 kJ/mol
# Density = 2.426662 g / cm^3
# Si number density = 24.321974 Si / 1000 Ang^3
#
#
#
# Elastic Constant Matrix: (Units=GPa)
#
#
# Indices 1 2 3 4 5 6 
#
# 1 68.4775 4.5744 33.4493 3.3259 2.5692 0.0001
# 2 4.5744 68.4783 33.4500 -3.3258 -2.5690 0.0001
# 3 33.4493 33.4500 150.1534 -0.0002 0.0001 -0.0001
# 4 3.3259 -3.3258 -0.0002 31.7133 -0.0001 -2.5691
# 5 2.5692 -2.5690 0.0001 -0.0001 31.7131 3.3260
# 6 0.0001 0.0001 -0.0001 -2.5691 3.3260 31.9518
#
#
#
# Elastic Compliance Matrix: (Units=1/GPa)
#
#
# Indices 1 2 3 4 5 6 
#
# 1 0.016562 0.000635 -0.003831 -0.001670 -0.001290 0.000000
# 2 0.000635 0.016562 -0.003831 0.001670 0.001290 0.000000
# 3 -0.003831 -0.003831 0.008367 0.000000 0.000000 0.000000
# 4 -0.001670 0.001670 0.000000 0.032092 0.000000 0.002580
# 5 -0.001290 0.001290 0.000000 0.000000 0.032092 -0.003341
# 6 0.000000 0.000000 0.000000 0.002580 -0.003341 0.031852
#
#
# Mechanical properties :
#
#
# Convention : Reuss Voigt Hill
#
# Bulk Modulus (GPa) = 36.44715 47.78408 42.11561
# Shear Modulus (GPa) = 31.10903 33.45135 32.28019
#
# Velocity S-wave (km/s) = 3.58026 3.71260 3.64703
# Velocity P-wave (km/s) = 5.66647 6.16985 5.92351
#
# Compressibility (1/GPa) = 0.02743699
#
# Stress axis : x y z
#
# Youngs Moduli (GPa) = 60.38015 60.38063 119.52106
#
# Poissons Ratio (x) = -0.03837 0.45788
# Poissons Ratio (y) = -0.03837 0.45789
# Poissons Ratio (z) = 0.23132 0.23132
#
# Static dielectric constant tensor:
#      x y z
#    x 4.448360 0.000000 0.000000 
#    y 0.000000 4.448340 0.000000 
#    z 0.000000 0.000000 4.498240 
# 
# 
# High freq. dielectric constant tensor:
#      x y z
#    x 1.958900 0.000000 0.000000 
#    y 0.000000 1.958900 0.000000 
#    z 0.000000 0.000000 1.979670 
# 
# From -- ./inp_files/1936.got.cif
#   From: 2010.06.25/outbox.cif.g09.slc.cpg/sg146_cif.got.tgz:1936.got - 2010.06.28 11:17:22.
