data_PCOD8321881
_publ_section_title
;
Structure prediction by ZEFSAII (Michael W. Deem and Ramdas Pophale) SiO2 
 PCOD8321881
Probable space group: P 3 2 1
;
_chemical_formula_sum "Si O2"
_cell_formula_units_Z 48
_cell_length_a 20.031972
_cell_length_b 20.031972
_cell_length_c 8.978603
_cell_angle_alpha 90.000000
_cell_angle_beta 90.000000
_cell_angle_gamma 120.000000
_cell_volume 3120.231449
_symmetry_space_group_name_H-M "P 3 2 1"
_symmetry_group_IT_number 150
_symmetry_cell_setting 'hexagonal'
loop_
_space_group_symop_operation_xyz
x,y,z
-y,x-y,z
-x+y,-x,z
x-y,-y,-z
-x,-x+y,-z
y,x,-z
loop_
_atom_site_type_symbol
_atom_site_label
_atom_site_fract_x
_atom_site_fract_y
_atom_site_fract_z
Si Si1 0.015990 0.444054 0.672918
Si Si2 0.316029 0.457037 0.735293
Si Si3 0.363667 0.544874 0.226906
Si Si4 0.817015 0.366290 0.273866
Si Si5 0.861975 0.321657 0.762127
Si Si6 0.418997 0.433433 0.174258
Si Si7 0.247033 0.746876 0.484553
Si Si8 0.746747 0.504602 0.015306
O O1 0.104262 0.466463 0.698572
O O2 0.000000 0.452493 0.500000
O O3 0.953756 0.358894 0.734961
O O4 0.003137 0.501417 0.773956
O O5 0.380669 0.547563 0.727400
O O6 0.354069 0.402413 0.743807
O O7 0.265681 0.439916 0.585855
O O8 0.263340 0.442848 0.880949
O O9 0.450483 0.613435 0.220475
O O10 0.358074 0.460689 0.215592
O O11 0.328340 0.551010 0.383464
O O12 0.313870 0.550635 0.091624
O O13 0.759870 0.317530 0.408332
O O14 0.778817 0.327396 0.117109
O O15 0.820202 0.268910 0.619450
O O16 0.832231 0.270874 0.912823
O O17 0.421314 0.421314 0.000000
#
# Coordination Sequence:
#
# PCOD8321881 Si02
#       8
#     6   6   6   6   6   6   6   6
#     4  10  20  32  52  60  76 102 148 184 204 245
#     4  10  20  34  46  61  82 108 142 171 215 260
#     4  10  20  34  46  61  82 108 142 171 215 260
#     4  10  20  34  46  61  82 108 142 171 215 260
#     4  10  20  34  46  61  82 108 142 171 215 260
#     4  10  20  32  52  60  76 102 148 184 204 245
#     4  10  20  32  42  62  86 102 128 171 222 263
#     4  10  20  32  42  62  86 102 128 171 222 263
#
# _framework density 15.383474
#
# number of rings (size 3 to 8) (size 9 to 14) (size 15 to 20)
#    0.000    2.000    2.500    1.500   10.500    0.000 
#   30.000    0.000    0.000    0.000    0.000    0.000 
#    0.000    0.000    0.000    0.000    0.000    0.000 
#
# Total GULP energy -594784.525472 kJ/mol
# GULP energy per Si atom -12391.344281 kJ/mol
# Density = 1.534846 g / cm^3
# Si number density = 15.383474 Si / 1000 Ang^3
#
#
#
# Elastic Constant Matrix: (Units=GPa)
#
#
# Indices 1 2 3 4 5 6 
#
# 1 60.6939 26.1179 27.4564 -1.3000 0.0000 0.0000
# 2 26.1179 60.6939 27.4564 1.3000 0.0000 0.0000
# 3 27.4564 27.4564 98.6835 0.0000 0.0000 0.0000
# 4 -1.3000 1.3000 0.0000 17.5972 0.0000 0.0000
# 5 0.0000 0.0000 0.0000 0.0000 17.5972 -1.3000
# 6 0.0000 0.0000 0.0000 0.0000 -1.3000 17.2880
#
#
#
# Elastic Compliance Matrix: (Units=1/GPa)
#
#
# Indices 1 2 3 4 5 6 
#
# 1 0.021531 -0.007552 -0.003889 0.002149 0.000000 0.000000
# 2 -0.007552 0.021531 -0.003889 -0.002149 0.000000 0.000000
# 3 -0.003889 -0.003889 0.012298 0.000000 0.000000 0.000000
# 4 0.002149 -0.002149 0.000000 0.057145 0.000000 0.000000
# 5 0.000000 0.000000 0.000000 0.000000 0.057145 0.004297
# 6 0.000000 0.000000 0.000000 0.000000 0.004297 0.058167
#
#
# Mechanical properties :
#
#
# Convention : Reuss Voigt Hill
#
# Bulk Modulus (GPa) = 40.48786 42.45920 41.47353
# Shear Modulus (GPa) = 18.74685 19.76584 19.25635
#
# Velocity S-wave (km/s) = 3.49468 3.58840 3.54185
# Velocity P-wave (km/s) = 6.53146 6.69547 6.61397
#
# Compressibility (1/GPa) = 0.02469876
#
# Stress axis : x y z
#
# Youngs Moduli (GPa) = 46.44383 46.44383 81.31603
#
# Poissons Ratio (x) = 0.35074 0.31627
# Poissons Ratio (y) = 0.35074 0.31627
# Poissons Ratio (z) = 0.18064 0.18064
#
# Static dielectric constant tensor:
#      x y z
#    x 3.059200 0.000000 0.000000 
#    y 0.000000 3.059200 0.000000 
#    z 0.000000 0.000000 3.273830 
# 
# 
# High freq. dielectric constant tensor:
#      x y z
#    x 1.547360 0.000000 0.000000 
#    y 0.000000 1.547360 0.000000 
#    z 0.000000 0.000000 1.621790 
# 
# From -- ./inp_files/792.got.cif
#   From: 2010.03.12/outbox.cif.g09.slc.cpg/sg150_cif.got.tgz:792.got - 2010.04.03 13:41:37.
