data_PCOD8321442
_publ_section_title
;
Structure prediction by ZEFSAII (Michael W. Deem and Ramdas Pophale) SiO2 
 PCOD8321442
Probable space group: P 31
;
_chemical_formula_sum "Si O2"
_cell_formula_units_Z 18
_cell_length_a 12.365186
_cell_length_b 12.365186
_cell_length_c 5.409690
_cell_angle_alpha 90.000000
_cell_angle_beta 90.000000
_cell_angle_gamma 120.000000
_cell_volume 716.315448
_symmetry_space_group_name_H-M "P 31"
_symmetry_group_IT_number 144
_symmetry_cell_setting 'hexagonal'
loop_
_space_group_symop_operation_xyz
x,y,z
-y,x-y,1/3+z
-x+y,-x,2/3+z
loop_
_atom_site_type_symbol
_atom_site_label
_atom_site_fract_x
_atom_site_fract_y
_atom_site_fract_z
Si Si1 0.165768 0.464923 0.832780
Si Si2 0.878295 0.921489 0.498234
Si Si3 0.722832 0.467485 0.718943
Si Si4 0.929688 0.682456 0.020084
Si Si5 0.353720 0.076155 0.702671
Si Si6 0.530456 0.820619 0.649440
O O1 0.207674 0.468794 0.549853
O O2 0.014910 0.377416 0.831466
O O3 0.211612 0.602358 0.934501
O O4 0.218602 0.412636 0.052499
O O5 0.769090 0.777771 0.510663
O O6 0.008400 0.926538 0.571115
O O7 0.836389 0.004249 0.659020
O O8 0.625502 0.391059 0.935122
O O9 0.845460 0.596147 0.796321
O O10 0.655615 0.519542 0.533581
O O11 0.840796 0.645428 0.254533
O O12 0.036745 0.648232 0.069528
#
# Coordination Sequence:
#
# PCOD8321442 Si02
#       6
#     3   3   3   3   3   3
#     4  12  29  52  83 118 158 213 272 341 413 488
#     4  12  24  46  76 118 160 200 256 328 418 494
#     4  12  30  54  78 112 160 218 286 344 406 490
#     4  12  29  47  78 116 162 210 265 337 414 499
#     4  12  29  47  78 116 162 210 265 337 414 499
#     4  12  29  52  83 118 158 213 272 341 413 488
#
# _framework density 25.128592999999999
#
# number of rings (size 3 to 8) (size 9 to 14) (size 15 to 20)
#    0.000    0.000    5.000    3.000   16.333    0.000 
#    0.000    0.000    0.000    0.000    0.000    0.000 
#    0.000    0.000    0.000    0.000    0.000    0.000 
#
# Total GULP energy -223011.349959 kJ/mol
# GULP energy per Si atom -12389.519442 kJ/mol
# Density = 2.507140 g / cm^3
# Si number density = 25.128593 Si / 1000 Ang^3
#
#
#
# Elastic Constant Matrix: (Units=GPa)
#
#
# Indices 1 2 3 4 5 6 
#
# 1 95.2170 16.1380 13.4234 -1.9381 2.3708 0.0000
# 2 16.1380 95.2170 13.4234 1.9381 -2.3708 0.0000
# 3 13.4234 13.4234 89.0115 0.0000 0.0000 0.0000
# 4 -1.9381 1.9381 0.0000 37.4864 0.0000 -2.3708
# 5 2.3708 -2.3708 0.0000 0.0000 37.4864 -1.9381
# 6 0.0000 0.0000 0.0000 -2.3708 -1.9381 39.5395
#
#
#
# Elastic Compliance Matrix: (Units=1/GPa)
#
#
# Indices 1 2 3 4 5 6 
#
# 1 0.011023 -0.001703 -0.001405 0.000658 -0.000805 0.000000
# 2 -0.001703 0.011023 -0.001405 -0.000658 0.000805 0.000000
# 3 -0.001405 -0.001405 0.011658 0.000000 0.000000 0.000000
# 4 0.000658 -0.000658 0.000000 0.026846 0.000000 0.001610
# 5 -0.000805 0.000805 0.000000 0.000000 0.026846 0.001316
# 6 0.000000 0.000000 0.000000 0.001610 0.001316 0.025452
#
#
# Mechanical properties :
#
#
# Convention : Reuss Voigt Hill
#
# Bulk Modulus (GPa) = 40.52664 40.60167 40.56415
# Shear Modulus (GPa) = 38.43151 38.66653 38.54902
#
# Velocity S-wave (km/s) = 3.91499 3.92694 3.92097
# Velocity P-wave (km/s) = 6.04970 6.06249 6.05610
#
# Compressibility (1/GPa) = 0.02467513
#
# Stress axis : x y z
#
# Youngs Moduli (GPa) = 90.72273 90.72273 85.77526
#
# Poissons Ratio (x) = 0.15454 0.12055
# Poissons Ratio (y) = 0.15454 0.12055
# Poissons Ratio (z) = 0.12750 0.12750
#
# Static dielectric constant tensor:
#      x y z
#    x 4.744460 0.000000 0.000000 
#    y 0.000000 4.744460 0.000000 
#    z 0.000000 0.000000 4.312420 
# 
# 
# High freq. dielectric constant tensor:
#      x y z
#    x 2.013470 0.000000 0.000000 
#    y 0.000000 2.013470 0.000000 
#    z 0.000000 0.000000 1.988960 
# 
# From -- ./inp_files/118.got.cif
#   From: 2010.03.12/outbox.cif.g09.slc.cpg/sg144_cif.got.tgz:118.got - 2010.04.03 13:34:42.
