data_PCOD8321221
_publ_section_title
;
Structure prediction by ZEFSAII (Michael W. Deem and Ramdas Pophale) SiO2 
 PCOD8321221
Probable space group: I 41/A C D
;
_chemical_formula_sum "Si O2"
_cell_formula_units_Z 160
_cell_length_a 18.516626
_cell_length_b 18.516626
_cell_length_c 22.933587
_cell_angle_alpha 90.000000
_cell_angle_beta 90.000000
_cell_angle_gamma 90.000000
_cell_volume 7863.134361
_symmetry_space_group_name_H-M "I 41/A C D"
_symmetry_group_IT_number 142
_space_group.IT_coordinate_system_code '2'
_symmetry_cell_setting 'tetragonal'
loop_
_space_group_symop_operation_xyz
x,y,z
1/4-y,3/4+x,1/4+z
-x,1/2-y,z
1/4+y,1/4-x,3/4+z
x,-y,1/2-z
1/2-x,y,-z
3/4+y,1/4+x,1/4-z
1/4-y,1/4-x,1/4-z
-x,-y,-z
3/4+y,1/4-x,3/4-z
x,1/2+y,-z
3/4-y,3/4+x,1/4-z
-x,y,1/2+z
1/2+x,-y,z
1/4-y,3/4-x,3/4+z
3/4+y,3/4+x,3/4+z
1/2+x,1/2+y,1/2+z
3/4-y,1/4+x,3/4+z
1/2-x,-y,1/2+z
3/4+y,3/4-x,1/4+z
1/2+x,1/2-y,-z
-x,1/2+y,1/2-z
1/4+y,3/4+x,3/4-z
3/4-y,3/4-x,3/4-z
1/2-x,1/2-y,1/2-z
1/4+y,3/4-x,1/4-z
1/2+x,y,1/2-z
1/4-y,1/4+x,3/4-z
1/2-x,1/2+y,z
x,1/2-y,1/2+z
3/4-y,1/4-x,1/4+z
1/4+y,1/4+x,1/4+z
loop_
_atom_site_type_symbol
_atom_site_label
_atom_site_fract_x
_atom_site_fract_y
_atom_site_fract_z
Si Si1 0.332559 0.962095 0.368310
Si Si2 0.599577 0.407980 0.315635
Si Si3 0.084435 0.061551 0.463314
Si Si4 0.423811 0.710806 0.060812
Si Si5 0.427345 0.582998 0.976354
O O1 0.314642 0.884361 0.343021
O O2 0.369163 0.944265 0.429732
O O3 0.260024 0.010024 0.375000
O O4 0.386501 0.006266 0.324971
O O5 0.617031 0.367031 0.375000
O O6 0.650693 0.375029 0.266617
O O7 0.516084 0.392701 0.303524
O O8 0.006951 0.098132 0.448951
O O9 0.067296 0.978372 0.474936
O O10 0.500000 0.750000 0.048489
O O11 0.424759 0.674759 0.125000
O O12 0.404039 0.654433 0.010427
#
# Coordination Sequence:
#
# PCOD8321221 Si02
#       5
#    32  32  32  32  32
#     4  11  25  44  67  96 136 180 223 276 343 413
#     4  11  19  40  69  94 126 178 220 264 337 408
#     4  11  23  42  66  92 131 179 219 272 340 402
#     4  11  21  38  67 102 130 167 220 282 326 398
#     4  11  24  42  68  97 135 173 223 282 338 392
#
# _framework density 20.348119000000001
#
# number of rings (size 3 to 8) (size 9 to 14) (size 15 to 20)
#    0.000    1.000    8.000    0.600    2.800    2.400 
#    0.000    0.000    0.000    0.000    0.000    0.000 
#    0.000    0.000    0.000    0.000    0.000    0.000 
#
# Total GULP energy -991749.644242 kJ/mol
# GULP energy per Si atom -12396.870553 kJ/mol
# Density = 2.030181 g / cm^3
# Si number density = 20.348119 Si / 1000 Ang^3
#
#
#
# Elastic Constant Matrix: (Units=GPa)
#
#
# Indices 1 2 3 4 5 6 
#
# 1 91.7919 50.1471 33.4400 0.0000 0.0000 0.0000
# 2 50.1471 91.7919 33.4400 0.0000 0.0000 0.0000
# 3 33.4400 33.4400 68.3798 0.0000 0.0000 0.0000
# 4 0.0000 0.0000 0.0000 35.6553 0.0000 0.0000
# 5 0.0000 0.0000 0.0000 0.0000 35.6553 0.0000
# 6 0.0000 0.0000 0.0000 0.0000 0.0000 30.4438
#
#
#
# Elastic Compliance Matrix: (Units=1/GPa)
#
#
# Indices 1 2 3 4 5 6 
#
# 1 0.016584 -0.007429 -0.004477 0.000000 0.000000 0.000000
# 2 -0.007429 0.016584 -0.004477 0.000000 0.000000 0.000000
# 3 -0.004477 -0.004477 0.019003 0.000000 0.000000 0.000000
# 4 0.000000 0.000000 0.000000 0.028046 0.000000 0.000000
# 5 0.000000 0.000000 0.000000 0.000000 0.028046 0.000000
# 6 0.000000 0.000000 0.000000 0.000000 0.000000 0.032847
#
#
# Mechanical properties :
#
#
# Convention : Reuss Voigt Hill
#
# Bulk Modulus (GPa) = 51.53418 54.00197 52.76807
# Shear Modulus (GPa) = 27.72474 29.34665 28.53569
#
# Velocity S-wave (km/s) = 3.69524 3.80179 3.74889
# Velocity P-wave (km/s) = 6.60209 6.77260 6.68789
#
# Compressibility (1/GPa) = 0.01940460
#
# Stress axis : x y z
#
# Youngs Moduli (GPa) = 60.30028 60.30028 52.62332
#
# Poissons Ratio (x) = 0.44796 0.23559
# Poissons Ratio (y) = 0.44796 0.23559
# Poissons Ratio (z) = 0.26996 0.26996
#
# Static dielectric constant tensor:
#      x y z
#    x 3.873710 0.000000 0.000000 
#    y 0.000000 3.873710 0.000000 
#    z 0.000000 0.000000 4.347540 
# 
# 
# High freq. dielectric constant tensor:
#      x y z
#    x 1.794670 0.000000 0.000000 
#    y 0.000000 1.794670 0.000000 
#    z 0.000000 0.000000 1.784350 
# 
# From -- ./inp_files/11312.got.cif
#   From: 2010.03.12/outbox.cif.g09.slc.cpg/sg142_6_cif.got.tgz:11312.got - 2010.04.03 13:27:16.
