data_PCOD8321812
_publ_section_title
;
Structure prediction by ZEFSAII (Michael W. Deem and Ramdas Pophale) SiO2 
 PCOD8321812
Probable space group: R -3
;
_chemical_formula_sum "Si O2"
_cell_formula_units_Z 72
_cell_length_a 11.597930
_cell_length_b 11.597930
_cell_length_c 26.506771
_cell_angle_alpha 90.000000
_cell_angle_beta 90.000000
_cell_angle_gamma 120.000000
_cell_volume 3087.794748
_symmetry_space_group_name_H-M "R -3"
_symmetry_group_IT_number 148
_symmetry_cell_setting 'hexagonal'
loop_
_space_group_symop_operation_xyz
x,y,z
-y,x-y,z
-x+y,-x,z
-x,-y,-z
y,-x+y,-z
x-y,x,-z
2/3+x,1/3+y,1/3+z
2/3-y,1/3+x-y,1/3+z
2/3-x+y,1/3-x,1/3+z
2/3-x,1/3-y,1/3-z
2/3+y,1/3-x+y,1/3-z
2/3+x-y,1/3+x,1/3-z
1/3+x,2/3+y,2/3+z
1/3-y,2/3+x-y,2/3+z
1/3-x+y,2/3-x,2/3+z
1/3-x,2/3-y,2/3-z
1/3+y,2/3-x+y,2/3-z
1/3+x-y,2/3+x,2/3-z
loop_
_atom_site_type_symbol
_atom_site_label
_atom_site_fract_x
_atom_site_fract_y
_atom_site_fract_z
Si Si1 0.280683 0.208894 0.889868
Si Si2 0.363870 0.426860 0.116286
Si Si3 0.060336 0.590538 0.951340
Si Si4 0.000000 0.000000 0.558801
Si Si5 0.666668 0.333334 0.477364
Si Si6 0.333334 0.666668 0.931010
O O1 0.308676 0.088191 0.902343
O O2 0.379276 0.293738 0.843578
O O3 0.322376 0.313460 0.935979
O O4 0.124407 0.139075 0.876460
O O5 0.491172 0.429169 0.092198
O O6 0.376397 0.560972 0.091355
O O7 0.218170 0.691166 0.955014
O O8 0.000000 0.500000 0.000000
O O9 0.000000 0.000000 0.500000
O O10 0.666668 0.333334 0.537154
#
# Coordination Sequence:
#
# PCOD8321812 Si02
#       6
#    18  18  18   6   6   6
#     4  12  24  44  72 108 141 195 249 306 364 447
#     4  12  20  39  71 101 140 185 246 299 362 429
#     4  12  29  45  70 108 152 193 240 313 379 438
#     4  12  15  31  65 109 126 171 232 296 352 408
#     4  12  27  45  76 107 148 196 251 307 369 451
#     4  12  27  49  70 111 149 194 258 307 367 442
#
# _framework density 23.317610999999999
#
# number of rings (size 3 to 8) (size 9 to 14) (size 15 to 20)
#    0.000    0.000   10.000    0.000    7.000    2.000 
#    0.000    0.000    0.000    1.500    0.000    0.000 
#    0.000    0.000    0.000    0.000    0.000    0.000 
#
# Total GULP energy -297388.421509 kJ/mol
# GULP energy per Si atom -12391.184230 kJ/mol
# Density = 2.326454 g / cm^3
# Si number density = 23.317611 Si / 1000 Ang^3
#
#
#
# Elastic Constant Matrix: (Units=GPa)
#
#
# Indices 1 2 3 4 5 6 
#
# 1 115.6289 33.5714 25.0196 -6.4282 -5.2451 0.0000
# 2 33.5714 115.6279 25.0196 6.4282 5.2448 0.0003
# 3 25.0196 25.0196 82.8373 -0.0003 0.0001 0.0000
# 4 -6.4282 6.4282 -0.0003 29.6543 0.0002 5.2450
# 5 -5.2451 5.2448 0.0001 0.0002 29.6549 -6.4283
# 6 0.0000 0.0003 0.0000 5.2450 -6.4283 41.0278
#
#
#
# Elastic Compliance Matrix: (Units=1/GPa)
#
#
# Indices 1 2 3 4 5 6 
#
# 1 0.010188 -0.002730 -0.002253 0.002800 0.002285 0.000000
# 2 -0.002730 0.010188 -0.002253 -0.002800 -0.002285 0.000000
# 3 -0.002253 -0.002253 0.013433 0.000000 0.000000 0.000000
# 4 0.002800 -0.002800 0.000000 0.035744 0.000000 -0.004570
# 5 0.002285 -0.002285 0.000000 0.000000 0.035743 0.005600
# 6 0.000000 0.000000 0.000000 -0.004570 0.005600 0.025835
#
#
# Mechanical properties :
#
#
# Convention : Reuss Voigt Hill
#
# Bulk Modulus (GPa) = 51.71116 53.47949 52.59533
# Shear Modulus (GPa) = 32.88468 35.43295 34.15881
#
# Velocity S-wave (km/s) = 3.75946 3.90241 3.83160
# Velocity P-wave (km/s) = 6.40857 6.57952 6.49461
#
# Compressibility (1/GPa) = 0.01933818
#
# Stress axis : x y z
#
# Youngs Moduli (GPa) = 98.15849 98.15760 74.44610
#
# Poissons Ratio (x) = 0.26795 0.16769
# Poissons Ratio (y) = 0.26795 0.16769
# Poissons Ratio (z) = 0.22110 0.22111
#
# Static dielectric constant tensor:
#      x y z
#    x 3.791140 0.000000 0.000000 
#    y 0.000000 3.791170 0.000000 
#    z 0.000000 0.000000 3.777170 
# 
# 
# High freq. dielectric constant tensor:
#      x y z
#    x 1.929490 0.000000 0.000000 
#    y 0.000000 1.929490 0.000000 
#    z 0.000000 0.000000 1.883610 
# 
# From -- ./inp_files/3953.got.cif
#   From: 2010.03.12/outbox.cif.g09.slc.cpg/sg148_2_cif.got.tgz:3953.got - 2010.04.03 13:38:46.
