data_PCOD8321177
_publ_section_title
;
Structure prediction by ZEFSAII (Michael W. Deem and Ramdas Pophale) SiO2 
 PCOD8321177
Probable space group: I 41/A C D
;
_chemical_formula_sum "Si O2"
_cell_formula_units_Z 128
_cell_length_a 14.829138
_cell_length_b 14.829138
_cell_length_c 24.272624
_cell_angle_alpha 90.000000
_cell_angle_beta 90.000000
_cell_angle_gamma 90.000000
_cell_volume 5337.630938
_symmetry_space_group_name_H-M "I 41/A C D"
_symmetry_group_IT_number 142
_space_group.IT_coordinate_system_code '2'
_symmetry_cell_setting 'tetragonal'
loop_
_space_group_symop_operation_xyz
x,y,z
1/4-y,3/4+x,1/4+z
-x,1/2-y,z
1/4+y,1/4-x,3/4+z
x,-y,1/2-z
1/2-x,y,-z
3/4+y,1/4+x,1/4-z
1/4-y,1/4-x,1/4-z
-x,-y,-z
3/4+y,1/4-x,3/4-z
x,1/2+y,-z
3/4-y,3/4+x,1/4-z
-x,y,1/2+z
1/2+x,-y,z
1/4-y,3/4-x,3/4+z
3/4+y,3/4+x,3/4+z
1/2+x,1/2+y,1/2+z
3/4-y,1/4+x,3/4+z
1/2-x,-y,1/2+z
3/4+y,3/4-x,1/4+z
1/2+x,1/2-y,-z
-x,1/2+y,1/2-z
1/4+y,3/4+x,3/4-z
3/4-y,3/4-x,3/4-z
1/2-x,1/2-y,1/2-z
1/4+y,3/4-x,1/4-z
1/2+x,y,1/2-z
1/4-y,1/4+x,3/4-z
1/2-x,1/2+y,z
x,1/2-y,1/2+z
3/4-y,1/4-x,1/4+z
1/4+y,1/4+x,1/4+z
loop_
_atom_site_type_symbol
_atom_site_label
_atom_site_fract_x
_atom_site_fract_y
_atom_site_fract_z
Si Si1 0.933368 0.907307 0.721552
Si Si2 0.988851 0.145693 0.560660
Si Si3 0.253432 0.634474 0.863773
Si Si4 0.351905 0.889429 0.990307
O O1 0.888245 0.826455 0.756454
O O2 0.039144 0.894154 0.717362
O O3 0.904953 0.000000 0.750000
O O4 0.902342 0.918060 0.658361
O O5 0.953414 0.083538 0.611918
O O6 0.000000 0.250000 0.579306
O O7 0.087095 0.105552 0.545185
O O8 0.215682 0.534319 0.875000
O O9 0.295957 0.645822 0.804265
O O10 0.250000 0.921441 0.000000
#
# Coordination Sequence:
#
# PCOD8321177 Si02
#       4
#    32  32  32  32
#     4  10  22  45  64  98 137 177 226 280 347 412
#     4  10  23  47  69  95 140 181 226 285 343 413
#     4  12  25  39  71  98 132 182 225 283 347 415
#     4  10  25  44  67  98 134 176 229 290 337 409
#
# _framework density 23.980677
#
# number of rings (size 3 to 8) (size 9 to 14) (size 15 to 20)
#    0.000    1.500    2.500    0.750    7.000    2.500 
#    0.000    0.000    0.000    0.000    0.000    0.000 
#    0.000    0.000    0.000    0.000    0.000    0.000 
#
# Total GULP energy -793297.729023 kJ/mol
# GULP energy per Si atom -12395.277016 kJ/mol
# Density = 2.392610 g / cm^3
# Si number density = 23.980677 Si / 1000 Ang^3
#
#
#
# Elastic Constant Matrix: (Units=GPa)
#
#
# Indices 1 2 3 4 5 6 
#
# 1 71.3617 12.5711 21.2460 0.0000 0.0000 0.0000
# 2 12.5711 71.3620 21.2458 0.0000 0.0000 0.0000
# 3 21.2460 21.2458 74.0715 0.0000 0.0000 0.0000
# 4 0.0000 0.0000 0.0000 -28.7148 0.0000 0.0000
# 5 0.0000 0.0000 0.0000 0.0000 -28.6950 0.0000
# 6 0.0000 0.0000 0.0000 0.0000 0.0000 15.5688
#
#
#
# Elastic Compliance Matrix: (Units=1/GPa)
#
#
# Indices 1 2 3 4 5 6 
#
# 1 0.015474 -0.001536 -0.003998 0.000000 0.000000 0.000000
# 2 -0.001536 0.015474 -0.003998 0.000000 0.000000 0.000000
# 3 -0.003998 -0.003998 0.015794 0.000000 0.000000 0.000000
# 4 0.000000 0.000000 0.000000 -0.034825 0.000000 0.000000
# 5 0.000000 0.000000 0.000000 0.000000 -0.034849 0.000000
# 6 0.000000 0.000000 0.000000 0.000000 0.000000 0.064231
#
#
# Mechanical properties :
#
#
# Convention : Reuss Voigt Hill
#
# Bulk Modulus (GPa) = 36.12876 36.32457 36.22666
# Shear Modulus (GPa) = 71.85204 2.41394 37.13299
#
# Velocity S-wave (km/s) = 5.47974 1.00439 3.93931
# Velocity P-wave (km/s) = 7.42531 4.06514 5.98584
#
# Compressibility (1/GPa) = 0.02767878
#
# Stress axis : x y z
#
# Youngs Moduli (GPa) = 64.62488 64.62530 63.31559
#
# Poissons Ratio (x) = 0.09924 0.25313
# Poissons Ratio (y) = 0.09924 0.25313
# Poissons Ratio (z) = 0.25837 0.25836
#
# Static dielectric constant tensor:
#      x y z
#    x 4.493830 0.000000 0.000000 
#    y 0.000000 4.493820 0.000000 
#    z 0.000000 0.000000 4.277320 
# 
# 
# High freq. dielectric constant tensor:
#      x y z
#    x 1.952360 0.000000 0.000000 
#    y 0.000000 1.952360 0.000000 
#    z 0.000000 0.000000 1.942820 
# 
# From -- ./inp_files/9957.got.cif
#   From: 2010.03.12/outbox.cif.g09.slc.cpg/sg142_5_cif.got.tgz:9957.got - 2010.04.03 13:27:16.
