data_PCOD8321113
_publ_section_title
;
Structure prediction by ZEFSAII (Michael W. Deem and Ramdas Pophale) SiO2 
 PCOD8321113
Probable space group: I 41/A C D
;
_chemical_formula_sum "Si O2"
_cell_formula_units_Z 136
_cell_length_a 22.575250
_cell_length_b 22.575250
_cell_length_c 13.060018
_cell_angle_alpha 90.000000
_cell_angle_beta 90.000000
_cell_angle_gamma 90.000000
_cell_volume 6655.932552
_symmetry_space_group_name_H-M "I 41/A C D"
_symmetry_group_IT_number 142
_space_group.IT_coordinate_system_code '2'
_symmetry_cell_setting 'tetragonal'
loop_
_space_group_symop_operation_xyz
x,y,z
1/4-y,3/4+x,1/4+z
-x,1/2-y,z
1/4+y,1/4-x,3/4+z
x,-y,1/2-z
1/2-x,y,-z
3/4+y,1/4+x,1/4-z
1/4-y,1/4-x,1/4-z
-x,-y,-z
3/4+y,1/4-x,3/4-z
x,1/2+y,-z
3/4-y,3/4+x,1/4-z
-x,y,1/2+z
1/2+x,-y,z
1/4-y,3/4-x,3/4+z
3/4+y,3/4+x,3/4+z
1/2+x,1/2+y,1/2+z
3/4-y,1/4+x,3/4+z
1/2-x,-y,1/2+z
3/4+y,3/4-x,1/4+z
1/2+x,1/2-y,-z
-x,1/2+y,1/2-z
1/4+y,3/4+x,3/4-z
3/4-y,3/4-x,3/4-z
1/2-x,1/2-y,1/2-z
1/4+y,3/4-x,1/4-z
1/2+x,y,1/2-z
1/4-y,1/4+x,3/4-z
1/2-x,1/2+y,z
x,1/2-y,1/2+z
3/4-y,1/4-x,1/4+z
1/4+y,1/4+x,1/4+z
loop_
_atom_site_type_symbol
_atom_site_label
_atom_site_fract_x
_atom_site_fract_y
_atom_site_fract_z
Si Si1 0.725750 0.628495 0.384377
Si Si2 0.306023 0.244511 0.570054
Si Si3 0.000000 0.750000 0.625000
Si Si4 0.586340 0.803801 0.019661
Si Si5 0.320616 0.869697 0.791564
O O1 0.750000 0.625094 0.500000
O O2 0.701482 0.695046 0.364887
O O3 0.673751 0.578580 0.377005
O O4 0.771961 0.614811 0.294232
O O5 0.250000 0.230918 0.500000
O O6 0.364374 0.251957 0.497186
O O7 0.309430 0.191201 0.649980
O O8 0.950133 0.784646 0.686945
O O9 0.550032 0.800032 0.125000
O O10 0.617807 0.867087 0.017088
#
# Coordination Sequence:
#
# PCOD8321113 Si02
#       5
#    32  32   8  32  32
#     4  10  21  38  63  89 119 167 214 264 324 390
#     4  10  21  39  61  92 123 163 211 259 326 386
#     4  12  22  40  56 102 132 160 202 264 336 374
#     4  11  22  39  64  91 130 165 206 259 322 392
#     4  11  21  40  63  90 125 164 217 269 316 386
#
# _framework density 20.432898000000002
#
# number of rings (size 3 to 8) (size 9 to 14) (size 15 to 20)
#    0.000    1.412    2.353    6.000    0.000    0.000 
#    0.000    4.706    0.000    0.000    0.000    0.000 
#    0.000    0.000    0.000    0.000    0.000    0.000 
#
# Total GULP energy -842772.973554 kJ/mol
# GULP energy per Si atom -12393.720199 kJ/mol
# Density = 2.038639 g / cm^3
# Si number density = 20.432898 Si / 1000 Ang^3
#
#
#
# Elastic Constant Matrix: (Units=GPa)
#
#
# Indices 1 2 3 4 5 6 
#
# 1 106.2242 58.2865 64.2975 0.0000 0.0000 0.0000
# 2 58.2865 106.2242 64.2975 0.0000 0.0000 0.0000
# 3 64.2975 64.2975 120.8653 0.0000 0.0000 0.0000
# 4 0.0000 0.0000 0.0000 32.3788 0.0000 0.0000
# 5 0.0000 0.0000 0.0000 0.0000 32.3788 0.0000
# 6 0.0000 0.0000 0.0000 0.0000 0.0000 31.2840
#
#
#
# Elastic Compliance Matrix: (Units=1/GPa)
#
#
# Indices 1 2 3 4 5 6 
#
# 1 0.015633 -0.005227 -0.005536 0.000000 0.000000 0.000000
# 2 -0.005227 0.015633 -0.005536 0.000000 0.000000 0.000000
# 3 -0.005536 -0.005536 0.014163 0.000000 0.000000 0.000000
# 4 0.000000 0.000000 0.000000 0.030884 0.000000 0.000000
# 5 0.000000 0.000000 0.000000 0.000000 0.030884 0.000000
# 6 0.000000 0.000000 0.000000 0.000000 0.000000 0.031965
#
#
# Mechanical properties :
#
#
# Convention : Reuss Voigt Hill
#
# Bulk Modulus (GPa) = 77.92819 78.56408 78.24613
# Shear Modulus (GPa) = 28.40299 28.97049 28.68674
#
# Velocity S-wave (km/s) = 3.73240 3.76950 3.75100
# Velocity P-wave (km/s) = 7.53630 7.58148 7.55892
#
# Compressibility (1/GPa) = 0.01283233
#
# Stress axis : x y z
#
# Youngs Moduli (GPa) = 63.96706 63.96706 70.60509
#
# Poissons Ratio (x) = 0.33438 0.39084
# Poissons Ratio (y) = 0.33438 0.39084
# Poissons Ratio (z) = 0.35410 0.35410
#
# Static dielectric constant tensor:
#      x y z
#    x 3.897500 0.000000 0.000000 
#    y 0.000000 3.897500 0.000000 
#    z 0.000000 0.000000 3.489570 
# 
# 
# High freq. dielectric constant tensor:
#      x y z
#    x 1.801690 0.000000 0.000000 
#    y 0.000000 1.801690 0.000000 
#    z 0.000000 0.000000 1.781920 
# 
# From -- ./inp_files/3589.got.cif
#   From: 2010.03.12/outbox.cif.g09.slc.cpg/sg142_2_cif.got.tgz:3589.got - 2010.04.03 13:27:16.
