data_PCOD8321566
_publ_section_title
;
Structure prediction by ZEFSAII (Michael W. Deem and Ramdas Pophale) SiO2 
 PCOD8321566
Probable space group: R 3
;
_chemical_formula_sum "Si O2"
_cell_formula_units_Z 42
_cell_length_a 17.493160
_cell_length_b 17.493160
_cell_length_c 7.300483
_cell_angle_alpha 90.000000
_cell_angle_beta 90.000000
_cell_angle_gamma 120.000000
_cell_volume 1934.722857
_symmetry_space_group_name_H-M "R 3"
_symmetry_group_IT_number 146
_symmetry_cell_setting 'hexagonal'
loop_
_space_group_symop_operation_xyz
x,y,z
-y,x-y,z
-x+y,-x,z
2/3+x,1/3+y,1/3+z
2/3-y,1/3+x-y,1/3+z
2/3-x+y,1/3-x,1/3+z
1/3+x,2/3+y,2/3+z
1/3-y,2/3+x-y,2/3+z
1/3-x+y,2/3-x,2/3+z
loop_
_atom_site_type_symbol
_atom_site_label
_atom_site_fract_x
_atom_site_fract_y
_atom_site_fract_z
Si Si1 0.455420 0.599343 0.348400
Si Si2 0.000000 0.000000 0.738607
Si Si3 0.593605 0.933409 0.217934
Si Si4 0.059181 0.335369 0.889433
Si Si5 0.920403 0.108585 0.371202
Si Si6 0.000000 0.000000 0.308133
O O1 0.382596 0.612764 0.462788
O O2 0.421160 0.498729 0.287049
O O3 0.532649 0.624788 0.491757
O O4 0.490422 0.662968 0.172797
O O5 0.000000 0.000000 0.523613
O O6 0.662948 0.963473 0.385595
O O7 0.569355 0.836751 0.150004
O O8 0.004310 0.365057 0.763177
O O9 0.161586 0.409425 0.886982
O O10 0.936231 0.038721 0.251182
#
# Coordination Sequence:
#
# PCOD8321566 Si02
#       6
#     9   3   9   9   9   3
#     4  11  22  45  72  98 141 190 238 293 368 435
#     4   9  18  42  73  95 130 199 227 289 364 434
#     4  12  27  46  73 108 150 190 246 304 369 444
#     4  12  27  42  67 108 144 186 240 310 373 436
#     4  11  22  45  72  98 141 190 238 293 368 435
#     4   9  18  42  73  95 130 199 227 289 364 434
#
# _framework density 21.708537
#
# number of rings (size 3 to 8) (size 9 to 14) (size 15 to 20)
#    0.000    0.857    8.571    1.286    6.000    0.000 
#    0.000    2.143    0.000    0.000    0.000    0.000 
#    0.000    0.000    0.000    0.000    0.000    0.000 
#
# Total GULP energy -173498.778394 kJ/mol
# GULP energy per Si atom -12392.769885 kJ/mol
# Density = 2.165913 g / cm^3
# Si number density = 21.708537 Si / 1000 Ang^3
#
#
#
# Elastic Constant Matrix: (Units=GPa)
#
#
# Indices 1 2 3 4 5 6 
#
# 1 122.7878 47.5358 25.0705 -2.7313 -0.6546 0.0008
# 2 47.5358 122.7882 25.0622 2.7363 0.6563 -0.0007
# 3 25.0705 25.0622 51.9566 0.0094 -0.0005 0.0009
# 4 -2.7313 2.7363 0.0094 14.1814 0.0009 0.6568
# 5 -0.6546 0.6563 -0.0005 0.0009 14.1755 -2.7358
# 6 0.0008 -0.0007 0.0009 0.6568 -2.7358 37.6240
#
#
#
# Elastic Compliance Matrix: (Units=1/GPa)
#
#
# Indices 1 2 3 4 5 6 
#
# 1 0.010166 -0.003323 -0.003303 0.002601 0.000623 0.000000
# 2 -0.003323 0.010165 -0.003300 -0.002599 -0.000624 0.000000
# 3 -0.003303 -0.003300 0.022432 -0.000014 0.000001 0.000000
# 4 0.002601 -0.002599 -0.000014 0.071575 -0.000005 -0.001250
# 5 0.000623 -0.000624 0.000001 -0.000005 0.071607 0.005207
# 6 0.000000 0.000000 0.000000 -0.001250 0.005207 0.026979
#
#
# Mechanical properties :
#
#
# Convention : Reuss Voigt Hill
#
# Bulk Modulus (GPa) = 43.64393 54.76329 49.20361
# Shear Modulus (GPa) = 20.79753 26.52046 23.65899
#
# Velocity S-wave (km/s) = 3.09857 3.49902 3.30487
# Velocity P-wave (km/s) = 5.74018 6.45024 6.10554
#
# Compressibility (1/GPa) = 0.02291270
#
# Stress axis : x y z
#
# Youngs Moduli (GPa) = 98.36620 98.37486 44.57866
#
# Poissons Ratio (x) = 0.32688 0.14725
# Poissons Ratio (y) = 0.32685 0.14709
# Poissons Ratio (z) = 0.32491 0.32460
#
# Static dielectric constant tensor:
#      x y z
#    x 5.280760 -0.000020 -0.000010 
#    y -0.000020 5.280770 0.000000 
#    z -0.000010 0.000000 3.568210 
# 
# 
# High freq. dielectric constant tensor:
#      x y z
#    x 1.870330 0.000000 0.000000 
#    y 0.000000 1.870330 0.000000 
#    z 0.000000 0.000000 1.822850 
# 
# From -- ./inp_files/638.got.cif
#   From: 2010.06.25/outbox.cif.g09.slc.cpg/sg146_cif.got.tgz:638.got - 2010.06.28 11:17:22.
