data_PCOD8321313
_publ_section_title
;
Structure prediction by ZEFSAII (Michael W. Deem and Ramdas Pophale) SiO2 
 PCOD8321313
Probable space group: I 41/A C D
;
_chemical_formula_sum "Si O2"
_cell_formula_units_Z 112
_cell_length_a 14.511246
_cell_length_b 14.511246
_cell_length_c 23.201075
_cell_angle_alpha 90.000000
_cell_angle_beta 90.000000
_cell_angle_gamma 90.000000
_cell_volume 4885.595612
_symmetry_space_group_name_H-M "I 41/A C D"
_symmetry_group_IT_number 142
_space_group.IT_coordinate_system_code '2'
_symmetry_cell_setting 'tetragonal'
loop_
_space_group_symop_operation_xyz
x,y,z
1/4-y,3/4+x,1/4+z
-x,1/2-y,z
1/4+y,1/4-x,3/4+z
x,-y,1/2-z
1/2-x,y,-z
3/4+y,1/4+x,1/4-z
1/4-y,1/4-x,1/4-z
-x,-y,-z
3/4+y,1/4-x,3/4-z
x,1/2+y,-z
3/4-y,3/4+x,1/4-z
-x,y,1/2+z
1/2+x,-y,z
1/4-y,3/4-x,3/4+z
3/4+y,3/4+x,3/4+z
1/2+x,1/2+y,1/2+z
3/4-y,1/4+x,3/4+z
1/2-x,-y,1/2+z
3/4+y,3/4-x,1/4+z
1/2+x,1/2-y,-z
-x,1/2+y,1/2-z
1/4+y,3/4+x,3/4-z
3/4-y,3/4-x,3/4-z
1/2-x,1/2-y,1/2-z
1/4+y,3/4-x,1/4-z
1/2+x,y,1/2-z
1/4-y,1/4+x,3/4-z
1/2-x,1/2+y,z
x,1/2-y,1/2+z
3/4-y,1/4-x,1/4+z
1/4+y,1/4+x,1/4+z
loop_
_atom_site_type_symbol
_atom_site_label
_atom_site_fract_x
_atom_site_fract_y
_atom_site_fract_z
Si Si1 0.326152 0.374700 0.138916
Si Si2 0.352489 0.217863 0.339147
Si Si3 0.169174 0.919174 0.375000
Si Si4 0.469247 0.851037 0.964229
O O1 0.223807 0.338999 0.124042
O O2 0.331582 0.482191 0.158227
O O3 0.352508 0.313073 0.193295
O O4 0.390232 0.354619 0.083863
O O5 0.446086 0.196086 0.375000
O O6 0.333255 0.328154 0.335095
O O7 0.353230 0.182616 0.273120
O O8 0.500000 0.750000 0.981108
#
# Coordination Sequence:
#
# PCOD8321313 Si02
#       4
#    32  32  16  32
#     4  12  24  45  74 108 146 193 250 299 376 446
#     4  12  27  48  71 111 148 195 247 307 376 440
#     4  12  25  46  72 105 154 186 246 310 370 449
#     4  12  23  48  78 103 149 195 250 311 366 452
#
# _framework density 22.924533
#
# number of rings (size 3 to 8) (size 9 to 14) (size 15 to 20)
#    0.000    0.000    7.143    3.000    0.000    2.286 
#    0.000    5.714    0.000    0.000    0.000    0.000 
#    0.000    0.000    0.000    0.000    0.000    0.000 
#
# Total GULP energy -693921.229312 kJ/mol
# GULP energy per Si atom -12391.450523 kJ/mol
# Density = 2.287236 g / cm^3
# Si number density = 22.924533 Si / 1000 Ang^3
#
#
#
# Elastic Constant Matrix: (Units=GPa)
#
#
# Indices 1 2 3 4 5 6 
#
# 1 150.3055 51.7278 50.9112 0.0000 0.0000 0.0000
# 2 51.7278 150.3055 50.9112 0.0000 0.0000 0.0000
# 3 50.9112 50.9112 133.3040 0.0000 0.0000 0.0000
# 4 0.0000 0.0000 0.0000 61.7291 0.0000 0.0000
# 5 0.0000 0.0000 0.0000 0.0000 61.7291 0.0000
# 6 0.0000 0.0000 0.0000 0.0000 0.0000 47.6384
#
#
#
# Elastic Compliance Matrix: (Units=1/GPa)
#
#
# Indices 1 2 3 4 5 6 
#
# 1 0.008137 -0.002007 -0.002341 0.000000 0.000000 0.000000
# 2 -0.002007 0.008137 -0.002341 0.000000 0.000000 0.000000
# 3 -0.002341 -0.002341 0.009290 0.000000 0.000000 0.000000
# 4 0.000000 0.000000 0.000000 0.016200 0.000000 0.000000
# 5 0.000000 0.000000 0.000000 0.000000 0.016200 0.000000
# 6 0.000000 0.000000 0.000000 0.000000 0.000000 0.020991
#
#
# Mechanical properties :
#
#
# Convention : Reuss Voigt Hill
#
# Bulk Modulus (GPa) = 82.06881 82.33505 82.20193
# Shear Modulus (GPa) = 51.86994 52.91030 52.39012
#
# Velocity S-wave (km/s) = 4.76188 4.80940 4.78570
# Velocity P-wave (km/s) = 8.13088 8.17521 8.15308
#
# Compressibility (1/GPa) = 0.01218490
#
# Stress axis : x y z
#
# Youngs Moduli (GPa) = 122.89702 122.89702 107.64529
#
# Poissons Ratio (x) = 0.24670 0.25199
# Poissons Ratio (y) = 0.24670 0.25199
# Poissons Ratio (z) = 0.28770 0.28770
#
# Static dielectric constant tensor:
#      x y z
#    x 5.302820 0.000000 0.000000 
#    y 0.000000 5.302820 0.000000 
#    z 0.000000 0.000000 3.583380 
# 
# 
# High freq. dielectric constant tensor:
#      x y z
#    x 1.929610 0.000000 0.000000 
#    y 0.000000 1.929610 0.000000 
#    z 0.000000 0.000000 1.869290 
# 
# From -- ./inp_files/9744.got.cif
#   From: 2010.03.12/outbox.cif.g09.slc.cpg/sg142_5_cif.got.tgz:9744.got - 2010.04.03 13:27:16.
