data_PCOD8321894
_publ_section_title
;
Structure prediction by ZEFSAII (Michael W. Deem and Ramdas Pophale) SiO2 
 PCOD8321894
Probable space group: P 3 2 1
;
_chemical_formula_sum "Si O2"
_cell_formula_units_Z 36
_cell_length_a 8.615380
_cell_length_b 8.615380
_cell_length_c 26.890778
_cell_angle_alpha 90.000000
_cell_angle_beta 90.000000
_cell_angle_gamma 120.000000
_cell_volume 1728.553694
_symmetry_space_group_name_H-M "P 3 2 1"
_symmetry_group_IT_number 150
_symmetry_cell_setting 'hexagonal'
loop_
_space_group_symop_operation_xyz
x,y,z
-y,x-y,z
-x+y,-x,z
x-y,-y,-z
-x,-x+y,-z
y,x,-z
loop_
_atom_site_type_symbol
_atom_site_label
_atom_site_fract_x
_atom_site_fract_y
_atom_site_fract_z
Si Si1 0.883372 0.375091 0.452004
Si Si2 0.003427 0.679781 0.788394
Si Si3 0.372472 0.882627 0.356503
Si Si4 0.349440 0.002455 0.749640
Si Si5 0.001990 0.348721 0.057553
Si Si6 0.997196 0.677183 0.096483
O O1 0.821564 0.525534 0.452177
O O2 0.000000 0.394403 0.500000
O O3 0.998403 0.390631 0.403906
O O4 0.808318 0.609647 0.765238
O O5 0.004855 0.726780 0.845914
O O6 0.143774 0.857758 0.759373
O O7 0.051140 0.522972 0.782320
O O8 0.176708 0.701451 0.357072
O O9 0.394403 0.000427 0.308176
O O10 0.948409 0.472617 0.089437
O O11 0.198019 0.389820 0.073153
O O12 0.859253 0.142786 0.068137
O O13 0.000000 0.393425 0.000000
#
# Coordination Sequence:
#
# PCOD8321894 Si02
#       6
#     6   6   6   6   6   6
#     4  10  22  37  67 100 133 181 229 281 335 399
#     4  12  24  43  65  93 133 170 227 269 348 407
#     4  10  21  42  66  94 133 176 225 279 341 400
#     4  12  25  43  65  98 131 182 220 290 335 414
#     4  12  25  44  67  95 128 166 217 272 342 409
#     4  12  25  43  66  94 126 171 213 275 333 415
#
# _framework density 20.826661999999999
#
# number of rings (size 3 to 8) (size 9 to 14) (size 15 to 20)
#    0.667    0.000    1.667    7.500    2.333    0.000 
#    0.000    0.000    0.000    6.000    0.000    0.000 
#    0.000    0.000    0.000    0.000    0.000    0.000 
#
# Total GULP energy -446618.671130 kJ/mol
# GULP energy per Si atom -12406.074198 kJ/mol
# Density = 2.077926 g / cm^3
# Si number density = 20.826662 Si / 1000 Ang^3
#
#
#
# Elastic Constant Matrix: (Units=GPa)
#
#
# Indices 1 2 3 4 5 6 
#
# 1 84.8389 10.2193 39.6412 -3.0965 0.0000 0.0000
# 2 10.2193 84.8389 39.6412 3.0965 0.0000 0.0000
# 3 39.6412 39.6412 156.2494 0.0000 0.0000 0.0000
# 4 -3.0965 3.0965 0.0000 29.5922 0.0000 0.0000
# 5 0.0000 0.0000 0.0000 0.0000 29.5922 -3.0965
# 6 0.0000 0.0000 0.0000 0.0000 -3.0965 37.3098
#
#
#
# Elastic Compliance Matrix: (Units=1/GPa)
#
#
# Indices 1 2 3 4 5 6 
#
# 1 0.013431 -0.000088 -0.003385 0.001415 0.000000 0.000000
# 2 -0.000088 0.013431 -0.003385 -0.001415 0.000000 0.000000
# 3 -0.003385 -0.003385 0.008118 0.000000 0.000000 0.000000
# 4 0.001415 -0.001415 0.000000 0.034089 0.000000 0.000000
# 5 0.000000 0.000000 0.000000 0.000000 0.034089 0.002829
# 6 0.000000 0.000000 0.000000 0.000000 0.002829 0.027037
#
#
# Mechanical properties :
#
#
# Convention : Reuss Voigt Hill
#
# Bulk Modulus (GPa) = 47.02933 56.10339 51.56636
# Shear Modulus (GPa) = 33.11286 35.06055 34.08670
#
# Velocity S-wave (km/s) = 3.99171 4.10743 4.04999
# Velocity P-wave (km/s) = 6.62385 7.03501 6.83252
#
# Compressibility (1/GPa) = 0.02126333
#
# Stress axis : x y z
#
# Youngs Moduli (GPa) = 74.45454 74.45454 123.18699
#
# Poissons Ratio (x) = 0.00653 0.41702
# Poissons Ratio (y) = 0.00653 0.41702
# Poissons Ratio (z) = 0.25205 0.25205
#
# Static dielectric constant tensor:
#      x y z
#    x 3.645180 0.000000 0.000000 
#    y 0.000000 3.645180 0.000000 
#    z 0.000000 0.000000 3.769280 
# 
# 
# High freq. dielectric constant tensor:
#      x y z
#    x 1.812630 0.000000 0.000000 
#    y 0.000000 1.812630 0.000000 
#    z 0.000000 0.000000 1.826820 
# 
# From -- ./inp_files/1169.got.cif
#   From: 2010.03.12/outbox.cif.g09.slc.cpg/sg150_cif.got.tgz:1169.got - 2010.04.03 13:41:37.
