data_PCOD8321477
_publ_section_title
;
Structure prediction by ZEFSAII (Michael W. Deem and Ramdas Pophale) SiO2 
 PCOD8321477
Probable space group: P 32
;
_chemical_formula_sum "Si O2"
_cell_formula_units_Z 18
_cell_length_a 11.766280
_cell_length_b 11.766280
_cell_length_c 6.542547
_cell_angle_alpha 90.000000
_cell_angle_beta 90.000000
_cell_angle_gamma 120.000000
_cell_volume 784.432974
_symmetry_space_group_name_H-M "P 32"
_symmetry_group_IT_number 145
_symmetry_cell_setting 'hexagonal'
loop_
_space_group_symop_operation_xyz
x,y,z
-y,x-y,2/3+z
-x+y,-x,1/3+z
loop_
_atom_site_type_symbol
_atom_site_label
_atom_site_fract_x
_atom_site_fract_y
_atom_site_fract_z
Si Si1 0.437413 0.672786 0.215150
Si Si2 0.602519 0.114926 0.021320
Si Si3 0.005927 0.536979 0.282424
Si Si4 0.126984 0.065206 0.396483
Si Si5 0.064569 0.728379 0.931845
Si Si6 0.889725 0.299373 0.996967
O O1 0.375623 0.628348 0.437589
O O2 0.590780 0.777270 0.255402
O O3 0.415850 0.553524 0.074914
O O4 0.476127 0.118181 0.109508
O O5 0.598986 0.982208 0.091963
O O6 0.743086 0.234484 0.093813
O O7 0.599540 0.114768 0.774537
O O8 0.014876 0.657861 0.152862
O O9 0.987226 0.418761 0.138847
O O10 0.173092 0.183664 0.557701
O O11 0.253612 0.056946 0.316684
O O12 0.062700 0.088533 0.193106
#
# Coordination Sequence:
#
# PCOD8321477 Si02
#       6
#     3   3   3   3   3   3
#     4  12  22  39  67 103 135 177 224 287 355 415
#     4  10  23  41  68 100 137 176 221 290 348 420
#     4  11  23  41  69  99 139 179 222 301 343 416
#     4  11  26  49  70  99 141 197 243 293 345 421
#     4  10  23  43  64 102 136 175 234 279 354 415
#     4  10  25  43  68 105 136 178 240 282 359 417
#
# _framework density 22.946511000000001
#
# number of rings (size 3 to 8) (size 9 to 14) (size 15 to 20)
#    0.000    1.333    3.333    1.000    2.333    8.000 
#    3.000    0.000    0.000    0.000    0.000    0.000 
#    0.000    0.000    0.000    0.000    0.000    0.000 
#
# Total GULP energy -223132.996313 kJ/mol
# GULP energy per Si atom -12396.277573 kJ/mol
# Density = 2.289428 g / cm^3
# Si number density = 22.946511 Si / 1000 Ang^3
#
#
#
# Elastic Constant Matrix: (Units=GPa)
#
#
# Indices 1 2 3 4 5 6 
#
# 1 87.5968 23.2303 24.4476 -1.3517 -4.2741 0.0000
# 2 23.2303 87.5968 24.4476 1.3517 4.2741 0.0000
# 3 24.4476 24.4476 108.1867 0.0000 0.0000 0.0000
# 4 -1.3517 1.3517 0.0000 34.1338 0.0000 4.2741
# 5 -4.2741 4.2741 0.0000 0.0000 34.1338 -1.3517
# 6 0.0000 0.0000 0.0000 4.2741 -1.3517 32.1832
#
#
#
# Elastic Compliance Matrix: (Units=1/GPa)
#
#
# Indices 1 2 3 4 5 6 
#
# 1 0.012924 -0.002902 -0.002265 0.000627 0.001982 0.000000
# 2 -0.002902 0.012924 -0.002265 -0.000627 -0.001982 0.000000
# 3 -0.002265 -0.002265 0.010267 0.000000 0.000000 0.000000
# 4 0.000627 -0.000627 0.000000 0.029842 0.000000 -0.003963
# 5 0.001982 -0.001982 0.000000 0.000000 0.029842 0.001253
# 6 0.000000 0.000000 0.000000 -0.003963 0.001253 0.031651
#
#
# Mechanical properties :
#
#
# Convention : Reuss Voigt Hill
#
# Bulk Modulus (GPa) = 47.05392 47.51457 47.28425
# Shear Modulus (GPa) = 33.46788 34.17382 33.82085
#
# Velocity S-wave (km/s) = 3.82320 3.86331 3.84330
# Velocity P-wave (km/s) = 6.32768 6.37588 6.35182
#
# Compressibility (1/GPa) = 0.02125221
#
# Stress axis : x y z
#
# Youngs Moduli (GPa) = 77.37607 77.37607 97.40086
#
# Poissons Ratio (x) = 0.22452 0.22059
# Poissons Ratio (y) = 0.22452 0.22059
# Poissons Ratio (z) = 0.17524 0.17524
#
# Static dielectric constant tensor:
#      x y z
#    x 4.103440 0.000000 0.000000 
#    y 0.000000 4.103440 0.000000 
#    z 0.000000 0.000000 4.151140 
# 
# 
# High freq. dielectric constant tensor:
#      x y z
#    x 1.905330 0.000000 0.000000 
#    y 0.000000 1.905330 0.000000 
#    z 0.000000 0.000000 1.905750 
# 
# From -- ./inp_files/120.got.cif
#   From: 2010.03.12/outbox.cif.g09.slc.cpg/sg145_cif.got.tgz:120.got - 2010.04.03 13:35:35.
