data_PCOD8321467
_publ_section_title
;
Structure prediction by ZEFSAII (Michael W. Deem and Ramdas Pophale) SiO2 
 PCOD8321467
Probable space group: P 32
;
_chemical_formula_sum "Si O2"
_cell_formula_units_Z 24
_cell_length_a 12.028378
_cell_length_b 12.028378
_cell_length_c 8.689090
_cell_angle_alpha 90.000000
_cell_angle_beta 90.000000
_cell_angle_gamma 120.000000
_cell_volume 1088.727173
_symmetry_space_group_name_H-M "P 32"
_symmetry_group_IT_number 145
_symmetry_cell_setting 'hexagonal'
loop_
_space_group_symop_operation_xyz
x,y,z
-y,x-y,2/3+z
-x+y,-x,1/3+z
loop_
_atom_site_type_symbol
_atom_site_label
_atom_site_fract_x
_atom_site_fract_y
_atom_site_fract_z
Si Si1 0.414654 0.140581 0.970050
Si Si2 0.526915 0.785360 0.511878
Si Si3 0.975106 0.566550 0.650029
Si Si4 0.753704 0.851085 0.737838
Si Si5 0.257775 0.146442 0.228957
Si Si6 0.583172 0.041601 0.633755
Si Si7 0.321551 0.970052 0.692646
Si Si8 0.230419 0.709775 0.841021
O O1 0.538863 0.124061 0.993338
O O2 0.460767 0.287954 0.925035
O O3 0.313377 0.043485 0.843978
O O4 0.345725 0.105107 0.134371
O O5 0.627641 0.778980 0.629759
O O6 0.379325 0.672623 0.549218
O O7 0.554479 0.775644 0.331661
O O8 0.549132 0.928086 0.515013
O O9 0.909774 0.653069 0.686723
O O10 0.014763 0.598278 0.470487
O O11 0.095556 0.610361 0.761452
O O12 0.871544 0.846442 0.656763
O O13 0.803747 0.999975 0.765990
O O14 0.733282 0.787936 0.905825
O O15 0.462734 0.065768 0.622671
O O16 0.311683 0.832301 0.731380
#
# Coordination Sequence:
#
# PCOD8321467 Si02
#       8
#     3   3   3   3   3   3   3   3
#     4  10  22  44  71  96 140 187 225 289 354 425
#     4  12  23  40  68 105 143 175 232 293 356 426
#     4  10  21  45  67  93 142 179 236 285 355 420
#     4  12  25  47  67 101 144 183 241 296 357 432
#     4  11  24  47  69  97 141 186 233 300 355 423
#     4  10  21  42  67  98 139 181 223 288 349 419
#     4  11  23  43  69 102 144 176 241 289 354 429
#     4  12  23  38  70 108 139 187 229 294 366 420
#
# _framework density 22.044089
#
# number of rings (size 3 to 8) (size 9 to 14) (size 15 to 20)
#    0.000    1.000    3.750    4.500    0.000    2.000 
#    9.000    0.000    2.750    0.000    0.000    0.000 
#    0.000    0.000    0.000    0.000    0.000    0.000 
#
# Total GULP energy -297401.317744 kJ/mol
# GULP energy per Si atom -12391.721573 kJ/mol
# Density = 2.199392 g / cm^3
# Si number density = 22.044089 Si / 1000 Ang^3
#
#
#
# Elastic Constant Matrix: (Units=GPa)
#
#
# Indices 1 2 3 4 5 6 
#
# 1 123.6734 46.6174 34.3981 2.6533 -1.4095 0.0000
# 2 46.6174 123.6734 34.3981 -2.6533 1.4095 0.0000
# 3 34.3981 34.3981 64.7937 0.0000 0.0000 0.0000
# 4 2.6533 -2.6533 0.0000 32.5789 0.0000 1.4095
# 5 -1.4095 1.4095 0.0000 0.0000 32.5789 2.6533
# 6 0.0000 0.0000 0.0000 1.4095 2.6533 38.5280
#
#
#
# Elastic Compliance Matrix: (Units=1/GPa)
#
#
# Indices 1 2 3 4 5 6 
#
# 1 0.010274 -0.002798 -0.003969 -0.001065 0.000566 0.000000
# 2 -0.002798 0.010274 -0.003969 0.001065 -0.000566 0.000000
# 3 -0.003969 -0.003969 0.019647 0.000000 0.000000 0.000000
# 4 -0.001065 0.001065 0.000000 0.030917 0.000000 -0.001131
# 5 0.000566 -0.000566 0.000000 0.000000 0.030917 -0.002129
# 6 0.000000 0.000000 0.000000 -0.001131 -0.002129 0.026143
#
#
# Mechanical properties :
#
#
# Convention : Reuss Voigt Hill
#
# Bulk Modulus (GPa) = 53.40769 60.32972 56.86871
# Shear Modulus (GPa) = 32.07514 33.85231 32.96373
#
# Velocity S-wave (km/s) = 3.81864 3.92301 3.87118
# Velocity P-wave (km/s) = 6.61234 6.92439 6.77016
#
# Compressibility (1/GPa) = 0.01872390
#
# Stress axis : x y z
#
# Youngs Moduli (GPa) = 97.33681 97.33681 50.89712
#
# Poissons Ratio (x) = 0.27234 0.20200
# Poissons Ratio (y) = 0.27234 0.20200
# Poissons Ratio (z) = 0.38630 0.38630
#
# Static dielectric constant tensor:
#      x y z
#    x 4.018580 0.000000 0.000000 
#    y 0.000000 4.018580 0.000000 
#    z 0.000000 0.000000 3.934840 
# 
# 
# High freq. dielectric constant tensor:
#      x y z
#    x 1.864380 0.000000 0.000000 
#    y 0.000000 1.864380 0.000000 
#    z 0.000000 0.000000 1.862560 
# 
# From -- ./inp_files/443.got.cif
#   From: 2010.03.12/outbox.cif.g09.slc.cpg/sg145_cif.got.tgz:443.got - 2010.04.03 13:35:35.
