data_PCOD8321040
_publ_section_title
;
Structure prediction by ZEFSAII (Michael W. Deem and Ramdas Pophale) SiO2 
 PCOD8321040
Probable space group: I 41/A C D
;
_chemical_formula_sum "Si O2"
_cell_formula_units_Z 240
_cell_length_a 21.596729
_cell_length_b 21.596729
_cell_length_c 25.360996
_cell_angle_alpha 90.000000
_cell_angle_beta 90.000000
_cell_angle_gamma 90.000000
_cell_volume 11828.842874
_symmetry_space_group_name_H-M "I 41/A C D"
_symmetry_group_IT_number 142
_space_group.IT_coordinate_system_code '2'
_symmetry_cell_setting 'tetragonal'
loop_
_space_group_symop_operation_xyz
x,y,z
1/4-y,3/4+x,1/4+z
-x,1/2-y,z
1/4+y,1/4-x,3/4+z
x,-y,1/2-z
1/2-x,y,-z
3/4+y,1/4+x,1/4-z
1/4-y,1/4-x,1/4-z
-x,-y,-z
3/4+y,1/4-x,3/4-z
x,1/2+y,-z
3/4-y,3/4+x,1/4-z
-x,y,1/2+z
1/2+x,-y,z
1/4-y,3/4-x,3/4+z
3/4+y,3/4+x,3/4+z
1/2+x,1/2+y,1/2+z
3/4-y,1/4+x,3/4+z
1/2-x,-y,1/2+z
3/4+y,3/4-x,1/4+z
1/2+x,1/2-y,-z
-x,1/2+y,1/2-z
1/4+y,3/4+x,3/4-z
3/4-y,3/4-x,3/4-z
1/2-x,1/2-y,1/2-z
1/4+y,3/4-x,1/4-z
1/2+x,y,1/2-z
1/4-y,1/4+x,3/4-z
1/2-x,1/2+y,z
x,1/2-y,1/2+z
3/4-y,1/4-x,1/4+z
1/4+y,1/4+x,1/4+z
loop_
_atom_site_type_symbol
_atom_site_label
_atom_site_fract_x
_atom_site_fract_y
_atom_site_fract_z
Si Si1 0.975439 0.093869 0.933203
Si Si2 0.612802 0.074328 0.547559
Si Si3 0.286524 0.391659 0.728366
Si Si4 0.855305 0.787944 0.060324
Si Si5 0.263164 0.922519 0.893592
Si Si6 0.445421 0.206053 0.492021
Si Si7 0.893976 0.909589 0.304142
Si Si8 0.750000 0.264992 0.500000
O O1 0.919674 0.046058 0.943559
O O2 0.969861 0.115777 0.872708
O O3 0.973717 0.151103 0.973182
O O4 0.040204 0.059349 0.944583
O O5 0.625303 0.145910 0.536680
O O6 0.645907 0.061779 0.602960
O O7 0.641892 0.034295 0.499306
O O8 0.309889 0.452639 0.697768
O O9 0.327857 0.391728 0.780290
O O10 0.900363 0.740010 0.032461
O O11 0.782558 0.776678 0.045418
O O12 0.205495 0.872620 0.897566
O O13 0.238267 0.988267 0.875000
O O14 0.500000 0.250000 0.470388
O O15 0.407133 0.179436 0.440384
O O16 0.940784 0.945796 0.267736
#
# Coordination Sequence:
#
# PCOD8321040 Si02
#       8
#    32  32  32  32  32  32  32  16
#     4  11  22  38  60  93 125 155 203 253 313 372
#     4  12  24  39  63  90 125 162 202 254 321 377
#     4  11  23  40  59  89 126 159 200 260 309 366
#     4  11  22  37  59  93 122 161 202 254 315 371
#     4  12  23  40  63  89 118 163 214 259 299 368
#     4  10  21  36  62  91 125 158 196 261 315 372
#     4  10  20  38  61  85 116 158 207 251 299 356
#     4  10  20  36  60  78 124 160 202 254 298 370
#
# _framework density 20.289390000000001
#
# number of rings (size 3 to 8) (size 9 to 14) (size 15 to 20)
#    0.000    1.067    5.333    2.000    1.867    1.067 
#    0.000    0.000    0.000    0.400    0.000    3.733 
#    0.000    0.000    0.000    0.000    0.000    0.000 
#
# Total GULP energy -1486606.694402 kJ/mol
# GULP energy per Si atom -12388.389120 kJ/mol
# Density = 2.024321 g / cm^3
# Si number density = 20.289390 Si / 1000 Ang^3
#
#
#
# Elastic Constant Matrix: (Units=GPa)
#
#
# Indices 1 2 3 4 5 6 
#
# 1 78.4400 34.3885 18.6635 0.0000 0.0000 0.0000
# 2 34.3885 78.4400 18.6635 0.0000 0.0000 0.0000
# 3 18.6635 18.6635 47.4903 0.0000 0.0000 0.0000
# 4 0.0000 0.0000 0.0000 28.1668 0.0000 0.0000
# 5 0.0000 0.0000 0.0000 0.0000 28.1668 0.0000
# 6 0.0000 0.0000 0.0000 0.0000 0.0000 35.8298
#
#
#
# Elastic Compliance Matrix: (Units=1/GPa)
#
#
# Indices 1 2 3 4 5 6 
#
# 1 0.016444 -0.006257 -0.004004 0.000000 0.000000 0.000000
# 2 -0.006257 0.016444 -0.004004 0.000000 0.000000 0.000000
# 3 -0.004004 -0.004004 0.024204 0.000000 0.000000 0.000000
# 4 0.000000 0.000000 0.000000 0.035503 0.000000 0.000000
# 5 0.000000 0.000000 0.000000 0.000000 0.035503 0.000000
# 6 0.000000 0.000000 0.000000 0.000000 0.000000 0.027910
#
#
# Mechanical properties :
#
#
# Convention : Reuss Voigt Hill
#
# Bulk Modulus (GPa) = 35.00883 38.64458 36.82671
# Shear Modulus (GPa) = 25.76569 27.27633 26.52101
#
# Velocity S-wave (km/s) = 3.56744 3.67054 3.61936
# Velocity P-wave (km/s) = 5.85330 6.08702 5.97130
#
# Compressibility (1/GPa) = 0.02856422
#
# Stress axis : x y z
#
# Youngs Moduli (GPa) = 60.81207 60.81207 41.31589
#
# Poissons Ratio (x) = 0.38048 0.16541
# Poissons Ratio (y) = 0.38048 0.16541
# Poissons Ratio (z) = 0.24347 0.24347
#
# Static dielectric constant tensor:
#      x y z
#    x 2.316470 0.000000 0.000000 
#    y 0.000000 2.316470 0.000000 
#    z 0.000000 0.000000 3.213380 
# 
# 
# High freq. dielectric constant tensor:
#      x y z
#    x 1.802090 0.000000 0.000000 
#    y 0.000000 1.802090 0.000000 
#    z 0.000000 0.000000 1.764290 
# 
# From -- ./inp_files/12731.got.cif
#   From: 2010.03.12/outbox.cif.g09.slc.cpg/sg142_7_cif.got.tgz:12731.got - 2010.04.03 13:27:16.
