data_PCOD8321604
_publ_section_title
;
Structure prediction by ZEFSAII (Michael W. Deem and Ramdas Pophale) SiO2 
 PCOD8321604
Probable space group: P -3
;
_chemical_formula_sum "Si O2"
_cell_formula_units_Z 48
_cell_length_a 13.171802
_cell_length_b 13.171802
_cell_length_c 20.313231
_cell_angle_alpha 90.000000
_cell_angle_beta 90.000000
_cell_angle_gamma 120.000000
_cell_volume 3052.108908
_symmetry_space_group_name_H-M "P -3"
_symmetry_group_IT_number 147
_symmetry_cell_setting 'hexagonal'
loop_
_space_group_symop_operation_xyz
x,y,z
-y,x-y,z
-x+y,-x,z
-x,-y,-z
y,-x+y,-z
x-y,x,-z
loop_
_atom_site_type_symbol
_atom_site_label
_atom_site_fract_x
_atom_site_fract_y
_atom_site_fract_z
Si Si1 0.900745 0.566852 0.743407
Si Si2 0.761664 0.761152 0.642147
Si Si3 0.000000 0.765944 0.500000
Si Si4 0.238848 0.238336 0.642147
Si Si5 0.900005 0.333147 0.894549
Si Si6 0.433148 0.099255 0.743407
Si Si7 0.239078 0.239078 1.000000
Si Si8 0.433142 0.333147 0.894549
O O1 0.905945 0.452973 0.723229
O O2 0.769723 0.539447 0.729964
O O3 0.937148 0.601713 0.819036
O O4 0.992406 0.671843 0.697722
O O5 0.710841 0.700099 0.569592
O O6 0.757494 0.878747 0.652939
O O7 0.679437 0.671843 0.697722
O O8 0.895365 0.790730 0.649933
O O9 0.989258 0.700099 0.569592
O O10 0.892571 0.785143 0.488582
O O11 0.937148 0.335435 0.819036
O O12 0.764377 0.235623 0.905508
O O13 0.915655 0.457827 0.916082
O O14 0.984450 0.303325 0.936787
O O15 0.318875 0.303325 0.936787
O O16 0.224229 0.112115 0.012247
#
# Coordination Sequence:
#
# PCOD8321604 Si02
#       8
#     6   6   6   6   6   6   6   6
#     4   9  17  29  45  64  85 110 141 178 218 256
#     4   9  16  26  42  64  88 113 142 178 219 260
#     4   8  13  22  37  58  84 112 142 176 214 254
#     4   9  16  26  42  64  88 113 142 178 219 260
#     4   9  17  30  48  67  85 108 142 183 220 250
#     4   9  17  29  45  64  85 110 141 178 218 256
#     4  10  20  32  46  66  94 124 146 166 202 256
#     4   9  17  30  48  67  85 108 142 183 220 250
#
# _framework density 15.72683
#
# number of rings (size 3 to 8) (size 9 to 14) (size 15 to 20)
#    0.000    3.000    0.000    1.375    0.000    5.000 
#    0.000    0.625    0.000    4.000    0.000    0.000 
#    0.000    0.000    0.000    0.000    0.000    0.000 
#
# Total GULP energy -594813.995628 kJ/mol
# GULP energy per Si atom -12391.958242 kJ/mol
# Density = 1.569104 g / cm^3
# Si number density = 15.726830 Si / 1000 Ang^3
#
#
#
# Elastic Constant Matrix: (Units=GPa)
#
#
# Indices 1 2 3 4 5 6 
#
# 1 92.4941 47.2980 63.6833 2.7351 0.0000 0.0000
# 2 47.2980 92.4941 63.6833 -2.7351 0.0000 0.0000
# 3 63.6833 63.6833 110.9948 0.0000 0.0000 0.0000
# 4 2.7351 -2.7351 0.0000 24.2218 0.0000 0.0000
# 5 0.0000 0.0000 0.0000 0.0000 24.2218 2.7351
# 6 0.0000 0.0000 0.0000 0.0000 2.7351 22.5981
#
#
#
# Elastic Compliance Matrix: (Units=1/GPa)
#
#
# Indices 1 2 3 4 5 6 
#
# 1 0.018711 -0.003722 -0.008600 -0.002533 0.000000 0.000000
# 2 -0.003722 0.018711 -0.008600 0.002533 0.000000 0.000000
# 3 -0.008600 -0.008600 0.018878 0.000000 0.000000 0.000000
# 4 -0.002533 0.002533 0.000000 0.041857 0.000000 0.000000
# 5 0.000000 0.000000 0.000000 0.000000 0.041857 -0.005066
# 6 0.000000 0.000000 0.000000 0.000000 -0.005066 0.044865
#
#
# Mechanical properties :
#
#
# Convention : Reuss Voigt Hill
#
# Bulk Modulus (GPa) = 69.17491 71.70136 70.43814
# Shear Modulus (GPa) = 21.59450 22.29621 21.94535
#
# Velocity S-wave (km/s) = 3.70956 3.76934 3.73957
# Velocity P-wave (km/s) = 7.90117 8.03957 7.97067
#
# Compressibility (1/GPa) = 0.01445611
#
# Stress axis : x y z
#
# Youngs Moduli (GPa) = 53.44533 53.44533 52.97197
#
# Poissons Ratio (x) = 0.19891 0.45556
# Poissons Ratio (y) = 0.19891 0.45556
# Poissons Ratio (z) = 0.45963 0.45963
#
# Static dielectric constant tensor:
#      x y z
#    x 2.836030 0.000000 0.000000 
#    y 0.000000 2.836030 0.000000 
#    z 0.000000 0.000000 3.291410 
# 
# 
# High freq. dielectric constant tensor:
#      x y z
#    x 1.585590 0.000000 0.000000 
#    y 0.000000 1.585590 0.000000 
#    z 0.000000 0.000000 1.619750 
# 
# From -- ./inp_files/1085.got.cif
#   From: 2010.03.12/outbox.cif.g09.slc.cpg/sg147_cif.got.tgz:1085.got - 2010.04.03 13:37:56.
