data_PCOD8321015
_publ_section_title
;
Structure prediction by ZEFSAII (Michael W. Deem and Ramdas Pophale) SiO2 
 PCOD8321015
Probable space group: I 41/A C D
;
_chemical_formula_sum "Si O2"
_cell_formula_units_Z 144
_cell_length_a 19.400284
_cell_length_b 19.400284
_cell_length_c 19.286936
_cell_angle_alpha 90.000000
_cell_angle_beta 90.000000
_cell_angle_gamma 90.000000
_cell_volume 7259.043761
_symmetry_space_group_name_H-M "I 41/A C D"
_symmetry_group_IT_number 142
_space_group.IT_coordinate_system_code '2'
_symmetry_cell_setting 'tetragonal'
loop_
_space_group_symop_operation_xyz
x,y,z
1/4-y,3/4+x,1/4+z
-x,1/2-y,z
1/4+y,1/4-x,3/4+z
x,-y,1/2-z
1/2-x,y,-z
3/4+y,1/4+x,1/4-z
1/4-y,1/4-x,1/4-z
-x,-y,-z
3/4+y,1/4-x,3/4-z
x,1/2+y,-z
3/4-y,3/4+x,1/4-z
-x,y,1/2+z
1/2+x,-y,z
1/4-y,3/4-x,3/4+z
3/4+y,3/4+x,3/4+z
1/2+x,1/2+y,1/2+z
3/4-y,1/4+x,3/4+z
1/2-x,-y,1/2+z
3/4+y,3/4-x,1/4+z
1/2+x,1/2-y,-z
-x,1/2+y,1/2-z
1/4+y,3/4+x,3/4-z
3/4-y,3/4-x,3/4-z
1/2-x,1/2-y,1/2-z
1/4+y,3/4-x,1/4-z
1/2+x,y,1/2-z
1/4-y,1/4+x,3/4-z
1/2-x,1/2+y,z
x,1/2-y,1/2+z
3/4-y,1/4-x,1/4+z
1/4+y,1/4+x,1/4+z
loop_
_atom_site_type_symbol
_atom_site_label
_atom_site_fract_x
_atom_site_fract_y
_atom_site_fract_z
Si Si1 0.481029 0.174923 0.247927
Si Si2 0.938360 0.419968 0.454830
Si Si3 0.582931 0.935903 0.299723
Si Si4 0.817341 0.333669 0.245461
Si Si5 0.076466 0.173535 0.125000
O O1 0.500000 0.250000 0.217246
O O2 0.400283 0.156090 0.236439
O O3 0.522059 0.119023 0.204834
O O4 0.507310 0.172488 0.327897
O O5 0.911374 0.448468 0.381138
O O6 0.915270 0.484723 0.501252
O O7 0.020539 0.408388 0.456003
O O8 0.656177 0.905505 0.275967
O O9 0.565123 0.000000 0.250000
O O10 0.853139 0.323677 0.169861
#
# Coordination Sequence:
#
# PCOD8321015 Si02
#       5
#    32  32  32  32  16
#     4  11  21  34  62  92 122 153 196 252 298 351
#     4  11  21  36  61  91 121 147 205 253 301 347
#     4  11  23  40  60  86 121 164 202 243 304 366
#     4  10  22  38  61  89 119 163 197 247 298 368
#     4  10  19  38  58  90 124 164 198 230 306 367
#
# _framework density 19.837323999999999
#
# number of rings (size 3 to 8) (size 9 to 14) (size 15 to 20)
#    0.000    1.333    4.444    4.333    0.000    0.000 
#    0.000    1.111    0.000    8.000    0.000    0.000 
#    0.000    0.000    0.000    0.000    0.000    0.000 
#
# Total GULP energy -891973.916087 kJ/mol
# GULP energy per Si atom -12388.526612 kJ/mol
# Density = 1.979217 g / cm^3
# Si number density = 19.837324 Si / 1000 Ang^3
#
#
#
# Elastic Constant Matrix: (Units=GPa)
#
#
# Indices 1 2 3 4 5 6 
#
# 1 111.7134 26.7748 8.3354 0.0000 0.0000 0.0000
# 2 26.7748 111.7135 8.3352 0.0000 0.0000 0.0000
# 3 8.3354 8.3352 69.0367 0.0000 0.0000 0.0000
# 4 0.0000 0.0000 0.0000 24.9039 0.0000 0.0000
# 5 0.0000 0.0000 0.0000 0.0000 24.9040 0.0000
# 6 0.0000 0.0000 0.0000 0.0000 0.0000 22.4220
#
#
#
# Elastic Compliance Matrix: (Units=1/GPa)
#
#
# Indices 1 2 3 4 5 6 
#
# 1 0.009550 -0.002223 -0.000885 0.000000 0.000000 0.000000
# 2 -0.002223 0.009550 -0.000885 0.000000 0.000000 0.000000
# 3 -0.000885 -0.000885 0.014699 0.000000 0.000000 0.000000
# 4 0.000000 0.000000 0.000000 0.040154 0.000000 0.000000
# 5 0.000000 0.000000 0.000000 0.000000 0.040154 0.000000
# 6 0.000000 0.000000 0.000000 0.000000 0.000000 0.044599
#
#
# Mechanical properties :
#
#
# Convention : Reuss Voigt Hill
#
# Bulk Modulus (GPa) = 38.73776 42.15048 40.44412
# Shear Modulus (GPa) = 28.52314 31.04719 29.78516
#
# Velocity S-wave (km/s) = 3.79602 3.96041 3.87909
# Velocity P-wave (km/s) = 6.22761 6.49672 6.36359
#
# Compressibility (1/GPa) = 0.02581461
#
# Stress axis : x y z
#
# Youngs Moduli (GPa) = 104.70906 104.70924 68.03333
#
# Poissons Ratio (x) = 0.23276 0.06019
# Poissons Ratio (y) = 0.23276 0.06019
# Poissons Ratio (z) = 0.09264 0.09263
#
# Static dielectric constant tensor:
#      x y z
#    x 3.622160 0.000000 0.000000 
#    y 0.000000 3.622150 0.000000 
#    z 0.000000 0.000000 3.594160 
# 
# 
# High freq. dielectric constant tensor:
#      x y z
#    x 1.767050 0.000000 0.000000 
#    y 0.000000 1.767050 0.000000 
#    z 0.000000 0.000000 1.771050 
# 
# From -- ./inp_files/7250.got.cif
#   From: 2010.03.12/outbox.cif.g09.slc.cpg/sg142_4_cif.got.tgz:7250.got - 2010.04.03 13:27:16.
