data_PCOD8321385
_publ_section_title
;
Structure prediction by ZEFSAII (Michael W. Deem and Ramdas Pophale) SiO2 
 PCOD8321385
Probable space group: P 31
;
_chemical_formula_sum "Si O2"
_cell_formula_units_Z 24
_cell_length_a 9.089298
_cell_length_b 9.089298
_cell_length_c 13.993853
_cell_angle_alpha 90.000000
_cell_angle_beta 90.000000
_cell_angle_gamma 120.000000
_cell_volume 1001.217943
_symmetry_space_group_name_H-M "P 31"
_symmetry_group_IT_number 144
_symmetry_cell_setting 'hexagonal'
loop_
_space_group_symop_operation_xyz
x,y,z
-y,x-y,1/3+z
-x+y,-x,2/3+z
loop_
_atom_site_type_symbol
_atom_site_label
_atom_site_fract_x
_atom_site_fract_y
_atom_site_fract_z
Si Si1 0.836743 0.369926 0.394110
Si Si2 0.412746 0.912341 0.758137
Si Si3 0.857480 0.667656 0.489751
Si Si4 0.796141 0.820492 0.666961
Si Si5 0.331208 0.497489 0.231591
Si Si6 0.473660 0.087965 0.435524
Si Si7 0.704881 0.080318 0.888574
Si Si8 0.115183 0.922493 0.355700
O O1 0.841590 0.482366 0.484862
O O2 0.639136 0.229912 0.380668
O O3 0.903816 0.484639 0.298145
O O4 0.968667 0.299104 0.412741
O O5 0.383514 0.831091 0.652087
O O6 0.343304 0.769860 0.841817
O O7 0.333136 0.036719 0.762400
O O8 0.611822 0.014240 0.785823
O O9 0.862364 0.722729 0.597911
O O10 0.037972 0.793857 0.443424
O O11 0.681926 0.879016 0.610106
O O12 0.947275 0.993359 0.708333
O O13 0.431666 0.469126 0.146738
O O14 0.408806 0.143054 0.529381
O O15 0.318866 0.005146 0.359057
O O16 0.776541 0.958715 0.923882
#
# Coordination Sequence:
#
# PCOD8321385 Si02
#       8
#     3   3   3   3   3   3   3   3
#     4  11  22  44  75 101 139 193 253 289 373 459
#     4  11  23  46  73 102 144 199 239 305 378 433
#     4  10  22  44  70  98 146 190 235 304 373 432
#     4  11  24  44  68 109 142 190 242 311 371 431
#     4  11  26  44  73 100 150 187 248 303 368 444
#     4  12  26  45  74 107 141 198 247 301 375 448
#     4  11  23  48  71 103 147 193 241 304 374 440
#     4  11  26  43  72 108 147 190 243 307 376 439
#
# _framework density 23.970806
#
# number of rings (size 3 to 8) (size 9 to 14) (size 15 to 20)
#    0.000    1.000    3.750    3.000    7.000    0.000 
#    0.000    0.000    0.000    0.000    0.000    0.000 
#    0.000    0.000    0.000    0.000    0.000    0.000 
#
# Total GULP energy -297472.272271 kJ/mol
# GULP energy per Si atom -12394.678011 kJ/mol
# Density = 2.391625 g / cm^3
# Si number density = 23.970806 Si / 1000 Ang^3
#
#
#
# Elastic Constant Matrix: (Units=GPa)
#
#
# Indices 1 2 3 4 5 6 
#
# 1 121.0304 50.8515 15.7929 -4.2066 1.3969 0.0000
# 2 50.8515 121.0304 15.7929 4.2066 -1.3969 0.0000
# 3 15.7929 15.7929 60.2062 0.0000 0.0000 0.0000
# 4 -4.2066 4.2066 0.0000 29.7352 0.0000 -1.3969
# 5 1.3969 -1.3969 0.0000 0.0000 29.7352 -4.2066
# 6 0.0000 0.0000 0.0000 -1.3969 -4.2066 35.0895
#
#
#
# Elastic Compliance Matrix: (Units=1/GPa)
#
#
# Indices 1 2 3 4 5 6 
#
# 1 0.010318 -0.004205 -0.001603 0.002055 -0.000682 0.000000
# 2 -0.004205 0.010318 -0.001603 -0.002055 0.000682 0.000000
# 3 -0.001603 -0.001603 0.017451 0.000000 0.000000 0.000000
# 4 0.002055 -0.002055 0.000000 0.034276 0.000000 0.001364
# 5 -0.000682 0.000682 0.000000 0.000000 0.034276 0.004109
# 6 0.000000 0.000000 0.000000 0.001364 0.004109 0.029046
#
#
# Mechanical properties :
#
#
# Convention : Reuss Voigt Hill
#
# Bulk Modulus (GPa) = 42.98798 51.90461 47.44629
# Shear Modulus (GPa) = 31.59344 33.56729 32.58036
#
# Velocity S-wave (km/s) = 3.63436 3.74617 3.69069
# Velocity P-wave (km/s) = 5.96522 6.35704 6.16425
#
# Compressibility (1/GPa) = 0.02326232
#
# Stress axis : x y z
#
# Youngs Moduli (GPa) = 96.92101 96.92101 57.30399
#
# Poissons Ratio (x) = 0.40756 0.09188
# Poissons Ratio (y) = 0.40756 0.09188
# Poissons Ratio (z) = 0.15541 0.15541
#
# Static dielectric constant tensor:
#      x y z
#    x 4.377830 0.000000 0.000000 
#    y 0.000000 4.377830 0.000000 
#    z 0.000000 0.000000 4.093500 
# 
# 
# High freq. dielectric constant tensor:
#      x y z
#    x 1.953120 0.000000 0.000000 
#    y 0.000000 1.953120 0.000000 
#    z 0.000000 0.000000 1.934120 
# 
# From -- ./inp_files/849.got.cif
#   From: 2010.03.12/outbox.cif.g09.slc.cpg/sg144_cif.got.tgz:849.got - 2010.04.03 13:34:42.
