data_PCOD8321298
_publ_section_title
;
Structure prediction by ZEFSAII (Michael W. Deem and Ramdas Pophale) SiO2 
 PCOD8321298
Probable space group: I 41/A C D
;
_chemical_formula_sum "Si O2"
_cell_formula_units_Z 88
_cell_length_a 13.718092
_cell_length_b 13.718092
_cell_length_c 21.026200
_cell_angle_alpha 90.000000
_cell_angle_beta 90.000000
_cell_angle_gamma 90.000000
_cell_volume 3956.837485
_symmetry_space_group_name_H-M "I 41/A C D"
_symmetry_group_IT_number 142
_space_group.IT_coordinate_system_code '2'
_symmetry_cell_setting 'tetragonal'
loop_
_space_group_symop_operation_xyz
x,y,z
1/4-y,3/4+x,1/4+z
-x,1/2-y,z
1/4+y,1/4-x,3/4+z
x,-y,1/2-z
1/2-x,y,-z
3/4+y,1/4+x,1/4-z
1/4-y,1/4-x,1/4-z
-x,-y,-z
3/4+y,1/4-x,3/4-z
x,1/2+y,-z
3/4-y,3/4+x,1/4-z
-x,y,1/2+z
1/2+x,-y,z
1/4-y,3/4-x,3/4+z
3/4+y,3/4+x,3/4+z
1/2+x,1/2+y,1/2+z
3/4-y,1/4+x,3/4+z
1/2-x,-y,1/2+z
3/4+y,3/4-x,1/4+z
1/2+x,1/2-y,-z
-x,1/2+y,1/2-z
1/4+y,3/4+x,3/4-z
3/4-y,3/4-x,3/4-z
1/2-x,1/2-y,1/2-z
1/4+y,3/4-x,1/4-z
1/2+x,y,1/2-z
1/4-y,1/4+x,3/4-z
1/2-x,1/2+y,z
x,1/2-y,1/2+z
3/4-y,1/4-x,1/4+z
1/4+y,1/4+x,1/4+z
loop_
_atom_site_type_symbol
_atom_site_label
_atom_site_fract_x
_atom_site_fract_y
_atom_site_fract_z
Si Si1 0.500000 0.250000 0.125000
Si Si2 0.133914 0.108470 0.313004
Si Si3 0.163859 0.299337 0.576408
Si Si4 0.157969 0.907969 0.875000
O O1 0.462154 0.158898 0.084129
O O2 0.107311 0.102502 0.238875
O O3 0.248410 0.098671 0.328737
O O4 0.079118 0.021380 0.350509
O O5 0.081751 0.331751 0.625000
O O6 0.157177 0.181704 0.574498
#
# Coordination Sequence:
#
# PCOD8321298 Si02
#       4
#     8  32  32  16
#     4  12  24  48  66 112 144 204 236 302 364 436
#     4  11  26  45  74 103 149 190 245 295 359 436
#     4  11  26  46  71 109 140 191 244 292 363 432
#     4  12  25  48  72 109 146 188 240 304 362 427
#
# _framework density 22.239982000000001
#
# number of rings (size 3 to 8) (size 9 to 14) (size 15 to 20)
#    0.000    0.727    5.455    0.545    5.091   10.182 
#    0.000    0.000    0.000    0.000    0.000    0.000 
#    0.000    0.000    0.000    0.000    0.000    0.000 
#
# Total GULP energy -545262.522141 kJ/mol
# GULP energy per Si atom -12392.330049 kJ/mol
# Density = 2.218936 g / cm^3
# Si number density = 22.239982 Si / 1000 Ang^3
#
#
#
# Elastic Constant Matrix: (Units=GPa)
#
#
# Indices 1 2 3 4 5 6 
#
# 1 176.4178 61.7211 69.6784 0.0000 0.0000 0.0000
# 2 61.7211 176.4178 69.6784 0.0000 0.0000 0.0000
# 3 69.6784 69.6784 106.1489 0.0000 0.0000 0.0000
# 4 0.0000 0.0000 0.0000 24.9782 0.0000 0.0000
# 5 0.0000 0.0000 0.0000 0.0000 24.9782 0.0000
# 6 0.0000 0.0000 0.0000 0.0000 0.0000 38.2466
#
#
#
# Elastic Compliance Matrix: (Units=1/GPa)
#
#
# Indices 1 2 3 4 5 6 
#
# 1 0.007769 -0.000950 -0.004476 0.000000 0.000000 0.000000
# 2 -0.000950 0.007769 -0.004476 0.000000 0.000000 0.000000
# 3 -0.004476 -0.004476 0.015297 0.000000 0.000000 0.000000
# 4 0.000000 0.000000 0.000000 0.040035 0.000000 0.000000
# 5 0.000000 0.000000 0.000000 0.000000 0.040035 0.000000
# 6 0.000000 0.000000 0.000000 0.000000 0.000000 0.026146
#
#
# Mechanical properties :
#
#
# Convention : Reuss Voigt Hill
#
# Bulk Modulus (GPa) = 90.65773 95.68228 93.17001
# Shear Modulus (GPa) = 31.14687 34.83436 32.99062
#
# Velocity S-wave (km/s) = 3.74637 3.96194 3.85566
# Velocity P-wave (km/s) = 7.71788 8.00283 7.86165
#
# Compressibility (1/GPa) = 0.01103050
#
# Stress axis : x y z
#
# Youngs Moduli (GPa) = 128.72464 128.72464 65.37368
#
# Poissons Ratio (x) = 0.12230 0.29260
# Poissons Ratio (y) = 0.12230 0.29260
# Poissons Ratio (z) = 0.57614 0.57614
#
# Static dielectric constant tensor:
#      x y z
#    x 4.324770 0.000000 0.000000 
#    y 0.000000 4.324770 0.000000 
#    z 0.000000 0.000000 3.641710 
# 
# 
# High freq. dielectric constant tensor:
#      x y z
#    x 1.895210 0.000000 0.000000 
#    y 0.000000 1.895210 0.000000 
#    z 0.000000 0.000000 1.848630 
# 
# From -- ./inp_files/8268.got.cif
#   From: 2010.03.12/outbox.cif.g09.slc.cpg/sg142_5_cif.got.tgz:8268.got - 2010.04.03 13:27:16.
