data_PCOD8321272
_publ_section_title
;
Structure prediction by ZEFSAII (Michael W. Deem and Ramdas Pophale) SiO2 
 PCOD8321272
Probable space group: I 41/A C D
;
_chemical_formula_sum "Si O2"
_cell_formula_units_Z 128
_cell_length_a 20.269593
_cell_length_b 20.269593
_cell_length_c 13.320321
_cell_angle_alpha 90.000000
_cell_angle_beta 90.000000
_cell_angle_gamma 90.000000
_cell_volume 5472.739138
_symmetry_space_group_name_H-M "I 41/A C D"
_symmetry_group_IT_number 142
_space_group.IT_coordinate_system_code '2'
_symmetry_cell_setting 'tetragonal'
loop_
_space_group_symop_operation_xyz
x,y,z
1/4-y,3/4+x,1/4+z
-x,1/2-y,z
1/4+y,1/4-x,3/4+z
x,-y,1/2-z
1/2-x,y,-z
3/4+y,1/4+x,1/4-z
1/4-y,1/4-x,1/4-z
-x,-y,-z
3/4+y,1/4-x,3/4-z
x,1/2+y,-z
3/4-y,3/4+x,1/4-z
-x,y,1/2+z
1/2+x,-y,z
1/4-y,3/4-x,3/4+z
3/4+y,3/4+x,3/4+z
1/2+x,1/2+y,1/2+z
3/4-y,1/4+x,3/4+z
1/2-x,-y,1/2+z
3/4+y,3/4-x,1/4+z
1/2+x,1/2-y,-z
-x,1/2+y,1/2-z
1/4+y,3/4+x,3/4-z
3/4-y,3/4-x,3/4-z
1/2-x,1/2-y,1/2-z
1/4+y,3/4-x,1/4-z
1/2+x,y,1/2-z
1/4-y,1/4+x,3/4-z
1/2-x,1/2+y,z
x,1/2-y,1/2+z
3/4-y,1/4-x,1/4+z
1/4+y,1/4+x,1/4+z
loop_
_atom_site_type_symbol
_atom_site_label
_atom_site_fract_x
_atom_site_fract_y
_atom_site_fract_z
Si Si1 0.038179 0.024017 0.142863
Si Si2 0.392492 0.933948 0.207043
Si Si3 0.367946 0.685273 0.843414
Si Si4 0.596965 0.306842 0.779158
O O1 0.963142 0.048600 0.159364
O O2 0.074584 0.081575 0.080134
O O3 0.068910 0.000000 0.250000
O O4 0.953946 0.041442 0.926607
O O5 0.343802 0.906199 0.125000
O O6 0.396420 0.882373 0.297999
O O7 0.359545 0.000000 0.250000
O O8 0.408845 0.742794 0.789531
O O9 0.381782 0.679922 0.962756
O O10 0.548389 0.298389 0.875000
#
# Coordination Sequence:
#
# PCOD8321272 Si02
#       4
#    32  32  32  32
#     4  11  23  50  78 106 154 205 252 319 396 465
#     4  11  25  47  77 108 148 201 258 315 390 470
#     4  12  27  47  80 112 154 213 252 325 409 468
#     4  12  26  47  72 116 153 199 265 323 387 485
#
# _framework density 23.388653000000001
#
# number of rings (size 3 to 8) (size 9 to 14) (size 15 to 20)
#    0.000    0.500    5.000    3.750    3.500    0.500 
#    4.500    2.500    0.000    0.000    0.000    0.000 
#    0.000    0.000    0.000    0.000    0.000    0.000 
#
# Total GULP energy -793236.348722 kJ/mol
# GULP energy per Si atom -12394.317949 kJ/mol
# Density = 2.333542 g / cm^3
# Si number density = 23.388653 Si / 1000 Ang^3
#
#
#
# Elastic Constant Matrix: (Units=GPa)
#
#
# Indices 1 2 3 4 5 6 
#
# 1 112.3284 54.7579 52.1521 0.0000 0.0000 0.0000
# 2 54.7579 112.3292 52.1513 0.0000 0.0000 0.0000
# 3 52.1521 52.1513 162.1857 0.0000 0.0000 0.0000
# 4 0.0000 0.0000 0.0000 50.9145 0.0000 0.0000
# 5 0.0000 0.0000 0.0000 0.0000 50.9143 0.0000
# 6 0.0000 0.0000 0.0000 0.0000 0.0000 38.3015
#
#
#
# Elastic Compliance Matrix: (Units=1/GPa)
#
#
# Indices 1 2 3 4 5 6 
#
# 1 0.012429 -0.004941 -0.002408 0.000000 0.000000 0.000000
# 2 -0.004941 0.012429 -0.002408 0.000000 0.000000 0.000000
# 3 -0.002408 -0.002408 0.007714 0.000000 0.000000 0.000000
# 4 0.000000 0.000000 0.000000 0.019641 0.000000 0.000000
# 5 0.000000 0.000000 0.000000 0.000000 0.019641 0.000000
# 6 0.000000 0.000000 0.000000 0.000000 0.000000 0.026109
#
#
# Mechanical properties :
#
#
# Convention : Reuss Voigt Hill
#
# Bulk Modulus (GPa) = 76.57549 78.32956 77.45253
# Shear Modulus (GPa) = 41.04129 43.21152 42.12641
#
# Velocity S-wave (km/s) = 4.19352 4.30297 4.24860
# Velocity P-wave (km/s) = 7.50060 7.63220 7.56669
#
# Compressibility (1/GPa) = 0.01305901
#
# Stress axis : x y z
#
# Youngs Moduli (GPa) = 80.45682 80.45799 129.63008
#
# Poissons Ratio (x) = 0.39754 0.31213
# Poissons Ratio (y) = 0.39753 0.31211
# Poissons Ratio (z) = 0.19373 0.19372
#
# Static dielectric constant tensor:
#      x y z
#    x 4.205970 0.000000 0.000000 
#    y 0.000000 4.205970 0.000000 
#    z 0.000000 0.000000 4.812750 
# 
# 
# High freq. dielectric constant tensor:
#      x y z
#    x 1.913320 0.000000 0.000000 
#    y 0.000000 1.913320 0.000000 
#    z 0.000000 0.000000 1.959780 
# 
# From -- ./inp_files/3480.got.cif
#   From: 2010.03.12/outbox.cif.g09.slc.cpg/sg142_2_cif.got.tgz:3480.got - 2010.04.03 13:27:16.
