data_PCOD8321076
_publ_section_title
;
Structure prediction by ZEFSAII (Michael W. Deem and Ramdas Pophale) SiO2 
 PCOD8321076
Probable space group: I 41/A C D
;
_chemical_formula_sum "Si O2"
_cell_formula_units_Z 144
_cell_length_a 20.694845
_cell_length_b 20.694845
_cell_length_c 17.103701
_cell_angle_alpha 90.000000
_cell_angle_beta 90.000000
_cell_angle_gamma 90.000000
_cell_volume 7325.115075
_symmetry_space_group_name_H-M "I 41/A C D"
_symmetry_group_IT_number 142
_space_group.IT_coordinate_system_code '2'
_symmetry_cell_setting 'tetragonal'
loop_
_space_group_symop_operation_xyz
x,y,z
1/4-y,3/4+x,1/4+z
-x,1/2-y,z
1/4+y,1/4-x,3/4+z
x,-y,1/2-z
1/2-x,y,-z
3/4+y,1/4+x,1/4-z
1/4-y,1/4-x,1/4-z
-x,-y,-z
3/4+y,1/4-x,3/4-z
x,1/2+y,-z
3/4-y,3/4+x,1/4-z
-x,y,1/2+z
1/2+x,-y,z
1/4-y,3/4-x,3/4+z
3/4+y,3/4+x,3/4+z
1/2+x,1/2+y,1/2+z
3/4-y,1/4+x,3/4+z
1/2-x,-y,1/2+z
3/4+y,3/4-x,1/4+z
1/2+x,1/2-y,-z
-x,1/2+y,1/2-z
1/4+y,3/4+x,3/4-z
3/4-y,3/4-x,3/4-z
1/2-x,1/2-y,1/2-z
1/4+y,3/4-x,1/4-z
1/2+x,y,1/2-z
1/4-y,1/4+x,3/4-z
1/2-x,1/2+y,z
x,1/2-y,1/2+z
3/4-y,1/4-x,1/4+z
1/4+y,1/4+x,1/4+z
loop_
_atom_site_type_symbol
_atom_site_label
_atom_site_fract_x
_atom_site_fract_y
_atom_site_fract_z
Si Si1 0.250000 0.457156 0.500000
Si Si2 0.694858 0.917434 0.847740
Si Si3 0.524297 0.562357 0.955182
Si Si4 0.048643 0.193749 0.532732
Si Si5 0.186986 0.195539 0.450966
O O1 0.207229 0.500033 0.556037
O O2 0.206123 0.413743 0.441816
O O3 0.698547 0.848446 0.810139
O O4 0.626488 0.950582 0.829828
O O5 0.490007 0.572183 0.873411
O O6 0.500000 0.500000 0.000000
O O7 0.515506 0.626580 0.007136
O O8 0.055272 0.194728 0.625000
O O9 0.120842 0.202341 0.499470
O O10 0.000000 0.250000 0.503386
O O11 0.250000 0.217728 0.500000
#
# Coordination Sequence:
#
# PCOD8321076 Si02
#       5
#    16  32  32  32  32
#     4  10  20  40  62  88 126 158 208 252 322 366
#     4  10  22  39  62  90 122 166 203 259 313 374
#     4  11  24  40  63  95 127 163 212 264 317 384
#     4  10  24  44  65  92 127 172 215 264 325 383
#     4  11  23  40  66  92 127 169 215 263 317 390
#
# _framework density 19.658394000000001
#
# number of rings (size 3 to 8) (size 9 to 14) (size 15 to 20)
#    0.000    1.556    1.111    2.667    7.778    1.778 
#    0.000    2.222    0.000    0.000    0.000    0.000 
#    0.000    0.000    0.000    0.000    0.000    0.000 
#
# Total GULP energy -892768.381516 kJ/mol
# GULP energy per Si atom -12399.560854 kJ/mol
# Density = 1.961365 g / cm^3
# Si number density = 19.658394 Si / 1000 Ang^3
#
#
#
# Elastic Constant Matrix: (Units=GPa)
#
#
# Indices 1 2 3 4 5 6 
#
# 1 86.9972 57.5518 40.5642 0.0000 0.0000 0.0000
# 2 57.5518 86.9973 40.5645 0.0000 0.0000 0.0000
# 3 40.5642 40.5645 114.8003 0.0000 0.0000 0.0000
# 4 0.0000 0.0000 0.0000 37.7981 0.0000 0.0000
# 5 0.0000 0.0000 0.0000 0.0000 37.7984 0.0000
# 6 0.0000 0.0000 0.0000 0.0000 0.0000 30.6860
#
#
#
# Elastic Compliance Matrix: (Units=1/GPa)
#
#
# Indices 1 2 3 4 5 6 
#
# 1 0.021295 -0.012666 -0.003049 0.000000 0.000000 0.000000
# 2 -0.012666 0.021295 -0.003049 0.000000 0.000000 0.000000
# 3 -0.003049 -0.003049 0.010866 0.000000 0.000000 0.000000
# 4 0.000000 0.000000 0.000000 0.026456 0.000000 0.000000
# 5 0.000000 0.000000 0.000000 0.000000 0.026456 0.000000
# 6 0.000000 0.000000 0.000000 0.000000 0.000000 0.032588
#
#
# Mechanical properties :
#
#
# Convention : Reuss Voigt Hill
#
# Bulk Modulus (GPa) = 62.78352 62.90620 62.84486
# Shear Modulus (GPa) = 27.50357 31.26411 29.38384
#
# Velocity S-wave (km/s) = 3.74448 3.99227 3.87036
# Velocity P-wave (km/s) = 7.12049 7.30206 7.21185
#
# Compressibility (1/GPa) = 0.01592775
#
# Stress axis : x y z
#
# Youngs Moduli (GPa) = 46.95878 46.95871 92.03339
#
# Poissons Ratio (x) = 0.59477 0.28062
# Poissons Ratio (y) = 0.59477 0.28063
# Poissons Ratio (z) = 0.14318 0.14319
#
# Static dielectric constant tensor:
#      x y z
#    x 3.750460 0.000000 0.000000 
#    y 0.000000 3.750450 0.000000 
#    z 0.000000 0.000000 4.024780 
# 
# 
# High freq. dielectric constant tensor:
#      x y z
#    x 1.773600 0.000000 0.000000 
#    y 0.000000 1.773600 0.000000 
#    z 0.000000 0.000000 1.783720 
# 
# From -- ./inp_files/7294.got.cif
#   From: 2010.03.12/outbox.cif.g09.slc.cpg/sg142_4_cif.got.tgz:7294.got - 2010.04.03 13:27:16.
