data_PCOD8321459
_publ_section_title
;
Structure prediction by ZEFSAII (Michael W. Deem and Ramdas Pophale) SiO2 
 PCOD8321459
Probable space group: P 32
;
_chemical_formula_sum "Si O2"
_cell_formula_units_Z 24
_cell_length_a 11.170723
_cell_length_b 11.170723
_cell_length_c 11.513341
_cell_angle_alpha 90.000000
_cell_angle_beta 90.000000
_cell_angle_gamma 120.000000
_cell_volume 1244.212514
_symmetry_space_group_name_H-M "P 32"
_symmetry_group_IT_number 145
_symmetry_cell_setting 'hexagonal'
loop_
_space_group_symop_operation_xyz
x,y,z
-y,x-y,2/3+z
-x+y,-x,1/3+z
loop_
_atom_site_type_symbol
_atom_site_label
_atom_site_fract_x
_atom_site_fract_y
_atom_site_fract_z
Si Si1 0.945938 0.139788 0.184480
Si Si2 0.139483 0.526878 0.734962
Si Si3 0.339947 0.899510 0.479749
Si Si4 0.666667 0.113394 0.126388
Si Si5 0.912294 0.975323 0.628233
Si Si6 0.270304 0.691343 0.291209
Si Si7 0.468593 0.135260 0.293054
Si Si8 0.993387 0.226230 0.773026
O O1 0.784729 0.091600 0.185702
O O2 0.047332 0.300403 0.221318
O O3 0.968151 0.041417 0.269847
O O4 0.987918 0.136642 0.051781
O O5 0.184610 0.530025 0.867661
O O6 0.260067 0.625250 0.649595
O O7 0.080262 0.366264 0.698124
O O8 0.026462 0.575067 0.733740
O O9 0.242735 0.755971 0.407564
O O10 0.433894 0.869583 0.570341
O O11 0.434846 0.016460 0.387903
O O12 0.607278 0.166882 0.227787
O O13 0.726055 0.226270 0.024989
O O14 0.820098 0.910696 0.511878
O O15 0.899439 0.102355 0.682435
O O16 0.349793 0.101512 0.198206
#
# Coordination Sequence:
#
# PCOD8321459 Si02
#       8
#     3   3   3   3   3   3   3   3
#     4  10  21  35  58  84 118 156 192 240 292 347
#     4  10  21  35  58  84 118 156 192 240 292 347
#     4  10  19  37  55  86 116 150 195 234 296 341
#     4  10  20  38  64  80 114 160 196 234 288 354
#     4  10  20  33  60  86 113 153 193 241 288 347
#     4  10  20  33  60  86 113 153 193 241 288 347
#     4  10  20  40  66  80 118 160 190 238 294 348
#     4  10  19  37  55  86 116 150 195 234 296 341
#
# _framework density 19.28931
#
# number of rings (size 3 to 8) (size 9 to 14) (size 15 to 20)
#    0.000    2.000    5.000    0.000    3.500    0.000 
#    0.000    0.000   66.000    0.000    0.000    0.000 
#    0.000    0.000    0.000    0.000    0.000    0.000 
#
# Total GULP energy -297464.020205 kJ/mol
# GULP energy per Si atom -12394.334175 kJ/mol
# Density = 1.924541 g / cm^3
# Si number density = 19.289310 Si / 1000 Ang^3
#
#
#
# Elastic Constant Matrix: (Units=GPa)
#
#
# Indices 1 2 3 4 5 6 
#
# 1 104.1308 44.0724 12.8778 -2.9579 0.0000 0.0000
# 2 44.0724 104.1308 12.8778 2.9579 0.0000 0.0000
# 3 12.8778 12.8778 24.7684 0.0000 0.0000 0.0000
# 4 -2.9579 2.9579 0.0000 28.2379 0.0000 0.0000
# 5 0.0000 0.0000 0.0000 0.0000 28.2379 -2.9579
# 6 0.0000 0.0000 0.0000 0.0000 -2.9579 30.0292
#
#
#
# Elastic Compliance Matrix: (Units=1/GPa)
#
#
# Indices 1 2 3 4 5 6 
#
# 1 0.012121 -0.004703 -0.003857 0.001762 0.000000 0.000000
# 2 -0.004703 0.012121 -0.003857 -0.001762 0.000000 0.000000
# 3 -0.003857 -0.003857 0.044384 0.000000 0.000000 0.000000
# 4 0.001762 -0.001762 0.000000 0.035783 0.000000 0.000000
# 5 0.000000 0.000000 0.000000 0.000000 0.035783 0.003525
# 6 0.000000 0.000000 0.000000 0.000000 0.003525 0.033648
#
#
# Mechanical properties :
#
#
# Convention : Reuss Voigt Hill
#
# Bulk Modulus (GPa) = 22.83460 41.40954 32.12207
# Shear Modulus (GPa) = 23.44444 28.18116 25.81280
#
# Velocity S-wave (km/s) = 3.49006 3.82641 3.66210
# Velocity P-wave (km/s) = 5.30135 6.40595 5.87965
#
# Compressibility (1/GPa) = 0.04379320
#
# Stress axis : x y z
#
# Youngs Moduli (GPa) = 82.50225 82.50225 22.53041
#
# Poissons Ratio (x) = 0.38802 0.08689
# Poissons Ratio (y) = 0.38802 0.08689
# Poissons Ratio (z) = 0.31818 0.31818
#
# Static dielectric constant tensor:
#      x y z
#    x 3.559240 0.000000 0.000000 
#    y 0.000000 3.559240 0.000000 
#    z 0.000000 0.000000 3.421300 
# 
# 
# High freq. dielectric constant tensor:
#      x y z
#    x 1.745520 0.000000 0.000000 
#    y 0.000000 1.745520 0.000000 
#    z 0.000000 0.000000 1.741320 
# 
# From -- ./inp_files/705.got.cif
#   From: 2010.03.12/outbox.cif.g09.slc.cpg/sg145_cif.got.tgz:705.got - 2010.04.03 13:35:35.
