data_PCOD8321844
_publ_section_title
;
Structure prediction by ZEFSAII (Michael W. Deem and Ramdas Pophale) SiO2 
 PCOD8321844
Probable space group: P 3 1 2
;
_chemical_formula_sum "Si O2"
_cell_formula_units_Z 48
_cell_length_a 12.758753
_cell_length_b 12.758753
_cell_length_c 20.159229
_cell_angle_alpha 90.000000
_cell_angle_beta 90.000000
_cell_angle_gamma 120.000000
_cell_volume 2841.979951
_symmetry_space_group_name_H-M "P 3 1 2"
_symmetry_group_IT_number 149
_symmetry_cell_setting 'hexagonal'
loop_
_space_group_symop_operation_xyz
x,y,z
-y,x-y,z
-x+y,-x,z
-y,-x,-z
-x+y,y,-z
x,x-y,-z
loop_
_atom_site_type_symbol
_atom_site_label
_atom_site_fract_x
_atom_site_fract_y
_atom_site_fract_z
Si Si1 0.091938 0.666397 0.924075
Si Si2 0.577424 0.666131 0.689638
Si Si3 0.091938 0.666397 0.075925
Si Si4 0.759252 0.000033 0.575628
Si Si5 0.759252 0.759218 0.575628
Si Si6 0.911537 0.576825 0.189510
Si Si7 0.423175 0.088463 0.189510
Si Si8 0.333869 0.911293 0.310362
O O1 0.206195 0.793805 0.904306
O O2 0.129134 0.564567 0.911558
O O3 0.978826 0.641252 0.878593
O O4 0.053085 0.665648 1.000000
O O5 0.646243 0.673251 0.621601
O O6 0.646341 0.645440 0.749640
O O7 0.575361 0.787680 0.704695
O O8 0.441113 0.558887 0.682332
O O9 0.978826 0.641252 0.121407
O O10 0.797982 0.898991 0.585244
O O11 0.719970 0.002404 0.500000
O O12 0.646243 0.972992 0.621601
O O13 0.872585 0.127415 0.596495
O O14 0.871934 0.435967 0.188939
O O15 0.794683 0.589367 0.196815
O O16 0.354560 0.000901 0.250360
#
# Coordination Sequence:
#
# PCOD8321844 Si02
#       8
#     6   6   6   6   6   6   6   6
#     4   9  17  30  50  75 100 126 157 194 235 278
#     4  10  20  33  50  72  97 125 157 195 240 287
#     4   9  17  30  50  75 100 126 157 194 235 278
#     4   9  17  30  49  72  97 126 160 196 232 272
#     4   9  17  30  49  72  97 126 160 196 232 272
#     4  10  20  33  49  69  94 125 160 197 237 281
#     4  10  20  33  49  69  94 125 160 197 237 281
#     4  10  20  33  50  72  97 125 157 195 240 287
#
# _framework density 16.889634000000001
#
# number of rings (size 3 to 8) (size 9 to 14) (size 15 to 20)
#    0.000    2.500    0.000    2.500    0.000    3.000 
#    0.000    2.500    0.000    9.000    0.000    0.000 
#    0.000    0.000    0.000    0.000    0.000    0.000 
#
# Total GULP energy -595300.414265 kJ/mol
# GULP energy per Si atom -12402.091964 kJ/mol
# Density = 1.685119 g / cm^3
# Si number density = 16.889634 Si / 1000 Ang^3
#
#
#
# Elastic Constant Matrix: (Units=GPa)
#
#
# Indices 1 2 3 4 5 6 
#
# 1 113.0778 69.4213 62.9076 0.0000 0.0000 0.0000
# 2 69.4213 113.0778 62.9076 0.0000 0.0000 0.0000
# 3 62.9076 62.9076 104.9303 0.0000 0.0000 0.0000
# 4 0.0000 0.0000 0.0000 25.4312 0.0000 0.0000
# 5 0.0000 0.0000 0.0000 0.0000 25.4312 0.0000
# 6 0.0000 0.0000 0.0000 0.0000 0.0000 21.8283
#
#
#
# Elastic Compliance Matrix: (Units=1/GPa)
#
#
# Indices 1 2 3 4 5 6 
#
# 1 0.016123 -0.006783 -0.005599 0.000000 0.000000 0.000000
# 2 -0.006783 0.016123 -0.005599 0.000000 0.000000 0.000000
# 3 -0.005599 -0.005599 0.016244 0.000000 0.000000 0.000000
# 4 0.000000 0.000000 0.000000 0.039322 0.000000 0.000000
# 5 0.000000 0.000000 0.000000 0.000000 0.039322 0.000000
# 6 0.000000 0.000000 0.000000 0.000000 0.000000 0.045812
#
#
# Mechanical properties :
#
#
# Convention : Reuss Voigt Hill
#
# Bulk Modulus (GPa) = 79.83377 80.17319 80.00348
# Shear Modulus (GPa) = 23.46490 23.59476 23.52983
#
# Velocity S-wave (km/s) = 3.73139 3.74170 3.73654
# Velocity P-wave (km/s) = 8.12003 8.13873 8.12939
#
# Compressibility (1/GPa) = 0.01252603
#
# Stress axis : x y z
#
# Youngs Moduli (GPa) = 62.02379 62.02379 61.56177
#
# Poissons Ratio (x) = 0.42072 0.34470
# Poissons Ratio (y) = 0.42072 0.34470
# Poissons Ratio (z) = 0.34729 0.34729
#
# Static dielectric constant tensor:
#      x y z
#    x 3.054030 0.000000 0.000000 
#    y 0.000000 3.054030 0.000000 
#    z 0.000000 0.000000 3.396280 
# 
# 
# High freq. dielectric constant tensor:
#      x y z
#    x 1.644550 0.000000 0.000000 
#    y 0.000000 1.644550 0.000000 
#    z 0.000000 0.000000 1.665210 
# 
# From -- ./inp_files/1142.got.cif
#   From: 2010.03.12/outbox.cif.g09.slc.cpg/sg149_cif.got.tgz:1142.got - 2010.04.03 13:40:41.
