data_PCOD8321582
_publ_section_title
;
Structure prediction by ZEFSAII (Michael W. Deem and Ramdas Pophale) SiO2 
 PCOD8321582
Probable space group: R 3
;
_chemical_formula_sum "Si O2"
_cell_formula_units_Z 18
_cell_length_a 8.040262
_cell_length_b 8.040262
_cell_length_c 9.471767
_cell_angle_alpha 90.000000
_cell_angle_beta 90.000000
_cell_angle_gamma 120.000000
_cell_volume 530.276083
_symmetry_space_group_name_H-M "R 3"
_symmetry_group_IT_number 146
_symmetry_cell_setting 'hexagonal'
loop_
_space_group_symop_operation_xyz
x,y,z
-y,x-y,z
-x+y,-x,z
2/3+x,1/3+y,1/3+z
2/3-y,1/3+x-y,1/3+z
2/3-x+y,1/3-x,1/3+z
1/3+x,2/3+y,2/3+z
1/3-y,2/3+x-y,2/3+z
1/3-x+y,2/3-x,2/3+z
loop_
_atom_site_type_symbol
_atom_site_label
_atom_site_fract_x
_atom_site_fract_y
_atom_site_fract_z
Si Si1 0.666666 0.979756 0.841720
Si Si2 0.020244 0.333334 0.341720
O O1 0.669386 0.858854 0.701420
O O2 0.474478 0.997280 0.868087
O O3 0.663946 0.856135 0.982021
O O4 0.858856 0.189468 0.815355
#
# Coordination Sequence:
#
# PCOD8321582 Si02
#       2
#     9   9
#     4  12  28  50  76 110 148 194 244 302 364 434
#     4  12  28  50  76 110 148 194 244 302 364 434
#
# _framework density 33.944583000000002
#
# number of rings (size 3 to 8) (size 9 to 14) (size 15 to 20)
#    0.000    0.000    0.000    8.000    0.000    8.000 
#    0.000    0.000    0.000    0.000    0.000    0.000 
#    0.000    0.000    0.000    0.000    0.000    0.000 
#
# Total GULP energy -74482.718961 kJ/mol
# GULP energy per Si atom -12413.786494 kJ/mol
# Density = 3.386732 g / cm^3
# Si number density = 33.944583 Si / 1000 Ang^3
#
#
#
# Elastic Constant Matrix: (Units=GPa)
#
#
# Indices 1 2 3 4 5 6 
#
# 1 383.6243 176.0455 125.4750 -11.0631 0.0002 0.0000
# 2 176.0455 383.6243 125.4750 11.0631 -0.0002 0.0000
# 3 125.4750 125.4750 425.8420 0.0000 0.0000 0.0000
# 4 -11.0631 11.0631 0.0000 53.0890 0.0000 -0.0002
# 5 0.0002 -0.0002 0.0000 0.0000 53.0890 -11.0631
# 6 0.0000 0.0000 0.0000 -0.0002 -11.0631 103.7894
#
#
#
# Elastic Compliance Matrix: (Units=1/GPa)
#
#
# Indices 1 2 3 4 5 6 
#
# 1 0.003493 -0.001434 -0.000607 0.001027 0.000000 0.000000
# 2 -0.001434 0.003493 -0.000607 -0.001027 0.000000 0.000000
# 3 -0.000607 -0.000607 0.002706 0.000000 0.000000 0.000000
# 4 0.001027 -0.001027 0.000000 0.019264 0.000000 0.000000
# 5 0.000000 0.000000 0.000000 0.000000 0.019264 0.002053
# 6 0.000000 0.000000 0.000000 0.000000 0.002053 0.009854
#
#
# Mechanical properties :
#
#
# Convention : Reuss Voigt Hill
#
# Bulk Modulus (GPa) = 227.43645 227.45350 227.44497
# Shear Modulus (GPa) = 77.12030 93.06650 85.09340
#
# Velocity S-wave (km/s) = 4.77167 5.24182 5.01226
# Velocity P-wave (km/s) = 9.87452 10.18766 10.03231
#
# Compressibility (1/GPa) = 0.00439683
#
# Stress axis : x y z
#
# Youngs Moduli (GPa) = 286.30102 286.30102 369.58029
#
# Poissons Ratio (x) = 0.41057 0.22419
# Poissons Ratio (y) = 0.41057 0.22419
# Poissons Ratio (z) = 0.17368 0.17368
#
# Static dielectric constant tensor:
#      x y z
#    x 6.356230 0.000000 0.000000 
#    y 0.000000 6.356230 0.000000 
#    z 0.000000 0.000000 8.404330 
# 
# 
# High freq. dielectric constant tensor:
#      x y z
#    x 2.465170 0.000000 0.000000 
#    y 0.000000 2.465170 0.000000 
#    z 0.000000 0.000000 2.668880 
# 
# From -- ./inp_files/961.got.cif
#   From: 2010.06.25/outbox.cif.g09.slc.cpg/sg146_cif.got.tgz:961.got - 2010.06.28 11:17:22.
