data_PCOD8321053
_publ_section_title
;
Structure prediction by ZEFSAII (Michael W. Deem and Ramdas Pophale) SiO2 
 PCOD8321053
Probable space group: I 41/A C D
;
_chemical_formula_sum "Si O2"
_cell_formula_units_Z 240
_cell_length_a 20.156421
_cell_length_b 20.156421
_cell_length_c 26.678005
_cell_angle_alpha 90.000000
_cell_angle_beta 90.000000
_cell_angle_gamma 90.000000
_cell_volume 10838.774754
_symmetry_space_group_name_H-M "I 41/A C D"
_symmetry_group_IT_number 142
_space_group.IT_coordinate_system_code '2'
_symmetry_cell_setting 'tetragonal'
loop_
_space_group_symop_operation_xyz
x,y,z
1/4-y,3/4+x,1/4+z
-x,1/2-y,z
1/4+y,1/4-x,3/4+z
x,-y,1/2-z
1/2-x,y,-z
3/4+y,1/4+x,1/4-z
1/4-y,1/4-x,1/4-z
-x,-y,-z
3/4+y,1/4-x,3/4-z
x,1/2+y,-z
3/4-y,3/4+x,1/4-z
-x,y,1/2+z
1/2+x,-y,z
1/4-y,3/4-x,3/4+z
3/4+y,3/4+x,3/4+z
1/2+x,1/2+y,1/2+z
3/4-y,1/4+x,3/4+z
1/2-x,-y,1/2+z
3/4+y,3/4-x,1/4+z
1/2+x,1/2-y,-z
-x,1/2+y,1/2-z
1/4+y,3/4+x,3/4-z
3/4-y,3/4-x,3/4-z
1/2-x,1/2-y,1/2-z
1/4+y,3/4-x,1/4-z
1/2+x,y,1/2-z
1/4-y,1/4+x,3/4-z
1/2-x,1/2+y,z
x,1/2-y,1/2+z
3/4-y,1/4-x,1/4+z
1/4+y,1/4+x,1/4+z
loop_
_atom_site_type_symbol
_atom_site_label
_atom_site_fract_x
_atom_site_fract_y
_atom_site_fract_z
Si Si1 0.544415 0.669167 0.968561
Si Si2 0.247715 0.997715 0.375000
Si Si3 0.105845 0.824383 0.930908
Si Si4 0.100256 0.475603 0.865909
Si Si5 0.565167 0.979656 0.469857
Si Si6 0.538696 0.441916 0.783622
Si Si7 0.397093 0.196799 0.055410
Si Si8 0.200956 0.434074 0.219520
O O1 0.577011 0.598608 0.961254
O O2 0.590163 0.723582 0.939794
O O3 0.470029 0.664507 0.946499
O O4 0.546438 0.687537 0.028443
O O5 0.266457 0.922926 0.360765
O O6 0.257399 0.045245 0.328208
O O7 0.077292 0.827292 0.875000
O O8 0.158257 0.764821 0.930794
O O9 0.145827 0.888353 0.947803
O O10 0.056875 0.504829 0.912627
O O11 0.094210 0.524452 0.818598
O O12 0.079015 0.399457 0.851083
O O13 0.632784 0.998985 0.499507
O O14 0.500000 0.000000 0.500000
O O15 0.504779 0.500000 0.750000
O O16 0.572511 0.388550 0.746823
O O17 0.180276 0.500000 0.250000
#
# Coordination Sequence:
#
# PCOD8321053 Si02
#       8
#    32  16  32  32  32  32  32  32
#     4   9  21  41  66  96 135 167 221 287 344 409
#     4  12  26  44  64  98 131 185 232 268 364 416
#     4  10  20  37  64  97 128 172 223 274 344 416
#     4  11  25  42  65  95 130 180 230 275 344 430
#     4  11  26  42  63 102 135 176 224 291 351 409
#     4   9  20  40  62  91 125 173 219 270 331 410
#     4   9  20  44  68  94 130 174 222 279 347 408
#     4  11  23  44  66  92 138 176 225 285 339 422
#
# _framework density 22.142724999999999
#
# number of rings (size 3 to 8) (size 9 to 14) (size 15 to 20)
#    0.000    1.867    2.000    0.400    5.600    4.800 
#    0.000    6.000    0.000    0.000    0.000    0.000 
#    0.000    0.000    0.000    0.000    0.000    0.000 
#
# Total GULP energy -1486671.679505 kJ/mol
# GULP energy per Si atom -12388.930663 kJ/mol
# Density = 2.209233 g / cm^3
# Si number density = 22.142725 Si / 1000 Ang^3
#
#
#
# Elastic Constant Matrix: (Units=GPa)
#
#
# Indices 1 2 3 4 5 6 
#
# 1 88.7464 26.7578 37.0030 0.0000 0.0000 0.0000
# 2 26.7578 88.7464 37.0030 0.0000 0.0000 0.0000
# 3 37.0030 37.0030 134.7822 0.0000 0.0000 0.0000
# 4 0.0000 0.0000 0.0000 25.7353 0.0000 0.0000
# 5 0.0000 0.0000 0.0000 0.0000 25.7353 0.0000
# 6 0.0000 0.0000 0.0000 0.0000 0.0000 27.1079
#
#
#
# Elastic Compliance Matrix: (Units=1/GPa)
#
#
# Indices 1 2 3 4 5 6 
#
# 1 0.013319 -0.002813 -0.002884 0.000000 0.000000 0.000000
# 2 -0.002813 0.013319 -0.002884 0.000000 0.000000 0.000000
# 3 -0.002884 -0.002884 0.009003 0.000000 0.000000 0.000000
# 4 0.000000 0.000000 0.000000 0.038857 0.000000 0.000000
# 5 0.000000 0.000000 0.000000 0.000000 0.038857 0.000000
# 6 0.000000 0.000000 0.000000 0.000000 0.000000 0.036890
#
#
# Mechanical properties :
#
#
# Convention : Reuss Voigt Hill
#
# Bulk Modulus (GPa) = 54.11982 57.08915 55.60449
# Shear Modulus (GPa) = 28.80731 29.81643 29.31187
#
# Velocity S-wave (km/s) = 3.61083 3.67353 3.64231
# Velocity P-wave (km/s) = 6.47136 6.62053 6.54637
#
# Compressibility (1/GPa) = 0.01847752
#
# Stress axis : x y z
#
# Youngs Moduli (GPa) = 75.08162 75.08162 111.07364
#
# Poissons Ratio (x) = 0.21122 0.32036
# Poissons Ratio (y) = 0.21122 0.32036
# Poissons Ratio (z) = 0.21655 0.21655
#
# Static dielectric constant tensor:
#      x y z
#    x 3.876280 0.000000 0.000000 
#    y 0.000000 3.876280 0.000000 
#    z 0.000000 0.000000 4.193380 
# 
# 
# High freq. dielectric constant tensor:
#      x y z
#    x 1.861700 0.000000 0.000000 
#    y 0.000000 1.861700 0.000000 
#    z 0.000000 0.000000 1.886410 
# 
# From -- ./inp_files/11681.got.cif
#   From: 2010.03.12/outbox.cif.g09.slc.cpg/sg142_6_cif.got.tgz:11681.got - 2010.04.03 13:27:16.
