data_PCOD8321388
_publ_section_title
;
Structure prediction by ZEFSAII (Michael W. Deem and Ramdas Pophale) SiO2 
 PCOD8321388
Probable space group: P 31
;
_chemical_formula_sum "Si O2"
_cell_formula_units_Z 21
_cell_length_a 9.294926
_cell_length_b 9.294926
_cell_length_c 11.214585
_cell_angle_alpha 90.000000
_cell_angle_beta 90.000000
_cell_angle_gamma 120.000000
_cell_volume 839.084525
_symmetry_space_group_name_H-M "P 31"
_symmetry_group_IT_number 144
_symmetry_cell_setting 'hexagonal'
loop_
_space_group_symop_operation_xyz
x,y,z
-y,x-y,1/3+z
-x+y,-x,2/3+z
loop_
_atom_site_type_symbol
_atom_site_label
_atom_site_fract_x
_atom_site_fract_y
_atom_site_fract_z
Si Si1 0.813731 0.352618 0.625000
Si Si2 0.233916 0.654328 0.971823
Si Si3 0.312541 0.401778 0.057680
Si Si4 0.992386 0.153129 0.629211
Si Si5 0.986030 0.120177 0.127914
Si Si6 0.486844 0.282437 0.725348
Si Si7 0.573080 0.905227 0.888408
O O1 0.862345 0.213241 0.650865
O O2 0.622847 0.247249 0.666067
O O3 0.843514 0.415515 0.488452
O O4 0.918225 0.518901 0.702705
O O5 0.144599 0.670070 0.856338
O O6 0.419976 0.811946 0.980929
O O7 0.274568 0.504923 0.959620
O O8 0.118979 0.623401 0.087282
O O9 0.151739 0.218795 0.046748
O O10 0.076736 0.143107 0.751608
O O11 0.135995 0.293832 0.547230
O O12 0.899848 0.961265 0.585057
O O13 0.880084 0.217514 0.127212
O O14 0.423749 0.333497 0.607428
#
# Coordination Sequence:
#
# PCOD8321388 Si02
#       7
#     3   3   3   3   3   3   3
#     4  12  26  49  76 112 154 201 259 315 394 457
#     4  10  23  42  80 112 154 196 263 308 392 456
#     4  11  25  44  76 113 153 200 259 320 385 466
#     4  11  25  47  76 101 148 199 254 309 382 463
#     4  11  27  47  70 107 146 200 247 321 382 455
#     4  11  28  47  77 111 157 196 259 326 387 465
#     4  10  22  46  77 114 150 204 251 319 384 464
#
# _framework density 25.027279
#
# number of rings (size 3 to 8) (size 9 to 14) (size 15 to 20)
#    0.000    1.143    1.429    2.571    8.000    5.714 
#    0.000    0.000    0.000    0.000    0.000    0.000 
#    0.000    0.000    0.000    0.000    0.000    0.000 
#
# Total GULP energy -260187.720210 kJ/mol
# GULP energy per Si atom -12389.891439 kJ/mol
# Density = 2.497032 g / cm^3
# Si number density = 25.027279 Si / 1000 Ang^3
#
#
#
# Elastic Constant Matrix: (Units=GPa)
#
#
# Indices 1 2 3 4 5 6 
#
# 1 145.0732 56.2481 38.0898 -5.8004 -1.4799 0.0000
# 2 56.2481 145.0732 38.0898 5.8004 1.4799 0.0000
# 3 38.0898 38.0898 67.6471 0.0000 0.0000 0.0000
# 4 -5.8004 5.8004 0.0000 33.0232 0.0000 1.4799
# 5 -1.4799 1.4799 0.0000 0.0000 33.0232 -5.8004
# 6 0.0000 0.0000 0.0000 1.4799 -5.8004 44.4125
#
#
#
# Elastic Compliance Matrix: (Units=1/GPa)
#
#
# Indices 1 2 3 4 5 6 
#
# 1 0.008926 -0.002614 -0.003554 0.002027 0.000517 0.000000
# 2 -0.002614 0.008926 -0.003554 -0.002027 -0.000517 0.000000
# 3 -0.003554 -0.003554 0.018785 0.000000 0.000000 0.000000
# 4 0.002027 -0.002027 0.000000 0.031040 0.000000 -0.001034
# 5 0.000517 -0.000517 0.000000 0.000000 0.031040 0.004054
# 6 0.000000 0.000000 0.000000 -0.001034 0.004054 0.023080
#
#
# Mechanical properties :
#
#
# Convention : Reuss Voigt Hill
#
# Bulk Modulus (GPa) = 58.16426 69.18318 63.67372
# Shear Modulus (GPa) = 34.01991 37.11617 35.56804
#
# Velocity S-wave (km/s) = 3.69089 3.85519 3.77393
# Velocity P-wave (km/s) = 6.43850 6.89346 6.66986
#
# Compressibility (1/GPa) = 0.01719269
#
# Stress axis : x y z
#
# Youngs Moduli (GPa) = 112.03171 112.03171 53.23398
#
# Poissons Ratio (x) = 0.29285 0.18920
# Poissons Ratio (y) = 0.29285 0.18920
# Poissons Ratio (z) = 0.39817 0.39817
#
# Static dielectric constant tensor:
#      x y z
#    x 4.755130 0.000000 0.000000 
#    y 0.000000 4.755130 0.000000 
#    z 0.000000 0.000000 4.209140 
# 
# 
# High freq. dielectric constant tensor:
#      x y z
#    x 2.008940 0.000000 0.000000 
#    y 0.000000 2.008940 0.000000 
#    z 0.000000 0.000000 1.981170 
# 
# From -- ./inp_files/589.got.cif
#   From: 2010.03.12/outbox.cif.g09.slc.cpg/sg144_cif.got.tgz:589.got - 2010.04.03 13:34:42.
