data_PCOD8321228
_publ_section_title
;
Structure prediction by ZEFSAII (Michael W. Deem and Ramdas Pophale) SiO2 
 PCOD8321228
Probable space group: I 41/A C D
;
_chemical_formula_sum "Si O2"
_cell_formula_units_Z 96
_cell_length_a 13.006620
_cell_length_b 13.006620
_cell_length_c 27.599866
_cell_angle_alpha 90.000000
_cell_angle_beta 90.000000
_cell_angle_gamma 90.000000
_cell_volume 4669.129052
_symmetry_space_group_name_H-M "I 41/A C D"
_symmetry_group_IT_number 142
_space_group.IT_coordinate_system_code '2'
_symmetry_cell_setting 'tetragonal'
loop_
_space_group_symop_operation_xyz
x,y,z
1/4-y,3/4+x,1/4+z
-x,1/2-y,z
1/4+y,1/4-x,3/4+z
x,-y,1/2-z
1/2-x,y,-z
3/4+y,1/4+x,1/4-z
1/4-y,1/4-x,1/4-z
-x,-y,-z
3/4+y,1/4-x,3/4-z
x,1/2+y,-z
3/4-y,3/4+x,1/4-z
-x,y,1/2+z
1/2+x,-y,z
1/4-y,3/4-x,3/4+z
3/4+y,3/4+x,3/4+z
1/2+x,1/2+y,1/2+z
3/4-y,1/4+x,3/4+z
1/2-x,-y,1/2+z
3/4+y,3/4-x,1/4+z
1/2+x,1/2-y,-z
-x,1/2+y,1/2-z
1/4+y,3/4+x,3/4-z
3/4-y,3/4-x,3/4-z
1/2-x,1/2-y,1/2-z
1/4+y,3/4-x,1/4-z
1/2+x,y,1/2-z
1/4-y,1/4+x,3/4-z
1/2-x,1/2+y,z
x,1/2-y,1/2+z
3/4-y,1/4-x,1/4+z
1/4+y,1/4+x,1/4+z
loop_
_atom_site_type_symbol
_atom_site_label
_atom_site_fract_x
_atom_site_fract_y
_atom_site_fract_z
Si Si1 0.731939 0.088009 0.926186
Si Si2 0.045575 0.640750 0.822495
Si Si3 0.116761 0.506872 0.986178
O O1 0.715270 0.034731 0.875000
O O2 0.694072 0.205332 0.926032
O O3 0.850844 0.078155 0.944613
O O4 0.675307 0.013889 0.964139
O O5 0.098151 0.651850 0.875000
O O6 0.129571 0.605939 0.783608
O O7 0.000000 0.750000 0.806099
O O8 0.000000 0.500000 0.000000
#
# Coordination Sequence:
#
# PCOD8321228 Si02
#       3
#    32  32  32
#     4  11  23  40  66  99 126 178 231 275 358 425
#     4  11  20  41  69  89 131 177 222 286 360 410
#     4  11  23  39  63  96 134 170 226 288 341 429
#
# _framework density 20.560580000000002
#
# number of rings (size 3 to 8) (size 9 to 14) (size 15 to 20)
#    0.000    1.000    6.667    1.000    0.000    5.333 
#    0.000    0.000    0.000    0.000    0.000    0.000 
#    0.000    0.000    0.000    0.000    0.000    0.000 
#
# Total GULP energy -594813.264823 kJ/mol
# GULP energy per Si atom -12391.943017 kJ/mol
# Density = 2.051378 g / cm^3
# Si number density = 20.560580 Si / 1000 Ang^3
#
#
#
# Elastic Constant Matrix: (Units=GPa)
#
#
# Indices 1 2 3 4 5 6 
#
# 1 131.6023 50.7906 65.1202 0.0000 0.0000 0.0000
# 2 50.7906 131.6030 65.1202 0.0000 0.0000 0.0000
# 3 65.1202 65.1202 170.5941 0.0000 0.0000 0.0000
# 4 0.0000 0.0000 0.0000 32.4494 0.0000 0.0000
# 5 0.0000 0.0000 0.0000 0.0000 32.4478 0.0000
# 6 0.0000 0.0000 0.0000 0.0000 0.0000 44.7616
#
#
#
# Elastic Compliance Matrix: (Units=1/GPa)
#
#
# Indices 1 2 3 4 5 6 
#
# 1 0.009956 -0.002419 -0.002877 0.000000 0.000000 0.000000
# 2 -0.002419 0.009956 -0.002877 0.000000 0.000000 0.000000
# 3 -0.002877 -0.002877 0.008058 0.000000 0.000000 0.000000
# 4 0.000000 0.000000 0.000000 0.030817 0.000000 0.000000
# 5 0.000000 0.000000 0.000000 0.000000 0.030819 0.000000
# 6 0.000000 0.000000 0.000000 0.000000 0.000000 0.022341
#
#
# Mechanical properties :
#
#
# Convention : Reuss Voigt Hill
#
# Bulk Modulus (GPa) = 86.02765 88.42904 87.22834
# Shear Modulus (GPa) = 37.83096 38.78298 38.30697
#
# Velocity S-wave (km/s) = 4.29415 4.34784 4.32108
# Velocity P-wave (km/s) = 8.15587 8.26483 8.21053
#
# Compressibility (1/GPa) = 0.01162417
#
# Stress axis : x y z
#
# Youngs Moduli (GPa) = 100.44422 100.44485 124.09410
#
# Poissons Ratio (x) = 0.24294 0.35703
# Poissons Ratio (y) = 0.24294 0.35703
# Poissons Ratio (z) = 0.28899 0.28899
#
# Static dielectric constant tensor:
#      x y z
#    x 2.685020 0.000000 0.000000 
#    y 0.000000 2.685010 0.000000 
#    z 0.000000 0.000000 3.960800 
# 
# 
# High freq. dielectric constant tensor:
#      x y z
#    x 1.801330 0.000000 0.000000 
#    y 0.000000 1.801330 0.000000 
#    z 0.000000 0.000000 1.815880 
# 
# From -- ./inp_files/12103.got.cif
#   From: 2010.03.12/outbox.cif.g09.slc.cpg/sg142_7_cif.got.tgz:12103.got - 2010.04.03 13:27:16.
