data_PCOD8321104
_publ_section_title
;
Structure prediction by ZEFSAII (Michael W. Deem and Ramdas Pophale) SiO2 
 PCOD8321104
Probable space group: I 41/A C D
;
_chemical_formula_sum "Si O2"
_cell_formula_units_Z 192
_cell_length_a 20.030651
_cell_length_b 20.030651
_cell_length_c 23.927139
_cell_angle_alpha 90.000000
_cell_angle_beta 90.000000
_cell_angle_gamma 90.000000
_cell_volume 9600.213709
_symmetry_space_group_name_H-M "I 41/A C D"
_symmetry_group_IT_number 142
_space_group.IT_coordinate_system_code '2'
_symmetry_cell_setting 'tetragonal'
loop_
_space_group_symop_operation_xyz
x,y,z
1/4-y,3/4+x,1/4+z
-x,1/2-y,z
1/4+y,1/4-x,3/4+z
x,-y,1/2-z
1/2-x,y,-z
3/4+y,1/4+x,1/4-z
1/4-y,1/4-x,1/4-z
-x,-y,-z
3/4+y,1/4-x,3/4-z
x,1/2+y,-z
3/4-y,3/4+x,1/4-z
-x,y,1/2+z
1/2+x,-y,z
1/4-y,3/4-x,3/4+z
3/4+y,3/4+x,3/4+z
1/2+x,1/2+y,1/2+z
3/4-y,1/4+x,3/4+z
1/2-x,-y,1/2+z
3/4+y,3/4-x,1/4+z
1/2+x,1/2-y,-z
-x,1/2+y,1/2-z
1/4+y,3/4+x,3/4-z
3/4-y,3/4-x,3/4-z
1/2-x,1/2-y,1/2-z
1/4+y,3/4-x,1/4-z
1/2+x,y,1/2-z
1/4-y,1/4+x,3/4-z
1/2-x,1/2+y,z
x,1/2-y,1/2+z
3/4-y,1/4-x,1/4+z
1/4+y,1/4+x,1/4+z
loop_
_atom_site_type_symbol
_atom_site_label
_atom_site_fract_x
_atom_site_fract_y
_atom_site_fract_z
Si Si1 0.701467 0.419397 0.750239
Si Si2 0.876146 0.420631 0.450723
Si Si3 0.468766 0.144473 0.627888
Si Si4 0.053880 0.921681 0.245685
Si Si5 0.684137 0.830468 0.538056
Si Si6 0.756806 0.597702 0.128588
O O1 0.709757 0.500000 0.750000
O O2 0.749761 0.384972 0.795465
O O3 0.626439 0.393874 0.763835
O O4 0.724567 0.386815 0.691902
O O5 0.948271 0.401792 0.425213
O O6 0.865037 0.385948 0.511195
O O7 0.823647 0.393122 0.406191
O O8 0.543349 0.168667 0.616665
O O9 0.465640 0.100122 0.683369
O O10 0.993084 0.899202 0.286733
O O11 0.062765 0.000000 0.250000
O O12 0.750000 0.827136 0.500000
O O13 0.701879 0.851480 0.601508
O O14 0.727323 0.522678 0.125000
#
# Coordination Sequence:
#
# PCOD8321104 Si02
#       6
#    32  32  32  32  32  32
#     4  11  20  32  55  92 125 154 192 256 316 365
#     4  11  19  33  56  84 119 151 201 246 302 359
#     4  11  23  39  61  86 115 156 207 256 302 363
#     4  10  21  36  56  84 119 154 192 250 313 359
#     4   9  18  32  53  81 113 152 194 237 289 362
#     4  11  18  30  55  87 122 154 198 246 298 367
#
# _framework density 19.999554
#
# number of rings (size 3 to 8) (size 9 to 14) (size 15 to 20)
#    0.000    1.500    6.667    0.500    0.000    0.000 
#    0.000    0.833    0.000    2.000    0.000    0.000 
#    0.000    0.000    0.000    0.000    0.000    0.000 
#
# Total GULP energy -1189573.791953 kJ/mol
# GULP energy per Si atom -12391.393666 kJ/mol
# Density = 1.995403 g / cm^3
# Si number density = 19.999554 Si / 1000 Ang^3
#
#
#
# Elastic Constant Matrix: (Units=GPa)
#
#
# Indices 1 2 3 4 5 6 
#
# 1 90.7008 11.2306 32.3985 0.0000 0.0000 0.0000
# 2 11.2306 90.7022 32.3988 0.0000 0.0000 0.0000
# 3 32.3985 32.3988 84.4374 0.0000 0.0000 0.0000
# 4 0.0000 0.0000 0.0000 25.8257 0.0000 0.0000
# 5 0.0000 0.0000 0.0000 0.0000 25.8250 0.0000
# 6 0.0000 0.0000 0.0000 0.0000 0.0000 62.9640
#
#
#
# Elastic Compliance Matrix: (Units=1/GPa)
#
#
# Indices 1 2 3 4 5 6 
#
# 1 0.012779 0.000196 -0.004979 0.000000 0.000000 0.000000
# 2 0.000196 0.012779 -0.004979 0.000000 0.000000 0.000000
# 3 -0.004979 -0.004979 0.015664 0.000000 0.000000 0.000000
# 4 0.000000 0.000000 0.000000 0.038721 0.000000 0.000000
# 5 0.000000 0.000000 0.000000 0.000000 0.038722 0.000000
# 6 0.000000 0.000000 0.000000 0.000000 0.000000 0.015882
#
#
# Mechanical properties :
#
#
# Convention : Reuss Voigt Hill
#
# Bulk Modulus (GPa) = 46.08334 46.43290 46.25812
# Shear Modulus (GPa) = 30.99750 35.57710 33.28730
#
# Velocity S-wave (km/s) = 3.94116 4.22227 4.08413
# Velocity P-wave (km/s) = 6.61835 6.85839 6.73944
#
# Compressibility (1/GPa) = 0.02169982
#
# Stress axis : x y z
#
# Youngs Moduli (GPa) = 78.25116 78.25231 63.84193
#
# Poissons Ratio (x) = -0.01534 0.31785
# Poissons Ratio (y) = -0.01534 0.31784
# Poissons Ratio (z) = 0.38958 0.38959
#
# Static dielectric constant tensor:
#      x y z
#    x 3.874430 0.000000 0.000000 
#    y 0.000000 3.874430 0.000000 
#    z 0.000000 0.000000 3.529920 
# 
# 
# High freq. dielectric constant tensor:
#      x y z
#    x 1.767350 0.000000 0.000000 
#    y 0.000000 1.767350 0.000000 
#    z 0.000000 0.000000 1.759420 
# 
# From -- ./inp_files/10399.got.cif
#   From: 2010.03.12/outbox.cif.g09.slc.cpg/sg142_6_cif.got.tgz:10399.got - 2010.04.03 13:27:16.
