data_PCOD8321955
_publ_section_title
;
Structure prediction by ZEFSAII (Michael W. Deem and Ramdas Pophale) SiO2 
 PCOD8321955
Probable space group: P 31 1 2
;
_chemical_formula_sum "Si O2"
_cell_formula_units_Z 30
_cell_length_a 8.023212
_cell_length_b 8.023212
_cell_length_c 24.956765
_cell_angle_alpha 90.000000
_cell_angle_beta 90.000000
_cell_angle_gamma 120.000000
_cell_volume 1391.282931
_symmetry_space_group_name_H-M "P 31 1 2"
_symmetry_group_IT_number 151
_symmetry_cell_setting 'hexagonal'
loop_
_space_group_symop_operation_xyz
x,y,z
-y,x-y,1/3+z
-x+y,-x,2/3+z
-y,-x,2/3-z
-x+y,y,1/3-z
x,x-y,-z
loop_
_atom_site_type_symbol
_atom_site_label
_atom_site_fract_x
_atom_site_fract_y
_atom_site_fract_z
Si Si1 0.454519 0.167073 0.813698
Si Si2 0.350780 0.890619 0.219842
Si Si3 0.649226 0.109384 0.719841
Si Si4 0.000002 0.511915 0.750000
Si Si5 0.167074 0.712560 0.647032
O O1 0.646874 0.353127 0.833334
O O2 0.313781 0.244302 0.792010
O O3 0.486816 0.048738 0.766286
O O4 0.378681 0.029467 0.865946
O O5 0.415117 0.830234 0.166667
O O6 0.167551 0.703472 0.240944
O O7 0.513189 0.951260 0.266287
O O8 0.584884 0.169768 0.666667
O O9 0.832452 0.296532 0.740943
O O10 0.686229 0.930527 0.707989
O O11 0.029471 0.650790 0.699280
O O12 0.353133 0.706266 0.666667
#
# Coordination Sequence:
#
# PCOD8321955 Si02
#       5
#     6   6   6   6   6
#     4   9  19  34  58  85 112 154 197 239 296 354
#     4  10  19  35  60  86 115 154 198 246 301 363
#     4  10  19  35  60  86 115 154 198 246 301 363
#     4  10  20  36  62  90 120 154 198 252 304 358
#     4   9  19  34  58  85 112 154 197 239 296 354
#
# _framework density 21.562830999999999
#
# number of rings (size 3 to 8) (size 9 to 14) (size 15 to 20)
#    0.000    2.400    0.000    2.400    0.000    0.000 
#    0.000    0.000    0.000  158.400    0.000    0.000 
#    0.000    0.000    0.000    0.000    0.000    0.000 
#
# Total GULP energy -371672.129929 kJ/mol
# GULP energy per Si atom -12389.070998 kJ/mol
# Density = 2.151375 g / cm^3
# Si number density = 21.562831 Si / 1000 Ang^3
#
#
#
# Elastic Constant Matrix: (Units=GPa)
#
#
# Indices 1 2 3 4 5 6 
#
# 1 58.0489 24.0684 29.2170 0.0000 0.0003 0.0000
# 2 24.0684 58.0489 29.2170 0.0000 -0.0003 0.0000
# 3 29.2170 29.2170 149.7691 0.0000 0.0000 0.0000
# 4 0.0000 0.0000 0.0000 34.0136 0.0000 -0.0003
# 5 0.0003 -0.0003 0.0000 0.0000 34.0136 0.0000
# 6 0.0000 0.0000 0.0000 -0.0003 0.0000 16.9903
#
#
#
# Elastic Compliance Matrix: (Units=1/GPa)
#
#
# Indices 1 2 3 4 5 6 
#
# 1 0.021785 -0.007644 -0.002759 0.000000 0.000000 0.000000
# 2 -0.007644 0.021785 -0.002759 0.000000 0.000000 0.000000
# 3 -0.002759 -0.002759 0.007753 0.000000 0.000000 0.000000
# 4 0.000000 0.000000 0.000000 0.029400 0.000000 0.000001
# 5 0.000000 0.000000 0.000000 0.000000 0.029400 0.000000
# 6 0.000000 0.000000 0.000000 0.000001 0.000000 0.058857
#
#
# Mechanical properties :
#
#
# Convention : Reuss Voigt Hill
#
# Bulk Modulus (GPa) = 39.99951 47.87464 43.93707
# Shear Modulus (GPa) = 24.55370 29.22781 26.89076
#
# Velocity S-wave (km/s) = 3.37813 3.68567 3.53525
# Velocity P-wave (km/s) = 5.81431 6.35317 6.08970
#
# Compressibility (1/GPa) = 0.02500031
#
# Stress axis : x y z
#
# Youngs Moduli (GPa) = 45.90392 45.90392 128.97856
#
# Poissons Ratio (x) = 0.35089 0.35580
# Poissons Ratio (y) = 0.35089 0.35580
# Poissons Ratio (z) = 0.12663 0.12663
#
# Static dielectric constant tensor:
#      x y z
#    x 3.777820 0.000000 0.000000 
#    y 0.000000 3.777820 0.000000 
#    z 0.000000 0.000000 4.628700 
# 
# 
# High freq. dielectric constant tensor:
#      x y z
#    x 1.819890 0.000000 0.000000 
#    y 0.000000 1.819890 0.000000 
#    z 0.000000 0.000000 1.880680 
# 
# From -- ./inp_files/4177.got.cif
#   From: 2010.03.12/outbox.cif.g09.slc.cpg/sg151_3_cif.got.tgz:4177.got - 2010.04.03 13:42:29.
