data_PCOD8321770
_publ_section_title
;
Structure prediction by ZEFSAII (Michael W. Deem and Ramdas Pophale) SiO2 
 PCOD8321770
Probable space group: R -3
;
_chemical_formula_sum "Si O2"
_cell_formula_units_Z 126
_cell_length_a 21.409679
_cell_length_b 21.409679
_cell_length_c 15.870256
_cell_angle_alpha 90.000000
_cell_angle_beta 90.000000
_cell_angle_gamma 120.000000
_cell_volume 6299.917696
_symmetry_space_group_name_H-M "R -3"
_symmetry_group_IT_number 148
_symmetry_cell_setting 'hexagonal'
loop_
_space_group_symop_operation_xyz
x,y,z
-y,x-y,z
-x+y,-x,z
-x,-y,-z
y,-x+y,-z
x-y,x,-z
2/3+x,1/3+y,1/3+z
2/3-y,1/3+x-y,1/3+z
2/3-x+y,1/3-x,1/3+z
2/3-x,1/3-y,1/3-z
2/3+y,1/3-x+y,1/3-z
2/3+x-y,1/3+x,1/3-z
1/3+x,2/3+y,2/3+z
1/3-y,2/3+x-y,2/3+z
1/3-x+y,2/3-x,2/3+z
1/3-x,2/3-y,2/3-z
1/3+y,2/3-x+y,2/3-z
1/3+x-y,2/3+x,2/3-z
loop_
_atom_site_type_symbol
_atom_site_label
_atom_site_fract_x
_atom_site_fract_y
_atom_site_fract_z
Si Si1 0.155862 0.128210 0.012392
Si Si2 0.425316 0.113221 0.978802
Si Si3 0.037251 0.357156 0.911675
Si Si4 0.866333 0.849517 0.492821
Si Si5 0.401356 0.153120 0.471244
Si Si6 0.604503 0.763532 0.038022
Si Si7 0.206187 0.226623 0.171419
O O1 0.182047 0.162174 0.104738
O O2 0.087791 0.133208 0.980544
O O3 0.218616 0.170582 0.945093
O O4 0.477612 0.136226 0.898990
O O5 0.382318 0.156883 0.980837
O O6 0.371489 0.027137 0.975029
O O7 0.467972 0.134768 0.066891
O O8 0.079038 0.437430 0.872115
O O9 0.002416 0.289687 0.846594
O O10 0.104163 0.361440 0.961166
O O11 0.866868 0.922844 0.474893
O O12 0.848692 0.809679 0.401352
O O13 0.317208 0.103572 0.453211
O O14 0.411782 0.228218 0.504102
#
# Coordination Sequence:
#
# PCOD8321770 Si02
#       7
#    18  18  18  18  18  18  18
#     4  10  23  44  67  91 126 170 214 263 317 380
#     4  11  25  40  63  95 129 163 215 263 315 378
#     4  12  24  40  66  88 132 172 202 266 316 370
#     4  10  23  44  67  91 126 170 214 263 317 380
#     4  11  23  42  64  93 126 168 215 254 320 384
#     4  11  23  42  64  93 126 168 215 254 320 384
#     4  11  25  40  63  95 129 163 215 263 315 378
#
# _framework density 20.000260999999998
#
# number of rings (size 3 to 8) (size 9 to 14) (size 15 to 20)
#    0.000    1.143    4.286    1.143    4.000    1.143 
#    0.000    0.000    0.000    0.000    0.000    0.000 
#    0.000    0.000    0.000    0.000    0.000    0.000 
#
# Total GULP energy -520615.067394 kJ/mol
# GULP energy per Si atom -12395.596843 kJ/mol
# Density = 1.995474 g / cm^3
# Si number density = 20.000261 Si / 1000 Ang^3
#
#
#
# Elastic Constant Matrix: (Units=GPa)
#
#
# Indices 1 2 3 4 5 6 
#
# 1 89.6814 46.7316 25.8271 6.3719 6.4049 0.0000
# 2 46.7316 89.6814 25.8271 -6.3719 -6.4049 0.0000
# 3 25.8271 25.8271 82.6739 0.0000 0.0000 0.0000
# 4 6.3719 -6.3719 0.0000 21.8574 0.0000 -6.4049
# 5 6.4049 -6.4049 0.0000 0.0000 21.8574 6.3719
# 6 0.0000 0.0000 0.0000 -6.4049 6.3719 21.4749
#
#
#
# Elastic Compliance Matrix: (Units=1/GPa)
#
#
# Indices 1 2 3 4 5 6 
#
# 1 0.018249 -0.009935 -0.002597 -0.008216 -0.008259 0.000000
# 2 -0.009935 0.018249 -0.002597 0.008216 0.008259 0.000000
# 3 -0.002597 -0.002597 0.013719 0.000000 0.000000 0.000000
# 4 -0.008216 0.008216 0.000000 0.055382 0.000000 0.016518
# 5 -0.008259 0.008259 0.000000 0.000000 0.055382 -0.016433
# 6 0.000000 0.000000 0.000000 0.016518 -0.016433 0.056368
#
#
# Mechanical properties :
#
#
# Convention : Reuss Voigt Hill
#
# Bulk Modulus (GPa) = 50.10630 50.97870 50.54250
# Shear Modulus (GPa) = 19.66491 23.94799 21.80645
#
# Velocity S-wave (km/s) = 3.13906 3.46408 3.30556
# Velocity P-wave (km/s) = 6.18429 6.44547 6.31623
#
# Compressibility (1/GPa) = 0.01995757
#
# Stress axis : x y z
#
# Youngs Moduli (GPa) = 54.79717 54.79717 72.89418
#
# Poissons Ratio (x) = 0.54441 0.18933
# Poissons Ratio (y) = 0.54441 0.18933
# Poissons Ratio (z) = 0.14233 0.14233
#
# Static dielectric constant tensor:
#      x y z
#    x 3.733640 0.000000 0.000000 
#    y 0.000000 3.733640 0.000000 
#    z 0.000000 0.000000 3.480670 
# 
# 
# High freq. dielectric constant tensor:
#      x y z
#    x 1.790240 0.000000 0.000000 
#    y 0.000000 1.790240 0.000000 
#    z 0.000000 0.000000 1.775080 
# 
# From -- ./inp_files/2752.got.cif
#   From: 2010.03.12/outbox.cif.g09.slc.cpg/sg148_2_cif.got.tgz:2752.got - 2010.04.03 13:38:46.
