data_PCOD8321424
_publ_section_title
;
Structure prediction by ZEFSAII (Michael W. Deem and Ramdas Pophale) SiO2 
 PCOD8321424
Probable space group: P 31
;
_chemical_formula_sum "Si O2"
_cell_formula_units_Z 18
_cell_length_a 11.599185
_cell_length_b 11.599185
_cell_length_c 6.517084
_cell_angle_alpha 90.000000
_cell_angle_beta 90.000000
_cell_angle_gamma 120.000000
_cell_volume 759.344586
_symmetry_space_group_name_H-M "P 31"
_symmetry_group_IT_number 144
_symmetry_cell_setting 'hexagonal'
loop_
_space_group_symop_operation_xyz
x,y,z
-y,x-y,1/3+z
-x+y,-x,2/3+z
loop_
_atom_site_type_symbol
_atom_site_label
_atom_site_fract_x
_atom_site_fract_y
_atom_site_fract_z
Si Si1 0.026075 0.259334 0.927070
Si Si2 0.242040 0.200104 0.874389
Si Si3 0.683404 0.124963 0.552098
Si Si4 0.416616 0.442676 0.610555
Si Si5 0.922021 0.375041 0.606459
Si Si6 0.435296 0.663043 0.350535
O O1 0.088648 0.163298 0.890106
O O2 0.134742 0.404387 0.017286
O O3 0.973797 0.281750 0.708476
O O4 0.905539 0.175351 0.087486
O O5 0.308603 0.346373 0.772000
O O6 0.301781 0.221183 0.103401
O O7 0.766174 0.285246 0.548954
O O8 0.541060 0.061514 0.446333
O O9 0.657361 0.086410 0.788860
O O10 0.551763 0.546244 0.730393
O O11 0.368296 0.531154 0.491674
O O12 0.384989 0.757726 0.455637
#
# Coordination Sequence:
#
# PCOD8321424 Si02
#       6
#     3   3   3   3   3   3
#     4  12  26  50  72 108 148 202 252 307 378 442
#     4  11  27  48  70 104 153 196 253 300 376 453
#     4  11  24  45  70 105 143 191 237 312 372 447
#     4  11  24  46  71 109 146 190 241 314 377 448
#     4  11  26  41  74 106 145 187 247 307 374 446
#     4  12  27  46  77 110 145 192 246 318 375 438
#
# _framework density 23.704651999999999
#
# number of rings (size 3 to 8) (size 9 to 14) (size 15 to 20)
#    0.000    0.667    3.333    3.000    9.333    1.333 
#    6.000    0.000    0.000    0.000    0.000    0.000 
#    0.000    0.000    0.000    0.000    0.000    0.000 
#
# Total GULP energy -223090.606454 kJ/mol
# GULP energy per Si atom -12393.922581 kJ/mol
# Density = 2.365070 g / cm^3
# Si number density = 23.704652 Si / 1000 Ang^3
#
#
#
# Elastic Constant Matrix: (Units=GPa)
#
#
# Indices 1 2 3 4 5 6 
#
# 1 99.9845 25.1056 34.8771 0.3304 -5.1954 0.0000
# 2 25.1056 99.9845 34.8771 -0.3304 5.1954 0.0000
# 3 34.8771 34.8771 126.0682 0.0000 0.0000 0.0000
# 4 0.3304 -0.3304 0.0000 34.7487 0.0000 5.1954
# 5 -5.1954 5.1954 0.0000 0.0000 34.7487 0.3304
# 6 0.0000 0.0000 0.0000 5.1954 0.3304 37.4394
#
#
#
# Elastic Compliance Matrix: (Units=1/GPa)
#
#
# Indices 1 2 3 4 5 6 
#
# 1 0.011546 -0.002093 -0.002615 -0.000130 0.002039 0.000000
# 2 -0.002093 0.011546 -0.002615 0.000130 -0.002039 0.000000
# 3 -0.002615 -0.002615 0.009379 0.000000 0.000000 0.000000
# 4 -0.000130 0.000130 0.000000 0.029390 0.000000 -0.004078
# 5 0.002039 -0.002039 0.000000 0.000000 0.029390 -0.000259
# 6 0.000000 0.000000 0.000000 -0.004078 -0.000259 0.027278
#
#
# Mechanical properties :
#
#
# Convention : Reuss Voigt Hill
#
# Bulk Modulus (GPa) = 56.10451 57.30631 56.70541
# Shear Modulus (GPa) = 35.94084 36.79917 36.37001
#
# Velocity S-wave (km/s) = 3.89806 3.94433 3.92126
# Velocity P-wave (km/s) = 6.63169 6.70606 6.66898
#
# Compressibility (1/GPa) = 0.01782388
#
# Stress axis : x y z
#
# Youngs Moduli (GPa) = 86.61191 86.61191 106.61962
#
# Poissons Ratio (x) = 0.18130 0.27882
# Poissons Ratio (y) = 0.18130 0.27882
# Poissons Ratio (z) = 0.22649 0.22649
#
# Static dielectric constant tensor:
#      x y z
#    x 4.205850 0.000000 0.000000 
#    y 0.000000 4.205850 0.000000 
#    z 0.000000 0.000000 4.382730 
# 
# 
# High freq. dielectric constant tensor:
#      x y z
#    x 1.935870 0.000000 0.000000 
#    y 0.000000 1.935870 0.000000 
#    z 0.000000 0.000000 1.949020 
# 
# From -- ./inp_files/112.got.cif
#   From: 2010.03.12/outbox.cif.g09.slc.cpg/sg144_cif.got.tgz:112.got - 2010.04.03 13:34:42.
