data_PCOD8321833
_publ_section_title
;
Structure prediction by ZEFSAII (Michael W. Deem and Ramdas Pophale) SiO2 
 PCOD8321833
Probable space group: P 3 1 2
;
_chemical_formula_sum "Si O2"
_cell_formula_units_Z 42
_cell_length_a 21.880731
_cell_length_b 21.880731
_cell_length_c 7.975608
_cell_angle_alpha 90.000000
_cell_angle_beta 90.000000
_cell_angle_gamma 120.000000
_cell_volume 3306.877338
_symmetry_space_group_name_H-M "P 3 1 2"
_symmetry_group_IT_number 149
_symmetry_cell_setting 'hexagonal'
loop_
_space_group_symop_operation_xyz
x,y,z
-y,x-y,z
-x+y,-x,z
-y,-x,-z
-x+y,y,-z
x,x-y,-z
loop_
_atom_site_type_symbol
_atom_site_label
_atom_site_fract_x
_atom_site_fract_y
_atom_site_fract_z
Si Si1 0.195903 0.529692 0.698206
Si Si2 0.470308 0.666211 0.301794
Si Si3 0.260963 0.880025 0.194024
Si Si4 0.856264 0.000937 1.000000
Si Si5 0.189665 0.234095 0.685910
Si Si6 0.619061 0.880025 0.194024
Si Si7 0.765905 0.810335 0.685910
O O1 0.199554 0.533440 0.500000
O O2 0.268436 0.536872 0.770932
O O3 0.187218 0.593609 0.771734
O O4 0.127350 0.455744 0.754371
O O5 0.544256 0.671606 0.245629
O O6 0.255977 0.942364 0.290591
O O7 0.193842 0.806158 0.245240
O O8 0.262325 0.897005 0.000000
O O9 0.817037 0.006145 0.167694
O O10 0.934815 0.065186 0.000000
O O11 0.860000 0.930000 0.000000
O O12 0.817037 0.006145 0.832306
O O13 0.118751 0.237501 0.703906
O O14 0.195002 0.206543 0.500000
O O15 0.686387 0.942365 0.290591
#
# Coordination Sequence:
#
# PCOD8321833 Si02
#       7
#     6   6   6   6   6   6   6
#     4   9  16  24  33  46  66  92 120 151 189 229
#     4   9  16  24  33  46  66  92 120 151 189 229
#     4   9  15  24  37  51  65  84 115 151 180 208
#     4  10  19  30  42  58  77  94 110 132 168 216
#     4   9  16  27  42  56  70  90 116 143 169 201
#     4   9  15  24  37  51  65  84 115 151 180 208
#     4   9  16  27  42  56  70  90 116 143 169 201
#
# _framework density 12.700804
#
# number of rings (size 3 to 8) (size 9 to 14) (size 15 to 20)
#    0.000    2.857    1.429    1.286    0.000    5.714 
#    0.000    0.000    0.000    3.429    0.000    0.000 
#    0.000    0.000    0.000    0.000    0.000    0.000 
#
# Total GULP energy -520424.187843 kJ/mol
# GULP energy per Si atom -12391.052091 kJ/mol
# Density = 1.267190 g / cm^3
# Si number density = 12.700804 Si / 1000 Ang^3
#
#
#
# Elastic Constant Matrix: (Units=GPa)
#
#
# Indices 1 2 3 4 5 6 
#
# 1 42.6793 21.6795 25.3081 0.0000 0.0000 0.0000
# 2 21.6795 42.6793 25.3081 0.0000 0.0000 0.0000
# 3 25.3081 25.3081 64.0233 0.0000 0.0000 0.0000
# 4 0.0000 0.0000 0.0000 13.7897 0.0000 0.0000
# 5 0.0000 0.0000 0.0000 0.0000 13.7897 0.0000
# 6 0.0000 0.0000 0.0000 0.0000 0.0000 10.4999
#
#
#
# Elastic Compliance Matrix: (Units=1/GPa)
#
#
# Indices 1 2 3 4 5 6 
#
# 1 0.035084 -0.012536 -0.008913 0.000000 0.000000 0.000000
# 2 -0.012536 0.035084 -0.008913 0.000000 0.000000 0.000000
# 3 -0.008913 -0.008913 0.022666 0.000000 0.000000 0.000000
# 4 0.000000 0.000000 0.000000 0.072518 0.000000 0.000000
# 5 0.000000 0.000000 0.000000 0.000000 0.072518 0.000000
# 6 0.000000 0.000000 0.000000 0.000000 0.000000 0.095239
#
#
# Mechanical properties :
#
#
# Convention : Reuss Voigt Hill
#
# Bulk Modulus (GPa) = 31.14369 32.66372 31.90371
# Shear Modulus (GPa) = 12.35988 12.75495 12.55741
#
# Velocity S-wave (km/s) = 3.12293 3.17245 3.14779
# Velocity P-wave (km/s) = 6.13008 6.26042 6.19559
#
# Compressibility (1/GPa) = 0.03210923
#
# Stress axis : x y z
#
# Youngs Moduli (GPa) = 28.50334 28.50334 44.11922
#
# Poissons Ratio (x) = 0.35732 0.39324
# Poissons Ratio (y) = 0.35732 0.39324
# Poissons Ratio (z) = 0.25405 0.25405
#
# Static dielectric constant tensor:
#      x y z
#    x 2.417390 0.000000 0.000000 
#    y 0.000000 2.417390 0.000000 
#    z 0.000000 0.000000 2.682200 
# 
# 
# High freq. dielectric constant tensor:
#      x y z
#    x 1.440790 0.000000 0.000000 
#    y 0.000000 1.440790 0.000000 
#    z 0.000000 0.000000 1.498710 
# 
# From -- ./inp_files/750.got.cif
#   From: 2010.03.12/outbox.cif.g09.slc.cpg/sg149_cif.got.tgz:750.got - 2010.04.03 13:40:41.
