data_PCOD8321823
_publ_section_title
;
Structure prediction by ZEFSAII (Michael W. Deem and Ramdas Pophale) SiO2 
 PCOD8321823
Probable space group: R -3
;
_chemical_formula_sum "Si O2"
_cell_formula_units_Z 72
_cell_length_a 23.300014
_cell_length_b 23.300014
_cell_length_c 8.153961
_cell_angle_alpha 90.000000
_cell_angle_beta 90.000000
_cell_angle_gamma 120.000000
_cell_volume 3833.642628
_symmetry_space_group_name_H-M "R -3"
_symmetry_group_IT_number 148
_symmetry_cell_setting 'hexagonal'
loop_
_space_group_symop_operation_xyz
x,y,z
-y,x-y,z
-x+y,-x,z
-x,-y,-z
y,-x+y,-z
x-y,x,-z
2/3+x,1/3+y,1/3+z
2/3-y,1/3+x-y,1/3+z
2/3-x+y,1/3-x,1/3+z
2/3-x,1/3-y,1/3-z
2/3+y,1/3-x+y,1/3-z
2/3+x-y,1/3+x,1/3-z
1/3+x,2/3+y,2/3+z
1/3-y,2/3+x-y,2/3+z
1/3-x+y,2/3-x,2/3+z
1/3-x,2/3-y,2/3-z
1/3+y,2/3-x+y,2/3-z
1/3+x-y,2/3+x,2/3-z
loop_
_atom_site_type_symbol
_atom_site_label
_atom_site_fract_x
_atom_site_fract_y
_atom_site_fract_z
Si Si1 0.066985 0.921402 0.538337
Si Si2 0.090824 0.497942 0.431041
Si Si3 0.738837 0.933050 0.344423
Si Si4 0.975309 0.505864 0.254170
O O1 0.104962 0.933653 0.713961
O O2 0.080993 0.872461 0.432853
O O3 0.989316 0.892632 0.565972
O O4 0.088230 0.432253 0.355060
O O5 0.079087 0.490466 0.628060
O O6 0.034154 0.509287 0.359547
O O7 0.671966 0.900548 0.456634
O O8 0.725791 0.897525 0.170005
#
# Coordination Sequence:
#
# PCOD8321823 Si02
#       4
#    18  18  18  18
#     4   9  17  30  51  74 101 131 170 207 250 303
#     4   9  18  33  50  73  99 135 167 207 261 301
#     4   9  18  33  50  73 100 135 166 210 260 297
#     4   9  18  34  51  70 104 131 171 214 251 308
#
# _framework density 18.781094
#
# number of rings (size 3 to 8) (size 9 to 14) (size 15 to 20)
#    0.000    3.000    0.000    0.250    0.000    2.000 
#    4.500    5.000    0.000    0.000    0.000    8.750 
#    0.000    0.000    0.000    0.000    0.000    0.000 
#
# Total GULP energy -297397.356656 kJ/mol
# GULP energy per Si atom -12391.556527 kJ/mol
# Density = 1.873835 g / cm^3
# Si number density = 18.781094 Si / 1000 Ang^3
#
#
#
# Elastic Constant Matrix: (Units=GPa)
#
#
# Indices 1 2 3 4 5 6 
#
# 1 66.5585 22.6807 32.7699 2.1161 -7.5770 0.0267
# 2 22.6807 66.5032 32.7205 -2.0858 7.6296 0.0021
# 3 32.7699 32.7205 103.1161 0.0181 0.0468 0.0190
# 4 2.1161 -2.0858 0.0181 21.8070 0.0176 7.6348
# 5 -7.5770 7.6296 0.0468 0.0176 21.8703 2.1091
# 6 0.0267 0.0021 0.0190 7.6348 2.1091 21.9151
#
#
#
# Elastic Compliance Matrix: (Units=1/GPa)
#
#
# Indices 1 2 3 4 5 6 
#
# 1 0.020405 -0.005796 -0.004649 -0.002533 0.009105 -0.000014
# 2 -0.005796 0.020419 -0.004634 0.002524 -0.009124 0.000008
# 3 -0.004649 -0.004634 0.012646 -0.000002 -0.000021 -0.000002
# 4 -0.002533 0.002524 -0.000002 0.052780 -0.000028 -0.018382
# 5 0.009105 -0.009124 -0.000021 -0.000028 0.052549 -0.005058
# 6 -0.000014 0.000008 -0.000002 -0.018382 -0.005058 0.052521
#
#
# Mechanical properties :
#
#
# Convention : Reuss Voigt Hill
#
# Bulk Modulus (GPa) = 42.89499 45.83556 44.36528
# Shear Modulus (GPa) = 20.06021 22.98559 21.52290
#
# Velocity S-wave (km/s) = 3.27174 3.50218 3.38892
# Velocity P-wave (km/s) = 6.09601 6.38841 6.24392
#
# Compressibility (1/GPa) = 0.02331274
#
# Stress axis : x y z
#
# Youngs Moduli (GPa) = 49.00646 48.97323 79.07768
#
# Poissons Ratio (x) = 0.28383 0.36767
# Poissons Ratio (y) = 0.28402 0.36644
# Poissons Ratio (z) = 0.22785 0.22694
#
# Static dielectric constant tensor:
#      x y z
#    x 3.458470 -0.000110 -0.000250 
#    y -0.000110 3.458640 -0.000210 
#    z -0.000250 -0.000210 3.736370 
# 
# 
# High freq. dielectric constant tensor:
#      x y z
#    x 1.719650 0.000000 -0.000020 
#    y 0.000000 1.719660 0.000000 
#    z -0.000020 0.000000 1.720590 
# 
# From -- ./inp_files/815.got.cif
#   From: 2010.03.12/outbox.cif.g09.slc.cpg/sg148_1_cif.got.tgz:815.got - 2010.04.03 13:38:46.
