data_PCOD8321649
_publ_section_title
;
Structure prediction by ZEFSAII (Michael W. Deem and Ramdas Pophale) SiO2 
 PCOD8321649
Probable space group: P -3
;
_chemical_formula_sum "Si O2"
_cell_formula_units_Z 38
_cell_length_a 8.324534
_cell_length_b 8.324534
_cell_length_c 28.774756
_cell_angle_alpha 90.000000
_cell_angle_beta 90.000000
_cell_angle_gamma 120.000000
_cell_volume 1726.879938
_symmetry_space_group_name_H-M "P -3"
_symmetry_group_IT_number 147
_symmetry_cell_setting 'hexagonal'
loop_
_space_group_symop_operation_xyz
x,y,z
-y,x-y,z
-x+y,-x,z
-x,-y,-z
y,-x+y,-z
x-y,x,-z
loop_
_atom_site_type_symbol
_atom_site_label
_atom_site_fract_x
_atom_site_fract_y
_atom_site_fract_z
Si Si1 0.684066 0.661092 0.480202
Si Si2 0.000000 0.000000 0.945366
Si Si3 0.313831 0.341502 0.231833
Si Si4 0.681484 0.653211 0.374513
Si Si5 0.194264 0.768763 0.905681
Si Si6 0.973039 0.317159 0.662744
Si Si7 0.964172 0.312268 0.195715
O O1 0.500000 0.500000 0.500000
O O2 0.678652 0.848112 0.481787
O O3 0.724457 0.626619 0.427663
O O4 0.092810 0.871125 0.931239
O O5 0.000000 0.000000 0.000000
O O6 0.295555 0.394997 0.284371
O O7 0.520706 0.458209 0.212185
O O8 0.271655 0.130536 0.231778
O O9 0.181582 0.375646 0.196907
O O10 0.867559 0.736444 0.343707
O O11 0.528222 0.457897 0.354175
O O12 0.607040 0.797607 0.369715
O O13 0.124774 0.545454 0.915864
O O14 0.139478 0.771620 0.852662
#
# Coordination Sequence:
#
# PCOD8321649 Si02
#       7
#     6   2   6   6   6   6   6
#     4  12  25  44  67  93 114 152 205 265 331 406
#     4  12  27  48  81 117 159 213 267 330 408 477
#     4  12  23  39  63  93 132 173 230 272 329 420
#     4  12  25  44  64  87 126 160 205 264 336 410
#     4  10  23  49  72 111 156 202 263 326 390 457
#     4  12  25  42  62  92 127 172 207 260 331 406
#     4  12  23  42  65  97 134 183 230 291 344 402
#
# _framework density 22.005002000000001
#
# number of rings (size 3 to 8) (size 9 to 14) (size 15 to 20)
#    0.316    0.000    1.579    9.000    0.000    0.632 
#    0.947    0.000    0.000    0.000    0.000    0.000 
#    0.000    0.000    0.000    0.000    0.000    0.000 
#
# Total GULP energy -470867.267927 kJ/mol
# GULP energy per Si atom -12391.243893 kJ/mol
# Density = 2.195492 g / cm^3
# Si number density = 22.005002 Si / 1000 Ang^3
#
#
#
# Elastic Constant Matrix: (Units=GPa)
#
#
# Indices 1 2 3 4 5 6 
#
# 1 121.1701 35.6956 40.3216 5.2002 2.5299 0.0000
# 2 35.6956 121.1701 40.3216 -5.2002 -2.5299 0.0000
# 3 40.3216 40.3216 118.7066 0.0000 0.0000 0.0000
# 4 5.2002 -5.2002 0.0000 31.2202 0.0000 -2.5299
# 5 2.5299 -2.5299 0.0000 0.0000 31.2202 5.2002
# 6 0.0000 0.0000 0.0000 -2.5299 5.2002 42.7373
#
#
#
# Elastic Compliance Matrix: (Units=1/GPa)
#
#
# Indices 1 2 3 4 5 6 
#
# 1 0.009862 -0.002138 -0.002624 -0.001999 -0.000972 0.000000
# 2 -0.002138 0.009862 -0.002624 0.001999 0.000972 0.000000
# 3 -0.002624 -0.002624 0.010206 0.000000 0.000000 0.000000
# 4 -0.001999 0.001999 0.000000 0.032854 0.000000 0.001945
# 5 -0.000972 0.000972 0.000000 0.000000 0.032854 -0.003998
# 6 0.000000 0.000000 0.000000 0.001945 -0.003998 0.024000
#
#
# Mechanical properties :
#
#
# Convention : Reuss Voigt Hill
#
# Bulk Modulus (GPa) = 65.96490 65.96936 65.96713
# Shear Modulus (GPa) = 35.85196 37.34939 36.60068
#
# Velocity S-wave (km/s) = 4.04079 4.12432 4.08277
# Velocity P-wave (km/s) = 7.19812 7.26115 7.22971
#
# Compressibility (1/GPa) = 0.01515958
#
# Stress axis : x y z
#
# Youngs Moduli (GPa) = 101.40050 101.40050 97.97761
#
# Poissons Ratio (x) = 0.21682 0.25705
# Poissons Ratio (y) = 0.21682 0.25705
# Poissons Ratio (z) = 0.26603 0.26603
#
# Static dielectric constant tensor:
#      x y z
#    x 4.036240 0.000000 0.000000 
#    y 0.000000 4.036240 0.000000 
#    z 0.000000 0.000000 4.171760 
# 
# 
# High freq. dielectric constant tensor:
#      x y z
#    x 1.877090 0.000000 0.000000 
#    y 0.000000 1.877090 0.000000 
#    z 0.000000 0.000000 1.846300 
# 
# From -- ./inp_files/1127.got.cif
#   From: 2010.03.12/outbox.cif.g09.slc.cpg/sg147_cif.got.tgz:1127.got - 2010.04.03 13:37:56.
