data_PCOD8321318
_publ_section_title
;
Structure prediction by ZEFSAII (Michael W. Deem and Ramdas Pophale) SiO2 
 PCOD8321318
Probable space group: I 41/A C D
;
_chemical_formula_sum "Si O2"
_cell_formula_units_Z 72
_cell_length_a 9.676914
_cell_length_b 9.676914
_cell_length_c 34.416173
_cell_angle_alpha 90.000000
_cell_angle_beta 90.000000
_cell_angle_gamma 90.000000
_cell_volume 3222.822144
_symmetry_space_group_name_H-M "I 41/A C D"
_symmetry_group_IT_number 142
_space_group.IT_coordinate_system_code '2'
_symmetry_cell_setting 'tetragonal'
loop_
_space_group_symop_operation_xyz
x,y,z
1/4-y,3/4+x,1/4+z
-x,1/2-y,z
1/4+y,1/4-x,3/4+z
x,-y,1/2-z
1/2-x,y,-z
3/4+y,1/4+x,1/4-z
1/4-y,1/4-x,1/4-z
-x,-y,-z
3/4+y,1/4-x,3/4-z
x,1/2+y,-z
3/4-y,3/4+x,1/4-z
-x,y,1/2+z
1/2+x,-y,z
1/4-y,3/4-x,3/4+z
3/4+y,3/4+x,3/4+z
1/2+x,1/2+y,1/2+z
3/4-y,1/4+x,3/4+z
1/2-x,-y,1/2+z
3/4+y,3/4-x,1/4+z
1/2+x,1/2-y,-z
-x,1/2+y,1/2-z
1/4+y,3/4+x,3/4-z
3/4-y,3/4-x,3/4-z
1/2-x,1/2-y,1/2-z
1/4+y,3/4-x,1/4-z
1/2+x,y,1/2-z
1/4-y,1/4+x,3/4-z
1/2-x,1/2+y,z
x,1/2-y,1/2+z
3/4-y,1/4-x,1/4+z
1/4+y,1/4+x,1/4+z
loop_
_atom_site_type_symbol
_atom_site_label
_atom_site_fract_x
_atom_site_fract_y
_atom_site_fract_z
Si Si1 0.000000 0.250000 0.875000
Si Si2 0.192496 0.557970 0.164536
Si Si3 0.533606 0.905822 0.212437
O O1 0.954997 0.125999 0.903615
O O2 0.245313 0.495313 0.125000
O O3 0.312948 0.584668 0.195224
O O4 0.077861 0.454300 0.181075
O O5 0.500000 0.750000 0.225006
O O6 0.523710 0.000000 0.250000
#
# Coordination Sequence:
#
# PCOD8321318 Si02
#       3
#     8  32  32
#     4  12  24  44  80 116 148 192 262 320 372 440
#     4  12  26  48  80 113 153 201 260 314 379 455
#     4  12  30  49  77 113 157 202 252 316 387 458
#
# _framework density 22.340669999999999
#
# number of rings (size 3 to 8) (size 9 to 14) (size 15 to 20)
#    0.000    0.000    4.444    4.000    3.111    3.556 
#    0.000    0.000    0.000    0.000    0.000    0.000 
#    0.000    0.000    0.000    0.000    0.000    0.000 
#
# Total GULP energy -446652.754372 kJ/mol
# GULP energy per Si atom -12407.020955 kJ/mol
# Density = 2.228982 g / cm^3
# Si number density = 22.340670 Si / 1000 Ang^3
#
#
#
# Elastic Constant Matrix: (Units=GPa)
#
#
# Indices 1 2 3 4 5 6 
#
# 1 119.3189 42.5065 21.5102 0.0000 0.0000 0.0000
# 2 42.5065 119.3189 21.5102 0.0000 0.0000 0.0000
# 3 21.5102 21.5102 81.8037 0.0000 0.0000 0.0000
# 4 0.0000 0.0000 0.0000 26.6205 0.0000 0.0000
# 5 0.0000 0.0000 0.0000 0.0000 26.6205 0.0000
# 6 0.0000 0.0000 0.0000 0.0000 0.0000 51.1461
#
#
#
# Elastic Compliance Matrix: (Units=1/GPa)
#
#
# Indices 1 2 3 4 5 6 
#
# 1 0.009831 -0.003187 -0.001747 0.000000 0.000000 0.000000
# 2 -0.003187 0.009831 -0.001747 0.000000 0.000000 0.000000
# 3 -0.001747 -0.001747 0.013143 0.000000 0.000000 0.000000
# 4 0.000000 0.000000 0.000000 0.037565 0.000000 0.000000
# 5 0.000000 0.000000 0.000000 0.000000 0.037565 0.000000
# 6 0.000000 0.000000 0.000000 0.000000 0.000000 0.019552
#
#
# Mechanical properties :
#
#
# Convention : Reuss Voigt Hill
#
# Bulk Modulus (GPa) = 51.43254 54.61059 53.02157
# Shear Modulus (GPa) = 33.93706 36.53839 35.23773
#
# Velocity S-wave (km/s) = 3.90175 4.04853 3.97582
# Velocity P-wave (km/s) = 6.58560 6.80821 6.69783
#
# Compressibility (1/GPa) = 0.01944294
#
# Stress axis : x y z
#
# Youngs Moduli (GPa) = 101.71555 101.71556 76.08531
#
# Poissons Ratio (x) = 0.32421 0.13292
# Poissons Ratio (y) = 0.32421 0.13292
# Poissons Ratio (z) = 0.17770 0.17770
#
# Static dielectric constant tensor:
#      x y z
#    x 2.278450 0.000000 0.000000 
#    y 0.000000 2.278450 0.000000 
#    z 0.000000 0.000000 4.111460 
# 
# 
# High freq. dielectric constant tensor:
#      x y z
#    x 1.898070 0.000000 0.000000 
#    y 0.000000 1.898070 0.000000 
#    z 0.000000 0.000000 1.890710 
# 
# From -- ./inp_files/11784.got.cif
#   From: 2010.03.12/outbox.cif.g09.slc.cpg/sg142_6_cif.got.tgz:11784.got - 2010.04.03 13:27:16.
