data_PCOD8321909
_publ_section_title
;
Structure prediction by ZEFSAII (Michael W. Deem and Ramdas Pophale) SiO2 
 PCOD8321909
Probable space group: P 3 2 1
;
_chemical_formula_sum "Si O2"
_cell_formula_units_Z 36
_cell_length_a 11.725727
_cell_length_b 11.725727
_cell_length_c 13.518024
_cell_angle_alpha 90.000000
_cell_angle_beta 90.000000
_cell_angle_gamma 120.000000
_cell_volume 1609.620158
_symmetry_space_group_name_H-M "P 3 2 1"
_symmetry_group_IT_number 150
_symmetry_cell_setting 'hexagonal'
loop_
_space_group_symop_operation_xyz
x,y,z
-y,x-y,z
-x+y,-x,z
x-y,-y,-z
-x,-x+y,-z
y,x,-z
loop_
_atom_site_type_symbol
_atom_site_label
_atom_site_fract_x
_atom_site_fract_y
_atom_site_fract_z
Si Si1 0.401059 0.098239 0.719938
Si Si2 0.000000 0.000000 0.619287
Si Si3 0.310246 0.385684 0.898177
Si Si4 0.070221 0.423635 0.897325
Si Si5 0.493843 0.435521 0.400646
Si Si6 0.237025 0.243504 0.294984
Si Si7 0.666668 0.333335 0.476131
Si Si8 0.333335 0.666668 0.283892
O O1 0.316115 0.156991 0.671157
O O2 0.531282 0.222879 0.763068
O O3 0.319643 0.001102 0.809328
O O4 0.448213 0.030974 0.639317
O O5 0.053222 0.904559 0.661862
O O6 0.000000 0.000000 0.500000
O O7 0.216309 0.448288 0.908711
O O8 0.448330 0.510424 0.864132
O O9 0.249938 0.260860 0.823181
O O10 0.326535 0.326535 0.000000
O O11 0.000000 0.366231 0.000000
O O12 0.411956 0.411956 0.500000
O O13 0.388156 0.317932 0.332391
O O14 0.622226 0.428828 0.427969
O O15 0.666668 0.333334 0.595561
#
# Coordination Sequence:
#
# PCOD8321909 Si02
#       8
#     6   2   6   6   6   6   2   2
#     4  12  23  43  70  98 140 182 238 301 366 436
#     4  12  30  48  73  98 148 201 249 309 370 467
#     4  11  24  45  71 107 147 187 247 303 368 445
#     4  11  24  42  69 103 138 188 232 300 363 430
#     4  12  26  43  69 101 139 183 239 304 360 440
#     4  12  26  47  69 103 141 193 245 300 375 445
#     4  12  27  42  69 103 140 190 240 303 372 427
#     4  12  21  45  66 103 137 181 240 300 372 430
#
# _framework density 22.365527
#
# number of rings (size 3 to 8) (size 9 to 14) (size 15 to 20)
#    0.000    0.333    5.000    2.833    4.667    2.000 
#    0.000    0.000    0.000    1.333    0.000    0.000 
#    0.000    0.000    0.000    0.000    0.000    0.000 
#
# Total GULP energy -446352.497512 kJ/mol
# GULP energy per Si atom -12398.680486 kJ/mol
# Density = 2.231462 g / cm^3
# Si number density = 22.365527 Si / 1000 Ang^3
#
#
#
# Elastic Constant Matrix: (Units=GPa)
#
#
# Indices 1 2 3 4 5 6 
#
# 1 20.5906 71.9720 25.7905 -106.9639 0.0000 0.0000
# 2 71.9720 20.6124 25.8083 106.9433 0.0000 0.0000
# 3 25.7905 25.8083 101.3764 -0.0152 0.0000 0.0000
# 4 -106.9639 106.9433 -0.0152 -134.5902 0.0000 0.0000
# 5 0.0000 0.0000 0.0000 0.0000 -133.1724 -106.1021
# 6 0.0000 0.0000 0.0000 0.0000 -106.1021 -25.1733
#
#
#
# Elastic Compliance Matrix: (Units=1/GPa)
#
#
# Indices 1 2 3 4 5 6 
#
# 1 0.010509 0.002079 -0.003204 -0.006700 0.000000 0.000000
# 2 0.002079 0.010510 -0.003203 0.006699 0.000000 0.000000
# 3 -0.003204 -0.003203 0.011495 -0.000001 0.000000 0.000000
# 4 -0.006700 0.006699 -0.000001 0.003218 0.000000 0.000000
# 5 0.000000 0.000000 0.000000 0.000000 0.003184 -0.013422
# 6 0.000000 0.000000 0.000000 0.000000 -0.013422 0.016846
#
#
# Mechanical properties :
#
#
# Convention : Reuss Voigt Hill
#
# Bulk Modulus (GPa) = 41.91747 43.30232 42.60989
# Shear Modulus (GPa) = 69.08885 -57.31994 5.88446
#
# Velocity S-wave (km/s) = 5.56398 -5.06797 1.62381
# Velocity P-wave (km/s) = 7.74983 3.85260 4.75485
#
# Compressibility (1/GPa) = 0.02385640
#
# Stress axis : x y z
#
# Youngs Moduli (GPa) = 95.15767 95.15043 86.99625
#
# Poissons Ratio (x) = -0.19777 0.27871
# Poissons Ratio (y) = -0.19779 0.27868
# Poissons Ratio (z) = 0.30485 0.30480
#
# Static dielectric constant tensor:
#      x y z
#    x 4.111710 0.000000 0.000000 
#    y 0.000000 4.111220 -0.000040 
#    z 0.000000 -0.000040 4.098430 
# 
# 
# High freq. dielectric constant tensor:
#      x y z
#    x 1.886670 0.000000 0.000000 
#    y 0.000000 1.886670 0.000000 
#    z 0.000000 0.000000 1.881010 
# 
# From -- ./inp_files/1044.got.cif
#   From: 2010.03.12/outbox.cif.g09.slc.cpg/sg150_cif.got.tgz:1044.got - 2010.04.03 13:41:37.
