data_PCOD8321642
_publ_section_title
;
Structure prediction by ZEFSAII (Michael W. Deem and Ramdas Pophale) SiO2 
 PCOD8321642
Probable space group: P -3
;
_chemical_formula_sum "Si O2"
_cell_formula_units_Z 24
_cell_length_a 13.267231
_cell_length_b 13.267231
_cell_length_c 6.627384
_cell_angle_alpha 90.000000
_cell_angle_beta 90.000000
_cell_angle_gamma 120.000000
_cell_volume 1010.260443
_symmetry_space_group_name_H-M "P -3"
_symmetry_group_IT_number 147
_symmetry_cell_setting 'hexagonal'
loop_
_space_group_symop_operation_xyz
x,y,z
-y,x-y,z
-x+y,-x,z
-x,-y,-z
y,-x+y,-z
x-y,x,-z
loop_
_atom_site_type_symbol
_atom_site_label
_atom_site_fract_x
_atom_site_fract_y
_atom_site_fract_z
Si Si1 0.739360 0.852240 0.566469
Si Si2 0.605971 0.479524 0.348803
Si Si3 0.273382 0.837221 0.868373
Si Si4 0.455111 0.329460 0.670970
O O1 0.818610 0.807469 0.464242
O O2 0.700860 0.812091 0.801574
O O3 0.612017 0.791328 0.456951
O O4 0.708791 0.480391 0.222888
O O5 0.484022 0.401114 0.227233
O O6 0.582788 0.417406 0.572640
O O7 0.623935 0.608986 0.351662
O O8 0.287121 0.831160 0.105494
#
# Coordination Sequence:
#
# PCOD8321642 Si02
#       4
#     6   6   6   6
#     4  11  24  42  65  97 136 184 238 292 341 405
#     4  10  22  42  62 103 135 174 228 281 345 420
#     4  11  23  40  71  98 136 178 233 278 358 413
#     4  10  23  42  67  95 140 180 224 285 346 419
#
# _framework density 23.756249
#
# number of rings (size 3 to 8) (size 9 to 14) (size 15 to 20)
#    0.000    1.500    2.500    1.500    3.500    4.000 
#    0.000    0.000    0.000    3.000    0.000    0.000 
#    0.000    0.000    0.000    0.000    0.000    0.000 
#
# Total GULP energy -297346.206647 kJ/mol
# GULP energy per Si atom -12389.425277 kJ/mol
# Density = 2.370218 g / cm^3
# Si number density = 23.756249 Si / 1000 Ang^3
#
#
#
# Elastic Constant Matrix: (Units=GPa)
#
#
# Indices 1 2 3 4 5 6 
#
# 1 70.4495 15.7913 40.4683 -0.3951 -2.8948 0.0000
# 2 15.7913 70.4495 40.4683 0.3951 2.8948 0.0000
# 3 40.4683 40.4683 197.6966 0.0000 0.0000 0.0000
# 4 -0.3951 0.3951 0.0000 29.4065 0.0000 2.8948
# 5 -2.8948 2.8948 0.0000 0.0000 29.4065 -0.3951
# 6 0.0000 0.0000 0.0000 2.8948 -0.3951 27.3291
#
#
#
# Elastic Compliance Matrix: (Units=1/GPa)
#
#
# Indices 1 2 3 4 5 6 
#
# 1 0.016422 -0.002070 -0.002938 0.000248 0.001820 0.000000
# 2 -0.002070 0.016422 -0.002938 -0.000248 -0.001820 0.000000
# 3 -0.002938 -0.002938 0.006261 0.000000 0.000000 0.000000
# 4 0.000248 -0.000248 0.000000 0.034371 0.000000 -0.003641
# 5 0.001820 -0.001820 0.000000 0.000000 0.034371 0.000497
# 6 0.000000 0.000000 0.000000 -0.003641 0.000497 0.036984
#
#
# Mechanical properties :
#
#
# Convention : Reuss Voigt Hill
#
# Bulk Modulus (GPa) = 43.07643 59.11681 51.09662
# Shear Modulus (GPa) = 29.68043 33.35295 31.51669
#
# Velocity S-wave (km/s) = 3.53848 3.75102 3.64630
# Velocity P-wave (km/s) = 5.90479 6.61052 6.26759
#
# Compressibility (1/GPa) = 0.02321455
#
# Stress axis : x y z
#
# Youngs Moduli (GPa) = 60.89273 60.89273 159.71732
#
# Poissons Ratio (x) = 0.12602 0.46925
# Poissons Ratio (y) = 0.12602 0.46925
# Poissons Ratio (z) = 0.17890 0.17890
#
# Static dielectric constant tensor:
#      x y z
#    x 4.223420 0.000000 0.000000 
#    y 0.000000 4.223420 0.000000 
#    z 0.000000 0.000000 4.251960 
# 
# 
# High freq. dielectric constant tensor:
#      x y z
#    x 1.941640 0.000000 0.000000 
#    y 0.000000 1.941640 0.000000 
#    z 0.000000 0.000000 1.933850 
# 
# From -- ./inp_files/111.got.cif
#   From: 2010.03.12/outbox.cif.g09.slc.cpg/sg147_cif.got.tgz:111.got - 2010.04.03 13:37:56.
