data_PCOD8321112
_publ_section_title
;
Structure prediction by ZEFSAII (Michael W. Deem and Ramdas Pophale) SiO2 
 PCOD8321112
Probable space group: I 41/A C D
;
_chemical_formula_sum "Si O2"
_cell_formula_units_Z 144
_cell_length_a 16.376651
_cell_length_b 16.376651
_cell_length_c 27.572483
_cell_angle_alpha 90.000000
_cell_angle_beta 90.000000
_cell_angle_gamma 90.000000
_cell_volume 7394.793751
_symmetry_space_group_name_H-M "I 41/A C D"
_symmetry_group_IT_number 142
_space_group.IT_coordinate_system_code '2'
_symmetry_cell_setting 'tetragonal'
loop_
_space_group_symop_operation_xyz
x,y,z
1/4-y,3/4+x,1/4+z
-x,1/2-y,z
1/4+y,1/4-x,3/4+z
x,-y,1/2-z
1/2-x,y,-z
3/4+y,1/4+x,1/4-z
1/4-y,1/4-x,1/4-z
-x,-y,-z
3/4+y,1/4-x,3/4-z
x,1/2+y,-z
3/4-y,3/4+x,1/4-z
-x,y,1/2+z
1/2+x,-y,z
1/4-y,3/4-x,3/4+z
3/4+y,3/4+x,3/4+z
1/2+x,1/2+y,1/2+z
3/4-y,1/4+x,3/4+z
1/2-x,-y,1/2+z
3/4+y,3/4-x,1/4+z
1/2+x,1/2-y,-z
-x,1/2+y,1/2-z
1/4+y,3/4+x,3/4-z
3/4-y,3/4-x,3/4-z
1/2-x,1/2-y,1/2-z
1/4+y,3/4-x,1/4-z
1/2+x,y,1/2-z
1/4-y,1/4+x,3/4-z
1/2-x,1/2+y,z
x,1/2-y,1/2+z
3/4-y,1/4-x,1/4+z
1/4+y,1/4+x,1/4+z
loop_
_atom_site_type_symbol
_atom_site_label
_atom_site_fract_x
_atom_site_fract_y
_atom_site_fract_z
Si Si1 0.656090 0.921385 0.514189
Si Si2 0.804105 0.654655 0.660640
Si Si3 0.408255 0.533909 0.901104
Si Si4 0.957639 0.386007 0.660607
Si Si5 0.868038 0.618038 0.375000
O O1 0.750000 0.930705 0.500000
O O2 0.608269 0.915807 0.464521
O O3 0.629921 0.833478 0.536795
O O4 0.627261 0.996684 0.548547
O O5 0.817193 0.750509 0.654793
O O6 0.852230 0.607350 0.618233
O O7 0.710767 0.623519 0.658923
O O8 0.410504 0.464161 0.860861
O O9 0.939763 0.310238 0.625000
O O10 0.055733 0.388319 0.662605
#
# Coordination Sequence:
#
# PCOD8321112 Si02
#       5
#    32  32  32  32  16
#     4  11  20  37  66  92 125 167 213 257 323 384
#     4  11  22  40  62  91 130 169 210 261 318 377
#     4  10  22  39  61  90 125 172 210 258 314 379
#     4   9  19  37  62  86 121 156 202 257 313 365
#     4  10  21  38  62  90 118 157 212 256 308 372
#
# _framework density 19.473158999999999
#
# number of rings (size 3 to 8) (size 9 to 14) (size 15 to 20)
#    0.000    1.778    2.222    2.333    1.556    0.444 
#    4.000    1.111    9.778    0.000    0.000    0.000 
#    0.000    0.000    0.000    0.000    0.000    0.000 
#
# Total GULP energy -892283.049726 kJ/mol
# GULP energy per Si atom -12392.820135 kJ/mol
# Density = 1.942884 g / cm^3
# Si number density = 19.473159 Si / 1000 Ang^3
#
#
#
# Elastic Constant Matrix: (Units=GPa)
#
#
# Indices 1 2 3 4 5 6 
#
# 1 55.4431 100.0816 35.8265 0.0000 0.0000 0.0000
# 2 100.0816 55.4549 35.8357 0.0000 0.0000 0.0000
# 3 35.8265 35.8357 107.7326 0.0000 0.0000 0.0000
# 4 0.0000 0.0000 0.0000 12.0656 0.0000 0.0000
# 5 0.0000 0.0000 0.0000 0.0000 12.0617 0.0000
# 6 0.0000 0.0000 0.0000 0.0000 0.0000 23.2146
#
#
#
# Elastic Compliance Matrix: (Units=1/GPa)
#
#
# Indices 1 2 3 4 5 6 
#
# 1 -0.007406 0.014999 -0.002526 0.000000 0.000000 0.000000
# 2 0.014999 -0.007405 -0.002525 0.000000 0.000000 0.000000
# 3 -0.002526 -0.002525 0.010962 0.000000 0.000000 0.000000
# 4 0.000000 0.000000 0.000000 0.082880 0.000000 0.000000
# 5 0.000000 0.000000 0.000000 0.000000 0.082907 0.000000
# 6 0.000000 0.000000 0.000000 0.000000 0.000000 0.043076
#
#
# Mechanical properties :
#
#
# Convention : Reuss Voigt Hill
#
# Bulk Modulus (GPa) = 62.31780 62.45758 62.38769
# Shear Modulus (GPa) = 26.25141 12.59418 19.42279
#
# Velocity S-wave (km/s) = 3.67561 2.54588 3.16161
# Velocity P-wave (km/s) = 7.07706 6.38634 6.74055
#
# Compressibility (1/GPa) = 0.01604678
#
# Stress axis : x y z
#
# Youngs Moduli (GPa) = -135.01769 -135.03504 91.22311
#
# Poissons Ratio (x) = 2.02542 0.23045
# Poissons Ratio (y) = 2.02516 0.23031
# Poissons Ratio (z) = -0.34109 -0.34092
#
# Static dielectric constant tensor:
#      x y z
#    x 5.462530 0.000000 0.000000 
#    y 0.000000 5.462080 0.000000 
#    z 0.000000 0.000000 3.443100 
# 
# 
# High freq. dielectric constant tensor:
#      x y z
#    x 1.763740 0.000000 0.000000 
#    y 0.000000 1.763740 0.000000 
#    z 0.000000 0.000000 1.749440 
# 
# From -- ./inp_files/10132.got.cif
#   From: 2010.03.12/outbox.cif.g09.slc.cpg/sg142_6_cif.got.tgz:10132.got - 2010.04.03 13:27:16.
