data_PCOD8321082
_publ_section_title
;
Structure prediction by ZEFSAII (Michael W. Deem and Ramdas Pophale) SiO2 
 PCOD8321082
Probable space group: I 41/A C D
;
_chemical_formula_sum "Si O2"
_cell_formula_units_Z 192
_cell_length_a 19.033554
_cell_length_b 19.033554
_cell_length_c 25.181526
_cell_angle_alpha 90.000000
_cell_angle_beta 90.000000
_cell_angle_gamma 90.000000
_cell_volume 9122.666992
_symmetry_space_group_name_H-M "I 41/A C D"
_symmetry_group_IT_number 142
_space_group.IT_coordinate_system_code '2'
_symmetry_cell_setting 'tetragonal'
loop_
_space_group_symop_operation_xyz
x,y,z
1/4-y,3/4+x,1/4+z
-x,1/2-y,z
1/4+y,1/4-x,3/4+z
x,-y,1/2-z
1/2-x,y,-z
3/4+y,1/4+x,1/4-z
1/4-y,1/4-x,1/4-z
-x,-y,-z
3/4+y,1/4-x,3/4-z
x,1/2+y,-z
3/4-y,3/4+x,1/4-z
-x,y,1/2+z
1/2+x,-y,z
1/4-y,3/4-x,3/4+z
3/4+y,3/4+x,3/4+z
1/2+x,1/2+y,1/2+z
3/4-y,1/4+x,3/4+z
1/2-x,-y,1/2+z
3/4+y,3/4-x,1/4+z
1/2+x,1/2-y,-z
-x,1/2+y,1/2-z
1/4+y,3/4+x,3/4-z
3/4-y,3/4-x,3/4-z
1/2-x,1/2-y,1/2-z
1/4+y,3/4-x,1/4-z
1/2+x,y,1/2-z
1/4-y,1/4+x,3/4-z
1/2-x,1/2+y,z
x,1/2-y,1/2+z
3/4-y,1/4-x,1/4+z
1/4+y,1/4+x,1/4+z
loop_
_atom_site_type_symbol
_atom_site_label
_atom_site_fract_x
_atom_site_fract_y
_atom_site_fract_z
Si Si1 0.890283 0.963092 0.904099
Si Si2 0.750948 0.225250 0.912567
Si Si3 0.858620 0.902076 0.120824
Si Si4 0.925033 0.283303 0.812684
Si Si5 0.990290 0.106884 0.246498
Si Si6 0.638274 0.654262 0.761018
O O1 0.851608 0.898393 0.875000
O O2 0.902573 0.948220 0.966494
O O3 0.842615 0.032975 0.899030
O O4 0.966508 0.979275 0.880041
O O5 0.779877 0.154135 0.886618
O O6 0.682295 0.205566 0.946815
O O7 0.808014 0.257385 0.952735
O O8 0.897600 0.828479 0.136919
O O9 0.846924 0.903994 0.057013
O O10 0.866259 0.227333 0.794529
O O11 0.000000 0.250000 0.828369
O O12 0.934243 0.334053 0.762050
O O13 0.065004 0.140488 0.230582
#
# Coordination Sequence:
#
# PCOD8321082 Si02
#       6
#    32  32  32  32  32  32
#     4  12  25  43  66  95 134 186 231 276 345 419
#     4  10  20  40  66  90 131 178 221 278 337 409
#     4  11  24  40  63 103 133 168 228 285 338 402
#     4   9  21  36  66 103 127 165 222 290 336 385
#     4   9  18  38  66  91 126 176 223 261 339 413
#     4  11  22  38  66  98 130 173 225 283 328 413
#
# _framework density 21.046475999999998
#
# number of rings (size 3 to 8) (size 9 to 14) (size 15 to 20)
#    0.000    1.667    3.333    1.000    4.667    3.333 
#    0.000    9.167    0.000    0.000    0.000    0.000 
#    0.000    0.000    0.000    0.000    0.000    0.000 
#
# Total GULP energy -1190225.656168 kJ/mol
# GULP energy per Si atom -12398.183918 kJ/mol
# Density = 2.099857 g / cm^3
# Si number density = 21.046476 Si / 1000 Ang^3
#
#
#
# Elastic Constant Matrix: (Units=GPa)
#
#
# Indices 1 2 3 4 5 6 
#
# 1 78.9548 17.8945 50.7090 0.0000 0.0000 0.0000
# 2 17.8945 78.9572 50.7093 0.0000 0.0000 0.0000
# 3 50.7090 50.7093 139.4844 0.0000 0.0000 0.0000
# 4 0.0000 0.0000 0.0000 31.7833 0.0000 0.0000
# 5 0.0000 0.0000 0.0000 0.0000 31.7833 0.0000
# 6 0.0000 0.0000 0.0000 0.0000 0.0000 30.8133
#
#
#
# Elastic Compliance Matrix: (Units=1/GPa)
#
#
# Indices 1 2 3 4 5 6 
#
# 1 0.016525 0.000148 -0.006061 0.000000 0.000000 0.000000
# 2 0.000148 0.016524 -0.006061 0.000000 0.000000 0.000000
# 3 -0.006061 -0.006061 0.011576 0.000000 0.000000 0.000000
# 4 0.000000 0.000000 0.000000 0.031463 0.000000 0.000000
# 5 0.000000 0.000000 0.000000 0.000000 0.031463 0.000000
# 6 0.000000 0.000000 0.000000 0.000000 0.000000 0.032454
#
#
# Mechanical properties :
#
#
# Convention : Reuss Voigt Hill
#
# Bulk Modulus (GPa) = 48.36493 59.55800 53.96147
# Shear Modulus (GPa) = 29.26607 30.74822 30.00715
#
# Velocity S-wave (km/s) = 3.73305 3.82641 3.78002
# Velocity P-wave (km/s) = 6.45064 6.91965 6.68926
#
# Compressibility (1/GPa) = 0.02067614
#
# Stress axis : x y z
#
# Youngs Moduli (GPa) = 60.51491 60.51710 86.38363
#
# Poissons Ratio (x) = -0.00893 0.52359
# Poissons Ratio (y) = -0.00893 0.52357
# Poissons Ratio (z) = 0.36679 0.36680
#
# Static dielectric constant tensor:
#      x y z
#    x 3.817170 0.000000 0.000000 
#    y 0.000000 3.817170 0.000000 
#    z 0.000000 0.000000 3.742910 
# 
# 
# High freq. dielectric constant tensor:
#      x y z
#    x 1.811270 0.000000 0.000000 
#    y 0.000000 1.811270 0.000000 
#    z 0.000000 0.000000 1.823110 
# 
# From -- ./inp_files/10431.got.cif
#   From: 2010.03.12/outbox.cif.g09.slc.cpg/sg142_6_cif.got.tgz:10431.got - 2010.04.03 13:27:16.
