data_PCOD8321418
_publ_section_title
;
Structure prediction by ZEFSAII (Michael W. Deem and Ramdas Pophale) SiO2 
 PCOD8321418
Probable space group: P 31
;
_chemical_formula_sum "Si O2"
_cell_formula_units_Z 18
_cell_length_a 8.575465
_cell_length_b 8.575465
_cell_length_c 12.093975
_cell_angle_alpha 90.000000
_cell_angle_beta 90.000000
_cell_angle_gamma 120.000000
_cell_volume 770.220468
_symmetry_space_group_name_H-M "P 31"
_symmetry_group_IT_number 144
_symmetry_cell_setting 'hexagonal'
loop_
_space_group_symop_operation_xyz
x,y,z
-y,x-y,1/3+z
-x+y,-x,2/3+z
loop_
_atom_site_type_symbol
_atom_site_label
_atom_site_fract_x
_atom_site_fract_y
_atom_site_fract_z
Si Si1 0.092231 0.114210 0.321550
Si Si2 0.775868 0.790670 0.419315
Si Si3 0.527382 0.310992 0.654127
Si Si4 0.323288 0.859732 0.030611
Si Si5 0.221735 0.659724 0.806650
Si Si6 0.446049 0.143770 0.416127
O O1 0.071109 0.172780 0.200032
O O2 0.086999 0.262091 0.404698
O O3 0.272437 0.106164 0.344475
O O4 0.920203 0.917623 0.329916
O O5 0.776883 0.602538 0.416470
O O6 0.575653 0.753164 0.391938
O O7 0.532917 0.498988 0.656408
O O8 0.451359 0.229875 0.534266
O O9 0.727405 0.345806 0.674738
O O10 0.224233 0.713913 0.933248
O O11 0.371664 0.763227 0.126897
O O12 0.041235 0.482661 0.772219
#
# Coordination Sequence:
#
# PCOD8321418 Si02
#       6
#     3   3   3   3   3   3
#     4  11  23  42  66  98 136 179 231 291 350 418
#     4  11  23  42  66  98 136 179 231 291 350 418
#     4  12  25  44  69 101 138 183 233 292 354 421
#     4  11  24  42  64  93 130 174 223 281 345 415
#     4  11  24  42  64  93 130 174 223 281 345 415
#     4  12  25  44  69 101 138 183 233 292 354 421
#
# _framework density 23.369934000000001
#
# number of rings (size 3 to 8) (size 9 to 14) (size 15 to 20)
#    0.000    0.667    0.000   10.000    0.000    4.000 
#    0.000    0.000    0.000    0.000    0.000    0.000 
#    0.000    0.000    0.000    0.000    0.000    0.000 
#
# Total GULP energy -223165.137307 kJ/mol
# GULP energy per Si atom -12398.063184 kJ/mol
# Density = 2.331674 g / cm^3
# Si number density = 23.369934 Si / 1000 Ang^3
#
#
#
# Elastic Constant Matrix: (Units=GPa)
#
#
# Indices 1 2 3 4 5 6 
#
# 1 112.4749 21.1976 -5.0644 -1.3822 1.9995 0.0000
# 2 21.1976 112.4749 -5.0644 1.3822 -1.9995 0.0000
# 3 -5.0644 -5.0644 40.7401 0.0000 0.0000 0.0000
# 4 -1.3822 1.3822 0.0000 31.5189 0.0000 -1.9995
# 5 1.9995 -1.9995 0.0000 0.0000 31.5189 -1.3822
# 6 0.0000 0.0000 0.0000 -1.9995 -1.3822 45.6386
#
#
#
# Elastic Compliance Matrix: (Units=1/GPa)
#
#
# Indices 1 2 3 4 5 6 
#
# 1 0.009276 -0.001724 0.000939 0.000482 -0.000698 0.000000
# 2 -0.001724 0.009276 0.000939 -0.000482 0.000698 0.000000
# 3 0.000939 0.000939 0.024779 0.000000 0.000000 0.000000
# 4 0.000482 -0.000482 0.000000 0.031858 0.000000 0.001396
# 5 -0.000698 0.000698 0.000000 0.000000 0.031858 0.000965
# 6 0.000000 0.000000 0.000000 0.001396 0.000965 0.022002
#
#
# Mechanical properties :
#
#
# Convention : Reuss Voigt Hill
#
# Bulk Modulus (GPa) = 22.91548 31.98085 27.44816
# Shear Modulus (GPa) = 34.89445 38.71001 36.80223
#
# Velocity S-wave (km/s) = 3.86830 4.07431 3.97264
# Velocity P-wave (km/s) = 5.45697 5.98729 5.72827
#
# Compressibility (1/GPa) = 0.04363863
#
# Stress axis : x y z
#
# Youngs Moduli (GPa) = 107.79972 107.79972 40.35637
#
# Poissons Ratio (x) = 0.18589 -0.03789
# Poissons Ratio (y) = 0.18589 -0.03789
# Poissons Ratio (z) = -0.10120 -0.10120
#
# Static dielectric constant tensor:
#      x y z
#    x 4.886670 0.000000 0.000000 
#    y 0.000000 4.886670 0.000000 
#    z 0.000000 0.000000 4.001820 
# 
# 
# High freq. dielectric constant tensor:
#      x y z
#    x 1.944600 0.000000 0.000000 
#    y 0.000000 1.944600 0.000000 
#    z 0.000000 0.000000 1.908350 
# 
# From -- ./inp_files/559.got.cif
#   From: 2010.03.12/outbox.cif.g09.slc.cpg/sg144_cif.got.tgz:559.got - 2010.04.03 13:34:42.
