data_PCOD8321448
_publ_section_title
;
Structure prediction by ZEFSAII (Michael W. Deem and Ramdas Pophale) SiO2 
 PCOD8321448
Probable space group: P 31
;
_chemical_formula_sum "Si O2"
_cell_formula_units_Z 24
_cell_length_a 11.764412
_cell_length_b 11.764412
_cell_length_c 9.242178
_cell_angle_alpha 90.000000
_cell_angle_beta 90.000000
_cell_angle_gamma 120.000000
_cell_volume 1107.759316
_symmetry_space_group_name_H-M "P 31"
_symmetry_group_IT_number 144
_symmetry_cell_setting 'hexagonal'
loop_
_space_group_symop_operation_xyz
x,y,z
-y,x-y,1/3+z
-x+y,-x,2/3+z
loop_
_atom_site_type_symbol
_atom_site_label
_atom_site_fract_x
_atom_site_fract_y
_atom_site_fract_z
Si Si1 0.019798 0.816379 0.228370
Si Si2 0.932965 0.455141 0.554920
Si Si3 0.219486 0.040123 0.809394
Si Si4 0.149713 0.463248 0.061703
Si Si5 0.388377 0.834960 0.420324
Si Si6 0.944957 0.831707 0.920324
Si Si7 0.512696 0.886152 0.976060
Si Si8 0.811158 0.599632 0.721587
O O1 0.928728 0.785231 0.368036
O O2 0.089963 0.730004 0.222622
O O3 0.933421 0.782898 0.084250
O O4 0.137192 0.965849 0.227926
O O5 0.855136 0.499644 0.662503
O O6 0.832977 0.311174 0.495836
O O7 0.050388 0.455113 0.645605
O O8 0.994210 0.552918 0.420160
O O9 0.243370 0.936662 0.722622
O O10 0.082626 0.965055 0.895354
O O11 0.339124 0.113749 0.920160
O O12 0.299182 0.495323 0.061259
O O13 0.118564 0.523170 0.201370
O O14 0.116231 0.516143 0.917583
O O15 0.250707 0.701611 0.395354
O O16 0.928608 0.717055 0.812271
#
# Coordination Sequence:
#
# PCOD8321448 Si02
#       8
#     3   3   3   3   3   3   3   3
#     4  12  26  43  69 107 146 183 236 293 368 436
#     4  12  27  53  73 100 145 196 250 300 354 439
#     4  12  25  45  73 102 145 185 237 300 361 433
#     4  12  26  43  69 107 146 183 236 293 368 436
#     4  12  26  43  73 109 142 182 235 299 375 434
#     4  12  26  43  73 109 142 182 235 299 375 434
#     4  12  25  45  73 102 145 185 237 300 361 433
#     4  12  27  53  73 100 145 196 250 300 354 439
#
# _framework density 21.665357
#
# number of rings (size 3 to 8) (size 9 to 14) (size 15 to 20)
#    0.000    0.000    7.500    1.500    7.000    0.000 
#    4.500    0.000    0.000    0.000    0.000    0.000 
#    0.000    0.000    0.000    0.000    0.000    0.000 
#
# Total GULP energy -297787.761081 kJ/mol
# GULP energy per Si atom -12407.823378 kJ/mol
# Density = 2.161605 g / cm^3
# Si number density = 21.665357 Si / 1000 Ang^3
#
#
#
# Elastic Constant Matrix: (Units=GPa)
#
#
# Indices 1 2 3 4 5 6 
#
# 1 76.7593 19.8822 20.1704 0.0000 0.0000 0.0000
# 2 19.8822 76.7593 20.1704 0.0000 0.0000 0.0000
# 3 20.1704 20.1704 118.3209 0.0000 0.0000 0.0000
# 4 0.0000 0.0000 0.0000 37.8951 0.0000 0.0000
# 5 0.0000 0.0000 0.0000 0.0000 37.8951 0.0000
# 6 0.0000 0.0000 0.0000 0.0000 0.0000 28.4386
#
#
#
# Elastic Compliance Matrix: (Units=1/GPa)
#
#
# Indices 1 2 3 4 5 6 
#
# 1 0.014361 -0.003221 -0.001899 0.000000 0.000000 0.000000
# 2 -0.003221 0.014361 -0.001899 0.000000 0.000000 0.000000
# 3 -0.001899 -0.001899 0.009099 0.000000 0.000000 0.000000
# 4 0.000000 0.000000 0.000000 0.026389 0.000000 0.000000
# 5 0.000000 0.000000 0.000000 0.000000 0.026389 0.000000
# 6 0.000000 0.000000 0.000000 0.000000 0.000000 0.035164
#
#
# Mechanical properties :
#
#
# Convention : Reuss Voigt Hill
#
# Bulk Modulus (GPa) = 42.04655 43.58732 42.81694
# Shear Modulus (GPa) = 33.84610 34.95353 34.39982
#
# Velocity S-wave (km/s) = 3.95678 4.02099 3.98902
# Velocity P-wave (km/s) = 6.35014 6.45910 6.40485
#
# Compressibility (1/GPa) = 0.02378316
#
# Stress axis : x y z
#
# Youngs Moduli (GPa) = 69.63299 69.63299 109.90123
#
# Poissons Ratio (x) = 0.22427 0.20871
# Poissons Ratio (y) = 0.22427 0.20871
# Poissons Ratio (z) = 0.13224 0.13224
#
# Static dielectric constant tensor:
#      x y z
#    x 3.754770 0.000000 0.000000 
#    y 0.000000 3.754770 0.000000 
#    z 0.000000 0.000000 4.015850 
# 
# 
# High freq. dielectric constant tensor:
#      x y z
#    x 1.848160 0.000000 0.000000 
#    y 0.000000 1.848160 0.000000 
#    z 0.000000 0.000000 1.868710 
# 
# From -- ./inp_files/421.got.cif
#   From: 2010.03.12/outbox.cif.g09.slc.cpg/sg144_cif.got.tgz:421.got - 2010.04.03 13:34:42.
