data_PCOD8321992
_publ_section_title
;
Structure prediction by ZEFSAII (Michael W. Deem and Ramdas Pophale) SiO2 
 PCOD8321992
Probable space group: P 31 1 2
;
_chemical_formula_sum "Si O2"
_cell_formula_units_Z 36
_cell_length_a 8.745984
_cell_length_b 8.745984
_cell_length_c 23.428848
_cell_angle_alpha 90.000000
_cell_angle_beta 90.000000
_cell_angle_gamma 120.000000
_cell_volume 1552.025754
_symmetry_space_group_name_H-M "P 31 1 2"
_symmetry_group_IT_number 151
_symmetry_cell_setting 'hexagonal'
loop_
_space_group_symop_operation_xyz
x,y,z
-y,x-y,1/3+z
-x+y,-x,2/3+z
-y,-x,2/3-z
-x+y,y,1/3-z
x,x-y,-z
loop_
_atom_site_type_symbol
_atom_site_label
_atom_site_fract_x
_atom_site_fract_y
_atom_site_fract_z
Si Si1 0.302385 0.830640 0.274337
Si Si2 0.969674 0.808811 0.230237
Si Si3 0.827983 0.315111 0.395596
Si Si4 0.317966 0.512862 0.230024
Si Si5 0.008952 0.849631 0.770255
Si Si6 0.517016 0.366151 0.397166
O O1 0.197960 0.802041 0.333334
O O2 0.348626 0.676902 0.267404
O O3 0.161072 0.820538 0.227306
O O4 0.488603 0.007789 0.272944
O O5 0.891855 0.783709 0.166667
O O6 0.827747 0.653621 0.269902
O O7 0.995493 0.987920 0.259555
O O8 0.774791 0.225210 0.333334
O O9 0.858672 0.184401 0.436468
O O10 0.672519 0.339006 0.422323
O O11 0.269434 0.538868 0.166667
O O12 0.497270 0.503973 0.228989
O O13 0.156042 0.339263 0.259943
O O14 0.083921 0.916080 0.833334
O O15 0.557872 0.442129 0.333334
#
# Coordination Sequence:
#
# PCOD8321992 Si02
#       6
#     6   6   6   6   6   6
#     4  12  24  42  69 101 134 177 229 282 336 405
#     4  11  24  44  67 100 139 181 228 282 340 400
#     4  11  24  43  68  99 133 173 222 279 337 401
#     4  11  23  42  65  97 135 177 225 281 340 403
#     4  10  23  43  64  92 128 171 219 269 329 396
#     4  11  23  42  67  99 135 179 229 281 339 403
#
# _framework density 23.195494
#
# number of rings (size 3 to 8) (size 9 to 14) (size 15 to 20)
#    0.000    1.000    0.000    7.500    0.000    4.667 
#    0.000    7.500    0.000    0.000    0.000    0.000 
#    0.000    0.000    0.000    0.000    0.000    0.000 
#
# Total GULP energy -446384.887286 kJ/mol
# GULP energy per Si atom -12399.580202 kJ/mol
# Density = 2.314270 g / cm^3
# Si number density = 23.195494 Si / 1000 Ang^3
#
#
#
# Elastic Constant Matrix: (Units=GPa)
#
#
# Indices 1 2 3 4 5 6 
#
# 1 198.2349 84.3470 32.1056 -0.0003 3.2655 0.0000
# 2 84.3470 198.2349 32.1056 0.0003 -3.2655 0.0000
# 3 32.1056 32.1056 70.6864 0.0000 0.0000 0.0000
# 4 -0.0003 0.0003 0.0000 27.4111 0.0000 -3.2655
# 5 3.2655 -3.2655 0.0000 0.0000 27.4111 -0.0003
# 6 0.0000 0.0000 0.0000 -3.2655 -0.0003 56.9439
#
#
#
# Elastic Compliance Matrix: (Units=1/GPa)
#
#
# Indices 1 2 3 4 5 6 
#
# 1 0.006394 -0.002447 -0.001792 0.000000 -0.001053 0.000000
# 2 -0.002447 0.006394 -0.001792 0.000000 0.001053 0.000000
# 3 -0.001792 -0.001792 0.015775 0.000000 0.000000 0.000000
# 4 0.000000 0.000000 0.000000 0.036732 0.000000 0.002106
# 5 -0.001053 0.001053 0.000000 0.000000 0.036732 0.000000
# 6 0.000000 0.000000 0.000000 0.002106 0.000000 0.017682
#
#
# Mechanical properties :
#
#
# Convention : Reuss Voigt Hill
#
# Bulk Modulus (GPa) = 60.61321 84.91919 72.76620
# Shear Modulus (GPa) = 36.42391 43.59310 40.00850
#
# Velocity S-wave (km/s) = 3.96700 4.33988 4.15762
# Velocity P-wave (km/s) = 6.86811 7.86145 7.38151
#
# Compressibility (1/GPa) = 0.01649805
#
# Stress axis : x y z
#
# Youngs Moduli (GPa) = 156.40855 156.40855 63.39102
#
# Poissons Ratio (x) = 0.38280 0.11362
# Poissons Ratio (y) = 0.38280 0.11362
# Poissons Ratio (z) = 0.28033 0.28033
#
# Static dielectric constant tensor:
#      x y z
#    x 4.693020 0.000000 0.000000 
#    y 0.000000 4.693020 0.000000 
#    z 0.000000 0.000000 3.773820 
# 
# 
# High freq. dielectric constant tensor:
#      x y z
#    x 1.939710 0.000000 0.000000 
#    y 0.000000 1.939710 0.000000 
#    z 0.000000 0.000000 1.889560 
# 
# From -- ./inp_files/4640.got.cif
#   From: 2010.03.12/outbox.cif.g09.slc.cpg/sg151_3_cif.got.tgz:4640.got - 2010.04.03 13:42:29.
