data_PCOD8321049
_publ_section_title
;
Structure prediction by ZEFSAII (Michael W. Deem and Ramdas Pophale) SiO2 
 PCOD8321049
Probable space group: I 41/A C D
;
_chemical_formula_sum "Si O2"
_cell_formula_units_Z 160
_cell_length_a 21.015689
_cell_length_b 21.015689
_cell_length_c 19.472120
_cell_angle_alpha 90.000000
_cell_angle_beta 90.000000
_cell_angle_gamma 90.000000
_cell_volume 8600.040633
_symmetry_space_group_name_H-M "I 41/A C D"
_symmetry_group_IT_number 142
_space_group.IT_coordinate_system_code '2'
_symmetry_cell_setting 'tetragonal'
loop_
_space_group_symop_operation_xyz
x,y,z
1/4-y,3/4+x,1/4+z
-x,1/2-y,z
1/4+y,1/4-x,3/4+z
x,-y,1/2-z
1/2-x,y,-z
3/4+y,1/4+x,1/4-z
1/4-y,1/4-x,1/4-z
-x,-y,-z
3/4+y,1/4-x,3/4-z
x,1/2+y,-z
3/4-y,3/4+x,1/4-z
-x,y,1/2+z
1/2+x,-y,z
1/4-y,3/4-x,3/4+z
3/4+y,3/4+x,3/4+z
1/2+x,1/2+y,1/2+z
3/4-y,1/4+x,3/4+z
1/2-x,-y,1/2+z
3/4+y,3/4-x,1/4+z
1/2+x,1/2-y,-z
-x,1/2+y,1/2-z
1/4+y,3/4+x,3/4-z
3/4-y,3/4-x,3/4-z
1/2-x,1/2-y,1/2-z
1/4+y,3/4-x,1/4-z
1/2+x,y,1/2-z
1/4-y,1/4+x,3/4-z
1/2-x,1/2+y,z
x,1/2-y,1/2+z
3/4-y,1/4-x,1/4+z
1/4+y,1/4+x,1/4+z
loop_
_atom_site_type_symbol
_atom_site_label
_atom_site_fract_x
_atom_site_fract_y
_atom_site_fract_z
Si Si1 0.006137 0.937127 0.045982
Si Si2 0.649982 0.121936 0.186818
Si Si3 0.689044 0.231287 0.545720
Si Si4 0.277885 0.944311 0.201890
Si Si5 0.114781 0.880101 0.718880
O O1 0.017063 0.959156 0.124567
O O2 0.058136 0.887174 0.018739
O O3 0.944892 0.892117 0.042675
O O4 0.000000 0.000000 0.000000
O O5 0.589158 0.087646 0.221717
O O6 0.720179 0.104575 0.214047
O O7 0.651539 0.110103 0.105412
O O8 0.750000 0.244785 0.500000
O O9 0.638946 0.288110 0.526784
O O10 0.281349 0.968652 0.125000
O O11 0.347970 0.920323 0.223567
O O12 0.255057 0.000000 0.250000
#
# Coordination Sequence:
#
# PCOD8321049 Si02
#       5
#    32  32  32  32  32
#     4  10  20  37  60  84 114 151 198 241 291 350
#     4  10  21  38  56  85 117 153 194 244 294 353
#     4  10  22  38  56  83 121 151 191 239 300 351
#     4  12  22  34  58  88 120 151 201 248 298 350
#     4  10  21  36  58  85 113 154 195 243 290 347
#
# _framework density 18.604564
#
# number of rings (size 3 to 8) (size 9 to 14) (size 15 to 20)
#    0.000    1.600    4.000    1.200    2.800    0.800 
#    0.000    5.000    0.000    0.000    0.000    4.200 
#    0.000    0.000    0.000    0.000    0.000    0.000 
#
# Total GULP energy -991420.935885 kJ/mol
# GULP energy per Si atom -12392.761699 kJ/mol
# Density = 1.856222 g / cm^3
# Si number density = 18.604564 Si / 1000 Ang^3
#
#
#
# Elastic Constant Matrix: (Units=GPa)
#
#
# Indices 1 2 3 4 5 6 
#
# 1 111.7991 34.7014 32.4431 0.0000 0.0000 0.0000
# 2 34.7014 111.7984 32.4428 0.0000 0.0000 0.0000
# 3 32.4431 32.4428 69.8467 0.0000 0.0000 0.0000
# 4 0.0000 0.0000 0.0000 23.9671 0.0000 0.0000
# 5 0.0000 0.0000 0.0000 0.0000 23.9677 0.0000
# 6 0.0000 0.0000 0.0000 0.0000 0.0000 35.1322
#
#
#
# Elastic Compliance Matrix: (Units=1/GPa)
#
#
# Indices 1 2 3 4 5 6 
#
# 1 0.010782 -0.002188 -0.003992 0.000000 0.000000 0.000000
# 2 -0.002188 0.010782 -0.003992 0.000000 0.000000 0.000000
# 3 -0.003992 -0.003992 0.018025 0.000000 0.000000 0.000000
# 4 0.000000 0.000000 0.000000 0.041724 0.000000 0.000000
# 5 0.000000 0.000000 0.000000 0.000000 0.041723 0.000000
# 6 0.000000 0.000000 0.000000 0.000000 0.000000 0.028464
#
#
# Mechanical properties :
#
#
# Convention : Reuss Voigt Hill
#
# Bulk Modulus (GPa) = 51.95866 54.73544 53.34705
# Shear Modulus (GPa) = 28.04900 29.53720 28.79310
#
# Velocity S-wave (km/s) = 3.88705 3.98883 3.93827
# Velocity P-wave (km/s) = 6.93787 7.12030 7.02968
#
# Compressibility (1/GPa) = 0.01924607
#
# Stress axis : x y z
#
# Youngs Moduli (GPa) = 92.74517 92.74463 55.47753
#
# Poissons Ratio (x) = 0.20296 0.22145
# Poissons Ratio (y) = 0.20296 0.22145
# Poissons Ratio (z) = 0.37022 0.37021
#
# Static dielectric constant tensor:
#      x y z
#    x 3.503230 0.000000 0.000000 
#    y 0.000000 3.503230 0.000000 
#    z 0.000000 0.000000 3.364920 
# 
# 
# High freq. dielectric constant tensor:
#      x y z
#    x 1.726550 0.000000 0.000000 
#    y 0.000000 1.726550 0.000000 
#    z 0.000000 0.000000 1.709910 
# 
# From -- ./inp_files/7398.got.cif
#   From: 2010.03.12/outbox.cif.g09.slc.cpg/sg142_4_cif.got.tgz:7398.got - 2010.04.03 13:27:16.
