data_PCOD8321134
_publ_section_title
;
Structure prediction by ZEFSAII (Michael W. Deem and Ramdas Pophale) SiO2 
 PCOD8321134
Probable space group: I 41/A C D
;
_chemical_formula_sum "Si O2"
_cell_formula_units_Z 184
_cell_length_a 22.744549
_cell_length_b 22.744549
_cell_length_c 17.183638
_cell_angle_alpha 90.000000
_cell_angle_beta 90.000000
_cell_angle_gamma 90.000000
_cell_volume 8889.345258
_symmetry_space_group_name_H-M "I 41/A C D"
_symmetry_group_IT_number 142
_space_group.IT_coordinate_system_code '2'
_symmetry_cell_setting 'tetragonal'
loop_
_space_group_symop_operation_xyz
x,y,z
1/4-y,3/4+x,1/4+z
-x,1/2-y,z
1/4+y,1/4-x,3/4+z
x,-y,1/2-z
1/2-x,y,-z
3/4+y,1/4+x,1/4-z
1/4-y,1/4-x,1/4-z
-x,-y,-z
3/4+y,1/4-x,3/4-z
x,1/2+y,-z
3/4-y,3/4+x,1/4-z
-x,y,1/2+z
1/2+x,-y,z
1/4-y,3/4-x,3/4+z
3/4+y,3/4+x,3/4+z
1/2+x,1/2+y,1/2+z
3/4-y,1/4+x,3/4+z
1/2-x,-y,1/2+z
3/4+y,3/4-x,1/4+z
1/2+x,1/2-y,-z
-x,1/2+y,1/2-z
1/4+y,3/4+x,3/4-z
3/4-y,3/4-x,3/4-z
1/2-x,1/2-y,1/2-z
1/4+y,3/4-x,1/4-z
1/2+x,y,1/2-z
1/4-y,1/4+x,3/4-z
1/2-x,1/2+y,z
x,1/2-y,1/2+z
3/4-y,1/4-x,1/4+z
1/4+y,1/4+x,1/4+z
loop_
_atom_site_type_symbol
_atom_site_label
_atom_site_fract_x
_atom_site_fract_y
_atom_site_fract_z
Si Si1 0.781583 0.000000 0.750000
Si Si2 0.104679 0.707526 0.472441
Si Si3 0.210385 0.335349 0.128097
Si Si4 0.914605 0.591785 0.041874
Si Si5 0.000000 0.250000 0.625000
Si Si6 0.206266 0.235260 0.935653
Si Si7 0.202425 0.064981 0.392491
O O1 0.818629 0.044405 0.805346
O O2 0.742702 0.039578 0.693367
O O3 0.147481 0.672355 0.413327
O O4 0.065806 0.658379 0.519349
O O5 0.059189 0.749782 0.427137
O O6 0.143443 0.748244 0.527901
O O7 0.202338 0.326405 0.220046
O O8 0.259112 0.291218 0.096288
O O9 0.235881 0.400041 0.110708
O O10 0.944668 0.559509 0.113609
O O11 0.847225 0.603570 0.066667
O O12 0.250000 0.204917 0.000000
#
# Coordination Sequence:
#
# PCOD8321134 Si02
#       7
#    16  32  32  32   8  32  32
#     4  10  22  32  54  96 132 158 196 270 326 380
#     4  11  24  43  68  95 129 170 229 284 335 402
#     4  11  21  43  68  96 127 174 228 275 333 409
#     4  12  22  40  65  95 130 174 222 277 337 406
#     4  12  24  44  70 100 132 164 226 292 340 396
#     4  10  25  43  64  94 133 179 224 275 339 416
#     4  11  21  35  62  94 129 165 215 265 328 396
#
# _framework density 20.698937000000001
#
# number of rings (size 3 to 8) (size 9 to 14) (size 15 to 20)
#    0.000    1.043    5.217    1.565    4.870    1.391 
#    0.000    0.000    0.000    0.000    0.000    0.000 
#    0.000    0.000    0.000    0.000    0.000    0.000 
#
# Total GULP energy -1140217.708797 kJ/mol
# GULP energy per Si atom -12393.670748 kJ/mol
# Density = 2.065183 g / cm^3
# Si number density = 20.698937 Si / 1000 Ang^3
#
#
#
# Elastic Constant Matrix: (Units=GPa)
#
#
# Indices 1 2 3 4 5 6 
#
# 1 62.3058 32.9798 38.3686 0.0000 0.0000 0.0000
# 2 32.9798 62.3058 38.3686 0.0000 0.0000 0.0000
# 3 38.3686 38.3686 144.6215 0.0000 0.0000 0.0000
# 4 0.0000 0.0000 0.0000 39.9190 0.0000 0.0000
# 5 0.0000 0.0000 0.0000 0.0000 39.9190 0.0000
# 6 0.0000 0.0000 0.0000 0.0000 0.0000 34.1952
#
#
#
# Elastic Compliance Matrix: (Units=1/GPa)
#
#
# Indices 1 2 3 4 5 6 
#
# 1 0.023723 -0.010377 -0.003541 0.000000 0.000000 0.000000
# 2 -0.010377 0.023723 -0.003541 0.000000 0.000000 0.000000
# 3 -0.003541 -0.003541 0.008793 0.000000 0.000000 0.000000
# 4 0.000000 0.000000 0.000000 0.025051 0.000000 0.000000
# 5 0.000000 0.000000 0.000000 0.000000 0.025051 0.000000
# 6 0.000000 0.000000 0.000000 0.000000 0.000000 0.029244
#
#
# Mechanical properties :
#
#
# Convention : Reuss Voigt Hill
#
# Bulk Modulus (GPa) = 46.89831 54.29636 50.59733
# Shear Modulus (GPa) = 28.15178 33.44104 30.79641
#
# Velocity S-wave (km/s) = 3.69190 4.02380 3.86142
# Velocity P-wave (km/s) = 6.39375 6.91928 6.66170
#
# Compressibility (1/GPa) = 0.02132273
#
# Stress axis : x y z
#
# Youngs Moduli (GPa) = 42.15333 42.15333 113.72177
#
# Poissons Ratio (x) = 0.43741 0.40267
# Poissons Ratio (y) = 0.43741 0.40267
# Poissons Ratio (z) = 0.14926 0.14926
#
# Static dielectric constant tensor:
#      x y z
#    x 3.638200 0.000000 0.000000 
#    y 0.000000 3.638200 0.000000 
#    z 0.000000 0.000000 4.302110 
# 
# 
# High freq. dielectric constant tensor:
#      x y z
#    x 1.793790 0.000000 0.000000 
#    y 0.000000 1.793790 0.000000 
#    z 0.000000 0.000000 1.835000 
# 
# From -- ./inp_files/7627.got.cif
#   From: 2010.03.12/outbox.cif.g09.slc.cpg/sg142_4_cif.got.tgz:7627.got - 2010.04.03 13:27:16.
