data_PCOD8321371
_publ_section_title
;
Structure prediction by ZEFSAII (Michael W. Deem and Ramdas Pophale) SiO2 
 PCOD8321371
Probable space group: P 31
;
_chemical_formula_sum "Si O2"
_cell_formula_units_Z 21
_cell_length_a 8.221963
_cell_length_b 8.221963
_cell_length_c 16.788714
_cell_angle_alpha 90.000000
_cell_angle_beta 90.000000
_cell_angle_gamma 120.000000
_cell_volume 982.876833
_symmetry_space_group_name_H-M "P 31"
_symmetry_group_IT_number 144
_symmetry_cell_setting 'hexagonal'
loop_
_space_group_symop_operation_xyz
x,y,z
-y,x-y,1/3+z
-x+y,-x,2/3+z
loop_
_atom_site_type_symbol
_atom_site_label
_atom_site_fract_x
_atom_site_fract_y
_atom_site_fract_z
Si Si1 0.980680 0.244267 0.798870
Si Si2 0.980680 0.736413 0.353004
Si Si3 0.625525 0.898811 0.850093
Si Si4 0.101187 0.374478 0.968448
Si Si5 0.377191 0.371144 0.093145
Si Si6 0.628860 0.622810 0.725394
Si Si7 0.557377 0.778689 0.575937
O O1 0.080731 0.161459 0.742605
O O2 0.087018 0.282223 0.882872
O O3 0.009642 0.437848 0.764992
O O4 0.757831 0.096178 0.804715
O O5 0.757831 0.661652 0.347160
O O6 0.009644 0.571794 0.386881
O O7 0.087017 0.804800 0.269003
O O8 0.622400 0.731833 0.802111
O O9 0.412534 0.852490 0.858924
O O10 0.147503 0.587466 0.959617
O O11 0.268166 0.377608 0.016430
O O12 0.437704 0.218855 0.075934
O O13 0.254868 0.321535 0.175266
O O14 0.678468 0.745134 0.643273
#
# Coordination Sequence:
#
# PCOD8321371 Si02
#       7
#     3   3   3   3   3   3   3
#     4  10  22  41  64  91 122 157 200 249 300 359
#     4  10  22  41  64  91 122 157 200 249 300 359
#     4  10  21  41  64  87 120 160 201 249 301 354
#     4  10  21  41  64  87 120 160 201 249 301 354
#     4  11  23  38  61  92 122 159 202 246 301 360
#     4  11  23  38  61  92 122 159 202 246 301 360
#     4  10  22  42  62  84 120 164 204 250 302 352
#
# _framework density 21.365852
#
# number of rings (size 3 to 8) (size 9 to 14) (size 15 to 20)
#    0.000    1.714    0.000    5.143    0.000    6.857 
#    0.000   14.286    0.000    0.000    0.000    0.000 
#    0.000    0.000    0.000    0.000    0.000    0.000 
#
# Total GULP energy -260381.280279 kJ/mol
# GULP energy per Si atom -12399.108585 kJ/mol
# Density = 2.131722 g / cm^3
# Si number density = 21.365852 Si / 1000 Ang^3
#
#
#
# Elastic Constant Matrix: (Units=GPa)
#
#
# Indices 1 2 3 4 5 6 
#
# 1 101.9965 44.8416 56.1856 -0.0001 12.4321 0.0000
# 2 44.8416 101.9965 56.1856 0.0001 -12.4321 0.0000
# 3 56.1856 56.1856 92.5015 0.0000 0.0000 0.0000
# 4 -0.0001 0.0001 0.0000 34.4671 0.0000 -12.4321
# 5 12.4321 -12.4321 0.0000 0.0000 34.4671 -0.0001
# 6 0.0000 0.0000 0.0000 -12.4321 -0.0001 28.5775
#
#
#
# Elastic Compliance Matrix: (Units=1/GPa)
#
#
# Indices 1 2 3 4 5 6 
#
# 1 0.016739 -0.004014 -0.007729 0.000000 -0.007485 0.000000
# 2 -0.004014 0.016739 -0.007729 0.000000 0.007485 0.000000
# 3 -0.007729 -0.007729 0.020200 0.000000 0.000000 0.000000
# 4 0.000000 0.000000 0.000000 0.034413 0.000000 0.014971
# 5 -0.007485 0.007485 0.000000 0.000000 0.034413 0.000000
# 6 0.000000 0.000000 0.000000 0.014971 0.000000 0.041505
#
#
# Mechanical properties :
#
#
# Convention : Reuss Voigt Hill
#
# Bulk Modulus (GPa) = 67.87292 67.88001 67.87647
# Shear Modulus (GPa) = 24.05400 28.78778 26.42089
#
# Velocity S-wave (km/s) = 3.35896 3.67464 3.52034
# Velocity P-wave (km/s) = 6.84686 7.05998 6.95423
#
# Compressibility (1/GPa) = 0.01473342
#
# Stress axis : x y z
#
# Youngs Moduli (GPa) = 59.74082 59.74082 49.50426
#
# Poissons Ratio (x) = 0.23978 0.38264
# Poissons Ratio (y) = 0.23978 0.38264
# Poissons Ratio (z) = 0.46176 0.46176
#
# Static dielectric constant tensor:
#      x y z
#    x 3.868370 0.000000 0.000000 
#    y 0.000000 3.868370 0.000000 
#    z 0.000000 0.000000 4.133990 
# 
# 
# High freq. dielectric constant tensor:
#      x y z
#    x 1.833490 0.000000 0.000000 
#    y 0.000000 1.833490 0.000000 
#    z 0.000000 0.000000 1.855950 
# 
# From -- ./inp_files/787.got.cif
#   From: 2010.03.12/outbox.cif.g09.slc.cpg/sg144_cif.got.tgz:787.got - 2010.04.03 13:34:42.
