data_PCOD8321000
_publ_section_title
;
Structure prediction by ZEFSAII (Michael W. Deem and Ramdas Pophale) SiO2 
 PCOD8321000
Probable space group: I 41/A C D
;
_chemical_formula_sum "Si O2"
_cell_formula_units_Z 144
_cell_length_a 17.583718
_cell_length_b 17.583718
_cell_length_c 23.853797
_cell_angle_alpha 90.000000
_cell_angle_beta 90.000000
_cell_angle_gamma 90.000000
_cell_volume 7375.287242
_symmetry_space_group_name_H-M "I 41/A C D"
_symmetry_group_IT_number 142
_space_group.IT_coordinate_system_code '2'
_symmetry_cell_setting 'tetragonal'
loop_
_space_group_symop_operation_xyz
x,y,z
1/4-y,3/4+x,1/4+z
-x,1/2-y,z
1/4+y,1/4-x,3/4+z
x,-y,1/2-z
1/2-x,y,-z
3/4+y,1/4+x,1/4-z
1/4-y,1/4-x,1/4-z
-x,-y,-z
3/4+y,1/4-x,3/4-z
x,1/2+y,-z
3/4-y,3/4+x,1/4-z
-x,y,1/2+z
1/2+x,-y,z
1/4-y,3/4-x,3/4+z
3/4+y,3/4+x,3/4+z
1/2+x,1/2+y,1/2+z
3/4-y,1/4+x,3/4+z
1/2-x,-y,1/2+z
3/4+y,3/4-x,1/4+z
1/2+x,1/2-y,-z
-x,1/2+y,1/2-z
1/4+y,3/4+x,3/4-z
3/4-y,3/4-x,3/4-z
1/2-x,1/2-y,1/2-z
1/4+y,3/4-x,1/4-z
1/2+x,y,1/2-z
1/4-y,1/4+x,3/4-z
1/2-x,1/2+y,z
x,1/2-y,1/2+z
3/4-y,1/4-x,1/4+z
1/4+y,1/4+x,1/4+z
loop_
_atom_site_type_symbol
_atom_site_label
_atom_site_fract_x
_atom_site_fract_y
_atom_site_fract_z
Si Si1 0.333770 0.916231 0.125000
Si Si2 0.845939 0.060150 0.450512
Si Si3 0.731546 0.283059 0.440330
Si Si4 0.469577 0.868143 0.379867
Si Si5 0.369211 0.939113 0.682294
O O1 0.273143 0.920809 0.175599
O O2 0.414983 0.926251 0.153581
O O3 0.927157 0.096373 0.434056
O O4 0.841303 0.063151 0.518454
O O5 0.778825 0.108970 0.422599
O O6 0.750000 0.321317 0.500000
O O7 0.813767 0.268857 0.413279
O O8 0.681609 0.207028 0.449919
O O9 0.551213 0.832944 0.397288
O O10 0.355535 0.894466 0.625000
#
# Coordination Sequence:
#
# PCOD8321000 Si02
#       5
#    16  32  32  32  32
#     4  10  24  38  63  94 122 155 214 252 304 370
#     4  10  20  37  59  89 115 157 201 246 307 360
#     4  11  22  41  61  87 125 163 199 259 312 365
#     4  10  19  35  58  87 116 151 197 248 304 367
#     4  11  21  38  61  84 119 164 205 248 307 371
#
# _framework density 19.524663
#
# number of rings (size 3 to 8) (size 9 to 14) (size 15 to 20)
#    0.000    1.556    5.556    0.000    3.111    0.000 
#    4.000    2.778    0.000    0.000    0.000    0.000 
#    0.000    0.000    0.000    0.000    0.000    0.000 
#
# Total GULP energy -892183.387808 kJ/mol
# GULP energy per Si atom -12391.435942 kJ/mol
# Density = 1.948022 g / cm^3
# Si number density = 19.524663 Si / 1000 Ang^3
#
#
#
# Elastic Constant Matrix: (Units=GPa)
#
#
# Indices 1 2 3 4 5 6 
#
# 1 58.5373 31.0292 36.7110 0.0000 0.0000 0.0000
# 2 31.0292 58.5392 36.7146 0.0000 0.0000 0.0000
# 3 36.7110 36.7146 122.6622 0.0000 0.0000 0.0000
# 4 0.0000 0.0000 0.0000 22.6037 0.0000 0.0000
# 5 0.0000 0.0000 0.0000 0.0000 22.6031 0.0000
# 6 0.0000 0.0000 0.0000 0.0000 0.0000 26.2068
#
#
#
# Elastic Compliance Matrix: (Units=1/GPa)
#
#
# Indices 1 2 3 4 5 6 
#
# 1 0.025573 -0.010778 -0.004428 0.000000 0.000000 0.000000
# 2 -0.010778 0.025573 -0.004429 0.000000 0.000000 0.000000
# 3 -0.004428 -0.004429 0.010803 0.000000 0.000000 0.000000
# 4 0.000000 0.000000 0.000000 0.044241 0.000000 0.000000
# 5 0.000000 0.000000 0.000000 0.000000 0.044242 0.000000
# 6 0.000000 0.000000 0.000000 0.000000 0.000000 0.038158
#
#
# Mechanical properties :
#
#
# Convention : Reuss Voigt Hill
#
# Bulk Modulus (GPa) = 44.09089 49.84981 46.97035
# Shear Modulus (GPa) = 21.23868 23.30163 22.27016
#
# Velocity S-wave (km/s) = 3.30174 3.45838 3.38097
# Velocity P-wave (km/s) = 6.09643 6.44471 6.27299
#
# Compressibility (1/GPa) = 0.02268042
#
# Stress axis : x y z
#
# Youngs Moduli (GPa) = 39.10342 39.10322 92.56572
#
# Poissons Ratio (x) = 0.42147 0.40984
# Poissons Ratio (y) = 0.42147 0.40994
# Poissons Ratio (z) = 0.17313 0.17317
#
# Static dielectric constant tensor:
#      x y z
#    x 3.648500 0.000000 0.000000 
#    y 0.000000 3.648500 0.000000 
#    z 0.000000 0.000000 3.423650 
# 
# 
# High freq. dielectric constant tensor:
#      x y z
#    x 1.757580 0.000000 0.000000 
#    y 0.000000 1.757580 0.000000 
#    z 0.000000 0.000000 1.751370 
# 
# From -- ./inp_files/10107.got.cif
#   From: 2010.03.12/outbox.cif.g09.slc.cpg/sg142_6_cif.got.tgz:10107.got - 2010.04.03 13:27:16.
