data_PCOD8321848
_publ_section_title
;
Structure prediction by ZEFSAII (Michael W. Deem and Ramdas Pophale) SiO2 
 PCOD8321848
Probable space group: P 3 1 2
;
_chemical_formula_sum "Si O2"
_cell_formula_units_Z 30
_cell_length_a 12.629401
_cell_length_b 12.629401
_cell_length_c 12.692273
_cell_angle_alpha 90.000000
_cell_angle_beta 90.000000
_cell_angle_gamma 120.000000
_cell_volume 1753.216472
_symmetry_space_group_name_H-M "P 3 1 2"
_symmetry_group_IT_number 149
_symmetry_cell_setting 'hexagonal'
loop_
_space_group_symop_operation_xyz
x,y,z
-y,x-y,z
-x+y,-x,z
-y,-x,-z
-x+y,y,-z
x,x-y,-z
loop_
_atom_site_type_symbol
_atom_site_label
_atom_site_fract_x
_atom_site_fract_y
_atom_site_fract_z
Si Si1 0.579765 0.664996 0.000000
Si Si2 0.333585 0.423272 0.379769
Si Si3 0.333585 0.423272 0.620231
Si Si4 0.665579 0.579453 0.805114
Si Si5 0.913874 0.334421 0.194886
O O1 0.646987 0.654653 0.102807
O O2 0.437795 0.562206 0.000000
O O3 0.590743 0.795372 0.000000
O O4 0.646987 0.654653 0.897193
O O5 0.333548 0.382870 0.500000
O O6 0.435613 0.564387 0.361981
O O7 0.204655 0.409311 0.348117
O O8 0.360973 0.336547 0.306437
O O9 0.360973 0.336546 0.693563
O O10 0.562481 0.437519 0.809922
O O11 0.795179 0.590358 0.820200
#
# Coordination Sequence:
#
# PCOD8321848 Si02
#       5
#     6   6   6   6   6
#     4  10  20  34  54  78 100 122 152 196 248 294
#     4   9  17  30  50  75 100 126 158 200 249 294
#     4   9  17  30  50  75 100 126 158 200 249 294
#     4  10  20  33  50  72  99 131 164 197 235 282
#     4  10  20  33  50  72  99 131 164 197 235 282
#
# _framework density 17.111407
#
# number of rings (size 3 to 8) (size 9 to 14) (size 15 to 20)
#    0.000    2.400    0.000    2.800    0.000    2.400 
#    0.000    6.000    0.000   13.600    0.000    0.000 
#    0.000    0.000    0.000    0.000    0.000    0.000 
#
# Total GULP energy -372074.097808 kJ/mol
# GULP energy per Si atom -12402.469927 kJ/mol
# Density = 1.707246 g / cm^3
# Si number density = 17.111407 Si / 1000 Ang^3
#
#
#
# Elastic Constant Matrix: (Units=GPa)
#
#
# Indices 1 2 3 4 5 6 
#
# 1 117.3701 76.8802 61.5934 0.0000 0.0000 0.0000
# 2 76.8802 117.3701 61.5934 0.0000 0.0000 0.0000
# 3 61.5934 61.5934 113.1868 0.0000 0.0000 0.0000
# 4 0.0000 0.0000 0.0000 16.8278 0.0000 0.0000
# 5 0.0000 0.0000 0.0000 0.0000 16.8278 0.0000
# 6 0.0000 0.0000 0.0000 0.0000 0.0000 20.2450
#
#
#
# Elastic Compliance Matrix: (Units=1/GPa)
#
#
# Indices 1 2 3 4 5 6 
#
# 1 0.016279 -0.008418 -0.004278 0.000000 0.000000 0.000000
# 2 -0.008418 0.016279 -0.004278 0.000000 0.000000 0.000000
# 3 -0.004278 -0.004278 0.013490 0.000000 0.000000 0.000000
# 4 0.000000 0.000000 0.000000 0.059426 0.000000 0.000000
# 5 0.000000 0.000000 0.000000 0.000000 0.059426 0.000000
# 6 0.000000 0.000000 0.000000 0.000000 0.000000 0.049395
#
#
# Mechanical properties :
#
#
# Convention : Reuss Voigt Hill
#
# Bulk Modulus (GPa) = 82.63447 83.11792 82.87619
# Shear Modulus (GPa) = 19.81959 20.63744 20.22851
#
# Velocity S-wave (km/s) = 3.40702 3.47661 3.44199
# Velocity P-wave (km/s) = 7.99212 8.04958 8.02090
#
# Compressibility (1/GPa) = 0.01210149
#
# Stress axis : x y z
#
# Youngs Moduli (GPa) = 61.42847 61.42847 74.12634
#
# Poissons Ratio (x) = 0.51713 0.31708
# Poissons Ratio (y) = 0.51713 0.31708
# Poissons Ratio (z) = 0.26277 0.26277
#
# Static dielectric constant tensor:
#      x y z
#    x 3.001810 0.000000 0.000000 
#    y 0.000000 3.001810 0.000000 
#    z 0.000000 0.000000 3.517930 
# 
# 
# High freq. dielectric constant tensor:
#      x y z
#    x 1.646820 0.000000 0.000000 
#    y 0.000000 1.646820 0.000000 
#    z 0.000000 0.000000 1.681250 
# 
# From -- ./inp_files/985.got.cif
#   From: 2010.03.12/outbox.cif.g09.slc.cpg/sg149_cif.got.tgz:985.got - 2010.04.03 13:40:41.
