data_PCOD8321013
_publ_section_title
;
Structure prediction by ZEFSAII (Michael W. Deem and Ramdas Pophale) SiO2 
 PCOD8321013
Probable space group: I 41/A C D
;
_chemical_formula_sum "Si O2"
_cell_formula_units_Z 144
_cell_length_a 17.983868
_cell_length_b 17.983868
_cell_length_c 20.774244
_cell_angle_alpha 90.000000
_cell_angle_beta 90.000000
_cell_angle_gamma 90.000000
_cell_volume 6718.795779
_symmetry_space_group_name_H-M "I 41/A C D"
_symmetry_group_IT_number 142
_space_group.IT_coordinate_system_code '2'
_symmetry_cell_setting 'tetragonal'
loop_
_space_group_symop_operation_xyz
x,y,z
1/4-y,3/4+x,1/4+z
-x,1/2-y,z
1/4+y,1/4-x,3/4+z
x,-y,1/2-z
1/2-x,y,-z
3/4+y,1/4+x,1/4-z
1/4-y,1/4-x,1/4-z
-x,-y,-z
3/4+y,1/4-x,3/4-z
x,1/2+y,-z
3/4-y,3/4+x,1/4-z
-x,y,1/2+z
1/2+x,-y,z
1/4-y,3/4-x,3/4+z
3/4+y,3/4+x,3/4+z
1/2+x,1/2+y,1/2+z
3/4-y,1/4+x,3/4+z
1/2-x,-y,1/2+z
3/4+y,3/4-x,1/4+z
1/2+x,1/2-y,-z
-x,1/2+y,1/2-z
1/4+y,3/4+x,3/4-z
3/4-y,3/4-x,3/4-z
1/2-x,1/2-y,1/2-z
1/4+y,3/4-x,1/4-z
1/2+x,y,1/2-z
1/4-y,1/4+x,3/4-z
1/2-x,1/2+y,z
x,1/2-y,1/2+z
3/4-y,1/4-x,1/4+z
1/4+y,1/4+x,1/4+z
loop_
_atom_site_type_symbol
_atom_site_label
_atom_site_fract_x
_atom_site_fract_y
_atom_site_fract_z
Si Si1 0.964726 0.519912 0.432730
Si Si2 0.398656 0.387181 0.281578
Si Si3 0.305459 0.796835 0.059095
Si Si4 0.205900 0.107450 0.907043
Si Si5 0.310070 0.060070 0.375000
O O1 0.931539 0.603384 0.439132
O O2 0.900715 0.460000 0.411724
O O3 0.000000 0.500000 0.500000
O O4 0.027261 0.516658 0.377394
O O5 0.486688 0.378401 0.298361
O O6 0.364492 0.462095 0.312582
O O7 0.391967 0.393694 0.204232
O O8 0.329955 0.882875 0.066221
O O9 0.250000 0.786228 0.000000
O O10 0.179739 0.023301 0.898961
#
# Coordination Sequence:
#
# PCOD8321013 Si02
#       5
#    32  32  32  32  16
#     4  11  21  39  65  98 131 183 236 273 352 428
#     4  10  19  40  66  88 134 185 219 267 359 419
#     4  11  23  40  60  94 141 174 218 284 358 410
#     4  10  19  37  62  97 132 168 219 298 337 393
#     4  12  24  34  65 108 130 163 234 302 340 412
#
# _framework density 21.432413
#
# number of rings (size 3 to 8) (size 9 to 14) (size 15 to 20)
#    0.000    1.333    6.667    3.333    3.111    1.778 
#    0.000    2.222    0.000    0.000    0.000    0.000 
#    0.000    0.000    0.000    0.000    0.000    0.000 
#
# Total GULP energy -892079.935626 kJ/mol
# GULP energy per Si atom -12389.999106 kJ/mol
# Density = 2.138363 g / cm^3
# Si number density = 21.432413 Si / 1000 Ang^3
#
#
#
# Elastic Constant Matrix: (Units=GPa)
#
#
# Indices 1 2 3 4 5 6 
#
# 1 109.3426 23.7884 44.7779 0.0000 0.0000 0.0000
# 2 23.7884 109.3426 44.7779 0.0000 0.0000 0.0000
# 3 44.7779 44.7779 161.8716 0.0000 0.0000 0.0000
# 4 0.0000 0.0000 0.0000 30.1593 0.0000 0.0000
# 5 0.0000 0.0000 0.0000 0.0000 30.1593 0.0000
# 6 0.0000 0.0000 0.0000 0.0000 0.0000 16.7049
#
#
#
# Elastic Compliance Matrix: (Units=1/GPa)
#
#
# Indices 1 2 3 4 5 6 
#
# 1 0.010459 -0.001230 -0.002553 0.000000 0.000000 0.000000
# 2 -0.001230 0.010459 -0.002553 0.000000 0.000000 0.000000
# 3 -0.002553 -0.002553 0.007590 0.000000 0.000000 0.000000
# 4 0.000000 0.000000 0.000000 0.033157 0.000000 0.000000
# 5 0.000000 0.000000 0.000000 0.000000 0.033157 0.000000
# 6 0.000000 0.000000 0.000000 0.000000 0.000000 0.059863
#
#
# Mechanical properties :
#
#
# Convention : Reuss Voigt Hill
#
# Bulk Modulus (GPa) = 63.14746 67.47166 65.30956
# Shear Modulus (GPa) = 28.96295 33.21890 31.09092
#
# Velocity S-wave (km/s) = 3.68008 3.94120 3.81287
# Velocity P-wave (km/s) = 6.89817 7.22912 7.06558
#
# Compressibility (1/GPa) = 0.01583595
#
# Stress axis : x y z
#
# Youngs Moduli (GPa) = 95.61506 95.61506 131.75002
#
# Poissons Ratio (x) = 0.11760 0.33634
# Poissons Ratio (y) = 0.11760 0.33634
# Poissons Ratio (z) = 0.24410 0.24410
#
# Static dielectric constant tensor:
#      x y z
#    x 3.822040 0.000000 0.000000 
#    y 0.000000 3.822040 0.000000 
#    z 0.000000 0.000000 4.268380 
# 
# 
# High freq. dielectric constant tensor:
#      x y z
#    x 1.815590 0.000000 0.000000 
#    y 0.000000 1.815590 0.000000 
#    z 0.000000 0.000000 1.857930 
# 
# From -- ./inp_files/8998.got.cif
#   From: 2010.03.12/outbox.cif.g09.slc.cpg/sg142_5_cif.got.tgz:8998.got - 2010.04.03 13:27:16.
