data_PCOD8321895
_publ_section_title
;
Structure prediction by ZEFSAII (Michael W. Deem and Ramdas Pophale) SiO2 
 PCOD8321895
Probable space group: P 3 2 1
;
_chemical_formula_sum "Si O2"
_cell_formula_units_Z 30
_cell_length_a 8.328252
_cell_length_b 8.328252
_cell_length_c 23.896195
_cell_angle_alpha 90.000000
_cell_angle_beta 90.000000
_cell_angle_gamma 120.000000
_cell_volume 1435.380695
_symmetry_space_group_name_H-M "P 3 2 1"
_symmetry_group_IT_number 150
_symmetry_cell_setting 'hexagonal'
loop_
_space_group_symop_operation_xyz
x,y,z
-y,x-y,z
-x+y,-x,z
x-y,-y,-z
-x,-x+y,-z
y,x,-z
loop_
_atom_site_type_symbol
_atom_site_label
_atom_site_fract_x
_atom_site_fract_y
_atom_site_fract_z
Si Si1 0.781339 0.807821 0.157786
Si Si2 0.675354 0.544309 0.949860
Si Si3 0.002062 0.663108 0.565893
Si Si4 0.331292 0.005656 0.613066
Si Si5 0.692324 0.551886 0.732569
O O1 0.650800 0.687862 0.107066
O O2 0.671949 0.707577 0.213671
O O3 0.976216 0.806956 0.155618
O O4 0.488339 0.340864 0.952598
O O5 0.671770 0.671770 0.000000
O O6 0.870096 0.744125 0.582235
O O7 0.000000 0.637812 0.500000
O O8 0.205100 0.796479 0.591512
O O9 0.921823 0.463431 0.594532
O O10 0.323501 0.027313 0.679695
O O11 0.496717 0.356123 0.732342
#
# Coordination Sequence:
#
# PCOD8321895 Si02
#       5
#     6   6   6   6   6
#     4  10  24  37  68  99 131 177 224 268 332 399
#     4  10  24  41  68  98 142 182 228 276 333 383
#     4  12  24  42  64  94 133 171 225 283 349 424
#     4  12  25  43  67  98 129 180 224 284 353 415
#     4  10  21  44  67  91 131 175 219 275 341 391
#
# _framework density 20.900378
#
# number of rings (size 3 to 8) (size 9 to 14) (size 15 to 20)
#    1.200    0.000    2.000    4.200    5.600    0.000 
#    0.000    0.000    0.000    0.800    0.000    0.000 
#    0.000    0.000    0.000    0.000    0.000    0.000 
#
# Total GULP energy -371897.515700 kJ/mol
# GULP energy per Si atom -12396.583857 kJ/mol
# Density = 2.085281 g / cm^3
# Si number density = 20.900378 Si / 1000 Ang^3
#
#
#
# Elastic Constant Matrix: (Units=GPa)
#
#
# Indices 1 2 3 4 5 6 
#
# 1 76.0678 21.9923 54.2761 1.9805 0.0000 0.0000
# 2 21.9923 76.0678 54.2761 -1.9805 0.0000 0.0000
# 3 54.2761 54.2761 212.0735 0.0000 0.0000 0.0000
# 4 1.9805 -1.9805 0.0000 27.1108 0.0000 0.0000
# 5 0.0000 0.0000 0.0000 0.0000 27.1108 1.9805
# 6 0.0000 0.0000 0.0000 0.0000 1.9805 27.0378
#
#
#
# Elastic Compliance Matrix: (Units=1/GPa)
#
#
# Indices 1 2 3 4 5 6 
#
# 1 0.016411 -0.002181 -0.003642 -0.001358 0.000000 0.000000
# 2 -0.002181 0.016411 -0.003642 0.001358 0.000000 0.000000
# 3 -0.003642 -0.003642 0.006579 0.000000 0.000000 0.000000
# 4 -0.001358 0.001358 0.000000 0.037084 0.000000 0.000000
# 5 0.000000 0.000000 0.000000 0.000000 0.037084 -0.002716
# 6 0.000000 0.000000 0.000000 0.000000 -0.002716 0.037184
#
#
# Mechanical properties :
#
#
# Convention : Reuss Voigt Hill
#
# Bulk Modulus (GPa) = 48.84962 69.47755 59.16359
# Shear Modulus (GPa) = 28.32755 31.82950 30.07852
#
# Velocity S-wave (km/s) = 3.68552 3.90669 3.79771
# Velocity P-wave (km/s) = 6.44469 7.32557 6.89921
#
# Compressibility (1/GPa) = 0.02047099
#
# Stress axis : x y z
#
# Youngs Moduli (GPa) = 60.93604 60.93604 151.99010
#
# Poissons Ratio (x) = 0.13293 0.55350
# Poissons Ratio (y) = 0.13293 0.55350
# Poissons Ratio (z) = 0.22191 0.22191
#
# Static dielectric constant tensor:
#      x y z
#    x 3.522140 0.000000 0.000000 
#    y 0.000000 3.522140 0.000000 
#    z 0.000000 0.000000 3.701780 
# 
# 
# High freq. dielectric constant tensor:
#      x y z
#    x 1.805760 0.000000 0.000000 
#    y 0.000000 1.805760 0.000000 
#    z 0.000000 0.000000 1.828540 
# 
# From -- ./inp_files/1159.got.cif
#   From: 2010.03.12/outbox.cif.g09.slc.cpg/sg150_cif.got.tgz:1159.got - 2010.04.03 13:41:37.
