data_PCOD8321690
_publ_section_title
;
Structure prediction by ZEFSAII (Michael W. Deem and Ramdas Pophale) SiO2 
 PCOD8321690
Probable space group: R -3
;
_chemical_formula_sum "Si O2"
_cell_formula_units_Z 126
_cell_length_a 17.635394
_cell_length_b 17.635394
_cell_length_c 25.346509
_cell_angle_alpha 90.000000
_cell_angle_beta 90.000000
_cell_angle_gamma 120.000000
_cell_volume 6826.830458
_symmetry_space_group_name_H-M "R -3"
_symmetry_group_IT_number 148
_symmetry_cell_setting 'hexagonal'
loop_
_space_group_symop_operation_xyz
x,y,z
-y,x-y,z
-x+y,-x,z
-x,-y,-z
y,-x+y,-z
x-y,x,-z
2/3+x,1/3+y,1/3+z
2/3-y,1/3+x-y,1/3+z
2/3-x+y,1/3-x,1/3+z
2/3-x,1/3-y,1/3-z
2/3+y,1/3-x+y,1/3-z
2/3+x-y,1/3+x,1/3-z
1/3+x,2/3+y,2/3+z
1/3-y,2/3+x-y,2/3+z
1/3-x+y,2/3-x,2/3+z
1/3-x,2/3-y,2/3-z
1/3+y,2/3-x+y,2/3-z
1/3+x-y,2/3+x,2/3-z
loop_
_atom_site_type_symbol
_atom_site_label
_atom_site_fract_x
_atom_site_fract_y
_atom_site_fract_z
Si Si1 0.176293 0.001989 0.302216
Si Si2 0.176293 0.174304 0.302216
Si Si3 0.583289 0.995863 0.438622
Si Si4 0.567912 0.962584 0.267124
Si Si5 0.962584 0.567912 0.732876
Si Si6 0.083378 0.745908 0.894711
Si Si7 0.333333 0.841769 0.166667
O O1 0.094064 0.905936 0.299890
O O2 0.144477 0.072238 0.312444
O O3 0.228352 0.021522 0.247015
O O4 0.241071 0.007890 0.348716
O O5 0.241071 0.233181 0.348716
O O6 0.228352 0.206830 0.247015
O O7 0.605102 1.000000 0.500000
O O8 0.671581 0.055442 0.405546
O O9 0.515302 0.030605 0.427406
O O10 0.496438 0.992877 0.272794
O O11 0.551996 0.902847 0.216535
O O12 0.661753 0.050528 0.261121
O O13 0.902847 0.551996 0.783465
O O14 0.414592 0.829185 0.152882
#
# Coordination Sequence:
#
# PCOD8321690 Si02
#       7
#    18  18  18  18  18  18  18
#     4  10  21  36  57  84 115 149 184 224 274 334
#     4  10  21  36  57  84 115 149 184 224 274 334
#     4  10  21  37  54  75 104 141 187 239 286 323
#     4  10  20  34  53  79 110 145 184 227 277 335
#     4  10  20  34  53  79 110 145 184 227 277 335
#     4  10  21  37  54  75 104 141 187 239 286 323
#     4  10  19  30  47  74 112 152 186 220 263 324
#
# _framework density 18.456589000000001
#
# number of rings (size 3 to 8) (size 9 to 14) (size 15 to 20)
#    0.000    2.000    1.429    2.143    0.000    4.571 
#    0.000    2.857    0.000    0.571    0.000    0.000 
#    0.000    6.857    0.000    0.000    0.000    0.000 
#
# Total GULP energy -520832.431393 kJ/mol
# GULP energy per Si atom -12400.772176 kJ/mol
# Density = 1.841458 g / cm^3
# Si number density = 18.456589 Si / 1000 Ang^3
#
#
#
# Elastic Constant Matrix: (Units=GPa)
#
#
# Indices 1 2 3 4 5 6 
#
# 1 111.2401 65.0961 42.1908 1.0497 0.0000 0.0000
# 2 65.0961 111.2401 42.1908 -1.0497 0.0000 0.0000
# 3 42.1908 42.1908 108.6701 0.0000 0.0000 0.0000
# 4 1.0497 -1.0497 0.0000 24.0891 0.0000 0.0000
# 5 0.0000 0.0000 0.0000 0.0000 24.0891 1.0497
# 6 0.0000 0.0000 0.0000 0.0000 1.0497 23.0720
#
#
#
# Elastic Compliance Matrix: (Units=1/GPa)
#
#
# Indices 1 2 3 4 5 6 
#
# 1 0.014340 -0.007375 -0.002704 -0.000946 0.000000 0.000000
# 2 -0.007375 0.014340 -0.002704 0.000946 0.000000 0.000000
# 3 -0.002704 -0.002704 0.011302 0.000000 0.000000 0.000000
# 4 -0.000946 0.000946 0.000000 0.041595 0.000000 0.000000
# 5 0.000000 0.000000 0.000000 0.000000 0.041595 -0.001893
# 6 0.000000 0.000000 0.000000 0.000000 -0.001893 0.043429
#
#
# Mechanical properties :
#
#
# Convention : Reuss Voigt Hill
#
# Bulk Modulus (GPa) = 69.37053 70.01175 69.69114
# Shear Modulus (GPa) = 25.38446 26.36156 25.87301
#
# Velocity S-wave (km/s) = 3.71261 3.78339 3.74816
# Velocity P-wave (km/s) = 7.48634 7.55651 7.52151
#
# Compressibility (1/GPa) = 0.01441534
#
# Stress axis : x y z
#
# Youngs Moduli (GPa) = 69.73663 69.73663 88.48069
#
# Poissons Ratio (x) = 0.51429 0.23926
# Poissons Ratio (y) = 0.51429 0.23926
# Poissons Ratio (z) = 0.18858 0.18858
#
# Static dielectric constant tensor:
#      x y z
#    x 3.399300 0.000000 0.000000 
#    y 0.000000 3.399300 0.000000 
#    z 0.000000 0.000000 3.586260 
# 
# 
# High freq. dielectric constant tensor:
#      x y z
#    x 1.709340 0.000000 0.000000 
#    y 0.000000 1.709340 0.000000 
#    z 0.000000 0.000000 1.728680 
# 
# From -- ./inp_files/3445.got.cif
#   From: 2010.03.12/outbox.cif.g09.slc.cpg/sg148_2_cif.got.tgz:3445.got - 2010.04.03 13:38:46.
