data_PCOD8321176
_publ_section_title
;
Structure prediction by ZEFSAII (Michael W. Deem and Ramdas Pophale) SiO2 
 PCOD8321176
Probable space group: I 41/A C D
;
_chemical_formula_sum "Si O2"
_cell_formula_units_Z 216
_cell_length_a 27.986626
_cell_length_b 27.986626
_cell_length_c 12.809440
_cell_angle_alpha 90.000000
_cell_angle_beta 90.000000
_cell_angle_gamma 90.000000
_cell_volume 10033.009698
_symmetry_space_group_name_H-M "I 41/A C D"
_symmetry_group_IT_number 142
_space_group.IT_coordinate_system_code '2'
_symmetry_cell_setting 'tetragonal'
loop_
_space_group_symop_operation_xyz
x,y,z
1/4-y,3/4+x,1/4+z
-x,1/2-y,z
1/4+y,1/4-x,3/4+z
x,-y,1/2-z
1/2-x,y,-z
3/4+y,1/4+x,1/4-z
1/4-y,1/4-x,1/4-z
-x,-y,-z
3/4+y,1/4-x,3/4-z
x,1/2+y,-z
3/4-y,3/4+x,1/4-z
-x,y,1/2+z
1/2+x,-y,z
1/4-y,3/4-x,3/4+z
3/4+y,3/4+x,3/4+z
1/2+x,1/2+y,1/2+z
3/4-y,1/4+x,3/4+z
1/2-x,-y,1/2+z
3/4+y,3/4-x,1/4+z
1/2+x,1/2-y,-z
-x,1/2+y,1/2-z
1/4+y,3/4+x,3/4-z
3/4-y,3/4-x,3/4-z
1/2-x,1/2-y,1/2-z
1/4+y,3/4-x,1/4-z
1/2+x,y,1/2-z
1/4-y,1/4+x,3/4-z
1/2-x,1/2+y,z
x,1/2-y,1/2+z
3/4-y,1/4-x,1/4+z
1/4+y,1/4+x,1/4+z
loop_
_atom_site_type_symbol
_atom_site_label
_atom_site_fract_x
_atom_site_fract_y
_atom_site_fract_z
Si Si1 0.580053 0.217978 0.780324
Si Si2 0.288890 0.038890 0.375000
Si Si3 0.500000 0.250000 0.125000
Si Si4 0.366505 0.156910 0.132226
Si Si5 0.535487 0.970932 0.354734
Si Si6 0.276933 0.316761 0.202546
Si Si7 0.338091 0.550317 0.841880
Si Si8 0.878406 0.317922 0.210978
O O1 0.548960 0.201041 0.875000
O O2 0.545148 0.233049 0.689410
O O3 0.616958 0.176113 0.745748
O O4 0.608646 0.264166 0.819848
O O5 0.326142 0.048855 0.281418
O O6 0.232262 0.047716 0.347926
O O7 0.332807 0.197209 0.080559
O O8 0.338653 0.106137 0.129163
O O9 0.415764 0.153202 0.068502
O O10 0.479282 0.972888 0.377787
O O11 0.547328 0.000000 0.250000
O O12 0.564716 0.984954 0.460790
O O13 0.275129 0.361616 0.123591
O O14 0.322010 0.319747 0.278296
O O15 0.893987 0.356014 0.125000
#
# Coordination Sequence:
#
# PCOD8321176 Si02
#       8
#    32  16   8  32  32  32  32  32
#     4  12  25  40  63  97 136 188 235 285 345 408
#     4  10  22  44  72 106 128 173 232 298 380 435
#     4  12  22  44  60  94 140 180 250 288 332 414
#     4  11  24  44  65  99 138 176 235 288 351 431
#     4  11  23  43  68 100 136 191 233 297 368 444
#     4  10  23  43  66 102 143 177 241 299 363 443
#     4  10  23  44  72 101 140 177 228 305 366 444
#     4  11  22  42  65  92 134 185 231 290 348 413
#
# _framework density 21.528934
#
# number of rings (size 3 to 8) (size 9 to 14) (size 15 to 20)
#    0.000    1.185    2.963    2.889    3.111    0.000 
#    8.000    0.000   16.296    0.000    0.000    0.000 
#    0.000    0.000    0.000    0.000    0.000    0.000 
#
# Total GULP energy -1338360.385434 kJ/mol
# GULP energy per Si atom -12392.225791 kJ/mol
# Density = 2.147993 g / cm^3
# Si number density = 21.528934 Si / 1000 Ang^3
#
#
#
# Elastic Constant Matrix: (Units=GPa)
#
#
# Indices 1 2 3 4 5 6 
#
# 1 54.4666 55.3415 10.6294 0.0000 0.0000 0.0000
# 2 55.3415 54.4548 10.6101 0.0000 0.0000 0.0000
# 3 10.6294 10.6101 57.9594 0.0000 0.0000 0.0000
# 4 0.0000 0.0000 0.0000 32.1712 0.0000 0.0000
# 5 0.0000 0.0000 0.0000 0.0000 32.1762 0.0000
# 6 0.0000 0.0000 0.0000 0.0000 0.0000 40.6963
#
#
#
# Elastic Compliance Matrix: (Units=1/GPa)
#
#
# Indices 1 2 3 4 5 6 
#
# 1 -0.562928 0.572395 -0.001545 0.000000 0.000000 0.000000
# 2 0.572395 -0.562979 -0.001915 0.000000 0.000000 0.000000
# 3 -0.001545 -0.001915 0.017887 0.000000 0.000000 0.000000
# 4 0.000000 0.000000 0.000000 0.031084 0.000000 0.000000
# 5 0.000000 0.000000 0.000000 0.000000 0.031079 0.000000
# 6 0.000000 0.000000 0.000000 0.000000 0.000000 0.024572
#
#
# Mechanical properties :
#
#
# Convention : Reuss Voigt Hill
#
# Bulk Modulus (GPa) = 33.49958 35.56032 34.52995
# Shear Modulus (GPa) = -2.32644 27.02875 12.35115
#
# Velocity S-wave (km/s) = -1.04065 3.54709 2.39780
# Velocity P-wave (km/s) = 3.76166 5.77314 4.87233
#
# Compressibility (1/GPa) = 0.02985112
#
# Stress axis : x y z
#
# Youngs Moduli (GPa) = -1.77643 -1.77627 55.90541
#
# Poissons Ratio (x) = 1.01673 0.08640
# Poissons Ratio (y) = 1.01682 0.10704
# Poissons Ratio (z) = -0.00275 -0.00340
#
# Static dielectric constant tensor:
#      x y z
#    x 4.066240 0.000000 0.000000 
#    y 0.000000 4.066260 0.000000 
#    z 0.000000 0.000000 3.687070 
# 
# 
# High freq. dielectric constant tensor:
#      x y z
#    x 1.852040 0.000000 0.000000 
#    y 0.000000 1.852040 0.000000 
#    z 0.000000 0.000000 1.836950 
# 
# From -- ./inp_files/4236.got.cif
#   From: 2010.03.12/outbox.cif.g09.slc.cpg/sg142_3_cif.got.tgz:4236.got - 2010.04.03 13:27:16.
