data_PCOD8321996
_publ_section_title
;
Structure prediction by ZEFSAII (Michael W. Deem and Ramdas Pophale) SiO2 
 PCOD8321996
Probable space group: P 31 1 2
;
_chemical_formula_sum "Si O2"
_cell_formula_units_Z 36
_cell_length_a 27.605097
_cell_length_b 27.605097
_cell_length_c 5.170932
_cell_angle_alpha 90.000000
_cell_angle_beta 90.000000
_cell_angle_gamma 120.000000
_cell_volume 3412.542065
_symmetry_space_group_name_H-M "P 31 1 2"
_symmetry_group_IT_number 151
_symmetry_cell_setting 'hexagonal'
loop_
_space_group_symop_operation_xyz
x,y,z
-y,x-y,1/3+z
-x+y,-x,2/3+z
-y,-x,2/3-z
-x+y,y,1/3-z
x,x-y,-z
loop_
_atom_site_type_symbol
_atom_site_label
_atom_site_fract_x
_atom_site_fract_y
_atom_site_fract_z
Si Si1 0.253889 0.682952 0.070679
Si Si2 0.379951 0.505753 0.345605
Si Si3 0.410407 0.473860 0.837995
Si Si4 0.473860 0.410407 0.828673
Si Si5 0.682952 0.253889 0.595988
Si Si6 0.505753 0.379951 0.321063
O O1 0.287194 0.712807 0.333334
O O2 0.189220 0.665246 0.083394
O O3 0.275080 0.724921 0.833334
O O4 0.262585 0.631293 0.000000
O O5 0.440359 0.559642 0.333334
O O6 0.375625 0.465680 0.578386
O O7 0.371659 0.471859 0.078716
O O8 0.467539 0.532462 0.833334
O O9 0.423059 0.423059 0.833334
O O10 0.532462 0.467539 0.833334
O O11 0.471859 0.371659 0.587952
O O12 0.465680 0.375625 0.088282
O O13 0.712807 0.287194 0.333334
O O14 0.631293 0.262585 0.666667
O O15 0.665246 0.189219 0.583274
O O16 0.724921 0.275080 0.833334
O O17 0.559642 0.440359 0.333334
#
# Coordination Sequence:
#
# PCOD8321996 Si02
#       6
#     6   6   6   6   6   6
#     4  11  20  29  38  47  60  79 102 124 143 161
#     4   9  17  26  35  48  62  74  91 114 136 162
#     4   9  15  24  37  50  62  74  86 104 135 171
#     4   9  15  24  37  50  62  74  86 104 135 171
#     4  11  20  29  38  47  60  79 102 124 143 161
#     4   9  17  26  35  48  62  74  91 114 136 162
#
# _framework density 10.549321000000001
#
# number of rings (size 3 to 8) (size 9 to 14) (size 15 to 20)
#    0.000    2.333    0.000    5.000    0.000    9.333 
#    0.000    0.000    0.000    0.000    0.000    0.000 
#    0.000    0.000    0.000    0.000    0.000    0.000 
#
# Total GULP energy -446076.451871 kJ/mol
# GULP energy per Si atom -12391.012552 kJ/mol
# Density = 1.052531 g / cm^3
# Si number density = 10.549321 Si / 1000 Ang^3
#
#
#
# Elastic Constant Matrix: (Units=GPa)
#
#
# Indices 1 2 3 4 5 6 
#
# 1 42.8107 28.7882 34.6808 -0.0009 0.0020 0.0000
# 2 28.7882 42.8107 34.6808 0.0009 -0.0020 0.0000
# 3 34.6808 34.6808 109.5064 0.0000 0.0000 0.0000
# 4 -0.0009 0.0009 0.0000 22.2815 0.0000 -0.0020
# 5 0.0020 -0.0020 0.0000 0.0000 22.2815 -0.0009
# 6 0.0000 0.0000 0.0000 -0.0020 -0.0009 7.0113
#
#
#
# Elastic Compliance Matrix: (Units=1/GPa)
#
#
# Indices 1 2 3 4 5 6 
#
# 1 0.045731 -0.025583 -0.006381 0.000003 -0.000006 0.000000
# 2 -0.025583 0.045731 -0.006381 -0.000003 0.000006 0.000000
# 3 -0.006381 -0.006381 0.013174 0.000000 0.000000 0.000000
# 4 0.000003 -0.000003 0.000000 0.044880 0.000000 0.000013
# 5 -0.000006 0.000006 0.000000 0.000000 0.044880 0.000006
# 6 0.000000 0.000000 0.000000 0.000013 0.000006 0.142628
#
#
# Mechanical properties :
#
#
# Convention : Reuss Voigt Hill
#
# Bulk Modulus (GPa) = 35.78298 43.49193 39.63746
# Shear Modulus (GPa) = 11.81951 16.78004 14.29978
#
# Velocity S-wave (km/s) = 3.35088 3.99259 3.68573
# Velocity P-wave (km/s) = 6.99746 7.91019 7.46779
#
# Compressibility (1/GPa) = 0.02794625
#
# Stress axis : x y z
#
# Youngs Moduli (GPa) = 21.86696 21.86696 75.90924
#
# Poissons Ratio (x) = 0.55942 0.48438
# Poissons Ratio (y) = 0.55942 0.48438
# Poissons Ratio (z) = 0.13953 0.13953
#
# Static dielectric constant tensor:
#      x y z
#    x 1.944880 0.000000 0.000000 
#    y 0.000000 1.944880 0.000000 
#    z 0.000000 0.000000 2.575730 
# 
# 
# High freq. dielectric constant tensor:
#      x y z
#    x 1.358950 0.000000 0.000000 
#    y 0.000000 1.358950 0.000000 
#    z 0.000000 0.000000 1.424280 
# 
# From -- ./inp_files/845.got.cif
#   From: 2010.03.12/outbox.cif.g09.slc.cpg/sg151_1_cif.got.tgz:845.got - 2010.04.03 13:42:29.
