data_PCOD8321698
_publ_section_title
;
Structure prediction by ZEFSAII (Michael W. Deem and Ramdas Pophale) SiO2 
 PCOD8321698
Probable space group: R -3
;
_chemical_formula_sum "Si O2"
_cell_formula_units_Z 108
_cell_length_a 17.495624
_cell_length_b 17.495624
_cell_length_c 20.924083
_cell_angle_alpha 90.000000
_cell_angle_beta 90.000000
_cell_angle_gamma 120.000000
_cell_volume 5546.716117
_symmetry_space_group_name_H-M "R -3"
_symmetry_group_IT_number 148
_symmetry_cell_setting 'hexagonal'
loop_
_space_group_symop_operation_xyz
x,y,z
-y,x-y,z
-x+y,-x,z
-x,-y,-z
y,-x+y,-z
x-y,x,-z
2/3+x,1/3+y,1/3+z
2/3-y,1/3+x-y,1/3+z
2/3-x+y,1/3-x,1/3+z
2/3-x,1/3-y,1/3-z
2/3+y,1/3-x+y,1/3-z
2/3+x-y,1/3+x,1/3-z
1/3+x,2/3+y,2/3+z
1/3-y,2/3+x-y,2/3+z
1/3-x+y,2/3-x,2/3+z
1/3-x,2/3-y,2/3-z
1/3+y,2/3-x+y,2/3-z
1/3+x-y,2/3+x,2/3-z
loop_
_atom_site_type_symbol
_atom_site_label
_atom_site_fract_x
_atom_site_fract_y
_atom_site_fract_z
Si Si1 0.945339 0.829353 0.535349
Si Si2 0.255546 0.343599 0.623627
Si Si3 0.046159 0.718745 0.190262
Si Si4 0.077907 0.341127 0.620396
Si Si5 0.661510 0.510782 0.044458
Si Si6 0.845981 0.996360 0.671885
O O1 0.867007 0.848679 0.520820
O O2 0.905886 0.723691 0.537514
O O3 0.992900 0.879221 0.600677
O O4 0.291576 0.337279 0.554242
O O5 0.177654 0.363324 0.611787
O O6 0.333464 0.418084 0.666544
O O7 0.225837 0.255269 0.665235
O O8 0.026023 0.708420 0.115061
O O9 0.008002 0.776758 0.222748
O O10 0.015728 0.244442 0.651557
O O11 0.565791 0.424187 0.039170
O O12 0.734994 0.480485 0.045472
#
# Coordination Sequence:
#
# PCOD8321698 Si02
#       6
#    18  18  18  18  18  18
#     4  11  20  30  50  80 109 142 177 212 265 321
#     4   9  21  35  55  80 107 143 178 218 270 310
#     4  10  20  34  54  78 105 140 178 220 262 313
#     4  10  20  39  56  79 110 139 181 222 261 319
#     4  10  21  35  53  78 110 143 179 214 266 321
#     4  10  19  33  50  75 111 144 170 218 265 314
#
# _framework density 19.470980000000001
#
# number of rings (size 3 to 8) (size 9 to 14) (size 15 to 20)
#    0.000    2.000    0.000    5.500    0.000   10.000 
#    0.000    9.167    0.000    0.333    0.000    0.000 
#    0.000    0.000    0.000    0.000    0.000    0.000 
#
# Total GULP energy -446314.931546 kJ/mol
# GULP energy per Si atom -12397.636987 kJ/mol
# Density = 1.942666 g / cm^3
# Si number density = 19.470980 Si / 1000 Ang^3
#
#
#
# Elastic Constant Matrix: (Units=GPa)
#
#
# Indices 1 2 3 4 5 6 
#
# 1 68.0673 34.6265 41.6151 4.1086 -0.7732 0.0000
# 2 34.6265 68.0673 41.6151 -4.1086 0.7732 0.0000
# 3 41.6151 41.6151 114.4720 0.0000 0.0000 0.0000
# 4 4.1086 -4.1086 0.0000 21.2442 0.0000 0.7732
# 5 -0.7732 0.7732 0.0000 0.0000 21.2442 4.1086
# 6 0.0000 0.0000 0.0000 0.7732 4.1086 16.7204
#
#
#
# Elastic Compliance Matrix: (Units=1/GPa)
#
#
# Indices 1 2 3 4 5 6 
#
# 1 0.022628 -0.008823 -0.005019 -0.006083 0.001145 0.000000
# 2 -0.008823 0.022628 -0.005019 0.006083 -0.001145 0.000000
# 3 -0.005019 -0.005019 0.012385 0.000000 0.000000 0.000000
# 4 -0.006083 0.006083 0.000000 0.049508 0.000000 -0.002290
# 5 0.001145 -0.001145 0.000000 0.000000 0.049508 -0.012165
# 6 0.000000 0.000000 0.000000 -0.002290 -0.012165 0.062902
#
#
# Mechanical properties :
#
#
# Convention : Reuss Voigt Hill
#
# Bulk Modulus (GPa) = 50.20015 54.03554 52.11784
# Shear Modulus (GPa) = 18.94511 20.69175 19.81843
#
# Velocity S-wave (km/s) = 3.12267 3.26344 3.19383
# Velocity P-wave (km/s) = 6.23213 6.48168 6.35813
#
# Compressibility (1/GPa) = 0.01992026
#
# Stress axis : x y z
#
# Youngs Moduli (GPa) = 44.19257 44.19257 80.74422
#
# Poissons Ratio (x) = 0.38991 0.40523
# Poissons Ratio (y) = 0.38991 0.40523
# Poissons Ratio (z) = 0.22179 0.22179
#
# Static dielectric constant tensor:
#      x y z
#    x 3.465670 0.000000 0.000000 
#    y 0.000000 3.465670 0.000000 
#    z 0.000000 0.000000 3.445110 
# 
# 
# High freq. dielectric constant tensor:
#      x y z
#    x 1.742930 0.000000 0.000000 
#    y 0.000000 1.742930 0.000000 
#    z 0.000000 0.000000 1.744910 
# 
# From -- ./inp_files/3100.got.cif
#   From: 2010.03.12/outbox.cif.g09.slc.cpg/sg148_2_cif.got.tgz:3100.got - 2010.04.03 13:38:46.
