data_PCOD8321686
_publ_section_title
;
Structure prediction by ZEFSAII (Michael W. Deem and Ramdas Pophale) SiO2 
 PCOD8321686
Probable space group: R -3
;
_chemical_formula_sum "Si O2"
_cell_formula_units_Z 126
_cell_length_a 27.084034
_cell_length_b 27.084034
_cell_length_c 11.865957
_cell_angle_alpha 90.000000
_cell_angle_beta 90.000000
_cell_angle_gamma 120.000000
_cell_volume 7538.068897
_symmetry_space_group_name_H-M "R -3"
_symmetry_group_IT_number 148
_symmetry_cell_setting 'hexagonal'
loop_
_space_group_symop_operation_xyz
x,y,z
-y,x-y,z
-x+y,-x,z
-x,-y,-z
y,-x+y,-z
x-y,x,-z
2/3+x,1/3+y,1/3+z
2/3-y,1/3+x-y,1/3+z
2/3-x+y,1/3-x,1/3+z
2/3-x,1/3-y,1/3-z
2/3+y,1/3-x+y,1/3-z
2/3+x-y,1/3+x,1/3-z
1/3+x,2/3+y,2/3+z
1/3-y,2/3+x-y,2/3+z
1/3-x+y,2/3-x,2/3+z
1/3-x,2/3-y,2/3-z
1/3+y,2/3-x+y,2/3-z
1/3+x-y,2/3+x,2/3-z
loop_
_atom_site_type_symbol
_atom_site_label
_atom_site_fract_x
_atom_site_fract_y
_atom_site_fract_z
Si Si1 0.406745 0.990392 0.421905
Si Si2 0.332700 0.421828 0.096134
Si Si3 0.185728 0.947477 0.952318
Si Si4 0.158761 0.239163 0.022445
Si Si5 0.256773 0.392403 0.293636
Si Si6 0.040485 0.300251 0.156139
Si Si7 0.756100 0.157929 0.609510
O O1 0.376504 0.968873 0.302150
O O2 0.398839 0.937164 0.498015
O O3 0.471141 0.037189 0.386130
O O4 0.377073 0.020720 0.484985
O O5 0.297297 0.432636 0.193121
O O6 0.383035 0.416550 0.156595
O O7 0.362031 0.473013 0.003561
O O8 0.198060 0.011875 0.974641
O O9 0.117492 0.904622 0.968392
O O10 0.222429 0.935998 0.043780
O O11 0.149962 0.248170 0.152645
O O12 0.292109 0.405922 0.409365
O O13 0.204218 0.402825 0.305829
O O14 0.232801 0.326038 0.264828
#
# Coordination Sequence:
#
# PCOD8321686 Si02
#       7
#    18  18  18  18  18  18  18
#     4  11  20  31  50  78 108 140 176 212 253 303
#     4  11  19  30  50  73 102 140 180 214 247 301
#     4  11  22  36  52  77 107 137 180 220 263 313
#     4  11  21  37  53  75 105 143 174 217 267 305
#     4  10  19  32  47  72  97 136 180 213 250 301
#     4  10  19  29  50  72 106 141 179 211 249 303
#     4  10  19  33  50  68 100 140 173 214 257 302
#
# _framework density 16.715157000000001
#
# number of rings (size 3 to 8) (size 9 to 14) (size 15 to 20)
#    0.000    1.429    4.286    4.714    0.000    0.000 
#    0.000    1.429    0.000    0.286    0.000    0.000 
#    0.000    0.000    0.000    1.714    0.000    0.000 
#
# Total GULP energy -520428.212386 kJ/mol
# GULP energy per Si atom -12391.147914 kJ/mol
# Density = 1.667711 g / cm^3
# Si number density = 16.715157 Si / 1000 Ang^3
#
#
#
# Elastic Constant Matrix: (Units=GPa)
#
#
# Indices 1 2 3 4 5 6 
#
# 1 66.9024 30.2486 27.0105 -3.9870 0.2464 0.0001
# 2 30.2486 66.9021 27.0099 3.9869 -0.2440 -0.0002
# 3 27.0105 27.0099 87.4534 0.0007 0.0102 -0.0010
# 4 -3.9870 3.9869 0.0007 22.6925 0.0000 -0.2451
# 5 0.2464 -0.2440 0.0102 0.0000 22.6965 -3.9870
# 6 0.0001 -0.0002 -0.0010 -0.2451 -3.9870 18.3262
#
#
#
# Elastic Compliance Matrix: (Units=1/GPa)
#
#
# Indices 1 2 3 4 5 6 
#
# 1 0.020399 -0.007972 -0.003838 0.004985 -0.000305 0.000000
# 2 -0.007972 0.020399 -0.003838 -0.004984 0.000308 0.000000
# 3 -0.003838 -0.003838 0.013806 0.000000 -0.000006 -0.000001
# 4 0.004985 -0.004984 0.000000 0.045826 0.000000 0.000613
# 5 -0.000305 0.000308 -0.000006 0.000000 0.045817 0.009968
# 6 0.000000 0.000000 -0.000001 0.000613 0.009968 0.056744
#
#
# Mechanical properties :
#
#
# Convention : Reuss Voigt Hill
#
# Bulk Modulus (GPa) = 42.90456 43.31065 43.10761
# Shear Modulus (GPa) = 20.65637 21.87563 21.26600
#
# Velocity S-wave (km/s) = 3.51919 3.62156 3.57074
# Velocity P-wave (km/s) = 6.49898 6.59203 6.54567
#
# Compressibility (1/GPa) = 0.02330755
#
# Stress axis : x y z
#
# Youngs Moduli (GPa) = 49.02144 49.02156 72.43445
#
# Poissons Ratio (x) = 0.39078 0.27803
# Poissons Ratio (y) = 0.39078 0.27801
# Poissons Ratio (z) = 0.18816 0.18815
#
# Static dielectric constant tensor:
#      x y z
#    x 2.922010 0.000000 -0.000010 
#    y 0.000000 2.922020 0.000000 
#    z -0.000010 0.000000 3.377420 
# 
# 
# High freq. dielectric constant tensor:
#      x y z
#    x 1.608300 0.000000 0.000000 
#    y 0.000000 1.608300 0.000000 
#    z 0.000000 0.000000 1.668180 
# 
# From -- ./inp_files/1587.got.cif
#   From: 2010.03.12/outbox.cif.g09.slc.cpg/sg148_1_cif.got.tgz:1587.got - 2010.04.03 13:38:46.
