data_PCOD8321775
_publ_section_title
;
Structure prediction by ZEFSAII (Michael W. Deem and Ramdas Pophale) SiO2 
 PCOD8321775
Probable space group: R -3
;
_chemical_formula_sum "Si O2"
_cell_formula_units_Z 72
_cell_length_a 11.202739
_cell_length_b 11.202739
_cell_length_c 29.561175
_cell_angle_alpha 90.000000
_cell_angle_beta 90.000000
_cell_angle_gamma 120.000000
_cell_volume 3212.926274
_symmetry_space_group_name_H-M "R -3"
_symmetry_group_IT_number 148
_symmetry_cell_setting 'hexagonal'
loop_
_space_group_symop_operation_xyz
x,y,z
-y,x-y,z
-x+y,-x,z
-x,-y,-z
y,-x+y,-z
x-y,x,-z
2/3+x,1/3+y,1/3+z
2/3-y,1/3+x-y,1/3+z
2/3-x+y,1/3-x,1/3+z
2/3-x,1/3-y,1/3-z
2/3+y,1/3-x+y,1/3-z
2/3+x-y,1/3+x,1/3-z
1/3+x,2/3+y,2/3+z
1/3-y,2/3+x-y,2/3+z
1/3-x+y,2/3-x,2/3+z
1/3-x,2/3-y,2/3-z
1/3+y,2/3-x+y,2/3-z
1/3+x-y,2/3+x,2/3-z
loop_
_atom_site_type_symbol
_atom_site_label
_atom_site_fract_x
_atom_site_fract_y
_atom_site_fract_z
Si Si1 0.709477 0.093941 0.468183
Si Si2 0.629857 0.722897 0.676245
Si Si3 0.335067 0.820420 0.267535
Si Si4 0.624628 0.581854 0.444618
O O1 0.770923 0.007147 0.444137
O O2 0.556989 0.036947 0.449352
O O3 0.803438 0.254956 0.457214
O O4 0.700714 0.067294 0.522146
O O5 0.504423 0.586353 0.655272
O O6 0.765222 0.769812 0.646015
O O7 0.663015 0.694377 0.726783
O O8 0.198432 0.669563 0.267419
#
# Coordination Sequence:
#
# PCOD8321775 Si02
#       4
#    18  18  18  18
#     4  11  24  45  69 100 143 183 245 290 349 416
#     4  12  22  43  74 106 140 184 235 293 353 419
#     4  10  25  45  67 106 139 190 235 284 349 432
#     4  11  24  43  70 106 136 191 232 299 350 416
#
# _framework density 22.409479999999999
#
# number of rings (size 3 to 8) (size 9 to 14) (size 15 to 20)
#    0.500    0.500    5.000    0.750    3.500    1.000 
#    9.000    1.250    0.000    0.000    0.000    0.000 
#    0.000    0.000    0.000    0.000    0.000    0.000 
#
# Total GULP energy -297628.045656 kJ/mol
# GULP energy per Si atom -12401.168569 kJ/mol
# Density = 2.235848 g / cm^3
# Si number density = 22.409480 Si / 1000 Ang^3
#
#
#
# Elastic Constant Matrix: (Units=GPa)
#
#
# Indices 1 2 3 4 5 6 
#
# 1 78.6526 4.2322 54.5803 0.1875 0.9927 0.0000
# 2 4.2322 78.6526 54.5803 -0.1875 -0.9927 0.0000
# 3 54.5803 54.5803 204.8552 0.0000 0.0000 0.0000
# 4 0.1875 -0.1875 0.0000 38.4108 0.0000 -0.9927
# 5 0.9927 -0.9927 0.0000 0.0000 38.4108 0.1875
# 6 0.0000 0.0000 0.0000 -0.9927 0.1875 37.2102
#
#
#
# Elastic Compliance Matrix: (Units=1/GPa)
#
#
# Indices 1 2 3 4 5 6 
#
# 1 0.016017 0.002570 -0.004952 -0.000066 -0.000348 0.000000
# 2 0.002570 0.016017 -0.004952 0.000066 0.000348 0.000000
# 3 -0.004952 -0.004952 0.007520 0.000000 0.000000 0.000000
# 4 -0.000066 0.000066 0.000000 0.026053 0.000000 0.000695
# 5 -0.000348 0.000348 0.000000 0.000000 0.026053 -0.000131
# 6 0.000000 0.000000 0.000000 0.000695 -0.000131 0.026894
#
#
# Mechanical properties :
#
#
# Convention : Reuss Voigt Hill
#
# Bulk Modulus (GPa) = 40.18377 65.43842 52.81110
# Shear Modulus (GPa) = 35.33130 39.39084 37.36107
#
# Velocity S-wave (km/s) = 3.97498 4.19713 4.08756
# Velocity P-wave (km/s) = 6.24802 7.26309 6.77460
#
# Compressibility (1/GPa) = 0.02488567
#
# Stress axis : x y z
#
# Youngs Moduli (GPa) = 62.43390 62.43390 132.97221
#
# Poissons Ratio (x) = -0.16046 0.65851
# Poissons Ratio (y) = -0.16046 0.65851
# Poissons Ratio (z) = 0.30919 0.30919
#
# Static dielectric constant tensor:
#      x y z
#    x 3.897830 0.000000 0.000000 
#    y 0.000000 3.897830 0.000000 
#    z 0.000000 0.000000 4.186170 
# 
# 
# High freq. dielectric constant tensor:
#      x y z
#    x 1.882370 0.000000 0.000000 
#    y 0.000000 1.882370 0.000000 
#    z 0.000000 0.000000 1.894230 
# 
# From -- ./inp_files/3898.got.cif
#   From: 2010.03.12/outbox.cif.g09.slc.cpg/sg148_2_cif.got.tgz:3898.got - 2010.04.03 13:38:46.
