data_PCOD8321207
_publ_section_title
;
Structure prediction by ZEFSAII (Michael W. Deem and Ramdas Pophale) SiO2 
 PCOD8321207
Probable space group: I 41/A C D
;
_chemical_formula_sum "Si O2"
_cell_formula_units_Z 160
_cell_length_a 25.075059
_cell_length_b 25.075059
_cell_length_c 10.616592
_cell_angle_alpha 90.000000
_cell_angle_beta 90.000000
_cell_angle_gamma 90.000000
_cell_volume 6675.273351
_symmetry_space_group_name_H-M "I 41/A C D"
_symmetry_group_IT_number 142
_space_group.IT_coordinate_system_code '2'
_symmetry_cell_setting 'tetragonal'
loop_
_space_group_symop_operation_xyz
x,y,z
1/4-y,3/4+x,1/4+z
-x,1/2-y,z
1/4+y,1/4-x,3/4+z
x,-y,1/2-z
1/2-x,y,-z
3/4+y,1/4+x,1/4-z
1/4-y,1/4-x,1/4-z
-x,-y,-z
3/4+y,1/4-x,3/4-z
x,1/2+y,-z
3/4-y,3/4+x,1/4-z
-x,y,1/2+z
1/2+x,-y,z
1/4-y,3/4-x,3/4+z
3/4+y,3/4+x,3/4+z
1/2+x,1/2+y,1/2+z
3/4-y,1/4+x,3/4+z
1/2-x,-y,1/2+z
3/4+y,3/4-x,1/4+z
1/2+x,1/2-y,-z
-x,1/2+y,1/2-z
1/4+y,3/4+x,3/4-z
3/4-y,3/4-x,3/4-z
1/2-x,1/2-y,1/2-z
1/4+y,3/4-x,1/4-z
1/2+x,y,1/2-z
1/4-y,1/4+x,3/4-z
1/2-x,1/2+y,z
x,1/2-y,1/2+z
3/4-y,1/4-x,1/4+z
1/4+y,1/4+x,1/4+z
loop_
_atom_site_type_symbol
_atom_site_label
_atom_site_fract_x
_atom_site_fract_y
_atom_site_fract_z
Si Si1 0.288585 0.000000 0.750000
Si Si2 0.362807 0.168599 0.275240
Si Si3 0.090985 0.659016 0.875000
Si Si4 0.635460 0.081120 0.572509
Si Si5 0.955450 0.995205 0.390365
Si Si6 0.518762 0.332077 0.661871
O O1 0.252223 0.997778 0.625000
O O2 0.321194 0.944142 0.760422
O O3 0.411258 0.161258 0.375000
O O4 0.353665 0.113634 0.199441
O O5 0.312868 0.180895 0.360232
O O6 0.368245 0.218925 0.178900
O O7 0.134928 0.652253 0.769384
O O8 0.032353 0.655428 0.808034
O O9 0.598017 0.030487 0.594673
O O10 0.981551 0.000000 0.250000
O O11 0.000000 0.000000 0.500000
O O12 0.459678 0.312190 0.644253
#
# Coordination Sequence:
#
# PCOD8321207 Si02
#       6
#    16  32  16  32  32  32
#     4  12  26  44  80 108 144 188 246 318 382 448
#     4  11  25  44  77 104 145 196 249 309 377 453
#     4  10  24  45  70 100 150 184 244 302 374 452
#     4  11  25  49  72 110 146 197 249 315 384 462
#     4  12  29  50  78 113 160 206 259 319 394 472
#     4  10  25  43  71 106 141 191 245 313 375 447
#
# _framework density 23.969055000000001
#
# number of rings (size 3 to 8) (size 9 to 14) (size 15 to 20)
#    0.000    1.000    3.000    1.200    9.800    5.600 
#    1.800    0.000    0.000    0.000    0.000    0.000 
#    0.000    0.000    0.000    0.000    0.000    0.000 
#
# Total GULP energy -991212.731041 kJ/mol
# GULP energy per Si atom -12390.159138 kJ/mol
# Density = 2.391450 g / cm^3
# Si number density = 23.969055 Si / 1000 Ang^3
#
#
#
# Elastic Constant Matrix: (Units=GPa)
#
#
# Indices 1 2 3 4 5 6 
#
# 1 77.9628 13.3265 26.3732 0.0000 0.0000 0.0000
# 2 13.3265 77.9628 26.3751 0.0000 0.0000 0.0000
# 3 26.3732 26.3751 166.4880 0.0000 0.0000 0.0000
# 4 0.0000 0.0000 0.0000 30.6860 0.0000 0.0000
# 5 0.0000 0.0000 0.0000 0.0000 30.6845 0.0000
# 6 0.0000 0.0000 0.0000 0.0000 0.0000 30.9737
#
#
#
# Elastic Compliance Matrix: (Units=1/GPa)
#
#
# Indices 1 2 3 4 5 6 
#
# 1 0.013764 -0.001707 -0.001910 0.000000 0.000000 0.000000
# 2 -0.001707 0.013765 -0.001910 0.000000 0.000000 0.000000
# 3 -0.001910 -0.001910 0.006612 0.000000 0.000000 0.000000
# 4 0.000000 0.000000 0.000000 0.032588 0.000000 0.000000
# 5 0.000000 0.000000 0.000000 0.000000 0.032590 0.000000
# 6 0.000000 0.000000 0.000000 0.000000 0.000000 0.032285
#
#
# Mechanical properties :
#
#
# Convention : Reuss Voigt Hill
#
# Bulk Modulus (GPa) = 43.31475 50.50703 46.91089
# Shear Modulus (GPa) = 33.25496 35.55810 34.40653
#
# Velocity S-wave (km/s) = 3.72884 3.85580 3.79285
# Velocity P-wave (km/s) = 6.05387 6.39847 6.22855
#
# Compressibility (1/GPa) = 0.02308682
#
# Stress axis : x y z
#
# Youngs Moduli (GPa) = 72.65079 72.65020 151.24865
#
# Poissons Ratio (x) = 0.12399 0.28889
# Poissons Ratio (y) = 0.12399 0.28892
# Poissons Ratio (z) = 0.13877 0.13878
#
# Static dielectric constant tensor:
#      x y z
#    x 4.284720 0.000000 0.000000 
#    y 0.000000 4.284700 0.000000 
#    z 0.000000 0.000000 4.877050 
# 
# 
# High freq. dielectric constant tensor:
#      x y z
#    x 1.947250 0.000000 0.000000 
#    y 0.000000 1.947250 0.000000 
#    z 0.000000 0.000000 1.977920 
# 
# From -- ./inp_files/3894.got.cif
#   From: 2010.03.12/outbox.cif.g09.slc.cpg/sg142_2_cif.got.tgz:3894.got - 2010.04.03 13:27:16.
