data_PCOD8321602
_publ_section_title
;
Structure prediction by ZEFSAII (Michael W. Deem and Ramdas Pophale) SiO2 
 PCOD8321602
Probable space group: P -3
;
_chemical_formula_sum "Si O2"
_cell_formula_units_Z 36
_cell_length_a 12.912277
_cell_length_b 12.912277
_cell_length_c 15.105161
_cell_angle_alpha 90.000000
_cell_angle_beta 90.000000
_cell_angle_gamma 120.000000
_cell_volume 2181.030097
_symmetry_space_group_name_H-M "P -3"
_symmetry_group_IT_number 147
_symmetry_cell_setting 'hexagonal'
loop_
_space_group_symop_operation_xyz
x,y,z
-y,x-y,z
-x+y,-x,z
-x,-y,-z
y,-x+y,-z
x-y,x,-z
loop_
_atom_site_type_symbol
_atom_site_label
_atom_site_fract_x
_atom_site_fract_y
_atom_site_fract_z
Si Si1 0.000011 0.238187 0.899057
Si Si2 0.000010 0.238186 0.600943
Si Si3 0.761814 0.999990 0.600943
Si Si4 0.091808 0.667928 0.250000
Si Si5 0.091809 0.423880 0.250000
Si Si6 0.999991 0.238176 0.100943
O O1 0.126134 0.252267 0.871828
O O2 0.974546 0.323363 0.837207
O O3 0.899981 0.100019 0.885185
O O4 0.000001 0.277896 1.000000
O O5 1.000000 0.277896 0.500000
O O6 0.974545 0.323361 0.662793
O O7 0.126134 0.252267 0.628172
O O8 0.899981 0.100019 0.614815
O O9 0.676639 0.025456 0.662793
O O10 0.082092 0.541046 0.250000
O O11 0.230090 0.769909 0.250000
O O12 0.025457 0.348817 0.162793
#
# Coordination Sequence:
#
# PCOD8321602 Si02
#       6
#     6   6   6   6   6   6
#     4   9  17  30  50  75  98 118 144 185 238 288
#     4   9  17  30  50  75  98 118 144 185 238 288
#     4   9  17  30  50  75  98 118 144 185 238 288
#     4  10  20  32  46  64  90 126 164 196 222 258
#     4  10  20  32  46  64  90 126 164 196 222 258
#     4   9  17  30  50  75  98 118 144 185 238 288
#
# _framework density 16.505963000000001
#
# number of rings (size 3 to 8) (size 9 to 14) (size 15 to 20)
#    0.000    2.667    0.000    2.000    0.000    4.000 
#    0.000    3.333    0.000    5.333    0.000    0.000 
#    0.000    0.000    0.000    0.000    0.000    0.000 
#
# Total GULP energy -446460.608063 kJ/mol
# GULP energy per Si atom -12401.683557 kJ/mol
# Density = 1.646839 g / cm^3
# Si number density = 16.505963 Si / 1000 Ang^3
#
#
#
# Elastic Constant Matrix: (Units=GPa)
#
#
# Indices 1 2 3 4 5 6 
#
# 1 123.3178 75.2692 72.9208 -0.0001 0.0000 0.0000
# 2 75.2692 123.3178 72.9208 0.0001 0.0000 0.0000
# 3 72.9208 72.9208 122.3926 0.0000 0.0000 0.0000
# 4 -0.0001 0.0001 0.0000 21.7791 0.0000 0.0000
# 5 0.0000 0.0000 0.0000 0.0000 21.7791 -0.0001
# 6 0.0000 0.0000 0.0000 0.0000 -0.0001 24.0243
#
#
#
# Elastic Compliance Matrix: (Units=1/GPa)
#
#
# Indices 1 2 3 4 5 6 
#
# 1 0.014883 -0.005930 -0.005334 0.000000 0.000000 0.000000
# 2 -0.005930 0.014883 -0.005334 0.000000 0.000000 0.000000
# 3 -0.005334 -0.005334 0.014526 0.000000 0.000000 0.000000
# 4 0.000000 0.000000 0.000000 0.045916 0.000000 0.000000
# 5 0.000000 0.000000 0.000000 0.000000 0.045916 0.000000
# 6 0.000000 0.000000 0.000000 0.000000 0.000000 0.041625
#
#
# Mechanical properties :
#
#
# Convention : Reuss Voigt Hill
#
# Bulk Modulus (GPa) = 90.12316 90.13886 90.13101
# Shear Modulus (GPa) = 23.29462 23.37765 23.33613
#
# Velocity S-wave (km/s) = 3.76078 3.76748 3.76413
# Velocity P-wave (km/s) = 8.57770 8.58217 8.57993
#
# Compressibility (1/GPa) = 0.01109593
#
# Stress axis : x y z
#
# Youngs Moduli (GPa) = 67.19261 67.19261 68.83978
#
# Poissons Ratio (x) = 0.39843 0.36720
# Poissons Ratio (y) = 0.39843 0.36720
# Poissons Ratio (z) = 0.35841 0.35841
#
# Static dielectric constant tensor:
#      x y z
#    x 2.887310 0.000000 0.000000 
#    y 0.000000 2.887310 0.000000 
#    z 0.000000 0.000000 3.496470 
# 
# 
# High freq. dielectric constant tensor:
#      x y z
#    x 1.619050 0.000000 0.000000 
#    y 0.000000 1.619050 0.000000 
#    z 0.000000 0.000000 1.654480 
# 
# From -- ./inp_files/925.got.cif
#   From: 2010.03.12/outbox.cif.g09.slc.cpg/sg147_cif.got.tgz:925.got - 2010.04.03 13:37:56.
