data_PCOD8321218
_publ_section_title
;
Structure prediction by ZEFSAII (Michael W. Deem and Ramdas Pophale) SiO2 
 PCOD8321218
Probable space group: I 41/A C D
;
_chemical_formula_sum "Si O2"
_cell_formula_units_Z 216
_cell_length_a 26.967110
_cell_length_b 26.967110
_cell_length_c 14.418764
_cell_angle_alpha 90.000000
_cell_angle_beta 90.000000
_cell_angle_gamma 90.000000
_cell_volume 10485.685964
_symmetry_space_group_name_H-M "I 41/A C D"
_symmetry_group_IT_number 142
_space_group.IT_coordinate_system_code '2'
_symmetry_cell_setting 'tetragonal'
loop_
_space_group_symop_operation_xyz
x,y,z
1/4-y,3/4+x,1/4+z
-x,1/2-y,z
1/4+y,1/4-x,3/4+z
x,-y,1/2-z
1/2-x,y,-z
3/4+y,1/4+x,1/4-z
1/4-y,1/4-x,1/4-z
-x,-y,-z
3/4+y,1/4-x,3/4-z
x,1/2+y,-z
3/4-y,3/4+x,1/4-z
-x,y,1/2+z
1/2+x,-y,z
1/4-y,3/4-x,3/4+z
3/4+y,3/4+x,3/4+z
1/2+x,1/2+y,1/2+z
3/4-y,1/4+x,3/4+z
1/2-x,-y,1/2+z
3/4+y,3/4-x,1/4+z
1/2+x,1/2-y,-z
-x,1/2+y,1/2-z
1/4+y,3/4+x,3/4-z
3/4-y,3/4-x,3/4-z
1/2-x,1/2-y,1/2-z
1/4+y,3/4-x,1/4-z
1/2+x,y,1/2-z
1/4-y,1/4+x,3/4-z
1/2-x,1/2+y,z
x,1/2-y,1/2+z
3/4-y,1/4-x,1/4+z
1/4+y,1/4+x,1/4+z
loop_
_atom_site_type_symbol
_atom_site_label
_atom_site_fract_x
_atom_site_fract_y
_atom_site_fract_z
Si Si1 0.313999 0.371909 0.129111
Si Si2 0.750000 0.184801 0.000000
Si Si3 0.000000 0.250000 0.125000
Si Si4 0.184451 0.856472 0.337850
Si Si5 0.050245 0.358439 0.324207
Si Si6 0.260606 0.431126 0.604191
Si Si7 0.500446 0.587208 0.166913
Si Si8 0.011020 0.656039 0.497836
O O1 0.263663 0.351240 0.085164
O O2 0.323300 0.347865 0.229448
O O3 0.355569 0.347608 0.063317
O O4 0.314372 0.431338 0.125221
O O5 0.790198 0.220193 0.046633
O O6 0.951535 0.256580 0.186442
O O7 0.142926 0.892926 0.375000
O O8 0.237920 0.884198 0.341097
O O9 0.179801 0.806304 0.398091
O O10 0.007088 0.371504 0.248690
O O11 0.074687 0.306169 0.307281
O O12 0.029855 0.360810 0.428445
O O13 0.250000 0.416428 0.500000
O O14 0.233565 0.483565 0.625000
O O15 0.522555 0.609885 0.071183
#
# Coordination Sequence:
#
# PCOD8321218 Si02
#       8
#    32  16   8  32  32  32  32  32
#     4  11  24  46  66  99 136 175 232 281 343 421
#     4  10  28  46  68  98 138 190 230 274 352 422
#     4  12  24  42  64 100 138 176 236 278 332 396
#     4  11  24  41  69 102 138 175 228 292 347 402
#     4  11  25  43  67 102 135 185 234 277 350 416
#     4  11  23  43  67 106 134 171 231 285 351 414
#     4  11  25  47  66 100 144 182 232 283 343 417
#     4  12  24  42  65  97 139 180 232 287 340 404
#
# _framework density 20.599511
#
# number of rings (size 3 to 8) (size 9 to 14) (size 15 to 20)
#    0.000    0.889    5.926    0.889    5.185    1.778 
#    2.667    1.481    0.000    0.000    0.000    0.000 
#    0.000    0.000    0.000    0.000    0.000    0.000 
#
# Total GULP energy -1338307.849166 kJ/mol
# GULP energy per Si atom -12391.739344 kJ/mol
# Density = 2.055263 g / cm^3
# Si number density = 20.599511 Si / 1000 Ang^3
#
#
#
# Elastic Constant Matrix: (Units=GPa)
#
#
# Indices 1 2 3 4 5 6 
#
# 1 119.3836 56.6939 43.2683 0.0000 0.0000 0.0000
# 2 56.6939 119.3836 43.2683 0.0000 0.0000 0.0000
# 3 43.2683 43.2683 121.9238 0.0000 0.0000 0.0000
# 4 0.0000 0.0000 0.0000 -13.0127 0.0000 0.0000
# 5 0.0000 0.0000 0.0000 0.0000 -13.0127 0.0000
# 6 0.0000 0.0000 0.0000 0.0000 0.0000 14.3903
#
#
#
# Elastic Compliance Matrix: (Units=1/GPa)
#
#
# Indices 1 2 3 4 5 6 
#
# 1 0.011415 -0.004536 -0.002441 0.000000 0.000000 0.000000
# 2 -0.004536 0.011415 -0.002441 0.000000 0.000000 0.000000
# 3 -0.002441 -0.002441 0.009935 0.000000 0.000000 0.000000
# 4 0.000000 0.000000 0.000000 -0.076848 0.000000 0.000000
# 5 0.000000 0.000000 0.000000 0.000000 -0.076848 0.000000
# 6 0.000000 0.000000 0.000000 0.000000 0.000000 0.069491
#
#
# Mechanical properties :
#
#
# Convention : Reuss Voigt Hill
#
# Bulk Modulus (GPa) = 71.79908 71.90575 71.85242
# Shear Modulus (GPa) = -178.83036 12.17035 -83.33001
#
# Velocity S-wave (km/s) = -9.32745 2.43329 -6.36712
# Velocity P-wave (km/s) = 9.00397 6.54804 4.37004
#
# Compressibility (1/GPa) = 0.01392775
#
# Stress axis : x y z
#
# Youngs Moduli (GPa) = 87.60131 87.60131 100.65882
#
# Poissons Ratio (x) = 0.39738 0.24573
# Poissons Ratio (y) = 0.39738 0.24573
# Poissons Ratio (z) = 0.21386 0.21386
#
# Static dielectric constant tensor:
#      x y z
#    x 3.750190 0.000000 0.000000 
#    y 0.000000 3.750190 0.000000 
#    z 0.000000 0.000000 3.804520 
# 
# 
# High freq. dielectric constant tensor:
#      x y z
#    x 1.808590 0.000000 0.000000 
#    y 0.000000 1.808590 0.000000 
#    z 0.000000 0.000000 1.821100 
# 
# From -- ./inp_files/5802.got.cif
#   From: 2010.03.12/outbox.cif.g09.slc.cpg/sg142_3_cif.got.tgz:5802.got - 2010.04.03 13:27:16.
