data_PCOD8321163
_publ_section_title
;
Structure prediction by ZEFSAII (Michael W. Deem and Ramdas Pophale) SiO2 
 PCOD8321163
Probable space group: I 41/A C D
;
_chemical_formula_sum "Si O2"
_cell_formula_units_Z 144
_cell_length_a 17.981076
_cell_length_b 17.981076
_cell_length_c 20.903471
_cell_angle_alpha 90.000000
_cell_angle_beta 90.000000
_cell_angle_gamma 90.000000
_cell_volume 6758.491308
_symmetry_space_group_name_H-M "I 41/A C D"
_symmetry_group_IT_number 142
_space_group.IT_coordinate_system_code '2'
_symmetry_cell_setting 'tetragonal'
loop_
_space_group_symop_operation_xyz
x,y,z
1/4-y,3/4+x,1/4+z
-x,1/2-y,z
1/4+y,1/4-x,3/4+z
x,-y,1/2-z
1/2-x,y,-z
3/4+y,1/4+x,1/4-z
1/4-y,1/4-x,1/4-z
-x,-y,-z
3/4+y,1/4-x,3/4-z
x,1/2+y,-z
3/4-y,3/4+x,1/4-z
-x,y,1/2+z
1/2+x,-y,z
1/4-y,3/4-x,3/4+z
3/4+y,3/4+x,3/4+z
1/2+x,1/2+y,1/2+z
3/4-y,1/4+x,3/4+z
1/2-x,-y,1/2+z
3/4+y,3/4-x,1/4+z
1/2+x,1/2-y,-z
-x,1/2+y,1/2-z
1/4+y,3/4+x,3/4-z
3/4-y,3/4-x,3/4-z
1/2-x,1/2-y,1/2-z
1/4+y,3/4-x,1/4-z
1/2+x,y,1/2-z
1/4-y,1/4+x,3/4-z
1/2-x,1/2+y,z
x,1/2-y,1/2+z
3/4-y,1/4-x,1/4+z
1/4+y,1/4+x,1/4+z
loop_
_atom_site_type_symbol
_atom_site_label
_atom_site_fract_x
_atom_site_fract_y
_atom_site_fract_z
Si Si1 0.026098 0.586773 0.267047
Si Si2 0.163407 0.508935 0.489422
Si Si3 0.404057 0.857706 0.458981
Si Si4 0.637463 0.675761 0.317509
Si Si5 0.635271 0.114730 0.875000
O O1 0.012721 0.500000 0.250000
O O2 0.081685 0.617742 0.214079
O O3 0.057214 0.602587 0.338204
O O4 0.952146 0.636440 0.263644
O O5 0.250000 0.527152 0.500000
O O6 0.151125 0.423332 0.476603
O O7 0.110329 0.532575 0.549324
O O8 0.137453 0.548940 0.425402
O O9 0.377571 0.821324 0.392514
O O10 0.490786 0.879583 0.460045
#
# Coordination Sequence:
#
# PCOD8321163 Si02
#       5
#    32  32  32  32  16
#     4  11  23  42  68  98 132 181 226 283 346 418
#     4  11  23  43  68 102 136 183 233 288 350 427
#     4  12  23  41  69 102 137 178 238 290 349 419
#     4  11  23  41  70  96 138 183 234 282 356 422
#     4  10  22  42  69  92 136 182 217 276 356 408
#
# _framework density 21.306531
#
# number of rings (size 3 to 8) (size 9 to 14) (size 15 to 20)
#    0.000    0.889    2.222    7.333    0.000    0.000 
#    0.000    8.889    0.000    0.000    0.000    0.000 
#    0.000    0.000    0.000    0.000    0.000    0.000 
#
# Total GULP energy -892628.569680 kJ/mol
# GULP energy per Si atom -12397.619023 kJ/mol
# Density = 2.125804 g / cm^3
# Si number density = 21.306531 Si / 1000 Ang^3
#
#
#
# Elastic Constant Matrix: (Units=GPa)
#
#
# Indices 1 2 3 4 5 6 
#
# 1 114.1796 50.9295 47.9914 0.0000 0.0000 0.0000
# 2 50.9295 114.1789 47.9926 0.0000 0.0000 0.0000
# 3 47.9914 47.9926 95.4435 0.0000 0.0000 0.0000
# 4 0.0000 0.0000 0.0000 25.6453 0.0000 0.0000
# 5 0.0000 0.0000 0.0000 0.0000 25.6454 0.0000
# 6 0.0000 0.0000 0.0000 0.0000 0.0000 23.2841
#
#
#
# Elastic Compliance Matrix: (Units=1/GPa)
#
#
# Indices 1 2 3 4 5 6 
#
# 1 0.012184 -0.003626 -0.004303 0.000000 0.000000 0.000000
# 2 -0.003626 0.012184 -0.004304 0.000000 0.000000 0.000000
# 3 -0.004303 -0.004304 0.014805 0.000000 0.000000 0.000000
# 4 0.000000 0.000000 0.000000 0.038994 0.000000 0.000000
# 5 0.000000 0.000000 0.000000 0.000000 0.038993 0.000000
# 6 0.000000 0.000000 0.000000 0.000000 0.000000 0.042948
#
#
# Mechanical properties :
#
#
# Convention : Reuss Voigt Hill
#
# Bulk Modulus (GPa) = 67.98905 68.62544 68.30724
# Shear Modulus (GPa) = 26.38844 26.70751 26.54797
#
# Velocity S-wave (km/s) = 3.52307 3.54431 3.53370
# Velocity P-wave (km/s) = 6.96625 7.00200 6.98415
#
# Compressibility (1/GPa) = 0.01470825
#
# Stress axis : x y z
#
# Youngs Moduli (GPa) = 82.07339 82.07161 67.54389
#
# Poissons Ratio (x) = 0.29759 0.29066
# Poissons Ratio (y) = 0.29760 0.29068
# Poissons Ratio (z) = 0.35318 0.35320
#
# Static dielectric constant tensor:
#      x y z
#    x 4.037050 0.000000 0.000000 
#    y 0.000000 4.037030 0.000000 
#    z 0.000000 0.000000 4.144980 
# 
# 
# High freq. dielectric constant tensor:
#      x y z
#    x 1.845090 0.000000 0.000000 
#    y 0.000000 1.845090 0.000000 
#    z 0.000000 0.000000 1.830650 
# 
# From -- ./inp_files/10102.got.cif
#   From: 2010.03.12/outbox.cif.g09.slc.cpg/sg142_6_cif.got.tgz:10102.got - 2010.04.03 13:27:16.
