data_PCOD8321191
_publ_section_title
;
Structure prediction by ZEFSAII (Michael W. Deem and Ramdas Pophale) SiO2 
 PCOD8321191
Probable space group: I 41/A C D
;
_chemical_formula_sum "Si O2"
_cell_formula_units_Z 160
_cell_length_a 19.840638
_cell_length_b 19.840638
_cell_length_c 18.049098
_cell_angle_alpha 90.000000
_cell_angle_beta 90.000000
_cell_angle_gamma 90.000000
_cell_volume 7105.043965
_symmetry_space_group_name_H-M "I 41/A C D"
_symmetry_group_IT_number 142
_space_group.IT_coordinate_system_code '2'
_symmetry_cell_setting 'tetragonal'
loop_
_space_group_symop_operation_xyz
x,y,z
1/4-y,3/4+x,1/4+z
-x,1/2-y,z
1/4+y,1/4-x,3/4+z
x,-y,1/2-z
1/2-x,y,-z
3/4+y,1/4+x,1/4-z
1/4-y,1/4-x,1/4-z
-x,-y,-z
3/4+y,1/4-x,3/4-z
x,1/2+y,-z
3/4-y,3/4+x,1/4-z
-x,y,1/2+z
1/2+x,-y,z
1/4-y,3/4-x,3/4+z
3/4+y,3/4+x,3/4+z
1/2+x,1/2+y,1/2+z
3/4-y,1/4+x,3/4+z
1/2-x,-y,1/2+z
3/4+y,3/4-x,1/4+z
1/2+x,1/2-y,-z
-x,1/2+y,1/2-z
1/4+y,3/4+x,3/4-z
3/4-y,3/4-x,3/4-z
1/2-x,1/2-y,1/2-z
1/4+y,3/4-x,1/4-z
1/2+x,y,1/2-z
1/4-y,1/4+x,3/4-z
1/2-x,1/2+y,z
x,1/2-y,1/2+z
3/4-y,1/4-x,1/4+z
1/4+y,1/4+x,1/4+z
loop_
_atom_site_type_symbol
_atom_site_label
_atom_site_fract_x
_atom_site_fract_y
_atom_site_fract_z
Si Si1 0.739926 0.881665 0.146327
Si Si2 0.296501 0.758580 0.073118
Si Si3 0.018151 0.173337 0.761320
Si Si4 0.566157 0.481544 0.043780
Si Si5 0.611738 0.852675 0.888707
O O1 0.697690 0.947690 0.125000
O O2 0.707366 0.815524 0.109177
O O3 0.741542 0.877765 0.236390
O O4 0.815883 0.888722 0.116918
O O5 0.276046 0.817270 0.131330
O O6 0.250000 0.764648 0.000000
O O7 0.375600 0.774271 0.059840
O O8 0.087070 0.171628 0.807963
O O9 0.000000 0.250000 0.739622
O O10 0.962709 0.135561 0.810815
O O11 0.561574 0.404597 0.071291
O O12 0.500000 0.500000 0.000000
#
# Coordination Sequence:
#
# PCOD8321191 Si02
#       5
#    32  32  32  32  32
#     4  11  25  43  71 104 139 189 250 303 371 451
#     4  11  21  43  72  99 140 195 241 299 378 447
#     4  12  23  38  72 111 144 192 251 304 372 447
#     4  10  23  42  73 100 140 186 243 304 371 434
#     4  12  21  42  75 103 140 190 253 307 364 447
#
# _framework density 22.519214000000002
#
# number of rings (size 3 to 8) (size 9 to 14) (size 15 to 20)
#    0.000    0.800    6.000    2.400    0.000    0.000 
#    0.000    5.000    8.800    0.000    0.000    0.000 
#    0.000    0.000    0.000    0.000    0.000    0.000 
#
# Total GULP energy -991702.521597 kJ/mol
# GULP energy per Si atom -12396.281520 kJ/mol
# Density = 2.246796 g / cm^3
# Si number density = 22.519214 Si / 1000 Ang^3
#
#
#
# Elastic Constant Matrix: (Units=GPa)
#
#
# Indices 1 2 3 4 5 6 
#
# 1 121.1685 35.7251 49.2732 0.0000 0.0000 0.0000
# 2 35.7251 121.1685 49.2732 0.0000 0.0000 0.0000
# 3 49.2732 49.2732 134.7298 0.0000 0.0000 0.0000
# 4 0.0000 0.0000 0.0000 35.8767 0.0000 0.0000
# 5 0.0000 0.0000 0.0000 0.0000 35.8767 0.0000
# 6 0.0000 0.0000 0.0000 0.0000 0.0000 39.9327
#
#
#
# Elastic Compliance Matrix: (Units=1/GPa)
#
#
# Indices 1 2 3 4 5 6 
#
# 1 0.009989 -0.001715 -0.003026 0.000000 0.000000 0.000000
# 2 -0.001715 0.009989 -0.003026 0.000000 0.000000 0.000000
# 3 -0.003026 -0.003026 0.009636 0.000000 0.000000 0.000000
# 4 0.000000 0.000000 0.000000 0.027873 0.000000 0.000000
# 5 0.000000 0.000000 0.000000 0.000000 0.027873 0.000000
# 6 0.000000 0.000000 0.000000 0.000000 0.000000 0.025042
#
#
# Mechanical properties :
#
#
# Convention : Reuss Voigt Hill
#
# Bulk Modulus (GPa) = 71.02209 71.73445 71.37827
# Shear Modulus (GPa) = 38.27620 38.52359 38.39989
#
# Velocity S-wave (km/s) = 4.12723 4.14055 4.13389
# Velocity P-wave (km/s) = 7.37014 7.40154 7.38586
#
# Compressibility (1/GPa) = 0.01408013
#
# Stress axis : x y z
#
# Youngs Moduli (GPa) = 100.10940 100.10940 103.78083
#
# Poissons Ratio (x) = 0.17165 0.31405
# Poissons Ratio (y) = 0.17165 0.31405
# Poissons Ratio (z) = 0.30294 0.30294
#
# Static dielectric constant tensor:
#      x y z
#    x 4.245180 0.000000 0.000000 
#    y 0.000000 4.245180 0.000000 
#    z 0.000000 0.000000 4.904360 
# 
# 
# High freq. dielectric constant tensor:
#      x y z
#    x 1.879520 0.000000 0.000000 
#    y 0.000000 1.879520 0.000000 
#    z 0.000000 0.000000 1.895560 
# 
# From -- ./inp_files/7354.got.cif
#   From: 2010.03.12/outbox.cif.g09.slc.cpg/sg142_4_cif.got.tgz:7354.got - 2010.04.03 13:27:16.
