data_PCOD8321878
_publ_section_title
;
Structure prediction by ZEFSAII (Michael W. Deem and Ramdas Pophale) SiO2 
 PCOD8321878
Probable space group: P 3 2 1
;
_chemical_formula_sum "Si O2"
_cell_formula_units_Z 32
_cell_length_a 14.410954
_cell_length_b 14.410954
_cell_length_c 9.394954
_cell_angle_alpha 90.000000
_cell_angle_beta 90.000000
_cell_angle_gamma 120.000000
_cell_volume 1689.704472
_symmetry_space_group_name_H-M "P 3 2 1"
_symmetry_group_IT_number 150
_symmetry_cell_setting 'hexagonal'
loop_
_space_group_symop_operation_xyz
x,y,z
-y,x-y,z
-x+y,-x,z
x-y,-y,-z
-x,-x+y,-z
y,x,-z
loop_
_atom_site_type_symbol
_atom_site_label
_atom_site_fract_x
_atom_site_fract_y
_atom_site_fract_z
Si Si1 0.225321 0.782531 0.806686
Si Si2 0.706204 0.239656 0.496001
Si Si3 0.047836 0.657624 0.343540
Si Si4 0.000000 0.000000 0.830838
Si Si5 0.552799 0.077885 0.131135
Si Si6 0.775571 0.960189 0.839341
O O1 0.197246 0.731922 0.648497
O O2 0.349304 0.858729 0.834758
O O3 0.167442 0.676120 0.907194
O O4 0.165254 0.850161 0.831183
O O5 0.785550 0.367811 0.498726
O O6 0.713839 0.176811 0.633607
O O7 0.000000 0.639826 0.500000
O O8 0.996967 0.543784 0.262678
O O9 0.031489 0.742376 0.254096
O O10 0.088089 0.116206 0.773697
O O11 0.000000 0.000000 0.000000
O O12 0.495851 0.000000 0.000000
O O13 0.790628 0.000000 0.000000
#
# Coordination Sequence:
#
# PCOD8321878 Si02
#       6
#     6   6   6   2   6   6
#     4  11  18  39  64  85 125 169 198 251 321 368
#     4  10  19  37  61  86 120 168 196 237 312 383
#     4  11  19  38  63  88 121 160 202 256 308 372
#     4   9  21  45  64  86 112 159 211 260 310 360
#     4  11  23  38  62  94 125 165 217 255 309 388
#     4  10  22  40  67  84 119 160 206 263 311 357
#
# _framework density 18.938223000000001
#
# number of rings (size 3 to 8) (size 9 to 14) (size 15 to 20)
#    0.375    1.125    5.625    2.625    0.000    2.250 
#   10.125    0.938    0.000    0.000    0.000    0.000 
#    0.000    0.000    0.000    0.000    0.000    0.000 
#
# Total GULP energy -396542.609669 kJ/mol
# GULP energy per Si atom -12391.956552 kJ/mol
# Density = 1.889512 g / cm^3
# Si number density = 18.938223 Si / 1000 Ang^3
#
#
#
# Elastic Constant Matrix: (Units=GPa)
#
#
# Indices 1 2 3 4 5 6 
#
# 1 136.3617 80.5623 51.0241 4.4517 0.0000 0.0000
# 2 80.5623 136.3617 51.0241 -4.4517 0.0000 0.0000
# 3 51.0241 51.0241 86.7694 0.0000 0.0000 0.0000
# 4 4.4517 -4.4517 0.0000 31.5750 0.0000 0.0000
# 5 0.0000 0.0000 0.0000 0.0000 31.5750 4.4517
# 6 0.0000 0.0000 0.0000 0.0000 4.4517 27.8997
#
#
#
# Elastic Compliance Matrix: (Units=1/GPa)
#
#
# Indices 1 2 3 4 5 6 
#
# 1 0.012353 -0.005980 -0.003748 -0.002585 0.000000 0.000000
# 2 -0.005980 0.012353 -0.003748 0.002585 0.000000 0.000000
# 3 -0.003748 -0.003748 0.015932 0.000000 0.000000 0.000000
# 4 -0.002585 0.002585 0.000000 0.032399 0.000000 0.000000
# 5 0.000000 0.000000 0.000000 0.000000 0.032399 -0.005170
# 6 0.000000 0.000000 0.000000 0.000000 -0.005170 0.036668
#
#
# Mechanical properties :
#
#
# Convention : Reuss Voigt Hill
#
# Bulk Modulus (GPa) = 73.05742 80.52376 76.79059
# Shear Modulus (GPa) = 28.79868 30.00208 29.40038
#
# Velocity S-wave (km/s) = 3.90380 3.98453 3.94437
# Velocity P-wave (km/s) = 7.67984 7.98624 7.83454
#
# Compressibility (1/GPa) = 0.01368786
#
# Stress axis : x y z
#
# Youngs Moduli (GPa) = 80.94981 80.94981 62.76593
#
# Poissons Ratio (x) = 0.48412 0.23522
# Poissons Ratio (y) = 0.48412 0.23522
# Poissons Ratio (z) = 0.30336 0.30336
#
# Static dielectric constant tensor:
#      x y z
#    x 3.628900 0.000000 0.000000 
#    y 0.000000 3.628900 0.000000 
#    z 0.000000 0.000000 3.421530 
# 
# 
# High freq. dielectric constant tensor:
#      x y z
#    x 1.736710 0.000000 0.000000 
#    y 0.000000 1.736710 0.000000 
#    z 0.000000 0.000000 1.721460 
# 
# From -- ./inp_files/646.got.cif
#   From: 2010.03.12/outbox.cif.g09.slc.cpg/sg150_cif.got.tgz:646.got - 2010.04.03 13:41:37.
