data_PCOD8321376
_publ_section_title
;
Structure prediction by ZEFSAII (Michael W. Deem and Ramdas Pophale) SiO2 
 PCOD8321376
Probable space group: P 31
;
_chemical_formula_sum "Si O2"
_cell_formula_units_Z 24
_cell_length_a 14.933466
_cell_length_b 14.933466
_cell_length_c 5.428142
_cell_angle_alpha 90.000000
_cell_angle_beta 90.000000
_cell_angle_gamma 120.000000
_cell_volume 1048.342197
_symmetry_space_group_name_H-M "P 31"
_symmetry_group_IT_number 144
_symmetry_cell_setting 'hexagonal'
loop_
_space_group_symop_operation_xyz
x,y,z
-y,x-y,1/3+z
-x+y,-x,2/3+z
loop_
_atom_site_type_symbol
_atom_site_label
_atom_site_fract_x
_atom_site_fract_y
_atom_site_fract_z
Si Si1 0.806369 0.093868 0.289060
Si Si2 0.522015 0.511287 0.882338
Si Si3 0.776670 0.790878 0.381419
Si Si4 0.918214 0.006286 0.549691
Si Si5 0.630820 0.940083 0.976213
Si Si6 0.775065 0.391299 0.316172
Si Si7 0.098514 0.347889 0.550395
Si Si8 0.449954 0.348900 0.267411
O O1 0.738457 0.143728 0.386244
O O2 0.891541 0.172768 0.098453
O O3 0.859637 0.071248 0.526090
O O4 0.730355 0.986155 0.154145
O O5 0.407615 0.464070 0.770521
O O6 0.596011 0.481598 0.724298
O O7 0.563581 0.631929 0.884827
O O8 0.514895 0.464388 0.154459
O O9 0.866184 0.910276 0.356347
O O10 0.723100 0.760018 0.116170
O O11 0.705222 0.778678 0.616197
O O12 0.916352 0.956307 0.812693
O O13 0.600537 0.822671 0.916970
O O14 0.661382 0.010515 0.733639
O O15 0.722646 0.417525 0.545547
O O16 0.800690 0.477059 0.103397
#
# Coordination Sequence:
#
# PCOD8321376 Si02
#       8
#     3   3   3   3   3   3   3   3
#     4  10  22  41  63 100 139 194 237 281 360 422
#     4  10  26  48  71 106 139 186 244 309 372 445
#     4  11  27  40  68 102 143 188 231 294 346 426
#     4  10  22  37  62  91 140 186 235 276 333 413
#     4  10  23  46  75  97 142 191 236 303 365 436
#     4  11  24  45  70 101 142 190 240 309 375 448
#     4  12  27  49  71 108 145 184 246 301 364 428
#     4  10  23  44  72  97 138 187 249 297 373 440
#
# _framework density 22.89329
#
# number of rings (size 3 to 8) (size 9 to 14) (size 15 to 20)
#    0.000    1.500    1.250    1.500   10.500    6.000 
#    4.500    1.250    0.000    0.000    0.000    0.000 
#    0.000    0.000    0.000    0.000    0.000    0.000 
#
# Total GULP energy -297450.798394 kJ/mol
# GULP energy per Si atom -12393.783266 kJ/mol
# Density = 2.284118 g / cm^3
# Si number density = 22.893290 Si / 1000 Ang^3
#
#
#
# Elastic Constant Matrix: (Units=GPa)
#
#
# Indices 1 2 3 4 5 6 
#
# 1 111.7032 43.3231 22.3367 -7.6996 3.1874 0.0000
# 2 43.3231 111.7032 22.3367 7.6996 -3.1874 0.0000
# 3 22.3367 22.3367 85.1206 0.0000 0.0000 0.0000
# 4 -7.6996 7.6996 0.0000 25.4815 0.0000 -3.1874
# 5 3.1874 -3.1874 0.0000 0.0000 25.4815 -7.6996
# 6 0.0000 0.0000 0.0000 -3.1874 -7.6996 34.1900
#
#
#
# Elastic Compliance Matrix: (Units=1/GPa)
#
#
# Indices 1 2 3 4 5 6 
#
# 1 0.011434 -0.004456 -0.001831 0.004802 -0.001988 0.000000
# 2 -0.004456 0.011434 -0.001831 -0.004802 0.001988 0.000000
# 3 -0.001831 -0.001831 0.012709 0.000000 0.000000 0.000000
# 4 0.004802 -0.004802 0.000000 0.042643 0.000000 0.003975
# 5 -0.001988 0.001988 0.000000 0.000000 0.042643 0.009603
# 6 0.000000 0.000000 0.000000 0.003975 0.009603 0.031782
#
#
# Mechanical properties :
#
#
# Convention : Reuss Voigt Hill
#
# Bulk Modulus (GPa) = 51.70415 53.83557 52.76986
# Shear Modulus (GPa) = 28.51766 31.73265 30.12515
#
# Velocity S-wave (km/s) = 3.53324 3.72709 3.63146
# Velocity P-wave (km/s) = 6.26729 6.48757 6.37838
#
# Compressibility (1/GPa) = 0.01934081
#
# Stress axis : x y z
#
# Youngs Moduli (GPa) = 87.45472 87.45472 78.68389
#
# Poissons Ratio (x) = 0.38972 0.14408
# Poissons Ratio (y) = 0.38972 0.14408
# Poissons Ratio (z) = 0.16014 0.16014
#
# Static dielectric constant tensor:
#      x y z
#    x 3.988120 0.000000 0.000000 
#    y 0.000000 3.988120 0.000000 
#    z 0.000000 0.000000 4.221550 
# 
# 
# High freq. dielectric constant tensor:
#      x y z
#    x 1.893540 0.000000 0.000000 
#    y 0.000000 1.893540 0.000000 
#    z 0.000000 0.000000 1.916400 
# 
# From -- ./inp_files/138.got.cif
#   From: 2010.03.12/outbox.cif.g09.slc.cpg/sg144_cif.got.tgz:138.got - 2010.04.03 13:34:42.
