data_PCOD8321886
_publ_section_title
;
Structure prediction by ZEFSAII (Michael W. Deem and Ramdas Pophale) SiO2 
 PCOD8321886
Probable space group: P 3 2 1
;
_chemical_formula_sum "Si O2"
_cell_formula_units_Z 44
_cell_length_a 11.610482
_cell_length_b 11.610482
_cell_length_c 17.191557
_cell_angle_alpha 90.000000
_cell_angle_beta 90.000000
_cell_angle_gamma 120.000000
_cell_volume 2006.995239
_symmetry_space_group_name_H-M "P 3 2 1"
_symmetry_group_IT_number 150
_symmetry_cell_setting 'hexagonal'
loop_
_space_group_symop_operation_xyz
x,y,z
-y,x-y,z
-x+y,-x,z
x-y,-y,-z
-x,-x+y,-z
y,x,-z
loop_
_atom_site_type_symbol
_atom_site_label
_atom_site_fract_x
_atom_site_fract_y
_atom_site_fract_z
Si Si1 0.074786 0.655687 0.381167
Si Si2 0.274805 0.159953 0.437545
Si Si3 0.983815 0.729937 0.767799
Si Si4 0.667155 0.065491 0.077989
Si Si5 0.739113 0.750022 0.759916
Si Si6 0.000000 0.000000 0.593616
Si Si7 0.330028 0.933329 0.920286
Si Si8 0.386241 0.063771 0.599993
O O1 0.078437 0.677516 0.288631
O O2 0.186266 0.797032 0.422209
O O3 0.093588 0.536331 0.411988
O O4 0.924972 0.619776 0.405723
O O5 0.187963 0.187963 0.500000
O O6 0.154184 0.069033 0.375493
O O7 0.339082 0.064297 0.452525
O O8 0.896158 0.801663 0.761473
O O9 0.976882 0.675633 0.853521
O O10 0.134356 0.838141 0.746114
O O11 0.527889 0.057858 0.082634
O O12 0.780269 0.217754 0.081884
O O13 0.682992 0.000000 0.000000
O O14 0.686338 0.679695 0.843380
O O15 0.669438 0.644115 0.690366
O O16 0.000000 0.000000 0.500000
O O17 0.315934 0.000000 0.000000
#
# Coordination Sequence:
#
# PCOD8321886 Si02
#       8
#     6   6   6   6   6   2   6   6
#     4  11  23  41  63  93 131 169 211 261 322 390
#     4  11  22  42  69  96 126 165 217 265 316 379
#     4  10  20  35  58  86 117 161 210 261 324 379
#     4  10  20  34  52  77 111 152 205 261 321 392
#     4  10  20  35  58  87 121 159 210 271 319 387
#     4   9  18  36  69  99 117 150 211 269 295 360
#     4  10  20  34  52  77 112 158 207 262 327 388
#     4  11  23  41  66  96 134 171 215 265 327 390
#
# _framework density 21.923321999999999
#
# number of rings (size 3 to 8) (size 9 to 14) (size 15 to 20)
#    0.000    1.636    2.727    2.455    0.000    0.000 
#    3.273    0.000    0.000   13.091    0.000    0.000 
#    0.000    0.000    0.000    0.000    0.000    0.000 
#
# Total GULP energy -545082.163884 kJ/mol
# GULP energy per Si atom -12388.230997 kJ/mol
# Density = 2.187342 g / cm^3
# Si number density = 21.923322 Si / 1000 Ang^3
#
#
#
# Elastic Constant Matrix: (Units=GPa)
#
#
# Indices 1 2 3 4 5 6 
#
# 1 111.4169 40.2221 26.3919 16.2600 0.0000 0.0000
# 2 40.2221 111.4169 26.3919 -16.2600 0.0000 0.0000
# 3 26.3919 26.3919 67.3579 0.0000 0.0000 0.0000
# 4 16.2600 -16.2600 0.0000 -86.6807 0.0000 0.0000
# 5 0.0000 0.0000 0.0000 0.0000 -86.6807 16.2600
# 6 0.0000 0.0000 0.0000 0.0000 16.2600 35.5974
#
#
#
# Elastic Compliance Matrix: (Units=1/GPa)
#
#
# Indices 1 2 3 4 5 6 
#
# 1 0.010287 -0.002651 -0.002992 0.002427 0.000000 0.000000
# 2 -0.002651 0.010287 -0.002992 -0.002427 0.000000 0.000000
# 3 -0.002992 -0.002992 0.017191 0.000000 0.000000 0.000000
# 4 0.002427 -0.002427 0.000000 -0.010626 0.000000 0.000000
# 5 0.000000 0.000000 0.000000 0.000000 -0.010626 0.004854
# 6 0.000000 0.000000 0.000000 0.000000 0.004854 0.025875
#
#
# Mechanical properties :
#
#
# Convention : Reuss Voigt Hill
#
# Bulk Modulus (GPa) = 48.79230 52.91150 50.85190
# Shear Modulus (GPa) = 75.20199 -14.40709 30.39745
#
# Velocity S-wave (km/s) = 5.86317 -2.56629 3.72766
# Velocity P-wave (km/s) = 8.25469 3.92506 6.46320
#
# Compressibility (1/GPa) = 0.02049504
#
# Stress axis : x y z
#
# Youngs Moduli (GPa) = 97.21240 97.21240 58.17121
#
# Poissons Ratio (x) = 0.25768 0.17404
# Poissons Ratio (y) = 0.25768 0.17404
# Poissons Ratio (z) = 0.29085 0.29085
#
# Static dielectric constant tensor:
#      x y z
#    x 3.995400 0.000000 0.000000 
#    y 0.000000 3.995400 0.000000 
#    z 0.000000 0.000000 4.420580 
# 
# 
# High freq. dielectric constant tensor:
#      x y z
#    x 1.851770 0.000000 0.000000 
#    y 0.000000 1.851770 0.000000 
#    z 0.000000 0.000000 1.885210 
# 
# From -- ./inp_files/1126.got.cif
#   From: 2010.03.12/outbox.cif.g09.slc.cpg/sg150_cif.got.tgz:1126.got - 2010.04.03 13:41:37.
