data_PCOD8321362
_publ_section_title
;
Structure prediction by ZEFSAII (Michael W. Deem and Ramdas Pophale) SiO2 
 PCOD8321362
Probable space group: P 31
;
_chemical_formula_sum "Si O2"
_cell_formula_units_Z 24
_cell_length_a 8.068257
_cell_length_b 8.068257
_cell_length_c 18.790415
_cell_angle_alpha 90.000000
_cell_angle_beta 90.000000
_cell_angle_gamma 120.000000
_cell_volume 1059.318240
_symmetry_space_group_name_H-M "P 31"
_symmetry_group_IT_number 144
_symmetry_cell_setting 'hexagonal'
loop_
_space_group_symop_operation_xyz
x,y,z
-y,x-y,1/3+z
-x+y,-x,2/3+z
loop_
_atom_site_type_symbol
_atom_site_label
_atom_site_fract_x
_atom_site_fract_y
_atom_site_fract_z
Si Si1 0.528647 0.518340 0.117160
Si Si2 0.154556 0.118559 0.108792
Si Si3 0.531155 0.519412 0.352405
Si Si4 0.882908 0.780502 0.019618
Si Si5 0.003408 0.333424 0.178500
Si Si6 0.515131 0.289228 0.569781
Si Si7 0.700829 0.825468 0.886673
Si Si8 0.340888 0.722374 0.565557
O O1 0.338183 0.325680 0.087549
O O2 0.678746 0.646922 0.057658
O O3 0.616906 0.444346 0.177181
O O4 0.480179 0.665995 0.156848
O O5 0.014434 0.142468 0.165936
O O6 0.213450 0.972053 0.142526
O O7 0.013436 0.001134 0.044372
O O8 0.326847 0.329731 0.357487
O O9 0.586273 0.599821 0.431469
O O10 0.689819 0.476043 0.315563
O O11 0.505776 0.665956 0.300842
O O12 0.843952 0.806439 0.939174
O O13 0.820475 0.312336 0.222103
O O14 0.178419 0.466135 0.229874
O O15 0.314207 0.280880 0.555858
O O16 0.489948 0.652665 0.903830
#
# Coordination Sequence:
#
# PCOD8321362 Si02
#       8
#     3   3   3   3   3   3   3   3
#     4  10  21  44  64  94 134 177 225 291 349 417
#     4  11  24  44  66  96 135 180 228 298 354 422
#     4  11  22  42  68  96 139 185 226 297 358 422
#     4  12  23  43  65 101 139 177 232 292 348 434
#     4  10  20  41  67  94 134 181 228 294 353 417
#     4  10  20  43  65  96 134 174 232 288 347 426
#     4  11  22  42  64 100 134 178 232 286 351 422
#     4   9  22  39  67  93 135 176 227 284 350 428
#
# _framework density 22.656078999999998
#
# number of rings (size 3 to 8) (size 9 to 14) (size 15 to 20)
#    0.000    1.500    2.500    3.750    3.500    0.000 
#   11.250    0.000    0.000    0.000    0.000    0.000 
#    0.000    0.000    0.000    0.000    0.000    0.000 
#
# Total GULP energy -297326.810927 kJ/mol
# GULP energy per Si atom -12388.617122 kJ/mol
# Density = 2.260451 g / cm^3
# Si number density = 22.656079 Si / 1000 Ang^3
#
#
#
# Elastic Constant Matrix: (Units=GPa)
#
#
# Indices 1 2 3 4 5 6 
#
# 1 89.4699 14.3331 16.3009 -1.6634 -3.2310 0.0000
# 2 14.3331 89.4699 16.3009 1.6634 3.2310 0.0000
# 3 16.3009 16.3009 65.2327 0.0000 0.0000 0.0000
# 4 -1.6634 1.6634 0.0000 34.7180 0.0000 3.2310
# 5 -3.2310 3.2310 0.0000 0.0000 34.7180 -1.6634
# 6 0.0000 0.0000 0.0000 3.2310 -1.6634 37.5684
#
#
#
# Elastic Compliance Matrix: (Units=1/GPa)
#
#
# Indices 1 2 3 4 5 6 
#
# 1 0.011950 -0.001496 -0.002612 0.000644 0.001251 0.000000
# 2 -0.001496 0.011950 -0.002612 -0.000644 -0.001251 0.000000
# 3 -0.002612 -0.002612 0.016635 0.000000 0.000000 0.000000
# 4 0.000644 -0.000644 0.000000 0.029098 0.000000 -0.002503
# 5 0.001251 -0.001251 0.000000 0.000000 0.029098 0.001288
# 6 0.000000 0.000000 0.000000 -0.002503 0.001288 0.026890
#
#
# Mechanical properties :
#
#
# Convention : Reuss Voigt Hill
#
# Bulk Modulus (GPa) = 36.90839 37.56024 37.23431
# Shear Modulus (GPa) = 33.76255 34.55007 34.15631
#
# Velocity S-wave (km/s) = 3.86453 3.90934 3.88700
# Velocity P-wave (km/s) = 6.01987 6.08208 6.05105
#
# Compressibility (1/GPa) = 0.02709411
#
# Stress axis : x y z
#
# Youngs Moduli (GPa) = 83.68454 83.68454 60.11308
#
# Poissons Ratio (x) = 0.12515 0.15704
# Poissons Ratio (y) = 0.12515 0.15704
# Poissons Ratio (z) = 0.21861 0.21861
#
# Static dielectric constant tensor:
#      x y z
#    x 4.285490 0.000000 0.000000 
#    y 0.000000 4.285490 0.000000 
#    z 0.000000 0.000000 4.023760 
# 
# 
# High freq. dielectric constant tensor:
#      x y z
#    x 1.890910 0.000000 0.000000 
#    y 0.000000 1.890910 0.000000 
#    z 0.000000 0.000000 1.888430 
# 
# From -- ./inp_files/865.got.cif
#   From: 2010.03.12/outbox.cif.g09.slc.cpg/sg144_cif.got.tgz:865.got - 2010.04.03 13:34:42.
