data_PCOD8321281
_publ_section_title
;
Structure prediction by ZEFSAII (Michael W. Deem and Ramdas Pophale) SiO2 
 PCOD8321281
Probable space group: I 41/A C D
;
_chemical_formula_sum "Si O2"
_cell_formula_units_Z 80
_cell_length_a 20.806376
_cell_length_b 20.806376
_cell_length_c 8.624571
_cell_angle_alpha 90.000000
_cell_angle_beta 90.000000
_cell_angle_gamma 90.000000
_cell_volume 3733.622343
_symmetry_space_group_name_H-M "I 41/A C D"
_symmetry_group_IT_number 142
_space_group.IT_coordinate_system_code '2'
_symmetry_cell_setting 'tetragonal'
loop_
_space_group_symop_operation_xyz
x,y,z
1/4-y,3/4+x,1/4+z
-x,1/2-y,z
1/4+y,1/4-x,3/4+z
x,-y,1/2-z
1/2-x,y,-z
3/4+y,1/4+x,1/4-z
1/4-y,1/4-x,1/4-z
-x,-y,-z
3/4+y,1/4-x,3/4-z
x,1/2+y,-z
3/4-y,3/4+x,1/4-z
-x,y,1/2+z
1/2+x,-y,z
1/4-y,3/4-x,3/4+z
3/4+y,3/4+x,3/4+z
1/2+x,1/2+y,1/2+z
3/4-y,1/4+x,3/4+z
1/2-x,-y,1/2+z
3/4+y,3/4-x,1/4+z
1/2+x,1/2-y,-z
-x,1/2+y,1/2-z
1/4+y,3/4+x,3/4-z
3/4-y,3/4-x,3/4-z
1/2-x,1/2-y,1/2-z
1/4+y,3/4-x,1/4-z
1/2+x,y,1/2-z
1/4-y,1/4+x,3/4-z
1/2-x,1/2+y,z
x,1/2-y,1/2+z
3/4-y,1/4-x,1/4+z
1/4+y,1/4+x,1/4+z
loop_
_atom_site_type_symbol
_atom_site_label
_atom_site_fract_x
_atom_site_fract_y
_atom_site_fract_z
Si Si1 0.250000 0.077594 0.000000
Si Si2 0.144774 0.338586 0.353449
Si Si3 0.464548 0.422595 0.768081
O O1 0.285842 0.035842 0.875000
O O2 0.206152 0.119958 0.890977
O O3 0.084646 0.387396 0.350000
O O4 0.140195 0.283778 0.485151
O O5 0.155272 0.302906 0.191941
O O6 0.464374 0.500000 0.750000
#
# Coordination Sequence:
#
# PCOD8321281 Si02
#       3
#    16  32  32
#     4  12  28  44  70 108 142 190 240 306 378 444
#     4  11  26  43  72 100 143 189 236 305 357 438
#     4  11  24  45  69 103 142 187 243 295 365 439
#
# _framework density 21.426912000000002
#
# number of rings (size 3 to 8) (size 9 to 14) (size 15 to 20)
#    0.000    0.800    2.000    3.600   14.000    0.800 
#    0.000    4.000    0.000    0.000    0.000    0.000 
#    0.000    0.000    0.000    0.000    0.000    0.000 
#
# Total GULP energy -495878.322559 kJ/mol
# GULP energy per Si atom -12396.958064 kJ/mol
# Density = 2.137814 g / cm^3
# Si number density = 21.426912 Si / 1000 Ang^3
#
#
#
# Elastic Constant Matrix: (Units=GPa)
#
#
# Indices 1 2 3 4 5 6 
#
# 1 103.4491 109.5229 48.1466 0.0000 0.0000 0.0000
# 2 109.5229 103.4491 48.1466 0.0000 0.0000 0.0000
# 3 48.1466 48.1466 105.9062 0.0000 0.0000 0.0000
# 4 0.0000 0.0000 0.0000 53.9038 0.0000 0.0000
# 5 0.0000 0.0000 0.0000 0.0000 53.9038 0.0000
# 6 0.0000 0.0000 0.0000 0.0000 0.0000 18.8545
#
#
#
# Elastic Compliance Matrix: (Units=1/GPa)
#
#
# Indices 1 2 3 4 5 6 
#
# 1 -0.079366 0.085276 -0.002687 0.000000 0.000000 0.000000
# 2 0.085276 -0.079366 -0.002687 0.000000 0.000000 0.000000
# 3 -0.002687 -0.002687 0.011885 0.000000 0.000000 0.000000
# 4 0.000000 0.000000 0.000000 0.018552 0.000000 0.000000
# 5 0.000000 0.000000 0.000000 0.000000 0.018552 0.000000
# 6 0.000000 0.000000 0.000000 0.000000 0.000000 0.053038
#
#
# Mechanical properties :
#
#
# Convention : Reuss Voigt Hill
#
# Bulk Modulus (GPa) = 77.17060 80.49294 78.83177
# Shear Modulus (GPa) = -23.56376 32.46497 4.45060
#
# Velocity S-wave (km/s) = -3.31981 3.89671 1.44278
# Velocity P-wave (km/s) = 4.62591 7.60879 6.29654
#
# Compressibility (1/GPa) = 0.01295830
#
# Stress axis : x y z
#
# Youngs Moduli (GPa) = -12.59989 -12.59989 84.13720
#
# Poissons Ratio (x) = 1.07447 0.22607
# Poissons Ratio (y) = 1.07447 0.22607
# Poissons Ratio (z) = -0.03385 -0.03385
#
# Static dielectric constant tensor:
#      x y z
#    x 4.209840 0.000000 0.000000 
#    y 0.000000 4.209840 0.000000 
#    z 0.000000 0.000000 4.231250 
# 
# 
# High freq. dielectric constant tensor:
#      x y z
#    x 1.853590 0.000000 0.000000 
#    y 0.000000 1.853590 0.000000 
#    z 0.000000 0.000000 1.854230 
# 
# From -- ./inp_files/1512.got.cif
#   From: 2010.03.12/outbox.cif.g09.slc.cpg/sg142_1_cif.got.tgz:1512.got - 2010.04.03 13:27:16.
