data_PCOD8321148
_publ_section_title
;
Structure prediction by ZEFSAII (Michael W. Deem and Ramdas Pophale) SiO2 
 PCOD8321148
Probable space group: I 41/A C D
;
_chemical_formula_sum "Si O2"
_cell_formula_units_Z 160
_cell_length_a 24.062206
_cell_length_b 24.062206
_cell_length_c 12.693914
_cell_angle_alpha 90.000000
_cell_angle_beta 90.000000
_cell_angle_gamma 90.000000
_cell_volume 7349.646190
_symmetry_space_group_name_H-M "I 41/A C D"
_symmetry_group_IT_number 142
_space_group.IT_coordinate_system_code '2'
_symmetry_cell_setting 'tetragonal'
loop_
_space_group_symop_operation_xyz
x,y,z
1/4-y,3/4+x,1/4+z
-x,1/2-y,z
1/4+y,1/4-x,3/4+z
x,-y,1/2-z
1/2-x,y,-z
3/4+y,1/4+x,1/4-z
1/4-y,1/4-x,1/4-z
-x,-y,-z
3/4+y,1/4-x,3/4-z
x,1/2+y,-z
3/4-y,3/4+x,1/4-z
-x,y,1/2+z
1/2+x,-y,z
1/4-y,3/4-x,3/4+z
3/4+y,3/4+x,3/4+z
1/2+x,1/2+y,1/2+z
3/4-y,1/4+x,3/4+z
1/2-x,-y,1/2+z
3/4+y,3/4-x,1/4+z
1/2+x,1/2-y,-z
-x,1/2+y,1/2-z
1/4+y,3/4+x,3/4-z
3/4-y,3/4-x,3/4-z
1/2-x,1/2-y,1/2-z
1/4+y,3/4-x,1/4-z
1/2+x,y,1/2-z
1/4-y,1/4+x,3/4-z
1/2-x,1/2+y,z
x,1/2-y,1/2+z
3/4-y,1/4-x,1/4+z
1/4+y,1/4+x,1/4+z
loop_
_atom_site_type_symbol
_atom_site_label
_atom_site_fract_x
_atom_site_fract_y
_atom_site_fract_z
Si Si1 0.750000 0.429289 0.500000
Si Si2 0.164358 0.317722 0.705308
Si Si3 0.452476 0.146875 0.753575
Si Si4 0.345800 0.293949 0.718209
Si Si5 0.737356 0.611244 0.228321
Si Si6 0.946355 0.196355 0.125000
O O1 0.698658 0.470412 0.524051
O O2 0.736831 0.390051 0.399642
O O3 0.154388 0.313475 0.580437
O O4 0.104433 0.319418 0.764312
O O5 0.190348 0.259681 0.745707
O O6 0.201493 0.371131 0.732933
O O7 0.471820 0.120050 0.645585
O O8 0.497279 0.190133 0.804470
O O9 0.305403 0.346164 0.719665
O O10 0.394848 0.307858 0.797631
#
# Coordination Sequence:
#
# PCOD8321148 Si02
#       6
#    16  32  32  32  32  16
#     4  10  24  42  68  90 120 174 220 280 336 390
#     4  10  23  39  59  91 129 165 206 263 328 393
#     4  10  22  39  62  93 127 168 211 259 325 397
#     4  11  22  39  65  93 125 170 215 271 328 384
#     4  11  23  42  63  93 125 163 222 273 333 404
#     4  10  22  41  62  92 128 168 220 266 316 390
#
# _framework density 21.769753999999999
#
# number of rings (size 3 to 8) (size 9 to 14) (size 15 to 20)
#    0.000    1.600    0.000    4.200    0.000   13.600 
#    0.000    6.000    0.000    0.000    0.000    0.000 
#    0.000    0.000    0.000    0.000    0.000    0.000 
#
# Total GULP energy -991643.066717 kJ/mol
# GULP energy per Si atom -12395.538334 kJ/mol
# Density = 2.172021 g / cm^3
# Si number density = 21.769754 Si / 1000 Ang^3
#
#
#
# Elastic Constant Matrix: (Units=GPa)
#
#
# Indices 1 2 3 4 5 6 
#
# 1 118.9784 52.4210 27.4095 0.0000 0.0000 0.0000
# 2 52.4210 118.9784 27.4095 0.0000 0.0000 0.0000
# 3 27.4095 27.4095 120.6608 0.0000 0.0000 0.0000
# 4 0.0000 0.0000 0.0000 29.8346 0.0000 0.0000
# 5 0.0000 0.0000 0.0000 0.0000 29.8346 0.0000
# 6 0.0000 0.0000 0.0000 0.0000 0.0000 49.1511
#
#
#
# Elastic Compliance Matrix: (Units=1/GPa)
#
#
# Indices 1 2 3 4 5 6 
#
# 1 0.010658 -0.004367 -0.001429 0.000000 0.000000 0.000000
# 2 -0.004367 0.010658 -0.001429 0.000000 0.000000 0.000000
# 3 -0.001429 -0.001429 0.008937 0.000000 0.000000 0.000000
# 4 0.000000 0.000000 0.000000 0.033518 0.000000 0.000000
# 5 0.000000 0.000000 0.000000 0.000000 0.033518 0.000000
# 6 0.000000 0.000000 0.000000 0.000000 0.000000 0.020345
#
#
# Mechanical properties :
#
#
# Convention : Reuss Voigt Hill
#
# Bulk Modulus (GPa) = 63.27847 63.67751 63.47799
# Shear Modulus (GPa) = 36.40271 38.52255 37.46263
#
# Velocity S-wave (km/s) = 4.09365 4.21116 4.15282
# Velocity P-wave (km/s) = 7.17456 7.27730 7.22611
#
# Compressibility (1/GPa) = 0.01580316
#
# Stress axis : x y z
#
# Youngs Moduli (GPa) = 93.82605 93.82605 111.89430
#
# Poissons Ratio (x) = 0.40970 0.15992
# Poissons Ratio (y) = 0.40970 0.15992
# Poissons Ratio (z) = 0.13409 0.13409
#
# Static dielectric constant tensor:
#      x y z
#    x 3.982990 0.000000 0.000000 
#    y 0.000000 3.982990 0.000000 
#    z 0.000000 0.000000 3.932070 
# 
# 
# High freq. dielectric constant tensor:
#      x y z
#    x 1.857890 0.000000 0.000000 
#    y 0.000000 1.857890 0.000000 
#    z 0.000000 0.000000 1.855150 
# 
# From -- ./inp_files/5491.got.cif
#   From: 2010.03.12/outbox.cif.g09.slc.cpg/sg142_3_cif.got.tgz:5491.got - 2010.04.03 13:27:16.
