data_PCOD8321813
_publ_section_title
;
Structure prediction by ZEFSAII (Michael W. Deem and Ramdas Pophale) SiO2 
 PCOD8321813
Probable space group: R -3
;
_chemical_formula_sum "Si O2"
_cell_formula_units_Z 54
_cell_length_a 10.777556
_cell_length_b 10.777556
_cell_length_c 21.674434
_cell_angle_alpha 90.000000
_cell_angle_beta 90.000000
_cell_angle_gamma 120.000000
_cell_volume 2180.313647
_symmetry_space_group_name_H-M "R -3"
_symmetry_group_IT_number 148
_symmetry_cell_setting 'hexagonal'
loop_
_space_group_symop_operation_xyz
x,y,z
-y,x-y,z
-x+y,-x,z
-x,-y,-z
y,-x+y,-z
x-y,x,-z
2/3+x,1/3+y,1/3+z
2/3-y,1/3+x-y,1/3+z
2/3-x+y,1/3-x,1/3+z
2/3-x,1/3-y,1/3-z
2/3+y,1/3-x+y,1/3-z
2/3+x-y,1/3+x,1/3-z
1/3+x,2/3+y,2/3+z
1/3-y,2/3+x-y,2/3+z
1/3-x+y,2/3-x,2/3+z
1/3-x,2/3-y,2/3-z
1/3+y,2/3-x+y,2/3-z
1/3+x-y,2/3+x,2/3-z
loop_
_atom_site_type_symbol
_atom_site_label
_atom_site_fract_x
_atom_site_fract_y
_atom_site_fract_z
Si Si1 0.986668 0.254993 0.969904
Si Si2 0.298608 0.805114 0.508997
Si Si3 0.469242 0.845574 0.960497
O O1 0.946531 0.226503 0.897623
O O2 0.964765 0.390775 0.988321
O O3 0.133829 0.262223 0.984933
O O4 0.179446 0.635899 0.514547
O O5 0.280722 0.857984 0.441503
O O6 0.298310 0.786235 0.967649
#
# Coordination Sequence:
#
# PCOD8321813 Si02
#       3
#    18  18  18
#     4  12  20  32  61  91 114 144 194 251 284 330
#     4   8  15  35  56  80 117 141 189 236 283 333
#     4   8  20  40  56  79 119 160 192 221 284 363
#
# _framework density 24.767078999999999
#
# number of rings (size 3 to 8) (size 9 to 14) (size 15 to 20)
#    1.333    1.333    3.333    0.333    0.000    2.667 
#    0.000    0.000    0.000    0.000    0.000    2.333 
#    0.000    0.000    0.000    0.000    0.000    0.000 
#
# Total GULP energy -223024.205178 kJ/mol
# GULP energy per Si atom -12390.233621 kJ/mol
# Density = 2.471071 g / cm^3
# Si number density = 24.767079 Si / 1000 Ang^3
#
#
#
# Elastic Constant Matrix: (Units=GPa)
#
#
# Indices 1 2 3 4 5 6 
#
# 1 36.1560 10.3915 13.5909 7.3462 0.4672 0.0000
# 2 10.3915 36.1560 13.5909 -7.3462 -0.4672 0.0000
# 3 13.5909 13.5909 158.4391 0.0000 0.0000 0.0000
# 4 7.3462 -7.3462 0.0000 38.7778 0.0000 -0.4672
# 5 0.4672 -0.4672 0.0000 0.0000 38.7778 7.3462
# 6 0.0000 0.0000 0.0000 -0.4672 7.3462 12.8822
#
#
#
# Elastic Compliance Matrix: (Units=1/GPa)
#
#
# Indices 1 2 3 4 5 6 
#
# 1 0.033076 -0.010460 -0.001940 -0.008248 -0.000525 0.000000
# 2 -0.010460 0.033076 -0.001940 0.008248 0.000525 0.000000
# 3 -0.001940 -0.001940 0.006644 0.000000 0.000000 0.000000
# 4 -0.008248 0.008248 0.000000 0.028925 0.000000 0.001049
# 5 -0.000525 0.000525 0.000000 0.000000 0.028925 -0.016495
# 6 0.000000 0.000000 0.000000 0.001049 -0.016495 0.087071
#
#
# Mechanical properties :
#
#
# Convention : Reuss Voigt Hill
#
# Bulk Modulus (GPa) = 22.66707 33.98866 28.32787
# Shear Modulus (GPa) = 19.14956 30.96609 25.05783
#
# Velocity S-wave (km/s) = 2.78364 3.53978 3.18424
# Velocity P-wave (km/s) = 4.41628 5.51905 4.99817
#
# Compressibility (1/GPa) = 0.04411686
#
# Stress axis : x y z
#
# Youngs Moduli (GPa) = 30.23356 30.23356 150.50254
#
# Poissons Ratio (x) = 0.31623 0.29198
# Poissons Ratio (y) = 0.31623 0.29198
# Poissons Ratio (z) = 0.05865 0.05865
#
# Static dielectric constant tensor:
#      x y z
#    x 4.432060 0.000000 0.000000 
#    y 0.000000 4.432060 0.000000 
#    z 0.000000 0.000000 4.170840 
# 
# 
# High freq. dielectric constant tensor:
#      x y z
#    x 1.988300 0.000000 0.000000 
#    y 0.000000 1.988300 0.000000 
#    z 0.000000 0.000000 1.980410 
# 
# From -- ./inp_files/2929.got.cif
#   From: 2010.03.12/outbox.cif.g09.slc.cpg/sg148_2_cif.got.tgz:2929.got - 2010.04.03 13:38:46.
