data_PCOD8321545
_publ_section_title
;
Structure prediction by ZEFSAII (Michael W. Deem and Ramdas Pophale) SiO2 
 PCOD8321545
Probable space group: R 3
;
_chemical_formula_sum "Si O2"
_cell_formula_units_Z 24
_cell_length_a 9.568570
_cell_length_b 9.568570
_cell_length_c 14.889046
_cell_angle_alpha 90.000000
_cell_angle_beta 90.000000
_cell_angle_gamma 120.000000
_cell_volume 1180.569557
_symmetry_space_group_name_H-M "R 3"
_symmetry_group_IT_number 146
_symmetry_cell_setting 'hexagonal'
loop_
_space_group_symop_operation_xyz
x,y,z
-y,x-y,z
-x+y,-x,z
2/3+x,1/3+y,1/3+z
2/3-y,1/3+x-y,1/3+z
2/3-x+y,1/3-x,1/3+z
1/3+x,2/3+y,2/3+z
1/3-y,2/3+x-y,2/3+z
1/3-x+y,2/3-x,2/3+z
loop_
_atom_site_type_symbol
_atom_site_label
_atom_site_fract_x
_atom_site_fract_y
_atom_site_fract_z
Si Si1 0.000000 0.000000 0.204256
Si Si2 0.506339 0.655809 0.349463
Si Si3 0.000000 0.000000 0.417493
Si Si4 0.935859 0.258019 0.497726
O O1 0.084999 0.181920 0.167431
O O2 0.000000 0.000000 0.311332
O O3 0.497206 0.821569 0.346733
O O4 0.588947 0.648262 0.440357
O O5 0.608143 0.654902 0.263941
O O6 0.907564 0.817875 0.454757
#
# Coordination Sequence:
#
# PCOD8321545 Si02
#       4
#     3   9   3   9
#     4  12  30  42  72 109 140 181 240 288 348 415
#     4  10  24  44  71 102 139 188 225 288 350 410
#     4  12  24  48  75  94 146 190 234 285 348 415
#     4  12  24  46  72 103 141 185 231 287 350 412
#
# _framework density 20.329172
#
# number of rings (size 3 to 8) (size 9 to 14) (size 15 to 20)
#    0.750    0.000    7.500    0.000    5.250    0.000 
#    6.750    0.000    0.000    0.000    0.000    0.000 
#    0.000    0.000    0.000    0.000    0.000    0.000 
#
# Total GULP energy -99210.715207 kJ/mol
# GULP energy per Si atom -12401.339401 kJ/mol
# Density = 2.028290 g / cm^3
# Si number density = 20.329172 Si / 1000 Ang^3
#
#
#
# Elastic Constant Matrix: (Units=GPa)
#
#
# Indices 1 2 3 4 5 6 
#
# 1 105.8672 48.4106 69.8911 1.8056 0.9553 0.0000
# 2 48.4106 105.8672 69.8911 -1.8056 -0.9553 0.0000
# 3 69.8911 69.8911 145.2925 0.0000 0.0000 0.0000
# 4 1.8056 -1.8056 0.0000 36.6989 0.0000 -0.9553
# 5 0.9553 -0.9553 0.0000 0.0000 36.6989 1.8056
# 6 0.0000 0.0000 0.0000 -0.9553 1.8056 28.7283
#
#
#
# Elastic Compliance Matrix: (Units=1/GPa)
#
#
# Indices 1 2 3 4 5 6 
#
# 1 0.014481 -0.002992 -0.005527 -0.000860 -0.000455 0.000000
# 2 -0.002992 0.014481 -0.005527 0.000860 0.000455 0.000000
# 3 -0.005527 -0.005527 0.012200 0.000000 0.000000 0.000000
# 4 -0.000860 0.000860 0.000000 0.027357 0.000000 0.000910
# 5 -0.000455 0.000455 0.000000 0.000000 0.027357 -0.001719
# 6 0.000000 0.000000 0.000000 0.000910 -0.001719 0.034947
#
#
# Mechanical properties :
#
#
# Convention : Reuss Voigt Hill
#
# Bulk Modulus (GPa) = 76.50330 81.49026 78.99678
# Shear Modulus (GPa) = 30.62362 31.68081 31.15221
#
# Velocity S-wave (km/s) = 3.88543 3.95193 3.91882
# Velocity P-wave (km/s) = 7.60544 7.81000 7.70840
#
# Compressibility (1/GPa) = 0.01307133
#
# Stress axis : x y z
#
# Youngs Moduli (GPa) = 69.05381 69.05381 81.96821
#
# Poissons Ratio (x) = 0.20662 0.45302
# Poissons Ratio (y) = 0.20662 0.45302
# Poissons Ratio (z) = 0.38165 0.38165
#
# Static dielectric constant tensor:
#      x y z
#    x 3.591470 0.000000 0.000000 
#    y 0.000000 3.591470 0.000000 
#    z 0.000000 0.000000 3.764670 
# 
# 
# High freq. dielectric constant tensor:
#      x y z
#    x 1.785790 0.000000 0.000000 
#    y 0.000000 1.785790 0.000000 
#    z 0.000000 0.000000 1.810500 
# 
# From -- ./inp_files/994.got.cif
#   From: 2010.06.25/outbox.cif.g09.slc.cpg/sg146_cif.got.tgz:994.got - 2010.06.28 11:17:22.
