data_PCOD8321597
_publ_section_title
;
Structure prediction by ZEFSAII (Michael W. Deem and Ramdas Pophale) SiO2 
 PCOD8321597
Probable space group: P -3
;
_chemical_formula_sum "Si O2"
_cell_formula_units_Z 48
_cell_length_a 17.596138
_cell_length_b 17.596138
_cell_length_c 8.844853
_cell_angle_alpha 90.000000
_cell_angle_beta 90.000000
_cell_angle_gamma 120.000000
_cell_volume 2371.679336
_symmetry_space_group_name_H-M "P -3"
_symmetry_group_IT_number 147
_symmetry_cell_setting 'hexagonal'
loop_
_space_group_symop_operation_xyz
x,y,z
-y,x-y,z
-x+y,-x,z
-x,-y,-z
y,-x+y,-z
x-y,x,-z
loop_
_atom_site_type_symbol
_atom_site_label
_atom_site_fract_x
_atom_site_fract_y
_atom_site_fract_z
Si Si1 0.645664 0.673346 0.594717
Si Si2 0.172437 0.158097 0.427436
Si Si3 0.171501 0.157026 0.069325
Si Si4 0.360771 0.517191 0.866178
Si Si5 0.639129 0.705114 0.025911
Si Si6 0.454635 0.061425 0.843841
Si Si7 0.179708 0.477739 0.804033
Si Si8 0.982223 0.578021 0.716194
O O1 0.736836 0.753504 0.535730
O O2 0.666701 0.614749 0.712885
O O3 0.584963 0.709716 0.665035
O O4 0.587039 0.609486 0.461652
O O5 0.092409 0.169905 0.483771
O O6 0.165996 0.139936 0.248191
O O7 0.259139 0.245034 0.019500
O O8 0.090971 0.168438 0.020767
O O9 0.284319 0.529274 0.790573
O O10 0.452499 0.601705 0.831256
O O11 0.357460 0.437873 0.772864
O O12 0.349451 0.497873 0.049118
O O13 0.586603 0.604520 0.959074
O O14 0.588167 0.749193 0.947137
O O15 0.618390 0.692599 0.204532
O O16 0.531061 0.053307 0.760931
#
# Coordination Sequence:
#
# PCOD8321597 Si02
#       8
#     6   6   6   6   6   6   6   6
#     4  11  25  40  66 101 134 163 226 270 330 394
#     4  12  28  49  68  95 140 178 214 266 342 400
#     4  12  27  46  71  98 129 174 228 275 328 396
#     4  11  22  38  69  88 132 173 220 263 338 380
#     4  10  21  38  65  97 128 157 227 273 311 381
#     4  10  19  42  63  95 123 171 214 273 318 385
#     4  11  22  42  59  98 130 171 217 274 317 408
#     4  11  21  39  68  94 128 175 209 274 333 374
#
# _framework density 20.238823
#
# number of rings (size 3 to 8) (size 9 to 14) (size 15 to 20)
#    0.000    1.000    6.250    2.375    8.750    0.000 
#    0.000    0.000    0.000    0.000    0.000    0.000 
#    0.000    0.000    0.000    0.000    0.000    0.000 
#
# Total GULP energy -594735.794903 kJ/mol
# GULP energy per Si atom -12390.329060 kJ/mol
# Density = 2.019276 g / cm^3
# Si number density = 20.238823 Si / 1000 Ang^3
#
#
#
# Elastic Constant Matrix: (Units=GPa)
#
#
# Indices 1 2 3 4 5 6 
#
# 1 89.7951 38.6159 28.2224 1.1088 0.6933 0.0000
# 2 38.6159 89.7951 28.2224 -1.1088 -0.6933 0.0000
# 3 28.2224 28.2224 87.0602 0.0000 0.0000 0.0000
# 4 1.1088 -1.1088 0.0000 26.8877 0.0000 -0.6933
# 5 0.6933 -0.6933 0.0000 0.0000 26.8877 1.1088
# 6 0.0000 0.0000 0.0000 -0.6933 1.1088 25.5896
#
#
#
# Elastic Compliance Matrix: (Units=1/GPa)
#
#
# Indices 1 2 3 4 5 6 
#
# 1 0.014335 -0.005253 -0.002944 -0.000808 -0.000505 0.000000
# 2 -0.005253 0.014335 -0.002944 0.000808 0.000505 0.000000
# 3 -0.002944 -0.002944 0.013395 0.000000 0.000000 0.000000
# 4 -0.000808 0.000808 0.000000 0.037284 0.000000 0.001010
# 5 -0.000505 0.000505 0.000000 0.000000 0.037284 -0.001615
# 6 0.000000 0.000000 0.000000 0.001010 -0.001615 0.039176
#
#
# Mechanical properties :
#
#
# Convention : Reuss Voigt Hill
#
# Bulk Modulus (GPa) = 50.55048 50.75245 50.65147
# Shear Modulus (GPa) = 27.07310 27.31232 27.19271
#
# Velocity S-wave (km/s) = 3.66140 3.67754 3.66948
# Velocity P-wave (km/s) = 6.55024 6.56990 6.56008
#
# Compressibility (1/GPa) = 0.01978220
#
# Stress axis : x y z
#
# Youngs Moduli (GPa) = 69.76072 69.76072 74.65469
#
# Poissons Ratio (x) = 0.36646 0.21978
# Poissons Ratio (y) = 0.36646 0.21978
# Poissons Ratio (z) = 0.20537 0.20537
#
# Static dielectric constant tensor:
#      x y z
#    x 3.592910 0.000000 0.000000 
#    y 0.000000 3.592910 0.000000 
#    z 0.000000 0.000000 3.906090 
# 
# 
# High freq. dielectric constant tensor:
#      x y z
#    x 1.785610 0.000000 0.000000 
#    y 0.000000 1.785610 0.000000 
#    z 0.000000 0.000000 1.794630 
# 
# From -- ./inp_files/685.got.cif
#   From: 2010.03.12/outbox.cif.g09.slc.cpg/sg147_cif.got.tgz:685.got - 2010.04.03 13:37:56.
