data_PCOD8321190
_publ_section_title
;
Structure prediction by ZEFSAII (Michael W. Deem and Ramdas Pophale) SiO2 
 PCOD8321190
Probable space group: I 41/A C D
;
_chemical_formula_sum "Si O2"
_cell_formula_units_Z 96
_cell_length_a 13.330129
_cell_length_b 13.330129
_cell_length_c 21.639065
_cell_angle_alpha 90.000000
_cell_angle_beta 90.000000
_cell_angle_gamma 90.000000
_cell_volume 3845.096077
_symmetry_space_group_name_H-M "I 41/A C D"
_symmetry_group_IT_number 142
_space_group.IT_coordinate_system_code '2'
_symmetry_cell_setting 'tetragonal'
loop_
_space_group_symop_operation_xyz
x,y,z
1/4-y,3/4+x,1/4+z
-x,1/2-y,z
1/4+y,1/4-x,3/4+z
x,-y,1/2-z
1/2-x,y,-z
3/4+y,1/4+x,1/4-z
1/4-y,1/4-x,1/4-z
-x,-y,-z
3/4+y,1/4-x,3/4-z
x,1/2+y,-z
3/4-y,3/4+x,1/4-z
-x,y,1/2+z
1/2+x,-y,z
1/4-y,3/4-x,3/4+z
3/4+y,3/4+x,3/4+z
1/2+x,1/2+y,1/2+z
3/4-y,1/4+x,3/4+z
1/2-x,-y,1/2+z
3/4+y,3/4-x,1/4+z
1/2+x,1/2-y,-z
-x,1/2+y,1/2-z
1/4+y,3/4+x,3/4-z
3/4-y,3/4-x,3/4-z
1/2-x,1/2-y,1/2-z
1/4+y,3/4-x,1/4-z
1/2+x,y,1/2-z
1/4-y,1/4+x,3/4-z
1/2-x,1/2+y,z
x,1/2-y,1/2+z
3/4-y,1/4-x,1/4+z
1/4+y,1/4+x,1/4+z
loop_
_atom_site_type_symbol
_atom_site_label
_atom_site_fract_x
_atom_site_fract_y
_atom_site_fract_z
Si Si1 0.284083 0.326019 0.160962
Si Si2 0.100448 0.487301 0.677604
Si Si3 0.523947 0.637374 0.530328
O O1 0.269149 0.257215 0.100948
O O2 0.313119 0.441605 0.147246
O O3 0.372527 0.287828 0.206942
O O4 0.179693 0.320762 0.198837
O O5 0.082476 0.500000 0.750000
O O6 0.140970 0.370730 0.675714
O O7 0.500000 0.750000 0.545766
#
# Coordination Sequence:
#
# PCOD8321190 Si02
#       3
#    32  32  32
#     4  10  23  43  72 103 149 190 246 322 366 457
#     4  10  23  42  70 111 143 194 257 305 381 460
#     4  10  23  47  71 103 146 197 252 306 388 449
#
# _framework density 24.966864999999999
#
# number of rings (size 3 to 8) (size 9 to 14) (size 15 to 20)
#    0.000    2.000    0.000    1.000    9.333    2.667 
#   12.000    8.333    0.000    0.000    0.000    0.000 
#    0.000    0.000    0.000    0.000    0.000    0.000 
#
# Total GULP energy -594662.045827 kJ/mol
# GULP energy per Si atom -12388.792621 kJ/mol
# Density = 2.491004 g / cm^3
# Si number density = 24.966865 Si / 1000 Ang^3
#
#
#
# Elastic Constant Matrix: (Units=GPa)
#
#
# Indices 1 2 3 4 5 6 
#
# 1 123.8816 84.8294 11.8341 0.0000 0.0000 0.0000
# 2 84.8294 123.8816 11.8341 0.0000 0.0000 0.0000
# 3 11.8341 11.8341 82.9576 0.0000 0.0000 0.0000
# 4 0.0000 0.0000 0.0000 35.3805 0.0000 0.0000
# 5 0.0000 0.0000 0.0000 0.0000 35.3805 0.0000
# 6 0.0000 0.0000 0.0000 0.0000 0.0000 28.9966
#
#
#
# Elastic Compliance Matrix: (Units=1/GPa)
#
#
# Indices 1 2 3 4 5 6 
#
# 1 0.015238 -0.010368 -0.000695 0.000000 0.000000 0.000000
# 2 -0.010368 0.015238 -0.000695 0.000000 0.000000 0.000000
# 3 -0.000695 -0.000695 0.012253 0.000000 0.000000 0.000000
# 4 0.000000 0.000000 0.000000 0.028264 0.000000 0.000000
# 5 0.000000 0.000000 0.000000 0.000000 0.028264 0.000000
# 6 0.000000 0.000000 0.000000 0.000000 0.000000 0.034487
#
#
# Mechanical properties :
#
#
# Convention : Reuss Voigt Hill
#
# Bulk Modulus (GPa) = 52.04582 60.85733 56.45157
# Shear Modulus (GPa) = 30.55027 34.76642 32.65835
#
# Velocity S-wave (km/s) = 3.50184 3.73567 3.62065
# Velocity P-wave (km/s) = 6.10260 6.56012 6.33549
#
# Compressibility (1/GPa) = 0.01921384
#
# Stress axis : x y z
#
# Youngs Moduli (GPa) = 65.62357 65.62357 81.61559
#
# Poissons Ratio (x) = 0.68041 0.05670
# Poissons Ratio (y) = 0.68041 0.05670
# Poissons Ratio (z) = 0.04559 0.04559
#
# Static dielectric constant tensor:
#      x y z
#    x 4.675190 0.000000 0.000000 
#    y 0.000000 4.675190 0.000000 
#    z 0.000000 0.000000 4.680040 
# 
# 
# High freq. dielectric constant tensor:
#      x y z
#    x 1.988200 0.000000 0.000000 
#    y 0.000000 1.988200 0.000000 
#    z 0.000000 0.000000 2.019960 
# 
# From -- ./inp_files/8387.got.cif
#   From: 2010.03.12/outbox.cif.g09.slc.cpg/sg142_5_cif.got.tgz:8387.got - 2010.04.03 13:27:16.
