data_PCOD8321871
_publ_section_title
;
Structure prediction by ZEFSAII (Michael W. Deem and Ramdas Pophale) SiO2 
 PCOD8321871
Probable space group: P 3 2 1
;
_chemical_formula_sum "Si O2"
_cell_formula_units_Z 28
_cell_length_a 16.512770
_cell_length_b 16.512770
_cell_length_c 8.313154
_cell_angle_alpha 90.000000
_cell_angle_beta 90.000000
_cell_angle_gamma 120.000000
_cell_volume 1963.072418
_symmetry_space_group_name_H-M "P 3 2 1"
_symmetry_group_IT_number 150
_symmetry_cell_setting 'hexagonal'
loop_
_space_group_symop_operation_xyz
x,y,z
-y,x-y,z
-x+y,-x,z
x-y,-y,-z
-x,-x+y,-z
y,x,-z
loop_
_atom_site_type_symbol
_atom_site_label
_atom_site_fract_x
_atom_site_fract_y
_atom_site_fract_z
Si Si1 0.666668 0.333335 0.686212
Si Si2 0.462364 0.847361 0.125778
Si Si3 0.087980 0.443882 0.899769
Si Si4 0.469400 0.269048 0.177321
Si Si5 0.666668 0.333334 0.308924
Si Si6 0.470008 0.440462 0.315650
O O1 0.644601 0.232069 0.742211
O O2 0.666668 0.333334 0.497812
O O3 0.540385 0.940990 0.210654
O O4 0.383965 0.857141 0.028203
O O5 0.522079 0.823675 0.004864
O O6 0.154951 0.403547 0.834498
O O7 0.061419 0.486989 0.746806
O O8 0.000000 0.363413 0.000000
O O9 0.563180 0.275756 0.243009
O O10 0.440301 0.330542 0.290852
O O11 0.461324 0.461324 0.500000
#
# Coordination Sequence:
#
# PCOD8321871 Si02
#       6
#     2   6   6   6   2   6
#     4  12  19  26  43  66  88 116 166 201 229 275
#     4  10  18  30  44  60  86 120 159 196 226 281
#     4   9  18  30  45  59  82 120 155 199 232 269
#     4  11  17  32  45  58  86 122 157 194 235 278
#     4  12  19  23  40  66  82 116 160 198 229 266
#     4  10  20  31  42  66  94 113 156 204 241 266
#
# _framework density 14.263354
#
# number of rings (size 3 to 8) (size 9 to 14) (size 15 to 20)
#    0.000    1.714    6.429    3.214    0.000    0.000 
#    0.000    0.000    0.000    0.000    0.000    0.000 
#    0.000    0.000    0.000    5.143    0.000   10.714 
#
# Total GULP energy -346867.070473 kJ/mol
# GULP energy per Si atom -12388.109660 kJ/mol
# Density = 1.423089 g / cm^3
# Si number density = 14.263354 Si / 1000 Ang^3
#
#
#
# Elastic Constant Matrix: (Units=GPa)
#
#
# Indices 1 2 3 4 5 6 
#
# 1 74.7117 28.0425 30.7480 -0.4450 0.0000 0.0000
# 2 28.0425 74.7106 30.7476 0.4433 0.0000 0.0000
# 3 30.7480 30.7476 105.6010 0.0005 0.0000 0.0000
# 4 -0.4450 0.4433 0.0005 32.8432 0.0000 0.0000
# 5 0.0000 0.0000 0.0000 0.0000 32.8469 -0.4428
# 6 0.0000 0.0000 0.0000 0.0000 -0.4428 23.3336
#
#
#
# Elastic Compliance Matrix: (Units=1/GPa)
#
#
# Indices 1 2 3 4 5 6 
#
# 1 0.016609 -0.004824 -0.003432 0.000290 0.000000 0.000000
# 2 -0.004824 0.016610 -0.003432 -0.000290 0.000000 0.000000
# 3 -0.003432 -0.003432 0.011468 0.000000 0.000000 0.000000
# 4 0.000290 -0.000290 0.000000 0.030456 0.000000 0.000000
# 5 0.000000 0.000000 0.000000 0.000000 0.030452 0.000578
# 6 0.000000 0.000000 0.000000 0.000000 0.000578 0.042868
#
#
# Mechanical properties :
#
#
# Convention : Reuss Voigt Hill
#
# Bulk Modulus (GPa) = 46.91990 48.23327 47.57659
# Shear Modulus (GPa) = 27.94224 28.83708 28.38966
#
# Velocity S-wave (km/s) = 4.43089 4.50128 4.46622
# Velocity P-wave (km/s) = 7.69050 7.80416 7.74754
#
# Compressibility (1/GPa) = 0.02131292
#
# Stress axis : x y z
#
# Youngs Moduli (GPa) = 60.20697 60.20619 87.19918
#
# Poissons Ratio (x) = 0.29042 0.29924
# Poissons Ratio (y) = 0.29042 0.29924
# Poissons Ratio (z) = 0.20661 0.20661
#
# Static dielectric constant tensor:
#      x y z
#    x 2.692190 0.000000 0.000000 
#    y 0.000000 2.692210 0.000000 
#    z 0.000000 0.000000 2.914140 
# 
# 
# High freq. dielectric constant tensor:
#      x y z
#    x 1.517370 0.000000 0.000000 
#    y 0.000000 1.517370 0.000000 
#    z 0.000000 0.000000 1.556660 
# 
# From -- ./inp_files/625.got.cif
#   From: 2010.03.12/outbox.cif.g09.slc.cpg/sg150_cif.got.tgz:625.got - 2010.04.03 13:41:37.
