data_PCOD8321733
_publ_section_title
;
Structure prediction by ZEFSAII (Michael W. Deem and Ramdas Pophale) SiO2 
 PCOD8321733
Probable space group: R -3
;
_chemical_formula_sum "Si O2"
_cell_formula_units_Z 126
_cell_length_a 16.923687
_cell_length_b 16.923687
_cell_length_c 25.604049
_cell_angle_alpha 90.000000
_cell_angle_beta 90.000000
_cell_angle_gamma 120.000000
_cell_volume 6350.811908
_symmetry_space_group_name_H-M "R -3"
_symmetry_group_IT_number 148
_symmetry_cell_setting 'hexagonal'
loop_
_space_group_symop_operation_xyz
x,y,z
-y,x-y,z
-x+y,-x,z
-x,-y,-z
y,-x+y,-z
x-y,x,-z
2/3+x,1/3+y,1/3+z
2/3-y,1/3+x-y,1/3+z
2/3-x+y,1/3-x,1/3+z
2/3-x,1/3-y,1/3-z
2/3+y,1/3-x+y,1/3-z
2/3+x-y,1/3+x,1/3-z
1/3+x,2/3+y,2/3+z
1/3-y,2/3+x-y,2/3+z
1/3-x+y,2/3-x,2/3+z
1/3-x,2/3-y,2/3-z
1/3+y,2/3-x+y,2/3-z
1/3+x-y,2/3+x,2/3-z
loop_
_atom_site_type_symbol
_atom_site_label
_atom_site_fract_x
_atom_site_fract_y
_atom_site_fract_z
Si Si1 0.424822 0.484200 0.382903
Si Si2 0.136625 0.927173 0.004656
Si Si3 0.464817 0.414224 0.115519
Si Si4 0.104802 0.650714 0.933594
Si Si5 0.812840 0.959565 0.611405
Si Si6 0.127122 0.619285 0.048876
Si Si7 0.645622 0.928020 0.564954
O O1 0.500043 0.452551 0.374632
O O2 0.353389 0.424460 0.426440
O O3 0.464000 0.590800 0.397321
O O4 0.368663 0.463322 0.329568
O O5 0.184344 0.929246 0.059027
O O6 0.028286 0.866064 0.012924
O O7 0.573165 0.466311 0.102261
O O8 0.424275 0.475900 0.093808
O O9 0.452572 0.393327 0.176510
O O10 0.042740 0.688866 0.909700
O O11 0.078535 0.608814 0.992507
O O12 0.806125 0.862874 0.606345
O O13 0.752966 0.960412 0.563273
O O14 0.910535 0.049808 0.613678
#
# Coordination Sequence:
#
# PCOD8321733 Si02
#       7
#    18  18  18  18  18  18  18
#     4  10  23  41  68  93 123 166 217 267 312 383
#     4  11  23  45  71  94 123 168 222 272 323 386
#     4  12  25  40  65  96 133 173 208 264 332 380
#     4  11  22  45  66  92 125 172 218 264 318 390
#     4  10  21  37  61  97 127 163 216 255 303 382
#     4  11  21  38  68  93 130 173 212 258 311 387
#     4  11  25  41  61  98 127 165 215 269 319 383
#
# _framework density 19.839981999999999
#
# number of rings (size 3 to 8) (size 9 to 14) (size 15 to 20)
#    0.000    1.143    4.286    2.571    6.000    0.571 
#    3.429    0.000    0.000    1.714    0.000    0.000 
#    0.000    0.000    0.000    0.000    0.000    0.000 
#
# Total GULP energy -520543.638137 kJ/mol
# GULP energy per Si atom -12393.896146 kJ/mol
# Density = 1.979483 g / cm^3
# Si number density = 19.839982 Si / 1000 Ang^3
#
#
#
# Elastic Constant Matrix: (Units=GPa)
#
#
# Indices 1 2 3 4 5 6 
#
# 1 95.9834 25.2262 36.5905 -2.3373 -0.0267 0.0000
# 2 25.2262 95.9834 36.5905 2.3373 0.0267 0.0000
# 3 36.5905 36.5905 78.8368 0.0000 0.0000 0.0000
# 4 -2.3373 2.3373 0.0000 12.5575 0.0000 0.0267
# 5 -0.0267 0.0267 0.0000 0.0000 12.5575 -2.3373
# 6 0.0000 0.0000 0.0000 0.0267 -2.3373 35.3786
#
#
#
# Elastic Compliance Matrix: (Units=1/GPa)
#
#
# Indices 1 2 3 4 5 6 
#
# 1 0.012885 -0.001423 -0.005320 0.002663 0.000030 0.000000
# 2 -0.001423 0.012885 -0.005320 -0.002663 -0.000030 0.000000
# 3 -0.005320 -0.005320 0.017623 0.000000 0.000000 0.000000
# 4 0.002663 -0.002663 0.000000 0.080625 0.000000 -0.000061
# 5 0.000030 -0.000030 0.000000 0.000000 0.080625 0.005327
# 6 0.000000 0.000000 0.000000 -0.000061 0.005327 0.028618
#
#
# Mechanical properties :
#
#
# Convention : Reuss Voigt Hill
#
# Bulk Modulus (GPa) = 51.90150 51.95757 51.92954
# Shear Modulus (GPa) = 18.95300 23.59180 21.27240
#
# Velocity S-wave (km/s) = 3.09414 3.45208 3.27800
# Velocity P-wave (km/s) = 6.24354 6.49109 6.36852
#
# Compressibility (1/GPa) = 0.01926727
#
# Stress axis : x y z
#
# Youngs Moduli (GPa) = 77.60684 77.60684 56.74506
#
# Poissons Ratio (x) = 0.11046 0.30188
# Poissons Ratio (y) = 0.11046 0.30188
# Poissons Ratio (z) = 0.41286 0.41286
#
# Static dielectric constant tensor:
#      x y z
#    x 3.640240 0.000000 0.000000 
#    y 0.000000 3.640240 0.000000 
#    z 0.000000 0.000000 3.486100 
# 
# 
# High freq. dielectric constant tensor:
#      x y z
#    x 1.781060 0.000000 0.000000 
#    y 0.000000 1.781060 0.000000 
#    z 0.000000 0.000000 1.751300 
# 
# From -- ./inp_files/3436.got.cif
#   From: 2010.03.12/outbox.cif.g09.slc.cpg/sg148_2_cif.got.tgz:3436.got - 2010.04.03 13:38:46.
