data_PCOD8321017
_publ_section_title
;
Structure prediction by ZEFSAII (Michael W. Deem and Ramdas Pophale) SiO2 
 PCOD8321017
Probable space group: I 41/A C D
;
_chemical_formula_sum "Si O2"
_cell_formula_units_Z 240
_cell_length_a 30.347205
_cell_length_b 30.347205
_cell_length_c 13.443303
_cell_angle_alpha 90.000000
_cell_angle_beta 90.000000
_cell_angle_gamma 90.000000
_cell_volume 12380.648229
_symmetry_space_group_name_H-M "I 41/A C D"
_symmetry_group_IT_number 142
_space_group.IT_coordinate_system_code '2'
_symmetry_cell_setting 'tetragonal'
loop_
_space_group_symop_operation_xyz
x,y,z
1/4-y,3/4+x,1/4+z
-x,1/2-y,z
1/4+y,1/4-x,3/4+z
x,-y,1/2-z
1/2-x,y,-z
3/4+y,1/4+x,1/4-z
1/4-y,1/4-x,1/4-z
-x,-y,-z
3/4+y,1/4-x,3/4-z
x,1/2+y,-z
3/4-y,3/4+x,1/4-z
-x,y,1/2+z
1/2+x,-y,z
1/4-y,3/4-x,3/4+z
3/4+y,3/4+x,3/4+z
1/2+x,1/2+y,1/2+z
3/4-y,1/4+x,3/4+z
1/2-x,-y,1/2+z
3/4+y,3/4-x,1/4+z
1/2+x,1/2-y,-z
-x,1/2+y,1/2-z
1/4+y,3/4+x,3/4-z
3/4-y,3/4-x,3/4-z
1/2-x,1/2-y,1/2-z
1/4+y,3/4-x,1/4-z
1/2+x,y,1/2-z
1/4-y,1/4+x,3/4-z
1/2-x,1/2+y,z
x,1/2-y,1/2+z
3/4-y,1/4-x,1/4+z
1/4+y,1/4+x,1/4+z
loop_
_atom_site_type_symbol
_atom_site_label
_atom_site_fract_x
_atom_site_fract_y
_atom_site_fract_z
Si Si1 0.294171 0.120354 0.275897
Si Si2 0.490657 0.640139 0.890075
Si Si3 0.634221 0.551517 0.248190
Si Si4 0.145685 0.647922 0.676661
Si Si5 0.328891 0.319078 0.614727
Si Si6 0.463106 0.286241 0.990200
Si Si7 0.645069 0.958672 0.074355
Si Si8 0.407419 0.000000 0.750000
O O1 0.309136 0.134048 0.386850
O O2 0.321300 0.078810 0.234197
O O3 0.304345 0.165174 0.215187
O O4 0.243755 0.101670 0.267155
O O5 0.446562 0.623353 0.943265
O O6 0.520138 0.597831 0.867420
O O7 0.479056 0.667499 0.790455
O O8 0.519526 0.668504 0.965592
O O9 0.644442 0.500000 0.250000
O O10 0.600926 0.569938 0.333058
O O11 0.104481 0.616163 0.660428
O O12 0.168353 0.633172 0.779838
O O13 0.292591 0.314070 0.527857
O O14 0.500000 0.250000 0.010566
O O15 0.454799 0.295202 0.875000
O O16 0.690052 0.940052 0.125000
O O17 0.622640 0.987596 0.157891
#
# Coordination Sequence:
#
# PCOD8321017 Si02
#       8
#    32  32  32  32  32  32  32  16
#     4   9  21  37  60  87 121 162 200 261 312 364
#     4  12  22  43  64  93 131 158 212 264 314 393
#     4  10  19  39  60  86 122 156 207 257 312 378
#     4  11  22  38  66  91 118 168 208 257 320 382
#     4  10  21  40  62  90 124 166 204 254 317 373
#     4  11  22  39  65  95 126 159 200 265 329 378
#     4  11  21  39  62  88 123 167 214 258 316 376
#     4  10  22  40  60  88 130 164 210 266 302 378
#
# _framework density 19.385092
#
# number of rings (size 3 to 8) (size 9 to 14) (size 15 to 20)
#    0.000    1.467    5.333    0.000    0.000    2.133 
#    7.200    2.667    0.000    0.000    0.000    0.000 
#    0.000    0.000    0.000    0.000    0.000    0.000 
#
# Total GULP energy -1487249.647372 kJ/mol
# GULP energy per Si atom -12393.747061 kJ/mol
# Density = 1.934097 g / cm^3
# Si number density = 19.385092 Si / 1000 Ang^3
#
#
#
# Elastic Constant Matrix: (Units=GPa)
#
#
# Indices 1 2 3 4 5 6 
#
# 1 95.9570 36.5835 24.2397 0.0000 0.0000 0.0000
# 2 36.5835 95.9571 24.2403 0.0000 0.0000 0.0000
# 3 24.2397 24.2403 74.2060 0.0000 0.0000 0.0000
# 4 0.0000 0.0000 0.0000 14.3615 0.0000 0.0000
# 5 0.0000 0.0000 0.0000 0.0000 14.3617 0.0000
# 6 0.0000 0.0000 0.0000 0.0000 0.0000 30.3080
#
#
#
# Elastic Compliance Matrix: (Units=1/GPa)
#
#
# Indices 1 2 3 4 5 6 
#
# 1 0.012706 -0.004137 -0.002799 0.000000 0.000000 0.000000
# 2 -0.004137 0.012706 -0.002799 0.000000 0.000000 0.000000
# 3 -0.002799 -0.002799 0.015305 0.000000 0.000000 0.000000
# 4 0.000000 0.000000 0.000000 0.069630 0.000000 0.000000
# 5 0.000000 0.000000 0.000000 0.000000 0.069630 0.000000
# 6 0.000000 0.000000 0.000000 0.000000 0.000000 0.032995
#
#
# Mechanical properties :
#
#
# Convention : Reuss Voigt Hill
#
# Bulk Modulus (GPa) = 47.06793 48.47190 47.76992
# Shear Modulus (GPa) = 20.87485 23.87667 22.37576
#
# Velocity S-wave (km/s) = 3.28510 3.51337 3.40115
# Velocity P-wave (km/s) = 6.22273 6.44340 6.33402
#
# Compressibility (1/GPa) = 0.02124589
#
# Stress axis : x y z
#
# Youngs Moduli (GPa) = 78.70557 78.70537 65.33961
#
# Poissons Ratio (x) = 0.32560 0.18288
# Poissons Ratio (y) = 0.32560 0.18289
# Poissons Ratio (z) = 0.22029 0.22030
#
# Static dielectric constant tensor:
#      x y z
#    x 3.630660 0.000000 0.000000 
#    y 0.000000 3.630670 0.000000 
#    z 0.000000 0.000000 3.820480 
# 
# 
# High freq. dielectric constant tensor:
#      x y z
#    x 1.746750 0.000000 0.000000 
#    y 0.000000 1.746750 0.000000 
#    z 0.000000 0.000000 1.763600 
# 
# From -- ./inp_files/5928.got.cif
#   From: 2010.03.12/outbox.cif.g09.slc.cpg/sg142_3_cif.got.tgz:5928.got - 2010.04.03 13:27:16.
