data_PCOD8321930
_publ_section_title
;
Structure prediction by ZEFSAII (Michael W. Deem and Ramdas Pophale) SiO2 
 PCOD8321930
Probable space group: P 31 1 2
;
_chemical_formula_sum "Si O2"
_cell_formula_units_Z 24
_cell_length_a 8.179994
_cell_length_b 8.179994
_cell_length_c 22.178816
_cell_angle_alpha 90.000000
_cell_angle_beta 90.000000
_cell_angle_gamma 120.000000
_cell_volume 1285.212556
_symmetry_space_group_name_H-M "P 31 1 2"
_symmetry_group_IT_number 151
_symmetry_cell_setting 'hexagonal'
loop_
_space_group_symop_operation_xyz
x,y,z
-y,x-y,1/3+z
-x+y,-x,2/3+z
-y,-x,2/3-z
-x+y,y,1/3-z
x,x-y,-z
loop_
_atom_site_type_symbol
_atom_site_label
_atom_site_fract_x
_atom_site_fract_y
_atom_site_fract_z
Si Si1 0.778513 0.986021 0.775893
Si Si2 0.060284 0.500626 0.170923
Si Si3 0.108520 0.310708 0.731896
Si Si4 0.730832 0.084194 0.163379
O O1 0.883419 0.116582 0.833334
O O2 0.902537 0.118780 0.720488
O O3 0.561706 0.939696 0.779497
O O4 0.778100 0.788646 0.779730
O O5 0.227665 0.455329 0.166667
O O6 0.084280 0.614747 0.232799
O O7 0.864951 0.306434 0.168281
O O8 0.196552 0.393104 0.666667
O O9 0.240463 0.248578 0.768224
O O10 0.515588 0.031176 0.166667
#
# Coordination Sequence:
#
# PCOD8321930 Si02
#       4
#     6   6   6   6
#     4   8  16  31  50  73 101 136 170 205 256 319
#     4  10  18  34  56  77 103 144 180 208 258 331
#     4  10  20  35  54  81 109 133 175 234 270 299
#     4  10  18  34  56  77 102 143 180 207 257 331
#
# _framework density 18.673954999999999
#
# number of rings (size 3 to 8) (size 9 to 14) (size 15 to 20)
#    0.000    3.000    0.000    7.500    0.000    0.000 
#    0.000   15.000    0.000    0.000    0.000    0.000 
#    0.000    0.000    0.000    0.000    0.000    0.000 
#
# Total GULP energy -297319.145457 kJ/mol
# GULP energy per Si atom -12388.297727 kJ/mol
# Density = 1.863145 g / cm^3
# Si number density = 18.673955 Si / 1000 Ang^3
#
#
#
# Elastic Constant Matrix: (Units=GPa)
#
#
# Indices 1 2 3 4 5 6 
#
# 1 97.0952 7.2033 12.3396 -0.0001 3.9788 0.0000
# 2 7.2033 97.0952 12.3396 0.0001 -3.9788 0.0000
# 3 12.3396 12.3396 46.7949 0.0000 0.0000 0.0000
# 4 -0.0001 0.0001 0.0000 15.0210 0.0000 -3.9788
# 5 3.9788 -3.9788 0.0000 0.0000 15.0210 -0.0001
# 6 0.0000 0.0000 0.0000 -3.9788 -0.0001 44.9459
#
#
#
# Elastic Compliance Matrix: (Units=1/GPa)
#
#
# Indices 1 2 3 4 5 6 
#
# 1 0.010809 -0.000583 -0.002697 0.000000 -0.003017 0.000000
# 2 -0.000583 0.010809 -0.002697 0.000000 0.003017 0.000000
# 3 -0.002697 -0.002697 0.022792 0.000000 0.000000 0.000000
# 4 0.000000 0.000000 0.000000 0.068172 0.000000 0.006035
# 5 -0.003017 0.003017 0.000000 0.000000 0.068172 0.000000
# 6 0.000000 0.000000 0.000000 0.006035 0.000000 0.022783
#
#
# Mechanical properties :
#
#
# Convention : Reuss Voigt Hill
#
# Bulk Modulus (GPa) = 30.80934 33.86115 32.33525
# Shear Modulus (GPa) = 22.09387 28.93780 25.51583
#
# Velocity S-wave (km/s) = 3.44341 3.94081 3.70048
# Velocity P-wave (km/s) = 5.68716 6.23529 5.96752
#
# Compressibility (1/GPa) = 0.03245769
#
# Stress axis : x y z
#
# Youngs Moduli (GPa) = 92.51764 92.51764 43.87515
#
# Poissons Ratio (x) = 0.05392 0.11831
# Poissons Ratio (y) = 0.05392 0.11831
# Poissons Ratio (z) = 0.24948 0.24948
#
# Static dielectric constant tensor:
#      x y z
#    x 3.731060 0.000000 0.000000 
#    y 0.000000 3.731060 0.000000 
#    z 0.000000 0.000000 3.175060 
# 
# 
# High freq. dielectric constant tensor:
#      x y z
#    x 1.740930 0.000000 0.000000 
#    y 0.000000 1.740930 0.000000 
#    z 0.000000 0.000000 1.660990 
# 
# From -- ./inp_files/3761.got.cif
#   From: 2010.03.12/outbox.cif.g09.slc.cpg/sg151_2_cif.got.tgz:3761.got - 2010.04.03 13:42:29.
