data_PCOD8321787
_publ_section_title
;
Structure prediction by ZEFSAII (Michael W. Deem and Ramdas Pophale) SiO2 
 PCOD8321787
Probable space group: R -3
;
_chemical_formula_sum "Si O2"
_cell_formula_units_Z 108
_cell_length_a 23.202223
_cell_length_b 23.202223
_cell_length_c 14.020566
_cell_angle_alpha 90.000000
_cell_angle_beta 90.000000
_cell_angle_gamma 120.000000
_cell_volume 6536.652097
_symmetry_space_group_name_H-M "R -3"
_symmetry_group_IT_number 148
_symmetry_cell_setting 'hexagonal'
loop_
_space_group_symop_operation_xyz
x,y,z
-y,x-y,z
-x+y,-x,z
-x,-y,-z
y,-x+y,-z
x-y,x,-z
2/3+x,1/3+y,1/3+z
2/3-y,1/3+x-y,1/3+z
2/3-x+y,1/3-x,1/3+z
2/3-x,1/3-y,1/3-z
2/3+y,1/3-x+y,1/3-z
2/3+x-y,1/3+x,1/3-z
1/3+x,2/3+y,2/3+z
1/3-y,2/3+x-y,2/3+z
1/3-x+y,2/3-x,2/3+z
1/3-x,2/3-y,2/3-z
1/3+y,2/3-x+y,2/3-z
1/3+x-y,2/3+x,2/3-z
loop_
_atom_site_type_symbol
_atom_site_label
_atom_site_fract_x
_atom_site_fract_y
_atom_site_fract_z
Si Si1 0.694111 0.652086 0.586832
Si Si2 0.613728 0.827228 0.533025
Si Si3 0.090419 0.934357 0.005228
Si Si4 0.041610 0.753389 0.215320
Si Si5 0.030499 0.562142 0.379267
Si Si6 0.919040 0.758710 0.170906
O O1 0.737510 0.629569 0.526064
O O2 0.735409 0.700077 0.673329
O O3 0.665368 0.689239 0.520908
O O4 0.638670 0.585289 0.639741
O O5 0.536618 0.788569 0.568396
O O6 0.634725 0.781846 0.472652
O O7 0.661020 0.849441 0.623784
O O8 0.109671 0.909194 0.911686
O O9 0.011480 0.895545 0.008145
O O10 0.995283 0.786371 0.199395
O O11 0.091856 0.550570 0.406408
O O12 0.983496 0.543112 0.471816
#
# Coordination Sequence:
#
# PCOD8321787 Si02
#       6
#    18  18  18  18  18  18
#     4  11  21  35  54  80 113 145 182 228 277 327
#     4  11  21  35  54  80 113 145 182 228 277 327
#     4  11  21  35  54  80 113 145 182 228 277 327
#     4  11  21  35  54  80 113 145 182 228 277 327
#     4   9  18  32  52  75 105 144 181 217 265 330
#     4   9  18  32  52  75 105 144 181 217 265 330
#
# _framework density 16.522220000000001
#
# number of rings (size 3 to 8) (size 9 to 14) (size 15 to 20)
#    0.000    1.667    3.333    2.667    0.000    2.667 
#    0.000    0.000    0.000    0.000    0.000    0.000 
#    0.000    0.000    0.000    5.000    0.000    0.000 
#
# Total GULP energy -446191.734956 kJ/mol
# GULP energy per Si atom -12394.214860 kJ/mol
# Density = 1.648461 g / cm^3
# Si number density = 16.522220 Si / 1000 Ang^3
#
#
#
# Elastic Constant Matrix: (Units=GPa)
#
#
# Indices 1 2 3 4 5 6 
#
# 1 66.2901 18.6098 9.5249 -0.5405 -0.3197 0.0000
# 2 18.6098 66.2901 9.5249 0.5405 0.3197 0.0000
# 3 9.5249 9.5249 52.6215 0.0000 0.0000 0.0000
# 4 -0.5405 0.5405 0.0000 23.8196 0.0000 0.3197
# 5 -0.3197 0.3197 0.0000 0.0000 23.8196 -0.5405
# 6 0.0000 0.0000 0.0000 0.3197 -0.5405 23.8401
#
#
#
# Elastic Compliance Matrix: (Units=1/GPa)
#
#
# Indices 1 2 3 4 5 6 
#
# 1 0.016632 -0.004355 -0.002222 0.000476 0.000282 0.000000
# 2 -0.004355 0.016632 -0.002222 -0.000476 -0.000282 0.000000
# 3 -0.002222 -0.002222 0.019808 0.000000 0.000000 0.000000
# 4 0.000476 -0.000476 0.000000 0.042011 0.000000 -0.000563
# 5 0.000282 -0.000282 0.000000 0.000000 0.042011 0.000952
# 6 0.000000 0.000000 0.000000 -0.000563 0.000952 0.041975
#
#
# Mechanical properties :
#
#
# Convention : Reuss Voigt Hill
#
# Bulk Modulus (GPa) = 28.19010 28.94679 28.56844
# Shear Modulus (GPa) = 23.98140 24.13201 24.05670
#
# Velocity S-wave (km/s) = 3.81394 3.82590 3.81992
# Velocity P-wave (km/s) = 6.04101 6.08889 6.06500
#
# Compressibility (1/GPa) = 0.03547345
#
# Stress axis : x y z
#
# Youngs Moduli (GPa) = 60.12357 60.12357 50.48429
#
# Poissons Ratio (x) = 0.26185 0.11219
# Poissons Ratio (y) = 0.26185 0.11219
# Poissons Ratio (z) = 0.13361 0.13361
#
# Static dielectric constant tensor:
#      x y z
#    x 3.127780 0.000000 0.000000 
#    y 0.000000 3.127780 0.000000 
#    z 0.000000 0.000000 3.010960 
# 
# 
# High freq. dielectric constant tensor:
#      x y z
#    x 1.633100 0.000000 0.000000 
#    y 0.000000 1.633100 0.000000 
#    z 0.000000 0.000000 1.628340 
# 
# From -- ./inp_files/1524.got.cif
#   From: 2010.03.12/outbox.cif.g09.slc.cpg/sg148_1_cif.got.tgz:1524.got - 2010.04.03 13:38:46.
