data_PCOD8321211
_publ_section_title
;
Structure prediction by ZEFSAII (Michael W. Deem and Ramdas Pophale) SiO2 
 PCOD8321211
Probable space group: I 41/A C D
;
_chemical_formula_sum "Si O2"
_cell_formula_units_Z 96
_cell_length_a 18.843607
_cell_length_b 18.843607
_cell_length_c 10.870706
_cell_angle_alpha 90.000000
_cell_angle_beta 90.000000
_cell_angle_gamma 90.000000
_cell_volume 3859.986862
_symmetry_space_group_name_H-M "I 41/A C D"
_symmetry_group_IT_number 142
_space_group.IT_coordinate_system_code '2'
_symmetry_cell_setting 'tetragonal'
loop_
_space_group_symop_operation_xyz
x,y,z
1/4-y,3/4+x,1/4+z
-x,1/2-y,z
1/4+y,1/4-x,3/4+z
x,-y,1/2-z
1/2-x,y,-z
3/4+y,1/4+x,1/4-z
1/4-y,1/4-x,1/4-z
-x,-y,-z
3/4+y,1/4-x,3/4-z
x,1/2+y,-z
3/4-y,3/4+x,1/4-z
-x,y,1/2+z
1/2+x,-y,z
1/4-y,3/4-x,3/4+z
3/4+y,3/4+x,3/4+z
1/2+x,1/2+y,1/2+z
3/4-y,1/4+x,3/4+z
1/2-x,-y,1/2+z
3/4+y,3/4-x,1/4+z
1/2+x,1/2-y,-z
-x,1/2+y,1/2-z
1/4+y,3/4+x,3/4-z
3/4-y,3/4-x,3/4-z
1/2-x,1/2-y,1/2-z
1/4+y,3/4-x,1/4-z
1/2+x,y,1/2-z
1/4-y,1/4+x,3/4-z
1/2-x,1/2+y,z
x,1/2-y,1/2+z
3/4-y,1/4-x,1/4+z
1/4+y,1/4+x,1/4+z
loop_
_atom_site_type_symbol
_atom_site_label
_atom_site_fract_x
_atom_site_fract_y
_atom_site_fract_z
Si Si1 0.578363 0.019782 0.470402
Si Si2 0.376984 0.132429 0.576887
Si Si3 0.885006 0.224071 0.542353
O O1 0.610691 0.060891 0.584174
O O2 0.570891 0.067897 0.346959
O O3 0.500000 0.000000 0.500000
O O4 0.625905 0.949241 0.464331
O O5 0.373689 0.190171 0.464267
O O6 0.450324 0.145667 0.651133
O O7 0.954038 0.204038 0.625000
#
# Coordination Sequence:
#
# PCOD8321211 Si02
#       3
#    32  32  32
#     4  11  24  47  78 107 158 199 252 316 376 456
#     4  11  23  47  79 109 151 205 250 316 382 447
#     4  10  24  47  75 110 152 193 256 313 380 450
#
# _framework density 24.870552
#
# number of rings (size 3 to 8) (size 9 to 14) (size 15 to 20)
#    0.000    1.333    3.333    1.000    0.000    2.000 
#    6.000    0.000   73.333    0.000    0.000    0.000 
#    0.000    0.000    0.000    0.000    0.000    0.000 
#
# Total GULP energy -594829.573253 kJ/mol
# GULP energy per Si atom -12392.282776 kJ/mol
# Density = 2.481395 g / cm^3
# Si number density = 24.870552 Si / 1000 Ang^3
#
#
#
# Elastic Constant Matrix: (Units=GPa)
#
#
# Indices 1 2 3 4 5 6 
#
# 1 155.0755 98.2940 54.1382 0.0000 0.0000 0.0000
# 2 98.2940 155.0755 54.1382 0.0000 0.0000 0.0000
# 3 54.1382 54.1382 68.6084 0.0000 0.0000 0.0000
# 4 0.0000 0.0000 0.0000 31.0101 0.0000 0.0000
# 5 0.0000 0.0000 0.0000 0.0000 31.0101 0.0000
# 6 0.0000 0.0000 0.0000 0.0000 0.0000 40.6037
#
#
#
# Elastic Compliance Matrix: (Units=1/GPa)
#
#
# Indices 1 2 3 4 5 6 
#
# 1 0.011783 -0.005828 -0.004699 0.000000 0.000000 0.000000
# 2 -0.005828 0.011783 -0.004699 0.000000 0.000000 0.000000
# 3 -0.004699 -0.004699 0.021991 0.000000 0.000000 0.000000
# 4 0.000000 0.000000 0.000000 0.032248 0.000000 0.000000
# 5 0.000000 0.000000 0.000000 0.000000 0.032248 0.000000
# 6 0.000000 0.000000 0.000000 0.000000 0.000000 0.024628
#
#
# Mechanical properties :
#
#
# Convention : Reuss Voigt Hill
#
# Bulk Modulus (GPa) = 66.20214 87.98894 77.09554
# Shear Modulus (GPa) = 29.38267 32.00403 30.69335
#
# Velocity S-wave (km/s) = 3.44091 3.59112 3.51682
# Velocity P-wave (km/s) = 6.51636 7.25606 6.89614
#
# Compressibility (1/GPa) = 0.01510525
#
# Stress axis : x y z
#
# Youngs Moduli (GPa) = 84.86709 84.86709 45.47266
#
# Poissons Ratio (x) = 0.49463 0.21367
# Poissons Ratio (y) = 0.49463 0.21367
# Poissons Ratio (z) = 0.39878 0.39878
#
# Static dielectric constant tensor:
#      x y z
#    x 4.339120 0.000000 0.000000 
#    y 0.000000 4.339120 0.000000 
#    z 0.000000 0.000000 3.842840 
# 
# 
# High freq. dielectric constant tensor:
#      x y z
#    x 1.989680 0.000000 0.000000 
#    y 0.000000 1.989680 0.000000 
#    z 0.000000 0.000000 1.991890 
# 
# From -- ./inp_files/3192.got.cif
#   From: 2010.03.12/outbox.cif.g09.slc.cpg/sg142_2_cif.got.tgz:3192.got - 2010.04.03 13:27:16.
