data_PCOD8321251
_publ_section_title
;
Structure prediction by ZEFSAII (Michael W. Deem and Ramdas Pophale) SiO2 
 PCOD8321251
Probable space group: I 41/A C D
;
_chemical_formula_sum "Si O2"
_cell_formula_units_Z 176
_cell_length_a 18.274321
_cell_length_b 18.274321
_cell_length_c 25.335060
_cell_angle_alpha 90.000000
_cell_angle_beta 90.000000
_cell_angle_gamma 90.000000
_cell_volume 8460.663758
_symmetry_space_group_name_H-M "I 41/A C D"
_symmetry_group_IT_number 142
_space_group.IT_coordinate_system_code '2'
_symmetry_cell_setting 'tetragonal'
loop_
_space_group_symop_operation_xyz
x,y,z
1/4-y,3/4+x,1/4+z
-x,1/2-y,z
1/4+y,1/4-x,3/4+z
x,-y,1/2-z
1/2-x,y,-z
3/4+y,1/4+x,1/4-z
1/4-y,1/4-x,1/4-z
-x,-y,-z
3/4+y,1/4-x,3/4-z
x,1/2+y,-z
3/4-y,3/4+x,1/4-z
-x,y,1/2+z
1/2+x,-y,z
1/4-y,3/4-x,3/4+z
3/4+y,3/4+x,3/4+z
1/2+x,1/2+y,1/2+z
3/4-y,1/4+x,3/4+z
1/2-x,-y,1/2+z
3/4+y,3/4-x,1/4+z
1/2+x,1/2-y,-z
-x,1/2+y,1/2-z
1/4+y,3/4+x,3/4-z
3/4-y,3/4-x,3/4-z
1/2-x,1/2-y,1/2-z
1/4+y,3/4-x,1/4-z
1/2+x,y,1/2-z
1/4-y,1/4+x,3/4-z
1/2-x,1/2+y,z
x,1/2-y,1/2+z
3/4-y,1/4-x,1/4+z
1/4+y,1/4+x,1/4+z
loop_
_atom_site_type_symbol
_atom_site_label
_atom_site_fract_x
_atom_site_fract_y
_atom_site_fract_z
Si Si1 0.543829 0.822648 0.737980
Si Si2 0.843362 0.471692 0.383039
Si Si3 0.041474 0.950040 0.204877
Si Si4 0.396878 0.353123 0.875000
Si Si5 0.968011 0.945442 0.542109
Si Si6 0.264352 0.674294 0.376616
O O1 0.500000 0.750000 0.740215
O O2 0.492059 0.876627 0.770925
O O3 0.551524 0.841659 0.675868
O O4 0.620616 0.811588 0.767720
O O5 0.795432 0.545432 0.375000
O O6 0.889079 0.441109 0.333236
O O7 0.899559 0.487189 0.430611
O O8 0.792202 0.403682 0.397062
O O9 0.974969 0.993740 0.177843
O O10 0.074852 0.000000 0.250000
O O11 0.410725 0.434307 0.897750
O O12 0.033359 0.932787 0.584908
O O13 0.000000 0.000000 0.500000
#
# Coordination Sequence:
#
# PCOD8321251 Si02
#       6
#    32  32  32  16  32  32
#     4  12  25  44  70 101 137 187 228 281 351 416
#     4  11  25  43  70 100 132 179 235 289 346 412
#     4  11  24  45  64  96 139 178 225 285 345 414
#     4  12  23  42  72 100 138 180 224 289 340 420
#     4  11  24  44  66  99 142 178 230 285 341 413
#     4  11  22  43  68  96 135 176 227 281 346 410
#
# _framework density 20.802150000000001
#
# number of rings (size 3 to 8) (size 9 to 14) (size 15 to 20)
#    0.000    0.727    6.364    1.364    0.000    2.909 
#    0.000    2.727    0.000    0.000    0.000    0.000 
#    0.000    0.000    0.000    0.000    0.000    0.000 
#
# Total GULP energy -1090613.910549 kJ/mol
# GULP energy per Si atom -12393.339893 kJ/mol
# Density = 2.075480 g / cm^3
# Si number density = 20.802150 Si / 1000 Ang^3
#
#
#
# Elastic Constant Matrix: (Units=GPa)
#
#
# Indices 1 2 3 4 5 6 
#
# 1 100.1307 42.4921 33.5734 0.0000 0.0000 0.0000
# 2 42.4921 100.1318 33.5739 0.0000 0.0000 0.0000
# 3 33.5734 33.5739 103.4623 0.0000 0.0000 0.0000
# 4 0.0000 0.0000 0.0000 32.0920 0.0000 0.0000
# 5 0.0000 0.0000 0.0000 0.0000 32.0920 0.0000
# 6 0.0000 0.0000 0.0000 0.0000 0.0000 123.9497
#
#
#
# Elastic Compliance Matrix: (Units=1/GPa)
#
#
# Indices 1 2 3 4 5 6 
#
# 1 0.012813 -0.004537 -0.002685 0.000000 0.000000 0.000000
# 2 -0.004537 0.012813 -0.002686 0.000000 0.000000 0.000000
# 3 -0.002685 -0.002686 0.011408 0.000000 0.000000 0.000000
# 4 0.000000 0.000000 0.000000 0.031160 0.000000 0.000000
# 5 0.000000 0.000000 0.000000 0.000000 0.031160 0.000000
# 6 0.000000 0.000000 0.000000 0.000000 0.000000 0.008068
#
#
# Mechanical properties :
#
#
# Convention : Reuss Voigt Hill
#
# Bulk Modulus (GPa) = 58.07928 58.11151 58.09539
# Shear Modulus (GPa) = 37.60052 50.56577 44.08314
#
# Velocity S-wave (km/s) = 4.25612 4.93566 4.60843
# Velocity P-wave (km/s) = 7.22033 7.77669 7.50367
#
# Compressibility (1/GPa) = 0.01721784
#
# Stress axis : x y z
#
# Youngs Moduli (GPa) = 78.04796 78.04868 87.65572
#
# Poissons Ratio (x) = 0.35409 0.23540
# Poissons Ratio (y) = 0.35408 0.23540
# Poissons Ratio (z) = 0.20960 0.20960
#
# Static dielectric constant tensor:
#      x y z
#    x 3.720810 0.000000 0.000000 
#    y 0.000000 3.720800 0.000000 
#    z 0.000000 0.000000 3.468250 
# 
# 
# High freq. dielectric constant tensor:
#      x y z
#    x 1.818180 0.000000 0.000000 
#    y 0.000000 1.818180 0.000000 
#    z 0.000000 0.000000 1.824370 
# 
# From -- ./inp_files/11472.got.cif
#   From: 2010.03.12/outbox.cif.g09.slc.cpg/sg142_6_cif.got.tgz:11472.got - 2010.04.03 13:27:16.
