data_PCOD8321117
_publ_section_title
;
Structure prediction by ZEFSAII (Michael W. Deem and Ramdas Pophale) SiO2 
 PCOD8321117
Probable space group: I 41/A C D
;
_chemical_formula_sum "Si O2"
_cell_formula_units_Z 160
_cell_length_a 22.655888
_cell_length_b 22.655888
_cell_length_c 14.850509
_cell_angle_alpha 90.000000
_cell_angle_beta 90.000000
_cell_angle_gamma 90.000000
_cell_volume 7622.606791
_symmetry_space_group_name_H-M "I 41/A C D"
_symmetry_group_IT_number 142
_space_group.IT_coordinate_system_code '2'
_symmetry_cell_setting 'tetragonal'
loop_
_space_group_symop_operation_xyz
x,y,z
1/4-y,3/4+x,1/4+z
-x,1/2-y,z
1/4+y,1/4-x,3/4+z
x,-y,1/2-z
1/2-x,y,-z
3/4+y,1/4+x,1/4-z
1/4-y,1/4-x,1/4-z
-x,-y,-z
3/4+y,1/4-x,3/4-z
x,1/2+y,-z
3/4-y,3/4+x,1/4-z
-x,y,1/2+z
1/2+x,-y,z
1/4-y,3/4-x,3/4+z
3/4+y,3/4+x,3/4+z
1/2+x,1/2+y,1/2+z
3/4-y,1/4+x,3/4+z
1/2-x,-y,1/2+z
3/4+y,3/4-x,1/4+z
1/2+x,1/2-y,-z
-x,1/2+y,1/2-z
1/4+y,3/4+x,3/4-z
3/4-y,3/4-x,3/4-z
1/2-x,1/2-y,1/2-z
1/4+y,3/4-x,1/4-z
1/2+x,y,1/2-z
1/4-y,1/4+x,3/4-z
1/2-x,1/2+y,z
x,1/2-y,1/2+z
3/4-y,1/4-x,1/4+z
1/4+y,1/4+x,1/4+z
loop_
_atom_site_type_symbol
_atom_site_label
_atom_site_fract_x
_atom_site_fract_y
_atom_site_fract_z
Si Si1 0.406869 0.261277 0.113614
Si Si2 0.533669 0.439202 0.498317
Si Si3 0.980159 0.358208 0.666479
Si Si4 0.889281 0.860720 0.875000
Si Si5 0.864437 0.986546 0.937168
Si Si6 0.250000 0.056935 0.000000
O O1 0.442040 0.201059 0.090375
O O2 0.354574 0.248755 0.183124
O O3 0.383531 0.291226 0.020024
O O4 0.500000 0.500000 0.500000
O O5 0.538732 0.412124 0.398233
O O6 0.598676 0.457847 0.529104
O O7 0.952260 0.297741 0.625000
O O8 0.050470 0.358224 0.681001
O O9 0.892195 0.919678 0.938465
O O10 0.849944 0.000305 0.834376
O O11 0.806563 0.985728 0.999531
#
# Coordination Sequence:
#
# PCOD8321117 Si02
#       6
#    32  32  32  16  32  16
#     4  11  26  45  72 101 137 187 227 280 353 430
#     4  12  26  43  67 105 138 178 227 293 352 410
#     4  12  24  45  69 102 138 177 227 283 351 420
#     4  10  21  38  72  96 130 176 218 286 328 405
#     4  10  22  41  68  98 133 179 236 280 338 407
#     4   8  20  42  66  94 120 188 232 280 322 414
#
# _framework density 20.990193999999999
#
# number of rings (size 3 to 8) (size 9 to 14) (size 15 to 20)
#    0.000    1.400    4.000    1.500    8.400    0.800 
#    3.600    0.000    0.000    0.000    0.000    0.000 
#    0.000    0.000    0.000    0.000    0.000    0.000 
#
# Total GULP energy -991239.729679 kJ/mol
# GULP energy per Si atom -12390.496621 kJ/mol
# Density = 2.094242 g / cm^3
# Si number density = 20.990194 Si / 1000 Ang^3
#
#
#
# Elastic Constant Matrix: (Units=GPa)
#
#
# Indices 1 2 3 4 5 6 
#
# 1 112.9911 39.2472 54.3420 0.0000 0.0000 0.0000
# 2 39.2472 112.9926 54.3414 0.0000 0.0000 0.0000
# 3 54.3420 54.3414 137.3855 0.0000 0.0000 0.0000
# 4 0.0000 0.0000 0.0000 26.7363 0.0000 0.0000
# 5 0.0000 0.0000 0.0000 0.0000 26.7358 0.0000
# 6 0.0000 0.0000 0.0000 0.0000 0.0000 42.6942
#
#
#
# Elastic Compliance Matrix: (Units=1/GPa)
#
#
# Indices 1 2 3 4 5 6 
#
# 1 0.011357 -0.002204 -0.003621 0.000000 0.000000 0.000000
# 2 -0.002204 0.011357 -0.003620 0.000000 0.000000 0.000000
# 3 -0.003621 -0.003620 0.010143 0.000000 0.000000 0.000000
# 4 0.000000 0.000000 0.000000 0.037402 0.000000 0.000000
# 5 0.000000 0.000000 0.000000 0.000000 0.037403 0.000000
# 6 0.000000 0.000000 0.000000 0.000000 0.000000 0.023422
#
#
# Mechanical properties :
#
#
# Convention : Reuss Voigt Hill
#
# Bulk Modulus (GPa) = 71.59493 73.24781 72.42137
# Shear Modulus (GPa) = 32.33542 33.59582 32.96562
#
# Velocity S-wave (km/s) = 3.92918 4.00503 3.96728
# Velocity P-wave (km/s) = 7.40050 7.50726 7.45407
#
# Compressibility (1/GPa) = 0.01396747
#
# Stress axis : x y z
#
# Youngs Moduli (GPa) = 88.05207 88.05386 98.59096
#
# Poissons Ratio (x) = 0.19403 0.35696
# Poissons Ratio (y) = 0.19402 0.35694
# Poissons Ratio (z) = 0.31880 0.31879
#
# Static dielectric constant tensor:
#      x y z
#    x 4.050550 0.000000 0.000000 
#    y 0.000000 4.050540 0.000000 
#    z 0.000000 0.000000 3.760860 
# 
# 
# High freq. dielectric constant tensor:
#      x y z
#    x 1.821540 0.000000 0.000000 
#    y 0.000000 1.821540 0.000000 
#    z 0.000000 0.000000 1.819240 
# 
# From -- ./inp_files/5493.got.cif
#   From: 2010.03.12/outbox.cif.g09.slc.cpg/sg142_3_cif.got.tgz:5493.got - 2010.04.03 13:27:16.
