data_PCOD8321042
_publ_section_title
;
Structure prediction by ZEFSAII (Michael W. Deem and Ramdas Pophale) SiO2 
 PCOD8321042
Probable space group: I 41/A C D
;
_chemical_formula_sum "Si O2"
_cell_formula_units_Z 136
_cell_length_a 18.393831
_cell_length_b 18.393831
_cell_length_c 19.203824
_cell_angle_alpha 90.000000
_cell_angle_beta 90.000000
_cell_angle_gamma 90.000000
_cell_volume 6497.287748
_symmetry_space_group_name_H-M "I 41/A C D"
_symmetry_group_IT_number 142
_space_group.IT_coordinate_system_code '2'
_symmetry_cell_setting 'tetragonal'
loop_
_space_group_symop_operation_xyz
x,y,z
1/4-y,3/4+x,1/4+z
-x,1/2-y,z
1/4+y,1/4-x,3/4+z
x,-y,1/2-z
1/2-x,y,-z
3/4+y,1/4+x,1/4-z
1/4-y,1/4-x,1/4-z
-x,-y,-z
3/4+y,1/4-x,3/4-z
x,1/2+y,-z
3/4-y,3/4+x,1/4-z
-x,y,1/2+z
1/2+x,-y,z
1/4-y,3/4-x,3/4+z
3/4+y,3/4+x,3/4+z
1/2+x,1/2+y,1/2+z
3/4-y,1/4+x,3/4+z
1/2-x,-y,1/2+z
3/4+y,3/4-x,1/4+z
1/2+x,1/2-y,-z
-x,1/2+y,1/2-z
1/4+y,3/4+x,3/4-z
3/4-y,3/4-x,3/4-z
1/2-x,1/2-y,1/2-z
1/4+y,3/4-x,1/4-z
1/2+x,y,1/2-z
1/4-y,1/4+x,3/4-z
1/2-x,1/2+y,z
x,1/2-y,1/2+z
3/4-y,1/4-x,1/4+z
1/4+y,1/4+x,1/4+z
loop_
_atom_site_type_symbol
_atom_site_label
_atom_site_fract_x
_atom_site_fract_y
_atom_site_fract_z
Si Si1 0.867577 0.382424 0.125000
Si Si2 0.691119 0.558882 0.125000
Si Si3 0.197747 0.890378 0.620803
Si Si4 0.103188 0.413419 0.252052
Si Si5 0.500000 0.250000 0.125000
Si Si6 0.444143 0.641494 0.266368
O O1 0.781413 0.369549 0.133202
O O2 0.902977 0.344576 0.193283
O O3 0.680998 0.474603 0.108501
O O4 0.653481 0.601259 0.187073
O O5 0.145883 0.872936 0.685778
O O6 0.176385 0.845023 0.552775
O O7 0.093605 0.500000 0.250000
O O8 0.026102 0.375974 0.245909
O O9 0.444238 0.292464 0.177175
#
# Coordination Sequence:
#
# PCOD8321042 Si02
#       6
#    16  16  32  32   8  32
#     4  11  24  39  72 101 124 165 226 283 321 410
#     4   9  20  36  64 102 130 156 214 278 325 386
#     4  10  20  41  66  97 132 166 209 276 345 386
#     4  10  20  36  62  91 124 166 205 259 321 392
#     4  12  28  46  64  84 140 194 212 280 332 394
#     4  12  24  45  62  92 130 177 221 265 335 393
#
# _framework density 20.931812000000001
#
# number of rings (size 3 to 8) (size 9 to 14) (size 15 to 20)
#    0.000    1.412    2.353    3.529    0.000    6.118 
#    0.000    1.176    0.000    0.000    0.000    0.000 
#    0.000    0.000    0.000    0.000    0.000    0.000 
#
# Total GULP energy -842407.786448 kJ/mol
# GULP energy per Si atom -12388.349801 kJ/mol
# Density = 2.088417 g / cm^3
# Si number density = 20.931812 Si / 1000 Ang^3
#
#
#
# Elastic Constant Matrix: (Units=GPa)
#
#
# Indices 1 2 3 4 5 6 
#
# 1 69.8867 47.2666 67.3149 0.0000 0.0000 0.0000
# 2 47.2666 69.8883 67.3153 0.0000 0.0000 0.0000
# 3 67.3149 67.3153 160.4066 0.0000 0.0000 0.0000
# 4 0.0000 0.0000 0.0000 40.4700 0.0000 0.0000
# 5 0.0000 0.0000 0.0000 0.0000 40.4715 0.0000
# 6 0.0000 0.0000 0.0000 0.0000 0.0000 25.0600
#
#
#
# Elastic Compliance Matrix: (Units=1/GPa)
#
#
# Indices 1 2 3 4 5 6 
#
# 1 0.030347 -0.013860 -0.006919 0.000000 0.000000 0.000000
# 2 -0.013860 0.030346 -0.006918 0.000000 0.000000 0.000000
# 3 -0.006919 -0.006918 0.012041 0.000000 0.000000 0.000000
# 4 0.000000 0.000000 0.000000 0.024710 0.000000 0.000000
# 5 0.000000 0.000000 0.000000 0.000000 0.024709 0.000000
# 6 0.000000 0.000000 0.000000 0.000000 0.000000 0.039904
#
#
# Mechanical properties :
#
#
# Convention : Reuss Voigt Hill
#
# Bulk Modulus (GPa) = 57.67189 73.77503 65.72346
# Shear Modulus (GPa) = 22.39826 29.08594 25.74210
#
# Velocity S-wave (km/s) = 3.27472 3.73172 3.51067
# Velocity P-wave (km/s) = 6.47383 7.34095 6.92098
#
# Compressibility (1/GPa) = 0.01733947
#
# Stress axis : x y z
#
# Youngs Moduli (GPa) = 32.95207 32.95305 83.04990
#
# Poissons Ratio (x) = 0.45674 0.57460
# Poissons Ratio (y) = 0.45672 0.57458
# Poissons Ratio (z) = 0.22799 0.22798
#
# Static dielectric constant tensor:
#      x y z
#    x 3.744850 0.000000 0.000000 
#    y 0.000000 3.744850 0.000000 
#    z 0.000000 0.000000 4.177470 
# 
# 
# High freq. dielectric constant tensor:
#      x y z
#    x 1.815600 0.000000 0.000000 
#    y 0.000000 1.815600 0.000000 
#    z 0.000000 0.000000 1.834120 
# 
# From -- ./inp_files/8833.got.cif
#   From: 2010.03.12/outbox.cif.g09.slc.cpg/sg142_5_cif.got.tgz:8833.got - 2010.04.03 13:27:16.
