data_PCOD8321989
_publ_section_title
;
Structure prediction by ZEFSAII (Michael W. Deem and Ramdas Pophale) SiO2 
 PCOD8321989
Probable space group: P 31 1 2
;
_chemical_formula_sum "Si O2"
_cell_formula_units_Z 42
_cell_length_a 9.448234
_cell_length_b 9.448234
_cell_length_c 25.539419
_cell_angle_alpha 90.000000
_cell_angle_beta 90.000000
_cell_angle_gamma 120.000000
_cell_volume 1974.435388
_symmetry_space_group_name_H-M "P 31 1 2"
_symmetry_group_IT_number 151
_symmetry_cell_setting 'hexagonal'
loop_
_space_group_symop_operation_xyz
x,y,z
-y,x-y,1/3+z
-x+y,-x,2/3+z
-y,-x,2/3-z
-x+y,y,1/3-z
x,x-y,-z
loop_
_atom_site_type_symbol
_atom_site_label
_atom_site_fract_x
_atom_site_fract_y
_atom_site_fract_z
Si Si1 0.471201 0.957762 0.422461
Si Si2 0.331636 0.442974 0.761654
Si Si3 0.205582 0.076022 0.302937
Si Si4 0.959181 0.179031 0.275795
Si Si5 0.657620 0.733196 0.786028
Si Si6 0.734290 0.511040 0.295063
Si Si7 0.948278 0.342361 0.860989
O O1 0.299068 0.793962 0.412297
O O2 0.627433 0.947384 0.403160
O O3 0.472503 0.095900 0.387099
O O4 0.482526 0.996014 0.485009
O O5 0.317797 0.290854 0.730221
O O6 0.510359 0.596571 0.751245
O O7 0.310836 0.380132 0.820445
O O8 0.321330 0.224145 0.341931
O O9 0.100635 0.133088 0.268593
O O10 0.085624 0.914377 0.333334
O O11 0.874966 0.125035 0.333334
O O12 0.822626 0.085034 0.231664
O O13 0.670885 0.907091 0.777819
O O14 0.641502 0.358499 0.333334
O O15 0.626408 0.483218 0.242678
O O16 0.831262 0.168739 0.833334
#
# Coordination Sequence:
#
# PCOD8321989 Si02
#       7
#     6   6   6   6   6   6   6
#     4  10  22  42  66  91 128 176 213 264 331 384
#     4  10  23  43  66  92 130 173 219 263 323 403
#     4  11  23  42  65  97 132 175 217 261 332 399
#     4  11  25  40  64 100 134 162 217 276 324 384
#     4  10  23  41  67  93 126 169 224 265 321 384
#     4  11  23  39  63  96 132 166 216 271 329 386
#     4   9  20  41  68  90 127 175 217 264 325 395
#
# _framework density 21.271902000000001
#
# number of rings (size 3 to 8) (size 9 to 14) (size 15 to 20)
#    0.000    1.714    1.429    2.143    8.000    2.286 
#    5.143    5.000    0.000    0.000    0.000    0.000 
#    0.000    0.000    0.000    0.000    0.000    0.000 
#
# Total GULP energy -520648.929217 kJ/mol
# GULP energy per Si atom -12396.403077 kJ/mol
# Density = 2.122349 g / cm^3
# Si number density = 21.271902 Si / 1000 Ang^3
#
#
#
# Elastic Constant Matrix: (Units=GPa)
#
#
# Indices 1 2 3 4 5 6 
#
# 1 131.4667 12.0360 44.1120 0.0003 -29.0267 0.0000
# 2 12.0360 131.4667 44.1120 -0.0003 29.0267 0.0000
# 3 44.1120 44.1120 75.2880 0.0000 0.0000 0.0000
# 4 0.0003 -0.0003 0.0000 59.9702 0.0000 29.0267
# 5 -29.0267 29.0267 0.0000 0.0000 59.9702 0.0003
# 6 0.0000 0.0000 0.0000 29.0267 0.0003 59.7153
#
#
#
# Elastic Compliance Matrix: (Units=1/GPa)
#
#
# Indices 1 2 3 4 5 6 
#
# 1 0.010920 -0.000029 -0.006382 0.000000 0.005300 0.000000
# 2 -0.000029 0.010920 -0.006382 0.000000 -0.005300 0.000000
# 3 -0.006382 -0.006382 0.020760 0.000000 0.000000 0.000000
# 4 0.000000 0.000000 0.000000 0.021805 0.000000 -0.010599
# 5 0.005300 -0.005300 0.000000 0.000000 0.021805 0.000000
# 6 0.000000 0.000000 0.000000 -0.010599 0.000000 0.021898
#
#
# Mechanical properties :
#
#
# Convention : Reuss Voigt Hill
#
# Bulk Modulus (GPa) = 58.76269 59.86017 59.31143
# Shear Modulus (GPa) = 35.87669 51.79524 43.83597
#
# Velocity S-wave (km/s) = 4.11125 4.93984 4.54447
# Velocity P-wave (km/s) = 7.08668 7.79343 7.44844
#
# Compressibility (1/GPa) = 0.01701760
#
# Stress axis : x y z
#
# Youngs Moduli (GPa) = 91.57098 91.57098 48.16842
#
# Poissons Ratio (x) = 0.00262 0.30740
# Poissons Ratio (y) = 0.00262 0.30740
# Poissons Ratio (z) = 0.58438 0.58438
#
# Static dielectric constant tensor:
#      x y z
#    x 3.856880 0.000000 0.000000 
#    y 0.000000 3.856880 0.000000 
#    z 0.000000 0.000000 3.747330 
# 
# 
# High freq. dielectric constant tensor:
#      x y z
#    x 1.831110 0.000000 0.000000 
#    y 0.000000 1.831110 0.000000 
#    z 0.000000 0.000000 1.840320 
# 
# From -- ./inp_files/5012.got.cif
#   From: 2010.03.12/outbox.cif.g09.slc.cpg/sg151_3_cif.got.tgz:5012.got - 2010.04.03 13:42:29.
