data_PCOD8321086
_publ_section_title
;
Structure prediction by ZEFSAII (Michael W. Deem and Ramdas Pophale) SiO2 
 PCOD8321086
Probable space group: I 41/A C D
;
_chemical_formula_sum "Si O2"
_cell_formula_units_Z 224
_cell_length_a 20.973983
_cell_length_b 20.973983
_cell_length_c 24.693033
_cell_angle_alpha 90.000000
_cell_angle_beta 90.000000
_cell_angle_gamma 90.000000
_cell_volume 10862.661844
_symmetry_space_group_name_H-M "I 41/A C D"
_symmetry_group_IT_number 142
_space_group.IT_coordinate_system_code '2'
_symmetry_cell_setting 'tetragonal'
loop_
_space_group_symop_operation_xyz
x,y,z
1/4-y,3/4+x,1/4+z
-x,1/2-y,z
1/4+y,1/4-x,3/4+z
x,-y,1/2-z
1/2-x,y,-z
3/4+y,1/4+x,1/4-z
1/4-y,1/4-x,1/4-z
-x,-y,-z
3/4+y,1/4-x,3/4-z
x,1/2+y,-z
3/4-y,3/4+x,1/4-z
-x,y,1/2+z
1/2+x,-y,z
1/4-y,3/4-x,3/4+z
3/4+y,3/4+x,3/4+z
1/2+x,1/2+y,1/2+z
3/4-y,1/4+x,3/4+z
1/2-x,-y,1/2+z
3/4+y,3/4-x,1/4+z
1/2+x,1/2-y,-z
-x,1/2+y,1/2-z
1/4+y,3/4+x,3/4-z
3/4-y,3/4-x,3/4-z
1/2-x,1/2-y,1/2-z
1/4+y,3/4-x,1/4-z
1/2+x,y,1/2-z
1/4-y,1/4+x,3/4-z
1/2-x,1/2+y,z
x,1/2-y,1/2+z
3/4-y,1/4-x,1/4+z
1/4+y,1/4+x,1/4+z
loop_
_atom_site_type_symbol
_atom_site_label
_atom_site_fract_x
_atom_site_fract_y
_atom_site_fract_z
Si Si1 0.250000 0.018387 0.500000
Si Si2 0.439877 0.907622 0.990471
Si Si3 0.568541 0.000000 0.250000
Si Si4 0.715006 0.705014 0.683955
Si Si5 0.272208 0.230332 0.587354
Si Si6 0.596824 0.758076 0.356782
Si Si7 0.634141 0.926795 0.683617
Si Si8 0.824749 0.920947 0.936020
O O1 0.281042 0.056018 0.450461
O O2 0.193178 0.976849 0.476541
O O3 0.484726 0.938619 0.035021
O O4 0.378676 0.874860 0.020182
O O5 0.477248 0.856136 0.953074
O O6 0.422573 0.968343 0.953383
O O7 0.522281 0.955246 0.285993
O O8 0.607347 0.957980 0.207459
O O9 0.724894 0.726861 0.622878
O O10 0.660931 0.650931 0.687581
O O11 0.336489 0.212804 0.620490
O O12 0.229269 0.171467 0.567636
O O13 0.567190 0.702787 0.395735
O O14 0.644889 0.894889 0.625000
O O15 0.807435 0.942566 0.875000
#
# Coordination Sequence:
#
# PCOD8321086 Si02
#       8
#    16  32  16  32  32  32  32  32
#     4  11  25  38  62  98 131 173 214 278 344 403
#     4  10  22  41  67  92 128 174 217 269 336 403
#     4  11  25  38  62  96 131 173 216 278 334 393
#     4  10  20  42  64  92 127 174 216 261 331 412
#     4  11  24  41  65  99 130 172 227 279 341 393
#     4  10  25  45  65  95 130 177 233 280 330 401
#     4  12  24  42  65  99 137 171 222 284 342 409
#     4  11  22  41  62  92 135 174 222 270 334 413
#
# _framework density 20.621096999999999
#
# number of rings (size 3 to 8) (size 9 to 14) (size 15 to 20)
#    0.000    1.286    4.286    0.857    6.000    0.000 
#    2.571    0.000    0.000    0.000    0.000    0.000 
#    0.000    0.000    0.000    0.000    0.000    0.000 
#
# Total GULP energy -1387652.754189 kJ/mol
# GULP energy per Si atom -12389.756734 kJ/mol
# Density = 2.057416 g / cm^3
# Si number density = 20.621097 Si / 1000 Ang^3
#
#
#
# Elastic Constant Matrix: (Units=GPa)
#
#
# Indices 1 2 3 4 5 6 
#
# 1 93.7102 38.7202 30.0442 0.0000 0.0000 0.0000
# 2 38.7202 93.7100 30.0442 0.0000 0.0000 0.0000
# 3 30.0442 30.0442 96.3704 0.0000 0.0000 0.0000
# 4 0.0000 0.0000 0.0000 26.3104 0.0000 0.0000
# 5 0.0000 0.0000 0.0000 0.0000 26.3096 0.0000
# 6 0.0000 0.0000 0.0000 0.0000 0.0000 -2.1954
#
#
#
# Elastic Compliance Matrix: (Units=1/GPa)
#
#
# Indices 1 2 3 4 5 6 
#
# 1 0.013490 -0.004695 -0.002742 0.000000 0.000000 0.000000
# 2 -0.004695 0.013490 -0.002742 0.000000 0.000000 0.000000
# 3 -0.002742 -0.002742 0.012086 0.000000 0.000000 0.000000
# 4 0.000000 0.000000 0.000000 0.038008 0.000000 0.000000
# 5 0.000000 0.000000 0.000000 0.000000 0.038009 0.000000
# 6 0.000000 0.000000 0.000000 0.000000 0.000000 -0.455489
#
#
# Mechanical properties :
#
#
# Convention : Reuss Voigt Hill
#
# Bulk Modulus (GPa) = 53.45053 53.48976 53.47014
# Shear Modulus (GPa) = -15.93316 22.41704 3.24194
#
# Velocity S-wave (km/s) = -2.78270 3.30069 1.25521
# Velocity P-wave (km/s) = 3.95627 6.36566 5.29970
#
# Compressibility (1/GPa) = 0.01870889
#
# Stress axis : x y z
#
# Youngs Moduli (GPa) = 74.12784 74.12771 82.73829
#
# Poissons Ratio (x) = 0.34803 0.22687
# Poissons Ratio (y) = 0.34803 0.22687
# Poissons Ratio (z) = 0.20326 0.20326
#
# Static dielectric constant tensor:
#      x y z
#    x 3.678920 0.000000 0.000000 
#    y 0.000000 3.678920 0.000000 
#    z 0.000000 0.000000 3.675230 
# 
# 
# High freq. dielectric constant tensor:
#      x y z
#    x 1.799840 0.000000 0.000000 
#    y 0.000000 1.799840 0.000000 
#    z 0.000000 0.000000 1.819910 
# 
# From -- ./inp_files/10587.got.cif
#   From: 2010.03.12/outbox.cif.g09.slc.cpg/sg142_6_cif.got.tgz:10587.got - 2010.04.03 13:27:16.
