data_PCOD8321411
_publ_section_title
;
Structure prediction by ZEFSAII (Michael W. Deem and Ramdas Pophale) SiO2 
 PCOD8321411
Probable space group: P 31
;
_chemical_formula_sum "Si O2"
_cell_formula_units_Z 24
_cell_length_a 14.319669
_cell_length_b 14.319669
_cell_length_c 6.474783
_cell_angle_alpha 90.000000
_cell_angle_beta 90.000000
_cell_angle_gamma 120.000000
_cell_volume 1149.798686
_symmetry_space_group_name_H-M "P 31"
_symmetry_group_IT_number 144
_symmetry_cell_setting 'hexagonal'
loop_
_space_group_symop_operation_xyz
x,y,z
-y,x-y,1/3+z
-x+y,-x,2/3+z
loop_
_atom_site_type_symbol
_atom_site_label
_atom_site_fract_x
_atom_site_fract_y
_atom_site_fract_z
Si Si1 0.522831 0.830181 0.973440
Si Si2 0.656229 0.013581 0.663104
Si Si3 0.122009 0.477782 0.399459
Si Si4 0.588422 0.349032 0.837947
Si Si5 0.875249 0.655635 0.369143
Si Si6 0.693885 0.913314 0.286186
Si Si7 0.491968 0.046810 0.391718
Si Si8 0.296734 0.985269 0.695499
O O1 0.547751 0.742220 0.880994
O O2 0.579251 0.937542 0.839627
O O3 0.397550 0.799248 0.974696
O O4 0.569938 0.852445 0.206318
O O5 0.588233 0.050707 0.525039
O O6 0.701370 0.953355 0.520209
O O7 0.756371 0.110668 0.787925
O O8 0.069722 0.387492 0.225406
O O9 0.031341 0.488794 0.527284
O O10 0.649917 0.382556 0.619969
O O11 0.460347 0.294792 0.806264
O O12 0.626386 0.457239 0.974186
O O13 0.791450 0.694577 0.423460
O O14 0.986256 0.749569 0.468560
O O15 0.732492 0.824781 0.278786
O O16 0.385589 0.010875 0.522466
#
# Coordination Sequence:
#
# PCOD8321411 Si02
#       8
#     3   3   3   3   3   3   3   3
#     4  11  23  39  63 100 135 176 228 271 346 414
#     4  11  22  43  68  93 133 183 217 290 353 403
#     4  12  24  39  66 101 138 179 231 285 336 427
#     4  12  27  43  67 103 150 188 235 285 350 435
#     4  11  27  44  70 103 134 181 240 285 359 423
#     4  11  23  47  67  92 137 179 226 293 348 410
#     4  12  24  40  68  98 138 180 228 284 349 417
#     4  12  26  43  71 100 135 184 239 287 349 423
#
# _framework density 20.87322
#
# number of rings (size 3 to 8) (size 9 to 14) (size 15 to 20)
#    0.000    0.500    6.250    2.250    5.250    3.000 
#    0.000    1.250    0.000    0.000    0.000    0.000 
#    0.000    0.000    0.000    0.000    0.000    0.000 
#
# Total GULP energy -297552.370335 kJ/mol
# GULP energy per Si atom -12398.015431 kJ/mol
# Density = 2.082571 g / cm^3
# Si number density = 20.873220 Si / 1000 Ang^3
#
#
#
# Elastic Constant Matrix: (Units=GPa)
#
#
# Indices 1 2 3 4 5 6 
#
# 1 108.7781 52.2410 41.0066 1.2817 -0.7059 0.0000
# 2 52.2410 108.7781 41.0066 -1.2817 0.7059 0.0000
# 3 41.0066 41.0066 107.5177 0.0000 0.0000 0.0000
# 4 1.2817 -1.2817 0.0000 31.4753 0.0000 0.7059
# 5 -0.7059 0.7059 0.0000 0.0000 31.4753 1.2817
# 6 0.0000 0.0000 0.0000 0.7059 1.2817 28.2686
#
#
#
# Elastic Compliance Matrix: (Units=1/GPa)
#
#
# Indices 1 2 3 4 5 6 
#
# 1 0.012719 -0.005011 -0.002940 -0.000722 0.000398 0.000000
# 2 -0.005011 0.012719 -0.002940 0.000722 -0.000398 0.000000
# 3 -0.002940 -0.002940 0.011543 0.000000 0.000000 0.000000
# 4 -0.000722 0.000722 0.000000 0.031848 0.000000 -0.000795
# 5 0.000398 -0.000398 0.000000 0.000000 0.031848 -0.001444
# 6 0.000000 0.000000 0.000000 -0.000795 -0.001444 0.035460
#
#
# Mechanical properties :
#
#
# Convention : Reuss Voigt Hill
#
# Bulk Modulus (GPa) = 65.78996 65.95359 65.87177
# Shear Modulus (GPa) = 30.67781 30.96515 30.82148
#
# Velocity S-wave (km/s) = 3.83785 3.85578 3.84683
# Velocity P-wave (km/s) = 7.15724 7.17556 7.16640
#
# Compressibility (1/GPa) = 0.01519989
#
# Stress axis : x y z
#
# Youngs Moduli (GPa) = 78.62286 78.62286 86.63149
#
# Poissons Ratio (x) = 0.39400 0.25467
# Poissons Ratio (y) = 0.39400 0.25467
# Poissons Ratio (z) = 0.23113 0.23113
#
# Static dielectric constant tensor:
#      x y z
#    x 3.792440 0.000000 0.000000 
#    y 0.000000 3.792440 0.000000 
#    z 0.000000 0.000000 4.045510 
# 
# 
# High freq. dielectric constant tensor:
#      x y z
#    x 1.811280 0.000000 0.000000 
#    y 0.000000 1.811280 0.000000 
#    z 0.000000 0.000000 1.831450 
# 
# From -- ./inp_files/164.got.cif
#   From: 2010.03.12/outbox.cif.g09.slc.cpg/sg144_cif.got.tgz:164.got - 2010.04.03 13:34:42.
