data_PCOD8321585
_publ_section_title
;
Structure prediction by ZEFSAII (Michael W. Deem and Ramdas Pophale) SiO2 
 PCOD8321585
Probable space group: P -3
;
_chemical_formula_sum "Si O2"
_cell_formula_units_Z 36
_cell_length_a 27.921766
_cell_length_b 27.921766
_cell_length_c 5.222206
_cell_angle_alpha 90.000000
_cell_angle_beta 90.000000
_cell_angle_gamma 120.000000
_cell_volume 3525.903300
_symmetry_space_group_name_H-M "P -3"
_symmetry_group_IT_number 147
_symmetry_cell_setting 'hexagonal'
loop_
_space_group_symop_operation_xyz
x,y,z
-y,x-y,z
-x+y,-x,z
-x,-y,-z
y,-x+y,-z
x-y,x,-z
loop_
_atom_site_type_symbol
_atom_site_label
_atom_site_fract_x
_atom_site_fract_y
_atom_site_fract_z
Si Si1 0.478851 0.634965 0.749999
Si Si2 0.220447 0.553293 0.249999
Si Si3 0.634966 0.478851 0.250001
Si Si4 0.572884 0.031523 0.250000
Si Si5 0.667154 0.446707 0.750001
Si Si6 0.458639 0.031523 0.250000
O O1 0.481710 0.669384 0.498654
O O2 0.422971 0.577029 0.749998
O O3 0.530491 0.624360 0.750000
O O4 0.481709 0.669384 0.001344
O O5 0.281389 0.562779 0.250000
O O6 0.225989 0.612995 0.250000
O O7 0.669384 0.481710 0.501346
O O8 0.624360 0.530491 0.250000
O O9 0.669384 0.481710 0.998656
O O10 0.516045 0.032090 0.249999
O O11 0.576655 0.000000 0.500000
O O12 0.576655 1.000000 0.000000
#
# Coordination Sequence:
#
# PCOD8321585 Si02
#       6
#     6   6   6   6   6   6
#     4   9  17  26  35  47  60  72  89 112 133 157
#     4  10  18  27  36  45  58  76  97 117 135 153
#     4   9  17  26  35  47  60  72  89 112 133 157
#     4   9  15  23  35  48  60  72  84 101 130 164
#     4  10  18  27  36  45  58  76  97 117 135 153
#     4   9  15  23  35  48  60  72  84 101 130 164
#
# _framework density 10.210150000000001
#
# number of rings (size 3 to 8) (size 9 to 14) (size 15 to 20)
#    0.000    2.667    0.000    3.333    0.000    8.000 
#    0.000    3.333    0.000    0.000    0.000    0.000 
#    0.000    0.000    0.000    0.000    0.000    0.000 
#
# Total GULP energy -446352.886600 kJ/mol
# GULP energy per Si atom -12398.691294 kJ/mol
# Density = 1.018691 g / cm^3
# Si number density = 10.210150 Si / 1000 Ang^3
#
#
#
# Elastic Constant Matrix: (Units=GPa)
#
#
# Indices 1 2 3 4 5 6 
#
# 1 32.9758 24.8896 30.3000 0.0000 0.0000 0.0000
# 2 24.8896 32.9758 30.3000 0.0000 0.0000 0.0000
# 3 30.3000 30.3000 114.2048 0.0000 0.0000 0.0000
# 4 0.0000 0.0000 0.0000 13.5098 0.0000 0.0000
# 5 0.0000 0.0000 0.0000 0.0000 13.5098 0.0000
# 6 0.0000 0.0000 0.0000 0.0000 0.0000 4.0431
#
#
#
# Elastic Compliance Matrix: (Units=1/GPa)
#
#
# Indices 1 2 3 4 5 6 
#
# 1 0.073799 -0.049868 -0.006349 0.000000 0.000000 0.000000
# 2 -0.049868 0.073799 -0.006349 0.000000 0.000000 0.000000
# 3 -0.006349 -0.006349 0.012125 0.000000 0.000000 0.000000
# 4 0.000000 0.000000 0.000000 0.074020 0.000000 0.000000
# 5 0.000000 0.000000 0.000000 0.000000 0.074020 0.000000
# 6 0.000000 0.000000 0.000000 0.000000 0.000000 0.247335
#
#
# Mechanical properties :
#
#
# Convention : Reuss Voigt Hill
#
# Bulk Modulus (GPa) = 28.91004 39.01506 33.96255
# Shear Modulus (GPa) = 7.22793 12.52368 9.87580
#
# Velocity S-wave (km/s) = 2.66356 3.50607 3.11344
# Velocity P-wave (km/s) = 6.15108 7.39493 6.80150
#
# Compressibility (1/GPa) = 0.03459006
#
# Stress axis : x y z
#
# Youngs Moduli (GPa) = 13.55032 13.55032 82.47287
#
# Poissons Ratio (x) = 0.67573 0.52363
# Poissons Ratio (y) = 0.67573 0.52363
# Poissons Ratio (z) = 0.08603 0.08603
#
# Static dielectric constant tensor:
#      x y z
#    x 2.050680 0.000000 0.000000 
#    y 0.000000 2.050680 0.000000 
#    z 0.000000 0.000000 2.546480 
# 
# 
# High freq. dielectric constant tensor:
#      x y z
#    x 1.346270 0.000000 0.000000 
#    y 0.000000 1.346270 0.000000 
#    z 0.000000 0.000000 1.409490 
# 
# From -- ./inp_files/256.got.cif
#   From: 2010.03.12/outbox.cif.g09.slc.cpg/sg147_cif.got.tgz:256.got - 2010.04.03 13:37:56.
