data_PCOD8321897
_publ_section_title
;
Structure prediction by ZEFSAII (Michael W. Deem and Ramdas Pophale) SiO2 
 PCOD8321897
Probable space group: P 3 2 1
;
_chemical_formula_sum "Si O2"
_cell_formula_units_Z 8
_cell_length_a 6.837774
_cell_length_b 6.837774
_cell_length_c 9.457684
_cell_angle_alpha 90.000000
_cell_angle_beta 90.000000
_cell_angle_gamma 120.000000
_cell_volume 382.952506
_symmetry_space_group_name_H-M "P 3 2 1"
_symmetry_group_IT_number 150
_symmetry_cell_setting 'hexagonal'
loop_
_space_group_symop_operation_xyz
x,y,z
-y,x-y,z
-x+y,-x,z
x-y,-y,-z
-x,-x+y,-z
y,x,-z
loop_
_atom_site_type_symbol
_atom_site_label
_atom_site_fract_x
_atom_site_fract_y
_atom_site_fract_z
Si Si1 0.875949 0.611031 0.860880
Si Si2 0.000000 0.000000 0.666863
O O1 0.605138 0.519277 0.857659
O O2 0.985250 0.770382 0.724763
O O3 0.000000 0.759440 0.000000
O O4 0.000000 0.000000 0.500000
#
# Coordination Sequence:
#
# PCOD8321897 Si02
#       2
#     6   2
#     4  10  22  41  66  90 117 153 207 256 296 341
#     4  12  25  41  58  90 133 161 193 240 301 377
#
# _framework density 20.890322000000001
#
# number of rings (size 3 to 8) (size 9 to 14) (size 15 to 20)
#    1.500    0.000    0.000    6.750    0.000    3.000 
#    4.500    0.000    0.000    0.000    0.000    0.000 
#    0.000    0.000    0.000    0.000    0.000    0.000 
#
# Total GULP energy -99118.020128 kJ/mol
# GULP energy per Si atom -12389.752516 kJ/mol
# Density = 2.084277 g / cm^3
# Si number density = 20.890322 Si / 1000 Ang^3
#
#
#
# Elastic Constant Matrix: (Units=GPa)
#
#
# Indices 1 2 3 4 5 6 
#
# 1 104.6783 41.9607 69.1494 7.0310 0.0000 0.0000
# 2 41.9607 104.6783 69.1494 -7.0310 0.0000 0.0000
# 3 69.1494 69.1494 225.3636 0.0000 0.0000 0.0000
# 4 7.0310 -7.0310 0.0000 19.6157 0.0000 0.0000
# 5 0.0000 0.0000 0.0000 0.0000 19.6157 7.0310
# 6 0.0000 0.0000 0.0000 0.0000 7.0310 31.3588
#
#
#
# Elastic Compliance Matrix: (Units=1/GPa)
#
#
# Indices 1 2 3 4 5 6 
#
# 1 0.013467 -0.003871 -0.002945 -0.006215 0.000000 0.000000
# 2 -0.003871 0.013467 -0.002945 0.006215 0.000000 0.000000
# 3 -0.002945 -0.002945 0.006244 0.000000 0.000000 0.000000
# 4 -0.006215 0.006215 0.000000 0.055435 0.000000 0.000000
# 5 0.000000 0.000000 0.000000 0.000000 0.055435 -0.012429
# 6 0.000000 0.000000 0.000000 0.000000 -0.012429 0.034676
#
#
# Mechanical properties :
#
#
# Convention : Reuss Voigt Hill
#
# Bulk Modulus (GPa) = 73.21106 88.35991 80.78549
# Shear Modulus (GPa) = 24.65530 31.08209 27.86869
#
# Velocity S-wave (km/s) = 3.43917 3.86148 3.65642
# Velocity P-wave (km/s) = 7.13387 7.89115 7.52204
#
# Compressibility (1/GPa) = 0.01365914
#
# Stress axis : x y z
#
# Youngs Moduli (GPa) = 74.25450 74.25450 160.14703
#
# Poissons Ratio (x) = 0.28741 0.47156
# Poissons Ratio (y) = 0.28741 0.47156
# Poissons Ratio (z) = 0.21865 0.21865
#
# Static dielectric constant tensor:
#      x y z
#    x 3.660750 0.000000 0.000000 
#    y 0.000000 3.660750 0.000000 
#    z 0.000000 0.000000 3.259170 
# 
# 
# High freq. dielectric constant tensor:
#      x y z
#    x 1.821150 0.000000 0.000000 
#    y 0.000000 1.821150 0.000000 
#    z 0.000000 0.000000 1.777680 
# 
# From -- ./inp_files/310.got.cif
#   From: 2010.03.12/outbox.cif.g09.slc.cpg/sg150_cif.got.tgz:310.got - 2010.04.03 13:41:37.
