data_PCOD8321331
_publ_section_title
;
Structure prediction by ZEFSAII (Michael W. Deem and Ramdas Pophale) SiO2 
 PCOD8321331
Probable space group: P 3
;
_chemical_formula_sum "Si O2"
_cell_formula_units_Z 24
_cell_length_a 12.793039
_cell_length_b 12.793039
_cell_length_c 10.049150
_cell_angle_alpha 90.000000
_cell_angle_beta 90.000000
_cell_angle_gamma 120.000000
_cell_volume 1424.319461
_symmetry_space_group_name_H-M "P 3"
_symmetry_group_IT_number 143
_symmetry_cell_setting 'hexagonal'
loop_
_space_group_symop_operation_xyz
x,y,z
-y,x-y,z
-x+y,-x,z
loop_
_atom_site_type_symbol
_atom_site_label
_atom_site_fract_x
_atom_site_fract_y
_atom_site_fract_z
Si Si1 0.576916 0.910546 0.623420
Si Si2 0.910546 0.333629 0.382870
Si Si3 0.576916 0.666371 0.623420
Si Si4 0.239690 0.999916 0.851738
Si Si5 0.000084 0.760310 0.851738
Si Si6 0.760310 0.000084 0.154551
Si Si7 0.910546 0.576916 0.382870
Si Si8 0.999916 0.239690 0.154551
O O1 0.572656 0.786328 0.591966
O O2 0.441962 0.883924 0.640516
O O3 0.647285 0.971012 0.759232
O O4 0.645704 0.000000 0.503145
O O5 0.883924 0.441962 0.365774
O O6 0.786328 0.213672 0.414323
O O7 1.000000 0.354296 0.503145
O O8 0.971012 0.323727 0.247058
O O9 0.647285 0.676273 0.759232
O O10 0.256536 0.128268 0.810119
O O11 0.099211 0.900789 0.833925
O O12 0.280800 0.000000 0.003145
O O13 1.000000 0.719200 0.003145
O O14 0.676273 0.028988 0.247058
O O15 0.900789 0.099211 0.172365
O O16 0.743464 0.871732 0.196170
#
# Coordination Sequence:
#
# PCOD8321331 Si02
#       8
#     3   3   3   3   3   3   3   3
#     4  10  20  33  49  68  92 122 155 191 229 271
#     4  10  20  33  49  68  92 122 155 191 229 271
#     4  10  20  33  49  68  92 122 155 191 229 271
#     4   9  17  30  49  72  96 121 150 186 228 272
#     4   9  17  30  49  72  96 121 150 186 228 272
#     4   9  17  30  49  72  96 121 150 186 228 272
#     4  10  20  33  49  68  92 122 155 191 229 271
#     4   9  17  30  49  72  96 121 150 186 228 272
#
# _framework density 16.850152999999999
#
# number of rings (size 3 to 8) (size 9 to 14) (size 15 to 20)
#    0.000    2.500    0.000    2.500    0.000    3.000 
#    0.000    0.000    0.000    9.000    0.000    0.000 
#    0.000    0.000    0.000    0.000    0.000    0.000 
#
# Total GULP energy -297660.802262 kJ/mol
# GULP energy per Si atom -12402.533428 kJ/mol
# Density = 1.681180 g / cm^3
# Si number density = 16.850153 Si / 1000 Ang^3
#
#
#
# Elastic Constant Matrix: (Units=GPa)
#
#
# Indices 1 2 3 4 5 6 
#
# 1 111.9950 74.3668 67.8994 -1.1887 0.0000 0.0000
# 2 74.3668 111.9950 67.8994 1.1887 0.0000 0.0000
# 3 67.8994 67.8994 109.8745 0.0000 0.0000 0.0000
# 4 -1.1887 1.1887 0.0000 27.2499 0.0000 0.0000
# 5 0.0000 0.0000 0.0000 0.0000 27.2499 -1.1887
# 6 0.0000 0.0000 0.0000 0.0000 -1.1887 18.8141
#
#
#
# Elastic Compliance Matrix: (Units=1/GPa)
#
#
# Indices 1 2 3 4 5 6 
#
# 1 0.018205 -0.008444 -0.006032 0.001162 0.000000 0.000000
# 2 -0.008444 0.018205 -0.006032 -0.001162 0.000000 0.000000
# 3 -0.006032 -0.006032 0.016557 0.000000 0.000000 0.000000
# 4 0.001162 -0.001162 0.000000 0.036799 0.000000 0.000000
# 5 0.000000 0.000000 0.000000 0.000000 0.036799 0.002325
# 6 0.000000 0.000000 0.000000 0.000000 0.002325 0.053299
#
#
# Mechanical properties :
#
#
# Convention : Reuss Voigt Hill
#
# Bulk Modulus (GPa) = 83.67769 83.79954 83.73862
# Shear Modulus (GPa) = 22.23558 22.90939 22.57248
#
# Velocity S-wave (km/s) = 3.63658 3.69127 3.66403
# Velocity P-wave (km/s) = 8.20979 8.24666 8.22825
#
# Compressibility (1/GPa) = 0.01195062
#
# Stress axis : x y z
#
# Youngs Moduli (GPa) = 54.92861 54.92861 60.39730
#
# Poissons Ratio (x) = 0.46381 0.36434
# Poissons Ratio (y) = 0.46381 0.36434
# Poissons Ratio (z) = 0.33135 0.33135
#
# Static dielectric constant tensor:
#      x y z
#    x 3.090390 0.000000 0.000000 
#    y 0.000000 3.090390 0.000000 
#    z 0.000000 0.000000 3.292750 
# 
# 
# High freq. dielectric constant tensor:
#      x y z
#    x 1.649320 0.000000 0.000000 
#    y 0.000000 1.649320 0.000000 
#    z 0.000000 0.000000 1.658260 
# 
# From -- ./inp_files/253.got.cif
#   From: 2010.03.12/outbox.cif.g09.slc.cpg/sg143_cif.got.tgz:253.got - 2010.04.03 13:34:35.
