data_PCOD8321127
_publ_section_title
;
Structure prediction by ZEFSAII (Michael W. Deem and Ramdas Pophale) SiO2 
 PCOD8321127
Probable space group: I 41/A C D
;
_chemical_formula_sum "Si O2"
_cell_formula_units_Z 240
_cell_length_a 21.320819
_cell_length_b 21.320819
_cell_length_c 25.431670
_cell_angle_alpha 90.000000
_cell_angle_beta 90.000000
_cell_angle_gamma 90.000000
_cell_volume 11560.660464
_symmetry_space_group_name_H-M "I 41/A C D"
_symmetry_group_IT_number 142
_space_group.IT_coordinate_system_code '2'
_symmetry_cell_setting 'tetragonal'
loop_
_space_group_symop_operation_xyz
x,y,z
1/4-y,3/4+x,1/4+z
-x,1/2-y,z
1/4+y,1/4-x,3/4+z
x,-y,1/2-z
1/2-x,y,-z
3/4+y,1/4+x,1/4-z
1/4-y,1/4-x,1/4-z
-x,-y,-z
3/4+y,1/4-x,3/4-z
x,1/2+y,-z
3/4-y,3/4+x,1/4-z
-x,y,1/2+z
1/2+x,-y,z
1/4-y,3/4-x,3/4+z
3/4+y,3/4+x,3/4+z
1/2+x,1/2+y,1/2+z
3/4-y,1/4+x,3/4+z
1/2-x,-y,1/2+z
3/4+y,3/4-x,1/4+z
1/2+x,1/2-y,-z
-x,1/2+y,1/2-z
1/4+y,3/4+x,3/4-z
3/4-y,3/4-x,3/4-z
1/2-x,1/2-y,1/2-z
1/4+y,3/4-x,1/4-z
1/2+x,y,1/2-z
1/4-y,1/4+x,3/4-z
1/2-x,1/2+y,z
x,1/2-y,1/2+z
3/4-y,1/4-x,1/4+z
1/4+y,1/4+x,1/4+z
loop_
_atom_site_type_symbol
_atom_site_label
_atom_site_fract_x
_atom_site_fract_y
_atom_site_fract_z
Si Si1 0.722090 0.196029 0.169322
Si Si2 0.809444 0.678144 0.463222
Si Si3 0.263054 0.331180 0.640484
Si Si4 0.034738 0.609575 0.428327
Si Si5 0.055642 0.392719 0.195770
Si Si6 0.913142 0.415710 0.024278
Si Si7 0.135492 0.000000 0.750000
Si Si8 0.785979 0.432029 0.393194
O O1 0.702649 0.262356 0.140693
O O2 0.788834 0.204441 0.198921
O O3 0.671265 0.183750 0.213972
O O4 0.728739 0.136832 0.130069
O O5 0.750000 0.685069 0.500000
O O6 0.791409 0.675438 0.402367
O O7 0.855285 0.737593 0.472763
O O8 0.845369 0.615437 0.477684
O O9 0.232427 0.344651 0.697098
O O10 0.304720 0.391874 0.625970
O O11 0.048071 0.606373 0.366747
O O12 0.078955 0.657853 0.459761
O O13 0.963340 0.627429 0.443732
O O14 0.094196 0.451237 0.217336
O O15 0.179192 0.966390 0.706643
O O16 0.735642 0.485642 0.375000
#
# Coordination Sequence:
#
# PCOD8321127 Si02
#       8
#    32  32  32  32  32  32  16  32
#     4  11  23  44  63  93 129 173 216 271 335 408
#     4  12  23  42  62  94 133 168 215 268 334 396
#     4  11  24  43  65  93 129 174 219 265 339 403
#     4  10  21  41  64  94 124 162 220 270 321 404
#     4  11  22  38  66  94 127 165 213 270 331 397
#     4  11  24  39  66  91 128 174 214 270 334 400
#     4  12  24  40  66  98 132 174 210 278 342 386
#     4  12  26  42  67 101 134 168 231 280 332 400
#
# _framework density 20.760061
#
# number of rings (size 3 to 8) (size 9 to 14) (size 15 to 20)
#    0.000    0.800    4.667    4.400    5.600    0.533 
#    1.200    1.333    0.000    0.400    0.000    0.000 
#    0.000    0.000    0.000    0.000    0.000    0.000 
#
# Total GULP energy -1487194.469629 kJ/mol
# GULP energy per Si atom -12393.287247 kJ/mol
# Density = 2.071281 g / cm^3
# Si number density = 20.760061 Si / 1000 Ang^3
#
#
#
# Elastic Constant Matrix: (Units=GPa)
#
#
# Indices 1 2 3 4 5 6 
#
# 1 93.8733 41.6693 31.4913 0.0000 0.0000 0.0000
# 2 41.6693 93.8733 31.4913 0.0000 0.0000 0.0000
# 3 31.4913 31.4913 89.7809 0.0000 0.0000 0.0000
# 4 0.0000 0.0000 0.0000 22.4298 0.0000 0.0000
# 5 0.0000 0.0000 0.0000 0.0000 22.4298 0.0000
# 6 0.0000 0.0000 0.0000 0.0000 0.0000 1.0801
#
#
#
# Elastic Compliance Matrix: (Units=1/GPa)
#
#
# Indices 1 2 3 4 5 6 
#
# 1 0.013985 -0.005171 -0.003092 0.000000 0.000000 0.000000
# 2 -0.005171 0.013985 -0.003092 0.000000 0.000000 0.000000
# 3 -0.003092 -0.003092 0.013307 0.000000 0.000000 0.000000
# 4 0.000000 0.000000 0.000000 0.044583 0.000000 0.000000
# 5 0.000000 0.000000 0.000000 0.000000 0.044583 0.000000
# 6 0.000000 0.000000 0.000000 0.000000 0.000000 0.925878
#
#
# Mechanical properties :
#
#
# Convention : Reuss Voigt Hill
#
# Bulk Modulus (GPa) = 53.85311 54.09237 53.97274
# Shear Modulus (GPa) = 4.60736 20.71298 12.66017
#
# Velocity S-wave (km/s) = 1.49136 3.16212 2.47216
# Velocity P-wave (km/s) = 5.38169 6.28049 5.84838
#
# Compressibility (1/GPa) = 0.01856903
#
# Stress axis : x y z
#
# Youngs Moduli (GPa) = 71.50516 71.50516 75.14783
#
# Poissons Ratio (x) = 0.36973 0.23234
# Poissons Ratio (y) = 0.36973 0.23234
# Poissons Ratio (z) = 0.22107 0.22107
#
# Static dielectric constant tensor:
#      x y z
#    x 3.898690 0.000000 0.000000 
#    y 0.000000 3.898690 0.000000 
#    z 0.000000 0.000000 3.733770 
# 
# 
# High freq. dielectric constant tensor:
#      x y z
#    x 1.808950 0.000000 0.000000 
#    y 0.000000 1.808950 0.000000 
#    z 0.000000 0.000000 1.809510 
# 
# From -- ./inp_files/11686.got.cif
#   From: 2010.03.12/outbox.cif.g09.slc.cpg/sg142_6_cif.got.tgz:11686.got - 2010.04.03 13:27:16.
