data_PCOD8321233
_publ_section_title
;
Structure prediction by ZEFSAII (Michael W. Deem and Ramdas Pophale) SiO2 
 PCOD8321233
Probable space group: I 41/A C D
;
_chemical_formula_sum "Si O2"
_cell_formula_units_Z 160
_cell_length_a 15.056846
_cell_length_b 15.056846
_cell_length_c 32.761052
_cell_angle_alpha 90.000000
_cell_angle_beta 90.000000
_cell_angle_gamma 90.000000
_cell_volume 7427.212609
_symmetry_space_group_name_H-M "I 41/A C D"
_symmetry_group_IT_number 142
_space_group.IT_coordinate_system_code '2'
_symmetry_cell_setting 'tetragonal'
loop_
_space_group_symop_operation_xyz
x,y,z
1/4-y,3/4+x,1/4+z
-x,1/2-y,z
1/4+y,1/4-x,3/4+z
x,-y,1/2-z
1/2-x,y,-z
3/4+y,1/4+x,1/4-z
1/4-y,1/4-x,1/4-z
-x,-y,-z
3/4+y,1/4-x,3/4-z
x,1/2+y,-z
3/4-y,3/4+x,1/4-z
-x,y,1/2+z
1/2+x,-y,z
1/4-y,3/4-x,3/4+z
3/4+y,3/4+x,3/4+z
1/2+x,1/2+y,1/2+z
3/4-y,1/4+x,3/4+z
1/2-x,-y,1/2+z
3/4+y,3/4-x,1/4+z
1/2+x,1/2-y,-z
-x,1/2+y,1/2-z
1/4+y,3/4+x,3/4-z
3/4-y,3/4-x,3/4-z
1/2-x,1/2-y,1/2-z
1/4+y,3/4-x,1/4-z
1/2+x,y,1/2-z
1/4-y,1/4+x,3/4-z
1/2-x,1/2+y,z
x,1/2-y,1/2+z
3/4-y,1/4-x,1/4+z
1/4+y,1/4+x,1/4+z
loop_
_atom_site_type_symbol
_atom_site_label
_atom_site_fract_x
_atom_site_fract_y
_atom_site_fract_z
Si Si1 0.578692 0.907282 0.923822
Si Si2 0.585178 0.668553 0.283541
Si Si3 0.853040 0.515323 0.498111
Si Si4 0.042818 0.088054 0.222630
Si Si5 0.209609 0.757861 0.593347
O O1 0.527566 0.963444 0.889400
O O2 0.661983 0.853599 0.905742
O O3 0.517444 0.831305 0.946357
O O4 0.614237 0.979141 0.955401
O O5 0.688885 0.657725 0.273734
O O6 0.526015 0.658927 0.242155
O O7 0.562020 0.595168 0.316761
O O8 0.750000 0.490257 0.500000
O O9 0.875413 0.606965 0.474132
O O10 0.041794 0.000000 0.250000
O O11 0.017050 0.058714 0.176349
#
# Coordination Sequence:
#
# PCOD8321233 Si02
#       5
#    32  32  32  32  32
#     4  12  22  37  63  96 121 152 211 270 315 368
#     4  11  22  36  62  91 122 160 210 251 308 385
#     4  11  21  39  60  88 126 165 209 248 309 386
#     4   9  19  38  57  83 128 165 196 252 313 378
#     4  11  21  38  60  93 123 157 198 269 331 353
#
# _framework density 21.542401999999999
#
# number of rings (size 3 to 8) (size 9 to 14) (size 15 to 20)
#    0.000    1.200    8.000    3.000    0.000    0.000 
#    0.000    7.000    0.000    0.000    0.000    0.000 
#    0.000    0.000    0.000    0.000    0.000    0.000 
#
# Total GULP energy -991971.491070 kJ/mol
# GULP energy per Si atom -12399.643638 kJ/mol
# Density = 2.149337 g / cm^3
# Si number density = 21.542402 Si / 1000 Ang^3
#
#
#
# Elastic Constant Matrix: (Units=GPa)
#
#
# Indices 1 2 3 4 5 6 
#
# 1 74.2996 10.1048 29.1365 0.0000 0.0000 0.0000
# 2 10.1048 74.2996 29.1365 0.0000 0.0000 0.0000
# 3 29.1365 29.1365 108.4964 0.0000 0.0000 0.0000
# 4 0.0000 0.0000 0.0000 36.8147 0.0000 0.0000
# 5 0.0000 0.0000 0.0000 0.0000 36.8147 0.0000
# 6 0.0000 0.0000 0.0000 0.0000 0.0000 14.2397
#
#
#
# Elastic Compliance Matrix: (Units=1/GPa)
#
#
# Indices 1 2 3 4 5 6 
#
# 1 0.015061 -0.000517 -0.003906 0.000000 0.000000 0.000000
# 2 -0.000517 0.015061 -0.003906 0.000000 0.000000 0.000000
# 3 -0.003906 -0.003906 0.011315 0.000000 0.000000 0.000000
# 4 0.000000 0.000000 0.000000 0.027163 0.000000 0.000000
# 5 0.000000 0.000000 0.000000 0.000000 0.027163 0.000000
# 6 0.000000 0.000000 0.000000 0.000000 0.000000 0.070226
#
#
# Mechanical properties :
#
#
# Convention : Reuss Voigt Hill
#
# Bulk Modulus (GPa) = 40.35515 43.76124 42.05820
# Shear Modulus (GPa) = 26.19094 30.15498 28.17296
#
# Velocity S-wave (km/s) = 3.49059 3.74544 3.62026
# Velocity P-wave (km/s) = 5.91770 6.25001 6.08612
#
# Compressibility (1/GPa) = 0.02477998
#
# Stress axis : x y z
#
# Youngs Moduli (GPa) = 66.39678 66.39678 88.38042
#
# Poissons Ratio (x) = 0.03430 0.34520
# Poissons Ratio (y) = 0.03430 0.34520
# Poissons Ratio (z) = 0.25934 0.25934
#
# Static dielectric constant tensor:
#      x y z
#    x 3.874510 0.000000 0.000000 
#    y 0.000000 3.874510 0.000000 
#    z 0.000000 0.000000 3.969090 
# 
# 
# High freq. dielectric constant tensor:
#      x y z
#    x 1.836870 0.000000 0.000000 
#    y 0.000000 1.836870 0.000000 
#    z 0.000000 0.000000 1.827660 
# 
# From -- ./inp_files/11335.got.cif
#   From: 2010.03.12/outbox.cif.g09.slc.cpg/sg142_6_cif.got.tgz:11335.got - 2010.04.03 13:27:16.
