data_PCOD8321580
_publ_section_title
;
Structure prediction by ZEFSAII (Michael W. Deem and Ramdas Pophale) SiO2 
 PCOD8321580
Probable space group: R 3
;
_chemical_formula_sum "Si O2"
_cell_formula_units_Z 24
_cell_length_a 12.284080
_cell_length_b 12.284080
_cell_length_c 6.883244
_cell_angle_alpha 90.000000
_cell_angle_beta 90.000000
_cell_angle_gamma 120.000000
_cell_volume 899.516365
_symmetry_space_group_name_H-M "R 3"
_symmetry_group_IT_number 146
_symmetry_cell_setting 'hexagonal'
loop_
_space_group_symop_operation_xyz
x,y,z
-y,x-y,z
-x+y,-x,z
2/3+x,1/3+y,1/3+z
2/3-y,1/3+x-y,1/3+z
2/3-x+y,1/3-x,1/3+z
1/3+x,2/3+y,2/3+z
1/3-y,2/3+x-y,2/3+z
1/3-x+y,2/3-x,2/3+z
loop_
_atom_site_type_symbol
_atom_site_label
_atom_site_fract_x
_atom_site_fract_y
_atom_site_fract_z
Si Si1 0.666666 0.333333 0.988066
Si Si2 0.333335 0.666668 0.860248
Si Si3 0.371159 0.441001 0.807836
Si Si4 0.263485 0.037820 0.707136
O O1 0.666668 0.333334 0.757490
O O2 0.784017 0.324152 0.067857
O O3 0.324168 0.540143 0.780452
O O4 0.387786 0.399966 0.593794
O O5 0.500003 0.499994 0.924153
O O6 0.278884 0.933367 0.587843
#
# Coordination Sequence:
#
# PCOD8321580 Si02
#       4
#     3   3   9   9
#     4  12  24  51  72 109 153 183 244 309 348 436
#     4  12  24  51  72 109 153 183 244 309 348 436
#     4  12  26  49  77 106 148 194 241 300 364 428
#     4  12  26  49  77 106 148 194 241 300 364 428
#
# _framework density 26.681004999999999
#
# number of rings (size 3 to 8) (size 9 to 14) (size 15 to 20)
#    0.000    0.000    7.500    0.000    0.000   12.000 
#    0.000   11.250    0.000    0.000    0.000    0.000 
#    0.000    0.000    0.000    0.000    0.000    0.000 
#
# Total GULP energy -99297.729104 kJ/mol
# GULP energy per Si atom -12412.216138 kJ/mol
# Density = 2.662028 g / cm^3
# Si number density = 26.681005 Si / 1000 Ang^3
#
#
#
# Elastic Constant Matrix: (Units=GPa)
#
#
# Indices 1 2 3 4 5 6 
#
# 1 187.1030 73.3437 57.4360 7.9910 8.5109 0.0005
# 2 73.3437 187.1046 57.4373 -7.9913 -8.5119 0.0016
# 3 57.4360 57.4373 115.0225 -0.0002 -0.0002 -0.0003
# 4 7.9910 -7.9913 -0.0002 37.0689 -0.0003 -8.5117
# 5 8.5109 -8.5119 -0.0002 -0.0003 37.0697 7.9913
# 6 0.0005 0.0016 -0.0003 -8.5117 7.9913 56.8809
#
#
#
# Elastic Compliance Matrix: (Units=1/GPa)
#
#
# Indices 1 2 3 4 5 6 
#
# 1 0.007161 -0.002237 -0.002459 -0.002026 -0.002158 0.000000
# 2 -0.002237 0.007161 -0.002459 0.002026 0.002158 0.000000
# 3 -0.002459 -0.002459 0.011150 0.000000 0.000000 0.000000
# 4 -0.002026 0.002026 0.000000 0.028841 0.000000 0.004316
# 5 -0.002158 0.002158 0.000000 0.000000 0.028841 -0.004052
# 6 0.000000 0.000000 0.000000 0.004316 -0.004052 0.018796
#
#
# Mechanical properties :
#
#
# Convention : Reuss Voigt Hill
#
# Bulk Modulus (GPa) = 89.58678 96.18490 92.88584
# Shear Modulus (GPa) = 41.67394 46.27146 43.97270
#
# Velocity S-wave (km/s) = 3.95642 4.16895 4.06407
# Velocity P-wave (km/s) = 7.38382 7.70076 7.54396
#
# Compressibility (1/GPa) = 0.01116236
#
# Stress axis : x y z
#
# Youngs Moduli (GPa) = 139.64546 139.64531 89.68940
#
# Poissons Ratio (x) = 0.31238 0.22053
# Poissons Ratio (y) = 0.31238 0.22054
# Poissons Ratio (z) = 0.34336 0.34337
#
# Static dielectric constant tensor:
#      x y z
#    x 5.263190 -0.000020 0.000020 
#    y -0.000020 5.263140 -0.000010 
#    z 0.000020 -0.000010 5.070640 
# 
# 
# High freq. dielectric constant tensor:
#      x y z
#    x 2.089310 0.000000 0.000000 
#    y 0.000000 2.089310 0.000000 
#    z 0.000000 0.000000 2.081670 
# 
# From -- ./inp_files/480.got.cif
#   From: 2010.06.25/outbox.cif.g09.slc.cpg/sg146_cif.got.tgz:480.got - 2010.06.28 11:17:22.
