data_PCOD8321128
_publ_section_title
;
Structure prediction by ZEFSAII (Michael W. Deem and Ramdas Pophale) SiO2 
 PCOD8321128
Probable space group: I 41/A C D
;
_chemical_formula_sum "Si O2"
_cell_formula_units_Z 176
_cell_length_a 24.258106
_cell_length_b 24.258106
_cell_length_c 11.925762
_cell_angle_alpha 90.000000
_cell_angle_beta 90.000000
_cell_angle_gamma 90.000000
_cell_volume 7017.782706
_symmetry_space_group_name_H-M "I 41/A C D"
_symmetry_group_IT_number 142
_space_group.IT_coordinate_system_code '2'
_symmetry_cell_setting 'tetragonal'
loop_
_space_group_symop_operation_xyz
x,y,z
1/4-y,3/4+x,1/4+z
-x,1/2-y,z
1/4+y,1/4-x,3/4+z
x,-y,1/2-z
1/2-x,y,-z
3/4+y,1/4+x,1/4-z
1/4-y,1/4-x,1/4-z
-x,-y,-z
3/4+y,1/4-x,3/4-z
x,1/2+y,-z
3/4-y,3/4+x,1/4-z
-x,y,1/2+z
1/2+x,-y,z
1/4-y,3/4-x,3/4+z
3/4+y,3/4+x,3/4+z
1/2+x,1/2+y,1/2+z
3/4-y,1/4+x,3/4+z
1/2-x,-y,1/2+z
3/4+y,3/4-x,1/4+z
1/2+x,1/2-y,-z
-x,1/2+y,1/2-z
1/4+y,3/4+x,3/4-z
3/4-y,3/4-x,3/4-z
1/2-x,1/2-y,1/2-z
1/4+y,3/4-x,1/4-z
1/2+x,y,1/2-z
1/4-y,1/4+x,3/4-z
1/2-x,1/2+y,z
x,1/2-y,1/2+z
3/4-y,1/4-x,1/4+z
1/4+y,1/4+x,1/4+z
loop_
_atom_site_type_symbol
_atom_site_label
_atom_site_fract_x
_atom_site_fract_y
_atom_site_fract_z
Si Si1 0.479020 0.620759 0.752702
Si Si2 0.086852 0.679985 0.751437
Si Si3 0.750000 0.230590 0.500000
Si Si4 0.280095 0.856576 0.328354
Si Si5 0.049015 0.363445 0.997434
Si Si6 0.844450 0.929066 0.997982
O O1 0.538817 0.640786 0.803401
O O2 0.480030 0.554136 0.760435
O O3 0.464942 0.642235 0.628579
O O4 0.426695 0.653289 0.810713
O O5 0.061078 0.688923 0.875000
O O6 0.099387 0.739176 0.691502
O O7 0.144445 0.649864 0.759400
O O8 0.756529 0.188818 0.604723
O O9 0.325506 0.821515 0.264780
O O10 0.242388 0.885648 0.232349
O O11 0.303467 0.904926 0.409274
O O12 0.817309 0.932692 0.875000
#
# Coordination Sequence:
#
# PCOD8321128 Si02
#       6
#    32  32  16  32  32  32
#     4  10  21  41  64  96 143 180 216 279 349 413
#     4   9  17  37  66  96 134 177 217 267 335 413
#     4  12  22  42  70  94 132 186 234 282 344 422
#     4  12  24  41  71 102 130 182 239 291 345 416
#     4  10  23  38  64 102 139 178 222 275 353 424
#     4  11  21  42  69  96 132 177 238 293 346 415
#
# _framework density 25.079146999999999
#
# number of rings (size 3 to 8) (size 9 to 14) (size 15 to 20)
#    0.000    1.455    3.636    2.727    0.000    8.000 
#    0.000    0.000   20.000    0.000    0.000    0.000 
#    0.000    0.000    0.000    0.000    0.000    0.000 
#
# Total GULP energy -1090539.342066 kJ/mol
# GULP energy per Si atom -12392.492523 kJ/mol
# Density = 2.502207 g / cm^3
# Si number density = 25.079147 Si / 1000 Ang^3
#
#
#
# Elastic Constant Matrix: (Units=GPa)
#
#
# Indices 1 2 3 4 5 6 
#
# 1 178.2208 92.8688 36.4576 0.0000 0.0000 0.0000
# 2 92.8688 178.2201 36.4576 0.0000 0.0000 0.0000
# 3 36.4576 36.4576 51.5769 0.0000 0.0000 0.0000
# 4 0.0000 0.0000 0.0000 34.7700 0.0000 0.0000
# 5 0.0000 0.0000 0.0000 0.0000 34.7703 0.0000
# 6 0.0000 0.0000 0.0000 0.0000 0.0000 33.2501
#
#
#
# Elastic Compliance Matrix: (Units=1/GPa)
#
#
# Indices 1 2 3 4 5 6 
#
# 1 0.008136 -0.003581 -0.003220 0.000000 0.000000 0.000000
# 2 -0.003581 0.008136 -0.003220 0.000000 0.000000 0.000000
# 3 -0.003220 -0.003220 0.023940 0.000000 0.000000 0.000000
# 4 0.000000 0.000000 0.000000 0.028760 0.000000 0.000000
# 5 0.000000 0.000000 0.000000 0.000000 0.028760 0.000000
# 6 0.000000 0.000000 0.000000 0.000000 0.000000 0.030075
#
#
# Mechanical properties :
#
#
# Convention : Reuss Voigt Hill
#
# Bulk Modulus (GPa) = 49.57533 82.17621 65.87577
# Shear Modulus (GPa) = 32.34769 36.70699 34.52734
#
# Velocity S-wave (km/s) = 3.59531 3.82991 3.71446
# Velocity P-wave (km/s) = 6.08650 7.23848 6.68734
#
# Compressibility (1/GPa) = 0.02017132
#
# Stress axis : x y z
#
# Youngs Moduli (GPa) = 122.91802 122.91751 41.77086
#
# Poissons Ratio (x) = 0.44013 0.13449
# Poissons Ratio (y) = 0.44013 0.13449
# Poissons Ratio (z) = 0.39575 0.39575
#
# Static dielectric constant tensor:
#      x y z
#    x 4.598190 0.000000 0.000000 
#    y 0.000000 4.598200 0.000000 
#    z 0.000000 0.000000 4.980300 
# 
# 
# High freq. dielectric constant tensor:
#      x y z
#    x 1.998880 0.000000 0.000000 
#    y 0.000000 1.998880 0.000000 
#    z 0.000000 0.000000 2.044290 
# 
# From -- ./inp_files/5586.got.cif
#   From: 2010.03.12/outbox.cif.g09.slc.cpg/sg142_3_cif.got.tgz:5586.got - 2010.04.03 13:27:16.
