data_PCOD8321431
_publ_section_title
;
Structure prediction by ZEFSAII (Michael W. Deem and Ramdas Pophale) SiO2 
 PCOD8321431
Probable space group: P 31
;
_chemical_formula_sum "Si O2"
_cell_formula_units_Z 21
_cell_length_a 8.812742
_cell_length_b 8.812742
_cell_length_c 14.528519
_cell_angle_alpha 90.000000
_cell_angle_beta 90.000000
_cell_angle_gamma 120.000000
_cell_volume 977.178919
_symmetry_space_group_name_H-M "P 31"
_symmetry_group_IT_number 144
_symmetry_cell_setting 'hexagonal'
loop_
_space_group_symop_operation_xyz
x,y,z
-y,x-y,1/3+z
-x+y,-x,2/3+z
loop_
_atom_site_type_symbol
_atom_site_label
_atom_site_fract_x
_atom_site_fract_y
_atom_site_fract_z
Si Si1 0.345243 0.000118 0.117470
Si Si2 0.716789 0.242662 0.172306
Si Si3 0.242633 0.716670 0.395978
Si Si4 0.275245 0.810165 0.605300
Si Si5 0.810012 0.275066 0.962950
Si Si6 0.118922 0.196142 0.608444
Si Si7 0.922938 0.803942 0.626508
O O1 0.402470 0.892625 0.049154
O O2 0.180013 0.885815 0.182906
O O3 0.509885 0.107728 0.185817
O O4 0.294235 0.114328 0.052013
O O5 0.748680 0.411568 0.225710
O O6 0.845566 0.171997 0.206638
O O7 0.746878 0.279912 0.064781
O O8 0.279857 0.746750 0.503506
O O9 0.411447 0.748130 0.342633
O O10 0.172297 0.845693 0.361599
O O11 0.115127 0.835278 0.632568
O O12 0.451302 0.000125 0.617373
O O13 0.835192 0.114965 0.935756
O O14 0.944108 0.000015 0.617493
#
# Coordination Sequence:
#
# PCOD8321431 Si02
#       7
#     3   3   3   3   3   3   3
#     4  12  26  42  72 104 140 190 240 308 360 444
#     4  12  23  49  67 106 143 191 245 308 371 443
#     4  12  23  49  67 106 143 191 245 308 371 443
#     4  11  27  43  73 100 145 192 244 307 374 451
#     4  11  27  43  73 100 145 192 244 307 374 451
#     4  11  25  45  70 103 140 189 241 304 369 439
#     4  11  25  45  70 103 140 189 241 304 369 439
#
# _framework density 21.490434
#
# number of rings (size 3 to 8) (size 9 to 14) (size 15 to 20)
#    0.000    0.571    5.714    0.000   12.000    3.429 
#    0.000    0.000    0.000    0.000    0.000    0.000 
#    0.000    0.000    0.000    0.000    0.000    0.000 
#
# Total GULP energy -260267.532422 kJ/mol
# GULP energy per Si atom -12393.692020 kJ/mol
# Density = 2.144152 g / cm^3
# Si number density = 21.490434 Si / 1000 Ang^3
#
#
#
# Elastic Constant Matrix: (Units=GPa)
#
#
# Indices 1 2 3 4 5 6 
#
# 1 100.6869 29.8425 42.5815 -8.6904 -0.0584 0.0000
# 2 29.8425 100.6869 42.5815 8.6904 0.0584 0.0000
# 3 42.5815 42.5815 124.8720 0.0000 0.0000 0.0000
# 4 -8.6904 8.6904 0.0000 34.3337 0.0000 0.0584
# 5 -0.0584 0.0584 0.0000 0.0000 34.3337 -8.6904
# 6 0.0000 0.0000 0.0000 0.0584 -8.6904 35.4222
#
#
#
# Elastic Compliance Matrix: (Units=1/GPa)
#
#
# Indices 1 2 3 4 5 6 
#
# 1 0.012452 -0.002598 -0.003360 0.003809 0.000026 0.000000
# 2 -0.002598 0.012452 -0.003360 -0.003809 -0.000026 0.000000
# 3 -0.003360 -0.003360 0.010300 0.000000 0.000000 0.000000
# 4 0.003809 -0.003809 0.000000 0.031054 0.000000 -0.000051
# 5 0.000026 -0.000026 0.000000 0.000000 0.031054 0.007619
# 6 0.000000 0.000000 0.000000 -0.000051 0.007619 0.030100
#
#
# Mechanical properties :
#
#
# Convention : Reuss Voigt Hill
#
# Bulk Modulus (GPa) = 60.36320 61.80630 61.08475
# Shear Modulus (GPa) = 32.98785 34.90061 33.94423
#
# Velocity S-wave (km/s) = 3.92216 4.03427 3.97861
# Velocity P-wave (km/s) = 6.97571 7.10794 7.04213
#
# Compressibility (1/GPa) = 0.01656639
#
# Stress axis : x y z
#
# Youngs Moduli (GPa) = 80.31037 80.31037 97.08994
#
# Poissons Ratio (x) = 0.20868 0.32622
# Poissons Ratio (y) = 0.20868 0.32622
# Poissons Ratio (z) = 0.26984 0.26984
#
# Static dielectric constant tensor:
#      x y z
#    x 4.275220 0.000000 0.000000 
#    y 0.000000 4.275220 0.000000 
#    z 0.000000 0.000000 4.155510 
# 
# 
# High freq. dielectric constant tensor:
#      x y z
#    x 1.851350 0.000000 0.000000 
#    y 0.000000 1.851350 0.000000 
#    z 0.000000 0.000000 1.843820 
# 
# From -- ./inp_files/609.got.cif
#   From: 2010.03.12/outbox.cif.g09.slc.cpg/sg144_cif.got.tgz:609.got - 2010.04.03 13:34:42.
