data_PCOD8321751
_publ_section_title
;
Structure prediction by ZEFSAII (Michael W. Deem and Ramdas Pophale) SiO2 
 PCOD8321751
Probable space group: R -3
;
_chemical_formula_sum "Si O2"
_cell_formula_units_Z 108
_cell_length_a 20.787047
_cell_length_b 20.787047
_cell_length_c 13.744225
_cell_angle_alpha 90.000000
_cell_angle_beta 90.000000
_cell_angle_gamma 120.000000
_cell_volume 5143.236370
_symmetry_space_group_name_H-M "R -3"
_symmetry_group_IT_number 148
_symmetry_cell_setting 'hexagonal'
loop_
_space_group_symop_operation_xyz
x,y,z
-y,x-y,z
-x+y,-x,z
-x,-y,-z
y,-x+y,-z
x-y,x,-z
2/3+x,1/3+y,1/3+z
2/3-y,1/3+x-y,1/3+z
2/3-x+y,1/3-x,1/3+z
2/3-x,1/3-y,1/3-z
2/3+y,1/3-x+y,1/3-z
2/3+x-y,1/3+x,1/3-z
1/3+x,2/3+y,2/3+z
1/3-y,2/3+x-y,2/3+z
1/3-x+y,2/3-x,2/3+z
1/3-x,2/3-y,2/3-z
1/3+y,2/3-x+y,2/3-z
1/3+x-y,2/3+x,2/3-z
loop_
_atom_site_type_symbol
_atom_site_label
_atom_site_fract_x
_atom_site_fract_y
_atom_site_fract_z
Si Si1 0.217134 0.706703 0.188050
Si Si2 0.582281 0.876454 0.018874
Si Si3 0.728085 0.022243 0.041482
Si Si4 0.891342 0.318915 0.497354
Si Si5 0.749487 0.882865 0.301134
Si Si6 0.777307 0.581481 0.164530
O O1 0.292143 0.753677 0.125945
O O2 0.148761 0.699713 0.126130
O O3 0.221126 0.744285 0.289854
O O4 0.669573 0.934083 0.035186
O O5 0.540124 0.910841 0.957353
O O6 0.565944 0.807367 0.949956
O O7 0.685203 0.062250 0.087094
O O8 0.803884 0.041279 0.100887
O O9 0.751164 0.045098 0.928881
O O10 0.816697 0.247510 0.536245
O O11 0.872228 0.384197 0.468270
O O12 0.666667 0.833334 0.333334
O O13 0.833334 0.666667 0.166667
#
# Coordination Sequence:
#
# PCOD8321751 Si02
#       6
#    18  18  18  18  18  18
#     4  10  23  41  65  89 125 169 210 263 312 389
#     4  11  22  39  59  94 126 158 207 260 318 372
#     4  11  22  38  60  87 124 163 203 256 307 383
#     4  11  24  42  60  91 125 167 210 253 317 384
#     4  11  24  36  59  94 126 164 204 260 318 370
#     4  10  22  40  60  86 121 167 209 248 310 383
#
# _framework density 20.998453000000001
#
# number of rings (size 3 to 8) (size 9 to 14) (size 15 to 20)
#    0.000    1.333    5.000    1.167    4.667    4.000 
#    0.000    0.000    0.000    0.667    0.000    1.167 
#    0.000    0.000    0.000    0.000    0.000    0.000 
#
# Total GULP energy -446022.538051 kJ/mol
# GULP energy per Si atom -12389.514946 kJ/mol
# Density = 2.095066 g / cm^3
# Si number density = 20.998453 Si / 1000 Ang^3
#
#
#
# Elastic Constant Matrix: (Units=GPa)
#
#
# Indices 1 2 3 4 5 6 
#
# 1 67.8788 15.0827 19.5080 7.5290 1.9205 0.0000
# 2 15.0827 67.8788 19.5080 -7.5290 -1.9205 0.0000
# 3 19.5080 19.5080 94.0860 0.0000 0.0000 0.0000
# 4 7.5290 -7.5290 0.0000 30.4916 0.0000 -1.9205
# 5 1.9205 -1.9205 0.0000 0.0000 30.4916 7.5290
# 6 0.0000 0.0000 0.0000 -1.9205 7.5290 26.3980
#
#
#
# Elastic Compliance Matrix: (Units=1/GPa)
#
#
# Indices 1 2 3 4 5 6 
#
# 1 0.016916 -0.003560 -0.002769 -0.005056 -0.001290 0.000000
# 2 -0.003560 0.016916 -0.002769 0.005056 0.001290 0.000000
# 3 -0.002769 -0.002769 0.011777 0.000000 0.000000 0.000000
# 4 -0.005056 0.005056 0.000000 0.035455 0.000000 0.002579
# 5 -0.001290 0.001290 0.000000 0.000000 0.035455 -0.010112
# 6 0.000000 0.000000 0.000000 0.002579 -0.010112 0.040953
#
#
# Mechanical properties :
#
#
# Convention : Reuss Voigt Hill
#
# Bulk Modulus (GPa) = 36.48025 37.56010 37.02018
# Shear Modulus (GPa) = 27.05498 29.19259 28.12378
#
# Velocity S-wave (km/s) = 3.59336 3.73262 3.66365
# Velocity P-wave (km/s) = 5.88446 6.04173 5.96361
#
# Compressibility (1/GPa) = 0.02741209
#
# Stress axis : x y z
#
# Youngs Moduli (GPa) = 59.11416 59.11416 84.91161
#
# Poissons Ratio (x) = 0.21046 0.23514
# Poissons Ratio (y) = 0.21046 0.23514
# Poissons Ratio (z) = 0.16370 0.16370
#
# Static dielectric constant tensor:
#      x y z
#    x 4.585370 0.000000 0.000000 
#    y 0.000000 4.585370 0.000000 
#    z 0.000000 0.000000 3.307460 
# 
# 
# High freq. dielectric constant tensor:
#      x y z
#    x 1.814780 0.000000 0.000000 
#    y 0.000000 1.814780 0.000000 
#    z 0.000000 0.000000 1.820230 
# 
# From -- ./inp_files/2026.got.cif
#   From: 2010.03.12/outbox.cif.g09.slc.cpg/sg148_2_cif.got.tgz:2026.got - 2010.04.03 13:38:46.
