data_PCOD8321354
_publ_section_title
;
Structure prediction by ZEFSAII (Michael W. Deem and Ramdas Pophale) SiO2 
 PCOD8321354
Probable space group: P 31
;
_chemical_formula_sum "Si O2"
_cell_formula_units_Z 18
_cell_length_a 12.477226
_cell_length_b 12.477226
_cell_length_c 6.394146
_cell_angle_alpha 90.000000
_cell_angle_beta 90.000000
_cell_angle_gamma 120.000000
_cell_volume 862.083362
_symmetry_space_group_name_H-M "P 31"
_symmetry_group_IT_number 144
_symmetry_cell_setting 'hexagonal'
loop_
_space_group_symop_operation_xyz
x,y,z
-y,x-y,1/3+z
-x+y,-x,2/3+z
loop_
_atom_site_type_symbol
_atom_site_label
_atom_site_fract_x
_atom_site_fract_y
_atom_site_fract_z
Si Si1 0.105595 0.354538 0.155420
Si Si2 0.651550 0.224414 0.522995
Si Si3 0.015116 0.906194 0.747165
Si Si4 0.773292 0.666665 0.801741
Si Si5 0.561069 0.582275 0.114729
Si Si6 0.439445 0.666667 0.801740
O O1 0.134675 0.253049 0.057593
O O2 0.203675 0.439828 0.334248
O O3 0.970832 0.285856 0.259149
O O4 0.109305 0.442640 0.968410
O O5 0.699432 0.296145 0.739693
O O6 0.764196 0.219269 0.410381
O O7 0.548293 0.080284 0.545887
O O8 0.967229 0.930048 0.530477
O O9 0.902472 0.788397 0.859773
O O10 0.695831 0.648360 0.010994
O O11 0.462987 0.569485 0.935908
O O12 0.333335 0.588489 0.635071
#
# Coordination Sequence:
#
# PCOD8321354 Si02
#       6
#     3   3   3   3   3   3
#     4  10  21  38  59  83 116 153 195 243 291 345
#     4  10  20  36  58  84 118 157 198 242 290 343
#     4  10  20  36  58  84 118 157 198 242 290 343
#     4   9  20  35  54  86 116 151 196 243 294 342
#     4  10  21  38  59  83 116 153 195 243 291 345
#     4  11  24  41  60  84 116 151 190 241 298 356
#
# _framework density 20.879652
#
# number of rings (size 3 to 8) (size 9 to 14) (size 15 to 20)
#    0.000    2.000    0.000    3.000    0.000    4.000 
#    0.000    8.333    0.000    0.000    0.000    0.000 
#    0.000    0.000    0.000    0.000    0.000    0.000 
#
# Total GULP energy -223105.867973 kJ/mol
# GULP energy per Si atom -12394.770443 kJ/mol
# Density = 2.083213 g / cm^3
# Si number density = 20.879652 Si / 1000 Ang^3
#
#
#
# Elastic Constant Matrix: (Units=GPa)
#
#
# Indices 1 2 3 4 5 6 
#
# 1 98.2540 44.4197 36.5397 3.9970 0.0003 0.0000
# 2 44.4197 98.2540 36.5397 -3.9970 -0.0003 0.0000
# 3 36.5397 36.5397 88.1875 0.0000 0.0000 0.0000
# 4 3.9970 -3.9970 0.0000 30.0967 0.0000 -0.0003
# 5 0.0003 -0.0003 0.0000 0.0000 30.0967 3.9970
# 6 0.0000 0.0000 0.0000 -0.0003 3.9970 26.9171
#
#
#
# Elastic Compliance Matrix: (Units=1/GPa)
#
#
# Indices 1 2 3 4 5 6 
#
# 1 0.013923 -0.005026 -0.003687 -0.002517 0.000000 0.000000
# 2 -0.005026 0.013923 -0.003687 0.002517 0.000000 0.000000
# 3 -0.003687 -0.003687 0.014394 0.000000 0.000000 0.000000
# 4 -0.002517 0.002517 0.000000 0.033895 0.000000 0.000000
# 5 0.000000 0.000000 0.000000 0.000000 0.033895 -0.005033
# 6 0.000000 0.000000 0.000000 0.000000 -0.005033 0.037898
#
#
# Mechanical properties :
#
#
# Convention : Reuss Voigt Hill
#
# Bulk Modulus (GPa) = 57.32977 57.74375 57.53676
# Shear Modulus (GPa) = 28.00478 28.56852 28.28665
#
# Velocity S-wave (km/s) = 3.66628 3.70300 3.68468
# Velocity P-wave (km/s) = 6.74084 6.78222 6.76156
#
# Compressibility (1/GPa) = 0.01744295
#
# Stress axis : x y z
#
# Youngs Moduli (GPa) = 71.82236 71.82236 69.47141
#
# Poissons Ratio (x) = 0.36098 0.25611
# Poissons Ratio (y) = 0.36098 0.25611
# Poissons Ratio (z) = 0.26477 0.26477
#
# Static dielectric constant tensor:
#      x y z
#    x 3.884730 0.000000 0.000000 
#    y 0.000000 3.884730 0.000000 
#    z 0.000000 0.000000 3.619600 
# 
# 
# High freq. dielectric constant tensor:
#      x y z
#    x 1.819840 0.000000 0.000000 
#    y 0.000000 1.819840 0.000000 
#    z 0.000000 0.000000 1.809260 
# 
# From -- ./inp_files/99.got.cif
#   From: 2010.03.12/outbox.cif.g09.slc.cpg/sg144_cif.got.tgz:99.got - 2010.04.03 13:34:42.
