data_PCOD8321290
_publ_section_title
;
Structure prediction by ZEFSAII (Michael W. Deem and Ramdas Pophale) SiO2 
 PCOD8321290
Probable space group: I 41/A C D
;
_chemical_formula_sum "Si O2"
_cell_formula_units_Z 112
_cell_length_a 13.567440
_cell_length_b 13.567440
_cell_length_c 27.216665
_cell_angle_alpha 90.000000
_cell_angle_beta 90.000000
_cell_angle_gamma 90.000000
_cell_volume 5009.919263
_symmetry_space_group_name_H-M "I 41/A C D"
_symmetry_group_IT_number 142
_space_group.IT_coordinate_system_code '2'
_symmetry_cell_setting 'tetragonal'
loop_
_space_group_symop_operation_xyz
x,y,z
1/4-y,3/4+x,1/4+z
-x,1/2-y,z
1/4+y,1/4-x,3/4+z
x,-y,1/2-z
1/2-x,y,-z
3/4+y,1/4+x,1/4-z
1/4-y,1/4-x,1/4-z
-x,-y,-z
3/4+y,1/4-x,3/4-z
x,1/2+y,-z
3/4-y,3/4+x,1/4-z
-x,y,1/2+z
1/2+x,-y,z
1/4-y,3/4-x,3/4+z
3/4+y,3/4+x,3/4+z
1/2+x,1/2+y,1/2+z
3/4-y,1/4+x,3/4+z
1/2-x,-y,1/2+z
3/4+y,3/4-x,1/4+z
1/2+x,1/2-y,-z
-x,1/2+y,1/2-z
1/4+y,3/4+x,3/4-z
3/4-y,3/4-x,3/4-z
1/2-x,1/2-y,1/2-z
1/4+y,3/4-x,1/4-z
1/2+x,y,1/2-z
1/4-y,1/4+x,3/4-z
1/2-x,1/2+y,z
x,1/2-y,1/2+z
3/4-y,1/4-x,1/4+z
1/4+y,1/4+x,1/4+z
loop_
_atom_site_type_symbol
_atom_site_label
_atom_site_fract_x
_atom_site_fract_y
_atom_site_fract_z
Si Si1 0.108133 0.001452 0.348406
Si Si2 0.449505 0.652126 0.509670
Si Si3 0.250000 0.252503 0.000000
Si Si4 0.445205 0.034146 0.074274
O O1 0.067222 0.969037 0.295389
O O2 0.187936 0.087041 0.342204
O O3 0.017836 0.041361 0.380065
O O4 0.158702 0.908702 0.375000
O O5 0.500000 0.750000 0.531054
O O6 0.342146 0.676974 0.487201
O O7 0.519082 0.609833 0.467148
O O8 0.439233 0.576637 0.554308
#
# Coordination Sequence:
#
# PCOD8321290 Si02
#       4
#    32  32  16  32
#     4  12  28  47  73 111 144 194 247 304 369 443
#     4  11  24  48  74 107 146 190 244 302 367 443
#     4  12  26  46  78 102 152 200 236 308 372 434
#     4  11  27  46  74 107 144 190 246 303 366 448
#
# _framework density 22.355649
#
# number of rings (size 3 to 8) (size 9 to 14) (size 15 to 20)
#    0.000    0.571    2.857    3.429   12.000    0.000 
#    0.000    2.857    0.000    0.000    0.000    0.000 
#    0.000    0.000    0.000    0.000    0.000    0.000 
#
# Total GULP energy -694887.131932 kJ/mol
# GULP energy per Si atom -12408.698785 kJ/mol
# Density = 2.230477 g / cm^3
# Si number density = 22.355649 Si / 1000 Ang^3
#
#
#
# Elastic Constant Matrix: (Units=GPa)
#
#
# Indices 1 2 3 4 5 6 
#
# 1 117.1560 34.6098 31.5049 0.0000 0.0000 0.0000
# 2 34.6098 117.1560 31.5049 0.0000 0.0000 0.0000
# 3 31.5049 31.5049 124.1376 0.0000 0.0000 0.0000
# 4 0.0000 0.0000 0.0000 36.1283 0.0000 0.0000
# 5 0.0000 0.0000 0.0000 0.0000 36.1283 0.0000
# 6 0.0000 0.0000 0.0000 0.0000 0.0000 29.3041
#
#
#
# Elastic Compliance Matrix: (Units=1/GPa)
#
#
# Indices 1 2 3 4 5 6 
#
# 1 0.009740 -0.002375 -0.001869 0.000000 0.000000 0.000000
# 2 -0.002375 0.009740 -0.001869 0.000000 0.000000 0.000000
# 3 -0.001869 -0.001869 0.009004 0.000000 0.000000 0.000000
# 4 0.000000 0.000000 0.000000 0.027679 0.000000 0.000000
# 5 0.000000 0.000000 0.000000 0.000000 0.027679 0.000000
# 6 0.000000 0.000000 0.000000 0.000000 0.000000 0.034125
#
#
# Mechanical properties :
#
#
# Convention : Reuss Voigt Hill
#
# Bulk Modulus (GPa) = 61.50880 61.52098 61.51489
# Shear Modulus (GPa) = 36.86977 37.70082 37.28530
#
# Velocity S-wave (km/s) = 4.06549 4.11105 4.08833
# Velocity P-wave (km/s) = 7.04351 7.07907 7.06131
#
# Compressibility (1/GPa) = 0.01625784
#
# Stress axis : x y z
#
# Youngs Moduli (GPa) = 102.67165 102.67165 111.05750
#
# Poissons Ratio (x) = 0.24381 0.20759
# Poissons Ratio (y) = 0.24381 0.20759
# Poissons Ratio (z) = 0.19191 0.19191
#
# Static dielectric constant tensor:
#      x y z
#    x 4.094500 0.000000 0.000000 
#    y 0.000000 4.094500 0.000000 
#    z 0.000000 0.000000 3.946670 
# 
# 
# High freq. dielectric constant tensor:
#      x y z
#    x 1.894040 0.000000 0.000000 
#    y 0.000000 1.894040 0.000000 
#    z 0.000000 0.000000 1.880170 
# 
# From -- ./inp_files/11073.got.cif
#   From: 2010.03.12/outbox.cif.g09.slc.cpg/sg142_6_cif.got.tgz:11073.got - 2010.04.03 13:27:16.
