data_PCOD8321578
_publ_section_title
;
Structure prediction by ZEFSAII (Michael W. Deem and Ramdas Pophale) SiO2 
 PCOD8321578
Probable space group: R 3
;
_chemical_formula_sum "Si O2"
_cell_formula_units_Z 48
_cell_length_a 11.369555
_cell_length_b 11.369555
_cell_length_c 19.629909
_cell_angle_alpha 90.000000
_cell_angle_beta 90.000000
_cell_angle_gamma 120.000000
_cell_volume 2197.535258
_symmetry_space_group_name_H-M "R 3"
_symmetry_group_IT_number 146
_symmetry_cell_setting 'hexagonal'
loop_
_space_group_symop_operation_xyz
x,y,z
-y,x-y,z
-x+y,-x,z
2/3+x,1/3+y,1/3+z
2/3-y,1/3+x-y,1/3+z
2/3-x+y,1/3-x,1/3+z
1/3+x,2/3+y,2/3+z
1/3-y,2/3+x-y,2/3+z
1/3-x+y,2/3-x,2/3+z
loop_
_atom_site_type_symbol
_atom_site_label
_atom_site_fract_x
_atom_site_fract_y
_atom_site_fract_z
Si Si1 0.882486 0.174746 0.345200
Si Si2 0.666667 0.333335 0.476440
Si Si3 0.413394 0.338325 0.233183
Si Si4 0.000000 0.000000 0.675394
Si Si5 0.666666 0.333333 0.171321
Si Si6 0.333333 0.666667 0.968168
Si Si7 0.368867 0.194608 0.489667
Si Si8 0.689809 0.589766 0.941399
O O1 0.739613 0.103254 0.305072
O O2 0.861494 0.133709 0.424469
O O3 0.963279 0.335297 0.328805
O O4 0.986827 0.126704 0.323857
O O5 0.666668 0.333334 0.555891
O O6 0.512400 0.231162 0.454135
O O7 0.522121 0.306062 0.198683
O O8 0.284542 0.284067 0.183655
O O9 0.470341 0.497208 0.242427
O O10 0.000000 0.000000 0.756649
O O11 0.884901 0.854715 0.647373
O O12 0.319648 0.080525 0.547787
#
# Coordination Sequence:
#
# PCOD8321578 Si02
#       8
#     9   3   9   3   3   3   9   9
#     4  12  28  46  78 103 144 190 234 295 357 418
#     4  12  24  49  71 106 141 183 244 293 343 414
#     4  12  26  49  69 106 146 183 239 292 346 426
#     4  12  30  46  74 103 147 193 233 289 357 423
#     4  12  30  46  74 103 147 193 233 289 357 423
#     4  12  24  49  71 106 141 183 244 293 343 414
#     4  12  28  46  78 103 144 190 234 295 357 418
#     4  12  26  49  69 106 146 183 239 292 346 426
#
# _framework density 21.842652999999999
#
# number of rings (size 3 to 8) (size 9 to 14) (size 15 to 20)
#    0.000    0.000    7.500    0.000   10.500    0.000 
#    0.000    0.000    0.000    0.000    0.000    0.000 
#    0.000    0.000    0.000    0.000    0.000    0.000 
#
# Total GULP energy -198440.287663 kJ/mol
# GULP energy per Si atom -12402.517979 kJ/mol
# Density = 2.179294 g / cm^3
# Si number density = 21.842653 Si / 1000 Ang^3
#
#
#
# Elastic Constant Matrix: (Units=GPa)
#
#
# Indices 1 2 3 4 5 6 
#
# 1 102.9460 14.8962 20.8833 4.3182 -1.1282 -0.0003
# 2 14.8962 102.9461 20.8830 -4.3179 1.1284 -0.0001
# 3 20.8833 20.8830 113.1657 0.0007 0.0003 0.0004
# 4 4.3182 -4.3179 0.0007 31.7202 0.0002 1.1281
# 5 -1.1282 1.1284 0.0003 0.0002 31.7208 4.3181
# 6 -0.0003 -0.0001 0.0004 1.1281 4.3181 44.0245
#
#
#
# Elastic Compliance Matrix: (Units=1/GPa)
#
#
# Indices 1 2 3 4 5 6 
#
# 1 0.010301 -0.001221 -0.001676 -0.001568 0.000410 0.000000
# 2 -0.001221 0.010301 -0.001676 0.001568 -0.000410 0.000000
# 3 -0.001676 -0.001676 0.009455 0.000000 0.000000 0.000000
# 4 -0.001568 0.001568 0.000000 0.031982 0.000000 -0.000819
# 5 0.000410 -0.000410 0.000000 0.000000 0.031981 -0.003137
# 6 0.000000 0.000000 0.000000 -0.000819 -0.003137 0.023043
#
#
# Mechanical properties :
#
#
# Convention : Reuss Voigt Hill
#
# Bulk Modulus (GPa) = 47.81861 48.04255 47.93058
# Shear Modulus (GPa) = 37.54390 38.98611 38.26501
#
# Velocity S-wave (km/s) = 4.15038 4.22935 4.19005
# Velocity P-wave (km/s) = 6.70130 6.77439 6.73794
#
# Compressibility (1/GPa) = 0.02091236
#
# Stress axis : x y z
#
# Youngs Moduli (GPa) = 97.08112 97.08128 105.76417
#
# Poissons Ratio (x) = 0.11852 0.17721
# Poissons Ratio (y) = 0.11852 0.17721
# Poissons Ratio (z) = 0.16266 0.16266
#
# Static dielectric constant tensor:
#      x y z
#    x 3.954330 0.000000 0.000000 
#    y 0.000000 3.954320 0.000010 
#    z 0.000000 0.000010 3.812680 
# 
# 
# High freq. dielectric constant tensor:
#      x y z
#    x 1.873570 0.000000 0.000000 
#    y 0.000000 1.873570 0.000000 
#    z 0.000000 0.000000 1.856660 
# 
# From -- ./inp_files/1728.got.cif
#   From: 2010.06.25/outbox.cif.g09.slc.cpg/sg146_cif.got.tgz:1728.got - 2010.06.28 11:17:22.
