data_PCOD8321483
_publ_section_title
;
Structure prediction by ZEFSAII (Michael W. Deem and Ramdas Pophale) SiO2 
 PCOD8321483
Probable space group: P 32
;
_chemical_formula_sum "Si O2"
_cell_formula_units_Z 18
_cell_length_a 9.371478
_cell_length_b 9.371478
_cell_length_c 10.239010
_cell_angle_alpha 90.000000
_cell_angle_beta 90.000000
_cell_angle_gamma 120.000000
_cell_volume 778.762048
_symmetry_space_group_name_H-M "P 32"
_symmetry_group_IT_number 145
_symmetry_cell_setting 'hexagonal'
loop_
_space_group_symop_operation_xyz
x,y,z
-y,x-y,2/3+z
-x+y,-x,1/3+z
loop_
_atom_site_type_symbol
_atom_site_label
_atom_site_fract_x
_atom_site_fract_y
_atom_site_fract_z
Si Si1 0.688051 0.997365 0.071480
Si Si2 0.002635 0.311949 0.498649
Si Si3 0.333333 0.398944 0.118398
Si Si4 0.601055 0.666667 0.451731
Si Si5 0.357353 0.335969 0.831983
Si Si6 0.978616 0.335968 0.071480
O O1 0.744096 0.872048 0.118398
O O2 0.502167 0.927122 0.124676
O O3 0.833333 0.166666 0.132755
O O4 0.695085 0.027356 0.915701
O O5 0.072877 0.497834 0.445453
O O6 0.972645 0.304916 0.654428
O O7 0.833333 0.166667 0.437375
O O8 0.164500 0.406211 0.124677
O O9 0.334394 0.305978 0.987761
O O10 0.694022 0.665604 0.582368
O O11 0.593789 0.835500 0.445453
O O12 0.538715 0.461286 0.785065
#
# Coordination Sequence:
#
# PCOD8321483 Si02
#       6
#     3   3   3   3   3   3
#     4  11  24  42  67  95 128 170 218 270 329 395
#     4  11  24  42  67  95 128 170 218 270 329 395
#     4  10  24  44  64  92 132 174 216 266 330 400
#     4  10  24  44  64  92 132 174 216 266 330 400
#     4  11  24  42  67  95 128 170 218 270 329 395
#     4  11  24  42  67  95 128 170 218 270 329 395
#
# _framework density 23.113609
#
# number of rings (size 3 to 8) (size 9 to 14) (size 15 to 20)
#    0.000    1.333    0.000    4.000    0.000   21.333 
#    0.000    0.000    0.000    0.000    0.000    0.000 
#    0.000    0.000    0.000    0.000    0.000    0.000 
#
# Total GULP energy -223009.145327 kJ/mol
# GULP energy per Si atom -12389.396963 kJ/mol
# Density = 2.306100 g / cm^3
# Si number density = 23.113609 Si / 1000 Ang^3
#
#
#
# Elastic Constant Matrix: (Units=GPa)
#
#
# Indices 1 2 3 4 5 6 
#
# 1 178.7621 113.7204 9.2037 0.0000 0.0000 0.0000
# 2 113.7204 178.7621 9.2037 0.0000 0.0000 0.0000
# 3 9.2037 9.2037 52.9269 0.0000 0.0000 0.0000
# 4 0.0000 0.0000 0.0000 16.3838 0.0000 0.0000
# 5 0.0000 0.0000 0.0000 0.0000 16.3838 0.0000
# 6 0.0000 0.0000 0.0000 0.0000 0.0000 32.5208
#
#
#
# Elastic Compliance Matrix: (Units=1/GPa)
#
#
# Indices 1 2 3 4 5 6 
#
# 1 0.009416 -0.005959 -0.000601 0.000000 0.000000 0.000000
# 2 -0.005959 0.009416 -0.000601 0.000000 0.000000 0.000000
# 3 -0.000601 -0.000601 0.019103 0.000000 0.000000 0.000000
# 4 0.000000 0.000000 0.000000 0.061036 0.000000 0.000000
# 5 0.000000 0.000000 0.000000 0.000000 0.061036 0.000000
# 6 0.000000 0.000000 0.000000 0.000000 0.000000 0.030750
#
#
# Mechanical properties :
#
#
# Convention : Reuss Voigt Hill
#
# Bulk Modulus (GPa) = 42.35095 74.96742 58.65919
# Shear Modulus (GPa) = 23.47980 31.61259 27.54620
#
# Velocity S-wave (km/s) = 3.19069 3.70226 3.45595
# Velocity P-wave (km/s) = 5.65126 7.12604 6.43106
#
# Compressibility (1/GPa) = 0.02361222
#
# Stress axis : x y z
#
# Youngs Moduli (GPa) = 106.20452 106.20452 52.34768
#
# Poissons Ratio (x) = 0.63287 0.03147
# Poissons Ratio (y) = 0.63287 0.03147
# Poissons Ratio (z) = 0.06384 0.06384
#
# Static dielectric constant tensor:
#      x y z
#    x 3.990820 0.000000 0.000000 
#    y 0.000000 3.990820 0.000000 
#    z 0.000000 0.000000 4.337090 
# 
# 
# High freq. dielectric constant tensor:
#      x y z
#    x 1.912290 0.000000 0.000000 
#    y 0.000000 1.912290 0.000000 
#    z 0.000000 0.000000 1.924350 
# 
# From -- ./inp_files/598.got.cif
#   From: 2010.03.12/outbox.cif.g09.slc.cpg/sg145_cif.got.tgz:598.got - 2010.04.03 13:35:35.
