data_PCOD8321351
_publ_section_title
;
Structure prediction by ZEFSAII (Michael W. Deem and Ramdas Pophale) SiO2 
 PCOD8321351
Probable space group: P 31
;
_chemical_formula_sum "Si O2"
_cell_formula_units_Z 24
_cell_length_a 14.468133
_cell_length_b 14.468133
_cell_length_c 6.360616
_cell_angle_alpha 90.000000
_cell_angle_beta 90.000000
_cell_angle_gamma 120.000000
_cell_volume 1153.067666
_symmetry_space_group_name_H-M "P 31"
_symmetry_group_IT_number 144
_symmetry_cell_setting 'hexagonal'
loop_
_space_group_symop_operation_xyz
x,y,z
-y,x-y,1/3+z
-x+y,-x,2/3+z
loop_
_atom_site_type_symbol
_atom_site_label
_atom_site_fract_x
_atom_site_fract_y
_atom_site_fract_z
Si Si1 0.353588 0.020255 0.198050
Si Si2 0.561279 0.037764 0.254512
Si Si3 0.371097 0.227946 0.141588
Si Si4 0.032678 0.224009 0.908377
Si Si5 0.496508 0.866673 0.572880
Si Si6 0.963169 0.799994 0.489887
Si Si7 0.300655 0.857998 0.821056
Si Si8 0.666667 0.028226 0.864717
O O1 0.462406 0.052193 0.321043
O O2 0.385526 0.129073 0.075056
O O3 0.259107 0.999259 0.359317
O O4 0.332593 0.925774 0.036784
O O5 0.666667 0.130793 0.364717
O O6 0.527646 0.920103 0.342410
O O7 0.584255 0.047741 0.004121
O O8 0.381074 0.250922 0.391980
O O9 0.253437 0.194313 0.053690
O O10 0.083592 0.150190 0.846180
O O11 0.112455 0.333333 0.031384
O O12 0.934819 0.143595 0.056782
O O13 0.398514 0.875443 0.672651
O O14 0.483523 0.750259 0.549920
O O15 0.600699 0.929628 0.714223
O O16 0.004405 0.737039 0.348543
#
# Coordination Sequence:
#
# PCOD8321351 Si02
#       8
#     3   3   3   3   3   3   3   3
#     4  12  23  44  71  98 136 182 232 291 354 425
#     4  10  22  41  68  95 131 177 225 283 354 421
#     4  10  22  41  68  95 131 177 225 283 354 421
#     4  12  25  44  67 101 139 182 239 293 348 431
#     4  11  24  42  66  98 139 182 231 289 354 422
#     4  11  24  42  66  98 139 182 231 289 354 422
#     4  12  25  44  67 101 139 182 239 293 348 431
#     4  10  19  42  65  92 128 180 220 279 352 409
#
# _framework density 20.814041
#
# number of rings (size 3 to 8) (size 9 to 14) (size 15 to 20)
#    0.000    1.000    5.000    3.000    0.000    2.000 
#    4.500    1.250    0.000    0.000    0.000    0.000 
#    0.000    0.000    0.000    0.000    0.000    0.000 
#
# Total GULP energy -297335.881251 kJ/mol
# GULP energy per Si atom -12388.995052 kJ/mol
# Density = 2.076667 g / cm^3
# Si number density = 20.814041 Si / 1000 Ang^3
#
#
#
# Elastic Constant Matrix: (Units=GPa)
#
#
# Indices 1 2 3 4 5 6 
#
# 1 114.2249 54.3418 40.6361 0.4737 0.0000 0.0000
# 2 54.3418 114.2249 40.6361 -0.4737 0.0000 0.0000
# 3 40.6361 40.6361 113.1692 0.0000 0.0000 0.0000
# 4 0.4737 -0.4737 0.0000 29.4292 0.0000 0.0000
# 5 0.0000 0.0000 0.0000 0.0000 29.4292 0.4737
# 6 0.0000 0.0000 0.0000 0.0000 0.4737 29.9416
#
#
#
# Elastic Compliance Matrix: (Units=1/GPa)
#
#
# Indices 1 2 3 4 5 6 
#
# 1 0.011939 -0.004765 -0.002576 -0.000269 0.000000 0.000000
# 2 -0.004765 0.011939 -0.002576 0.000269 0.000000 0.000000
# 3 -0.002576 -0.002576 0.010686 0.000000 0.000000 0.000000
# 4 -0.000269 0.000269 0.000000 0.033989 0.000000 0.000000
# 5 0.000000 0.000000 0.000000 0.000000 0.033989 -0.000538
# 6 0.000000 0.000000 0.000000 0.000000 -0.000538 0.033407
#
#
# Mechanical properties :
#
#
# Convention : Reuss Voigt Hill
#
# Bulk Modulus (GPa) = 67.88571 68.09410 67.98991
# Shear Modulus (GPa) = 31.11541 31.49365 31.30453
#
# Velocity S-wave (km/s) = 3.87062 3.89407 3.88236
# Velocity P-wave (km/s) = 7.25684 7.28045 7.26865
#
# Compressibility (1/GPa) = 0.01473064
#
# Stress axis : x y z
#
# Youngs Moduli (GPa) = 83.75955 83.75955 93.57706
#
# Poissons Ratio (x) = 0.39907 0.24107
# Poissons Ratio (y) = 0.39907 0.24107
# Poissons Ratio (z) = 0.21578 0.21578
#
# Static dielectric constant tensor:
#      x y z
#    x 3.780330 0.000000 0.000000 
#    y 0.000000 3.780330 0.000000 
#    z 0.000000 0.000000 4.018990 
# 
# 
# High freq. dielectric constant tensor:
#      x y z
#    x 1.811230 0.000000 0.000000 
#    y 0.000000 1.811230 0.000000 
#    z 0.000000 0.000000 1.823330 
# 
# From -- ./inp_files/162.got.cif
#   From: 2010.03.12/outbox.cif.g09.slc.cpg/sg144_cif.got.tgz:162.got - 2010.04.03 13:34:42.
