data_PCOD8321031
_publ_section_title
;
Structure prediction by ZEFSAII (Michael W. Deem and Ramdas Pophale) SiO2 
 PCOD8321031
Probable space group: I 41/A C D
;
_chemical_formula_sum "Si O2"
_cell_formula_units_Z 240
_cell_length_a 26.546052
_cell_length_b 26.546052
_cell_length_c 17.625294
_cell_angle_alpha 90.000000
_cell_angle_beta 90.000000
_cell_angle_gamma 90.000000
_cell_volume 12420.419133
_symmetry_space_group_name_H-M "I 41/A C D"
_symmetry_group_IT_number 142
_space_group.IT_coordinate_system_code '2'
_symmetry_cell_setting 'tetragonal'
loop_
_space_group_symop_operation_xyz
x,y,z
1/4-y,3/4+x,1/4+z
-x,1/2-y,z
1/4+y,1/4-x,3/4+z
x,-y,1/2-z
1/2-x,y,-z
3/4+y,1/4+x,1/4-z
1/4-y,1/4-x,1/4-z
-x,-y,-z
3/4+y,1/4-x,3/4-z
x,1/2+y,-z
3/4-y,3/4+x,1/4-z
-x,y,1/2+z
1/2+x,-y,z
1/4-y,3/4-x,3/4+z
3/4+y,3/4+x,3/4+z
1/2+x,1/2+y,1/2+z
3/4-y,1/4+x,3/4+z
1/2-x,-y,1/2+z
3/4+y,3/4-x,1/4+z
1/2+x,1/2-y,-z
-x,1/2+y,1/2-z
1/4+y,3/4+x,3/4-z
3/4-y,3/4-x,3/4-z
1/2-x,1/2-y,1/2-z
1/4+y,3/4-x,1/4-z
1/2+x,y,1/2-z
1/4-y,1/4+x,3/4-z
1/2-x,1/2+y,z
x,1/2-y,1/2+z
3/4-y,1/4-x,1/4+z
1/4+y,1/4+x,1/4+z
loop_
_atom_site_type_symbol
_atom_site_label
_atom_site_fract_x
_atom_site_fract_y
_atom_site_fract_z
Si Si1 0.614972 0.785513 0.103326
Si Si2 0.129299 0.375409 0.238928
Si Si3 0.196072 0.223974 0.968150
Si Si4 0.565323 0.038936 0.060909
Si Si5 0.933764 0.683764 0.875000
Si Si6 0.273426 0.910746 0.077106
Si Si7 0.687545 0.330978 0.607677
Si Si8 0.461772 0.061654 0.984832
O O1 0.588092 0.838092 0.125000
O O2 0.573986 0.740882 0.096618
O O3 0.645198 0.772677 0.178101
O O4 0.650722 0.785753 0.028266
O O5 0.185846 0.359593 0.261747
O O6 0.101562 0.330079 0.196418
O O7 0.129061 0.425476 0.187302
O O8 0.102190 0.387801 0.317913
O O9 0.185880 0.189102 0.894204
O O10 0.203010 0.281643 0.940679
O O11 0.250000 0.206835 0.000000
O O12 0.572758 0.978540 0.062276
O O13 0.514312 0.041542 0.014178
O O14 0.289418 0.960583 0.125000
O O15 0.233697 0.871313 0.112906
O O16 0.250000 0.932656 0.000000
O O17 0.669553 0.319773 0.692675
#
# Coordination Sequence:
#
# PCOD8321031 Si02
#       8
#    32  32  32  32  16  32  32  32
#     4  12  26  42  61  88 131 174 212 262 319 394
#     4  11  20  34  61  90 122 155 202 265 312 370
#     4  11  21  39  62  89 121 156 215 266 317 369
#     4  10  21  35  60  88 117 152 198 262 316 363
#     4  12  23  40  62  90 124 168 214 258 322 376
#     4  10  20  34  58  95 126 159 199 260 322 383
#     4  10  22  35  62  94 123 157 203 261 317 376
#     4  10  21  38  57  88 120 155 199 254 317 372
#
# _framework density 19.32302
#
# number of rings (size 3 to 8) (size 9 to 14) (size 15 to 20)
#    0.000    1.333    4.667    2.200    1.867    0.000 
#    0.000    0.000    0.000   10.400    0.000    0.000 
#    0.000    0.000    0.000    0.000    0.000    0.000 
#
# Total GULP energy -1486720.152263 kJ/mol
# GULP energy per Si atom -12389.334602 kJ/mol
# Density = 1.927904 g / cm^3
# Si number density = 19.323020 Si / 1000 Ang^3
#
#
#
# Elastic Constant Matrix: (Units=GPa)
#
#
# Indices 1 2 3 4 5 6 
#
# 1 60.7673 -0.8694 27.5108 0.0000 0.0000 0.0000
# 2 -0.8694 60.7637 27.5096 0.0000 0.0000 0.0000
# 3 27.5108 27.5096 97.1349 0.0000 0.0000 0.0000
# 4 0.0000 0.0000 0.0000 25.2689 0.0000 0.0000
# 5 0.0000 0.0000 0.0000 0.0000 25.2695 0.0000
# 6 0.0000 0.0000 0.0000 0.0000 0.0000 35.1432
#
#
#
# Elastic Compliance Matrix: (Units=1/GPa)
#
#
# Indices 1 2 3 4 5 6 
#
# 1 0.019395 0.003171 -0.006391 0.000000 0.000000 0.000000
# 2 0.003171 0.019396 -0.006391 0.000000 0.000000 0.000000
# 3 -0.006391 -0.006391 0.013915 0.000000 0.000000 0.000000
# 4 0.000000 0.000000 0.000000 0.039574 0.000000 0.000000
# 5 0.000000 0.000000 0.000000 0.000000 0.039573 0.000000
# 6 0.000000 0.000000 0.000000 0.000000 0.000000 0.028455
#
#
# Mechanical properties :
#
#
# Convention : Reuss Voigt Hill
#
# Bulk Modulus (GPa) = 29.86560 36.32976 33.09768
# Shear Modulus (GPa) = 26.22014 28.10396 27.16205
#
# Velocity S-wave (km/s) = 3.68766 3.81784 3.75331
# Velocity P-wave (km/s) = 5.79839 6.18681 5.99574
#
# Compressibility (1/GPa) = 0.03348334
#
# Stress axis : x y z
#
# Youngs Moduli (GPa) = 51.55969 51.55682 71.86412
#
# Poissons Ratio (x) = -0.16348 0.45929
# Poissons Ratio (y) = -0.16349 0.45930
# Poissons Ratio (z) = 0.32953 0.32951
#
# Static dielectric constant tensor:
#      x y z
#    x 3.488660 0.000000 0.000000 
#    y 0.000000 3.488660 0.000000 
#    z 0.000000 0.000000 3.751970 
# 
# 
# High freq. dielectric constant tensor:
#      x y z
#    x 1.735730 0.000000 0.000000 
#    y 0.000000 1.735730 0.000000 
#    z 0.000000 0.000000 1.764720 
# 
# From -- ./inp_files/7828.got.cif
#   From: 2010.03.12/outbox.cif.g09.slc.cpg/sg142_4_cif.got.tgz:7828.got - 2010.04.03 13:27:16.
