data_PCOD8321106
_publ_section_title
;
Structure prediction by ZEFSAII (Michael W. Deem and Ramdas Pophale) SiO2 
 PCOD8321106
Probable space group: I 41/A C D
;
_chemical_formula_sum "Si O2"
_cell_formula_units_Z 144
_cell_length_a 25.988411
_cell_length_b 25.988411
_cell_length_c 11.191267
_cell_angle_alpha 90.000000
_cell_angle_beta 90.000000
_cell_angle_gamma 90.000000
_cell_volume 7558.553824
_symmetry_space_group_name_H-M "I 41/A C D"
_symmetry_group_IT_number 142
_space_group.IT_coordinate_system_code '2'
_symmetry_cell_setting 'tetragonal'
loop_
_space_group_symop_operation_xyz
x,y,z
1/4-y,3/4+x,1/4+z
-x,1/2-y,z
1/4+y,1/4-x,3/4+z
x,-y,1/2-z
1/2-x,y,-z
3/4+y,1/4+x,1/4-z
1/4-y,1/4-x,1/4-z
-x,-y,-z
3/4+y,1/4-x,3/4-z
x,1/2+y,-z
3/4-y,3/4+x,1/4-z
-x,y,1/2+z
1/2+x,-y,z
1/4-y,3/4-x,3/4+z
3/4+y,3/4+x,3/4+z
1/2+x,1/2+y,1/2+z
3/4-y,1/4+x,3/4+z
1/2-x,-y,1/2+z
3/4+y,3/4-x,1/4+z
1/2+x,1/2-y,-z
-x,1/2+y,1/2-z
1/4+y,3/4+x,3/4-z
3/4-y,3/4-x,3/4-z
1/2-x,1/2-y,1/2-z
1/4+y,3/4-x,1/4-z
1/2+x,y,1/2-z
1/4-y,1/4+x,3/4-z
1/2-x,1/2+y,z
x,1/2-y,1/2+z
3/4-y,1/4-x,1/4+z
1/4+y,1/4+x,1/4+z
loop_
_atom_site_type_symbol
_atom_site_label
_atom_site_fract_x
_atom_site_fract_y
_atom_site_fract_z
Si Si1 0.974314 0.653573 0.814188
Si Si2 0.087891 0.837891 0.375000
Si Si3 0.450176 0.570638 0.488396
Si Si4 0.721883 0.701087 0.880557
Si Si5 0.397596 0.624630 0.876579
O O1 0.956346 0.706346 0.875000
O O2 0.957971 0.604732 0.893785
O O3 0.946941 0.651825 0.685223
O O4 0.035171 0.655751 0.801308
O O5 0.095445 0.878667 0.480091
O O6 0.502113 0.566176 0.409723
O O7 0.435709 0.512837 0.528680
O O8 0.402590 0.594629 0.412356
O O9 0.686043 0.651059 0.908557
O O10 0.750000 0.719859 0.000000
#
# Coordination Sequence:
#
# PCOD8321106 Si02
#       5
#    32  16  32  32  32
#     4  10  21  37  53  82 122 159 199 238 288 357
#     4  12  23  36  56  82 124 168 198 234 300 372
#     4  10  22  38  59  88 122 152 203 254 299 362
#     4  11  21  37  63  90 120 157 203 253 312 362
#     4  11  23  38  58  86 121 158 199 254 300 361
#
# _framework density 19.051262999999999
#
# number of rings (size 3 to 8) (size 9 to 14) (size 15 to 20)
#    0.000    1.333    4.444    1.667    3.111    0.000 
#    0.000    0.000    0.000    0.000    0.000   10.889 
#    0.000    0.000    0.000    0.000    0.000    0.000 
#
# Total GULP energy -892360.739314 kJ/mol
# GULP energy per Si atom -12393.899157 kJ/mol
# Density = 1.900790 g / cm^3
# Si number density = 19.051263 Si / 1000 Ang^3
#
#
#
# Elastic Constant Matrix: (Units=GPa)
#
#
# Indices 1 2 3 4 5 6 
#
# 1 81.1614 43.3936 19.5332 0.0000 0.0000 0.0000
# 2 43.3936 81.1614 19.5332 0.0000 0.0000 0.0000
# 3 19.5332 19.5332 102.7405 0.0000 0.0000 0.0000
# 4 0.0000 0.0000 0.0000 24.8305 0.0000 0.0000
# 5 0.0000 0.0000 0.0000 0.0000 24.8305 0.0000
# 6 0.0000 0.0000 0.0000 0.0000 0.0000 28.8359
#
#
#
# Elastic Compliance Matrix: (Units=1/GPa)
#
#
# Indices 1 2 3 4 5 6 
#
# 1 0.017508 -0.008970 -0.001623 0.000000 0.000000 0.000000
# 2 -0.008970 0.017508 -0.001623 0.000000 0.000000 0.000000
# 3 -0.001623 -0.001623 0.010350 0.000000 0.000000 0.000000
# 4 0.000000 0.000000 0.000000 0.040273 0.000000 0.000000
# 5 0.000000 0.000000 0.000000 0.000000 0.040273 0.000000
# 6 0.000000 0.000000 0.000000 0.000000 0.000000 0.034679
#
#
# Mechanical properties :
#
#
# Convention : Reuss Voigt Hill
#
# Bulk Modulus (GPa) = 47.77135 47.77594 47.77364
# Shear Modulus (GPa) = 26.04152 27.87294 26.95723
#
# Velocity S-wave (km/s) = 3.70120 3.82913 3.76571
# Velocity P-wave (km/s) = 6.58747 6.68444 6.63613
#
# Compressibility (1/GPa) = 0.02093305
#
# Stress axis : x y z
#
# Youngs Moduli (GPa) = 57.11795 57.11795 96.61391
#
# Poissons Ratio (x) = 0.51234 0.15682
# Poissons Ratio (y) = 0.51234 0.15682
# Poissons Ratio (z) = 0.09271 0.09271
#
# Static dielectric constant tensor:
#      x y z
#    x 3.440480 0.000000 0.000000 
#    y 0.000000 3.440480 0.000000 
#    z 0.000000 0.000000 3.528470 
# 
# 
# High freq. dielectric constant tensor:
#      x y z
#    x 1.719840 0.000000 0.000000 
#    y 0.000000 1.719840 0.000000 
#    z 0.000000 0.000000 1.755790 
# 
# From -- ./inp_files/3742.got.cif
#   From: 2010.03.12/outbox.cif.g09.slc.cpg/sg142_2_cif.got.tgz:3742.got - 2010.04.03 13:27:16.
