data_PCOD8321147
_publ_section_title
;
Structure prediction by ZEFSAII (Michael W. Deem and Ramdas Pophale) SiO2 
 PCOD8321147
Probable space group: I 41/A C D
;
_chemical_formula_sum "Si O2"
_cell_formula_units_Z 184
_cell_length_a 23.921399
_cell_length_b 23.921399
_cell_length_c 17.218948
_cell_angle_alpha 90.000000
_cell_angle_beta 90.000000
_cell_angle_gamma 90.000000
_cell_volume 9853.255955
_symmetry_space_group_name_H-M "I 41/A C D"
_symmetry_group_IT_number 142
_space_group.IT_coordinate_system_code '2'
_symmetry_cell_setting 'tetragonal'
loop_
_space_group_symop_operation_xyz
x,y,z
1/4-y,3/4+x,1/4+z
-x,1/2-y,z
1/4+y,1/4-x,3/4+z
x,-y,1/2-z
1/2-x,y,-z
3/4+y,1/4+x,1/4-z
1/4-y,1/4-x,1/4-z
-x,-y,-z
3/4+y,1/4-x,3/4-z
x,1/2+y,-z
3/4-y,3/4+x,1/4-z
-x,y,1/2+z
1/2+x,-y,z
1/4-y,3/4-x,3/4+z
3/4+y,3/4+x,3/4+z
1/2+x,1/2+y,1/2+z
3/4-y,1/4+x,3/4+z
1/2-x,-y,1/2+z
3/4+y,3/4-x,1/4+z
1/2+x,1/2-y,-z
-x,1/2+y,1/2-z
1/4+y,3/4+x,3/4-z
3/4-y,3/4-x,3/4-z
1/2-x,1/2-y,1/2-z
1/4+y,3/4-x,1/4-z
1/2+x,y,1/2-z
1/4-y,1/4+x,3/4-z
1/2-x,1/2+y,z
x,1/2-y,1/2+z
3/4-y,1/4-x,1/4+z
1/4+y,1/4+x,1/4+z
loop_
_atom_site_type_symbol
_atom_site_label
_atom_site_fract_x
_atom_site_fract_y
_atom_site_fract_z
Si Si1 0.235047 0.153275 0.181603
Si Si2 0.000000 0.750000 0.625000
Si Si3 0.904183 0.440678 0.902205
Si Si4 0.714194 0.460080 0.576108
Si Si5 0.514482 0.041621 0.180189
Si Si6 0.930624 0.842618 0.710191
Si Si7 0.885101 0.364900 0.125000
O O1 0.214984 0.173683 0.265461
O O2 0.272310 0.098389 0.194160
O O3 0.273913 0.200709 0.145297
O O4 0.181763 0.143870 0.125605
O O5 0.962396 0.787361 0.682076
O O6 0.844840 0.465751 0.878794
O O7 0.948904 0.459627 0.838332
O O8 0.899356 0.373795 0.906834
O O9 0.750000 0.447927 0.500000
O O10 0.739630 0.510371 0.625000
O O11 0.529458 0.104395 0.202798
O O12 0.528254 0.000000 0.250000
O O13 0.913727 0.836628 0.800350
#
# Coordination Sequence:
#
# PCOD8321147 Si02
#       7
#    32   8  32  32  32  32  16
#     4  11  22  37  65  92 125 161 211 254 316 374
#     4  12  24  46  68  88 124 170 220 264 320 378
#     4  11  24  41  61  91 129 169 205 257 317 377
#     4  12  23  38  62  95 132 168 203 255 317 382
#     4  12  23  41  65  93 125 163 213 259 311 375
#     4  11  23  40  68  91 121 166 212 262 311 373
#     4  10  22  39  60  98 124 154 206 268 314 369
#
# _framework density 18.674030999999999
#
# number of rings (size 3 to 8) (size 9 to 14) (size 15 to 20)
#    0.000    0.696    7.826    1.043    0.000    1.043 
#    0.000    0.000    0.000    0.000    0.000    0.000 
#    0.000    0.000    0.000    0.000    0.000    0.000 
#
# Total GULP energy -1141246.996367 kJ/mol
# GULP energy per Si atom -12404.858656 kJ/mol
# Density = 1.863153 g / cm^3
# Si number density = 18.674031 Si / 1000 Ang^3
#
#
#
# Elastic Constant Matrix: (Units=GPa)
#
#
# Indices 1 2 3 4 5 6 
#
# 1 79.4253 28.5534 27.8921 0.0000 0.0000 0.0000
# 2 28.5534 79.4235 27.8937 0.0000 0.0000 0.0000
# 3 27.8921 27.8937 79.9468 0.0000 0.0000 0.0000
# 4 0.0000 0.0000 0.0000 30.1968 0.0000 0.0000
# 5 0.0000 0.0000 0.0000 0.0000 30.1993 0.0000
# 6 0.0000 0.0000 0.0000 0.0000 0.0000 33.5263
#
#
#
# Elastic Compliance Matrix: (Units=1/GPa)
#
#
# Indices 1 2 3 4 5 6 
#
# 1 0.015477 -0.004180 -0.003941 0.000000 0.000000 0.000000
# 2 -0.004180 0.015478 -0.003942 0.000000 0.000000 0.000000
# 3 -0.003941 -0.003942 0.015259 0.000000 0.000000 0.000000
# 4 0.000000 0.000000 0.000000 0.033116 0.000000 0.000000
# 5 0.000000 0.000000 0.000000 0.000000 0.033113 0.000000
# 6 0.000000 0.000000 0.000000 0.000000 0.000000 0.029827
#
#
# Mechanical properties :
#
#
# Convention : Reuss Voigt Hill
#
# Bulk Modulus (GPa) = 45.27485 45.27487 45.27486
# Shear Modulus (GPa) = 28.77539 29.08159 28.92849
#
# Velocity S-wave (km/s) = 3.92973 3.95058 3.94017
# Velocity P-wave (km/s) = 6.69984 6.71617 6.70801
#
# Compressibility (1/GPa) = 0.02208732
#
# Stress axis : x y z
#
# Youngs Moduli (GPa) = 64.61102 64.60830 65.53622
#
# Poissons Ratio (x) = 0.27006 0.25830
# Poissons Ratio (y) = 0.27007 0.25834
# Poissons Ratio (z) = 0.25465 0.25468
#
# Static dielectric constant tensor:
#      x y z
#    x 3.399160 0.000000 0.000000 
#    y 0.000000 3.399150 0.000000 
#    z 0.000000 0.000000 3.411670 
# 
# 
# High freq. dielectric constant tensor:
#      x y z
#    x 1.729090 0.000000 0.000000 
#    y 0.000000 1.729090 0.000000 
#    z 0.000000 0.000000 1.727650 
# 
# From -- ./inp_files/7659.got.cif
#   From: 2010.03.12/outbox.cif.g09.slc.cpg/sg142_4_cif.got.tgz:7659.got - 2010.04.03 13:27:16.
