data_PCOD8321178
_publ_section_title
;
Structure prediction by ZEFSAII (Michael W. Deem and Ramdas Pophale) SiO2 
 PCOD8321178
Probable space group: I 41/A C D
;
_chemical_formula_sum "Si O2"
_cell_formula_units_Z 176
_cell_length_a 17.821022
_cell_length_b 17.821022
_cell_length_c 25.474315
_cell_angle_alpha 90.000000
_cell_angle_beta 90.000000
_cell_angle_gamma 90.000000
_cell_volume 8090.357772
_symmetry_space_group_name_H-M "I 41/A C D"
_symmetry_group_IT_number 142
_space_group.IT_coordinate_system_code '2'
_symmetry_cell_setting 'tetragonal'
loop_
_space_group_symop_operation_xyz
x,y,z
1/4-y,3/4+x,1/4+z
-x,1/2-y,z
1/4+y,1/4-x,3/4+z
x,-y,1/2-z
1/2-x,y,-z
3/4+y,1/4+x,1/4-z
1/4-y,1/4-x,1/4-z
-x,-y,-z
3/4+y,1/4-x,3/4-z
x,1/2+y,-z
3/4-y,3/4+x,1/4-z
-x,y,1/2+z
1/2+x,-y,z
1/4-y,3/4-x,3/4+z
3/4+y,3/4+x,3/4+z
1/2+x,1/2+y,1/2+z
3/4-y,1/4+x,3/4+z
1/2-x,-y,1/2+z
3/4+y,3/4-x,1/4+z
1/2+x,1/2-y,-z
-x,1/2+y,1/2-z
1/4+y,3/4+x,3/4-z
3/4-y,3/4-x,3/4-z
1/2-x,1/2-y,1/2-z
1/4+y,3/4-x,1/4-z
1/2+x,y,1/2-z
1/4-y,1/4+x,3/4-z
1/2-x,1/2+y,z
x,1/2-y,1/2+z
3/4-y,1/4-x,1/4+z
1/4+y,1/4+x,1/4+z
loop_
_atom_site_type_symbol
_atom_site_label
_atom_site_fract_x
_atom_site_fract_y
_atom_site_fract_z
Si Si1 0.429627 0.796028 0.449217
Si Si2 0.214056 0.845322 0.799654
Si Si3 0.670416 0.079585 0.375000
Si Si4 0.167359 0.184880 0.216960
Si Si5 0.344908 0.086169 0.122437
Si Si6 0.166762 0.160652 0.485608
O O1 0.500000 0.750000 0.425429
O O2 0.460856 0.850404 0.494785
O O3 0.390456 0.844868 0.403658
O O4 0.372406 0.739729 0.476413
O O5 0.201029 0.757707 0.811936
O O6 0.268555 0.856526 0.750151
O O7 0.254647 0.881267 0.850127
O O8 0.135168 0.884012 0.785430
O O9 0.639276 0.125716 0.325638
O O10 0.756939 0.096999 0.387200
O O11 0.359222 0.088531 0.184101
O O12 0.250000 0.182793 0.500000
#
# Coordination Sequence:
#
# PCOD8321178 Si02
#       6
#    32  32  16  32  32  32
#     4  11  26  45  67 102 142 186 234 291 354 428
#     4  10  22  45  67  94 139 181 225 285 358 412
#     4  12  24  44  71 104 138 185 250 288 364 432
#     4  10  23  42  66  95 139 187 224 282 353 422
#     4  11  27  42  75 104 139 183 236 297 356 431
#     4  12  26  43  71 104 141 177 238 294 352 421
#
# _framework density 21.754290999999998
#
# number of rings (size 3 to 8) (size 9 to 14) (size 15 to 20)
#    0.000    1.091    3.636    1.091    7.636    1.455 
#    0.000    0.455    0.000    0.000    0.000    0.000 
#    0.000    0.000    0.000    0.000    0.000    0.000 
#
# Total GULP energy -1091540.842549 kJ/mol
# GULP energy per Si atom -12403.873211 kJ/mol
# Density = 2.170478 g / cm^3
# Si number density = 21.754291 Si / 1000 Ang^3
#
#
#
# Elastic Constant Matrix: (Units=GPa)
#
#
# Indices 1 2 3 4 5 6 
#
# 1 99.2439 20.1575 28.4538 0.0000 0.0000 0.0000
# 2 20.1575 99.2430 28.4535 0.0000 0.0000 0.0000
# 3 28.4538 28.4535 60.0325 0.0000 0.0000 0.0000
# 4 0.0000 0.0000 0.0000 23.3973 0.0000 0.0000
# 5 0.0000 0.0000 0.0000 0.0000 23.3978 0.0000
# 6 0.0000 0.0000 0.0000 0.0000 0.0000 30.3027
#
#
#
# Elastic Compliance Matrix: (Units=1/GPa)
#
#
# Indices 1 2 3 4 5 6 
#
# 1 0.011732 -0.000913 -0.005128 0.000000 0.000000 0.000000
# 2 -0.000913 0.011732 -0.005128 0.000000 0.000000 0.000000
# 3 -0.005128 -0.005128 0.021519 0.000000 0.000000 0.000000
# 4 0.000000 0.000000 0.000000 0.042740 0.000000 0.000000
# 5 0.000000 0.000000 0.000000 0.000000 0.042739 0.000000
# 6 0.000000 0.000000 0.000000 0.000000 0.000000 0.033000
#
#
# Mechanical properties :
#
#
# Convention : Reuss Voigt Hill
#
# Bulk Modulus (GPa) = 44.15962 45.84988 45.00475
# Shear Modulus (GPa) = 25.86020 27.51653 26.68836
#
# Velocity S-wave (km/s) = 3.45155 3.56037 3.50638
# Velocity P-wave (km/s) = 6.01894 6.16633 6.09308
#
# Compressibility (1/GPa) = 0.02264512
#
# Stress axis : x y z
#
# Youngs Moduli (GPa) = 85.23859 85.23797 46.47125
#
# Poissons Ratio (x) = 0.07779 0.23830
# Poissons Ratio (y) = 0.07779 0.23830
# Poissons Ratio (z) = 0.43710 0.43710
#
# Static dielectric constant tensor:
#      x y z
#    x 3.971770 0.000000 0.000000 
#    y 0.000000 3.971790 0.000000 
#    z 0.000000 0.000000 3.777710 
# 
# 
# High freq. dielectric constant tensor:
#      x y z
#    x 1.863410 0.000000 0.000000 
#    y 0.000000 1.863410 0.000000 
#    z 0.000000 0.000000 1.846630 
# 
# From -- ./inp_files/11423.got.cif
#   From: 2010.03.12/outbox.cif.g09.slc.cpg/sg142_6_cif.got.tgz:11423.got - 2010.04.03 13:27:16.
