data_PCOD8321903
_publ_section_title
;
Structure prediction by ZEFSAII (Michael W. Deem and Ramdas Pophale) SiO2 
 PCOD8321903
Probable space group: P 3 2 1
;
_chemical_formula_sum "Si O2"
_cell_formula_units_Z 30
_cell_length_a 11.125909
_cell_length_b 11.125909
_cell_length_c 12.914323
_cell_angle_alpha 90.000000
_cell_angle_beta 90.000000
_cell_angle_gamma 120.000000
_cell_volume 1384.437272
_symmetry_space_group_name_H-M "P 3 2 1"
_symmetry_group_IT_number 150
_symmetry_cell_setting 'hexagonal'
loop_
_space_group_symop_operation_xyz
x,y,z
-y,x-y,z
-x+y,-x,z
x-y,-y,-z
-x,-x+y,-z
y,x,-z
loop_
_atom_site_type_symbol
_atom_site_label
_atom_site_fract_x
_atom_site_fract_y
_atom_site_fract_z
Si Si1 0.504946 0.969145 0.744794
Si Si2 0.727395 0.983120 0.121626
Si Si3 0.000000 0.000000 0.878308
Si Si4 0.666667 0.333334 0.018490
Si Si5 0.585433 0.680257 0.086489
Si Si6 0.666667 0.333333 0.268052
Si Si7 0.587336 0.153110 0.554660
O O1 0.405885 0.823329 0.684834
O O2 0.612787 0.936692 0.804870
O O3 0.415357 0.989801 0.830997
O O4 0.574563 0.106138 0.674145
O O5 0.630999 0.821241 0.146315
O O6 0.883665 0.035152 0.159514
O O7 0.709067 0.000000 0.000000
O O8 0.000000 0.000000 0.000000
O O9 0.818714 0.379957 0.973064
O O10 0.666668 0.333334 0.143010
O O11 0.700706 0.700706 0.000000
O O12 0.754388 0.264561 0.534901
O O13 0.516648 0.000000 0.500000
#
# Coordination Sequence:
#
# PCOD8321903 Si02
#       7
#     6   6   2   2   6   2   6
#     4  12  25  40  64 100 136 177 232 283 352 410
#     4  11  22  39  57  87 132 185 237 287 336 406
#     4   9  21  36  57  81 127 191 241 282 348 396
#     4  12  21  36  51  94 137 190 237 273 336 373
#     4  12  22  35  59  84 134 180 230 283 328 394
#     4  12  27  36  63 103 146 193 231 282 330 409
#     4  10  26  51  82 112 138 179 229 290 372 446
#
# _framework density 21.669452
#
# number of rings (size 3 to 8) (size 9 to 14) (size 15 to 20)
#    0.400    0.400    4.000    4.800    5.600    0.000 
#    0.000    0.000    0.000    0.400    0.000    0.000 
#    0.000    0.000    0.000    0.000    0.000    0.000 
#
# Total GULP energy -371658.576426 kJ/mol
# GULP energy per Si atom -12388.619214 kJ/mol
# Density = 2.162013 g / cm^3
# Si number density = 21.669452 Si / 1000 Ang^3
#
#
#
# Elastic Constant Matrix: (Units=GPa)
#
#
# Indices 1 2 3 4 5 6 
#
# 1 113.0398 45.4700 23.2962 -5.7126 0.0000 0.0000
# 2 45.4700 113.0401 23.2962 5.7124 0.0000 0.0000
# 3 23.2962 23.2962 40.0572 0.0001 0.0000 0.0000
# 4 -5.7126 5.7124 0.0001 27.8513 0.0000 0.0000
# 5 0.0000 0.0000 0.0000 0.0000 27.8514 -5.7125
# 6 0.0000 0.0000 0.0000 0.0000 -5.7125 33.7850
#
#
#
# Elastic Compliance Matrix: (Units=1/GPa)
#
#
# Indices 1 2 3 4 5 6 
#
# 1 0.011470 -0.003861 -0.004426 0.003145 0.000000 0.000000
# 2 -0.003861 0.011470 -0.004426 -0.003144 0.000000 0.000000
# 3 -0.004426 -0.004426 0.030112 0.000000 0.000000 0.000000
# 4 0.003145 -0.003144 0.000000 0.037195 0.000000 0.000000
# 5 0.000000 0.000000 0.000000 0.000000 0.037195 0.006289
# 6 0.000000 0.000000 0.000000 0.000000 0.006289 0.030662
#
#
# Mechanical properties :
#
#
# Convention : Reuss Voigt Hill
#
# Bulk Modulus (GPa) = 36.19398 50.02909 43.11153
# Shear Modulus (GPa) = 25.94196 29.50251 27.72224
#
# Velocity S-wave (km/s) = 3.46376 3.69383 3.58064
# Velocity P-wave (km/s) = 5.72153 6.42884 6.08547
#
# Compressibility (1/GPa) = 0.02762890
#
# Stress axis : x y z
#
# Youngs Moduli (GPa) = 87.18089 87.18126 33.20952
#
# Poissons Ratio (x) = 0.33659 0.14697
# Poissons Ratio (y) = 0.33659 0.14697
# Poissons Ratio (z) = 0.38582 0.38582
#
# Static dielectric constant tensor:
#      x y z
#    x 4.290710 0.000000 0.000000 
#    y 0.000000 4.290700 0.000010 
#    z 0.000000 0.000010 3.694250 
# 
# 
# High freq. dielectric constant tensor:
#      x y z
#    x 1.858830 0.000000 0.000000 
#    y 0.000000 1.858830 0.000000 
#    z 0.000000 0.000000 1.819010 
# 
# From -- ./inp_files/1011.got.cif
#   From: 2010.03.12/outbox.cif.g09.slc.cpg/sg150_cif.got.tgz:1011.got - 2010.04.03 13:41:37.
