data_PCOD8321252
_publ_section_title
;
Structure prediction by ZEFSAII (Michael W. Deem and Ramdas Pophale) SiO2 
 PCOD8321252
Probable space group: I 41/A C D
;
_chemical_formula_sum "Si O2"
_cell_formula_units_Z 176
_cell_length_a 23.647282
_cell_length_b 23.647282
_cell_length_c 15.350952
_cell_angle_alpha 90.000000
_cell_angle_beta 90.000000
_cell_angle_gamma 90.000000
_cell_volume 8584.159424
_symmetry_space_group_name_H-M "I 41/A C D"
_symmetry_group_IT_number 142
_space_group.IT_coordinate_system_code '2'
_symmetry_cell_setting 'tetragonal'
loop_
_space_group_symop_operation_xyz
x,y,z
1/4-y,3/4+x,1/4+z
-x,1/2-y,z
1/4+y,1/4-x,3/4+z
x,-y,1/2-z
1/2-x,y,-z
3/4+y,1/4+x,1/4-z
1/4-y,1/4-x,1/4-z
-x,-y,-z
3/4+y,1/4-x,3/4-z
x,1/2+y,-z
3/4-y,3/4+x,1/4-z
-x,y,1/2+z
1/2+x,-y,z
1/4-y,3/4-x,3/4+z
3/4+y,3/4+x,3/4+z
1/2+x,1/2+y,1/2+z
3/4-y,1/4+x,3/4+z
1/2-x,-y,1/2+z
3/4+y,3/4-x,1/4+z
1/2+x,1/2-y,-z
-x,1/2+y,1/2-z
1/4+y,3/4+x,3/4-z
3/4-y,3/4-x,3/4-z
1/2-x,1/2-y,1/2-z
1/4+y,3/4-x,1/4-z
1/2+x,y,1/2-z
1/4-y,1/4+x,3/4-z
1/2-x,1/2+y,z
x,1/2-y,1/2+z
3/4-y,1/4-x,1/4+z
1/4+y,1/4+x,1/4+z
loop_
_atom_site_type_symbol
_atom_site_label
_atom_site_fract_x
_atom_site_fract_y
_atom_site_fract_z
Si Si1 0.682383 0.308845 0.004722
Si Si2 0.189757 0.485795 0.041733
Si Si3 0.499555 0.183343 0.518246
Si Si4 0.619645 0.799803 0.442328
Si Si5 0.091620 0.841620 0.375000
Si Si6 0.847533 0.586323 0.111083
O O1 0.654219 0.247024 0.004643
O O2 0.667235 0.341883 0.092670
O O3 0.750000 0.305284 0.000000
O O4 0.652534 0.340392 0.923278
O O5 0.193927 0.443927 0.125000
O O6 0.170662 0.548001 0.068801
O O7 0.250000 0.493999 0.000000
O O8 0.150099 0.458942 0.967565
O O9 0.500000 0.250000 0.531304
O O10 0.432604 0.171934 0.503245
O O11 0.522804 0.152857 0.603438
O O12 0.537910 0.162367 0.438883
O O13 0.662785 0.850854 0.425438
#
# Coordination Sequence:
#
# PCOD8321252 Si02
#       6
#    32  32  32  32  16  32
#     4  12  28  42  62 103 143 171 218 285 343 393
#     4   9  21  42  68  95 121 172 235 275 313 402
#     4  12  19  40  70  96 121 166 236 265 320 388
#     4  12  22  43  67  93 136 178 211 284 335 400
#     4  12  25  42  70 100 130 178 234 278 316 414
#     4  11  22  43  70  92 132 177 222 270 340 394
#
# _framework density 20.502882
#
# number of rings (size 3 to 8) (size 9 to 14) (size 15 to 20)
#    0.000    0.727    7.273    0.818    2.545    2.182 
#    6.545    1.818    0.000    0.000    0.000    0.000 
#    0.000    0.000    0.000    0.000    0.000    0.000 
#
# Total GULP energy -1090769.345648 kJ/mol
# GULP energy per Si atom -12395.106201 kJ/mol
# Density = 2.045622 g / cm^3
# Si number density = 20.502882 Si / 1000 Ang^3
#
#
#
# Elastic Constant Matrix: (Units=GPa)
#
#
# Indices 1 2 3 4 5 6 
#
# 1 96.8297 22.6637 49.5807 0.0000 0.0000 0.0000
# 2 22.6637 96.8297 49.5807 0.0000 0.0000 0.0000
# 3 49.5807 49.5807 89.2165 0.0000 0.0000 0.0000
# 4 0.0000 0.0000 0.0000 17.6534 0.0000 0.0000
# 5 0.0000 0.0000 0.0000 0.0000 17.6534 0.0000
# 6 0.0000 0.0000 0.0000 0.0000 0.0000 28.9557
#
#
#
# Elastic Compliance Matrix: (Units=1/GPa)
#
#
# Indices 1 2 3 4 5 6 
#
# 1 0.014507 0.001024 -0.008631 0.000000 0.000000 0.000000
# 2 0.001024 0.014507 -0.008631 0.000000 0.000000 0.000000
# 3 -0.008631 -0.008631 0.020802 0.000000 0.000000 0.000000
# 4 0.000000 0.000000 0.000000 0.056646 0.000000 0.000000
# 5 0.000000 0.000000 0.000000 0.000000 0.056646 0.000000
# 6 0.000000 0.000000 0.000000 0.000000 0.000000 0.034536
#
#
# Mechanical properties :
#
#
# Convention : Reuss Voigt Hill
#
# Bulk Modulus (GPa) = 57.67151 58.50289 58.08720
# Shear Modulus (GPa) = 21.19526 23.58922 22.39224
#
# Velocity S-wave (km/s) = 3.21872 3.39563 3.30836
# Velocity P-wave (km/s) = 6.48098 6.63096 6.55640
#
# Compressibility (1/GPa) = 0.01733958
#
# Stress axis : x y z
#
# Youngs Moduli (GPa) = 68.93076 68.93076 48.07200
#
# Poissons Ratio (x) = -0.07059 0.41492
# Poissons Ratio (y) = -0.07059 0.41492
# Poissons Ratio (z) = 0.59496 0.59496
#
# Static dielectric constant tensor:
#      x y z
#    x 4.592490 0.000000 0.000000 
#    y 0.000000 4.592490 0.000000 
#    z 0.000000 0.000000 4.362090 
# 
# 
# High freq. dielectric constant tensor:
#      x y z
#    x 1.800290 0.000000 0.000000 
#    y 0.000000 1.800290 0.000000 
#    z 0.000000 0.000000 1.803200 
# 
# From -- ./inp_files/5552.got.cif
#   From: 2010.03.12/outbox.cif.g09.slc.cpg/sg142_3_cif.got.tgz:5552.got - 2010.04.03 13:27:16.
