data_PCOD8321020
_publ_section_title
;
Structure prediction by ZEFSAII (Michael W. Deem and Ramdas Pophale) SiO2 
 PCOD8321020
Probable space group: I 41/A C D
;
_chemical_formula_sum "Si O2"
_cell_formula_units_Z 120
_cell_length_a 17.004363
_cell_length_b 17.004363
_cell_length_c 21.018720
_cell_angle_alpha 90.000000
_cell_angle_beta 90.000000
_cell_angle_gamma 90.000000
_cell_volume 6077.528439
_symmetry_space_group_name_H-M "I 41/A C D"
_symmetry_group_IT_number 142
_space_group.IT_coordinate_system_code '2'
_symmetry_cell_setting 'tetragonal'
loop_
_space_group_symop_operation_xyz
x,y,z
1/4-y,3/4+x,1/4+z
-x,1/2-y,z
1/4+y,1/4-x,3/4+z
x,-y,1/2-z
1/2-x,y,-z
3/4+y,1/4+x,1/4-z
1/4-y,1/4-x,1/4-z
-x,-y,-z
3/4+y,1/4-x,3/4-z
x,1/2+y,-z
3/4-y,3/4+x,1/4-z
-x,y,1/2+z
1/2+x,-y,z
1/4-y,3/4-x,3/4+z
3/4+y,3/4+x,3/4+z
1/2+x,1/2+y,1/2+z
3/4-y,1/4+x,3/4+z
1/2-x,-y,1/2+z
3/4+y,3/4-x,1/4+z
1/2+x,1/2-y,-z
-x,1/2+y,1/2-z
1/4+y,3/4+x,3/4-z
3/4-y,3/4-x,3/4-z
1/2-x,1/2-y,1/2-z
1/4+y,3/4-x,1/4-z
1/2+x,y,1/2-z
1/4-y,1/4+x,3/4-z
1/2-x,1/2+y,z
x,1/2-y,1/2+z
3/4-y,1/4-x,1/4+z
1/4+y,1/4+x,1/4+z
loop_
_atom_site_type_symbol
_atom_site_label
_atom_site_fract_x
_atom_site_fract_y
_atom_site_fract_z
Si Si1 0.500000 0.250000 0.875000
Si Si2 0.630245 0.281217 0.776250
Si Si3 0.795623 0.653687 0.688361
Si Si4 0.606863 0.568257 0.794269
Si Si5 0.750000 0.507666 0.000000
O O1 0.577517 0.247948 0.832458
O O2 0.704436 0.324544 0.807030
O O3 0.651562 0.207496 0.732942
O O4 0.584698 0.346932 0.734889
O O5 0.819562 0.672565 0.616306
O O6 0.809360 0.561995 0.708779
O O7 0.566794 0.500000 0.750000
O O8 0.701452 0.552351 0.796311
#
# Coordination Sequence:
#
# PCOD8321020 Si02
#       5
#     8  32  32  32  16
#     4  12  24  44  58  80 128 164 192 246 336 356
#     4  10  23  37  60  87 119 160 200 255 301 366
#     4  10  19  40  58  93 119 152 209 252 294 367
#     4   9  18  34  61  84 113 165 194 237 301 367
#     4   8  18  32  62  86 118 160 190 242 304 348
#
# _framework density 19.744868
#
# number of rings (size 3 to 8) (size 9 to 14) (size 15 to 20)
#    0.800    1.600    0.000    2.400    0.000    2.133 
#   14.400    0.000    2.933    0.000    0.000    0.000 
#    0.000    0.000    0.000    0.000    0.000    0.000 
#
# Total GULP energy -743706.242056 kJ/mol
# GULP energy per Si atom -12395.104034 kJ/mol
# Density = 1.969993 g / cm^3
# Si number density = 19.744868 Si / 1000 Ang^3
#
#
#
# Elastic Constant Matrix: (Units=GPa)
#
#
# Indices 1 2 3 4 5 6 
#
# 1 84.5462 42.5482 56.8029 0.0000 0.0000 0.0000
# 2 42.5482 84.5462 56.8029 0.0000 0.0000 0.0000
# 3 56.8029 56.8029 158.8760 0.0000 0.0000 0.0000
# 4 0.0000 0.0000 0.0000 24.4263 0.0000 0.0000
# 5 0.0000 0.0000 0.0000 0.0000 24.4263 0.0000
# 6 0.0000 0.0000 0.0000 0.0000 0.0000 10.5112
#
#
#
# Elastic Compliance Matrix: (Units=1/GPa)
#
#
# Indices 1 2 3 4 5 6 
#
# 1 0.017687 -0.006123 -0.004134 0.000000 0.000000 0.000000
# 2 -0.006123 0.017687 -0.004134 0.000000 0.000000 0.000000
# 3 -0.004134 -0.004134 0.009251 0.000000 0.000000 0.000000
# 4 0.000000 0.000000 0.000000 0.040939 0.000000 0.000000
# 5 0.000000 0.000000 0.000000 0.000000 0.040939 0.000000
# 6 0.000000 0.000000 0.000000 0.000000 0.000000 0.095136
#
#
# Mechanical properties :
#
#
# Convention : Reuss Voigt Hill
#
# Bulk Modulus (GPa) = 63.12924 71.14186 67.13555
# Shear Modulus (GPa) = 19.55378 23.32706 21.44042
#
# Velocity S-wave (km/s) = 3.15035 3.44091 3.29883
# Velocity P-wave (km/s) = 6.72866 7.20384 6.97030
#
# Compressibility (1/GPa) = 0.01584052
#
# Stress axis : x y z
#
# Youngs Moduli (GPa) = 56.53799 56.53800 108.10161
#
# Poissons Ratio (x) = 0.34621 0.44693
# Poissons Ratio (y) = 0.34621 0.44693
# Poissons Ratio (z) = 0.23375 0.23375
#
# Static dielectric constant tensor:
#      x y z
#    x 3.429030 0.000000 0.000000 
#    y 0.000000 3.429030 0.000000 
#    z 0.000000 0.000000 3.482140 
# 
# 
# High freq. dielectric constant tensor:
#      x y z
#    x 1.750030 0.000000 0.000000 
#    y 0.000000 1.750030 0.000000 
#    z 0.000000 0.000000 1.774050 
# 
# From -- ./inp_files/8742.got.cif
#   From: 2010.03.12/outbox.cif.g09.slc.cpg/sg142_5_cif.got.tgz:8742.got - 2010.04.03 13:27:16.
