data_PCOD8321490
_publ_section_title
;
Structure prediction by ZEFSAII (Michael W. Deem and Ramdas Pophale) SiO2 
 PCOD8321490
Probable space group: P 32
;
_chemical_formula_sum "Si O2"
_cell_formula_units_Z 24
_cell_length_a 15.531694
_cell_length_b 15.531694
_cell_length_c 5.170858
_cell_angle_alpha 90.000000
_cell_angle_beta 90.000000
_cell_angle_gamma 120.000000
_cell_volume 1080.266465
_symmetry_space_group_name_H-M "P 32"
_symmetry_group_IT_number 145
_symmetry_cell_setting 'hexagonal'
loop_
_space_group_symop_operation_xyz
x,y,z
-y,x-y,2/3+z
-x+y,-x,1/3+z
loop_
_atom_site_type_symbol
_atom_site_label
_atom_site_fract_x
_atom_site_fract_y
_atom_site_fract_z
Si Si1 0.694932 0.942054 0.139010
Si Si2 0.972043 0.627457 0.301393
Si Si3 0.792137 0.762753 0.501489
Si Si4 0.983603 0.901720 0.765682
Si Si5 0.472365 0.048553 0.679993
Si Si6 0.072458 0.322022 0.327074
Si Si7 0.757720 0.342910 0.098229
Si Si8 0.756932 0.562992 0.370866
O O1 0.641682 0.960718 0.382697
O O2 0.808340 0.974975 0.216631
O O3 0.636261 0.823359 0.075254
O O4 0.698569 0.000065 0.880972
O O5 0.990259 0.539061 0.405285
O O6 0.858365 0.591696 0.214601
O O7 0.906965 0.847614 0.528842
O O8 0.728372 0.783803 0.712253
O O9 0.780000 0.655095 0.562204
O O10 0.757883 0.760111 0.207338
O O11 0.076347 0.003232 0.660489
O O12 0.522486 0.122264 0.434923
O O13 0.363945 0.952545 0.635082
O O14 0.464245 0.121721 0.882612
O O15 0.701141 0.282313 0.358288
O O16 0.728488 0.261756 0.870238
#
# Coordination Sequence:
#
# PCOD8321490 Si02
#       8
#     3   3   3   3   3   3   3   3
#     4  12  28  45  69  99 145 179 233 295 357 410
#     4  12  28  44  70 105 140 183 229 291 350 414
#     4  11  23  39  64  95 130 182 230 274 336 401
#     4  12  26  39  66  98 143 190 241 285 340 419
#     4  11  26  43  70  96 136 183 242 283 350 424
#     4  11  24  47  68  93 133 182 234 284 341 414
#     4  12  23  38  60  99 144 185 233 282 343 414
#     4  11  24  41  67  95 141 188 228 282 343 422
#
# _framework density 22.216743000000001
#
# number of rings (size 3 to 8) (size 9 to 14) (size 15 to 20)
#    0.000    0.500    3.750    4.500   10.500    0.000 
#    0.000    0.000    0.000    1.500    0.000    0.000 
#    0.000    0.000    0.000    0.000    0.000    0.000 
#
# Total GULP energy -297500.908265 kJ/mol
# GULP energy per Si atom -12395.871178 kJ/mol
# Density = 2.216618 g / cm^3
# Si number density = 22.216743 Si / 1000 Ang^3
#
#
#
# Elastic Constant Matrix: (Units=GPa)
#
#
# Indices 1 2 3 4 5 6 
#
# 1 119.1426 53.6537 23.7022 3.0880 1.4316 0.0000
# 2 53.6537 119.1426 23.7022 -3.0880 -1.4316 0.0000
# 3 23.7022 23.7022 79.8882 0.0000 0.0000 0.0000
# 4 3.0880 -3.0880 0.0000 29.3916 0.0000 -1.4316
# 5 1.4316 -1.4316 0.0000 0.0000 29.3916 3.0880
# 6 0.0000 0.0000 0.0000 -1.4316 3.0880 32.7445
#
#
#
# Elastic Compliance Matrix: (Units=1/GPa)
#
#
# Indices 1 2 3 4 5 6 
#
# 1 0.010878 -0.004578 -0.001869 -0.001624 -0.000753 0.000000
# 2 -0.004578 0.010878 -0.001869 0.001624 0.000753 0.000000
# 3 -0.001869 -0.001869 0.013627 0.000000 0.000000 0.000000
# 4 -0.001624 0.001624 0.000000 0.034438 0.000000 0.001506
# 5 -0.000753 0.000753 0.000000 0.000000 0.034438 -0.003248
# 6 0.000000 0.000000 0.000000 0.001506 -0.003248 0.030912
#
#
# Mechanical properties :
#
#
# Convention : Reuss Voigt Hill
#
# Bulk Modulus (GPa) = 53.33354 57.80994 55.57174
# Shear Modulus (GPa) = 31.63515 32.77991 32.20753
#
# Velocity S-wave (km/s) = 3.77760 3.84534 3.81162
# Velocity P-wave (km/s) = 6.56393 6.76704 6.66626
#
# Compressibility (1/GPa) = 0.01874993
#
# Stress axis : x y z
#
# Youngs Moduli (GPa) = 91.92974 91.92974 73.38578
#
# Poissons Ratio (x) = 0.42085 0.13717
# Poissons Ratio (y) = 0.42085 0.13717
# Poissons Ratio (z) = 0.17183 0.17183
#
# Static dielectric constant tensor:
#      x y z
#    x 4.221150 0.000000 0.000000 
#    y 0.000000 4.221150 0.000000 
#    z 0.000000 0.000000 3.770120 
# 
# 
# High freq. dielectric constant tensor:
#      x y z
#    x 1.864310 0.000000 0.000000 
#    y 0.000000 1.864310 0.000000 
#    z 0.000000 0.000000 1.876590 
# 
# From -- ./inp_files/168.got.cif
#   From: 2010.03.12/outbox.cif.g09.slc.cpg/sg145_cif.got.tgz:168.got - 2010.04.03 13:35:35.
