data_PCOD8321184
_publ_section_title
;
Structure prediction by ZEFSAII (Michael W. Deem and Ramdas Pophale) SiO2 
 PCOD8321184
Probable space group: I 41/A C D
;
_chemical_formula_sum "Si O2"
_cell_formula_units_Z 160
_cell_length_a 26.233486
_cell_length_b 26.233486
_cell_length_c 12.181090
_cell_angle_alpha 90.000000
_cell_angle_beta 90.000000
_cell_angle_gamma 90.000000
_cell_volume 8382.974828
_symmetry_space_group_name_H-M "I 41/A C D"
_symmetry_group_IT_number 142
_space_group.IT_coordinate_system_code '2'
_symmetry_cell_setting 'tetragonal'
loop_
_space_group_symop_operation_xyz
x,y,z
1/4-y,3/4+x,1/4+z
-x,1/2-y,z
1/4+y,1/4-x,3/4+z
x,-y,1/2-z
1/2-x,y,-z
3/4+y,1/4+x,1/4-z
1/4-y,1/4-x,1/4-z
-x,-y,-z
3/4+y,1/4-x,3/4-z
x,1/2+y,-z
3/4-y,3/4+x,1/4-z
-x,y,1/2+z
1/2+x,-y,z
1/4-y,3/4-x,3/4+z
3/4+y,3/4+x,3/4+z
1/2+x,1/2+y,1/2+z
3/4-y,1/4+x,3/4+z
1/2-x,-y,1/2+z
3/4+y,3/4-x,1/4+z
1/2+x,1/2-y,-z
-x,1/2+y,1/2-z
1/4+y,3/4+x,3/4-z
3/4-y,3/4-x,3/4-z
1/2-x,1/2-y,1/2-z
1/4+y,3/4-x,1/4-z
1/2+x,y,1/2-z
1/4-y,1/4+x,3/4-z
1/2-x,1/2+y,z
x,1/2-y,1/2+z
3/4-y,1/4-x,1/4+z
1/4+y,1/4+x,1/4+z
loop_
_atom_site_type_symbol
_atom_site_label
_atom_site_fract_x
_atom_site_fract_y
_atom_site_fract_z
Si Si1 0.694197 0.852012 0.957919
Si Si2 0.125966 0.793270 0.375242
Si Si3 0.556737 0.980003 0.516652
Si Si4 0.833114 0.845809 0.674575
Si Si5 0.858703 0.815817 0.429254
O O1 0.699665 0.825447 0.840301
O O2 0.653142 0.897853 0.951719
O O3 0.750000 0.871095 0.000000
O O4 0.671080 0.811776 0.043654
O O5 0.074225 0.824225 0.375000
O O6 0.145954 0.800256 0.251608
O O7 0.109855 0.736337 0.409932
O O8 0.555910 0.944574 0.621886
O O9 0.500000 0.000000 0.500000
O O10 0.597296 0.023051 0.552184
O O11 0.849399 0.828728 0.554815
O O12 0.887349 0.862652 0.375000
#
# Coordination Sequence:
#
# PCOD8321184 Si02
#       5
#    32  32  32  32  32
#     4  11  21  40  66  94 127 165 223 268 322 392
#     4  10  23  39  62  93 125 169 217 263 320 395
#     4  12  22  40  68  95 124 173 219 265 330 386
#     4  11  23  40  66  93 130 166 216 277 328 385
#     4  12  24  40  63  93 133 167 211 275 329 387
#
# _framework density 19.086303000000001
#
# number of rings (size 3 to 8) (size 9 to 14) (size 15 to 20)
#    0.000    0.800    6.000    1.800    0.000    0.400 
#    0.000    0.000    4.400    2.400    0.000    0.000 
#    0.000    0.000    0.000    0.000    0.000    0.000 
#
# Total GULP energy -991710.569969 kJ/mol
# GULP energy per Si atom -12396.382125 kJ/mol
# Density = 1.904286 g / cm^3
# Si number density = 19.086303 Si / 1000 Ang^3
#
#
#
# Elastic Constant Matrix: (Units=GPa)
#
#
# Indices 1 2 3 4 5 6 
#
# 1 167.0263 -53.3062 28.6283 0.0000 0.0000 0.0000
# 2 -53.3062 167.1646 28.6657 0.0000 0.0000 0.0000
# 3 28.6283 28.6657 146.7503 0.0000 0.0000 0.0000
# 4 0.0000 0.0000 0.0000 31.6205 0.0000 0.0000
# 5 0.0000 0.0000 0.0000 0.0000 31.6197 0.0000
# 6 0.0000 0.0000 0.0000 0.0000 0.0000 22.9662
#
#
#
# Elastic Compliance Matrix: (Units=1/GPa)
#
#
# Indices 1 2 3 4 5 6 
#
# 1 0.007144 0.002604 -0.001902 0.000000 0.000000 0.000000
# 2 0.002604 0.007139 -0.001903 0.000000 0.000000 0.000000
# 3 -0.001902 -0.001903 0.007557 0.000000 0.000000 0.000000
# 4 0.000000 0.000000 0.000000 0.031625 0.000000 0.000000
# 5 0.000000 0.000000 0.000000 0.000000 0.031626 0.000000
# 6 0.000000 0.000000 0.000000 0.000000 0.000000 0.043542
#
#
# Mechanical properties :
#
#
# Convention : Reuss Voigt Hill
#
# Bulk Modulus (GPa) = 51.44246 54.32409 52.88328
# Shear Modulus (GPa) = 36.35982 49.03818 42.69900
#
# Velocity S-wave (km/s) = 4.36939 5.07431 4.73499
# Velocity P-wave (km/s) = 7.24338 7.92816 7.59349
#
# Compressibility (1/GPa) = 0.01943920
#
# Stress axis : x y z
#
# Youngs Moduli (GPa) = 139.97008 140.07738 132.32627
#
# Poissons Ratio (x) = -0.36483 0.25175
# Poissons Ratio (y) = -0.36455 0.25176
# Poissons Ratio (z) = 0.26629 0.26651
#
# Static dielectric constant tensor:
#      x y z
#    x 3.214610 0.000000 0.000000 
#    y 0.000000 3.214210 0.000000 
#    z 0.000000 0.000000 3.883890 
# 
# 
# High freq. dielectric constant tensor:
#      x y z
#    x 1.738100 0.000000 0.000000 
#    y 0.000000 1.738100 0.000000 
#    z 0.000000 0.000000 1.765870 
# 
# From -- ./inp_files/3849.got.cif
#   From: 2010.03.12/outbox.cif.g09.slc.cpg/sg142_2_cif.got.tgz:3849.got - 2010.04.03 13:27:16.
