data_PCOD8321446
_publ_section_title
;
Structure prediction by ZEFSAII (Michael W. Deem and Ramdas Pophale) SiO2 
 PCOD8321446
Probable space group: P 31
;
_chemical_formula_sum "Si O2"
_cell_formula_units_Z 12
_cell_length_a 9.664958
_cell_length_b 9.664958
_cell_length_c 6.803321
_cell_angle_alpha 90.000000
_cell_angle_beta 90.000000
_cell_angle_gamma 120.000000
_cell_volume 550.365924
_symmetry_space_group_name_H-M "P 31"
_symmetry_group_IT_number 144
_symmetry_cell_setting 'hexagonal'
loop_
_space_group_symop_operation_xyz
x,y,z
-y,x-y,1/3+z
-x+y,-x,2/3+z
loop_
_atom_site_type_symbol
_atom_site_label
_atom_site_fract_x
_atom_site_fract_y
_atom_site_fract_z
Si Si1 0.620895 0.972427 0.579120
Si Si2 0.639093 0.684865 0.412453
Si Si3 0.943000 0.093858 0.780606
Si Si4 0.515809 0.276333 0.947273
O O1 0.605166 0.803506 0.537232
O O2 0.468326 0.938499 0.703899
O O3 0.777814 0.079368 0.708998
O O4 0.625496 0.067382 0.382780
O O5 0.734049 0.775220 0.216113
O O6 0.746035 0.634888 0.542331
O O7 0.040682 0.088586 0.594592
O O8 0.618763 0.374015 0.761259
#
# Coordination Sequence:
#
# PCOD8321446 Si02
#       4
#     3   3   3   3
#     4  12  26  44  72 110 148 182 238 306 366 416
#     4  12  26  44  72 110 148 182 238 306 366 416
#     4  12  24  50  76 104 144 202 252 284 352 458
#     4  12  24  50  76 104 144 202 252 284 352 458
#
# _framework density 21.803678999999999
#
# number of rings (size 3 to 8) (size 9 to 14) (size 15 to 20)
#    0.000    0.000    5.000    6.000    0.000    4.000 
#    0.000    0.000    0.000    0.000    0.000    0.000 
#    0.000    0.000    0.000    0.000    0.000    0.000 
#
# Total GULP energy -148914.657981 kJ/mol
# GULP energy per Si atom -12409.554832 kJ/mol
# Density = 2.175405 g / cm^3
# Si number density = 21.803679 Si / 1000 Ang^3
#
#
#
# Elastic Constant Matrix: (Units=GPa)
#
#
# Indices 1 2 3 4 5 6 
#
# 1 87.3601 -2.0796 5.3554 0.0000 0.0000 0.0000
# 2 -2.0796 87.3601 5.3554 0.0000 0.0000 0.0000
# 3 5.3554 5.3554 72.6249 0.0000 0.0000 0.0000
# 4 0.0000 0.0000 0.0000 24.1140 0.0000 0.0000
# 5 0.0000 0.0000 0.0000 0.0000 24.1140 0.0000
# 6 0.0000 0.0000 0.0000 0.0000 0.0000 44.7198
#
#
#
# Elastic Compliance Matrix: (Units=1/GPa)
#
#
# Indices 1 2 3 4 5 6 
#
# 1 0.011508 0.000327 -0.000873 0.000000 0.000000 0.000000
# 2 0.000327 0.011508 -0.000873 0.000000 0.000000 0.000000
# 3 -0.000873 -0.000873 0.013898 0.000000 0.000000 0.000000
# 4 0.000000 0.000000 0.000000 0.041470 0.000000 0.000000
# 5 0.000000 0.000000 0.000000 0.000000 0.041470 0.000000
# 6 0.000000 0.000000 0.000000 0.000000 0.000000 0.022361
#
#
# Mechanical properties :
#
#
# Convention : Reuss Voigt Hill
#
# Bulk Modulus (GPa) = 29.34419 29.40082 29.37250
# Shear Modulus (GPa) = 31.96710 34.50383 33.23547
#
# Velocity S-wave (km/s) = 3.83317 3.98235 3.90847
# Velocity P-wave (km/s) = 5.75139 5.88720 5.81969
#
# Compressibility (1/GPa) = 0.03407830
#
# Stress axis : x y z
#
# Youngs Moduli (GPa) = 86.89477 86.89477 71.95234
#
# Poissons Ratio (x) = -0.02845 0.06280
# Poissons Ratio (y) = -0.02845 0.06280
# Poissons Ratio (z) = 0.07584 0.07584
#
# Static dielectric constant tensor:
#      x y z
#    x 4.098140 0.000000 0.000000 
#    y 0.000000 4.098140 0.000000 
#    z 0.000000 0.000000 4.022440 
# 
# 
# High freq. dielectric constant tensor:
#      x y z
#    x 1.868180 0.000000 0.000000 
#    y 0.000000 1.868180 0.000000 
#    z 0.000000 0.000000 1.866600 
# 
# From -- ./inp_files/47.got.cif
#   From: 2010.03.12/outbox.cif.g09.slc.cpg/sg144_cif.got.tgz:47.got - 2010.04.03 13:34:42.
