data_PCOD8321740
_publ_section_title
;
Structure prediction by ZEFSAII (Michael W. Deem and Ramdas Pophale) SiO2 
 PCOD8321740
Probable space group: R -3
;
_chemical_formula_sum "Si O2"
_cell_formula_units_Z 126
_cell_length_a 19.459525
_cell_length_b 19.459525
_cell_length_c 18.331230
_cell_angle_alpha 90.000000
_cell_angle_beta 90.000000
_cell_angle_gamma 120.000000
_cell_volume 6011.553388
_symmetry_space_group_name_H-M "R -3"
_symmetry_group_IT_number 148
_symmetry_cell_setting 'hexagonal'
loop_
_space_group_symop_operation_xyz
x,y,z
-y,x-y,z
-x+y,-x,z
-x,-y,-z
y,-x+y,-z
x-y,x,-z
2/3+x,1/3+y,1/3+z
2/3-y,1/3+x-y,1/3+z
2/3-x+y,1/3-x,1/3+z
2/3-x,1/3-y,1/3-z
2/3+y,1/3-x+y,1/3-z
2/3+x-y,1/3+x,1/3-z
1/3+x,2/3+y,2/3+z
1/3-y,2/3+x-y,2/3+z
1/3-x+y,2/3-x,2/3+z
1/3-x,2/3-y,2/3-z
1/3+y,2/3-x+y,2/3-z
1/3+x-y,2/3+x,2/3-z
loop_
_atom_site_type_symbol
_atom_site_label
_atom_site_fract_x
_atom_site_fract_y
_atom_site_fract_z
Si Si1 0.341819 0.805302 0.866997
Si Si2 0.492929 0.812678 0.910177
Si Si3 0.588831 0.033019 0.475316
Si Si4 0.038216 0.305753 0.017932
Si Si5 0.355677 0.532446 0.630409
Si Si6 0.913444 0.267414 0.505074
Si Si7 0.117990 0.378314 0.317135
O O1 0.401683 0.774681 0.886674
O O2 0.266194 0.767227 0.923135
O O3 0.303457 0.775921 0.787221
O O4 0.394219 0.900694 0.873125
O O5 0.547111 0.861272 0.841478
O O6 0.510335 0.867070 0.982151
O O7 0.583480 0.029104 0.387969
O O8 0.500000 0.000000 0.500000
O O9 0.627938 0.984322 0.506347
O O10 0.098857 0.332159 0.088321
O O11 0.969759 0.213354 0.030269
O O12 0.005158 0.366154 0.011360
O O13 0.269071 0.511697 0.657526
O O14 0.935023 0.217223 0.561625
O O15 0.166667 0.333334 0.333334
#
# Coordination Sequence:
#
# PCOD8321740 Si02
#       7
#    18  18  18  18  18  18  18
#     4  11  22  36  59  93 128 173 224 264 330 408
#     4  12  23  40  63  92 134 179 217 277 335 398
#     4  11  21  38  63  92 131 174 213 261 328 397
#     4  10  23  38  62  94 129 168 223 268 330 401
#     4  11  22  37  59  95 141 182 215 257 321 416
#     4  10  21  40  61  93 124 166 222 269 326 402
#     4  11  23  43  65  86 126 174 220 287 334 378
#
# _framework density 20.95964
#
# number of rings (size 3 to 8) (size 9 to 14) (size 15 to 20)
#    0.000    1.143    4.286    3.000    2.000    0.000 
#    0.000    1.429    0.000    0.000    0.000    0.000 
#    0.000    2.286    0.000    0.000    0.000    0.000 
#
# Total GULP energy -520407.423813 kJ/mol
# GULP energy per Si atom -12390.652948 kJ/mol
# Density = 2.091193 g / cm^3
# Si number density = 20.959640 Si / 1000 Ang^3
#
#
#
# Elastic Constant Matrix: (Units=GPa)
#
#
# Indices 1 2 3 4 5 6 
#
# 1 87.8919 24.1694 39.8509 -7.2783 1.2282 0.0000
# 2 24.1694 87.8919 39.8509 7.2783 -1.2282 0.0000
# 3 39.8509 39.8509 147.6871 0.0000 0.0000 0.0000
# 4 -7.2783 7.2783 0.0000 29.8745 0.0000 -1.2282
# 5 1.2282 -1.2282 0.0000 0.0000 29.8745 -7.2783
# 6 0.0000 0.0000 0.0000 -1.2282 -7.2783 31.8612
#
#
#
# Elastic Compliance Matrix: (Units=1/GPa)
#
#
# Indices 1 2 3 4 5 6 
#
# 1 0.013844 -0.002801 -0.002980 0.004055 -0.000684 0.000000
# 2 -0.002801 0.013844 -0.002980 -0.004055 0.000684 0.000000
# 3 -0.002980 -0.002980 0.008379 0.000000 0.000000 0.000000
# 4 0.004055 -0.004055 0.000000 0.035506 0.000000 0.001369
# 5 -0.000684 0.000684 0.000000 0.000000 0.035506 0.008111
# 6 0.000000 0.000000 0.000000 0.001369 0.008111 0.033292
#
#
# Mechanical properties :
#
#
# Convention : Reuss Voigt Hill
#
# Bulk Modulus (GPa) = 53.91974 59.02371 56.47173
# Shear Modulus (GPa) = 30.47391 32.96203 31.71797
#
# Velocity S-wave (km/s) = 3.81718 3.96996 3.89432
# Velocity P-wave (km/s) = 6.72378 7.01683 6.87187
#
# Compressibility (1/GPa) = 0.01854608
#
# Stress axis : x y z
#
# Youngs Moduli (GPa) = 72.23128 72.23128 119.34375
#
# Poissons Ratio (x) = 0.20235 0.35562
# Poissons Ratio (y) = 0.20235 0.35562
# Poissons Ratio (z) = 0.21523 0.21523
#
# Static dielectric constant tensor:
#      x y z
#    x 3.802340 0.000000 0.000000 
#    y 0.000000 3.802340 0.000000 
#    z 0.000000 0.000000 3.963160 
# 
# 
# High freq. dielectric constant tensor:
#      x y z
#    x 1.813890 0.000000 0.000000 
#    y 0.000000 1.813890 0.000000 
#    z 0.000000 0.000000 1.819280 
# 
# From -- ./inp_files/2729.got.cif
#   From: 2010.03.12/outbox.cif.g09.slc.cpg/sg148_2_cif.got.tgz:2729.got - 2010.04.03 13:38:46.
