data_PCOD8321768
_publ_section_title
;
Structure prediction by ZEFSAII (Michael W. Deem and Ramdas Pophale) SiO2 
 PCOD8321768
Probable space group: R -3
;
_chemical_formula_sum "Si O2"
_cell_formula_units_Z 84
_cell_length_a 17.740776
_cell_length_b 17.740776
_cell_length_c 13.675246
_cell_angle_alpha 90.000000
_cell_angle_beta 90.000000
_cell_angle_gamma 120.000000
_cell_volume 3727.442940
_symmetry_space_group_name_H-M "R -3"
_symmetry_group_IT_number 148
_symmetry_cell_setting 'hexagonal'
loop_
_space_group_symop_operation_xyz
x,y,z
-y,x-y,z
-x+y,-x,z
-x,-y,-z
y,-x+y,-z
x-y,x,-z
2/3+x,1/3+y,1/3+z
2/3-y,1/3+x-y,1/3+z
2/3-x+y,1/3-x,1/3+z
2/3-x,1/3-y,1/3-z
2/3+y,1/3-x+y,1/3-z
2/3+x-y,1/3+x,1/3-z
1/3+x,2/3+y,2/3+z
1/3-y,2/3+x-y,2/3+z
1/3-x+y,2/3-x,2/3+z
1/3-x,2/3-y,2/3-z
1/3+y,2/3-x+y,2/3-z
1/3+x-y,2/3+x,2/3-z
loop_
_atom_site_type_symbol
_atom_site_label
_atom_site_fract_x
_atom_site_fract_y
_atom_site_fract_z
Si Si1 0.666668 0.333334 0.448633
Si Si2 0.717718 0.918198 0.271851
Si Si3 0.013990 0.138972 0.249108
Si Si4 0.666668 0.333335 0.947180
Si Si5 0.595091 0.998011 0.732603
Si Si6 0.675611 0.880744 0.731740
O O1 0.666668 0.333335 0.333334
O O2 0.643532 0.405166 0.490815
O O3 0.666667 0.833334 0.333334
O O4 0.800145 0.916453 0.226337
O O5 0.657402 0.919713 0.183628
O O6 0.748760 0.998583 0.345283
O O7 0.964576 0.192517 0.267478
O O8 0.001358 0.086458 0.348987
O O9 0.666668 0.333335 0.833334
O O10 0.504679 0.983972 0.689731
O O11 0.608166 0.915291 0.715884
O O12 0.666667 0.833334 0.833334
#
# Coordination Sequence:
#
# PCOD8321768 Si02
#       6
#     6  18  18   6  18  18
#     4  10  23  43  73 104 142 196 233 298 379 449
#     4  12  27  48  76 109 150 196 251 312 379 452
#     4  10  24  48  69 108 149 182 249 307 362 456
#     4  10  23  43  73 104 142 196 236 298 373 440
#     4  12  28  49  75 112 151 202 255 319 381 450
#     4  12  27  49  74 108 151 196 254 314 380 449
#
# _framework density 22.535554999999999
#
# number of rings (size 3 to 8) (size 9 to 14) (size 15 to 20)
#    0.000    0.857    4.286    2.571    6.000    5.143 
#    0.000    0.000    0.000    0.429    0.000    0.000 
#    0.000    0.000    0.000    0.000    0.000    0.000 
#
# Total GULP energy -347177.350737 kJ/mol
# GULP energy per Si atom -12399.191098 kJ/mol
# Density = 2.248426 g / cm^3
# Si number density = 22.535555 Si / 1000 Ang^3
#
#
#
# Elastic Constant Matrix: (Units=GPa)
#
#
# Indices 1 2 3 4 5 6 
#
# 1 124.0822 35.2140 48.7069 1.4825 5.9016 0.0002
# 2 35.2140 124.0811 48.7065 -1.4821 -5.9012 0.0002
# 3 48.7069 48.7065 180.8095 0.0010 0.0007 0.0002
# 4 1.4825 -1.4821 0.0010 30.4959 0.0003 -5.9013
# 5 5.9016 -5.9012 0.0007 0.0003 30.4957 1.4826
# 6 0.0002 0.0002 0.0002 -5.9013 1.4826 44.4338
#
#
#
# Elastic Compliance Matrix: (Units=1/GPa)
#
#
# Indices 1 2 3 4 5 6 
#
# 1 0.009542 -0.002027 -0.002025 -0.000562 -0.002239 0.000000
# 2 -0.002027 0.009542 -0.002025 0.000562 0.002239 0.000000
# 3 -0.002025 -0.002025 0.006621 0.000000 0.000000 0.000000
# 4 -0.000562 0.000562 0.000000 0.033712 0.000000 0.004477
# 5 -0.002239 0.002239 0.000000 0.000000 0.033713 -0.001125
# 6 0.000000 0.000000 0.000000 0.004477 -0.001125 0.023138
#
#
# Mechanical properties :
#
#
# Convention : Reuss Voigt Hill
#
# Bulk Modulus (GPa) = 73.77608 77.13641 75.45624
# Shear Modulus (GPa) = 37.61148 40.84145 39.22647
#
# Velocity S-wave (km/s) = 4.08975 4.26174 4.17663
# Velocity P-wave (km/s) = 7.42362 7.64982 7.53757
#
# Compressibility (1/GPa) = 0.01355453
#
# Stress axis : x y z
#
# Youngs Moduli (GPa) = 104.79749 104.79665 151.02411
#
# Poissons Ratio (x) = 0.21237 0.30576
# Poissons Ratio (y) = 0.21237 0.30576
# Poissons Ratio (z) = 0.21217 0.21217
#
# Static dielectric constant tensor:
#      x y z
#    x 5.845970 -0.000780 -0.000090 
#    y -0.000780 5.846270 0.000000 
#    z -0.000090 0.000000 4.022830 
# 
# 
# High freq. dielectric constant tensor:
#      x y z
#    x 1.897480 0.000000 0.000000 
#    y 0.000000 1.897480 0.000000 
#    z 0.000000 0.000000 1.886040 
# 
# From -- ./inp_files/1986.got.cif
#   From: 2010.03.12/outbox.cif.g09.slc.cpg/sg148_1_cif.got.tgz:1986.got - 2010.04.03 13:38:46.
