data_PCOD8321606
_publ_section_title
;
Structure prediction by ZEFSAII (Michael W. Deem and Ramdas Pophale) SiO2 
 PCOD8321606
Probable space group: P -3
;
_chemical_formula_sum "Si O2"
_cell_formula_units_Z 36
_cell_length_a 12.988771
_cell_length_b 12.988771
_cell_length_c 14.943711
_cell_angle_alpha 90.000000
_cell_angle_beta 90.000000
_cell_angle_gamma 120.000000
_cell_volume 2183.359307
_symmetry_space_group_name_H-M "P -3"
_symmetry_group_IT_number 147
_symmetry_cell_setting 'hexagonal'
loop_
_space_group_symop_operation_xyz
x,y,z
-y,x-y,z
-x+y,-x,z
-x,-y,-z
y,-x+y,-z
x-y,x,-z
loop_
_atom_site_type_symbol
_atom_site_label
_atom_site_fract_x
_atom_site_fract_y
_atom_site_fract_z
Si Si1 0.333435 0.430358 0.647483
Si Si2 0.430358 0.333435 0.352517
Si Si3 0.666565 0.096924 0.147483
Si Si4 1.000000 0.758667 0.500000
Si Si5 0.903076 0.333435 0.147483
Si Si6 1.000000 0.241333 0.000000
O O1 0.458571 0.541429 0.618653
O O2 0.233749 0.467498 0.632648
O O3 0.307152 0.317935 0.587404
O O4 0.335655 0.394080 0.750000
O O5 0.394080 0.335655 0.250000
O O6 0.317935 0.307152 0.412596
O O7 0.766251 0.233749 0.132648
O O8 0.541429 0.082857 0.118653
O O9 0.692848 0.010783 0.087404
O O10 0.886968 0.773936 0.514266
O O11 0.989217 0.307152 0.087404
O O12 0.113032 0.226064 0.014266
#
# Coordination Sequence:
#
# PCOD8321606 Si02
#       6
#     6   6   6   6   6   6
#     4   9  17  30  49  71  92 115 147 190 238 283
#     4   9  17  30  49  71  92 115 147 190 238 283
#     4   9  17  30  49  71  92 115 147 190 238 283
#     4  10  20  32  46  66  94 128 162 192 222 262
#     4   9  17  30  49  71  92 115 147 190 238 283
#     4  10  20  32  46  66  94 128 162 192 222 262
#
# _framework density 16.488351999999999
#
# number of rings (size 3 to 8) (size 9 to 14) (size 15 to 20)
#    0.000    2.667    0.000    2.000    0.000    4.000 
#    0.000    0.000    0.000    5.333    0.000    0.000 
#    0.000    0.000    0.000    0.000    0.000    0.000 
#
# Total GULP energy -446459.960104 kJ/mol
# GULP energy per Si atom -12401.665558 kJ/mol
# Density = 1.645082 g / cm^3
# Si number density = 16.488352 Si / 1000 Ang^3
#
#
#
# Elastic Constant Matrix: (Units=GPa)
#
#
# Indices 1 2 3 4 5 6 
#
# 1 119.3136 73.9332 71.3371 0.0000 0.0000 0.0000
# 2 73.9332 119.3136 71.3371 0.0000 0.0000 0.0000
# 3 71.3371 71.3371 100.7970 0.0000 0.0000 0.0000
# 4 0.0000 0.0000 0.0000 27.7033 0.0000 0.0000
# 5 0.0000 0.0000 0.0000 0.0000 27.7033 0.0000
# 6 0.0000 0.0000 0.0000 0.0000 0.0000 22.6902
#
#
#
# Elastic Compliance Matrix: (Units=1/GPa)
#
#
# Indices 1 2 3 4 5 6 
#
# 1 0.016437 -0.005599 -0.007670 0.000000 0.000000 0.000000
# 2 -0.005599 0.016437 -0.007670 0.000000 0.000000 0.000000
# 3 -0.007670 -0.007670 0.020778 0.000000 0.000000 0.000000
# 4 0.000000 0.000000 0.000000 0.036097 0.000000 0.000000
# 5 0.000000 0.000000 0.000000 0.000000 0.036097 0.000000
# 6 0.000000 0.000000 0.000000 0.000000 0.000000 0.044072
#
#
# Mechanical properties :
#
#
# Convention : Reuss Voigt Hill
#
# Bulk Modulus (GPa) = 84.94408 85.84876 85.39642
# Shear Modulus (GPa) = 23.17827 23.80715 23.49271
#
# Velocity S-wave (km/s) = 3.75338 3.80396 3.77876
# Velocity P-wave (km/s) = 8.39126 8.45416 8.42277
#
# Compressibility (1/GPa) = 0.01177245
#
# Stress axis : x y z
#
# Youngs Moduli (GPa) = 60.83928 60.83928 48.12882
#
# Poissons Ratio (x) = 0.34065 0.36915
# Poissons Ratio (y) = 0.34065 0.36915
# Poissons Ratio (z) = 0.46664 0.46664
#
# Static dielectric constant tensor:
#      x y z
#    x 3.049230 0.000000 0.000000 
#    y 0.000000 3.049230 0.000000 
#    z 0.000000 0.000000 3.222030 
# 
# 
# High freq. dielectric constant tensor:
#      x y z
#    x 1.632970 0.000000 0.000000 
#    y 0.000000 1.632970 0.000000 
#    z 0.000000 0.000000 1.640180 
# 
# From -- ./inp_files/920.got.cif
#   From: 2010.03.12/outbox.cif.g09.slc.cpg/sg147_cif.got.tgz:920.got - 2010.04.03 13:37:56.
