data_PCOD8321523
_publ_section_title
;
Structure prediction by ZEFSAII (Michael W. Deem and Ramdas Pophale) SiO2 
 PCOD8321523
Probable space group: R 3
;
_chemical_formula_sum "Si O2"
_cell_formula_units_Z 51
_cell_length_a 14.310557
_cell_length_b 14.310557
_cell_length_c 13.190384
_cell_angle_alpha 90.000000
_cell_angle_beta 90.000000
_cell_angle_gamma 120.000000
_cell_volume 2339.382013
_symmetry_space_group_name_H-M "R 3"
_symmetry_group_IT_number 146
_symmetry_cell_setting 'hexagonal'
loop_
_space_group_symop_operation_xyz
x,y,z
-y,x-y,z
-x+y,-x,z
2/3+x,1/3+y,1/3+z
2/3-y,1/3+x-y,1/3+z
2/3-x+y,1/3-x,1/3+z
1/3+x,2/3+y,2/3+z
1/3-y,2/3+x-y,2/3+z
1/3-x+y,2/3-x,2/3+z
loop_
_atom_site_type_symbol
_atom_site_label
_atom_site_fract_x
_atom_site_fract_y
_atom_site_fract_z
Si Si1 0.316023 0.318900 0.127080
Si Si2 0.415674 0.612922 0.352806
Si Si3 0.984237 0.514858 0.272639
Si Si4 0.791799 0.852076 0.911132
Si Si5 0.904009 0.499254 0.632827
Si Si6 0.000000 0.000000 0.257785
Si Si7 0.666667 0.333334 0.350662
O O1 0.434943 0.387258 0.178191
O O2 0.233030 0.248494 0.216955
O O3 0.313882 0.238735 0.042451
O O4 0.287071 0.404836 0.079232
O O5 0.455552 0.740064 0.342976
O O6 0.462922 0.570095 0.264726
O O7 0.455438 0.594451 0.460237
O O8 0.909494 0.388333 0.278098
O O9 0.668515 0.812381 0.937988
O O10 0.878613 0.958719 0.974322
O O11 0.789042 0.389815 0.632744
O O12 0.000000 0.000000 0.136986
#
# Coordination Sequence:
#
# PCOD8321523 Si02
#       7
#     9   9   9   9   9   3   3
#     4  10  22  42  71  96 133 179 225 291 343 426
#     4  10  21  40  65  98 137 181 228 295 350 406
#     4  11  22  42  67 104 139 172 235 287 356 418
#     4  12  21  39  72 105 133 174 235 294 348 414
#     4  11  24  46  66  97 134 184 233 285 362 419
#     4  12  27  48  60  94 152 187 231 294 360 445
#     4  12  21  39  75 106 134 181 231 312 345 418
#
# _framework density 21.800629000000001
#
# number of rings (size 3 to 8) (size 9 to 14) (size 15 to 20)
#    0.353    0.706    3.529    5.294    0.000    0.000 
#   12.706    0.000    0.000    0.000    0.000    0.000 
#    0.000    0.000    0.000    0.000    0.000    0.000 
#
# Total GULP energy -210733.028667 kJ/mol
# GULP energy per Si atom -12396.060510 kJ/mol
# Density = 2.175101 g / cm^3
# Si number density = 21.800629 Si / 1000 Ang^3
#
#
#
# Elastic Constant Matrix: (Units=GPa)
#
#
# Indices 1 2 3 4 5 6 
#
# 1 110.2860 44.6358 30.0393 7.1758 -1.3339 0.0001
# 2 44.6358 110.2865 30.0394 -7.1757 1.3334 0.0002
# 3 30.0393 30.0394 66.7464 -0.0001 0.0000 0.0000
# 4 7.1758 -7.1757 -0.0001 26.0322 -0.0001 1.3338
# 5 -1.3339 1.3334 0.0000 -0.0001 26.0320 7.1757
# 6 0.0001 0.0002 0.0000 1.3338 7.1757 32.8252
#
#
#
# Elastic Compliance Matrix: (Units=1/GPa)
#
#
# Indices 1 2 3 4 5 6 
#
# 1 0.012032 -0.004213 -0.003519 -0.004478 0.000832 0.000000
# 2 -0.004213 0.012032 -0.003519 0.004478 -0.000832 0.000000
# 3 -0.003519 -0.003519 0.018150 0.000000 0.000000 0.000000
# 4 -0.004478 0.004478 0.000000 0.040968 0.000000 -0.001665
# 5 0.000832 -0.000832 0.000000 0.000000 0.040968 -0.008956
# 6 0.000000 0.000000 0.000000 -0.001665 -0.008956 0.032490
#
#
# Mechanical properties :
#
#
# Convention : Reuss Voigt Hill
#
# Bulk Modulus (GPa) = 50.73039 55.19422 52.96230
# Shear Modulus (GPa) = 26.92324 29.15149 28.03736
#
# Velocity S-wave (km/s) = 3.51803 3.66072 3.59009
# Velocity P-wave (km/s) = 6.31053 6.57575 6.44450
#
# Compressibility (1/GPa) = 0.01971205
#
# Stress axis : x y z
#
# Youngs Moduli (GPa) = 83.10973 83.11015 55.09719
#
# Poissons Ratio (x) = 0.35011 0.19390
# Poissons Ratio (y) = 0.35011 0.19390
# Poissons Ratio (z) = 0.29248 0.29248
#
# Static dielectric constant tensor:
#      x y z
#    x 4.024270 0.000000 0.000000 
#    y 0.000000 4.024260 0.000000 
#    z 0.000000 0.000000 4.007380 
# 
# 
# High freq. dielectric constant tensor:
#      x y z
#    x 1.853740 0.000000 0.000000 
#    y 0.000000 1.853730 0.000000 
#    z 0.000000 0.000000 1.847610 
# 
# From -- ./inp_files/1515.got.cif
#   From: 2010.06.25/outbox.cif.g09.slc.cpg/sg146_cif.got.tgz:1515.got - 2010.06.28 11:17:22.
