data_PCOD8321439
_publ_section_title
;
Structure prediction by ZEFSAII (Michael W. Deem and Ramdas Pophale) SiO2 
 PCOD8321439
Probable space group: P 31
;
_chemical_formula_sum "Si O2"
_cell_formula_units_Z 12
_cell_length_a 8.676143
_cell_length_b 8.676143
_cell_length_c 7.398628
_cell_angle_alpha 90.000000
_cell_angle_beta 90.000000
_cell_angle_gamma 120.000000
_cell_volume 482.319950
_symmetry_space_group_name_H-M "P 31"
_symmetry_group_IT_number 144
_symmetry_cell_setting 'hexagonal'
loop_
_space_group_symop_operation_xyz
x,y,z
-y,x-y,1/3+z
-x+y,-x,2/3+z
loop_
_atom_site_type_symbol
_atom_site_label
_atom_site_fract_x
_atom_site_fract_y
_atom_site_fract_z
Si Si1 0.392223 0.000634 0.644700
Si Si2 0.020330 0.659323 0.687485
Si Si3 0.971156 0.623109 0.276849
Si Si4 0.005412 0.130839 0.491572
O O1 0.196732 0.848762 0.694194
O O2 0.477551 0.948414 0.481077
O O3 0.379862 0.167780 0.575743
O O4 0.501304 0.037151 0.828999
O O5 0.985510 0.582699 0.485767
O O6 0.858959 0.688821 0.763018
O O7 0.135106 0.815947 0.207980
O O8 0.049372 0.035117 0.334719
#
# Coordination Sequence:
#
# PCOD8321439 Si02
#       4
#     3   3   3   3
#     4  12  30  48  74 114 154 196 250 314 376 444
#     4  12  28  50  77 110 149 199 253 313 374 446
#     4  12  28  50  77 110 149 199 253 313 374 446
#     4  12  20  46  78 106 136 198 254 294 362 452
#
# _framework density 24.879750000000001
#
# number of rings (size 3 to 8) (size 9 to 14) (size 15 to 20)
#    0.000    0.000    7.500    0.000    7.000    0.000 
#    4.500    0.000    0.000    0.000    0.000    0.000 
#    0.000    0.000    0.000    0.000    0.000    0.000 
#
# Total GULP energy -148815.300533 kJ/mol
# GULP energy per Si atom -12401.275044 kJ/mol
# Density = 2.482312 g / cm^3
# Si number density = 24.879750 Si / 1000 Ang^3
#
#
#
# Elastic Constant Matrix: (Units=GPa)
#
#
# Indices 1 2 3 4 5 6 
#
# 1 56.6849 11.0343 16.8815 7.5963 1.6251 0.0000
# 2 11.0343 56.6849 16.8815 -7.5963 -1.6251 0.0000
# 3 16.8815 16.8815 150.6576 0.0000 0.0000 0.0000
# 4 7.5963 -7.5963 0.0000 30.8020 0.0000 -1.6251
# 5 1.6251 -1.6251 0.0000 0.0000 30.8020 7.5963
# 6 0.0000 0.0000 0.0000 -1.6251 7.5963 22.8253
#
#
#
# Elastic Compliance Matrix: (Units=1/GPa)
#
#
# Indices 1 2 3 4 5 6 
#
# 1 0.019801 -0.004161 -0.001753 -0.005910 -0.001264 0.000000
# 2 -0.004161 0.019801 -0.001753 0.005910 0.001264 0.000000
# 3 -0.001753 -0.001753 0.007030 0.000000 0.000000 0.000000
# 4 -0.005910 0.005910 0.000000 0.035514 0.000000 0.002528
# 5 -0.001264 0.001264 0.000000 0.000000 0.035514 -0.011819
# 6 0.000000 0.000000 0.000000 0.002528 -0.011819 0.047924
#
#
# Mechanical properties :
#
#
# Convention : Reuss Voigt Hill
#
# Bulk Modulus (GPa) = 31.94750 39.29132 35.61941
# Shear Modulus (GPa) = 26.13008 31.50122 28.81565
#
# Velocity S-wave (km/s) = 3.24428 3.56214 3.40692
# Velocity P-wave (km/s) = 5.18676 5.72235 5.46112
#
# Compressibility (1/GPa) = 0.03130135
#
# Stress axis : x y z
#
# Youngs Moduli (GPa) = 50.50141 50.50141 142.24096
#
# Poissons Ratio (x) = 0.21013 0.24929
# Poissons Ratio (y) = 0.21013 0.24929
# Poissons Ratio (z) = 0.08851 0.08851
#
# Static dielectric constant tensor:
#      x y z
#    x 4.667530 0.000000 0.000000 
#    y 0.000000 4.667530 0.000000 
#    z 0.000000 0.000000 5.391240 
# 
# 
# High freq. dielectric constant tensor:
#      x y z
#    x 1.981160 0.000000 0.000000 
#    y 0.000000 1.981160 0.000000 
#    z 0.000000 0.000000 2.025990 
# 
# From -- ./inp_files/211.got.cif
#   From: 2010.03.12/outbox.cif.g09.slc.cpg/sg144_cif.got.tgz:211.got - 2010.04.03 13:34:42.
