data_PCOD8321196
_publ_section_title
;
Structure prediction by ZEFSAII (Michael W. Deem and Ramdas Pophale) SiO2 
 PCOD8321196
Probable space group: I 41/A C D
;
_chemical_formula_sum "Si O2"
_cell_formula_units_Z 144
_cell_length_a 30.253342
_cell_length_b 30.253342
_cell_length_c 7.415522
_cell_angle_alpha 90.000000
_cell_angle_beta 90.000000
_cell_angle_gamma 90.000000
_cell_volume 6787.165535
_symmetry_space_group_name_H-M "I 41/A C D"
_symmetry_group_IT_number 142
_space_group.IT_coordinate_system_code '2'
_symmetry_cell_setting 'tetragonal'
loop_
_space_group_symop_operation_xyz
x,y,z
1/4-y,3/4+x,1/4+z
-x,1/2-y,z
1/4+y,1/4-x,3/4+z
x,-y,1/2-z
1/2-x,y,-z
3/4+y,1/4+x,1/4-z
1/4-y,1/4-x,1/4-z
-x,-y,-z
3/4+y,1/4-x,3/4-z
x,1/2+y,-z
3/4-y,3/4+x,1/4-z
-x,y,1/2+z
1/2+x,-y,z
1/4-y,3/4-x,3/4+z
3/4+y,3/4+x,3/4+z
1/2+x,1/2+y,1/2+z
3/4-y,1/4+x,3/4+z
1/2-x,-y,1/2+z
3/4+y,3/4-x,1/4+z
1/2+x,1/2-y,-z
-x,1/2+y,1/2-z
1/4+y,3/4+x,3/4-z
3/4-y,3/4-x,3/4-z
1/2-x,1/2-y,1/2-z
1/4+y,3/4-x,1/4-z
1/2+x,y,1/2-z
1/4-y,1/4+x,3/4-z
1/2-x,1/2+y,z
x,1/2-y,1/2+z
3/4-y,1/4-x,1/4+z
1/4+y,1/4+x,1/4+z
loop_
_atom_site_type_symbol
_atom_site_label
_atom_site_fract_x
_atom_site_fract_y
_atom_site_fract_z
Si Si1 0.312659 0.000000 0.250000
Si Si2 0.980815 0.000000 0.250000
Si Si3 0.856338 0.464316 0.097330
Si Si4 0.040389 0.841636 0.509837
Si Si5 0.546587 0.057519 0.441816
Si Si6 0.451025 0.298975 0.875000
O O1 0.282204 0.967797 0.125000
O O2 0.346603 0.978345 0.391516
O O3 0.010621 0.957725 0.298302
O O4 0.950567 0.019546 0.405562
O O5 0.843529 0.500000 0.250000
O O6 0.827999 0.422002 0.125000
O O7 0.904861 0.445348 0.138852
O O8 0.080296 0.830296 0.375000
O O9 0.030739 0.893620 0.499058
O O10 0.056245 0.833547 0.714136
O O11 0.999422 0.808904 0.460459
#
# Coordination Sequence:
#
# PCOD8321196 Si02
#       6
#    16  16  32  32  32  16
#     4  12  23  40  67 102 138 180 232 279 342 417
#     4  10  23  44  75  88 132 188 228 283 346 419
#     4  12  24  44  69 102 140 182 226 286 347 410
#     4  12  25  43  68 104 139 182 227 288 347 420
#     4  11  24  47  67 100 133 179 237 284 347 414
#     4  12  25  42  70 102 142 180 228 278 358 420
#
# _framework density 21.216515000000001
#
# number of rings (size 3 to 8) (size 9 to 14) (size 15 to 20)
#    0.000    0.444    5.556    3.667    0.000    0.000 
#    2.000    0.000    0.000    0.000    0.000    0.000 
#    0.000    0.000    0.000    0.000    0.000    0.000 
#
# Total GULP energy -892118.386984 kJ/mol
# GULP energy per Si atom -12390.533153 kJ/mol
# Density = 2.116823 g / cm^3
# Si number density = 21.216515 Si / 1000 Ang^3
#
#
#
# Elastic Constant Matrix: (Units=GPa)
#
#
# Indices 1 2 3 4 5 6 
#
# 1 88.9557 56.5035 25.2262 0.0000 0.0000 0.0000
# 2 56.5035 88.9716 25.2344 0.0000 0.0000 0.0000
# 3 25.2262 25.2344 128.9501 0.0000 0.0000 0.0000
# 4 0.0000 0.0000 0.0000 -70.5196 0.0000 0.0000
# 5 0.0000 0.0000 0.0000 0.0000 -70.1515 0.0000
# 6 0.0000 0.0000 0.0000 0.0000 0.0000 37.2500
#
#
#
# Elastic Compliance Matrix: (Units=1/GPa)
#
#
# Indices 1 2 3 4 5 6 
#
# 1 0.019092 -0.011716 -0.001442 0.000000 0.000000 0.000000
# 2 -0.011716 0.019090 -0.001444 0.000000 0.000000 0.000000
# 3 -0.001442 -0.001444 0.008320 0.000000 0.000000 0.000000
# 4 0.000000 0.000000 0.000000 -0.014180 0.000000 0.000000
# 5 0.000000 0.000000 0.000000 0.000000 -0.014255 0.000000
# 6 0.000000 0.000000 0.000000 0.000000 0.000000 0.026846
#
#
# Mechanical properties :
#
#
# Convention : Reuss Voigt Hill
#
# Bulk Modulus (GPa) = 57.81151 57.86729 57.83940
# Shear Modulus (GPa) = 62.59265 -7.35665 27.61800
#
# Velocity S-wave (km/s) = 5.43745 -1.86412 3.61185
# Velocity P-wave (km/s) = 8.16876 4.76451 6.68690
#
# Compressibility (1/GPa) = 0.01729759
#
# Stress axis : x y z
#
# Youngs Moduli (GPa) = 52.37691 52.38479 120.19803
#
# Poissons Ratio (x) = 0.61374 0.17336
# Poissons Ratio (y) = 0.61365 0.17353
# Poissons Ratio (z) = 0.07554 0.07563
#
# Static dielectric constant tensor:
#      x y z
#    x 3.838570 0.000000 0.000000 
#    y 0.000000 3.838240 0.000000 
#    z 0.000000 0.000000 4.027280 
# 
# 
# High freq. dielectric constant tensor:
#      x y z
#    x 1.832510 0.000000 0.000000 
#    y 0.000000 1.832510 0.000000 
#    z 0.000000 0.000000 1.846690 
# 
# From -- ./inp_files/2179.got.cif
#   From: 2010.03.12/outbox.cif.g09.slc.cpg/sg142_2_cif.got.tgz:2179.got - 2010.04.03 13:27:16.
