data_PCOD8321257
_publ_section_title
;
Structure prediction by ZEFSAII (Michael W. Deem and Ramdas Pophale) SiO2 
 PCOD8321257
Probable space group: I 41/A C D
;
_chemical_formula_sum "Si O2"
_cell_formula_units_Z 160
_cell_length_a 22.521065
_cell_length_b 22.521065
_cell_length_c 14.993422
_cell_angle_alpha 90.000000
_cell_angle_beta 90.000000
_cell_angle_gamma 90.000000
_cell_volume 7604.639180
_symmetry_space_group_name_H-M "I 41/A C D"
_symmetry_group_IT_number 142
_space_group.IT_coordinate_system_code '2'
_symmetry_cell_setting 'tetragonal'
loop_
_space_group_symop_operation_xyz
x,y,z
1/4-y,3/4+x,1/4+z
-x,1/2-y,z
1/4+y,1/4-x,3/4+z
x,-y,1/2-z
1/2-x,y,-z
3/4+y,1/4+x,1/4-z
1/4-y,1/4-x,1/4-z
-x,-y,-z
3/4+y,1/4-x,3/4-z
x,1/2+y,-z
3/4-y,3/4+x,1/4-z
-x,y,1/2+z
1/2+x,-y,z
1/4-y,3/4-x,3/4+z
3/4+y,3/4+x,3/4+z
1/2+x,1/2+y,1/2+z
3/4-y,1/4+x,3/4+z
1/2-x,-y,1/2+z
3/4+y,3/4-x,1/4+z
1/2+x,1/2-y,-z
-x,1/2+y,1/2-z
1/4+y,3/4+x,3/4-z
3/4-y,3/4-x,3/4-z
1/2-x,1/2-y,1/2-z
1/4+y,3/4-x,1/4-z
1/2+x,y,1/2-z
1/4-y,1/4+x,3/4-z
1/2-x,1/2+y,z
x,1/2-y,1/2+z
3/4-y,1/4-x,1/4+z
1/4+y,1/4+x,1/4+z
loop_
_atom_site_type_symbol
_atom_site_label
_atom_site_fract_x
_atom_site_fract_y
_atom_site_fract_z
Si Si1 0.830418 0.889831 0.691586
Si Si2 0.506866 0.065516 0.540350
Si Si3 0.598559 0.249023 0.875050
Si Si4 0.953714 0.931044 0.728407
Si Si5 0.304324 0.016851 0.555197
O O1 0.828405 0.821250 0.667634
O O2 0.886939 0.908869 0.751742
O O3 0.836757 0.928256 0.601442
O O4 0.768088 0.900977 0.741313
O O5 0.495741 0.112826 0.463682
O O6 0.463360 0.078096 0.622908
O O7 0.500000 0.000000 0.500000
O O8 0.555811 0.305811 0.875000
O O9 0.561470 0.188531 0.875000
O O10 0.641978 0.251805 0.961005
O O11 0.962047 0.000000 0.750000
O O12 0.250000 0.044301 0.500000
O O13 0.281401 0.968600 0.625000
#
# Coordination Sequence:
#
# PCOD8321257 Si02
#       5
#    32  32  32  32  32
#     4  11  23  40  69  96 138 174 234 285 348 421
#     4  12  26  44  68 105 140 185 239 285 352 424
#     4  11  26  48  72 100 140 189 240 292 349 420
#     4  12  25  44  73 104 139 183 232 296 359 422
#     4   9  19  36  62  97 130 174 214 278 353 419
#
# _framework density 21.039788999999999
#
# number of rings (size 3 to 8) (size 9 to 14) (size 15 to 20)
#    0.000    1.000    4.000    3.000    5.600    0.800 
#    0.000    3.000    0.000    0.000    0.000    0.000 
#    0.000    0.000    0.000    0.000    0.000    0.000 
#
# Total GULP energy -992013.901957 kJ/mol
# GULP energy per Si atom -12400.173774 kJ/mol
# Density = 2.099190 g / cm^3
# Si number density = 21.039789 Si / 1000 Ang^3
#
#
#
# Elastic Constant Matrix: (Units=GPa)
#
#
# Indices 1 2 3 4 5 6 
#
# 1 122.7739 60.5844 46.9241 0.0000 0.0000 0.0000
# 2 60.5844 122.7770 46.9252 0.0000 0.0000 0.0000
# 3 46.9241 46.9252 128.9459 0.0000 0.0000 0.0000
# 4 0.0000 0.0000 0.0000 31.4742 0.0000 0.0000
# 5 0.0000 0.0000 0.0000 0.0000 31.4750 0.0000
# 6 0.0000 0.0000 0.0000 0.0000 0.0000 32.0893
#
#
#
# Elastic Compliance Matrix: (Units=1/GPa)
#
#
# Indices 1 2 3 4 5 6 
#
# 1 0.011391 -0.004689 -0.002439 0.000000 0.000000 0.000000
# 2 -0.004689 0.011391 -0.002439 0.000000 0.000000 0.000000
# 3 -0.002439 -0.002439 0.009530 0.000000 0.000000 0.000000
# 4 0.000000 0.000000 0.000000 0.031772 0.000000 0.000000
# 5 0.000000 0.000000 0.000000 0.000000 0.031771 0.000000
# 6 0.000000 0.000000 0.000000 0.000000 0.000000 0.031163
#
#
# Mechanical properties :
#
#
# Convention : Reuss Voigt Hill
#
# Bulk Modulus (GPa) = 75.88020 75.92936 75.90478
# Shear Modulus (GPa) = 33.21281 33.67858 33.44570
#
# Velocity S-wave (km/s) = 3.97743 4.00523 3.99135
# Velocity P-wave (km/s) = 7.56549 7.58656 7.57604
#
# Compressibility (1/GPa) = 0.01317867
#
# Stress axis : x y z
#
# Youngs Moduli (GPa) = 87.78935 87.79124 104.92844
#
# Poissons Ratio (x) = 0.41163 0.25591
# Poissons Ratio (y) = 0.41162 0.25592
# Poissons Ratio (z) = 0.21411 0.21412
#
# Static dielectric constant tensor:
#      x y z
#    x 3.881610 0.000000 0.000000 
#    y 0.000000 3.881600 0.000000 
#    z 0.000000 0.000000 4.311100 
# 
# 
# High freq. dielectric constant tensor:
#      x y z
#    x 1.827850 0.000000 0.000000 
#    y 0.000000 1.827850 0.000000 
#    z 0.000000 0.000000 1.826990 
# 
# From -- ./inp_files/5427.got.cif
#   From: 2010.03.12/outbox.cif.g09.slc.cpg/sg142_3_cif.got.tgz:5427.got - 2010.04.03 13:27:16.
