data_PCOD8321896
_publ_section_title
;
Structure prediction by ZEFSAII (Michael W. Deem and Ramdas Pophale) SiO2 
 PCOD8321896
Probable space group: P 3 2 1
;
_chemical_formula_sum "Si O2"
_cell_formula_units_Z 15
_cell_length_a 7.936636
_cell_length_b 7.936636
_cell_length_c 13.001968
_cell_angle_alpha 90.000000
_cell_angle_beta 90.000000
_cell_angle_gamma 120.000000
_cell_volume 709.271729
_symmetry_space_group_name_H-M "P 3 2 1"
_symmetry_group_IT_number 150
_symmetry_cell_setting 'hexagonal'
loop_
_space_group_symop_operation_xyz
x,y,z
-y,x-y,z
-x+y,-x,z
x-y,-y,-z
-x,-x+y,-z
y,x,-z
loop_
_atom_site_type_symbol
_atom_site_label
_atom_site_fract_x
_atom_site_fract_y
_atom_site_fract_z
Si Si1 0.336311 0.883984 0.899347
Si Si2 0.548775 0.666038 0.301003
Si Si3 0.000000 0.215784 0.500000
O O1 0.143506 0.670298 0.898953
O O2 0.335142 0.002805 0.800023
O O3 0.336286 0.000000 0.000000
O O4 0.525335 0.858114 0.301656
O O5 0.667663 0.663849 0.400140
O O6 0.191786 0.191786 0.500000
#
# Coordination Sequence:
#
# PCOD8321896 Si02
#       3
#     6   6   3
#     4  10  22  38  66  90 127 161 211 251 312 368
#     4  10  24  39  66  88 127 166 214 251 320 369
#     4  10  26  40  62  92 132 158 216 262 316 364
#
# _framework density 21.148451000000001
#
# number of rings (size 3 to 8) (size 9 to 14) (size 15 to 20)
#    2.000    0.000    0.000    2.400    8.400    0.000 
#    0.000    0.000    0.000    3.200    0.000    0.000 
#    0.000    0.000    0.000    0.000    0.000    0.000 
#
# Total GULP energy -185857.642615 kJ/mol
# GULP energy per Si atom -12390.509508 kJ/mol
# Density = 2.110032 g / cm^3
# Si number density = 21.148451 Si / 1000 Ang^3
#
#
#
# Elastic Constant Matrix: (Units=GPa)
#
#
# Indices 1 2 3 4 5 6 
#
# 1 55.5847 0.4597 37.9478 12.2673 0.0000 0.0000
# 2 0.4597 55.5847 37.9478 -12.2673 0.0000 0.0000
# 3 37.9478 37.9478 218.2896 0.0000 0.0000 0.0000
# 4 12.2673 -12.2673 0.0000 35.6971 0.0000 0.0000
# 5 0.0000 0.0000 0.0000 0.0000 35.6971 12.2673
# 6 0.0000 0.0000 0.0000 0.0000 12.2673 27.5625
#
#
#
# Elastic Compliance Matrix: (Units=1/GPa)
#
#
# Indices 1 2 3 4 5 6 
#
# 1 0.022377 0.000960 -0.004057 -0.007360 0.000000 0.000000
# 2 0.000960 0.022377 -0.004057 0.007360 0.000000 0.000000
# 3 -0.004057 -0.004057 0.005992 0.000000 0.000000 0.000000
# 4 -0.007360 0.007360 0.000000 0.033072 0.000000 0.000000
# 5 0.000000 0.000000 0.000000 0.000000 0.033072 -0.014719
# 6 0.000000 0.000000 0.000000 0.000000 -0.014719 0.042832
#
#
# Mechanical properties :
#
#
# Convention : Reuss Voigt Hill
#
# Bulk Modulus (GPa) = 27.44414 53.57444 40.50929
# Shear Modulus (GPa) = 26.85669 36.66492 31.76081
#
# Velocity S-wave (km/s) = 3.56745 4.16828 3.87951
# Velocity P-wave (km/s) = 5.47485 6.96804 6.26609
#
# Compressibility (1/GPa) = 0.03643765
#
# Stress axis : x y z
#
# Youngs Moduli (GPa) = 44.68970 44.68970 166.90049
#
# Poissons Ratio (x) = -0.04292 0.67710
# Poissons Ratio (y) = -0.04292 0.67710
# Poissons Ratio (z) = 0.18130 0.18130
#
# Static dielectric constant tensor:
#      x y z
#    x 3.451560 0.000000 0.000000 
#    y 0.000000 3.451560 0.000000 
#    z 0.000000 0.000000 3.668040 
# 
# 
# High freq. dielectric constant tensor:
#      x y z
#    x 1.803740 0.000000 0.000000 
#    y 0.000000 1.803740 0.000000 
#    z 0.000000 0.000000 1.840640 
# 
# From -- ./inp_files/820.got.cif
#   From: 2010.03.12/outbox.cif.g09.slc.cpg/sg150_cif.got.tgz:820.got - 2010.04.03 13:41:37.
