data_PCOD8321915
_publ_section_title
;
Structure prediction by ZEFSAII (Michael W. Deem and Ramdas Pophale) SiO2 
 PCOD8321915
Probable space group: P 3 2 1
;
_chemical_formula_sum "Si O2"
_cell_formula_units_Z 24
_cell_length_a 12.517093
_cell_length_b 12.517093
_cell_length_c 8.816116
_cell_angle_alpha 90.000000
_cell_angle_beta 90.000000
_cell_angle_gamma 120.000000
_cell_volume 1196.230539
_symmetry_space_group_name_H-M "P 3 2 1"
_symmetry_group_IT_number 150
_symmetry_cell_setting 'hexagonal'
loop_
_space_group_symop_operation_xyz
x,y,z
-y,x-y,z
-x+y,-x,z
x-y,-y,-z
-x,-x+y,-z
y,x,-z
loop_
_atom_site_type_symbol
_atom_site_label
_atom_site_fract_x
_atom_site_fract_y
_atom_site_fract_z
Si Si1 0.760411 0.270899 0.079074
Si Si2 0.760411 0.270899 0.420926
Si Si3 0.740839 0.871881 0.427677
Si Si4 0.259161 0.131042 0.927677
O O1 0.805562 0.416556 0.055751
O O2 0.792809 0.248929 0.250000
O O3 0.829279 0.230045 0.960142
O O4 0.805562 0.416556 0.444249
O O5 0.829279 0.230045 0.539858
O O6 0.833544 0.833544 0.500000
O O7 0.763845 0.886845 0.250000
O O8 0.766551 0.000000 0.500000
O O9 0.233449 0.233449 0.000000
O O10 0.166456 0.000000 0.000000
#
# Coordination Sequence:
#
# PCOD8321915 Si02
#       4
#     6   6   6   6
#     4   8  18  39  64  91 122 154 195 244 293 348
#     4   8  18  39  64  91 122 154 195 244 293 348
#     4  12  25  41  62  87 120 158 201 246 296 354
#     4  12  25  41  62  87 120 158 201 246 296 354
#
# _framework density 20.063023000000001
#
# number of rings (size 3 to 8) (size 9 to 14) (size 15 to 20)
#    1.000    1.000    0.000    5.000    0.000    4.000 
#    0.000    0.000    0.000    0.000    0.000    0.000 
#    0.000    0.000    0.000    0.000    0.000    0.000 
#
# Total GULP energy -297509.865996 kJ/mol
# GULP energy per Si atom -12396.244417 kJ/mol
# Density = 2.001736 g / cm^3
# Si number density = 20.063023 Si / 1000 Ang^3
#
#
#
# Elastic Constant Matrix: (Units=GPa)
#
#
# Indices 1 2 3 4 5 6 
#
# 1 67.0526 12.5070 38.2537 0.0000 0.0000 0.0000
# 2 12.5070 67.0526 38.2537 0.0000 0.0000 0.0000
# 3 38.2537 38.2537 158.7062 0.0000 0.0000 0.0000
# 4 0.0000 0.0000 0.0000 29.2150 0.0000 0.0000
# 5 0.0000 0.0000 0.0000 0.0000 29.2150 0.0000
# 6 0.0000 0.0000 0.0000 0.0000 0.0000 27.2728
#
#
#
# Elastic Compliance Matrix: (Units=1/GPa)
#
#
# Indices 1 2 3 4 5 6 
#
# 1 0.017347 -0.000986 -0.003944 0.000000 0.000000 0.000000
# 2 -0.000986 0.017347 -0.003944 0.000000 0.000000 0.000000
# 3 -0.003944 -0.003944 0.008202 0.000000 0.000000 0.000000
# 4 0.000000 0.000000 0.000000 0.034229 0.000000 0.000000
# 5 0.000000 0.000000 0.000000 0.000000 0.034229 0.000000
# 6 0.000000 0.000000 0.000000 0.000000 0.000000 0.036667
#
#
# Mechanical properties :
#
#
# Convention : Reuss Voigt Hill
#
# Bulk Modulus (GPa) = 39.76072 52.31558 46.03815
# Shear Modulus (GPa) = 28.71064 30.72704 29.71884
#
# Velocity S-wave (km/s) = 3.78699 3.91772 3.85291
# Velocity P-wave (km/s) = 6.24361 6.82619 6.54139
#
# Compressibility (1/GPa) = 0.02515045
#
# Stress axis : x y z
#
# Youngs Moduli (GPa) = 57.64541 57.64541 121.92000
#
# Poissons Ratio (x) = 0.05683 0.48082
# Poissons Ratio (y) = 0.05683 0.48082
# Poissons Ratio (z) = 0.22734 0.22734
#
# Static dielectric constant tensor:
#      x y z
#    x 3.452700 0.000000 0.000000 
#    y 0.000000 3.452700 0.000000 
#    z 0.000000 0.000000 3.489660 
# 
# 
# High freq. dielectric constant tensor:
#      x y z
#    x 1.775140 0.000000 0.000000 
#    y 0.000000 1.775140 0.000000 
#    z 0.000000 0.000000 1.782940 
# 
# From -- ./inp_files/548.got.cif
#   From: 2010.03.12/outbox.cif.g09.slc.cpg/sg150_cif.got.tgz:548.got - 2010.04.03 13:41:37.
