data_PCOD8321829
_publ_section_title
;
Structure prediction by ZEFSAII (Michael W. Deem and Ramdas Pophale) SiO2 
 PCOD8321829
Probable space group: P 3 1 2
;
_chemical_formula_sum "Si O2"
_cell_formula_units_Z 36
_cell_length_a 18.366893
_cell_length_b 18.366893
_cell_length_c 8.694864
_cell_angle_alpha 90.000000
_cell_angle_beta 90.000000
_cell_angle_gamma 120.000000
_cell_volume 2540.181899
_symmetry_space_group_name_H-M "P 3 1 2"
_symmetry_group_IT_number 149
_symmetry_cell_setting 'hexagonal'
loop_
_space_group_symop_operation_xyz
x,y,z
-y,x-y,z
-x+y,-x,z
-y,-x,-z
-x+y,y,-z
x,x-y,-z
loop_
_atom_site_type_symbol
_atom_site_label
_atom_site_fract_x
_atom_site_fract_y
_atom_site_fract_z
Si Si1 0.160505 0.159211 0.068096
Si Si2 0.335240 0.823729 0.071587
Si Si3 0.673785 0.915627 0.571067
Si Si4 0.176272 0.511512 0.428413
Si Si5 0.084374 0.758159 0.928933
Si Si6 0.840790 0.839495 0.568095
O O1 0.152982 0.151190 0.250000
O O2 0.175325 0.087663 0.000000
O O3 0.241767 0.248734 0.017841
O O4 0.075440 0.150880 0.000000
O O5 0.335641 0.805000 0.250000
O O6 0.323490 0.905334 0.045131
O O7 0.261453 0.738548 0.000000
O O8 0.424531 0.849061 0.000000
O O9 0.664841 0.832421 0.500000
O O10 0.581844 0.905333 0.545131
O O11 0.697282 0.922455 0.750000
O O12 0.751267 0.993034 0.482160
O O13 0.261453 0.522906 0.500000
O O14 0.150939 0.575470 0.500000
O O15 0.167581 0.832420 0.000000
O O16 0.912338 0.824675 0.500000
O O17 0.849122 0.924561 0.500000
#
# Coordination Sequence:
#
# PCOD8321829 Si02
#       6
#     6   6   6   6   6   6
#     4  11  20  30  43  59  79 103 132 166 199 235
#     4  10  19  29  42  58  79 104 134 168 201 236
#     4   9  17  29  42  57  76 101 130 162 199 237
#     4  10  19  29  42  58  79 104 134 168 201 236
#     4   9  17  29  42  57  76 101 130 162 199 237
#     4  11  20  30  43  59  79 103 132 166 199 235
#
# _framework density 14.172212
#
# number of rings (size 3 to 8) (size 9 to 14) (size 15 to 20)
#    0.000    2.000    0.000    7.667    0.000    4.000 
#    0.000    0.000    0.000    0.000    0.000    0.000 
#    0.000    0.000    0.000    1.000    0.000   16.000 
#
# Total GULP energy -446085.827866 kJ/mol
# GULP energy per Si atom -12391.272996 kJ/mol
# Density = 1.413996 g / cm^3
# Si number density = 14.172212 Si / 1000 Ang^3
#
#
#
# Elastic Constant Matrix: (Units=GPa)
#
#
# Indices 1 2 3 4 5 6 
#
# 1 86.2387 49.1399 49.4582 0.0000 -0.0001 0.0000
# 2 49.1399 86.2387 49.4582 0.0000 0.0001 0.0000
# 3 49.4582 49.4582 130.8186 0.0000 0.0000 0.0000
# 4 0.0000 0.0000 0.0000 21.2198 0.0000 0.0001
# 5 -0.0001 0.0001 0.0000 0.0000 21.2198 0.0000
# 6 0.0000 0.0000 0.0000 0.0001 0.0000 18.5494
#
#
#
# Elastic Compliance Matrix: (Units=1/GPa)
#
#
# Indices 1 2 3 4 5 6 
#
# 1 0.018581 -0.008375 -0.003859 0.000000 0.000000 0.000000
# 2 -0.008375 0.018581 -0.003859 0.000000 0.000000 0.000000
# 3 -0.003859 -0.003859 0.010562 0.000000 0.000000 0.000000
# 4 0.000000 0.000000 0.000000 0.047126 0.000000 0.000000
# 5 0.000000 0.000000 0.000000 0.000000 0.047126 0.000000
# 6 0.000000 0.000000 0.000000 0.000000 0.000000 0.053910
#
#
# Mechanical properties :
#
#
# Convention : Reuss Voigt Hill
#
# Bulk Modulus (GPa) = 64.35191 66.60093 65.47642
# Shear Modulus (GPa) = 21.43644 22.54711 21.99178
#
# Velocity S-wave (km/s) = 3.89339 3.99298 3.94350
# Velocity P-wave (km/s) = 8.10661 8.26768 8.18754
#
# Compressibility (1/GPa) = 0.01553955
#
# Stress axis : x y z
#
# Youngs Moduli (GPa) = 53.81983 53.81983 94.68133
#
# Poissons Ratio (x) = 0.45071 0.36533
# Poissons Ratio (y) = 0.45071 0.36533
# Poissons Ratio (z) = 0.20767 0.20767
#
# Static dielectric constant tensor:
#      x y z
#    x 3.078040 0.000000 0.000000 
#    y 0.000000 3.078040 0.000000 
#    z 0.000000 0.000000 3.079640 
# 
# 
# High freq. dielectric constant tensor:
#      x y z
#    x 1.516000 0.000000 0.000000 
#    y 0.000000 1.516000 0.000000 
#    z 0.000000 0.000000 1.568420 
# 
# From -- ./inp_files/647.got.cif
#   From: 2010.03.12/outbox.cif.g09.slc.cpg/sg149_cif.got.tgz:647.got - 2010.04.03 13:40:41.
