data_PCOD8321200
_publ_section_title
;
Structure prediction by ZEFSAII (Michael W. Deem and Ramdas Pophale) SiO2 
 PCOD8321200
Probable space group: I 41/A C D
;
_chemical_formula_sum "Si O2"
_cell_formula_units_Z 144
_cell_length_a 29.080995
_cell_length_b 29.080995
_cell_length_c 7.797673
_cell_angle_alpha 90.000000
_cell_angle_beta 90.000000
_cell_angle_gamma 90.000000
_cell_volume 6594.525354
_symmetry_space_group_name_H-M "I 41/A C D"
_symmetry_group_IT_number 142
_space_group.IT_coordinate_system_code '2'
_symmetry_cell_setting 'tetragonal'
loop_
_space_group_symop_operation_xyz
x,y,z
1/4-y,3/4+x,1/4+z
-x,1/2-y,z
1/4+y,1/4-x,3/4+z
x,-y,1/2-z
1/2-x,y,-z
3/4+y,1/4+x,1/4-z
1/4-y,1/4-x,1/4-z
-x,-y,-z
3/4+y,1/4-x,3/4-z
x,1/2+y,-z
3/4-y,3/4+x,1/4-z
-x,y,1/2+z
1/2+x,-y,z
1/4-y,3/4-x,3/4+z
3/4+y,3/4+x,3/4+z
1/2+x,1/2+y,1/2+z
3/4-y,1/4+x,3/4+z
1/2-x,-y,1/2+z
3/4+y,3/4-x,1/4+z
1/2+x,1/2-y,-z
-x,1/2+y,1/2-z
1/4+y,3/4+x,3/4-z
3/4-y,3/4-x,3/4-z
1/2-x,1/2-y,1/2-z
1/4+y,3/4-x,1/4-z
1/2+x,y,1/2-z
1/4-y,1/4+x,3/4-z
1/2-x,1/2+y,z
x,1/2-y,1/2+z
3/4-y,1/4-x,1/4+z
1/4+y,1/4+x,1/4+z
loop_
_atom_site_type_symbol
_atom_site_label
_atom_site_fract_x
_atom_site_fract_y
_atom_site_fract_z
Si Si1 0.309491 0.059491 0.375000
Si Si2 0.995418 0.000000 0.250000
Si Si3 0.840883 0.457461 0.973110
Si Si4 0.043797 0.841685 0.515118
Si Si5 0.553941 0.054571 0.470803
Si Si6 0.451029 0.298972 0.875000
O O1 0.257172 0.071020 0.324545
O O2 0.322642 0.088672 0.545909
O O3 0.028590 0.043044 0.206960
O O4 0.961631 0.015031 0.399686
O O5 0.808595 0.441406 0.125000
O O6 0.891843 0.451946 0.046777
O O7 0.084291 0.834291 0.375000
O O8 0.034748 0.895674 0.523054
O O9 0.059054 0.830223 0.709278
O O10 0.002080 0.809462 0.447151
#
# Coordination Sequence:
#
# PCOD8321200 Si02
#       6
#    16  16  32  32  32  16
#     4  10  24  39  68 101 140 176 225 276 354 411
#     4  10  24  46  74  84 138 184 224 288 354 422
#     4  11  24  42  68 103 137 181 225 285 342 420
#     4  12  25  43  68 106 139 181 231 288 344 427
#     4  11  25  48  67 101 131 182 238 282 351 416
#     4  12  25  41  72 101 144 184 224 282 366 410
#
# _framework density 21.836293000000001
#
# number of rings (size 3 to 8) (size 9 to 14) (size 15 to 20)
#    0.000    0.889    2.222    4.333    9.333    0.889 
#    0.000    0.000    0.000    0.000    0.000    0.000 
#    0.000    0.000    0.000    0.000    0.000    0.000 
#
# Total GULP energy -891972.228609 kJ/mol
# GULP energy per Si atom -12388.503175 kJ/mol
# Density = 2.178659 g / cm^3
# Si number density = 21.836293 Si / 1000 Ang^3
#
#
#
# Elastic Constant Matrix: (Units=GPa)
#
#
# Indices 1 2 3 4 5 6 
#
# 1 83.6693 43.9335 19.9215 0.0000 0.0000 0.0000
# 2 43.9335 83.6623 19.9262 0.0000 0.0000 0.0000
# 3 19.9215 19.9262 138.5060 0.0000 0.0000 0.0000
# 4 0.0000 0.0000 0.0000 25.8938 0.0000 0.0000
# 5 0.0000 0.0000 0.0000 0.0000 25.8949 0.0000
# 6 0.0000 0.0000 0.0000 0.0000 0.0000 21.6170
#
#
#
# Elastic Compliance Matrix: (Units=1/GPa)
#
#
# Indices 1 2 3 4 5 6 
#
# 1 0.016686 -0.008481 -0.001180 0.000000 0.000000 0.000000
# 2 -0.008481 0.016688 -0.001181 0.000000 0.000000 0.000000
# 3 -0.001180 -0.001181 0.007559 0.000000 0.000000 0.000000
# 4 0.000000 0.000000 0.000000 0.038619 0.000000 0.000000
# 5 0.000000 0.000000 0.000000 0.000000 0.038618 0.000000
# 6 0.000000 0.000000 0.000000 0.000000 0.000000 0.046260
#
#
# Mechanical properties :
#
#
# Convention : Reuss Voigt Hill
#
# Bulk Modulus (GPa) = 51.94990 52.60000 52.27495
# Shear Modulus (GPa) = 25.96986 29.48492 27.72739
#
# Velocity S-wave (km/s) = 3.45236 3.67859 3.56727
# Velocity P-wave (km/s) = 6.30349 6.49487 6.39990
#
# Compressibility (1/GPa) = 0.01924932
#
# Stress axis : x y z
#
# Youngs Moduli (GPa) = 59.92980 59.92365 132.28400
#
# Poissons Ratio (x) = 0.50824 0.15607
# Poissons Ratio (y) = 0.50829 0.15622
# Poissons Ratio (z) = 0.07071 0.07076
#
# Static dielectric constant tensor:
#      x y z
#    x 3.837380 0.000000 0.000000 
#    y 0.000000 3.837390 0.000000 
#    z 0.000000 0.000000 5.038040 
# 
# 
# High freq. dielectric constant tensor:
#      x y z
#    x 1.850300 0.000000 0.000000 
#    y 0.000000 1.850300 0.000000 
#    z 0.000000 0.000000 1.885700 
# 
# From -- ./inp_files/2178.got.cif
#   From: 2010.03.12/outbox.cif.g09.slc.cpg/sg142_2_cif.got.tgz:2178.got - 2010.04.03 13:27:16.
