data_PCOD8321340
_publ_section_title
;
Structure prediction by ZEFSAII (Michael W. Deem and Ramdas Pophale) SiO2 
 PCOD8321340
Probable space group: P 3
;
_chemical_formula_sum "Si O2"
_cell_formula_units_Z 17
_cell_length_a 10.743074
_cell_length_b 10.743074
_cell_length_c 9.605550
_cell_angle_alpha 90.000000
_cell_angle_beta 90.000000
_cell_angle_gamma 120.000000
_cell_volume 960.085704
_symmetry_space_group_name_H-M "P 3"
_symmetry_group_IT_number 143
_symmetry_cell_setting 'hexagonal'
loop_
_space_group_symop_operation_xyz
x,y,z
-y,x-y,z
-x+y,-x,z
loop_
_atom_site_type_symbol
_atom_site_label
_atom_site_fract_x
_atom_site_fract_y
_atom_site_fract_z
Si Si1 0.348454 0.166492 0.476480
Si Si2 0.309167 0.944668 0.261568
Si Si3 0.666667 0.333335 0.093224
Si Si4 0.905454 0.089035 0.761542
Si Si5 0.616161 0.965362 0.261566
Si Si6 0.818050 0.651560 0.046632
Si Si7 0.666668 0.333335 0.429783
O O1 0.282158 0.146639 0.627236
O O2 0.332793 0.289589 0.397025
O O3 0.514914 0.215027 0.489959
O O4 0.275817 0.015145 0.394920
O O5 0.471876 0.975203 0.261576
O O6 0.200504 0.774748 0.261558
O O7 0.275846 0.015158 0.128211
O O8 0.700149 0.485101 0.033049
O O9 0.666668 0.333334 0.261504
O O10 0.079384 0.163696 0.761508
O O11 0.853405 0.135450 0.895921
O O12 0.710403 0.043220 0.126109
#
# Coordination Sequence:
#
# PCOD8321340 Si02
#       7
#     3   3   1   3   3   3   1
#     4  11  20  39  62  83 120 157 197 247 302 352
#     4  11  21  36  60  88 119 155 200 246 302 359
#     4  12  18  40  65  97 114 148 197 274 288 349
#     4  10  24  40  54  86 124 154 196 244 296 358
#     4  11  21  36  60  88 119 155 200 246 302 359
#     4  11  20  39  62  83 120 157 197 247 302 352
#     4  12  18  40  65  97 114 148 197 274 288 349
#
# _framework density 17.706752000000002
#
# number of rings (size 3 to 8) (size 9 to 14) (size 15 to 20)
#    0.353    0.706    7.059    2.471    0.000    1.412 
#    8.471    0.000    0.000    0.000    0.000    0.000 
#    0.000    0.000    0.000    0.000    0.000    0.000 
#
# Total GULP energy -210764.458602 kJ/mol
# GULP energy per Si atom -12397.909330 kJ/mol
# Density = 1.766645 g / cm^3
# Si number density = 17.706752 Si / 1000 Ang^3
#
#
#
# Elastic Constant Matrix: (Units=GPa)
#
#
# Indices 1 2 3 4 5 6 
#
# 1 94.1160 28.3060 54.1427 0.0021 0.0000 -0.0003
# 2 28.3060 94.1138 54.1409 -0.0020 0.0000 -0.0007
# 3 54.1427 54.1409 163.0651 0.0001 -0.0001 -0.0002
# 4 0.0021 -0.0020 0.0001 25.9196 -0.0001 -0.0002
# 5 0.0000 0.0000 -0.0001 -0.0001 25.9198 0.0021
# 6 -0.0003 -0.0007 -0.0002 -0.0002 0.0021 32.9041
#
#
#
# Elastic Compliance Matrix: (Units=1/GPa)
#
#
# Indices 1 2 3 4 5 6 
#
# 1 0.013380 -0.001815 -0.003840 -0.000001 0.000000 0.000000
# 2 -0.001815 0.013380 -0.003840 0.000001 0.000000 0.000000
# 3 -0.003840 -0.003840 0.008682 0.000000 0.000000 0.000000
# 4 -0.000001 0.000001 0.000000 0.038581 0.000000 0.000000
# 5 0.000000 0.000000 0.000000 0.000000 0.038581 -0.000002
# 6 0.000000 0.000000 0.000000 0.000000 -0.000002 0.030391
#
#
# Mechanical properties :
#
#
# Convention : Reuss Voigt Hill
#
# Bulk Modulus (GPa) = 60.77967 69.38599 65.08283
# Shear Modulus (GPa) = 29.85610 31.26238 30.55924
#
# Velocity S-wave (km/s) = 4.11072 4.20642 4.15884
# Velocity P-wave (km/s) = 7.54526 7.92863 7.73932
#
# Compressibility (1/GPa) = 0.01645287
#
# Stress axis : x y z
#
# Youngs Moduli (GPa) = 74.73760 74.73654 115.17565
#
# Poissons Ratio (x) = 0.13567 0.44227
# Poissons Ratio (y) = 0.13567 0.44225
# Poissons Ratio (z) = 0.28699 0.28697
#
# Static dielectric constant tensor:
#      x y z
#    x 3.360990 0.000010 0.000000 
#    y 0.000010 3.360980 0.000000 
#    z 0.000000 0.000000 3.091260 
# 
# 
# High freq. dielectric constant tensor:
#      x y z
#    x 1.690050 0.000000 0.000000 
#    y 0.000000 1.690050 0.000000 
#    z 0.000000 0.000000 1.671770 
# 
# From -- ./inp_files/172.got.cif
#   From: 2010.03.12/outbox.cif.g09.slc.cpg/sg143_cif.got.tgz:172.got - 2010.04.03 13:34:35.
