data_PCOD8321921
_publ_section_title
;
Structure prediction by ZEFSAII (Michael W. Deem and Ramdas Pophale) SiO2 
 PCOD8321921
Probable space group: P 31 1 2
;
_chemical_formula_sum "Si O2"
_cell_formula_units_Z 48
_cell_length_a 19.080150
_cell_length_b 19.080150
_cell_length_c 11.282304
_cell_angle_alpha 90.000000
_cell_angle_beta 90.000000
_cell_angle_gamma 120.000000
_cell_volume 3557.066615
_symmetry_space_group_name_H-M "P 31 1 2"
_symmetry_group_IT_number 151
_symmetry_cell_setting 'hexagonal'
loop_
_space_group_symop_operation_xyz
x,y,z
-y,x-y,1/3+z
-x+y,-x,2/3+z
-y,-x,2/3-z
-x+y,y,1/3-z
x,x-y,-z
loop_
_atom_site_type_symbol
_atom_site_label
_atom_site_fract_x
_atom_site_fract_y
_atom_site_fract_z
Si Si1 0.352470 0.847951 0.911256
Si Si2 0.213680 0.529755 0.999993
Si Si3 0.786321 0.316075 0.000008
Si Si4 0.174763 0.674936 0.267571
Si Si5 0.847951 0.495482 0.244589
Si Si6 0.825238 0.325064 0.267572
Si Si7 0.419692 0.413371 0.967054
Si Si8 0.413370 0.419692 0.699612
O O1 0.358098 0.855932 0.767800
O O2 0.270216 0.774080 0.957493
O O3 0.419466 0.828349 0.964914
O O4 0.355072 0.928588 0.959097
O O5 0.257376 0.628688 0.000000
O O6 0.179009 0.490282 0.873171
O O7 0.820991 0.311273 0.126829
O O8 0.742625 0.371313 0.000000
O O9 0.729783 0.225920 0.957495
O O10 0.855932 0.358097 0.898867
O O11 0.249846 0.750155 0.333334
O O12 0.088358 0.661215 0.312601
O O13 0.828350 0.408883 0.298247
O O14 0.928589 0.573517 0.292431
O O15 0.750155 0.249846 0.333334
O O16 0.911642 0.338785 0.312601
O O17 0.389481 0.389481 0.833333
O O18 0.500000 0.500000 0.975100
#
# Coordination Sequence:
#
# PCOD8321921 Si02
#       8
#     6   6   6   6   6   6   6   6
#     4   9  17  28  39  52  73  95 118 153 193 227
#     4   9  17  27  39  55  71  92 121 153 189 223
#     4   9  17  27  39  55  71  92 121 153 189 223
#     4  10  18  26  39  55  71  93 122 155 186 224
#     4   9  17  28  39  52  73  95 118 153 193 227
#     4  10  18  26  39  55  71  93 122 155 186 224
#     4   9  17  27  38  52  70  93 118 148 188 225
#     4   9  17  27  38  52  70  93 118 148 188 225
#
# _framework density 13.494263999999999
#
# number of rings (size 3 to 8) (size 9 to 14) (size 15 to 20)
#    0.000    2.750    0.000    2.250    0.000    6.000 
#    0.000    5.000    0.000    0.000    0.000    0.000 
#    0.000    0.000    0.000    0.000    0.000    0.000 
#
# Total GULP energy -594648.993815 kJ/mol
# GULP energy per Si atom -12388.520704 kJ/mol
# Density = 1.346355 g / cm^3
# Si number density = 13.494264 Si / 1000 Ang^3
#
#
#
# Elastic Constant Matrix: (Units=GPa)
#
#
# Indices 1 2 3 4 5 6 
#
# 1 58.8501 33.8883 42.1283 0.0000 0.0000 0.0000
# 2 33.8883 58.8501 42.1283 0.0000 0.0000 0.0000
# 3 42.1283 42.1283 121.0313 0.0000 0.0000 0.0000
# 4 0.0000 0.0000 0.0000 17.6663 0.0000 0.0000
# 5 0.0000 0.0000 0.0000 0.0000 17.6663 0.0000
# 6 0.0000 0.0000 0.0000 0.0000 0.0000 12.4809
#
#
#
# Elastic Compliance Matrix: (Units=1/GPa)
#
#
# Indices 1 2 3 4 5 6 
#
# 1 0.027916 -0.012145 -0.005489 0.000000 0.000000 0.000000
# 2 -0.012145 0.027916 -0.005489 0.000000 0.000000 0.000000
# 3 -0.005489 -0.005489 0.012084 0.000000 0.000000 0.000000
# 4 0.000000 0.000000 0.000000 0.056605 0.000000 0.000000
# 5 0.000000 0.000000 0.000000 0.000000 0.056605 0.000000
# 6 0.000000 0.000000 0.000000 0.000000 0.000000 0.080122
#
#
# Mechanical properties :
#
#
# Convention : Reuss Voigt Hill
#
# Bulk Modulus (GPa) = 46.15287 52.78015 49.46651
# Shear Modulus (GPa) = 15.88727 17.60182 16.74455
#
# Velocity S-wave (km/s) = 3.43495 3.61556 3.52641
# Velocity P-wave (km/s) = 7.07163 7.52513 7.30190
#
# Compressibility (1/GPa) = 0.02166712
#
# Stress axis : x y z
#
# Youngs Moduli (GPa) = 35.82214 35.82214 82.75592
#
# Poissons Ratio (x) = 0.43508 0.45427
# Poissons Ratio (y) = 0.43508 0.45427
# Poissons Ratio (z) = 0.19664 0.19664
#
# Static dielectric constant tensor:
#      x y z
#    x 2.531440 0.000000 0.000000 
#    y 0.000000 2.531440 0.000000 
#    z 0.000000 0.000000 2.981870 
# 
# 
# High freq. dielectric constant tensor:
#      x y z
#    x 1.476700 0.000000 0.000000 
#    y 0.000000 1.476700 0.000000 
#    z 0.000000 0.000000 1.537260 
# 
# From -- ./inp_files/2693.got.cif
#   From: 2010.03.12/outbox.cif.g09.slc.cpg/sg151_2_cif.got.tgz:2693.got - 2010.04.03 13:42:29.
