data_PCOD8321766
_publ_section_title
;
Structure prediction by ZEFSAII (Michael W. Deem and Ramdas Pophale) SiO2 
 PCOD8321766
Probable space group: R -3
;
_chemical_formula_sum "Si O2"
_cell_formula_units_Z 72
_cell_length_a 24.570425
_cell_length_b 24.570425
_cell_length_c 6.964293
_cell_angle_alpha 90.000000
_cell_angle_beta 90.000000
_cell_angle_gamma 120.000000
_cell_volume 3641.103326
_symmetry_space_group_name_H-M "R -3"
_symmetry_group_IT_number 148
_symmetry_cell_setting 'hexagonal'
loop_
_space_group_symop_operation_xyz
x,y,z
-y,x-y,z
-x+y,-x,z
-x,-y,-z
y,-x+y,-z
x-y,x,-z
2/3+x,1/3+y,1/3+z
2/3-y,1/3+x-y,1/3+z
2/3-x+y,1/3-x,1/3+z
2/3-x,1/3-y,1/3-z
2/3+y,1/3-x+y,1/3-z
2/3+x-y,1/3+x,1/3-z
1/3+x,2/3+y,2/3+z
1/3-y,2/3+x-y,2/3+z
1/3-x+y,2/3-x,2/3+z
1/3-x,2/3-y,2/3-z
1/3+y,2/3-x+y,2/3-z
1/3+x-y,2/3+x,2/3-z
loop_
_atom_site_type_symbol
_atom_site_label
_atom_site_fract_x
_atom_site_fract_y
_atom_site_fract_z
Si Si1 0.429076 0.438750 0.831386
Si Si2 0.205089 0.963936 0.786410
Si Si3 0.581844 0.832699 0.462039
Si Si4 0.230302 0.706194 0.170448
O O1 0.439829 0.417945 0.621079
O O2 0.362963 0.428605 0.892395
O O3 0.475667 0.512193 0.832213
O O4 0.443020 0.396561 0.981754
O O5 0.147074 0.960487 0.668010
O O6 0.186362 0.954764 0.007794
O O7 0.516379 0.782525 0.364395
O O8 0.303247 0.751922 0.117707
#
# Coordination Sequence:
#
# PCOD8321766 Si02
#       4
#    18  18  18  18
#     4  10  23  41  61  96 125 162 204 256 309 379
#     4  11  24  39  68  93 127 166 207 259 318 377
#     4  10  23  43  63  89 129 161 207 253 318 374
#     4  11  24  43  65  93 126 168 217 266 313 370
#
# _framework density 19.774224
#
# number of rings (size 3 to 8) (size 9 to 14) (size 15 to 20)
#    0.000    1.500    2.500    1.000    7.000    2.000 
#    0.000    0.000    0.000    3.000    0.000    0.000 
#    0.000    0.000    0.000    0.000    0.000    0.000 
#
# Total GULP energy -297465.160529 kJ/mol
# GULP energy per Si atom -12394.381689 kJ/mol
# Density = 1.972922 g / cm^3
# Si number density = 19.774224 Si / 1000 Ang^3
#
#
#
# Elastic Constant Matrix: (Units=GPa)
#
#
# Indices 1 2 3 4 5 6 
#
# 1 246.2446 185.1793 150.6781 -5.0696 -9.3565 -0.1752
# 2 185.1793 245.9598 151.0747 5.7588 8.8863 -0.1925
# 3 150.6781 151.0747 199.1417 -0.2978 0.1946 0.0892
# 4 -5.0696 5.7588 -0.2978 5.1917 -0.3171 8.8923
# 5 -9.3565 8.8863 0.1946 -0.3171 5.2380 -5.1807
# 6 -0.1752 -0.1925 0.0892 8.8923 -5.1807 30.6507
#
#
#
# Elastic Compliance Matrix: (Units=1/GPa)
#
#
# Indices 1 2 3 4 5 6 
#
# 1 0.035061 -0.030311 -0.003521 0.082310 0.114752 -0.004463
# 2 -0.030311 0.035459 -0.003986 -0.086102 -0.113588 0.005841
# 3 -0.003521 -0.003986 0.010717 0.003921 -0.001066 -0.001394
# 4 0.082310 -0.086102 0.003921 0.654268 0.173802 -0.160518
# 5 0.114752 -0.113588 -0.001066 0.173802 0.659480 0.060992
# 6 -0.004463 0.005841 -0.001394 -0.160518 0.060992 0.089519
#
#
# Mechanical properties :
#
#
# Convention : Reuss Voigt Hill
#
# Bulk Modulus (GPa) = 178.53046 185.02337 181.77692
# Shear Modulus (GPa) = 3.20101 21.84368 12.52234
#
# Velocity S-wave (km/s) = 1.27369 3.32724 2.51921
# Velocity P-wave (km/s) = 9.62515 10.41786 10.02934
#
# Compressibility (1/GPa) = 0.00560129
#
# Stress axis : x y z
#
# Youngs Moduli (GPa) = 28.52142 28.20137 93.30666
#
# Poissons Ratio (x) = 0.85481 0.32853
# Poissons Ratio (y) = 0.86451 0.37196
# Poissons Ratio (z) = 0.10042 0.11242
#
# Static dielectric constant tensor:
#      x y z
#    x 3.698500 -0.000450 -0.001310 
#    y -0.000450 3.697320 -0.000940 
#    z -0.001310 -0.000940 3.729320 
# 
# 
# High freq. dielectric constant tensor:
#      x y z
#    x 1.776270 0.000000 -0.000090 
#    y 0.000000 1.776320 -0.000010 
#    z -0.000090 -0.000010 1.773110 
# 
# From -- ./inp_files/375.got.cif
#   From: 2010.03.12/outbox.cif.g09.slc.cpg/sg148_1_cif.got.tgz:375.got - 2010.04.03 13:38:46.
