data_PCOD8321070
_publ_section_title
;
Structure prediction by ZEFSAII (Michael W. Deem and Ramdas Pophale) SiO2 
 PCOD8321070
Probable space group: I 41/A C D
;
_chemical_formula_sum "Si O2"
_cell_formula_units_Z 160
_cell_length_a 17.777222
_cell_length_b 17.777222
_cell_length_c 28.541319
_cell_angle_alpha 90.000000
_cell_angle_beta 90.000000
_cell_angle_gamma 90.000000
_cell_volume 9019.902256
_symmetry_space_group_name_H-M "I 41/A C D"
_symmetry_group_IT_number 142
_space_group.IT_coordinate_system_code '2'
_symmetry_cell_setting 'tetragonal'
loop_
_space_group_symop_operation_xyz
x,y,z
1/4-y,3/4+x,1/4+z
-x,1/2-y,z
1/4+y,1/4-x,3/4+z
x,-y,1/2-z
1/2-x,y,-z
3/4+y,1/4+x,1/4-z
1/4-y,1/4-x,1/4-z
-x,-y,-z
3/4+y,1/4-x,3/4-z
x,1/2+y,-z
3/4-y,3/4+x,1/4-z
-x,y,1/2+z
1/2+x,-y,z
1/4-y,3/4-x,3/4+z
3/4+y,3/4+x,3/4+z
1/2+x,1/2+y,1/2+z
3/4-y,1/4+x,3/4+z
1/2-x,-y,1/2+z
3/4+y,3/4-x,1/4+z
1/2+x,1/2-y,-z
-x,1/2+y,1/2-z
1/4+y,3/4+x,3/4-z
3/4-y,3/4-x,3/4-z
1/2-x,1/2-y,1/2-z
1/4+y,3/4-x,1/4-z
1/2+x,y,1/2-z
1/4-y,1/4+x,3/4-z
1/2-x,1/2+y,z
x,1/2-y,1/2+z
3/4-y,1/4-x,1/4+z
1/4+y,1/4+x,1/4+z
loop_
_atom_site_type_symbol
_atom_site_label
_atom_site_fract_x
_atom_site_fract_y
_atom_site_fract_z
Si Si1 0.512321 0.472368 0.448092
Si Si2 0.262375 0.385896 0.126527
Si Si3 0.721571 0.233915 0.947893
Si Si4 0.759581 0.364455 0.123471
Si Si5 0.561535 0.313082 0.427580
O O1 0.500000 0.500000 0.500000
O O2 0.584831 0.510056 0.423323
O O3 0.437032 0.489397 0.419356
O O4 0.525905 0.383859 0.453297
O O5 0.192220 0.442220 0.125000
O O6 0.261859 0.333380 0.080487
O O7 0.340088 0.431639 0.127433
O O8 0.735183 0.313487 0.922755
O O9 0.633555 0.218093 0.954069
O O10 0.750000 0.239178 0.000000
O O11 0.830800 0.419201 0.125000
O O12 0.500000 0.250000 0.425728
O O13 0.586599 0.336599 0.375000
#
# Coordination Sequence:
#
# PCOD8321070 Si02
#       5
#    32  32  32  32  32
#     4  11  22  37  59  89 120 152 193 242 294 344
#     4  10  20  39  59  83 117 154 190 237 297 345
#     4  11  22  37  60  87 120 153 193 241 295 343
#     4  10  22  38  60  85 116 151 194 242 287 348
#     4  11  20  38  66  88 114 150 202 249 287 343
#
# _framework density 17.738551999999999
#
# number of rings (size 3 to 8) (size 9 to 14) (size 15 to 20)
#    0.000    1.400    6.000    1.200    2.800    3.200 
#    0.000    4.000    0.000    2.400    0.000    0.000 
#    0.000    0.000    0.000    0.000    0.000    0.000 
#
# Total GULP energy -992125.354433 kJ/mol
# GULP energy per Si atom -12401.566930 kJ/mol
# Density = 1.769818 g / cm^3
# Si number density = 17.738552 Si / 1000 Ang^3
#
#
#
# Elastic Constant Matrix: (Units=GPa)
#
#
# Indices 1 2 3 4 5 6 
#
# 1 133.0638 62.9786 65.5985 0.0000 0.0000 0.0000
# 2 62.9786 133.0622 65.5970 0.0000 0.0000 0.0000
# 3 65.5985 65.5970 168.5650 0.0000 0.0000 0.0000
# 4 0.0000 0.0000 0.0000 27.8537 0.0000 0.0000
# 5 0.0000 0.0000 0.0000 0.0000 27.8511 0.0000
# 6 0.0000 0.0000 0.0000 0.0000 0.0000 39.2394
#
#
#
# Elastic Compliance Matrix: (Units=1/GPa)
#
#
# Indices 1 2 3 4 5 6 
#
# 1 0.010583 -0.003686 -0.002684 0.000000 0.000000 0.000000
# 2 -0.003686 0.010583 -0.002684 0.000000 0.000000 0.000000
# 3 -0.002684 -0.002684 0.008021 0.000000 0.000000 0.000000
# 4 0.000000 0.000000 0.000000 0.035902 0.000000 0.000000
# 5 0.000000 0.000000 0.000000 0.000000 0.035905 0.000000
# 6 0.000000 0.000000 0.000000 0.000000 0.000000 0.025485
#
#
# Mechanical properties :
#
#
# Convention : Reuss Voigt Hill
#
# Bulk Modulus (GPa) = 90.25620 91.44881 90.85251
# Shear Modulus (GPa) = 33.72005 35.02328 34.37167
#
# Velocity S-wave (km/s) = 4.36472 4.44826 4.40669
# Velocity P-wave (km/s) = 8.74030 8.83450 8.78752
#
# Compressibility (1/GPa) = 0.01107957
#
# Stress axis : x y z
#
# Youngs Moduli (GPa) = 94.49266 94.49222 124.66549
#
# Poissons Ratio (x) = 0.34827 0.33462
# Poissons Ratio (y) = 0.34827 0.33460
# Poissons Ratio (z) = 0.25363 0.25362
#
# Static dielectric constant tensor:
#      x y z
#    x 3.401260 0.000000 0.000000 
#    y 0.000000 3.401250 0.000000 
#    z 0.000000 0.000000 3.173920 
# 
# 
# High freq. dielectric constant tensor:
#      x y z
#    x 1.698840 0.000000 0.000000 
#    y 0.000000 1.698840 0.000000 
#    z 0.000000 0.000000 1.674420 
# 
# From -- ./inp_files/11283.got.cif
#   From: 2010.03.12/outbox.cif.g09.slc.cpg/sg142_6_cif.got.tgz:11283.got - 2010.04.03 13:27:16.
