data_PCOD8321797
_publ_section_title
;
Structure prediction by ZEFSAII (Michael W. Deem and Ramdas Pophale) SiO2 
 PCOD8321797
Probable space group: R -3
;
_chemical_formula_sum "Si O2"
_cell_formula_units_Z 66
_cell_length_a 13.644471
_cell_length_b 13.644471
_cell_length_c 20.034122
_cell_angle_alpha 90.000000
_cell_angle_beta 90.000000
_cell_angle_gamma 120.000000
_cell_volume 3230.087976
_symmetry_space_group_name_H-M "R -3"
_symmetry_group_IT_number 148
_symmetry_cell_setting 'hexagonal'
loop_
_space_group_symop_operation_xyz
x,y,z
-y,x-y,z
-x+y,-x,z
-x,-y,-z
y,-x+y,-z
x-y,x,-z
2/3+x,1/3+y,1/3+z
2/3-y,1/3+x-y,1/3+z
2/3-x+y,1/3-x,1/3+z
2/3-x,1/3-y,1/3-z
2/3+y,1/3-x+y,1/3-z
2/3+x-y,1/3+x,1/3-z
1/3+x,2/3+y,2/3+z
1/3-y,2/3+x-y,2/3+z
1/3-x+y,2/3-x,2/3+z
1/3-x,2/3-y,2/3-z
1/3+y,2/3-x+y,2/3-z
1/3+x-y,2/3+x,2/3-z
loop_
_atom_site_type_symbol
_atom_site_label
_atom_site_fract_x
_atom_site_fract_y
_atom_site_fract_z
Si Si1 0.333334 0.666668 0.977772
Si Si2 0.666667 0.333334 0.487367
Si Si3 0.101674 0.475420 0.510110
Si Si4 0.869662 0.571963 0.351446
Si Si5 0.858110 0.573855 0.633940
O O1 0.333334 0.666667 0.899451
O O2 0.433759 0.788776 0.001742
O O3 0.794667 0.406672 0.461626
O O4 0.077539 0.394210 0.573468
O O5 0.145718 0.432099 0.447412
O O6 0.000000 0.500000 0.500000
O O7 0.878609 0.470202 0.317944
O O8 0.947700 0.683818 0.310668
O O9 0.833334 0.666667 0.666667
#
# Coordination Sequence:
#
# PCOD8321797 Si02
#       5
#     6   6  18  18  18
#     4   9  21  45  63  89 131 171 216 256 326 403
#     4   9  21  39  64  85 124 169 201 262 329 397
#     4  11  23  41  64  93 132 172 220 276 343 394
#     4  12  24  39  64  98 133 167 220 284 341 396
#     4  11  24  41  68  93 129 180 224 266 332 417
#
# _framework density 20.432880999999998
#
# number of rings (size 3 to 8) (size 9 to 14) (size 15 to 20)
#    0.000    1.091    2.727    3.545    7.636    0.000 
#    0.000    0.000    0.000    1.636    0.000    0.000 
#    0.000    0.000    0.000    0.000    0.000    0.000 
#
# Total GULP energy -272621.479053 kJ/mol
# GULP energy per Si atom -12391.885411 kJ/mol
# Density = 2.038638 g / cm^3
# Si number density = 20.432881 Si / 1000 Ang^3
#
#
#
# Elastic Constant Matrix: (Units=GPa)
#
#
# Indices 1 2 3 4 5 6 
#
# 1 120.8399 35.0999 16.7375 2.0164 6.2675 0.0002
# 2 35.0999 120.8410 16.7375 -2.0159 -6.2672 0.0008
# 3 16.7375 16.7375 98.4050 0.0001 -0.0002 0.0000
# 4 2.0164 -2.0159 0.0001 31.0991 0.0000 -6.2675
# 5 6.2675 -6.2672 -0.0002 0.0000 31.0993 2.0161
# 6 0.0002 0.0008 0.0000 -6.2675 2.0161 42.8703
#
#
#
# Elastic Compliance Matrix: (Units=1/GPa)
#
#
# Indices 1 2 3 4 5 6 
#
# 1 0.009355 -0.002700 -0.001132 -0.000782 -0.002429 0.000000
# 2 -0.002700 0.009355 -0.001132 0.000781 0.002429 0.000000
# 3 -0.001132 -0.001132 0.010547 0.000000 0.000000 0.000000
# 4 -0.000782 0.000781 0.000000 0.033236 0.000000 0.004859
# 5 -0.002429 0.002429 0.000000 0.000000 0.033236 -0.001563
# 6 0.000000 0.000000 0.000000 0.004859 -0.001563 0.024110
#
#
# Mechanical properties :
#
#
# Convention : Reuss Voigt Hill
#
# Bulk Modulus (GPa) = 51.73200 53.02619 52.37910
# Shear Modulus (GPa) = 36.70793 39.11447 37.91120
#
# Velocity S-wave (km/s) = 4.24313 4.38001 4.31211
# Velocity P-wave (km/s) = 7.02698 7.18241 7.10512
#
# Compressibility (1/GPa) = 0.01933039
#
# Stress axis : x y z
#
# Youngs Moduli (GPa) = 106.88987 106.89116 94.81205
#
# Poissons Ratio (x) = 0.28857 0.10733
# Poissons Ratio (y) = 0.28856 0.10733
# Poissons Ratio (z) = 0.12101 0.12101
#
# Static dielectric constant tensor:
#      x y z
#    x 4.023480 0.000000 0.000000 
#    y 0.000000 4.023480 -0.000010 
#    z 0.000000 -0.000010 3.963820 
# 
# 
# High freq. dielectric constant tensor:
#      x y z
#    x 1.803340 0.000000 0.000000 
#    y 0.000000 1.803340 0.000000 
#    z 0.000000 0.000000 1.800890 
# 
# From -- ./inp_files/3021.got.cif
#   From: 2010.03.12/outbox.cif.g09.slc.cpg/sg148_2_cif.got.tgz:3021.got - 2010.04.03 13:38:46.
