data_PCOD8321779
_publ_section_title
;
Structure prediction by ZEFSAII (Michael W. Deem and Ramdas Pophale) SiO2 
 PCOD8321779
Probable space group: R -3
;
_chemical_formula_sum "Si O2"
_cell_formula_units_Z 54
_cell_length_a 14.009936
_cell_length_b 14.009936
_cell_length_c 12.315740
_cell_angle_alpha 90.000000
_cell_angle_beta 90.000000
_cell_angle_gamma 120.000000
_cell_volume 2093.454115
_symmetry_space_group_name_H-M "R -3"
_symmetry_group_IT_number 148
_symmetry_cell_setting 'hexagonal'
loop_
_space_group_symop_operation_xyz
x,y,z
-y,x-y,z
-x+y,-x,z
-x,-y,-z
y,-x+y,-z
x-y,x,-z
2/3+x,1/3+y,1/3+z
2/3-y,1/3+x-y,1/3+z
2/3-x+y,1/3-x,1/3+z
2/3-x,1/3-y,1/3-z
2/3+y,1/3-x+y,1/3-z
2/3+x-y,1/3+x,1/3-z
1/3+x,2/3+y,2/3+z
1/3-y,2/3+x-y,2/3+z
1/3-x+y,2/3-x,2/3+z
1/3-x,2/3-y,2/3-z
1/3+y,2/3-x+y,2/3-z
1/3+x-y,2/3+x,2/3-z
loop_
_atom_site_type_symbol
_atom_site_label
_atom_site_fract_x
_atom_site_fract_y
_atom_site_fract_z
Si Si1 0.114506 0.447840 0.916667
Si Si2 0.213668 0.076895 0.551029
Si Si3 0.452999 0.196560 0.282305
O O1 0.208087 0.476665 0.826709
O O2 0.095897 0.334816 0.968719
O O3 0.001482 0.429230 0.864614
O O4 0.143332 0.541420 0.006625
O O5 0.185529 0.131010 0.448251
O O6 0.481138 0.278815 0.385082
#
# Coordination Sequence:
#
# PCOD8321779 Si02
#       3
#    18  18  18
#     4  10  26  48  80 116 168 208 266 340 410 466
#     4  11  25  48  77 118 157 212 267 328 403 485
#     4  11  25  48  77 118 157 212 267 328 403 485
#
# _framework density 25.794688000000001
#
# number of rings (size 3 to 8) (size 9 to 14) (size 15 to 20)
#    0.000    1.333    0.000    2.667    9.333    2.667 
#    0.000    0.000    0.000    0.000    0.000    0.000 
#    0.000    0.000    0.000    0.000    0.000    0.000 
#
# Total GULP energy -223072.475131 kJ/mol
# GULP energy per Si atom -12392.915285 kJ/mol
# Density = 2.573598 g / cm^3
# Si number density = 25.794688 Si / 1000 Ang^3
#
#
#
# Elastic Constant Matrix: (Units=GPa)
#
#
# Indices 1 2 3 4 5 6 
#
# 1 193.9209 85.8967 70.8279 -11.1259 0.0000 0.0000
# 2 85.8967 193.9209 70.8279 11.1259 0.0000 0.0000
# 3 70.8279 70.8279 104.1372 0.0000 0.0000 0.0000
# 4 -11.1259 11.1259 0.0000 43.0696 0.0000 0.0000
# 5 0.0000 0.0000 0.0000 0.0000 43.0696 -11.1259
# 6 0.0000 0.0000 0.0000 0.0000 -11.1259 54.0121
#
#
#
# Elastic Compliance Matrix: (Units=1/GPa)
#
#
# Indices 1 2 3 4 5 6 
#
# 1 0.007614 -0.002164 -0.003707 0.002526 0.000000 0.000000
# 2 -0.002164 0.007614 -0.003707 -0.002526 0.000000 0.000000
# 3 -0.003707 -0.003707 0.014645 0.000000 0.000000 0.000000
# 4 0.002526 -0.002526 0.000000 0.024523 0.000000 0.000000
# 5 0.000000 0.000000 0.000000 0.000000 0.024523 0.005051
# 6 0.000000 0.000000 0.000000 0.000000 0.005051 0.019555
#
#
# Mechanical properties :
#
#
# Convention : Reuss Voigt Hill
#
# Bulk Modulus (GPa) = 93.30113 105.23157 99.26635
# Shear Modulus (GPa) = 41.25333 45.65870 43.45602
#
# Velocity S-wave (km/s) = 4.00346 4.21180 4.10895
# Velocity P-wave (km/s) = 7.59075 8.03347 7.81525
#
# Compressibility (1/GPa) = 0.01071798
#
# Stress axis : x y z
#
# Youngs Moduli (GPa) = 131.33796 131.33796 68.28103
#
# Poissons Ratio (x) = 0.28415 0.25312
# Poissons Ratio (y) = 0.28415 0.25312
# Poissons Ratio (z) = 0.48688 0.48688
#
# Static dielectric constant tensor:
#      x y z
#    x 4.910180 0.000000 0.000000 
#    y 0.000000 4.910180 0.000000 
#    z 0.000000 0.000000 4.435130 
# 
# 
# High freq. dielectric constant tensor:
#      x y z
#    x 2.048280 0.000000 0.000000 
#    y 0.000000 2.048280 0.000000 
#    z 0.000000 0.000000 2.026380 
# 
# From -- ./inp_files/1779.got.cif
#   From: 2010.03.12/outbox.cif.g09.slc.cpg/sg148_1_cif.got.tgz:1779.got - 2010.04.03 13:38:46.
