data_PCOD8321882
_publ_section_title
;
Structure prediction by ZEFSAII (Michael W. Deem and Ramdas Pophale) SiO2 
 PCOD8321882
Probable space group: P 3 2 1
;
_chemical_formula_sum "Si O2"
_cell_formula_units_Z 48
_cell_length_a 13.068478
_cell_length_b 13.068478
_cell_length_c 19.933679
_cell_angle_alpha 90.000000
_cell_angle_beta 90.000000
_cell_angle_gamma 120.000000
_cell_volume 2948.275845
_symmetry_space_group_name_H-M "P 3 2 1"
_symmetry_group_IT_number 150
_symmetry_cell_setting 'hexagonal'
loop_
_space_group_symop_operation_xyz
x,y,z
-y,x-y,z
-x+y,-x,z
x-y,-y,-z
-x,-x+y,-z
y,x,-z
loop_
_atom_site_type_symbol
_atom_site_label
_atom_site_fract_x
_atom_site_fract_y
_atom_site_fract_z
Si Si1 0.667268 0.097303 0.550704
Si Si2 0.097264 0.666452 0.296396
Si Si3 0.426347 0.093133 0.186172
Si Si4 0.234587 0.234441 0.076904
Si Si5 0.765413 0.765559 0.923096
Si Si6 0.569188 0.666452 0.296396
Si Si7 0.332732 0.902697 0.449296
Si Si8 0.426347 0.333213 0.186172
O O1 0.667844 0.058024 0.627209
O O2 0.559699 0.119399 0.537037
O O3 0.783324 0.216676 0.532806
O O4 0.662858 0.000000 0.500000
O O5 0.208539 0.791461 0.275754
O O6 0.135092 0.567546 0.286586
O O7 0.985883 0.639349 0.250769
O O8 0.441976 0.220988 0.198365
O O9 0.553761 0.107522 0.174511
O O10 0.348288 0.029279 0.120961
O O11 0.360651 0.014117 0.250769
O O12 0.126018 0.252037 0.098528
O O13 0.348288 0.319009 0.120961
O O14 0.194850 0.097425 0.087985
O O15 0.271086 0.271086 0.000000
O O16 0.728914 0.728914 0.000000
O O17 0.609820 0.667844 0.372791
O O18 0.337142 0.000000 0.500000
#
# Coordination Sequence:
#
# PCOD8321882 Si02
#       8
#     6   6   6   6   6   6   6   6
#     4   9  17  29  46  68  92 118 148 183 223 264
#     4   9  17  30  48  68  89 114 147 188 229 265
#     4  10  20  32  46  65  92 124 153 181 217 266
#     4   9  17  30  49  71  92 115 147 189 232 268
#     4   9  17  30  49  71  92 115 147 189 232 268
#     4   9  17  30  48  68  89 114 147 188 229 265
#     4   9  17  29  46  68  92 118 148 183 223 264
#     4  10  20  32  46  65  92 124 153 181 217 266
#
# _framework density 16.280702999999999
#
# number of rings (size 3 to 8) (size 9 to 14) (size 15 to 20)
#    0.000    2.750    0.000    1.750    0.000    4.500 
#    0.000    0.000    0.000    4.250    0.000    0.000 
#    0.000    0.000    0.000    0.000    0.000    0.000 
#
# Total GULP energy -595238.816945 kJ/mol
# GULP energy per Si atom -12400.808686 kJ/mol
# Density = 1.624365 g / cm^3
# Si number density = 16.280703 Si / 1000 Ang^3
#
#
#
# Elastic Constant Matrix: (Units=GPa)
#
#
# Indices 1 2 3 4 5 6 
#
# 1 110.2049 63.4829 68.1653 -0.2733 0.0000 0.0000
# 2 63.4829 110.2049 68.1653 0.2733 0.0000 0.0000
# 3 68.1653 68.1653 100.8324 0.0000 0.0000 0.0000
# 4 -0.2733 0.2733 0.0000 27.0329 0.0000 0.0000
# 5 0.0000 0.0000 0.0000 0.0000 27.0329 -0.2733
# 6 0.0000 0.0000 0.0000 0.0000 -0.2733 23.3610
#
#
#
# Elastic Compliance Matrix: (Units=1/GPa)
#
#
# Indices 1 2 3 4 5 6 
#
# 1 0.016836 -0.004570 -0.008292 0.000216 0.000000 0.000000
# 2 -0.004570 0.016836 -0.008292 -0.000216 0.000000 0.000000
# 3 -0.008292 -0.008292 0.021129 0.000000 0.000000 0.000000
# 4 0.000216 -0.000216 0.000000 0.036996 0.000000 0.000000
# 5 0.000000 0.000000 0.000000 0.000000 0.036996 0.000433
# 6 0.000000 0.000000 0.000000 0.000000 0.000433 0.042811
#
#
# Mechanical properties :
#
#
# Convention : Reuss Voigt Hill
#
# Bulk Modulus (GPa) = 80.04895 80.09655 80.07275
# Shear Modulus (GPa) = 22.92760 23.58060 23.25410
#
# Velocity S-wave (km/s) = 3.75676 3.80988 3.78342
# Velocity P-wave (km/s) = 8.25181 8.28599 8.26892
#
# Compressibility (1/GPa) = 0.01249236
#
# Stress axis : x y z
#
# Youngs Moduli (GPa) = 59.39669 59.39669 47.32828
#
# Poissons Ratio (x) = 0.27143 0.39246
# Poissons Ratio (y) = 0.27143 0.39246
# Poissons Ratio (z) = 0.49253 0.49253
#
# Static dielectric constant tensor:
#      x y z
#    x 3.018630 0.000000 0.000000 
#    y 0.000000 3.018630 0.000000 
#    z 0.000000 0.000000 3.207360 
# 
# 
# High freq. dielectric constant tensor:
#      x y z
#    x 1.622150 0.000000 0.000000 
#    y 0.000000 1.622150 0.000000 
#    z 0.000000 0.000000 1.632050 
# 
# From -- ./inp_files/1150.got.cif
#   From: 2010.03.12/outbox.cif.g09.slc.cpg/sg150_cif.got.tgz:1150.got - 2010.04.03 13:41:37.
