data_PCOD8321206
_publ_section_title
;
Structure prediction by ZEFSAII (Michael W. Deem and Ramdas Pophale) SiO2 
 PCOD8321206
Probable space group: I 41/A C D
;
_chemical_formula_sum "Si O2"
_cell_formula_units_Z 136
_cell_length_a 22.329043
_cell_length_b 22.329043
_cell_length_c 12.438598
_cell_angle_alpha 90.000000
_cell_angle_beta 90.000000
_cell_angle_gamma 90.000000
_cell_volume 6201.712829
_symmetry_space_group_name_H-M "I 41/A C D"
_symmetry_group_IT_number 142
_space_group.IT_coordinate_system_code '2'
_symmetry_cell_setting 'tetragonal'
loop_
_space_group_symop_operation_xyz
x,y,z
1/4-y,3/4+x,1/4+z
-x,1/2-y,z
1/4+y,1/4-x,3/4+z
x,-y,1/2-z
1/2-x,y,-z
3/4+y,1/4+x,1/4-z
1/4-y,1/4-x,1/4-z
-x,-y,-z
3/4+y,1/4-x,3/4-z
x,1/2+y,-z
3/4-y,3/4+x,1/4-z
-x,y,1/2+z
1/2+x,-y,z
1/4-y,3/4-x,3/4+z
3/4+y,3/4+x,3/4+z
1/2+x,1/2+y,1/2+z
3/4-y,1/4+x,3/4+z
1/2-x,-y,1/2+z
3/4+y,3/4-x,1/4+z
1/2+x,1/2-y,-z
-x,1/2+y,1/2-z
1/4+y,3/4+x,3/4-z
3/4-y,3/4-x,3/4-z
1/2-x,1/2-y,1/2-z
1/4+y,3/4-x,1/4-z
1/2+x,y,1/2-z
1/4-y,1/4+x,3/4-z
1/2-x,1/2+y,z
x,1/2-y,1/2+z
3/4-y,1/4-x,1/4+z
1/4+y,1/4+x,1/4+z
loop_
_atom_site_type_symbol
_atom_site_label
_atom_site_fract_x
_atom_site_fract_y
_atom_site_fract_z
Si Si1 0.110332 0.046216 0.155216
Si Si2 0.500000 0.250000 0.625000
Si Si3 0.818207 0.160151 0.022861
Si Si4 0.526347 0.374288 0.705495
Si Si5 0.814139 0.155787 0.267582
O O1 0.171412 0.078589 0.125000
O O2 0.061527 0.095792 0.192908
O O3 0.124056 0.000000 0.250000
O O4 0.092042 0.006165 0.051261
O O5 0.528367 0.301705 0.702343
O O6 0.825195 0.177838 0.147347
O O7 0.750000 0.168517 0.000000
O O8 0.857258 0.207307 0.957100
O O9 0.839021 0.093989 0.983327
O O10 0.551617 0.398396 0.594087
#
# Coordination Sequence:
#
# PCOD8321206 Si02
#       5
#    32   8  32  32  32
#     4  10  24  44  69 102 139 185 235 290 358 425
#     4  12  24  44  78  96 144 182 240 308 338 440
#     4  11  24  42  70  97 136 189 225 288 363 419
#     4  11  24  46  68 100 139 183 232 297 358 419
#     4  10  24  44  64 104 139 171 240 288 346 435
#
# _framework density 21.929424999999998
#
# number of rings (size 3 to 8) (size 9 to 14) (size 15 to 20)
#    0.000    1.412    2.353    2.118    6.588    6.588 
#    0.000    1.176    0.000    0.000    0.000    0.000 
#    0.000    0.000    0.000    0.000    0.000    0.000 
#
# Total GULP energy -842710.771482 kJ/mol
# GULP energy per Si atom -12392.805463 kJ/mol
# Density = 2.187951 g / cm^3
# Si number density = 21.929425 Si / 1000 Ang^3
#
#
#
# Elastic Constant Matrix: (Units=GPa)
#
#
# Indices 1 2 3 4 5 6 
#
# 1 126.2893 56.1582 46.1299 0.0000 0.0000 0.0000
# 2 56.1582 126.2939 46.1322 0.0000 0.0000 0.0000
# 3 46.1299 46.1322 94.8049 0.0000 0.0000 0.0000
# 4 0.0000 0.0000 0.0000 28.3663 0.0000 0.0000
# 5 0.0000 0.0000 0.0000 0.0000 28.3623 0.0000
# 6 0.0000 0.0000 0.0000 0.0000 0.0000 41.0247
#
#
#
# Elastic Compliance Matrix: (Units=1/GPa)
#
#
# Indices 1 2 3 4 5 6 
#
# 1 0.010764 -0.003494 -0.003537 0.000000 0.000000 0.000000
# 2 -0.003494 0.010764 -0.003538 0.000000 0.000000 0.000000
# 3 -0.003537 -0.003538 0.013990 0.000000 0.000000 0.000000
# 4 0.000000 0.000000 0.000000 0.035253 0.000000 0.000000
# 5 0.000000 0.000000 0.000000 0.000000 0.035258 0.000000
# 6 0.000000 0.000000 0.000000 0.000000 0.000000 0.024376
#
#
# Mechanical properties :
#
#
# Convention : Reuss Voigt Hill
#
# Bulk Modulus (GPa) = 69.53880 71.58096 70.55988
# Shear Modulus (GPa) = 31.98212 32.81518 32.39865
#
# Velocity S-wave (km/s) = 3.82306 3.87253 3.84787
# Velocity P-wave (km/s) = 7.16008 7.26001 7.21022
#
# Compressibility (1/GPa) = 0.01438046
#
# Stress axis : x y z
#
# Youngs Moduli (GPa) = 92.89998 92.90197 71.47712
#
# Poissons Ratio (x) = 0.32464 0.25283
# Poissons Ratio (y) = 0.32463 0.25285
# Poissons Ratio (z) = 0.32861 0.32864
#
# Static dielectric constant tensor:
#      x y z
#    x 3.828350 0.000000 0.000000 
#    y 0.000000 3.828370 0.000000 
#    z 0.000000 0.000000 8.888150 
# 
# 
# High freq. dielectric constant tensor:
#      x y z
#    x 1.865030 0.000000 0.000000 
#    y 0.000000 1.865030 0.000000 
#    z 0.000000 0.000000 1.862950 
# 
# From -- ./inp_files/3603.got.cif
#   From: 2010.03.12/outbox.cif.g09.slc.cpg/sg142_2_cif.got.tgz:3603.got - 2010.04.03 13:27:16.
