data_PCOD8321565
_publ_section_title
;
Structure prediction by ZEFSAII (Michael W. Deem and Ramdas Pophale) SiO2 
 PCOD8321565
Probable space group: R 3
;
_chemical_formula_sum "Si O2"
_cell_formula_units_Z 45
_cell_length_a 14.221845
_cell_length_b 14.221845
_cell_length_c 11.044158
_cell_angle_alpha 90.000000
_cell_angle_beta 90.000000
_cell_angle_gamma 120.000000
_cell_volume 1934.528468
_symmetry_space_group_name_H-M "R 3"
_symmetry_group_IT_number 146
_symmetry_cell_setting 'hexagonal'
loop_
_space_group_symop_operation_xyz
x,y,z
-y,x-y,z
-x+y,-x,z
2/3+x,1/3+y,1/3+z
2/3-y,1/3+x-y,1/3+z
2/3-x+y,1/3-x,1/3+z
1/3+x,2/3+y,2/3+z
1/3-y,2/3+x-y,2/3+z
1/3-x+y,2/3-x,2/3+z
loop_
_atom_site_type_symbol
_atom_site_label
_atom_site_fract_x
_atom_site_fract_y
_atom_site_fract_z
Si Si1 0.521680 0.399226 0.144000
Si Si2 0.207104 0.479598 0.228108
Si Si3 0.090272 0.457101 0.877952
Si Si4 0.499324 0.594626 0.600548
Si Si5 0.147187 0.209769 0.426008
O O1 0.618855 0.498592 0.214339
O O2 0.470587 0.288773 0.220064
O O3 0.428059 0.428201 0.115750
O O4 0.566159 0.385325 0.015187
O O5 0.096240 0.368257 0.250354
O O6 0.171888 0.567570 0.203231
O O7 0.265868 0.461817 0.109462
O O8 0.112262 0.504982 0.744185
O O9 0.124408 0.364973 0.896297
O O10 0.148298 0.560757 0.968094
#
# Coordination Sequence:
#
# PCOD8321565 Si02
#       5
#     9   9   9   9   9
#     4  11  26  41  76 111 146 199 255 314 378 457
#     4  11  22  45  70 108 147 197 252 301 378 448
#     4  11  24  46  75 105 159 200 240 317 401 434
#     4  12  24  48  73 109 155 197 254 318 386 459
#     4  11  24  44  74 109 145 201 253 312 373 462
#
# _framework density 23.261483999999999
#
# number of rings (size 3 to 8) (size 9 to 14) (size 15 to 20)
#    0.000    0.800    4.000    3.200    2.800    4.800 
#    0.000    0.000    0.000    0.000    0.000    0.000 
#    0.000    0.000    0.000    0.000    0.000    0.000 
#
# Total GULP energy -185939.581103 kJ/mol
# GULP energy per Si atom -12395.972074 kJ/mol
# Density = 2.320854 g / cm^3
# Si number density = 23.261484 Si / 1000 Ang^3
#
#
#
# Elastic Constant Matrix: (Units=GPa)
#
#
# Indices 1 2 3 4 5 6 
#
# 1 66.4820 -4.6552 33.3011 0.6780 -1.5389 0.0000
# 2 -4.6552 66.4820 33.3011 -0.6780 1.5389 0.0000
# 3 33.3011 33.3011 166.1988 0.0000 0.0000 0.0000
# 4 0.6780 -0.6780 0.0000 32.8446 0.0000 1.5389
# 5 -1.5389 1.5389 0.0000 0.0000 32.8446 0.6780
# 6 0.0000 0.0000 0.0000 1.5389 0.6780 35.5686
#
#
#
# Elastic Compliance Matrix: (Units=1/GPa)
#
#
# Indices 1 2 3 4 5 6 
#
# 1 0.017359 0.003267 -0.004133 -0.000291 0.000660 0.000000
# 2 0.003267 0.017359 -0.004133 0.000291 -0.000660 0.000000
# 3 -0.004133 -0.004133 0.007673 0.000000 0.000000 0.000000
# 4 -0.000291 0.000291 0.000000 0.030520 0.000000 -0.001321
# 5 0.000660 -0.000660 0.000000 0.000000 0.030520 -0.000582
# 6 0.000000 0.000000 0.000000 -0.001321 -0.000582 0.028183
#
#
# Mechanical properties :
#
#
# Convention : Reuss Voigt Hill
#
# Bulk Modulus (GPa) = 30.86972 47.00633 38.93803
# Shear Modulus (GPa) = 32.80645 36.06595 34.43620
#
# Velocity S-wave (km/s) = 3.75952 3.94186 3.85177
# Velocity P-wave (km/s) = 5.66964 6.40073 6.04624
#
# Compressibility (1/GPa) = 0.03239420
#
# Stress axis : x y z
#
# Youngs Moduli (GPa) = 57.60738 57.60738 130.32548
#
# Poissons Ratio (x) = -0.18823 0.53862
# Poissons Ratio (y) = -0.18823 0.53862
# Poissons Ratio (z) = 0.23808 0.23808
#
# Static dielectric constant tensor:
#      x y z
#    x 4.086960 0.000000 0.000000 
#    y 0.000000 4.086960 0.000000 
#    z 0.000000 0.000000 4.412560 
# 
# 
# High freq. dielectric constant tensor:
#      x y z
#    x 1.919310 0.000000 0.000000 
#    y 0.000000 1.919310 0.000000 
#    z 0.000000 0.000000 1.931420 
# 
# From -- ./inp_files/1063.got.cif
#   From: 2010.06.25/outbox.cif.g09.slc.cpg/sg146_cif.got.tgz:1063.got - 2010.06.28 11:17:22.
