data_PCOD8321144
_publ_section_title
;
Structure prediction by ZEFSAII (Michael W. Deem and Ramdas Pophale) SiO2 
 PCOD8321144
Probable space group: I 41/A C D
;
_chemical_formula_sum "Si O2"
_cell_formula_units_Z 144
_cell_length_a 20.865073
_cell_length_b 20.865073
_cell_length_c 15.797922
_cell_angle_alpha 90.000000
_cell_angle_beta 90.000000
_cell_angle_gamma 90.000000
_cell_volume 6877.645427
_symmetry_space_group_name_H-M "I 41/A C D"
_symmetry_group_IT_number 142
_space_group.IT_coordinate_system_code '2'
_symmetry_cell_setting 'tetragonal'
loop_
_space_group_symop_operation_xyz
x,y,z
1/4-y,3/4+x,1/4+z
-x,1/2-y,z
1/4+y,1/4-x,3/4+z
x,-y,1/2-z
1/2-x,y,-z
3/4+y,1/4+x,1/4-z
1/4-y,1/4-x,1/4-z
-x,-y,-z
3/4+y,1/4-x,3/4-z
x,1/2+y,-z
3/4-y,3/4+x,1/4-z
-x,y,1/2+z
1/2+x,-y,z
1/4-y,3/4-x,3/4+z
3/4+y,3/4+x,3/4+z
1/2+x,1/2+y,1/2+z
3/4-y,1/4+x,3/4+z
1/2-x,-y,1/2+z
3/4+y,3/4-x,1/4+z
1/2+x,1/2-y,-z
-x,1/2+y,1/2-z
1/4+y,3/4+x,3/4-z
3/4-y,3/4-x,3/4-z
1/2-x,1/2-y,1/2-z
1/4+y,3/4-x,1/4-z
1/2+x,y,1/2-z
1/4-y,1/4+x,3/4-z
1/2-x,1/2+y,z
x,1/2-y,1/2+z
3/4-y,1/4-x,1/4+z
1/4+y,1/4+x,1/4+z
loop_
_atom_site_type_symbol
_atom_site_label
_atom_site_fract_x
_atom_site_fract_y
_atom_site_fract_z
Si Si1 0.488382 0.065044 0.392080
Si Si2 0.894512 0.144512 0.625000
Si Si3 0.266803 0.887193 0.090105
Si Si4 0.467823 0.927648 0.922524
Si Si5 0.613086 0.892384 0.935925
O O1 0.529844 0.127223 0.362885
O O2 0.435328 0.043163 0.324650
O O3 0.449559 0.080959 0.478740
O O4 0.535539 0.003921 0.404145
O O5 0.873182 0.110318 0.537241
O O6 0.325830 0.924170 0.125000
O O7 0.206885 0.895797 0.152807
O O8 0.250000 0.916487 0.000000
O O9 0.538185 0.896528 0.912192
O O10 0.419487 0.891686 0.860551
#
# Coordination Sequence:
#
# PCOD8321144 Si02
#       5
#    32  16  32  32  32
#     4   9  20  39  62  91 126 168 210 266 318 384
#     4  10  22  38  65 100 120 158 226 260 322 377
#     4  11  24  43  65  92 130 175 213 259 333 395
#     4   9  19  39  63  89 129 167 210 261 326 376
#     4  10  22  40  66  94 126 170 211 272 323 387
#
# _framework density 20.937398000000002
#
# number of rings (size 3 to 8) (size 9 to 14) (size 15 to 20)
#    0.000    2.222    0.000    2.667    6.222    0.444 
#    8.000    0.556    0.000    0.000    0.000    0.000 
#    0.000    0.000    0.000    0.000    0.000    0.000 
#
# Total GULP energy -892136.643010 kJ/mol
# GULP energy per Si atom -12390.786708 kJ/mol
# Density = 2.088974 g / cm^3
# Si number density = 20.937398 Si / 1000 Ang^3
#
#
#
# Elastic Constant Matrix: (Units=GPa)
#
#
# Indices 1 2 3 4 5 6 
#
# 1 72.2200 62.0825 45.6495 0.0000 0.0000 0.0000
# 2 62.0825 72.2355 45.6545 0.0000 0.0000 0.0000
# 3 45.6495 45.6545 119.7479 0.0000 0.0000 0.0000
# 4 0.0000 0.0000 0.0000 30.2163 0.0000 0.0000
# 5 0.0000 0.0000 0.0000 0.0000 30.2147 0.0000
# 6 0.0000 0.0000 0.0000 0.0000 0.0000 22.1517
#
#
#
# Elastic Compliance Matrix: (Units=1/GPa)
#
#
# Indices 1 2 3 4 5 6 
#
# 1 0.054315 -0.044259 -0.003832 0.000000 0.000000 0.000000
# 2 -0.044259 0.054303 -0.003831 0.000000 0.000000 0.000000
# 3 -0.003832 -0.003831 0.011272 0.000000 0.000000 0.000000
# 4 0.000000 0.000000 0.000000 0.033095 0.000000 0.000000
# 5 0.000000 0.000000 0.000000 0.000000 0.033096 0.000000
# 6 0.000000 0.000000 0.000000 0.000000 0.000000 0.045143
#
#
# Mechanical properties :
#
#
# Convention : Reuss Voigt Hill
#
# Bulk Modulus (GPa) = 62.31840 63.44180 62.88010
# Shear Modulus (GPa) = 14.68788 23.90435 19.29611
#
# Velocity S-wave (km/s) = 2.65148 3.38258 3.03910
# Velocity P-wave (km/s) = 6.26120 6.75443 6.51248
#
# Compressibility (1/GPa) = 0.01604663
#
# Stress axis : x y z
#
# Youngs Moduli (GPa) = 18.41122 18.41514 88.71372
#
# Poissons Ratio (x) = 0.81503 0.33991
# Poissons Ratio (y) = 0.81486 0.33989
# Poissons Ratio (z) = 0.07054 0.07055
#
# Static dielectric constant tensor:
#      x y z
#    x 3.733460 0.000000 0.000000 
#    y 0.000000 3.733460 0.000000 
#    z 0.000000 0.000000 3.778150 
# 
# 
# High freq. dielectric constant tensor:
#      x y z
#    x 1.808870 0.000000 0.000000 
#    y 0.000000 1.808870 0.000000 
#    z 0.000000 0.000000 1.830070 
# 
# From -- ./inp_files/7247.got.cif
#   From: 2010.03.12/outbox.cif.g09.slc.cpg/sg142_4_cif.got.tgz:7247.got - 2010.04.03 13:27:16.
