data_PCOD8321742
_publ_section_title
;
Structure prediction by ZEFSAII (Michael W. Deem and Ramdas Pophale) SiO2 
 PCOD8321742
Probable space group: R -3
;
_chemical_formula_sum "Si O2"
_cell_formula_units_Z 72
_cell_length_a 17.349248
_cell_length_b 17.349248
_cell_length_c 13.511071
_cell_angle_alpha 90.000000
_cell_angle_beta 90.000000
_cell_angle_gamma 120.000000
_cell_volume 3521.938095
_symmetry_space_group_name_H-M "R -3"
_symmetry_group_IT_number 148
_symmetry_cell_setting 'hexagonal'
loop_
_space_group_symop_operation_xyz
x,y,z
-y,x-y,z
-x+y,-x,z
-x,-y,-z
y,-x+y,-z
x-y,x,-z
2/3+x,1/3+y,1/3+z
2/3-y,1/3+x-y,1/3+z
2/3-x+y,1/3-x,1/3+z
2/3-x,1/3-y,1/3-z
2/3+y,1/3-x+y,1/3-z
2/3+x-y,1/3+x,1/3-z
1/3+x,2/3+y,2/3+z
1/3-y,2/3+x-y,2/3+z
1/3-x+y,2/3-x,2/3+z
1/3-x,2/3-y,2/3-z
1/3+y,2/3-x+y,2/3-z
1/3+x-y,2/3+x,2/3-z
loop_
_atom_site_type_symbol
_atom_site_label
_atom_site_fract_x
_atom_site_fract_y
_atom_site_fract_z
Si Si1 0.546563 0.408343 0.291216
Si Si2 0.452074 0.516265 0.292366
Si Si3 0.750900 0.952142 0.410949
Si Si4 0.385312 0.879614 0.935476
O O1 0.646055 0.471276 0.327239
O O2 0.483908 0.447438 0.324267
O O3 0.548067 0.404445 0.172659
O O4 0.394236 0.488410 0.192736
O O5 0.540142 0.610940 0.279655
O O6 0.386333 0.516620 0.376402
O O7 0.804464 0.916216 0.346370
O O8 0.647742 0.905629 0.382506
#
# Coordination Sequence:
#
# PCOD8321742 Si02
#       4
#    18  18  18  18
#     4  11  26  45  63  93 133 174 218 261 315 386
#     4  11  21  42  69  96 124 169 214 266 325 384
#     4  10  21  40  64  96 131 160 214 267 322 376
#     4  10  23  41  65  93 131 170 208 272 316 373
#
# _framework density 20.443289
#
# number of rings (size 3 to 8) (size 9 to 14) (size 15 to 20)
#    0.000    1.500    2.500    1.750    3.500    1.000 
#    1.500    1.250    0.000    0.000    0.000    0.000 
#    0.000    0.000    0.000    0.000    0.000    0.000 
#
# Total GULP energy -297701.556483 kJ/mol
# GULP energy per Si atom -12404.231520 kJ/mol
# Density = 2.039676 g / cm^3
# Si number density = 20.443289 Si / 1000 Ang^3
#
#
#
# Elastic Constant Matrix: (Units=GPa)
#
#
# Indices 1 2 3 4 5 6 
#
# 1 97.6430 45.3632 44.1758 -3.5822 -4.5722 0.0000
# 2 45.3632 97.6430 44.1758 3.5822 4.5722 0.0000
# 3 44.1758 44.1758 67.6830 0.0000 0.0000 0.0000
# 4 -3.5822 3.5822 0.0000 31.0549 0.0000 4.5722
# 5 -4.5722 4.5722 0.0000 0.0000 31.0549 -3.5822
# 6 0.0000 0.0000 0.0000 4.5722 -3.5822 26.1399
#
#
#
# Elastic Compliance Matrix: (Units=1/GPa)
#
#
# Indices 1 2 3 4 5 6 
#
# 1 0.015838 -0.004120 -0.007648 0.002302 0.002938 0.000000
# 2 -0.004120 0.015838 -0.007648 -0.002302 -0.002938 0.000000
# 3 -0.007648 -0.007648 0.024758 0.000000 0.000000 0.000000
# 4 0.002302 -0.002302 0.000000 0.033597 0.000000 -0.005877
# 5 0.002938 -0.002938 0.000000 0.000000 0.033597 0.004604
# 6 0.000000 0.000000 0.000000 -0.005877 0.004604 0.039915
#
#
# Mechanical properties :
#
#
# Convention : Reuss Voigt Hill
#
# Bulk Modulus (GPa) = 56.81267 58.93319 57.87293
# Shear Modulus (GPa) = 24.01057 26.26689 25.13873
#
# Velocity S-wave (km/s) = 3.43081 3.58839 3.51049
# Velocity P-wave (km/s) = 6.59884 6.78668 6.69342
#
# Compressibility (1/GPa) = 0.01760171
#
# Stress axis : x y z
#
# Youngs Moduli (GPa) = 63.14113 63.14113 40.39038
#
# Poissons Ratio (x) = 0.26012 0.30891
# Poissons Ratio (y) = 0.26012 0.30891
# Poissons Ratio (z) = 0.48291 0.48291
#
# Static dielectric constant tensor:
#      x y z
#    x 3.674380 0.000000 0.000000 
#    y 0.000000 3.674380 0.000000 
#    z 0.000000 0.000000 3.857920 
# 
# 
# High freq. dielectric constant tensor:
#      x y z
#    x 1.801290 0.000000 0.000000 
#    y 0.000000 1.801290 0.000000 
#    z 0.000000 0.000000 1.803920 
# 
# From -- ./inp_files/1855.got.cif
#   From: 2010.03.12/outbox.cif.g09.slc.cpg/sg148_1_cif.got.tgz:1855.got - 2010.04.03 13:38:46.
