data_PCOD8321626
_publ_section_title
;
Structure prediction by ZEFSAII (Michael W. Deem and Ramdas Pophale) SiO2 
 PCOD8321626
Probable space group: P -3
;
_chemical_formula_sum "Si O2"
_cell_formula_units_Z 36
_cell_length_a 8.738992
_cell_length_b 8.738992
_cell_length_c 26.965401
_cell_angle_alpha 90.000000
_cell_angle_beta 90.000000
_cell_angle_gamma 120.000000
_cell_volume 1783.446962
_symmetry_space_group_name_H-M "P -3"
_symmetry_group_IT_number 147
_symmetry_cell_setting 'hexagonal'
loop_
_space_group_symop_operation_xyz
x,y,z
-y,x-y,z
-x+y,-x,z
-x,-y,-z
y,-x+y,-z
x-y,x,-z
loop_
_atom_site_type_symbol
_atom_site_label
_atom_site_fract_x
_atom_site_fract_y
_atom_site_fract_z
Si Si1 0.662246 0.676108 0.480417
Si Si2 0.334322 0.001242 0.769309
Si Si3 0.676108 0.662247 0.980417
Si Si4 0.320934 0.857398 0.372390
Si Si5 0.463536 0.142602 0.872390
Si Si6 0.998758 0.665679 0.730691
O O1 0.500000 0.500000 0.500000
O O2 0.671938 0.831280 0.513656
O O3 0.639268 0.699039 0.422737
O O4 0.339097 0.014530 0.828984
O O5 0.390993 0.195496 0.750000
O O6 0.140257 0.859743 0.750000
O O7 0.472446 0.944891 0.750000
O O8 0.699039 0.639268 0.922737
O O9 0.500000 0.500000 0.000000
O O10 0.671938 0.840658 0.986344
O O11 0.154471 0.655761 0.369298
O O12 0.324567 0.985470 0.328985
O O13 0.655761 0.154471 0.869299
#
# Coordination Sequence:
#
# PCOD8321626 Si02
#       6
#     6   6   6   6   6   6
#     4  12  24  43  69 106 140 182 233 284 343 410
#     4  12  24  43  69 102 135 178 228 285 342 415
#     4  12  24  43  69 106 140 182 233 284 343 410
#     4  10  20  42  73  95 134 189 226 276 359 402
#     4  10  20  42  73  95 134 189 226 276 359 402
#     4  12  24  43  69 102 135 178 228 285 342 415
#
# _framework density 20.185628999999999
#
# number of rings (size 3 to 8) (size 9 to 14) (size 15 to 20)
#    0.667    0.000    6.667    2.000    0.000    5.333 
#    0.000    0.000    0.000    0.000    0.000    0.000 
#    0.000    0.000    0.000    0.000    0.000    0.000 
#
# Total GULP energy -446447.728164 kJ/mol
# GULP energy per Si atom -12401.325782 kJ/mol
# Density = 2.013969 g / cm^3
# Si number density = 20.185629 Si / 1000 Ang^3
#
#
#
# Elastic Constant Matrix: (Units=GPa)
#
#
# Indices 1 2 3 4 5 6 
#
# 1 114.7978 40.3595 50.0363 0.0000 -1.4492 0.0000
# 2 40.3595 114.7978 50.0363 0.0000 1.4492 0.0000
# 3 50.0363 50.0363 196.7273 0.0000 0.0000 0.0000
# 4 0.0000 0.0000 0.0000 38.8246 0.0000 1.4492
# 5 -1.4492 1.4492 0.0000 0.0000 38.8246 0.0000
# 6 0.0000 0.0000 0.0000 1.4492 0.0000 37.2192
#
#
#
# Elastic Compliance Matrix: (Units=1/GPa)
#
#
# Indices 1 2 3 4 5 6 
#
# 1 0.010582 -0.002872 -0.001961 0.000000 0.000502 0.000000
# 2 -0.002872 0.010582 -0.001961 0.000000 -0.000502 0.000000
# 3 -0.001961 -0.001961 0.006081 0.000000 0.000000 0.000000
# 4 0.000000 0.000000 0.000000 0.025794 0.000000 -0.001004
# 5 0.000502 -0.000502 0.000000 0.000000 0.025794 0.000000
# 6 0.000000 0.000000 0.000000 -0.001004 0.000000 0.026907
#
#
# Mechanical properties :
#
#
# Convention : Reuss Voigt Hill
#
# Bulk Modulus (GPa) = 73.22482 78.57634 75.90058
# Shear Modulus (GPa) = 40.36188 42.03308 41.19748
#
# Velocity S-wave (km/s) = 4.47647 4.56820 4.52257
# Velocity P-wave (km/s) = 7.94184 8.17533 8.05943
#
# Compressibility (1/GPa) = 0.01365657
#
# Stress axis : x y z
#
# Youngs Moduli (GPa) = 94.50314 94.50314 164.45513
#
# Poissons Ratio (x) = 0.27140 0.32249
# Poissons Ratio (y) = 0.27140 0.32249
# Poissons Ratio (z) = 0.18532 0.18532
#
# Static dielectric constant tensor:
#      x y z
#    x 3.343830 0.000000 0.000000 
#    y 0.000000 3.343830 0.000000 
#    z 0.000000 0.000000 4.464740 
# 
# 
# High freq. dielectric constant tensor:
#      x y z
#    x 1.782510 0.000000 0.000000 
#    y 0.000000 1.782510 0.000000 
#    z 0.000000 0.000000 1.804510 
# 
# From -- ./inp_files/1116.got.cif
#   From: 2010.03.12/outbox.cif.g09.slc.cpg/sg147_cif.got.tgz:1116.got - 2010.04.03 13:37:56.
