data_PCOD8321491
_publ_section_title
;
Structure prediction by ZEFSAII (Michael W. Deem and Ramdas Pophale) SiO2 
 PCOD8321491
Probable space group: P 32
;
_chemical_formula_sum "Si O2"
_cell_formula_units_Z 21
_cell_length_a 11.599399
_cell_length_b 11.599399
_cell_length_c 8.103817
_cell_angle_alpha 90.000000
_cell_angle_beta 90.000000
_cell_angle_gamma 120.000000
_cell_volume 944.259216
_symmetry_space_group_name_H-M "P 32"
_symmetry_group_IT_number 145
_symmetry_cell_setting 'hexagonal'
loop_
_space_group_symop_operation_xyz
x,y,z
-y,x-y,2/3+z
-x+y,-x,1/3+z
loop_
_atom_site_type_symbol
_atom_site_label
_atom_site_fract_x
_atom_site_fract_y
_atom_site_fract_z
Si Si1 0.214109 0.138172 0.470740
Si Si2 0.613916 0.252718 0.837109
Si Si3 0.678297 0.802044 0.313919
Si Si4 0.138172 0.214109 0.974910
Si Si5 0.000000 0.633923 0.556158
Si Si6 0.361199 0.747282 0.941875
Si Si7 0.321703 0.123747 0.798397
O O1 0.145944 0.212720 0.555368
O O2 0.323443 0.242068 0.345669
O O3 0.288289 0.096136 0.605188
O O4 0.100959 0.000000 0.389492
O O5 0.700181 0.358004 0.693062
O O6 0.611071 0.113278 0.805576
O O7 0.471113 0.242849 0.815089
O O8 0.711711 0.807848 0.507128
O O9 0.528887 0.771736 0.297228
O O10 0.679656 0.679656 0.222825
O O11 0.212720 0.145944 0.890282
O O12 0.242068 0.323443 0.099981
O O13 0.113278 0.611071 0.640074
O O14 0.358004 0.700181 0.752588
#
# Coordination Sequence:
#
# PCOD8321491 Si02
#       7
#     3   3   3   3   3   3   3
#     4  11  25  42  72 108 146 191 247 313 392 437
#     4  12  26  49  75 106 153 206 257 309 373 456
#     4  11  24  44  68 107 149 196 243 311 375 454
#     4  11  25  42  72 108 146 191 247 313 392 437
#     4  12  24  46  72 110 146 198 258 310 376 450
#     4  12  26  49  75 106 153 206 257 309 373 456
#     4  11  24  44  68 107 149 196 243 311 375 454
#
# _framework density 22.239657000000001
#
# number of rings (size 3 to 8) (size 9 to 14) (size 15 to 20)
#    0.000    0.571    4.286    3.429    6.000    0.000 
#    0.000    0.000    0.000    0.000    0.000    0.000 
#    0.000    0.000    0.000    0.000    0.000    0.000 
#
# Total GULP energy -260298.138186 kJ/mol
# GULP energy per Si atom -12395.149437 kJ/mol
# Density = 2.218904 g / cm^3
# Si number density = 22.239657 Si / 1000 Ang^3
#
#
#
# Elastic Constant Matrix: (Units=GPa)
#
#
# Indices 1 2 3 4 5 6 
#
# 1 108.6532 42.8222 44.5963 5.6390 0.0000 0.0000
# 2 42.8222 108.6532 44.5963 -5.6390 0.0000 0.0000
# 3 44.5963 44.5963 147.3234 0.0000 0.0000 0.0000
# 4 5.6390 -5.6390 0.0000 30.0160 0.0000 0.0000
# 5 0.0000 0.0000 0.0000 0.0000 30.0160 5.6390
# 6 0.0000 0.0000 0.0000 0.0000 5.6390 32.9155
#
#
#
# Elastic Compliance Matrix: (Units=1/GPa)
#
#
# Indices 1 2 3 4 5 6 
#
# 1 0.011865 -0.003831 -0.002432 -0.002949 0.000000 0.000000
# 2 -0.003831 0.011865 -0.002432 0.002949 0.000000 0.000000
# 3 -0.002432 -0.002432 0.008260 0.000000 0.000000 0.000000
# 4 -0.002949 0.002949 0.000000 0.034424 0.000000 0.000000
# 5 0.000000 0.000000 0.000000 0.000000 0.034424 -0.005897
# 6 0.000000 0.000000 0.000000 0.000000 -0.005897 0.031391
#
#
# Mechanical properties :
#
#
# Convention : Reuss Voigt Hill
#
# Bulk Modulus (GPa) = 68.49338 69.85104 69.17221
# Shear Modulus (GPa) = 32.36588 34.09715 33.23152
#
# Velocity S-wave (km/s) = 3.81901 3.91982 3.86974
# Velocity P-wave (km/s) = 7.09304 7.20855 7.15102
#
# Compressibility (1/GPa) = 0.01459995
#
# Stress axis : x y z
#
# Youngs Moduli (GPa) = 84.28410 84.28410 121.06394
#
# Poissons Ratio (x) = 0.32289 0.29441
# Poissons Ratio (y) = 0.32289 0.29441
# Poissons Ratio (z) = 0.20497 0.20497
#
# Static dielectric constant tensor:
#      x y z
#    x 3.885200 0.000000 0.000000 
#    y 0.000000 3.885200 0.000000 
#    z 0.000000 0.000000 4.422450 
# 
# 
# High freq. dielectric constant tensor:
#      x y z
#    x 1.871690 0.000000 0.000000 
#    y 0.000000 1.871690 0.000000 
#    z 0.000000 0.000000 1.887590 
# 
# From -- ./inp_files/430.got.cif
#   From: 2010.03.12/outbox.cif.g09.slc.cpg/sg145_cif.got.tgz:430.got - 2010.04.03 13:35:35.
