data_PCOD8321544
_publ_section_title
;
Structure prediction by ZEFSAII (Michael W. Deem and Ramdas Pophale) SiO2 
 PCOD8321544
Probable space group: R 3
;
_chemical_formula_sum "Si O2"
_cell_formula_units_Z 51
_cell_length_a 18.653683
_cell_length_b 18.653683
_cell_length_c 7.457425
_cell_angle_alpha 90.000000
_cell_angle_beta 90.000000
_cell_angle_gamma 120.000000
_cell_volume 2247.236138
_symmetry_space_group_name_H-M "R 3"
_symmetry_group_IT_number 146
_symmetry_cell_setting 'hexagonal'
loop_
_space_group_symop_operation_xyz
x,y,z
-y,x-y,z
-x+y,-x,z
2/3+x,1/3+y,1/3+z
2/3-y,1/3+x-y,1/3+z
2/3-x+y,1/3-x,1/3+z
1/3+x,2/3+y,2/3+z
1/3-y,2/3+x-y,2/3+z
1/3-x+y,2/3-x,2/3+z
loop_
_atom_site_type_symbol
_atom_site_label
_atom_site_fract_x
_atom_site_fract_y
_atom_site_fract_z
Si Si1 0.666668 0.333334 0.387897
Si Si2 0.845666 0.670880 0.299677
Si Si3 0.838023 0.473078 0.843211
Si Si4 0.385631 0.048897 0.635169
Si Si5 0.602790 0.960008 0.373663
Si Si6 0.000000 0.000000 0.630636
Si Si7 0.480962 0.238870 0.535449
O O1 0.666668 0.333334 0.175727
O O2 0.572977 0.273860 0.455584
O O3 0.885969 0.749805 0.433760
O O4 0.763049 0.666113 0.227038
O O5 0.899970 0.681057 0.125617
O O6 0.824951 0.584397 0.394917
O O7 0.810344 0.517735 0.700480
O O8 0.867633 0.529417 0.023726
O O9 0.761116 0.382359 0.890753
O O10 0.302142 0.007273 0.515343
O O11 0.444200 0.145799 0.604033
O O12 0.678267 0.975415 0.502525
#
# Coordination Sequence:
#
# PCOD8321544 Si02
#       7
#     3   9   9   9   9   3   9
#     4  12  25  50  73 108 148 188 253 307 380 442
#     4  11  23  43  70 103 142 192 238 309 372 434
#     4  12  24  45  71 103 146 184 251 304 372 446
#     4  10  24  44  67 101 139 190 242 295 367 438
#     4  12  24  44  68 107 142 185 244 306 374 437
#     4  12  28  44  70 114 139 206 244 310 377 445
#     4  11  24  46  73 102 140 195 240 307 372 436
#
# _framework density 22.694541999999998
#
# number of rings (size 3 to 8) (size 9 to 14) (size 15 to 20)
#    0.000    0.706    1.765    6.353    2.471    1.412 
#   12.706    0.000    0.000    0.000    0.000    0.000 
#    0.000    0.000    0.000    0.000    0.000    0.000 
#
# Total GULP energy -210741.780583 kJ/mol
# GULP energy per Si atom -12396.575328 kJ/mol
# Density = 2.264289 g / cm^3
# Si number density = 22.694542 Si / 1000 Ang^3
#
#
#
# Elastic Constant Matrix: (Units=GPa)
#
#
# Indices 1 2 3 4 5 6 
#
# 1 119.7828 40.4544 38.8360 -1.0322 -2.9054 -0.0085
# 2 40.4544 119.7865 38.8565 1.0334 2.8752 -0.0020
# 3 38.8360 38.8565 89.0286 0.0042 -0.0720 -0.0293
# 4 -1.0322 1.0334 0.0042 31.7894 0.0104 2.8942
# 5 -2.9054 2.8752 -0.0720 0.0104 31.7891 -1.0464
# 6 -0.0085 -0.0020 -0.0293 2.8942 -1.0464 39.6579
#
#
#
# Elastic Compliance Matrix: (Units=1/GPa)
#
#
# Indices 1 2 3 4 5 6 
#
# 1 0.010307 -0.002393 -0.003451 0.000413 0.001150 0.000000
# 2 -0.002393 0.010309 -0.003456 -0.000412 -0.001159 -0.000003
# 3 -0.003451 -0.003456 0.014246 -0.000003 0.000030 0.000011
# 4 0.000413 -0.000412 -0.000003 0.031694 -0.000012 -0.002313
# 5 0.001150 -0.001159 0.000030 -0.000012 0.031695 0.000837
# 6 0.000000 -0.000003 0.000011 -0.002313 0.000837 0.025407
#
#
# Mechanical properties :
#
#
# Convention : Reuss Voigt Hill
#
# Bulk Modulus (GPa) = 61.49312 62.76575 62.12943
# Shear Modulus (GPa) = 33.85735 34.67734 34.26735
#
# Velocity S-wave (km/s) = 3.86667 3.91321 3.89001
# Velocity P-wave (km/s) = 6.86219 6.93790 6.90015
#
# Compressibility (1/GPa) = 0.01626198
#
# Stress axis : x y z
#
# Youngs Moduli (GPa) = 97.02333 97.00441 70.19365
#
# Poissons Ratio (x) = 0.23209 0.24223
# Poissons Ratio (y) = 0.23214 0.24262
# Poissons Ratio (z) = 0.33481 0.33530
#
# Static dielectric constant tensor:
#      x y z
#    x 4.238640 0.000010 -0.000020 
#    y 0.000010 4.238650 -0.000020 
#    z -0.000020 -0.000020 4.081690 
# 
# 
# High freq. dielectric constant tensor:
#      x y z
#    x 1.906430 0.000000 0.000000 
#    y 0.000000 1.906430 0.000000 
#    z 0.000000 0.000000 1.891570 
# 
# From -- ./inp_files/680.got.cif
#   From: 2010.06.25/outbox.cif.g09.slc.cpg/sg146_cif.got.tgz:680.got - 2010.06.28 11:17:22.
