data_PCOD8321815
_publ_section_title
;
Structure prediction by ZEFSAII (Michael W. Deem and Ramdas Pophale) SiO2 
 PCOD8321815
Probable space group: R -3
;
_chemical_formula_sum "Si O2"
_cell_formula_units_Z 72
_cell_length_a 10.349544
_cell_length_b 10.349544
_cell_length_c 31.493580
_cell_angle_alpha 90.000000
_cell_angle_beta 90.000000
_cell_angle_gamma 120.000000
_cell_volume 2921.427369
_symmetry_space_group_name_H-M "R -3"
_symmetry_group_IT_number 148
_symmetry_cell_setting 'hexagonal'
loop_
_space_group_symop_operation_xyz
x,y,z
-y,x-y,z
-x+y,-x,z
-x,-y,-z
y,-x+y,-z
x-y,x,-z
2/3+x,1/3+y,1/3+z
2/3-y,1/3+x-y,1/3+z
2/3-x+y,1/3-x,1/3+z
2/3-x,1/3-y,1/3-z
2/3+y,1/3-x+y,1/3-z
2/3+x-y,1/3+x,1/3-z
1/3+x,2/3+y,2/3+z
1/3-y,2/3+x-y,2/3+z
1/3-x+y,2/3-x,2/3+z
1/3-x,2/3-y,2/3-z
1/3+y,2/3-x+y,2/3-z
1/3+x-y,2/3+x,2/3-z
loop_
_atom_site_type_symbol
_atom_site_label
_atom_site_fract_x
_atom_site_fract_y
_atom_site_fract_z
Si Si1 0.333334 0.666667 0.370891
Si Si2 0.151091 0.343558 0.572068
Si Si3 0.333334 0.666668 0.470200
Si Si4 0.333334 0.666667 0.614080
Si Si5 0.815273 0.170370 0.994147
Si Si6 0.273411 0.268913 0.829480
O O1 0.333334 0.666667 0.420600
O O2 0.390901 0.553752 0.357719
O O3 0.212760 0.507316 0.593904
O O4 0.110211 0.239786 0.613578
O O5 0.265441 0.320346 0.542178
O O6 0.004722 0.288291 0.543351
O O7 0.503588 0.756733 0.487575
O O8 0.333335 0.666668 0.666667
O O9 0.989690 0.248000 0.007587
O O10 0.166667 0.333334 0.833334
#
# Coordination Sequence:
#
# PCOD8321815 Si02
#       6
#     6  18   6   6  18  18
#     4  12  30  49  73 109 157 205 235 301 388 450
#     4  12  24  41  68  99 142 178 243 283 365 420
#     4  12  25  43  72  99 143 176 246 285 361 421
#     4  12  22  38  64  99 132 180 237 307 338 409
#     4  12  27  49  77 110 148 197 252 311 364 441
#     4  12  24  42  67 103 135 184 226 303 346 416
#
# _framework density 24.645488
#
# number of rings (size 3 to 8) (size 9 to 14) (size 15 to 20)
#    0.000    0.000    5.000    5.500    3.500    2.000 
#    0.000    0.000    0.000    2.000    0.000    0.000 
#    0.000    0.000    0.000    0.000    0.000    0.000 
#
# Total GULP energy -297351.665154 kJ/mol
# GULP energy per Si atom -12389.652715 kJ/mol
# Density = 2.458939 g / cm^3
# Si number density = 24.645488 Si / 1000 Ang^3
#
#
#
# Elastic Constant Matrix: (Units=GPa)
#
#
# Indices 1 2 3 4 5 6 
#
# 1 68.7206 4.9770 2.9283 8.6272 -3.0870 0.0001
# 2 4.9770 68.7200 2.9283 -8.6284 3.0873 0.0008
# 3 2.9283 2.9283 179.3571 0.0006 0.0003 -0.0003
# 4 8.6272 -8.6284 0.0006 32.5781 0.0007 3.0870
# 5 -3.0870 3.0873 0.0003 0.0007 32.5789 8.6271
# 6 0.0001 0.0008 -0.0003 3.0870 8.6271 31.8718
#
#
#
# Elastic Compliance Matrix: (Units=1/GPa)
#
#
# Indices 1 2 3 4 5 6 
#
# 1 0.015327 -0.001741 -0.000222 -0.004520 0.001617 0.000000
# 2 -0.001741 0.015328 -0.000222 0.004521 -0.001617 0.000000
# 3 -0.000222 -0.000222 0.005583 0.000000 0.000000 0.000000
# 4 -0.004520 0.004521 0.000000 0.033396 -0.000001 -0.003235
# 5 0.001617 -0.001617 0.000000 -0.000001 0.033395 -0.009039
# 6 0.000000 0.000000 0.000000 -0.003235 -0.009039 0.034136
#
#
# Mechanical properties :
#
#
# Convention : Reuss Voigt Hill
#
# Bulk Modulus (GPa) = 31.37873 37.60720 34.49297
# Shear Modulus (GPa) = 32.86094 39.80335 36.33214
#
# Velocity S-wave (km/s) = 3.65546 4.02311 3.84368
# Velocity P-wave (km/s) = 5.52958 6.07231 5.80729
#
# Compressibility (1/GPa) = 0.03186872
#
# Stress axis : x y z
#
# Youngs Moduli (GPa) = 65.24305 65.24181 179.12434
#
# Poissons Ratio (x) = 0.11357 0.03973
# Poissons Ratio (y) = 0.11357 0.03974
# Poissons Ratio (z) = 0.01447 0.01447
#
# Static dielectric constant tensor:
#      x y z
#    x 5.095290 0.000010 0.000000 
#    y 0.000010 5.095300 0.000010 
#    z 0.000000 0.000010 5.160140 
# 
# 
# High freq. dielectric constant tensor:
#      x y z
#    x 1.971950 0.000000 0.000000 
#    y 0.000000 1.971950 0.000000 
#    z 0.000000 0.000000 2.015010 
# 
# From -- ./inp_files/3958.got.cif
#   From: 2010.03.12/outbox.cif.g09.slc.cpg/sg148_2_cif.got.tgz:3958.got - 2010.04.03 13:38:46.
