data_PCOD8321327
_publ_section_title
;
Structure prediction by ZEFSAII (Michael W. Deem and Ramdas Pophale) SiO2 
 PCOD8321327
Probable space group: I 41/A C D
;
_chemical_formula_sum "Si O2"
_cell_formula_units_Z 80
_cell_length_a 21.000000
_cell_length_b 21.000000
_cell_length_c 18.000000
_cell_angle_alpha 90.000000
_cell_angle_beta 90.000000
_cell_angle_gamma 90.000000
_cell_volume 7938.000000
_symmetry_space_group_name_H-M "I 41/A C D"
_symmetry_group_IT_number 142
_space_group.IT_coordinate_system_code '2'
_symmetry_cell_setting 'tetragonal'
loop_
_space_group_symop_operation_xyz
x,y,z
1/4-y,3/4+x,1/4+z
-x,1/2-y,z
1/4+y,1/4-x,3/4+z
x,-y,1/2-z
1/2-x,y,-z
3/4+y,1/4+x,1/4-z
1/4-y,1/4-x,1/4-z
-x,-y,-z
3/4+y,1/4-x,3/4-z
x,1/2+y,-z
3/4-y,3/4+x,1/4-z
-x,y,1/2+z
1/2+x,-y,z
1/4-y,3/4-x,3/4+z
3/4+y,3/4+x,3/4+z
1/2+x,1/2+y,1/2+z
3/4-y,1/4+x,3/4+z
1/2-x,-y,1/2+z
3/4+y,3/4-x,1/4+z
1/2+x,1/2-y,-z
-x,1/2+y,1/2-z
1/4+y,3/4+x,3/4-z
3/4-y,3/4-x,3/4-z
1/2-x,1/2-y,1/2-z
1/4+y,3/4-x,1/4-z
1/2+x,y,1/2-z
1/4-y,1/4+x,3/4-z
1/2-x,1/2+y,z
x,1/2-y,1/2+z
3/4-y,1/4-x,1/4+z
1/4+y,1/4+x,1/4+z
loop_
_atom_site_type_symbol
_atom_site_label
_atom_site_fract_x
_atom_site_fract_y
_atom_site_fract_z
Si Si1 0.753336 0.252701 0.871960
Si Si2 0.055223 0.376951 0.307611
Si Si3 0.456691 0.595897 0.509172
Si Si4 0.630263 0.446714 0.807228
Si Si5 0.919504 0.672128 0.221590
O O1 0.797322 0.210111 0.928940
O O2 0.697646 0.208758 0.834296
O O3 0.799460 0.282016 0.810199
O O4 0.721042 0.311588 0.914244
O O5 0.115450 0.360660 0.252170
O O6 0.075040 0.344904 0.384573
O O7 0.994381 0.342199 0.270757
O O8 0.512279 0.649436 0.511789
O O9 0.658934 0.500000 0.750000
O O10 0.679615 0.429615 0.875000
O O11 0.621848 0.382760 0.760005
#
# Coordination Sequence:
#
# PCOD8321327 Si02
#       5
#    32  32  32  32  32
#     4  10  21  36  60  93 136 174 218 277 356 410
#     4  11  19  35  61  96 132 171 222 282 354 427
#     4  10  20  35  59  99 129 168 222 283 349 425
#     4  12  23  41  63  99 137 184 236 288 342 417
#     4  11  20  33  63  93 132 170 218 280 355 421
#
# _framework density 10.078105000000001
#
# number of rings (size 3 to 8) (size 9 to 14) (size 15 to 20)
#    0.000    1.200    8.000    0.600    0.000    0.000 
#    0.000    1.000    0.000    0.000   31.200    0.000 
#    0.000    0.000    0.000    0.000    0.000    0.000 
#
# Total GULP energy -991387.534269 kJ/mol
# GULP energy per Si atom -12392.344178 kJ/mol
# Density = 1.005517 g / cm^3
# Si number density = 10.078105 Si / 1000 Ang^3
#
#
#
# Elastic Constant Matrix: (Units=GPa)
#
#
# Indices 1 2 3 4 5 6 
#
# 1 119.5948 45.7036 48.0841 0.0000 0.0000 0.0000
# 2 45.7036 119.5948 48.0841 0.0000 0.0000 0.0000
# 3 48.0841 48.0841 71.8385 0.0000 0.0000 0.0000
# 4 0.0000 0.0000 0.0000 43.9849 0.0000 0.0000
# 5 0.0000 0.0000 0.0000 0.0000 43.9849 0.0000
# 6 0.0000 0.0000 0.0000 0.0000 0.0000 41.9969
#
#
#
# Elastic Compliance Matrix: (Units=1/GPa)
#
#
# Indices 1 2 3 4 5 6 
#
# 1 0.011721 -0.001813 -0.006632 0.000000 0.000000 0.000000
# 2 -0.001813 0.011721 -0.006632 0.000000 0.000000 0.000000
# 3 -0.006632 -0.006632 0.022798 0.000000 0.000000 0.000000
# 4 0.000000 0.000000 0.000000 0.022735 0.000000 0.000000
# 5 0.000000 0.000000 0.000000 0.000000 0.022735 0.000000
# 6 0.000000 0.000000 0.000000 0.000000 0.000000 0.023811
#
#
# Mechanical properties :
#
#
# Convention : Reuss Voigt Hill
#
# Bulk Modulus (GPa) = 62.16299 66.08577 64.12438
# Shear Modulus (GPa) = 33.10486 37.27045 35.18766
#
# Velocity S-wave (km/s) = 4.05707 4.30476 4.18275
# Velocity P-wave (km/s) = 7.27007 7.58722 7.43034
#
# Compressibility (1/GPa) = 0.01608674
#
# Stress axis : x y z
#
# Youngs Moduli (GPa) = 85.31944 85.31944 43.86378
#
# Poissons Ratio (x) = 0.15466 0.29089
# Poissons Ratio (y) = 0.15466 0.29089
# Poissons Ratio (z) = 0.56582 0.56582
#
# Static dielectric constant tensor:
#      x y z
#    x 3.982790 0.000000 0.000000 
#    y 0.000000 3.982790 0.000000 
#    z 0.000000 0.000000 3.920210 
# 
# 
# High freq. dielectric constant tensor:
#      x y z
#    x 1.790190 0.000000 0.000000 
#    y 0.000000 1.790190 0.000000 
#    z 0.000000 0.000000 1.794070 
# 
# From -- ./inp_files/7426.got.cif
#   From: 2010.03.12/outbox.ucp.g09.slc.cvg/sg142_4_cif.got.tgz:7426.got - 2010.05.04 20:33:11.
