data_PCOD8321672
_publ_section_title
;
Structure prediction by ZEFSAII (Michael W. Deem and Ramdas Pophale) SiO2 
 PCOD8321672
Probable space group: R -3
;
_chemical_formula_sum "Si O2"
_cell_formula_units_Z 108
_cell_length_a 22.142873
_cell_length_b 22.142873
_cell_length_c 12.457291
_cell_angle_alpha 90.000000
_cell_angle_beta 90.000000
_cell_angle_gamma 120.000000
_cell_volume 5289.592056
_symmetry_space_group_name_H-M "R -3"
_symmetry_group_IT_number 148
_symmetry_cell_setting 'hexagonal'
loop_
_space_group_symop_operation_xyz
x,y,z
-y,x-y,z
-x+y,-x,z
-x,-y,-z
y,-x+y,-z
x-y,x,-z
2/3+x,1/3+y,1/3+z
2/3-y,1/3+x-y,1/3+z
2/3-x+y,1/3-x,1/3+z
2/3-x,1/3-y,1/3-z
2/3+y,1/3-x+y,1/3-z
2/3+x-y,1/3+x,1/3-z
1/3+x,2/3+y,2/3+z
1/3-y,2/3+x-y,2/3+z
1/3-x+y,2/3-x,2/3+z
1/3-x,2/3-y,2/3-z
1/3+y,2/3-x+y,2/3-z
1/3+x-y,2/3+x,2/3-z
loop_
_atom_site_type_symbol
_atom_site_label
_atom_site_fract_x
_atom_site_fract_y
_atom_site_fract_z
Si Si1 0.595843 0.880342 0.563119
Si Si2 0.085967 0.330104 0.732903
Si Si3 0.230547 0.142900 0.111845
Si Si4 0.393470 0.198426 0.899902
Si Si5 0.495882 0.304462 0.071578
Si Si6 0.139034 0.082569 0.553174
O O1 0.549253 0.828761 0.660750
O O2 0.662132 0.873723 0.530709
O O3 0.548043 0.856775 0.458982
O O4 0.622335 0.960680 0.598469
O O5 0.052067 0.265717 0.816884
O O6 0.163584 0.384082 0.771276
O O7 0.088401 0.300995 0.614597
O O8 0.162885 0.079854 0.173707
O O9 0.443965 0.210848 0.798880
O O10 0.433443 0.255251 0.992172
O O11 0.565701 0.351502 0.001949
O O12 0.106836 0.106558 0.455493
#
# Coordination Sequence:
#
# PCOD8321672 Si02
#       6
#    18  18  18  18  18  18
#     4  10  16  29  56  84 119 159 178 221 293 354
#     4   8  15  30  50  73 112 160 185 208 269 353
#     4   8  15  30  50  76 111 151 195 218 264 350
#     4   9  19  36  52  83 118 146 198 236 273 355
#     4   9  19  36  56  78 113 153 187 243 286 328
#     4  10  21  41  62  76 100 149 202 256 293 331
#
# _framework density 20.417452999999998
#
# number of rings (size 3 to 8) (size 9 to 14) (size 15 to 20)
#    0.000    3.000    0.000    3.167    0.000    0.667 
#   12.000   15.000    0.000    0.000    0.000    4.667 
#    0.000    0.000    0.000    0.000    0.000    0.000 
#
# Total GULP energy -446021.619422 kJ/mol
# GULP energy per Si atom -12389.489428 kJ/mol
# Density = 2.037098 g / cm^3
# Si number density = 20.417453 Si / 1000 Ang^3
#
#
#
# Elastic Constant Matrix: (Units=GPa)
#
#
# Indices 1 2 3 4 5 6 
#
# 1 75.1090 20.3668 27.8696 -4.7992 6.5117 0.0000
# 2 20.3668 75.1090 27.8696 4.7992 -6.5117 0.0000
# 3 27.8696 27.8696 71.6473 0.0000 0.0000 0.0000
# 4 -4.7992 4.7992 0.0000 24.1992 0.0000 -6.5117
# 5 6.5117 -6.5117 0.0000 0.0000 24.1992 -4.7992
# 6 0.0000 0.0000 0.0000 -6.5117 -4.7992 27.3711
#
#
#
# Elastic Compliance Matrix: (Units=1/GPa)
#
#
# Indices 1 2 3 4 5 6 
#
# 1 0.016911 -0.003359 -0.005271 0.004020 -0.005454 0.000000
# 2 -0.003359 0.016911 -0.005271 -0.004020 0.005454 0.000000
# 3 -0.005271 -0.005271 0.018058 0.000000 0.000000 0.000000
# 4 0.004020 -0.004020 0.000000 0.045854 0.000000 0.010909
# 5 -0.005454 0.005454 0.000000 0.000000 0.045854 0.008040
# 6 0.000000 0.000000 0.000000 0.010909 0.008040 0.040540
#
#
# Mechanical properties :
#
#
# Convention : Reuss Voigt Hill
#
# Bulk Modulus (GPa) = 41.53565 41.56416 41.54991
# Shear Modulus (GPa) = 22.73194 24.87118 23.80156
#
# Velocity S-wave (km/s) = 3.34032 3.49396 3.41801
# Velocity P-wave (km/s) = 5.93838 6.05627 5.99762
#
# Compressibility (1/GPa) = 0.02407570
#
# Stress axis : x y z
#
# Youngs Moduli (GPa) = 59.13467 59.13467 55.37685
#
# Poissons Ratio (x) = 0.19865 0.29190
# Poissons Ratio (y) = 0.19865 0.29190
# Poissons Ratio (z) = 0.31171 0.31171
#
# Static dielectric constant tensor:
#      x y z
#    x 3.707840 0.000000 0.000000 
#    y 0.000000 3.707840 0.000000 
#    z 0.000000 0.000000 3.748140 
# 
# 
# High freq. dielectric constant tensor:
#      x y z
#    x 1.775680 0.000000 0.000000 
#    y 0.000000 1.775680 0.000000 
#    z 0.000000 0.000000 1.788330 
# 
# From -- ./inp_files/1522.got.cif
#   From: 2010.03.12/outbox.cif.g09.slc.cpg/sg148_1_cif.got.tgz:1522.got - 2010.04.03 13:38:46.
