data_PCOD8321865
_publ_section_title
;
Structure prediction by ZEFSAII (Michael W. Deem and Ramdas Pophale) SiO2 
 PCOD8321865
Probable space group: P 3 1 2
;
_chemical_formula_sum "Si O2"
_cell_formula_units_Z 36
_cell_length_a 18.242780
_cell_length_b 18.242780
_cell_length_c 9.859987
_cell_angle_alpha 90.000000
_cell_angle_beta 90.000000
_cell_angle_gamma 120.000000
_cell_volume 2841.770591
_symmetry_space_group_name_H-M "P 3 1 2"
_symmetry_group_IT_number 149
_symmetry_cell_setting 'hexagonal'
loop_
_space_group_symop_operation_xyz
x,y,z
-y,x-y,z
-x+y,-x,z
-y,-x,-z
-x+y,y,-z
x,x-y,-z
loop_
_atom_site_type_symbol
_atom_site_label
_atom_site_fract_x
_atom_site_fract_y
_atom_site_fract_z
Si Si1 0.333905 0.497171 0.343620
Si Si2 0.163266 0.666095 0.656380
Si Si3 0.650975 0.912776 0.848598
Si Si4 0.836823 0.000331 0.161367
Si Si5 0.087224 0.349025 0.848598
Si Si6 0.836823 0.836492 0.161367
O O1 0.335438 0.473949 0.500000
O O2 0.418852 0.581148 0.300865
O O3 0.256817 0.513635 0.314105
O O4 0.326935 0.420062 0.254163
O O5 0.093127 0.673065 0.745837
O O6 0.651203 0.825601 0.851694
O O7 0.744070 0.984909 0.797019
O O8 0.631902 0.933504 0.000000
O O9 0.909615 0.090385 0.219911
O O10 0.744070 0.984909 0.202981
O O11 0.851443 0.925721 0.220107
O O12 0.841346 0.998883 0.000000
#
# Coordination Sequence:
#
# PCOD8321865 Si02
#       6
#     6   6   6   6   6   6
#     4   9  16  25  36  48  62  83 112 142 168 195
#     4   9  16  25  36  48  62  83 112 142 168 195
#     4   8  14  23  33  47  67  87 107 134 167 197
#     4   8  12  18  30  48  68  89 113 139 163 187
#     4   8  14  23  33  47  67  87 107 134 167 197
#     4   8  12  18  30  48  68  89 113 139 163 187
#
# _framework density 12.668158999999999
#
# number of rings (size 3 to 8) (size 9 to 14) (size 15 to 20)
#    0.000    3.667    0.000    2.667    0.000    3.333 
#    0.000    0.000    0.000    3.000    0.000    0.000 
#    0.000    2.667    0.000    1.000    0.000   15.333 
#
# Total GULP energy -446090.945681 kJ/mol
# GULP energy per Si atom -12391.415158 kJ/mol
# Density = 1.263933 g / cm^3
# Si number density = 12.668159 Si / 1000 Ang^3
#
#
#
# Elastic Constant Matrix: (Units=GPa)
#
#
# Indices 1 2 3 4 5 6 
#
# 1 82.3663 46.1688 37.1818 0.0000 0.0000 0.0000
# 2 46.1688 82.3663 37.1818 0.0000 0.0000 0.0000
# 3 37.1818 37.1818 41.9272 0.0000 0.0000 0.0000
# 4 0.0000 0.0000 0.0000 11.8371 0.0000 0.0000
# 5 0.0000 0.0000 0.0000 0.0000 11.8371 0.0000
# 6 0.0000 0.0000 0.0000 0.0000 0.0000 18.0988
#
#
#
# Elastic Compliance Matrix: (Units=1/GPa)
#
#
# Indices 1 2 3 4 5 6 
#
# 1 0.021802 -0.005824 -0.014169 0.000000 0.000000 0.000000
# 2 -0.005824 0.021802 -0.014169 0.000000 0.000000 0.000000
# 3 -0.014169 -0.014169 0.048982 0.000000 0.000000 0.000000
# 4 0.000000 0.000000 0.000000 0.084480 0.000000 0.000000
# 5 0.000000 0.000000 0.000000 0.000000 0.084480 0.000000
# 6 0.000000 0.000000 0.000000 0.000000 0.000000 0.055252
#
#
# Mechanical properties :
#
#
# Convention : Reuss Voigt Hill
#
# Bulk Modulus (GPa) = 41.21976 49.74718 45.48347
# Shear Modulus (GPa) = 12.71581 14.09639 13.40610
#
# Velocity S-wave (km/s) = 3.17166 3.33940 3.25661
# Velocity P-wave (km/s) = 6.78390 7.36366 7.07972
#
# Compressibility (1/GPa) = 0.02426021
#
# Stress axis : x y z
#
# Youngs Moduli (GPa) = 45.86762 45.86762 20.41571
#
# Poissons Ratio (x) = 0.26715 0.28927
# Poissons Ratio (y) = 0.26715 0.28927
# Poissons Ratio (z) = 0.64991 0.64991
#
# Static dielectric constant tensor:
#      x y z
#    x 2.637660 0.000000 0.000000 
#    y 0.000000 2.637660 0.000000 
#    z 0.000000 0.000000 2.464530 
# 
# 
# High freq. dielectric constant tensor:
#      x y z
#    x 1.458820 0.000000 0.000000 
#    y 0.000000 1.458820 0.000000 
#    z 0.000000 0.000000 1.458080 
# 
# From -- ./inp_files/648.got.cif
#   From: 2010.03.12/outbox.cif.g09.slc.cpg/sg149_cif.got.tgz:648.got - 2010.04.03 13:40:41.
