data_PCOD8321655
_publ_section_title
;
Structure prediction by ZEFSAII (Michael W. Deem and Ramdas Pophale) SiO2 
 PCOD8321655
Probable space group: P -3
;
_chemical_formula_sum "Si O2"
_cell_formula_units_Z 34
_cell_length_a 10.876850
_cell_length_b 10.876850
_cell_length_c 16.287651
_cell_angle_alpha 90.000000
_cell_angle_beta 90.000000
_cell_angle_gamma 120.000000
_cell_volume 1668.765703
_symmetry_space_group_name_H-M "P -3"
_symmetry_group_IT_number 147
_symmetry_cell_setting 'hexagonal'
loop_
_space_group_symop_operation_xyz
x,y,z
-y,x-y,z
-x+y,-x,z
-x,-y,-z
y,-x+y,-z
x-y,x,-z
loop_
_atom_site_type_symbol
_atom_site_label
_atom_site_fract_x
_atom_site_fract_y
_atom_site_fract_z
Si Si1 0.020162 0.283199 0.677238
Si Si2 0.987358 0.724977 0.666742
Si Si3 0.334027 0.926810 0.498265
Si Si4 0.431310 0.851474 0.949311
Si Si5 0.666667 0.333334 0.765116
Si Si6 0.333334 0.666668 0.433318
Si Si7 0.499630 0.505672 0.220001
O O1 0.856476 0.170453 0.689518
O O2 0.054260 0.406237 0.740740
O O3 0.117133 0.214093 0.698026
O O4 0.063145 0.340973 0.585803
O O5 0.003731 0.717607 0.568530
O O6 0.020889 0.615618 0.711920
O O7 0.271039 0.764074 0.467160
O O8 0.500000 0.000000 0.500000
O O9 0.258292 0.751715 0.964442
O O10 0.476932 0.906034 0.857311
O O11 0.500000 0.000000 0.000000
O O12 0.666668 0.333334 0.665805
O O13 0.591631 0.417852 0.801652
#
# Coordination Sequence:
#
# PCOD8321655 Si02
#       7
#     6   6   6   6   2   2   6
#     4  12  25  40  62  90 131 184 233 299 363 418
#     4  12  24  41  61  89 132 179 237 290 358 420
#     4  12  22  38  56  87 122 174 240 305 351 413
#     4  10  26  49  78 118 149 183 234 282 348 434
#     4  12  21  39  75  99 133 197 244 294 354 435
#     4  12  21  39  57  93 127 179 262 297 354 420
#     4  12  23  43  68 103 140 173 232 285 341 426
#
# _framework density 20.374341000000001
#
# number of rings (size 3 to 8) (size 9 to 14) (size 15 to 20)
#    0.353    0.000    5.294    4.588    2.471    0.000 
#    1.059    1.765    0.000    0.353    0.000    0.000 
#    0.000    0.000    0.000    0.000    0.000    0.000 
#
# Total GULP energy -421378.260915 kJ/mol
# GULP energy per Si atom -12393.478262 kJ/mol
# Density = 2.032797 g / cm^3
# Si number density = 20.374341 Si / 1000 Ang^3
#
#
#
# Elastic Constant Matrix: (Units=GPa)
#
#
# Indices 1 2 3 4 5 6 
#
# 1 105.2308 25.8385 27.3562 2.3961 4.5861 0.0002
# 2 25.8385 105.2302 27.3565 -2.3956 -4.5858 0.0001
# 3 27.3562 27.3565 70.7154 0.0001 0.0003 0.0001
# 4 2.3961 -2.3956 0.0001 22.2418 -0.0002 -4.5858
# 5 4.5861 -4.5858 0.0003 -0.0002 22.2419 2.3958
# 6 0.0002 0.0001 0.0001 -4.5858 2.3958 39.6962
#
#
#
# Elastic Compliance Matrix: (Units=1/GPa)
#
#
# Indices 1 2 3 4 5 6 
#
# 1 0.011044 -0.001945 -0.003520 -0.001399 -0.002678 0.000000
# 2 -0.001945 0.011044 -0.003520 0.001399 0.002678 0.000000
# 3 -0.003520 -0.003520 0.016865 0.000000 0.000000 0.000000
# 4 -0.001399 0.001399 0.000000 0.046366 0.000000 0.005356
# 5 -0.002678 0.002678 0.000000 0.000000 0.046366 -0.002798
# 6 0.000000 0.000000 0.000000 0.005356 -0.002798 0.025979
#
#
# Mechanical properties :
#
#
# Convention : Reuss Voigt Hill
#
# Bulk Modulus (GPa) = 47.65834 49.14208 48.40021
# Shear Modulus (GPa) = 27.37792 30.21100 28.79446
#
# Velocity S-wave (km/s) = 3.66969 3.85489 3.76343
# Velocity P-wave (km/s) = 6.43410 6.63216 6.53388
#
# Compressibility (1/GPa) = 0.02098269
#
# Stress axis : x y z
#
# Youngs Moduli (GPa) = 90.54521 90.54458 59.29588
#
# Poissons Ratio (x) = 0.17614 0.20871
# Poissons Ratio (y) = 0.17614 0.20872
# Poissons Ratio (z) = 0.31871 0.31872
#
# Static dielectric constant tensor:
#      x y z
#    x 3.903150 -0.000010 0.000000 
#    y -0.000010 3.903180 0.000000 
#    z 0.000000 0.000000 3.435620 
# 
# 
# High freq. dielectric constant tensor:
#      x y z
#    x 1.805000 0.000000 0.000000 
#    y 0.000000 1.805000 0.000000 
#    z 0.000000 0.000000 1.774000 
# 
# From -- ./inp_files/951.got.cif
#   From: 2010.03.12/outbox.cif.g09.slc.cpg/sg147_cif.got.tgz:951.got - 2010.04.03 13:37:56.
