data_PCOD8321093
_publ_section_title
;
Structure prediction by ZEFSAII (Michael W. Deem and Ramdas Pophale) SiO2 
 PCOD8321093
Probable space group: I 41/A C D
;
_chemical_formula_sum "Si O2"
_cell_formula_units_Z 160
_cell_length_a 19.216972
_cell_length_b 19.216972
_cell_length_c 18.513649
_cell_angle_alpha 90.000000
_cell_angle_beta 90.000000
_cell_angle_gamma 90.000000
_cell_volume 6836.942704
_symmetry_space_group_name_H-M "I 41/A C D"
_symmetry_group_IT_number 142
_space_group.IT_coordinate_system_code '2'
_symmetry_cell_setting 'tetragonal'
loop_
_space_group_symop_operation_xyz
x,y,z
1/4-y,3/4+x,1/4+z
-x,1/2-y,z
1/4+y,1/4-x,3/4+z
x,-y,1/2-z
1/2-x,y,-z
3/4+y,1/4+x,1/4-z
1/4-y,1/4-x,1/4-z
-x,-y,-z
3/4+y,1/4-x,3/4-z
x,1/2+y,-z
3/4-y,3/4+x,1/4-z
-x,y,1/2+z
1/2+x,-y,z
1/4-y,3/4-x,3/4+z
3/4+y,3/4+x,3/4+z
1/2+x,1/2+y,1/2+z
3/4-y,1/4+x,3/4+z
1/2-x,-y,1/2+z
3/4+y,3/4-x,1/4+z
1/2+x,1/2-y,-z
-x,1/2+y,1/2-z
1/4+y,3/4+x,3/4-z
3/4-y,3/4-x,3/4-z
1/2-x,1/2-y,1/2-z
1/4+y,3/4-x,1/4-z
1/2+x,y,1/2-z
1/4-y,1/4+x,3/4-z
1/2-x,1/2+y,z
x,1/2-y,1/2+z
3/4-y,1/4-x,1/4+z
1/4+y,1/4+x,1/4+z
loop_
_atom_site_type_symbol
_atom_site_label
_atom_site_fract_x
_atom_site_fract_y
_atom_site_fract_z
Si Si1 0.855644 0.564523 0.298075
Si Si2 0.482031 0.927058 0.216973
Si Si3 0.922610 0.600549 0.566973
Si Si4 0.922233 0.360929 0.453434
Si Si5 0.894481 0.552291 0.910369
O O1 0.827573 0.500000 0.250000
O O2 0.816520 0.566520 0.375000
O O3 0.836319 0.635318 0.258370
O O4 0.938268 0.563917 0.303654
O O5 0.463094 0.863234 0.272501
O O6 0.444328 0.903630 0.143030
O O7 0.453770 0.000000 0.250000
O O8 0.874949 0.646510 0.621332
O O9 0.927087 0.523915 0.600740
O O10 0.994559 0.639961 0.550353
O O11 0.897447 0.422718 0.506542
O O12 0.816958 0.566958 0.875000
#
# Coordination Sequence:
#
# PCOD8321093 Si02
#       5
#    32  32  32  32  32
#     4  11  27  45  69  99 143 193 242 305 371 442
#     4  10  20  44  68 100 142 186 240 296 364 445
#     4  12  25  42  69 105 144 183 244 302 367 444
#     4  11  24  41  71 106 140 187 236 306 370 432
#     4  10  23  42  71  97 138 188 238 291 357 441
#
# _framework density 23.402273000000001
#
# number of rings (size 3 to 8) (size 9 to 14) (size 15 to 20)
#    0.000    1.200    2.000    3.000    5.600    3.600 
#    0.000    1.000    0.000    0.000    0.000    0.000 
#    0.000    0.000    0.000    0.000    0.000    0.000 
#
# Total GULP energy -991198.150238 kJ/mol
# GULP energy per Si atom -12389.976878 kJ/mol
# Density = 2.334901 g / cm^3
# Si number density = 23.402273 Si / 1000 Ang^3
#
#
#
# Elastic Constant Matrix: (Units=GPa)
#
#
# Indices 1 2 3 4 5 6 
#
# 1 110.3175 42.6082 52.5242 0.0000 0.0000 0.0000
# 2 42.6082 110.3175 52.5242 0.0000 0.0000 0.0000
# 3 52.5242 52.5242 154.7409 0.0000 0.0000 0.0000
# 4 0.0000 0.0000 0.0000 38.3120 0.0000 0.0000
# 5 0.0000 0.0000 0.0000 0.0000 38.3120 0.0000
# 6 0.0000 0.0000 0.0000 0.0000 0.0000 26.8910
#
#
#
# Elastic Compliance Matrix: (Units=1/GPa)
#
#
# Indices 1 2 3 4 5 6 
#
# 1 0.011648 -0.003121 -0.002894 0.000000 0.000000 0.000000
# 2 -0.003121 0.011648 -0.002894 0.000000 0.000000 0.000000
# 3 -0.002894 -0.002894 0.008427 0.000000 0.000000 0.000000
# 4 0.000000 0.000000 0.000000 0.026101 0.000000 0.000000
# 5 0.000000 0.000000 0.000000 0.000000 0.026101 0.000000
# 6 0.000000 0.000000 0.000000 0.000000 0.000000 0.037187
#
#
# Mechanical properties :
#
#
# Convention : Reuss Voigt Hill
#
# Bulk Modulus (GPa) = 71.92038 74.52102 73.22070
# Shear Modulus (GPa) = 34.82661 35.88427 35.35544
#
# Velocity S-wave (km/s) = 3.86187 3.92007 3.89108
# Velocity P-wave (km/s) = 7.11929 7.23892 7.17935
#
# Compressibility (1/GPa) = 0.01390427
#
# Stress axis : x y z
#
# Youngs Moduli (GPa) = 85.84998 85.84998 118.66077
#
# Poissons Ratio (x) = 0.26792 0.34346
# Poissons Ratio (y) = 0.26792 0.34346
# Poissons Ratio (z) = 0.24849 0.24849
#
# Static dielectric constant tensor:
#      x y z
#    x 4.188760 0.000000 0.000000 
#    y 0.000000 4.188760 0.000000 
#    z 0.000000 0.000000 4.468700 
# 
# 
# High freq. dielectric constant tensor:
#      x y z
#    x 1.912550 0.000000 0.000000 
#    y 0.000000 1.912550 0.000000 
#    z 0.000000 0.000000 1.948690 
# 
# From -- ./inp_files/7358.got.cif
#   From: 2010.03.12/outbox.cif.g09.slc.cpg/sg142_4_cif.got.tgz:7358.got - 2010.04.03 13:27:16.
