data_PCOD8321238
_publ_section_title
;
Structure prediction by ZEFSAII (Michael W. Deem and Ramdas Pophale) SiO2 
 PCOD8321238
Probable space group: I 41/A C D
;
_chemical_formula_sum "Si O2"
_cell_formula_units_Z 120
_cell_length_a 20.106477
_cell_length_b 20.106477
_cell_length_c 14.063336
_cell_angle_alpha 90.000000
_cell_angle_beta 90.000000
_cell_angle_gamma 90.000000
_cell_volume 5685.390714
_symmetry_space_group_name_H-M "I 41/A C D"
_symmetry_group_IT_number 142
_space_group.IT_coordinate_system_code '2'
_symmetry_cell_setting 'tetragonal'
loop_
_space_group_symop_operation_xyz
x,y,z
1/4-y,3/4+x,1/4+z
-x,1/2-y,z
1/4+y,1/4-x,3/4+z
x,-y,1/2-z
1/2-x,y,-z
3/4+y,1/4+x,1/4-z
1/4-y,1/4-x,1/4-z
-x,-y,-z
3/4+y,1/4-x,3/4-z
x,1/2+y,-z
3/4-y,3/4+x,1/4-z
-x,y,1/2+z
1/2+x,-y,z
1/4-y,3/4-x,3/4+z
3/4+y,3/4+x,3/4+z
1/2+x,1/2+y,1/2+z
3/4-y,1/4+x,3/4+z
1/2-x,-y,1/2+z
3/4+y,3/4-x,1/4+z
1/2+x,1/2-y,-z
-x,1/2+y,1/2-z
1/4+y,3/4+x,3/4-z
3/4-y,3/4-x,3/4-z
1/2-x,1/2-y,1/2-z
1/4+y,3/4-x,1/4-z
1/2+x,y,1/2-z
1/4-y,1/4+x,3/4-z
1/2-x,1/2+y,z
x,1/2-y,1/2+z
3/4-y,1/4-x,1/4+z
1/4+y,1/4+x,1/4+z
loop_
_atom_site_type_symbol
_atom_site_label
_atom_site_fract_x
_atom_site_fract_y
_atom_site_fract_z
Si Si1 0.000000 0.250000 0.375000
Si Si2 0.907376 0.727339 0.954527
Si Si3 0.674007 0.047340 0.533150
Si Si4 0.383371 0.633371 0.125000
Si Si5 0.349904 0.424769 0.741416
O O1 0.063968 0.242461 0.441440
O O2 0.963310 0.713310 0.875000
O O3 0.869507 0.793131 0.917814
O O4 0.864299 0.661143 0.964273
O O5 0.750000 0.054381 0.500000
O O6 0.624672 0.078075 0.455891
O O7 0.663564 0.088742 0.629681
O O8 0.657364 0.968721 0.547528
O O9 0.371262 0.500000 0.750000
#
# Coordination Sequence:
#
# PCOD8321238 Si02
#       5
#     8  32  32  16  32
#     4  12  22  48  68  86 136 192 222 292 352 406
#     4  12  25  45  67  97 139 184 234 283 349 418
#     4  11  21  44  73 103 142 178 224 289 357 416
#     4  12  23  44  70 100 140 180 234 287 340 424
#     4  11  23  43  70 102 139 179 227 285 355 417
#
# _framework density 21.106729999999999
#
# number of rings (size 3 to 8) (size 9 to 14) (size 15 to 20)
#    0.000    0.533    5.333    5.600    0.000    1.067 
#    4.800    2.667    0.000    0.000    0.000    0.000 
#    0.000    0.000    0.000    0.000    0.000    0.000 
#
# Total GULP energy -743869.506344 kJ/mol
# GULP energy per Si atom -12397.825106 kJ/mol
# Density = 2.105869 g / cm^3
# Si number density = 21.106730 Si / 1000 Ang^3
#
#
#
# Elastic Constant Matrix: (Units=GPa)
#
#
# Indices 1 2 3 4 5 6 
#
# 1 104.7197 74.2462 34.7199 0.0000 0.0000 0.0000
# 2 74.2462 104.7197 34.7199 0.0000 0.0000 0.0000
# 3 34.7199 34.7199 112.4400 0.0000 0.0000 0.0000
# 4 0.0000 0.0000 0.0000 40.6804 0.0000 0.0000
# 5 0.0000 0.0000 0.0000 0.0000 40.6804 0.0000
# 6 0.0000 0.0000 0.0000 0.0000 0.0000 41.1302
#
#
#
# Elastic Compliance Matrix: (Units=1/GPa)
#
#
# Indices 1 2 3 4 5 6 
#
# 1 0.019582 -0.013234 -0.001960 0.000000 0.000000 0.000000
# 2 -0.013234 0.019582 -0.001960 0.000000 0.000000 0.000000
# 3 -0.001960 -0.001960 0.010104 0.000000 0.000000 0.000000
# 4 0.000000 0.000000 0.000000 0.024582 0.000000 0.000000
# 5 0.000000 0.000000 0.000000 0.000000 0.024582 0.000000
# 6 0.000000 0.000000 0.000000 0.000000 0.000000 0.024313
#
#
# Mechanical properties :
#
#
# Convention : Reuss Voigt Hill
#
# Bulk Modulus (GPa) = 66.84617 67.69460 67.27039
# Shear Modulus (GPa) = 30.85671 36.37778 33.61724
#
# Velocity S-wave (km/s) = 3.82768 4.15603 3.99523
# Velocity P-wave (km/s) = 7.16059 7.42780 7.29542
#
# Compressibility (1/GPa) = 0.01495972
#
# Stress axis : x y z
#
# Youngs Moduli (GPa) = 51.06777 51.06777 98.96847
#
# Poissons Ratio (x) = 0.67581 0.19400
# Poissons Ratio (y) = 0.67581 0.19400
# Poissons Ratio (z) = 0.10011 0.10011
#
# Static dielectric constant tensor:
#      x y z
#    x 3.750440 0.000000 0.000000 
#    y 0.000000 3.750440 0.000000 
#    z 0.000000 0.000000 4.307590 
# 
# 
# High freq. dielectric constant tensor:
#      x y z
#    x 1.817120 0.000000 0.000000 
#    y 0.000000 1.817120 0.000000 
#    z 0.000000 0.000000 1.861970 
# 
# From -- ./inp_files/5048.got.cif
#   From: 2010.03.12/outbox.cif.g09.slc.cpg/sg142_3_cif.got.tgz:5048.got - 2010.04.03 13:27:16.
