data_PCOD8321132
_publ_section_title
;
Structure prediction by ZEFSAII (Michael W. Deem and Ramdas Pophale) SiO2 
 PCOD8321132
Probable space group: I 41/A C D
;
_chemical_formula_sum "Si O2"
_cell_formula_units_Z 64
_cell_length_a 19.119127
_cell_length_b 19.119127
_cell_length_c 7.456507
_cell_angle_alpha 90.000000
_cell_angle_beta 90.000000
_cell_angle_gamma 90.000000
_cell_volume 2725.659154
_symmetry_space_group_name_H-M "I 41/A C D"
_symmetry_group_IT_number 142
_space_group.IT_coordinate_system_code '2'
_symmetry_cell_setting 'tetragonal'
loop_
_space_group_symop_operation_xyz
x,y,z
1/4-y,3/4+x,1/4+z
-x,1/2-y,z
1/4+y,1/4-x,3/4+z
x,-y,1/2-z
1/2-x,y,-z
3/4+y,1/4+x,1/4-z
1/4-y,1/4-x,1/4-z
-x,-y,-z
3/4+y,1/4-x,3/4-z
x,1/2+y,-z
3/4-y,3/4+x,1/4-z
-x,y,1/2+z
1/2+x,-y,z
1/4-y,3/4-x,3/4+z
3/4+y,3/4+x,3/4+z
1/2+x,1/2+y,1/2+z
3/4-y,1/4+x,3/4+z
1/2-x,-y,1/2+z
3/4+y,3/4-x,1/4+z
1/2+x,1/2-y,-z
-x,1/2+y,1/2-z
1/4+y,3/4+x,3/4-z
3/4-y,3/4-x,3/4-z
1/2-x,1/2-y,1/2-z
1/4+y,3/4-x,1/4-z
1/2+x,y,1/2-z
1/4-y,1/4+x,3/4-z
1/2-x,1/2+y,z
x,1/2-y,1/2+z
3/4-y,1/4-x,1/4+z
1/4+y,1/4+x,1/4+z
loop_
_atom_site_type_symbol
_atom_site_label
_atom_site_fract_x
_atom_site_fract_y
_atom_site_fract_z
Si Si1 0.924879 0.666512 0.669379
Si Si2 0.672146 0.951989 0.909137
O O1 0.903593 0.743018 0.603016
O O2 0.880895 0.611192 0.552376
O O3 0.905176 0.655176 0.875000
O O4 0.749404 0.924984 0.840392
O O5 0.641107 0.000000 0.750000
#
# Coordination Sequence:
#
# PCOD8321132 Si02
#       2
#    32  32
#     4  11  23  44  66  95 129 167 215 263 316 379
#     4  10  21  45  65  93 132 164 212 264 313 380
#
# _framework density 23.480557000000001
#
# number of rings (size 3 to 8) (size 9 to 14) (size 15 to 20)
#    0.000    1.500    5.000    3.000    0.000    2.000 
#   36.000    0.000    0.000    0.000    0.000    0.000 
#    0.000    0.000    0.000    0.000    0.000    0.000 
#
# Total GULP energy -396662.328041 kJ/mol
# GULP energy per Si atom -12395.697751 kJ/mol
# Density = 2.342711 g / cm^3
# Si number density = 23.480557 Si / 1000 Ang^3
#
#
#
# Elastic Constant Matrix: (Units=GPa)
#
#
# Indices 1 2 3 4 5 6 
#
# 1 141.2213 146.0771 28.0462 0.0000 0.0000 0.0000
# 2 146.0771 141.2213 28.0462 0.0000 0.0000 0.0000
# 3 28.0462 28.0462 151.5668 0.0000 0.0000 0.0000
# 4 0.0000 0.0000 0.0000 17.0482 0.0000 0.0000
# 5 0.0000 0.0000 0.0000 0.0000 17.0482 0.0000
# 6 0.0000 0.0000 0.0000 0.0000 0.0000 72.3496
#
#
#
# Elastic Compliance Matrix: (Units=1/GPa)
#
#
# Indices 1 2 3 4 5 6 
#
# 1 -0.101164 0.104775 -0.000668 0.000000 0.000000 0.000000
# 2 0.104775 -0.101164 -0.000668 0.000000 0.000000 0.000000
# 3 -0.000668 -0.000668 0.006845 0.000000 0.000000 0.000000
# 4 0.000000 0.000000 0.000000 0.058657 0.000000 0.000000
# 5 0.000000 0.000000 0.000000 0.000000 0.058657 0.000000
# 6 0.000000 0.000000 0.000000 0.000000 0.000000 0.013822
#
#
# Mechanical properties :
#
#
# Convention : Reuss Voigt Hill
#
# Bulk Modulus (GPa) = 87.76158 93.14984 90.45571
# Shear Modulus (GPa) = -18.69679 36.74521 9.02421
#
# Velocity S-wave (km/s) = -2.82488 3.96020 1.96255
# Velocity P-wave (km/s) = 5.17856 7.78897 6.61383
#
# Compressibility (1/GPa) = 0.01139451
#
# Stress axis : x y z
#
# Youngs Moduli (GPa) = -9.88495 -9.88495 146.09107
#
# Poissons Ratio (x) = 1.03570 0.09762
# Poissons Ratio (y) = 1.03570 0.09762
# Poissons Ratio (z) = -0.00661 -0.00661
#
# Static dielectric constant tensor:
#      x y z
#    x 4.123570 0.000000 0.000000 
#    y 0.000000 4.123570 0.000000 
#    z 0.000000 0.000000 4.735420 
# 
# 
# High freq. dielectric constant tensor:
#      x y z
#    x 1.923540 0.000000 0.000000 
#    y 0.000000 1.923540 0.000000 
#    z 0.000000 0.000000 1.971620 
# 
# From -- ./inp_files/1276.got.cif
#   From: 2010.03.12/outbox.cif.g09.slc.cpg/sg142_1_cif.got.tgz:1276.got - 2010.04.03 13:27:16.
