data_PCOD8321394
_publ_section_title
;
Structure prediction by ZEFSAII (Michael W. Deem and Ramdas Pophale) SiO2 
 PCOD8321394
Probable space group: P 31
;
_chemical_formula_sum "Si O2"
_cell_formula_units_Z 24
_cell_length_a 8.941963
_cell_length_b 8.941963
_cell_length_c 16.482006
_cell_angle_alpha 90.000000
_cell_angle_beta 90.000000
_cell_angle_gamma 120.000000
_cell_volume 1141.317395
_symmetry_space_group_name_H-M "P 31"
_symmetry_group_IT_number 144
_symmetry_cell_setting 'hexagonal'
loop_
_space_group_symop_operation_xyz
x,y,z
-y,x-y,1/3+z
-x+y,-x,2/3+z
loop_
_atom_site_type_symbol
_atom_site_label
_atom_site_fract_x
_atom_site_fract_y
_atom_site_fract_z
Si Si1 0.141823 0.595323 0.178490
Si Si2 0.429723 0.906432 0.549116
Si Si3 0.400132 0.374088 0.673127
Si Si4 0.228488 0.964363 0.411630
Si Si5 0.278257 0.922395 0.083845
Si Si6 0.009682 0.930027 0.807393
Si Si7 0.757873 0.016108 0.627559
Si Si8 0.998295 0.331900 0.039643
O O1 0.292234 0.556283 0.203278
O O2 0.002108 0.555100 0.248716
O O3 0.240000 0.798349 0.160571
O O4 0.028850 0.485009 0.101095
O O5 0.304241 0.891651 0.623551
O O6 0.377211 0.963914 0.466376
O O7 0.623986 0.052450 0.576589
O O8 0.538890 0.519148 0.732258
O O9 0.211949 0.342827 0.695217
O O10 0.414859 0.203330 0.683672
O O11 0.308859 0.124606 0.349069
O O12 0.097989 0.987654 0.470217
O O13 0.230511 0.066498 0.106892
O O14 0.159798 0.804904 0.010514
O O15 0.027063 0.902225 0.902020
O O16 0.153192 0.928802 0.751099
#
# Coordination Sequence:
#
# PCOD8321394 Si02
#       8
#     3   3   3   3   3   3   3   3
#     4  12  22  45  70  94 136 178 230 276 341 414
#     4  12  24  42  71  97 138 180 237 276 339 411
#     4  11  23  44  69  99 135 172 232 284 340 408
#     4  10  25  40  70 102 132 182 231 277 348 415
#     4  11  22  41  68  98 125 176 223 271 332 408
#     4  10  23  43  67  97 139 173 227 270 345 411
#     4  11  22  44  69  94 133 182 224 277 343 403
#     4  11  25  43  66 103 134 185 224 285 350 404
#
# _framework density 21.028331999999999
#
# number of rings (size 3 to 8) (size 9 to 14) (size 15 to 20)
#    0.000    1.000    5.000    0.750    8.750    0.000 
#    4.500    0.000    0.000    0.000    0.000    0.000 
#    0.000    0.000    0.000    0.000    0.000    0.000 
#
# Total GULP energy -297578.962810 kJ/mol
# GULP energy per Si atom -12399.123450 kJ/mol
# Density = 2.098047 g / cm^3
# Si number density = 21.028332 Si / 1000 Ang^3
#
#
#
# Elastic Constant Matrix: (Units=GPa)
#
#
# Indices 1 2 3 4 5 6 
#
# 1 85.4071 40.8334 41.6995 3.2219 0.6334 0.0000
# 2 40.8334 85.4071 41.6995 -3.2219 -0.6334 0.0000
# 3 41.6995 41.6995 101.0062 0.0000 0.0000 0.0000
# 4 3.2219 -3.2219 0.0000 40.3519 0.0000 -0.6334
# 5 0.6334 -0.6334 0.0000 0.0000 40.3519 3.2219
# 6 0.0000 0.0000 0.0000 -0.6334 3.2219 22.2868
#
#
#
# Elastic Compliance Matrix: (Units=1/GPa)
#
#
# Indices 1 2 3 4 5 6 
#
# 1 0.016800 -0.005907 -0.004497 -0.001813 -0.000356 0.000000
# 2 -0.005907 0.016800 -0.004497 0.001813 0.000356 0.000000
# 3 -0.004497 -0.004497 0.013613 0.000000 0.000000 0.000000
# 4 -0.001813 0.001813 0.000000 0.025083 0.000000 0.000713
# 5 -0.000356 0.000356 0.000000 0.000000 0.025083 -0.003626
# 6 0.000000 0.000000 0.000000 0.000713 -0.003626 0.045414
#
#
# Mechanical properties :
#
#
# Convention : Reuss Voigt Hill
#
# Bulk Modulus (GPa) = 57.43631 57.80945 57.62288
# Shear Modulus (GPa) = 28.02739 30.43732 29.23235
#
# Velocity S-wave (km/s) = 3.65477 3.80866 3.73250
# Velocity P-wave (km/s) = 6.72182 6.84778 6.78509
#
# Compressibility (1/GPa) = 0.01741059
#
# Stress axis : x y z
#
# Youngs Moduli (GPa) = 59.52548 59.52548 73.45809
#
# Poissons Ratio (x) = 0.35164 0.33032
# Poissons Ratio (y) = 0.35164 0.33032
# Poissons Ratio (z) = 0.26767 0.26767
#
# Static dielectric constant tensor:
#      x y z
#    x 3.815430 0.000000 0.000000 
#    y 0.000000 3.815430 0.000000 
#    z 0.000000 0.000000 3.948610 
# 
# 
# High freq. dielectric constant tensor:
#      x y z
#    x 1.818830 0.000000 0.000000 
#    y 0.000000 1.818830 0.000000 
#    z 0.000000 0.000000 1.837390 
# 
# From -- ./inp_files/819.got.cif
#   From: 2010.03.12/outbox.cif.g09.slc.cpg/sg144_cif.got.tgz:819.got - 2010.04.03 13:34:42.
