data_PCOD8321471
_publ_section_title
;
Structure prediction by ZEFSAII (Michael W. Deem and Ramdas Pophale) SiO2 
 PCOD8321471
Probable space group: P 32
;
_chemical_formula_sum "Si O2"
_cell_formula_units_Z 24
_cell_length_a 15.488839
_cell_length_b 15.488839
_cell_length_c 5.229769
_cell_angle_alpha 90.000000
_cell_angle_beta 90.000000
_cell_angle_gamma 120.000000
_cell_volume 1086.552884
_symmetry_space_group_name_H-M "P 32"
_symmetry_group_IT_number 145
_symmetry_cell_setting 'hexagonal'
loop_
_space_group_symop_operation_xyz
x,y,z
-y,x-y,2/3+z
-x+y,-x,1/3+z
loop_
_atom_site_type_symbol
_atom_site_label
_atom_site_fract_x
_atom_site_fract_y
_atom_site_fract_z
Si Si1 0.690627 0.939142 0.229130
Si Si2 0.968472 0.631601 0.395249
Si Si3 0.775466 0.766352 0.619762
Si Si4 0.057527 0.102292 0.699405
Si Si5 0.477614 0.048795 0.803384
Si Si6 0.085242 0.344404 0.445993
Si Si7 0.756949 0.337902 0.203612
Si Si8 0.757632 0.573541 0.488136
O O1 0.800629 0.961826 0.300366
O O2 0.618275 0.819115 0.181348
O O3 0.643979 0.968886 0.467021
O O4 0.703519 0.995711 0.963950
O O5 0.980972 0.542322 0.517666
O O6 0.854740 0.600023 0.316937
O O7 0.875484 0.874205 0.595707
O O8 0.729895 0.747877 0.333921
O O9 0.788850 0.670704 0.670013
O O10 0.708964 0.774855 0.839247
O O11 0.983064 0.063963 0.457817
O O12 0.517989 0.123322 0.560875
O O13 0.375097 0.944732 0.752288
O O14 0.460833 0.113282 0.017666
O O15 0.695399 0.279862 0.456256
O O16 0.734533 0.255511 0.986307
#
# Coordination Sequence:
#
# PCOD8321471 Si02
#       8
#     3   3   3   3   3   3   3   3
#     4  11  27  46  66 101 141 183 227 293 353 402
#     4  12  27  43  71 102 144 179 228 289 344 407
#     4  10  22  39  64  91 126 176 231 277 326 404
#     4  11  26  40  65  94 136 185 235 284 341 410
#     4  11  25  44  68 100 130 187 235 279 345 417
#     4  10  22  45  70  91 130 175 232 283 337 410
#     4  12  23  39  61  96 143 179 229 279 337 404
#     4  11  24  40  65  95 138 184 227 272 339 410
#
# _framework density 22.088201999999999
#
# number of rings (size 3 to 8) (size 9 to 14) (size 15 to 20)
#    0.000    1.000    1.250    5.250   12.250    0.000 
#    0.000    0.000    0.000    1.500    0.000    0.000 
#    0.000    0.000    0.000    0.000    0.000    0.000 
#
# Total GULP energy -297378.935070 kJ/mol
# GULP energy per Si atom -12390.788961 kJ/mol
# Density = 2.203793 g / cm^3
# Si number density = 22.088202 Si / 1000 Ang^3
#
#
#
# Elastic Constant Matrix: (Units=GPa)
#
#
# Indices 1 2 3 4 5 6 
#
# 1 110.0818 45.9327 25.6255 1.3499 3.2840 0.0000
# 2 45.9327 110.0818 25.6255 -1.3499 -3.2840 0.0000
# 3 25.6255 25.6255 95.2000 0.0000 0.0000 0.0000
# 4 1.3499 -1.3499 0.0000 30.6113 0.0000 -3.2840
# 5 3.2840 -3.2840 0.0000 0.0000 30.6113 1.3499
# 6 0.0000 0.0000 0.0000 -3.2840 1.3499 32.0745
#
#
#
# Elastic Compliance Matrix: (Units=1/GPa)
#
#
# Indices 1 2 3 4 5 6 
#
# 1 0.011411 -0.004380 -0.001893 -0.000696 -0.001694 0.000000
# 2 -0.004380 0.011411 -0.001893 0.000696 0.001694 0.000000
# 3 -0.001893 -0.001893 0.011523 0.000000 0.000000 0.000000
# 4 -0.000696 0.000696 0.000000 0.033093 0.000000 0.003388
# 5 -0.001694 0.001694 0.000000 0.000000 0.033093 -0.001393
# 6 0.000000 0.000000 0.000000 0.003388 -0.001393 0.031583
#
#
# Mechanical properties :
#
#
# Convention : Reuss Voigt Hill
#
# Bulk Modulus (GPa) = 55.50864 56.63679 56.07271
# Shear Modulus (GPa) = 32.37297 33.20476 32.78887
#
# Velocity S-wave (km/s) = 3.83250 3.88142 3.85704
# Velocity P-wave (km/s) = 6.69097 6.76640 6.72879
#
# Compressibility (1/GPa) = 0.01801521
#
# Stress axis : x y z
#
# Youngs Moduli (GPa) = 87.63140 87.63140 86.78200
#
# Poissons Ratio (x) = 0.38383 0.16425
# Poissons Ratio (y) = 0.38383 0.16425
# Poissons Ratio (z) = 0.16586 0.16586
#
# Static dielectric constant tensor:
#      x y z
#    x 4.268150 0.000000 0.000000 
#    y 0.000000 4.268150 0.000000 
#    z 0.000000 0.000000 3.875930 
# 
# 
# High freq. dielectric constant tensor:
#      x y z
#    x 1.857900 0.000000 0.000000 
#    y 0.000000 1.857900 0.000000 
#    z 0.000000 0.000000 1.876090 
# 
# From -- ./inp_files/169.got.cif
#   From: 2010.03.12/outbox.cif.g09.slc.cpg/sg145_cif.got.tgz:169.got - 2010.04.03 13:35:35.
