data_PCOD8321893
_publ_section_title
;
Structure prediction by ZEFSAII (Michael W. Deem and Ramdas Pophale) SiO2 
 PCOD8321893
Probable space group: P 3 2 1
;
_chemical_formula_sum "Si O2"
_cell_formula_units_Z 34
_cell_length_a 11.528607
_cell_length_b 11.528607
_cell_length_c 14.059536
_cell_angle_alpha 90.000000
_cell_angle_beta 90.000000
_cell_angle_gamma 120.000000
_cell_volume 1618.286046
_symmetry_space_group_name_H-M "P 3 2 1"
_symmetry_group_IT_number 150
_symmetry_cell_setting 'hexagonal'
loop_
_space_group_symop_operation_xyz
x,y,z
-y,x-y,z
-x+y,-x,z
x-y,-y,-z
-x,-x+y,-z
y,x,-z
loop_
_atom_site_type_symbol
_atom_site_label
_atom_site_fract_x
_atom_site_fract_y
_atom_site_fract_z
Si Si1 0.694174 0.617412 0.405269
Si Si2 0.666667 0.333333 0.197591
Si Si3 0.266139 0.011592 0.207666
Si Si4 0.333333 0.666668 0.036213
Si Si5 0.545697 0.493598 0.900057
Si Si6 0.465915 0.351292 0.335790
Si Si7 0.269847 0.279001 0.186420
O O1 0.693657 0.693657 0.500000
O O2 0.748758 0.727804 0.321963
O O3 0.544704 0.494816 0.385504
O O4 0.793506 0.555924 0.413083
O O5 0.536840 0.333694 0.240399
O O6 0.666668 0.333334 0.081188
O O7 0.403678 0.014616 0.178337
O O8 0.135267 0.877457 0.174744
O O9 0.262323 0.138068 0.162087
O O10 0.205372 0.549293 0.087028
O O11 0.395489 0.372496 0.883552
O O12 0.559341 0.559341 0.000000
O O13 0.324075 0.326491 0.294807
#
# Coordination Sequence:
#
# PCOD8321893 Si02
#       7
#     6   2   6   2   6   6   6
#     4  10  21  38  62  97 128 163 220 262 324 391
#     4   9  18  36  63  94 122 172 225 267 312 397
#     4  11  25  45  66  96 131 175 219 266 331 395
#     4  12  24  39  66 100 134 163 231 270 333 388
#     4  12  26  41  66 100 130 169 219 277 327 385
#     4   9  19  37  64  88 127 174 215 264 324 380
#     4  11  23  44  66  92 131 176 214 269 325 394
#
# _framework density 21.009882000000001
#
# number of rings (size 3 to 8) (size 9 to 14) (size 15 to 20)
#    0.000    1.412    3.529    1.765    7.412    1.412 
#    1.059    2.647    0.000    2.118    0.000    0.000 
#    0.000    0.000    0.000    0.000    0.000    0.000 
#
# Total GULP energy -421357.902923 kJ/mol
# GULP energy per Si atom -12392.879498 kJ/mol
# Density = 2.096206 g / cm^3
# Si number density = 21.009882 Si / 1000 Ang^3
#
#
#
# Elastic Constant Matrix: (Units=GPa)
#
#
# Indices 1 2 3 4 5 6 
#
# 1 100.0829 31.1139 21.3605 0.0301 0.0000 0.0000
# 2 31.1139 100.0836 21.3609 -0.0301 0.0000 0.0000
# 3 21.3605 21.3609 89.0378 -0.0003 0.0000 0.0000
# 4 0.0301 -0.0301 -0.0003 25.3148 0.0000 0.0000
# 5 0.0000 0.0000 0.0000 0.0000 25.3148 0.0302
# 6 0.0000 0.0000 0.0000 0.0000 0.0302 34.4845
#
#
#
# Elastic Compliance Matrix: (Units=1/GPa)
#
#
# Indices 1 2 3 4 5 6 
#
# 1 0.011384 -0.003116 -0.001984 -0.000017 0.000000 0.000000
# 2 -0.003116 0.011384 -0.001984 0.000017 0.000000 0.000000
# 3 -0.001984 -0.001984 0.012183 0.000000 0.000000 0.000000
# 4 -0.000017 0.000017 0.000000 0.039503 0.000000 0.000000
# 5 0.000000 0.000000 0.000000 0.000000 0.039503 -0.000035
# 6 0.000000 0.000000 0.000000 0.000000 -0.000035 0.028999
#
#
# Mechanical properties :
#
#
# Convention : Reuss Voigt Hill
#
# Bulk Modulus (GPa) = 48.11220 48.54167 48.32694
# Shear Modulus (GPa) = 30.47898 31.38076 30.92987
#
# Velocity S-wave (km/s) = 3.81293 3.86893 3.84103
# Velocity P-wave (km/s) = 6.50647 6.56601 6.53631
#
# Compressibility (1/GPa) = 0.02078475
#
# Stress axis : x y z
#
# Youngs Moduli (GPa) = 87.84532 87.84584 82.08218
#
# Poissons Ratio (x) = 0.27369 0.16281
# Poissons Ratio (y) = 0.27369 0.16282
# Poissons Ratio (z) = 0.17424 0.17425
#
# Static dielectric constant tensor:
#      x y z
#    x 3.849900 0.000000 0.000000 
#    y 0.000000 3.849880 0.000000 
#    z 0.000000 0.000000 3.453110 
# 
# 
# High freq. dielectric constant tensor:
#      x y z
#    x 1.829320 0.000000 0.000000 
#    y 0.000000 1.829320 0.000000 
#    z 0.000000 0.000000 1.795400 
# 
# From -- ./inp_files/1036.got.cif
#   From: 2010.03.12/outbox.cif.g09.slc.cpg/sg150_cif.got.tgz:1036.got - 2010.04.03 13:41:37.
