data_PCOD8321065
_publ_section_title
;
Structure prediction by ZEFSAII (Michael W. Deem and Ramdas Pophale) SiO2 
 PCOD8321065
Probable space group: I 41/A C D
;
_chemical_formula_sum "Si O2"
_cell_formula_units_Z 160
_cell_length_a 18.192236
_cell_length_b 18.192236
_cell_length_c 24.794248
_cell_angle_alpha 90.000000
_cell_angle_beta 90.000000
_cell_angle_gamma 90.000000
_cell_volume 8205.841110
_symmetry_space_group_name_H-M "I 41/A C D"
_symmetry_group_IT_number 142
_space_group.IT_coordinate_system_code '2'
_symmetry_cell_setting 'tetragonal'
loop_
_space_group_symop_operation_xyz
x,y,z
1/4-y,3/4+x,1/4+z
-x,1/2-y,z
1/4+y,1/4-x,3/4+z
x,-y,1/2-z
1/2-x,y,-z
3/4+y,1/4+x,1/4-z
1/4-y,1/4-x,1/4-z
-x,-y,-z
3/4+y,1/4-x,3/4-z
x,1/2+y,-z
3/4-y,3/4+x,1/4-z
-x,y,1/2+z
1/2+x,-y,z
1/4-y,3/4-x,3/4+z
3/4+y,3/4+x,3/4+z
1/2+x,1/2+y,1/2+z
3/4-y,1/4+x,3/4+z
1/2-x,-y,1/2+z
3/4+y,3/4-x,1/4+z
1/2+x,1/2-y,-z
-x,1/2+y,1/2-z
1/4+y,3/4+x,3/4-z
3/4-y,3/4-x,3/4-z
1/2-x,1/2-y,1/2-z
1/4+y,3/4-x,1/4-z
1/2+x,y,1/2-z
1/4-y,1/4+x,3/4-z
1/2-x,1/2+y,z
x,1/2-y,1/2+z
3/4-y,1/4-x,1/4+z
1/4+y,1/4+x,1/4+z
loop_
_atom_site_type_symbol
_atom_site_label
_atom_site_fract_x
_atom_site_fract_y
_atom_site_fract_z
Si Si1 0.234044 0.895171 0.624365
Si Si2 0.807379 0.714617 0.539241
Si Si3 0.422572 0.709128 0.261867
Si Si4 0.323491 0.815780 0.864672
Si Si5 0.789307 0.764917 0.805191
O O1 0.237261 0.852378 0.567490
O O2 0.149324 0.917550 0.632445
O O3 0.264134 0.844210 0.672465
O O4 0.280919 0.969082 0.625000
O O5 0.750000 0.755750 0.500000
O O6 0.872932 0.685113 0.501913
O O7 0.842909 0.769132 0.582517
O O8 0.500000 0.750000 0.265413
O O9 0.378048 0.714865 0.318385
O O10 0.376385 0.737728 0.209389
O O11 0.238486 0.798397 0.846905
O O12 0.750000 0.750000 0.750000
#
# Coordination Sequence:
#
# PCOD8321065 Si02
#       5
#    32  32  32  32  32
#     4  10  20  38  63  80 113 165 202 240 309 372
#     4  10  21  36  56  87 118 150 203 251 294 363
#     4  10  21  34  62  88 116 159 198 250 310 362
#     4   9  21  37  58  89 120 153 202 259 294 366
#     4   9  19  37  56  86 124 148 194 257 306 355
#
# _framework density 19.498304999999998
#
# number of rings (size 3 to 8) (size 9 to 14) (size 15 to 20)
#    0.000    2.400    0.000    1.200   11.200    0.000 
#    3.600    3.000    0.000    4.800    0.000    0.000 
#    0.000    0.000    0.000    0.000    0.000    0.000 
#
# Total GULP energy -991141.624557 kJ/mol
# GULP energy per Si atom -12389.270307 kJ/mol
# Density = 1.945393 g / cm^3
# Si number density = 19.498305 Si / 1000 Ang^3
#
#
#
# Elastic Constant Matrix: (Units=GPa)
#
#
# Indices 1 2 3 4 5 6 
#
# 1 117.1146 62.7783 42.0448 0.0000 0.0000 0.0000
# 2 62.7783 117.1110 42.0441 0.0000 0.0000 0.0000
# 3 42.0448 42.0441 48.3938 0.0000 0.0000 0.0000
# 4 0.0000 0.0000 0.0000 21.0165 0.0000 0.0000
# 5 0.0000 0.0000 0.0000 0.0000 21.0153 0.0000
# 6 0.0000 0.0000 0.0000 0.0000 0.0000 27.3308
#
#
#
# Elastic Compliance Matrix: (Units=1/GPa)
#
#
# Indices 1 2 3 4 5 6 
#
# 1 0.013882 -0.004522 -0.008132 0.000000 0.000000 0.000000
# 2 -0.004522 0.013883 -0.008132 0.000000 0.000000 0.000000
# 3 -0.008132 -0.008132 0.034794 0.000000 0.000000 0.000000
# 4 0.000000 0.000000 0.000000 0.047582 0.000000 0.000000
# 5 0.000000 0.000000 0.000000 0.000000 0.047584 0.000000
# 6 0.000000 0.000000 0.000000 0.000000 0.000000 0.036589
#
#
# Mechanical properties :
#
#
# Convention : Reuss Voigt Hill
#
# Bulk Modulus (GPa) = 47.65067 64.03929 55.84498
# Shear Modulus (GPa) = 20.58610 22.92265 21.75437
#
# Velocity S-wave (km/s) = 3.25282 3.43245 3.34384
# Velocity P-wave (km/s) = 6.21282 6.97308 6.60390
#
# Compressibility (1/GPa) = 0.02098606
#
# Stress axis : x y z
#
# Youngs Moduli (GPa) = 72.03486 72.03276 28.74040
#
# Poissons Ratio (x) = 0.32574 0.23372
# Poissons Ratio (y) = 0.32575 0.23372
# Poissons Ratio (z) = 0.58580 0.58579
#
# Static dielectric constant tensor:
#      x y z
#    x 3.693630 0.000000 0.000000 
#    y 0.000000 3.693620 0.000000 
#    z 0.000000 0.000000 3.683290 
# 
# 
# High freq. dielectric constant tensor:
#      x y z
#    x 1.755310 0.000000 0.000000 
#    y 0.000000 1.755310 0.000000 
#    z 0.000000 0.000000 1.751680 
# 
# From -- ./inp_files/11276.got.cif
#   From: 2010.03.12/outbox.cif.g09.slc.cpg/sg142_6_cif.got.tgz:11276.got - 2010.04.03 13:27:16.
