data_PCOD8321866
_publ_section_title
;
Structure prediction by ZEFSAII (Michael W. Deem and Ramdas Pophale) SiO2 
 PCOD8321866
Probable space group: P 3 1 2
;
_chemical_formula_sum "Si O2"
_cell_formula_units_Z 30
_cell_length_a 13.446491
_cell_length_b 13.446491
_cell_length_c 12.667825
_cell_angle_alpha 90.000000
_cell_angle_beta 90.000000
_cell_angle_gamma 120.000000
_cell_volume 1983.584098
_symmetry_space_group_name_H-M "P 3 1 2"
_symmetry_group_IT_number 149
_symmetry_cell_setting 'hexagonal'
loop_
_space_group_symop_operation_xyz
x,y,z
-y,x-y,z
-x+y,-x,z
-y,-x,-z
-x+y,y,-z
x,x-y,-z
loop_
_atom_site_type_symbol
_atom_site_label
_atom_site_fract_x
_atom_site_fract_y
_atom_site_fract_z
Si Si1 0.768315 0.002783 0.229262
Si Si2 0.562199 0.895872 0.378063
Si Si3 0.223968 0.001638 0.000000
Si Si4 0.104128 0.437801 0.378063
Si Si5 0.768315 0.002784 0.770738
O O1 0.730234 0.021989 0.111129
O O2 0.885894 0.114105 0.265438
O O3 0.669655 0.986571 0.309665
O O4 0.788498 0.894249 0.230473
O O5 0.533548 0.766774 0.355155
O O6 0.452229 0.904459 0.344121
O O7 0.593616 0.928220 0.500000
O O8 0.168685 0.084343 0.000000
O O9 0.291755 0.021990 0.111129
O O10 0.128677 0.871323 0.000000
O O11 0.013428 0.330345 0.309665
#
# Coordination Sequence:
#
# PCOD8321866 Si02
#       5
#     6   6   6   6   6
#     4   9  16  26  42  64  88 111 134 163 201 244
#     4   9  17  29  44  60  79 107 142 175 204 237
#     4   8  13  22  37  58  84 112 138 160 188 234
#     4   9  17  29  44  60  79 107 142 175 204 237
#     4   9  16  26  42  64  88 111 134 163 201 244
#
# _framework density 15.124138
#
# number of rings (size 3 to 8) (size 9 to 14) (size 15 to 20)
#    0.000    3.200    0.000    1.000    0.000    5.600 
#    0.000    1.000    0.000    3.200    0.000    2.800 
#    0.000    0.000    0.000    0.000    0.000    0.000 
#
# Total GULP energy -371650.160212 kJ/mol
# GULP energy per Si atom -12388.338674 kJ/mol
# Density = 1.508971 g / cm^3
# Si number density = 15.124138 Si / 1000 Ang^3
#
#
#
# Elastic Constant Matrix: (Units=GPa)
#
#
# Indices 1 2 3 4 5 6 
#
# 1 83.0005 38.8438 57.9283 0.0000 0.0000 0.0000
# 2 38.8438 83.0005 57.9283 0.0000 0.0000 0.0000
# 3 57.9283 57.9283 100.7074 0.0000 0.0000 0.0000
# 4 0.0000 0.0000 0.0000 21.4977 0.0000 0.0000
# 5 0.0000 0.0000 0.0000 0.0000 21.4977 0.0000
# 6 0.0000 0.0000 0.0000 0.0000 0.0000 22.0784
#
#
#
# Elastic Compliance Matrix: (Units=1/GPa)
#
#
# Indices 1 2 3 4 5 6 
#
# 1 0.020381 -0.002266 -0.010420 0.000000 0.000000 0.000000
# 2 -0.002266 0.020381 -0.010420 0.000000 0.000000 0.000000
# 3 -0.010420 -0.010420 0.021917 0.000000 0.000000 0.000000
# 4 0.000000 0.000000 0.000000 0.046517 0.000000 0.000000
# 5 0.000000 0.000000 0.000000 0.000000 0.046517 0.000000
# 6 0.000000 0.000000 0.000000 0.000000 0.000000 0.045293
#
#
# Mechanical properties :
#
#
# Convention : Reuss Voigt Hill
#
# Bulk Modulus (GPa) = 60.72635 64.01216 62.36926
# Shear Modulus (GPa) = 19.78577 20.48195 20.13386
#
# Velocity S-wave (km/s) = 3.62086 3.68401 3.65257
# Velocity P-wave (km/s) = 7.59737 7.77897 7.68870
#
# Compressibility (1/GPa) = 0.01646732
#
# Stress axis : x y z
#
# Youngs Moduli (GPa) = 49.06538 49.06538 45.62574
#
# Poissons Ratio (x) = 0.11116 0.47543
# Poissons Ratio (y) = 0.11116 0.47543
# Poissons Ratio (z) = 0.51127 0.51127
#
# Static dielectric constant tensor:
#      x y z
#    x 2.684060 0.000000 0.000000 
#    y 0.000000 2.684060 0.000000 
#    z 0.000000 0.000000 3.272590 
# 
# 
# High freq. dielectric constant tensor:
#      x y z
#    x 1.550970 0.000000 0.000000 
#    y 0.000000 1.550970 0.000000 
#    z 0.000000 0.000000 1.595660 
# 
# From -- ./inp_files/979.got.cif
#   From: 2010.03.12/outbox.cif.g09.slc.cpg/sg149_cif.got.tgz:979.got - 2010.04.03 13:40:41.
