data_PCOD8321495
_publ_section_title
;
Structure prediction by ZEFSAII (Michael W. Deem and Ramdas Pophale) SiO2 
 PCOD8321495
Probable space group: P 32
;
_chemical_formula_sum "Si O2"
_cell_formula_units_Z 15
_cell_length_a 8.543086
_cell_length_b 8.543086
_cell_length_c 8.867873
_cell_angle_alpha 90.000000
_cell_angle_beta 90.000000
_cell_angle_gamma 120.000000
_cell_volume 560.505209
_symmetry_space_group_name_H-M "P 32"
_symmetry_group_IT_number 145
_symmetry_cell_setting 'hexagonal'
loop_
_space_group_symop_operation_xyz
x,y,z
-y,x-y,2/3+z
-x+y,-x,1/3+z
loop_
_atom_site_type_symbol
_atom_site_label
_atom_site_fract_x
_atom_site_fract_y
_atom_site_fract_z
Si Si1 0.760501 0.120812 0.394790
Si Si2 0.000142 0.365553 0.153142
Si Si3 0.639689 0.879188 0.045102
Si Si4 0.634589 0.634447 0.286750
Si Si5 0.157682 0.000000 0.219946
O O1 0.817394 0.182164 0.218274
O O2 0.549343 0.028790 0.415876
O O3 0.853177 0.310494 0.487350
O O4 0.859627 0.021170 0.475034
O O5 0.146823 0.457317 0.285874
O O6 0.084525 0.305596 0.018448
O O7 0.520553 0.971210 0.024016
O O8 0.635230 0.817836 0.221618
O O9 0.838457 0.978830 0.964857
O O10 0.778929 0.694404 0.421444
#
# Coordination Sequence:
#
# PCOD8321495 Si02
#       5
#     3   3   3   3   3
#     4  11  29  50  78 121 156 218 266 342 409 496
#     4  11  29  48  83 113 165 204 281 328 420 481
#     4  11  29  50  78 121 156 218 266 342 409 496
#     4  11  29  48  83 113 165 204 281 328 420 481
#     4  12  28  48  84 112 164 214 270 338 410 488
#
# _framework density 26.761569999999999
#
# number of rings (size 3 to 8) (size 9 to 14) (size 15 to 20)
#    0.000    0.800    0.000    2.400   33.600    0.000 
#    0.000    0.000    0.000    0.000    0.000    0.000 
#    0.000    0.000    0.000    0.000    0.000    0.000 
#
# Total GULP energy -185858.830453 kJ/mol
# GULP energy per Si atom -12390.588697 kJ/mol
# Density = 2.670066 g / cm^3
# Si number density = 26.761570 Si / 1000 Ang^3
#
#
#
# Elastic Constant Matrix: (Units=GPa)
#
#
# Indices 1 2 3 4 5 6 
#
# 1 93.5653 22.4337 30.6199 6.8297 0.0000 0.0000
# 2 22.4337 93.5653 30.6199 -6.8297 0.0000 0.0000
# 3 30.6199 30.6199 158.8138 0.0000 0.0000 0.0000
# 4 6.8297 -6.8297 0.0000 23.8083 0.0000 0.0000
# 5 0.0000 0.0000 0.0000 0.0000 23.8083 6.8297
# 6 0.0000 0.0000 0.0000 0.0000 6.8297 35.5658
#
#
#
# Elastic Compliance Matrix: (Units=1/GPa)
#
#
# Indices 1 2 3 4 5 6 
#
# 1 0.012238 -0.002640 -0.001850 -0.004268 0.000000 0.000000
# 2 -0.002640 0.012238 -0.001850 0.004268 0.000000 0.000000
# 3 -0.001850 -0.001850 0.007010 0.000000 0.000000 0.000000
# 4 -0.004268 0.004268 0.000000 0.044451 0.000000 0.000000
# 5 0.000000 0.000000 0.000000 0.000000 0.044451 -0.008536
# 6 0.000000 0.000000 0.000000 0.000000 -0.008536 0.029756
#
#
# Mechanical properties :
#
#
# Convention : Reuss Voigt Hill
#
# Bulk Modulus (GPa) = 53.18092 57.03237 55.10664
# Shear Modulus (GPa) = 29.56940 34.12121 31.84531
#
# Velocity S-wave (km/s) = 3.32764 3.57460 3.45333
# Velocity P-wave (km/s) = 5.88893 6.19634 6.04459
#
# Compressibility (1/GPa) = 0.01880374
#
# Stress axis : x y z
#
# Youngs Moduli (GPa) = 81.71370 81.71370 142.64856
#
# Poissons Ratio (x) = 0.21574 0.26397
# Poissons Ratio (y) = 0.21574 0.26397
# Poissons Ratio (z) = 0.15121 0.15121
#
# Static dielectric constant tensor:
#      x y z
#    x 4.800860 0.000000 0.000000 
#    y 0.000000 4.800860 0.000000 
#    z 0.000000 0.000000 5.438530 
# 
# 
# High freq. dielectric constant tensor:
#      x y z
#    x 2.065410 0.000000 0.000000 
#    y 0.000000 2.065410 0.000000 
#    z 0.000000 0.000000 2.113310 
# 
# From -- ./inp_files/245.got.cif
#   From: 2010.03.12/outbox.cif.g09.slc.cpg/sg145_cif.got.tgz:245.got - 2010.04.03 13:35:35.
