data_PCOD8321942
_publ_section_title
;
Structure prediction by ZEFSAII (Michael W. Deem and Ramdas Pophale) SiO2 
 PCOD8321942
Probable space group: P 31 1 2
;
_chemical_formula_sum "Si O2"
_cell_formula_units_Z 18
_cell_length_a 7.313157
_cell_length_b 7.313157
_cell_length_c 18.071606
_cell_angle_alpha 90.000000
_cell_angle_beta 90.000000
_cell_angle_gamma 120.000000
_cell_volume 837.022582
_symmetry_space_group_name_H-M "P 31 1 2"
_symmetry_group_IT_number 151
_symmetry_cell_setting 'hexagonal'
loop_
_space_group_symop_operation_xyz
x,y,z
-y,x-y,1/3+z
-x+y,-x,2/3+z
-y,-x,2/3-z
-x+y,y,1/3-z
x,x-y,-z
loop_
_atom_site_type_symbol
_atom_site_label
_atom_site_fract_x
_atom_site_fract_y
_atom_site_fract_z
Si Si1 0.291982 0.428572 0.508133
Si Si2 0.648724 0.324362 0.500000
Si Si3 0.523348 0.761674 0.000000
Si Si4 0.685931 0.028532 0.274348
O O1 0.333010 0.666505 0.500000
O O2 0.502157 0.426918 0.483984
O O3 0.219682 0.343539 0.592456
O O4 0.096409 0.267718 0.456588
O O5 0.793022 0.356680 0.428301
O O6 0.374541 0.859650 0.013871
O O7 0.874776 0.125225 0.333334
#
# Coordination Sequence:
#
# PCOD8321942 Si02
#       4
#     6   3   3   6
#     4  10  23  43  64  98 132 169 225 277 330 400
#     4  12  22  44  70  94 128 184 222 266 346 396
#     4  10  18  40  68  90 134 170 212 280 328 390
#     4  11  22  43  67  94 139 175 217 286 331 392
#
# _framework density 21.504798000000001
#
# number of rings (size 3 to 8) (size 9 to 14) (size 15 to 20)
#    0.000    1.333    8.333    0.000    0.000    0.000 
#   18.000    0.000    0.000    0.000    0.000    0.000 
#    0.000    0.000    0.000    0.000    0.000    0.000 
#
# Total GULP energy -223092.728151 kJ/mol
# GULP energy per Si atom -12394.040453 kJ/mol
# Density = 2.145585 g / cm^3
# Si number density = 21.504798 Si / 1000 Ang^3
#
#
#
# Elastic Constant Matrix: (Units=GPa)
#
#
# Indices 1 2 3 4 5 6 
#
# 1 114.0438 37.9553 53.0124 0.0002 1.0191 0.0000
# 2 37.9553 114.0438 53.0124 -0.0002 -1.0191 0.0000
# 3 53.0124 53.0124 177.7481 0.0000 0.0000 0.0000
# 4 0.0002 -0.0002 0.0000 20.9014 0.0000 -1.0191
# 5 1.0191 -1.0191 0.0000 0.0000 20.9014 0.0002
# 6 0.0000 0.0000 0.0000 -1.0191 0.0002 38.0443
#
#
#
# Elastic Compliance Matrix: (Units=1/GPa)
#
#
# Indices 1 2 3 4 5 6 
#
# 1 0.010733 -0.002426 -0.002478 0.000000 -0.000642 0.000000
# 2 -0.002426 0.010733 -0.002478 0.000000 0.000642 0.000000
# 3 -0.002478 -0.002478 0.007104 0.000000 0.000000 0.000000
# 4 0.000000 0.000000 0.000000 0.047906 0.000000 0.001283
# 5 -0.000642 0.000642 0.000000 0.000000 0.047906 0.000000
# 6 0.000000 0.000000 0.000000 0.001283 0.000000 0.026320
#
#
# Mechanical properties :
#
#
# Convention : Reuss Voigt Hill
#
# Bulk Modulus (GPa) = 72.42252 77.08843 74.75548
# Shear Modulus (GPa) = 29.39996 33.42646 31.41321
#
# Velocity S-wave (km/s) = 3.70149 3.94683 3.82613
# Velocity P-wave (km/s) = 7.21239 7.52960 7.37270
#
# Compressibility (1/GPa) = 0.01380786
#
# Stress axis : x y z
#
# Youngs Moduli (GPa) = 93.16647 93.16647 140.77010
#
# Poissons Ratio (x) = 0.22605 0.34877
# Poissons Ratio (y) = 0.22605 0.34877
# Poissons Ratio (z) = 0.23083 0.23083
#
# Static dielectric constant tensor:
#      x y z
#    x 3.751400 0.000000 0.000000 
#    y 0.000000 3.751400 0.000000 
#    z 0.000000 0.000000 4.622250 
# 
# 
# High freq. dielectric constant tensor:
#      x y z
#    x 1.826060 0.000000 0.000000 
#    y 0.000000 1.826060 0.000000 
#    z 0.000000 0.000000 1.866560 
# 
# From -- ./inp_files/3148.got.cif
#   From: 2010.03.12/outbox.cif.g09.slc.cpg/sg151_2_cif.got.tgz:3148.got - 2010.04.03 13:42:29.
