data_PCOD8321610
_publ_section_title
;
Structure prediction by ZEFSAII (Michael W. Deem and Ramdas Pophale) SiO2 
 PCOD8321610
Probable space group: P -3
;
_chemical_formula_sum "Si O2"
_cell_formula_units_Z 42
_cell_length_a 12.615687
_cell_length_b 12.615687
_cell_length_c 17.696002
_cell_angle_alpha 90.000000
_cell_angle_beta 90.000000
_cell_angle_gamma 120.000000
_cell_volume 2439.088740
_symmetry_space_group_name_H-M "P -3"
_symmetry_group_IT_number 147
_symmetry_cell_setting 'hexagonal'
loop_
_space_group_symop_operation_xyz
x,y,z
-y,x-y,z
-x+y,-x,z
-x,-y,-z
y,-x+y,-z
x-y,x,-z
loop_
_atom_site_type_symbol
_atom_site_label
_atom_site_fract_x
_atom_site_fract_y
_atom_site_fract_z
Si Si1 0.580576 0.914071 0.859100
Si Si2 0.912887 0.579315 0.719240
Si Si3 0.999860 0.242917 0.585626
Si Si4 0.580576 0.666505 0.859099
Si Si5 0.756944 0.757083 0.414374
Si Si6 0.420685 0.087113 0.719240
Si Si7 0.247638 0.000000 1.000000
O O1 0.557316 0.778658 0.848345
O O2 0.452593 0.905187 0.877272
O O3 0.670716 0.984219 0.927562
O O4 0.641053 0.988213 0.783233
O O5 0.968954 0.643159 0.639361
O O6 0.879645 0.439823 0.713668
O O7 0.790908 0.581816 0.739892
O O8 1.000000 0.286486 0.500000
O O9 0.130233 0.260467 0.609075
O O10 0.900108 0.099892 0.594229
O O11 0.968954 0.325796 0.639361
O O12 0.641053 0.652841 0.783233
O O13 0.670717 0.686498 0.927562
O O14 0.231379 0.115690 0.985737
#
# Coordination Sequence:
#
# PCOD8321610 Si02
#       7
#     6   6   6   6   6   6   6
#     4  10  20  34  52  73  97 125 158 196 237 280
#     4  10  20  33  49  69  95 127 161 196 234 278
#     4   9  17  30  49  72  96 122 154 194 239 284
#     4  10  20  34  52  73  97 125 158 196 237 280
#     4   9  17  30  49  72  96 122 154 194 239 284
#     4  10  20  33  49  69  95 127 161 196 234 278
#     4  10  20  34  52  74 100 128 158 192 232 278
#
# _framework density 17.219546000000001
#
# number of rings (size 3 to 8) (size 9 to 14) (size 15 to 20)
#    0.000    2.286    0.000    3.143    0.000    1.714 
#    0.000    0.000    0.000   18.857    0.000    0.000 
#    0.000    0.000    0.000    0.000    0.000    0.000 
#
# Total GULP energy -520938.609510 kJ/mol
# GULP energy per Si atom -12403.300226 kJ/mol
# Density = 1.718035 g / cm^3
# Si number density = 17.219546 Si / 1000 Ang^3
#
#
#
# Elastic Constant Matrix: (Units=GPa)
#
#
# Indices 1 2 3 4 5 6 
#
# 1 103.3703 63.8659 65.6125 -4.8454 -0.0001 0.0000
# 2 63.8659 103.3703 65.6125 4.8454 0.0001 0.0000
# 3 65.6125 65.6125 111.6330 0.0000 0.0000 0.0000
# 4 -4.8454 4.8454 0.0000 27.4117 0.0000 0.0001
# 5 -0.0001 0.0001 0.0000 0.0000 27.4117 -4.8454
# 6 0.0000 0.0000 0.0000 0.0001 -4.8454 19.7522
#
#
#
# Elastic Compliance Matrix: (Units=1/GPa)
#
#
# Indices 1 2 3 4 5 6 
#
# 1 0.018779 -0.007682 -0.006523 0.004677 0.000000 0.000000
# 2 -0.007682 0.018779 -0.006523 -0.004677 0.000000 0.000000
# 3 -0.006523 -0.006523 0.016625 0.000000 0.000000 0.000000
# 4 0.004677 -0.004677 0.000000 0.038134 0.000000 0.000000
# 5 0.000000 0.000000 0.000000 0.000000 0.038134 0.009355
# 6 0.000000 0.000000 0.000000 0.000000 0.009355 0.052922
#
#
# Mechanical properties :
#
#
# Convention : Reuss Voigt Hill
#
# Bulk Modulus (GPa) = 78.55453 78.72839 78.64146
# Shear Modulus (GPa) = 21.82717 23.13398 22.48058
#
# Velocity S-wave (km/s) = 3.56417 3.66932 3.61713
# Velocity P-wave (km/s) = 7.91557 7.98570 7.95071
#
# Compressibility (1/GPa) = 0.01273001
#
# Stress axis : x y z
#
# Youngs Moduli (GPa) = 53.24993 53.24993 60.14886
#
# Poissons Ratio (x) = 0.40905 0.39233
# Poissons Ratio (y) = 0.40905 0.39233
# Poissons Ratio (z) = 0.34733 0.34733
#
# Static dielectric constant tensor:
#      x y z
#    x 3.187910 0.000000 0.000000 
#    y 0.000000 3.187910 0.000000 
#    z 0.000000 0.000000 3.347960 
# 
# 
# High freq. dielectric constant tensor:
#      x y z
#    x 1.669600 0.000000 0.000000 
#    y 0.000000 1.669600 0.000000 
#    z 0.000000 0.000000 1.675490 
# 
# From -- ./inp_files/1024.got.cif
#   From: 2010.03.12/outbox.cif.g09.slc.cpg/sg147_cif.got.tgz:1024.got - 2010.04.03 13:37:56.
