data_PCOD8321693
_publ_section_title
;
Structure prediction by ZEFSAII (Michael W. Deem and Ramdas Pophale) SiO2 
 PCOD8321693
Probable space group: R -3
;
_chemical_formula_sum "Si O2"
_cell_formula_units_Z 132
_cell_length_a 23.189007
_cell_length_b 23.189007
_cell_length_c 15.373133
_cell_angle_alpha 90.000000
_cell_angle_beta 90.000000
_cell_angle_gamma 120.000000
_cell_volume 7159.081714
_symmetry_space_group_name_H-M "R -3"
_symmetry_group_IT_number 148
_symmetry_cell_setting 'hexagonal'
loop_
_space_group_symop_operation_xyz
x,y,z
-y,x-y,z
-x+y,-x,z
-x,-y,-z
y,-x+y,-z
x-y,x,-z
2/3+x,1/3+y,1/3+z
2/3-y,1/3+x-y,1/3+z
2/3-x+y,1/3-x,1/3+z
2/3-x,1/3-y,1/3-z
2/3+y,1/3-x+y,1/3-z
2/3+x-y,1/3+x,1/3-z
1/3+x,2/3+y,2/3+z
1/3-y,2/3+x-y,2/3+z
1/3-x+y,2/3-x,2/3+z
1/3-x,2/3-y,2/3-z
1/3+y,2/3-x+y,2/3-z
1/3+x-y,2/3+x,2/3-z
loop_
_atom_site_type_symbol
_atom_site_label
_atom_site_fract_x
_atom_site_fract_y
_atom_site_fract_z
Si Si1 0.544322 0.044559 0.076801
Si Si2 0.549302 0.693845 0.496106
Si Si3 0.000000 0.000000 0.103836
Si Si4 0.851099 0.931482 0.842358
Si Si5 0.900643 0.666769 0.919981
Si Si6 0.585443 0.764573 0.674179
Si Si7 0.696047 0.131538 0.056313
Si Si8 0.384436 0.392770 0.544492
O O1 0.520615 0.095452 0.105238
O O2 0.618157 0.086565 0.039672
O O3 0.538954 0.996569 0.156661
O O4 0.500000 0.000000 0.000000
O O5 0.471633 0.647117 0.479591
O O6 0.562179 0.711406 0.597210
O O7 0.589574 0.658423 0.464985
O O8 0.071880 0.016206 0.139236
O O9 0.000000 0.000000 0.000000
O O10 0.824906 0.957170 0.762796
O O11 0.810379 0.925389 0.929358
O O12 0.895855 0.724048 0.973508
O O13 0.977419 0.687356 0.917182
O O14 0.858768 0.594342 0.965612
O O15 0.647501 0.765577 0.722944
O O16 0.720841 0.092938 0.119113
#
# Coordination Sequence:
#
# PCOD8321693 Si02
#       8
#    18  18   6  18  18  18  18  18
#     4  10  22  38  56  80 110 140 178 229 276 319
#     4  11  21  34  54  79 107 141 180 221 270 324
#     4  12  24  36  54  78 108 151 191 229 282 336
#     4  11  22  36  54  78 110 144 182 223 268 327
#     4  10  20  35  55  79 108 144 181 220 270 325
#     4  10  20  34  52  79 111 143 178 221 266 318
#     4  10  20  36  54  77 109 144 179 220 270 327
#     4  10  19  31  53  80 109 143 179 218 266 324
#
# _framework density 18.438117999999999
#
# number of rings (size 3 to 8) (size 9 to 14) (size 15 to 20)
#    0.000    1.636    0.000    5.727    0.000    7.636 
#    0.000    1.364    0.000    0.000    0.000    0.000 
#    0.000    3.273    0.000    0.000    0.000    0.000 
#
# Total GULP energy -545750.059021 kJ/mol
# GULP energy per Si atom -12403.410432 kJ/mol
# Density = 1.839615 g / cm^3
# Si number density = 18.438118 Si / 1000 Ang^3
#
#
#
# Elastic Constant Matrix: (Units=GPa)
#
#
# Indices 1 2 3 4 5 6 
#
# 1 102.2287 34.8146 53.7320 3.7679 -2.6547 0.0000
# 2 34.8146 102.2287 53.7320 -3.7679 2.6547 0.0000
# 3 53.7320 53.7320 95.6670 0.0000 0.0000 0.0000
# 4 3.7679 -3.7679 0.0000 26.5766 0.0000 2.6547
# 5 -2.6547 2.6547 0.0000 0.0000 26.5766 3.7679
# 6 0.0000 0.0000 0.0000 2.6547 3.7679 33.7070
#
#
#
# Elastic Compliance Matrix: (Units=1/GPa)
#
#
# Indices 1 2 3 4 5 6 
#
# 1 0.014117 -0.001077 -0.007324 -0.002154 0.001518 0.000000
# 2 -0.001077 0.014117 -0.007324 0.002154 -0.001518 0.000000
# 3 -0.007324 -0.007324 0.018680 0.000000 0.000000 0.000000
# 4 -0.002154 0.002154 0.000000 0.038541 0.000000 -0.003035
# 5 0.001518 -0.001518 0.000000 0.000000 0.038541 -0.004308
# 6 0.000000 0.000000 0.000000 -0.003035 -0.004308 0.030388
#
#
# Mechanical properties :
#
#
# Convention : Reuss Voigt Hill
#
# Bulk Modulus (GPa) = 64.66558 64.96460 64.81509
# Shear Modulus (GPa) = 26.17940 27.89510 27.03725
#
# Velocity S-wave (km/s) = 3.77218 3.89383 3.83349
# Velocity P-wave (km/s) = 7.35665 7.45159 7.40427
#
# Compressibility (1/GPa) = 0.01546418
#
# Stress axis : x y z
#
# Youngs Moduli (GPa) = 70.83585 70.83585 53.53252
#
# Poissons Ratio (x) = 0.07628 0.39208
# Poissons Ratio (y) = 0.07628 0.39208
# Poissons Ratio (z) = 0.51881 0.51881
#
# Static dielectric constant tensor:
#      x y z
#    x 3.467550 0.000000 0.000000 
#    y 0.000000 3.467550 0.000000 
#    z 0.000000 0.000000 3.860100 
# 
# 
# High freq. dielectric constant tensor:
#      x y z
#    x 1.720570 0.000000 0.000000 
#    y 0.000000 1.720570 0.000000 
#    z 0.000000 0.000000 1.704410 
# 
# From -- ./inp_files/2241.got.cif
#   From: 2010.03.12/outbox.cif.g09.slc.cpg/sg148_2_cif.got.tgz:2241.got - 2010.04.03 13:38:46.
