data_PCOD8321774
_publ_section_title
;
Structure prediction by ZEFSAII (Michael W. Deem and Ramdas Pophale) SiO2 
 PCOD8321774
Probable space group: R -3
;
_chemical_formula_sum "Si O2"
_cell_formula_units_Z 90
_cell_length_a 17.458781
_cell_length_b 17.458781
_cell_length_c 15.892142
_cell_angle_alpha 90.000000
_cell_angle_beta 90.000000
_cell_angle_gamma 120.000000
_cell_volume 4195.086337
_symmetry_space_group_name_H-M "R -3"
_symmetry_group_IT_number 148
_symmetry_cell_setting 'hexagonal'
loop_
_space_group_symop_operation_xyz
x,y,z
-y,x-y,z
-x+y,-x,z
-x,-y,-z
y,-x+y,-z
x-y,x,-z
2/3+x,1/3+y,1/3+z
2/3-y,1/3+x-y,1/3+z
2/3-x+y,1/3-x,1/3+z
2/3-x,1/3-y,1/3-z
2/3+y,1/3-x+y,1/3-z
2/3+x-y,1/3+x,1/3-z
1/3+x,2/3+y,2/3+z
1/3-y,2/3+x-y,2/3+z
1/3-x+y,2/3-x,2/3+z
1/3-x,2/3-y,2/3-z
1/3+y,2/3-x+y,2/3-z
1/3+x-y,2/3+x,2/3-z
loop_
_atom_site_type_symbol
_atom_site_label
_atom_site_fract_x
_atom_site_fract_y
_atom_site_fract_z
Si Si1 0.499225 0.913357 0.458884
Si Si2 0.037520 0.431484 0.999467
Si Si3 0.537892 0.584874 0.324076
Si Si4 0.854837 0.484665 0.842946
Si Si5 0.550504 0.146305 0.366653
O O1 0.588221 0.916371 0.421082
O O2 0.428821 0.883640 0.381895
O O3 0.468938 0.843727 0.535185
O O4 0.500000 0.000000 0.500000
O O5 0.111636 0.460602 0.071132
O O6 0.000000 0.500000 0.000000
O O7 0.958054 0.336381 0.025792
O O8 0.524292 0.592884 0.226041
O O9 0.542704 0.496355 0.334373
O O10 0.824359 0.383789 0.862513
O O11 0.519539 0.198604 0.307057
#
# Coordination Sequence:
#
# PCOD8321774 Si02
#       5
#    18  18  18  18  18
#     4  10  24  45  67 102 142 186 244 303 377 446
#     4  12  26  42  71 109 138 186 246 306 370 456
#     4  11  24  42  70 102 139 186 236 309 370 452
#     4  12  26  46  69 103 149 185 237 294 380 449
#     4  11  26  44  69  98 141 191 249 310 381 448
#
# _framework density 21.453669999999999
#
# number of rings (size 3 to 8) (size 9 to 14) (size 15 to 20)
#    0.000    0.800    4.000    2.800   11.200    0.000 
#    0.000    0.000    0.000    0.000    0.000    0.000 
#    0.000    0.000    0.000    0.000    0.000    0.000 
#
# Total GULP energy -371799.113627 kJ/mol
# GULP energy per Si atom -12393.303788 kJ/mol
# Density = 2.140484 g / cm^3
# Si number density = 21.453670 Si / 1000 Ang^3
#
#
#
# Elastic Constant Matrix: (Units=GPa)
#
#
# Indices 1 2 3 4 5 6 
#
# 1 55.4120 53.9130 38.0488 6.1205 6.3585 0.0000
# 2 53.9130 55.4120 38.0488 -6.1205 -6.3585 0.0000
# 3 38.0488 38.0488 129.1825 0.0000 0.0000 0.0000
# 4 6.1205 -6.1205 0.0000 37.5784 0.0000 -6.3585
# 5 6.3585 -6.3585 0.0000 0.0000 37.5784 6.1205
# 6 0.0000 0.0000 0.0000 -6.3585 6.1205 0.7495
#
#
#
# Elastic Compliance Matrix: (Units=1/GPa)
#
#
# Indices 1 2 3 4 5 6 
#
# 1 -0.183174 0.194680 -0.003389 0.061542 0.063935 0.000000
# 2 0.194680 -0.183174 -0.003389 -0.061542 -0.063935 0.000000
# 3 -0.003389 -0.003389 0.009737 0.000000 0.000000 0.000000
# 4 0.061542 -0.061542 0.000000 -0.015072 0.000000 -0.127870
# 5 0.063935 -0.063935 0.000000 0.000000 -0.015072 0.123084
# 6 0.000000 0.000000 0.000000 -0.127870 0.123084 -0.755708
#
#
# Mechanical properties :
#
#
# Convention : Reuss Voigt Hill
#
# Bulk Modulus (GPa) = 52.10078 55.55861 53.82970
# Shear Modulus (GPa) = -3.30716 22.51432 9.60358
#
# Velocity S-wave (km/s) = -1.24293 3.24302 2.11805
# Velocity P-wave (km/s) = 4.71997 6.32267 5.57917
#
# Compressibility (1/GPa) = 0.01919357
#
# Stress axis : x y z
#
# Youngs Moduli (GPa) = -5.45929 -5.45929 102.69796
#
# Poissons Ratio (x) = 1.06281 0.34803
# Poissons Ratio (y) = 1.06281 0.34803
# Poissons Ratio (z) = -0.01850 -0.01850
#
# Static dielectric constant tensor:
#      x y z
#    x 3.910720 0.000000 0.000000 
#    y 0.000000 3.910720 0.000000 
#    z 0.000000 0.000000 4.389810 
# 
# 
# High freq. dielectric constant tensor:
#      x y z
#    x 1.837470 0.000000 0.000000 
#    y 0.000000 1.837470 0.000000 
#    z 0.000000 0.000000 1.857870 
# 
# From -- ./inp_files/2656.got.cif
#   From: 2010.03.12/outbox.cif.g09.slc.cpg/sg148_2_cif.got.tgz:2656.got - 2010.04.03 13:38:46.
