data_PCOD8321630
_publ_section_title
;
Structure prediction by ZEFSAII (Michael W. Deem and Ramdas Pophale) SiO2 
 PCOD8321630
Probable space group: P -3
;
_chemical_formula_sum "Si O2"
_cell_formula_units_Z 42
_cell_length_a 8.762292
_cell_length_b 8.762292
_cell_length_c 29.719479
_cell_angle_alpha 90.000000
_cell_angle_beta 90.000000
_cell_angle_gamma 120.000000
_cell_volume 1976.092487
_symmetry_space_group_name_H-M "P -3"
_symmetry_group_IT_number 147
_symmetry_cell_setting 'hexagonal'
loop_
_space_group_symop_operation_xyz
x,y,z
-y,x-y,z
-x+y,-x,z
-x,-y,-z
y,-x+y,-z
x-y,x,-z
loop_
_atom_site_type_symbol
_atom_site_label
_atom_site_fract_x
_atom_site_fract_y
_atom_site_fract_z
Si Si1 0.315610 0.982617 0.206647
Si Si2 0.655781 0.667585 0.758877
Si Si3 0.327980 0.984754 0.655264
Si Si4 0.173671 0.958938 0.110843
Si Si5 0.337493 0.322271 0.517433
Si Si6 0.320611 0.982190 0.378843
Si Si7 0.985328 0.663553 0.982601
O O1 0.330253 0.168107 0.215152
O O2 0.260894 0.930716 0.155048
O O3 0.496796 0.988958 0.216119
O O4 0.169385 0.839496 0.239526
O O5 0.609060 0.675512 0.707191
O O6 0.182288 0.814500 0.628826
O O7 0.519021 0.043644 0.635929
O O8 0.292066 0.146610 0.649559
O O9 0.187977 0.152253 0.109521
O O10 0.278503 0.931959 0.069756
O O11 0.500000 0.500000 0.500000
O O12 0.159660 0.328450 0.513028
O O13 0.356698 0.284560 0.569175
O O14 0.841420 0.672217 0.013273
O O15 0.000000 0.500000 0.000000
#
# Coordination Sequence:
#
# PCOD8321630 Si02
#       7
#     6   6   6   6   6   6   6
#     4  12  25  43  70 100 135 181 226 278 341 400
#     4  12  24  44  66 102 135 175 228 278 334 405
#     4  12  25  43  67  95 136 175 219 278 334 402
#     4  10  20  44  74  97 135 187 227 278 345 390
#     4  12  25  44  67  96 129 170 219 280 333 400
#     4  12  25  44  67  96 130 174 222 269 342 407
#     4  12  24  43  71 105 142 184 229 284 340 403
#
# _framework density 21.254065000000001
#
# number of rings (size 3 to 8) (size 9 to 14) (size 15 to 20)
#    0.286    0.000    2.857    7.714    0.000    2.286 
#    0.000    0.000    0.000    0.000    0.000    0.000 
#    0.000    0.000    0.000    0.000    0.000    0.000 
#
# Total GULP energy -521074.435953 kJ/mol
# GULP energy per Si atom -12406.534189 kJ/mol
# Density = 2.120569 g / cm^3
# Si number density = 21.254065 Si / 1000 Ang^3
#
#
#
# Elastic Constant Matrix: (Units=GPa)
#
#
# Indices 1 2 3 4 5 6 
#
# 1 113.4288 29.5190 6.8620 -0.0590 -0.7935 0.0000
# 2 29.5190 113.4288 6.8620 0.0590 0.7935 0.0000
# 3 6.8620 6.8620 123.5251 0.0000 0.0000 0.0000
# 4 -0.0590 0.0590 0.0000 38.4215 0.0000 0.7935
# 5 -0.7935 0.7935 0.0000 0.0000 38.4215 -0.0590
# 6 0.0000 0.0000 0.0000 0.7935 -0.0590 41.9549
#
#
#
# Elastic Compliance Matrix: (Units=1/GPa)
#
#
# Indices 1 2 3 4 5 6 
#
# 1 0.009478 -0.002445 -0.000391 0.000018 0.000246 0.000000
# 2 -0.002445 0.009478 -0.000391 -0.000018 -0.000246 0.000000
# 3 -0.000391 -0.000391 0.008139 0.000000 0.000000 0.000000
# 4 0.000018 -0.000018 0.000000 0.026037 0.000000 -0.000492
# 5 0.000246 -0.000246 0.000000 0.000000 0.026037 0.000037
# 6 0.000000 0.000000 0.000000 -0.000492 0.000037 0.023844
#
#
# Mechanical properties :
#
#
# Convention : Reuss Voigt Hill
#
# Bulk Modulus (GPa) = 48.44425 48.54095 48.49260
# Shear Modulus (GPa) = 42.97522 44.23555 43.60539
#
# Velocity S-wave (km/s) = 4.50152 4.56705 4.53440
# Velocity P-wave (km/s) = 7.06121 7.12029 7.09081
#
# Compressibility (1/GPa) = 0.02064229
#
# Stress axis : x y z
#
# Youngs Moduli (GPa) = 105.51128 105.51128 122.86630
#
# Poissons Ratio (x) = 0.25793 0.04800
# Poissons Ratio (y) = 0.25793 0.04800
# Poissons Ratio (z) = 0.04122 0.04122
#
# Static dielectric constant tensor:
#      x y z
#    x 3.655960 0.000000 0.000000 
#    y 0.000000 3.655960 0.000000 
#    z 0.000000 0.000000 3.849160 
# 
# 
# High freq. dielectric constant tensor:
#      x y z
#    x 1.838140 0.000000 0.000000 
#    y 0.000000 1.838140 0.000000 
#    z 0.000000 0.000000 1.849260 
# 
# From -- ./inp_files/1133.got.cif
#   From: 2010.03.12/outbox.cif.g09.slc.cpg/sg147_cif.got.tgz:1133.got - 2010.04.03 13:37:56.
