data_PCOD8321024
_publ_section_title
;
Structure prediction by ZEFSAII (Michael W. Deem and Ramdas Pophale) SiO2 
 PCOD8321024
Probable space group: I 41/A C D
;
_chemical_formula_sum "Si O2"
_cell_formula_units_Z 160
_cell_length_a 25.764911
_cell_length_b 25.764911
_cell_length_c 12.199954
_cell_angle_alpha 90.000000
_cell_angle_beta 90.000000
_cell_angle_gamma 90.000000
_cell_volume 8098.703258
_symmetry_space_group_name_H-M "I 41/A C D"
_symmetry_group_IT_number 142
_space_group.IT_coordinate_system_code '2'
_symmetry_cell_setting 'tetragonal'
loop_
_space_group_symop_operation_xyz
x,y,z
1/4-y,3/4+x,1/4+z
-x,1/2-y,z
1/4+y,1/4-x,3/4+z
x,-y,1/2-z
1/2-x,y,-z
3/4+y,1/4+x,1/4-z
1/4-y,1/4-x,1/4-z
-x,-y,-z
3/4+y,1/4-x,3/4-z
x,1/2+y,-z
3/4-y,3/4+x,1/4-z
-x,y,1/2+z
1/2+x,-y,z
1/4-y,3/4-x,3/4+z
3/4+y,3/4+x,3/4+z
1/2+x,1/2+y,1/2+z
3/4-y,1/4+x,3/4+z
1/2-x,-y,1/2+z
3/4+y,3/4-x,1/4+z
1/2+x,1/2-y,-z
-x,1/2+y,1/2-z
1/4+y,3/4+x,3/4-z
3/4-y,3/4-x,3/4-z
1/2-x,1/2-y,1/2-z
1/4+y,3/4-x,1/4-z
1/2+x,y,1/2-z
1/4-y,1/4+x,3/4-z
1/2-x,1/2+y,z
x,1/2-y,1/2+z
3/4-y,1/4-x,1/4+z
1/4+y,1/4+x,1/4+z
loop_
_atom_site_type_symbol
_atom_site_label
_atom_site_fract_x
_atom_site_fract_y
_atom_site_fract_z
Si Si1 0.165180 0.669857 0.878846
Si Si2 0.822730 0.783824 0.429683
Si Si3 0.250000 0.897264 0.500000
Si Si4 0.863202 0.613202 0.875000
Si Si5 0.926428 0.034123 0.395296
Si Si6 0.684654 0.547106 0.315914
O O1 0.111198 0.638803 0.875000
O O2 0.154057 0.726178 0.929385
O O3 0.190032 0.681691 0.762174
O O4 0.204407 0.638332 0.954556
O O5 0.857928 0.824924 0.366261
O O6 0.823938 0.802282 0.555573
O O7 0.766618 0.787928 0.370579
O O8 0.273709 0.931691 0.402476
O O9 0.835309 0.591375 0.766027
O O10 0.865419 0.021109 0.376029
O O11 0.712409 0.500000 0.250000
#
# Coordination Sequence:
#
# PCOD8321024 Si02
#       6
#    32  32  16  16  32  32
#     4  12  25  43  61 100 132 165 221 280 328 390
#     4  10  21  39  69  89 123 176 218 272 321 392
#     4  12  26  40  64  92 140 184 204 266 346 384
#     4  10  20  40  65  92 120 172 226 266 322 401
#     4  10  19  42  64  91 125 167 224 257 320 398
#     4  11  22  42  61  91 135 176 221 261 316 408
#
# _framework density 19.756247999999999
#
# number of rings (size 3 to 8) (size 9 to 14) (size 15 to 20)
#    0.000    1.200    6.000    3.000    0.000    1.600 
#    5.400    0.500    0.000    0.000    0.000    0.000 
#    0.000    0.000    0.000    0.000    0.000    0.000 
#
# Total GULP energy -991780.445388 kJ/mol
# GULP energy per Si atom -12397.255567 kJ/mol
# Density = 1.971128 g / cm^3
# Si number density = 19.756248 Si / 1000 Ang^3
#
#
#
# Elastic Constant Matrix: (Units=GPa)
#
#
# Indices 1 2 3 4 5 6 
#
# 1 117.7149 58.1109 34.6651 0.0000 0.0000 0.0000
# 2 58.1109 117.7170 34.6680 0.0000 0.0000 0.0000
# 3 34.6651 34.6680 98.0253 0.0000 0.0000 0.0000
# 4 0.0000 0.0000 0.0000 17.8624 0.0000 0.0000
# 5 0.0000 0.0000 0.0000 0.0000 17.8629 0.0000
# 6 0.0000 0.0000 0.0000 0.0000 0.0000 17.1273
#
#
#
# Elastic Compliance Matrix: (Units=1/GPa)
#
#
# Indices 1 2 3 4 5 6 
#
# 1 0.011693 -0.005084 -0.002337 0.000000 0.000000 0.000000
# 2 -0.005084 0.011693 -0.002338 0.000000 0.000000 0.000000
# 3 -0.002337 -0.002338 0.011855 0.000000 0.000000 0.000000
# 4 0.000000 0.000000 0.000000 0.055983 0.000000 0.000000
# 5 0.000000 0.000000 0.000000 0.000000 0.055982 0.000000
# 6 0.000000 0.000000 0.000000 0.000000 0.000000 0.058386
#
#
# Mechanical properties :
#
#
# Convention : Reuss Voigt Hill
#
# Bulk Modulus (GPa) = 63.59872 65.37168 64.48520
# Shear Modulus (GPa) = 21.70604 24.30475 23.00539
#
# Velocity S-wave (km/s) = 3.31825 3.51127 3.41612
# Velocity P-wave (km/s) = 6.85147 7.04270 6.94774
#
# Compressibility (1/GPa) = 0.01572359
#
# Stress axis : x y z
#
# Youngs Moduli (GPa) = 85.52061 85.52066 84.35535
#
# Poissons Ratio (x) = 0.43479 0.19714
# Poissons Ratio (y) = 0.43479 0.19718
# Poissons Ratio (z) = 0.19987 0.19991
#
# Static dielectric constant tensor:
#      x y z
#    x 3.571700 0.000000 0.000000 
#    y 0.000000 3.571710 0.000000 
#    z 0.000000 0.000000 3.822500 
# 
# 
# High freq. dielectric constant tensor:
#      x y z
#    x 1.755460 0.000000 0.000000 
#    y 0.000000 1.755460 0.000000 
#    z 0.000000 0.000000 1.783570 
# 
# From -- ./inp_files/3889.got.cif
#   From: 2010.03.12/outbox.cif.g09.slc.cpg/sg142_2_cif.got.tgz:3889.got - 2010.04.03 13:27:16.
