data_PCOD8321987
_publ_section_title
;
Structure prediction by ZEFSAII (Michael W. Deem and Ramdas Pophale) SiO2 
 PCOD8321987
Probable space group: P 31 1 2
;
_chemical_formula_sum "Si O2"
_cell_formula_units_Z 45
_cell_length_a 11.696307
_cell_length_b 11.696307
_cell_length_c 17.606626
_cell_angle_alpha 90.000000
_cell_angle_beta 90.000000
_cell_angle_gamma 120.000000
_cell_volume 2085.951894
_symmetry_space_group_name_H-M "P 31 1 2"
_symmetry_group_IT_number 151
_symmetry_cell_setting 'hexagonal'
loop_
_space_group_symop_operation_xyz
x,y,z
-y,x-y,1/3+z
-x+y,-x,2/3+z
-y,-x,2/3-z
-x+y,y,1/3-z
x,x-y,-z
loop_
_atom_site_type_symbol
_atom_site_label
_atom_site_fract_x
_atom_site_fract_y
_atom_site_fract_z
Si Si1 0.001390 0.250935 0.329757
Si Si2 0.072270 0.675067 0.331632
Si Si3 0.227050 0.989256 0.615650
Si Si4 0.031415 0.015708 0.500000
Si Si5 0.929045 0.590260 0.176201
Si Si6 0.833931 0.542202 0.792652
Si Si7 0.938764 0.522895 0.578039
Si Si8 0.846075 0.742980 0.914305
O O1 0.907579 0.092422 0.333334
O O2 0.952095 0.308184 0.261927
O O3 0.991564 0.313227 0.410335
O O4 0.153482 0.289185 0.326206
O O5 0.234331 0.765670 0.333334
O O6 0.017736 0.671391 0.247468
O O7 0.003257 0.520499 0.353705
O O8 0.031277 0.745841 0.396150
O O9 0.118600 0.990080 0.559701
O O10 0.341684 0.983845 0.566596
O O11 0.290044 0.111976 0.671868
O O12 0.931655 0.050338 0.543915
O O13 0.809533 0.619065 0.166667
O O14 0.875811 0.435407 0.176600
O O15 0.686706 0.464229 0.752597
O O16 0.812604 0.617856 0.862375
O O17 0.989098 0.494549 0.500000
#
# Coordination Sequence:
#
# PCOD8321987 Si02
#       8
#     6   6   6   3   6   6   6   6
#     4  10  22  40  67  97 131 172 231 284 338 418
#     4  12  25  42  66  98 137 176 223 282 351 423
#     4  12  23  40  64 101 137 179 217 280 356 415
#     4  12  22  40  66 100 142 170 220 280 354 416
#     4  12  25  44  64  97 144 177 219 289 354 422
#     4  11  24  43  68 100 131 180 233 292 348 410
#     4  11  22  42  67 100 127 173 234 286 340 412
#     4  12  23  40  66 100 131 174 222 280 341 416
#
# _framework density 21.572884999999999
#
# number of rings (size 3 to 8) (size 9 to 14) (size 15 to 20)
#    0.000    0.533    4.667    5.600    1.867    0.533 
#    0.000    0.000    2.933    0.000    0.000    0.000 
#    0.000    0.000    0.000    0.000    0.000    0.000 
#
# Total GULP energy -557504.275741 kJ/mol
# GULP energy per Si atom -12388.983905 kJ/mol
# Density = 2.152378 g / cm^3
# Si number density = 21.572885 Si / 1000 Ang^3
#
#
#
# Elastic Constant Matrix: (Units=GPa)
#
#
# Indices 1 2 3 4 5 6 
#
# 1 103.8105 44.5261 33.3352 0.0001 6.2580 0.0000
# 2 44.5261 103.8105 33.3352 -0.0001 -6.2580 0.0000
# 3 33.3352 33.3352 95.5775 0.0000 0.0000 0.0000
# 4 0.0001 -0.0001 0.0000 34.1278 0.0000 -6.2580
# 5 6.2580 -6.2580 0.0000 0.0000 34.1278 0.0001
# 6 0.0000 0.0000 0.0000 -6.2580 0.0001 29.6422
#
#
#
# Elastic Compliance Matrix: (Units=1/GPa)
#
#
# Indices 1 2 3 4 5 6 
#
# 1 0.012771 -0.004776 -0.002788 0.000000 -0.003218 0.000000
# 2 -0.004776 0.012771 -0.002788 0.000000 0.003218 0.000000
# 3 -0.002788 -0.002788 0.012408 0.000000 0.000000 0.000000
# 4 0.000000 0.000000 0.000000 0.030482 0.000000 0.006435
# 5 -0.003218 0.003218 0.000000 0.000000 0.030482 0.000000
# 6 0.000000 0.000000 0.000000 0.006435 0.000000 0.035094
#
#
# Mechanical properties :
#
#
# Convention : Reuss Voigt Hill
#
# Bulk Modulus (GPa) = 57.99235 58.39905 58.19570
# Shear Modulus (GPa) = 31.16024 32.37968 31.76996
#
# Velocity S-wave (km/s) = 3.80467 3.87840 3.84171
# Velocity P-wave (km/s) = 6.80008 6.86916 6.83471
#
# Compressibility (1/GPa) = 0.01724365
#
# Stress axis : x y z
#
# Youngs Moduli (GPa) = 78.30307 78.30307 80.59482
#
# Poissons Ratio (x) = 0.37399 0.22473
# Poissons Ratio (y) = 0.37399 0.22473
# Poissons Ratio (z) = 0.21834 0.21834
#
# Static dielectric constant tensor:
#      x y z
#    x 3.880460 0.000000 0.000000 
#    y 0.000000 3.880460 0.000000 
#    z 0.000000 0.000000 4.177250 
# 
# 
# High freq. dielectric constant tensor:
#      x y z
#    x 1.830470 0.000000 0.000000 
#    y 0.000000 1.830470 0.000000 
#    z 0.000000 0.000000 1.863780 
# 
# From -- ./inp_files/3585.got.cif
#   From: 2010.03.12/outbox.cif.g09.slc.cpg/sg151_2_cif.got.tgz:3585.got - 2010.04.03 13:42:29.
