data_PCOD8321926
_publ_section_title
;
Structure prediction by ZEFSAII (Michael W. Deem and Ramdas Pophale) SiO2 
 PCOD8321926
Probable space group: P 31 1 2
;
_chemical_formula_sum "Si O2"
_cell_formula_units_Z 39
_cell_length_a 12.104681
_cell_length_b 12.104681
_cell_length_c 16.515495
_cell_angle_alpha 90.000000
_cell_angle_beta 90.000000
_cell_angle_gamma 120.000000
_cell_volume 2095.699086
_symmetry_space_group_name_H-M "P 31 1 2"
_symmetry_group_IT_number 151
_symmetry_cell_setting 'hexagonal'
loop_
_space_group_symop_operation_xyz
x,y,z
-y,x-y,1/3+z
-x+y,-x,2/3+z
-y,-x,2/3-z
-x+y,y,1/3-z
x,x-y,-z
loop_
_atom_site_type_symbol
_atom_site_label
_atom_site_fract_x
_atom_site_fract_y
_atom_site_fract_z
Si Si1 0.162666 0.207887 0.475242
Si Si2 0.475737 0.211429 0.796422
Si Si3 0.285404 0.952946 0.363570
Si Si4 0.520140 0.483439 0.922427
Si Si5 0.873585 0.212788 0.979809
Si Si6 0.785592 0.078707 0.256028
Si Si7 0.739890 0.260111 0.833334
O O1 0.261789 0.311416 0.539440
O O2 0.239540 0.249569 0.390216
O O3 0.035237 0.214144 0.460986
O O4 0.128920 0.064460 0.500000
O O5 0.531486 0.355560 0.761971
O O6 0.416242 0.112443 0.720999
O O7 0.364158 0.167828 0.861565
O O8 0.587111 0.193345 0.833934
O O9 0.181782 0.818219 0.333334
O O10 0.417264 0.966839 0.329040
O O11 0.266441 0.064854 0.322945
O O12 0.482927 0.517074 0.833334
O O13 0.398619 0.354198 0.953915
O O14 0.776441 0.210984 0.912506
O O15 0.880162 0.119839 0.333334
#
# Coordination Sequence:
#
# PCOD8321926 Si02
#       7
#     6   6   6   6   6   6   3
#     4  10  21  39  54  82 117 158 216 238 292 373
#     4  10  21  33  56  85 126 148 186 246 320 374
#     4  10  18  32  59  78 110 150 201 247 291 354
#     4   9  18  34  50  87 114 143 189 246 309 359
#     4  10  21  34  53  86 114 158 195 243 301 353
#     4  11  23  35  56  88 119 156 192 260 311 364
#     4  12  18  34  56  88 122 150 188 246 304 368
#
# _framework density 18.609539999999999
#
# number of rings (size 3 to 8) (size 9 to 14) (size 15 to 20)
#    0.000    1.846    4.615    3.231    4.308    3.692 
#    0.000    0.000    0.000    1.846    4.000    0.000 
#    0.000    0.000    0.000    0.000    0.000    0.000 
#
# Total GULP energy -483149.673497 kJ/mol
# GULP energy per Si atom -12388.453167 kJ/mol
# Density = 1.856718 g / cm^3
# Si number density = 18.609540 Si / 1000 Ang^3
#
#
#
# Elastic Constant Matrix: (Units=GPa)
#
#
# Indices 1 2 3 4 5 6 
#
# 1 56.6849 30.5290 25.2081 -0.0012 9.1736 0.0000
# 2 30.5290 56.6849 25.2081 0.0012 -9.1736 0.0000
# 3 25.2081 25.2081 81.2726 0.0000 0.0000 0.0000
# 4 -0.0012 0.0012 0.0000 23.1324 0.0000 -9.1736
# 5 9.1736 -9.1736 0.0000 0.0000 23.1324 -0.0012
# 6 0.0000 0.0000 0.0000 -9.1736 -0.0012 13.0780
#
#
#
# Elastic Compliance Matrix: (Units=1/GPa)
#
#
# Indices 1 2 3 4 5 6 
#
# 1 0.033469 -0.019498 -0.004333 0.000003 -0.021005 0.000000
# 2 -0.019498 0.033469 -0.004333 -0.000003 0.021005 0.000000
# 3 -0.004333 -0.004333 0.014992 0.000000 0.000000 0.000000
# 4 0.000003 -0.000003 0.000000 0.059889 0.000000 0.042010
# 5 -0.021005 0.021005 0.000000 0.000000 0.059889 0.000006
# 6 0.000000 0.000000 0.000000 0.042010 0.000006 0.105932
#
#
# Mechanical properties :
#
#
# Convention : Reuss Voigt Hill
#
# Bulk Modulus (GPa) = 39.06083 39.61473 39.33778
# Shear Modulus (GPa) = 13.42273 19.44838 16.43555
#
# Velocity S-wave (km/s) = 2.68858 3.23627 2.97506
# Velocity P-wave (km/s) = 5.53834 5.94122 5.74332
#
# Compressibility (1/GPa) = 0.02560110
#
# Stress axis : x y z
#
# Youngs Moduli (GPa) = 29.87873 29.87873 66.70048
#
# Poissons Ratio (x) = 0.58256 0.28904
# Poissons Ratio (y) = 0.58256 0.28904
# Poissons Ratio (z) = 0.12948 0.12948
#
# Static dielectric constant tensor:
#      x y z
#    x 3.301880 0.000000 0.000000 
#    y 0.000000 3.301880 0.000000 
#    z 0.000000 0.000000 3.462380 
# 
# 
# High freq. dielectric constant tensor:
#      x y z
#    x 1.696150 0.000000 0.000000 
#    y 0.000000 1.696150 0.000000 
#    z 0.000000 0.000000 1.734660 
# 
# From -- ./inp_files/3507.got.cif
#   From: 2010.03.12/outbox.cif.g09.slc.cpg/sg151_2_cif.got.tgz:3507.got - 2010.04.03 13:42:29.
