data_PCOD8321990
_publ_section_title
;
Structure prediction by ZEFSAII (Michael W. Deem and Ramdas Pophale) SiO2 
 PCOD8321990
Probable space group: P 31 1 2
;
_chemical_formula_sum "Si O2"
_cell_formula_units_Z 27
_cell_length_a 7.697608
_cell_length_b 7.697608
_cell_length_c 24.157723
_cell_angle_alpha 90.000000
_cell_angle_beta 90.000000
_cell_angle_gamma 120.000000
_cell_volume 1239.647505
_symmetry_space_group_name_H-M "P 31 1 2"
_symmetry_group_IT_number 151
_symmetry_cell_setting 'hexagonal'
loop_
_space_group_symop_operation_xyz
x,y,z
-y,x-y,1/3+z
-x+y,-x,2/3+z
-y,-x,2/3-z
-x+y,y,1/3-z
x,x-y,-z
loop_
_atom_site_type_symbol
_atom_site_label
_atom_site_fract_x
_atom_site_fract_y
_atom_site_fract_z
Si Si1 0.490351 0.436686 0.553601
Si Si2 0.865775 0.895525 0.887081
Si Si3 0.499180 0.154326 0.768235
Si Si4 0.948767 0.897534 0.666667
Si Si5 0.543585 0.771327 0.633369
O O1 0.522477 0.471500 0.488720
O O2 0.615379 0.337272 0.580741
O O3 0.550296 0.646930 0.581324
O O4 0.256308 0.298142 0.562014
O O5 0.764889 0.653345 0.882968
O O6 0.003782 0.996219 0.833334
O O7 0.987510 0.956065 0.943653
O O8 0.407592 0.988863 0.719841
O O9 0.709104 0.776932 0.676125
O O10 0.332947 0.665894 0.666667
#
# Coordination Sequence:
#
# PCOD8321990 Si02
#       5
#     6   6   6   3   6
#     4  11  23  43  67 101 134 179 240 278 344 420
#     4  11  22  43  75  98 141 184 226 290 353 406
#     4  10  22  45  67  95 134 179 225 291 344 411
#     4  10  24  44  68 100 138 182 232 288 348 416
#     4  11  24  42  66  98 138 179 230 287 348 407
#
# _framework density 21.780386
#
# number of rings (size 3 to 8) (size 9 to 14) (size 15 to 20)
#    0.000    1.333    2.222    4.667    1.556    1.778 
#   14.000    0.000    0.000    0.000    0.000    0.000 
#    0.000    0.000    0.000    0.000    0.000    0.000 
#
# Total GULP energy -334617.647711 kJ/mol
# GULP energy per Si atom -12393.246212 kJ/mol
# Density = 2.173081 g / cm^3
# Si number density = 21.780386 Si / 1000 Ang^3
#
#
#
# Elastic Constant Matrix: (Units=GPa)
#
#
# Indices 1 2 3 4 5 6 
#
# 1 62.1517 86.5459 9.5722 0.0012 4.7037 0.0000
# 2 86.5459 62.1517 9.5722 -0.0012 -4.7037 0.0000
# 3 9.5722 9.5722 73.2848 0.0000 0.0000 0.0000
# 4 0.0012 -0.0012 0.0000 21.4070 0.0000 -4.7037
# 5 4.7037 -4.7037 0.0000 0.0000 21.4070 0.0012
# 6 0.0000 0.0000 0.0000 -4.7037 0.0012 -12.1971
#
#
#
# Elastic Compliance Matrix: (Units=1/GPa)
#
#
# Indices 1 2 3 4 5 6 
#
# 1 -0.015475 0.022316 -0.000893 0.000002 0.008304 0.000000
# 2 0.022316 -0.015475 -0.000893 -0.000002 -0.008304 0.000000
# 3 -0.000893 -0.000893 0.013879 0.000000 0.000000 0.000000
# 4 0.000002 -0.000002 0.000000 0.043065 0.000000 -0.016608
# 5 0.008304 -0.008304 0.000000 0.000000 0.043065 0.000004
# 6 0.000000 0.000000 0.000000 -0.016608 0.000004 -0.075582
#
#
# Mechanical properties :
#
#
# Convention : Reuss Voigt Hill
#
# Bulk Modulus (GPa) = 41.69230 45.44097 43.56663
# Shear Modulus (GPa) = -126.30312 12.24989 -57.02662
#
# Velocity S-wave (km/s) = -7.62334 2.37413 -5.12244
# Velocity P-wave (km/s) = 7.63566 5.33140 3.86520
#
# Compressibility (1/GPa) = 0.02398525
#
# Stress axis : x y z
#
# Youngs Moduli (GPa) = -64.61844 -64.61844 72.05237
#
# Poissons Ratio (x) = 1.44200 0.06437
# Poissons Ratio (y) = 1.44200 0.06437
# Poissons Ratio (z) = -0.05773 -0.05773
#
# Static dielectric constant tensor:
#      x y z
#    x 4.600660 0.000000 0.000000 
#    y 0.000000 4.600660 0.000000 
#    z 0.000000 0.000000 3.841860 
# 
# 
# High freq. dielectric constant tensor:
#      x y z
#    x 1.860240 0.000000 0.000000 
#    y 0.000000 1.860240 0.000000 
#    z 0.000000 0.000000 1.857200 
# 
# From -- ./inp_files/4791.got.cif
#   From: 2010.03.12/outbox.cif.g09.slc.cpg/sg151_3_cif.got.tgz:4791.got - 2010.04.03 13:42:29.
