data_PCOD8321910
_publ_section_title
;
Structure prediction by ZEFSAII (Michael W. Deem and Ramdas Pophale) SiO2 
 PCOD8321910
Probable space group: P 3 2 1
;
_chemical_formula_sum "Si O2"
_cell_formula_units_Z 20
_cell_length_a 11.152464
_cell_length_b 11.152464
_cell_length_c 7.594117
_cell_angle_alpha 90.000000
_cell_angle_beta 90.000000
_cell_angle_gamma 120.000000
_cell_volume 817.992978
_symmetry_space_group_name_H-M "P 3 2 1"
_symmetry_group_IT_number 150
_symmetry_cell_setting 'hexagonal'
loop_
_space_group_symop_operation_xyz
x,y,z
-y,x-y,z
-x+y,-x,z
x-y,-y,-z
-x,-x+y,-z
y,x,-z
loop_
_atom_site_type_symbol
_atom_site_label
_atom_site_fract_x
_atom_site_fract_y
_atom_site_fract_z
Si Si1 0.000000 0.000000 0.712638
Si Si2 0.397308 0.953253 0.312875
Si Si3 0.843712 0.704701 0.172744
Si Si4 0.114909 0.730486 0.211156
O O1 0.860738 0.871011 0.795143
O O2 0.000000 0.000000 0.500000
O O3 0.400965 0.088795 0.231484
O O4 0.473444 0.000000 0.500000
O O5 0.240159 0.827131 0.341543
O O6 0.478677 0.899097 0.190559
O O7 0.965675 0.701047 0.285478
O O8 0.852067 0.662955 0.973762
#
# Coordination Sequence:
#
# PCOD8321910 Si02
#       4
#     2   6   6   6
#     4  12  24  46  86 124 154 188 265 348 397 449
#     4  12  28  50  79 112 161 203 261 329 393 462
#     4  11  26  47  81 110 151 202 259 325 389 467
#     4  11  28  48  75 111 157 203 265 313 389 475
#
# _framework density 24.450088999999998
#
# number of rings (size 3 to 8) (size 9 to 14) (size 15 to 20)
#    0.000    0.600    3.000    2.400   16.800    0.000 
#    1.800    0.000    0.000    0.000    0.000    0.000 
#    0.000    0.000    0.000    0.000    0.000    0.000 
#
# Total GULP energy -247904.183679 kJ/mol
# GULP energy per Si atom -12395.209184 kJ/mol
# Density = 2.439444 g / cm^3
# Si number density = 24.450089 Si / 1000 Ang^3
#
#
#
# Elastic Constant Matrix: (Units=GPa)
#
#
# Indices 1 2 3 4 5 6 
#
# 1 131.2877 36.7516 51.1648 -6.9543 0.0000 0.0000
# 2 36.7516 131.2877 51.1648 6.9543 0.0000 0.0000
# 3 51.1648 51.1648 109.6793 0.0000 0.0000 0.0000
# 4 -6.9543 6.9543 0.0000 27.4874 0.0000 0.0000
# 5 0.0000 0.0000 0.0000 0.0000 27.4874 -6.9543
# 6 0.0000 0.0000 0.0000 0.0000 -6.9543 47.2681
#
#
#
# Elastic Compliance Matrix: (Units=1/GPa)
#
#
# Indices 1 2 3 4 5 6 
#
# 1 0.009650 -0.001337 -0.003878 0.002780 0.000000 0.000000
# 2 -0.001337 0.009650 -0.003878 -0.002780 0.000000 0.000000
# 3 -0.003878 -0.003878 0.012735 0.000000 0.000000 0.000000
# 4 0.002780 -0.002780 0.000000 0.037787 0.000000 0.000000
# 5 0.000000 0.000000 0.000000 0.000000 0.037787 0.005559
# 6 0.000000 0.000000 0.000000 0.000000 0.005559 0.021974
#
#
# Mechanical properties :
#
#
# Convention : Reuss Voigt Hill
#
# Bulk Modulus (GPa) = 72.20562 72.26858 72.23710
# Shear Modulus (GPa) = 32.81192 35.99349 34.40270
#
# Velocity S-wave (km/s) = 3.66730 3.84099 3.75515
# Velocity P-wave (km/s) = 6.89406 7.02087 6.95776
#
# Compressibility (1/GPa) = 0.01384934
#
# Stress axis : x y z
#
# Youngs Moduli (GPa) = 103.63089 103.63089 78.52185
#
# Poissons Ratio (x) = 0.13858 0.30448
# Poissons Ratio (y) = 0.13858 0.30448
# Poissons Ratio (z) = 0.40185 0.40185
#
# Static dielectric constant tensor:
#      x y z
#    x 4.734090 0.000000 0.000000 
#    y 0.000000 4.734090 0.000000 
#    z 0.000000 0.000000 3.961020 
# 
# 
# High freq. dielectric constant tensor:
#      x y z
#    x 1.983250 0.000000 0.000000 
#    y 0.000000 1.983250 0.000000 
#    z 0.000000 0.000000 1.946670 
# 
# From -- ./inp_files/455.got.cif
#   From: 2010.03.12/outbox.cif.g09.slc.cpg/sg150_cif.got.tgz:455.got - 2010.04.03 13:41:37.
