data_PCOD8321984
_publ_section_title
;
Structure prediction by ZEFSAII (Michael W. Deem and Ramdas Pophale) SiO2 
 PCOD8321984
Probable space group: P 31 1 2
;
_chemical_formula_sum "Si O2"
_cell_formula_units_Z 36
_cell_length_a 12.739511
_cell_length_b 12.739511
_cell_length_c 13.346111
_cell_angle_alpha 90.000000
_cell_angle_beta 90.000000
_cell_angle_gamma 120.000000
_cell_volume 1875.818784
_symmetry_space_group_name_H-M "P 31 1 2"
_symmetry_group_IT_number 151
_symmetry_cell_setting 'hexagonal'
loop_
_space_group_symop_operation_xyz
x,y,z
-y,x-y,1/3+z
-x+y,-x,2/3+z
-y,-x,2/3-z
-x+y,y,1/3-z
x,x-y,-z
loop_
_atom_site_type_symbol
_atom_site_label
_atom_site_fract_x
_atom_site_fract_y
_atom_site_fract_z
Si Si1 0.257808 0.239046 0.548322
Si Si2 0.309890 0.893470 0.900338
Si Si3 0.506552 0.806948 0.220120
Si Si4 0.241429 0.263065 0.777902
Si Si5 0.170057 0.134357 0.102434
Si Si6 0.040276 0.470386 0.893053
O O1 0.223030 0.111515 0.500000
O O2 0.287654 0.256766 0.666736
O O3 0.375968 0.334460 0.483494
O O4 0.134820 0.242606 0.540117
O O5 0.220052 0.779948 0.833334
O O6 0.437396 0.971940 0.846655
O O7 0.252224 0.977100 0.924548
O O8 0.341455 0.847267 0.000571
O O9 0.378961 0.757922 0.166667
O O10 0.521112 0.690451 0.226522
O O11 0.603116 0.924772 0.156948
O O12 0.253020 0.160827 0.839234
O O13 0.053880 0.107759 0.166667
O O14 0.119565 0.059783 0.000000
O O15 0.001924 0.500962 0.000000
#
# Coordination Sequence:
#
# PCOD8321984 Si02
#       6
#     6   6   6   6   6   6
#     4  10  23  38  60  85 119 154 197 239 297 353
#     4  11  22  38  57  87 119 154 197 242 293 352
#     4  11  22  37  61  84 121 157 193 238 297 355
#     4  10  22  39  56  88 119 155 195 237 295 357
#     4  11  24  37  62  89 121 156 195 242 297 354
#     4  11  23  37  58  87 118 153 196 245 294 346
#
# _framework density 19.19162
#
# number of rings (size 3 to 8) (size 9 to 14) (size 15 to 20)
#    0.000    1.333    3.333    2.000    7.000    1.333 
#    0.000    0.000    0.000    2.000    0.000    0.000 
#    0.000    0.000    0.000    0.000    0.000    0.000 
#
# Total GULP energy -446170.981819 kJ/mol
# GULP energy per Si atom -12393.638384 kJ/mol
# Density = 1.914794 g / cm^3
# Si number density = 19.191620 Si / 1000 Ang^3
#
#
#
# Elastic Constant Matrix: (Units=GPa)
#
#
# Indices 1 2 3 4 5 6 
#
# 1 11.7406 50.4359 32.9752 -0.0006 -20.6256 0.0000
# 2 50.4359 11.7406 32.9752 0.0006 20.6256 0.0000
# 3 32.9752 32.9752 149.4959 0.0000 0.0000 0.0000
# 4 -0.0006 0.0006 0.0000 21.2124 0.0000 20.6256
# 5 -20.6256 20.6256 0.0000 0.0000 21.2124 -0.0006
# 6 0.0000 0.0000 0.0000 20.6256 -0.0006 -19.3477
#
#
#
# Elastic Compliance Matrix: (Units=1/GPa)
#
#
# Indices 1 2 3 4 5 6 
#
# 1 0.004153 0.016842 -0.004631 0.000000 -0.012338 0.000000
# 2 0.016842 0.004153 -0.004631 0.000000 0.012338 0.000000
# 3 -0.004631 -0.004631 0.008732 0.000000 0.000000 0.000000
# 4 0.000000 0.000000 0.000000 0.023148 0.000000 0.024677
# 5 -0.012338 0.012338 0.000000 0.000000 0.023148 -0.000001
# 6 0.000000 0.000000 0.000000 0.024677 -0.000001 -0.025379
#
#
# Mechanical properties :
#
#
# Convention : Reuss Voigt Hill
#
# Bulk Modulus (GPa) = 31.05721 45.08332 38.07027
# Shear Modulus (GPa) = 149.13183 8.38814 78.75998
#
# Velocity S-wave (km/s) = 8.82471 2.09290 6.41310
# Velocity P-wave (km/s) = 10.95681 5.42056 8.64390
#
# Compressibility (1/GPa) = 0.03219864
#
# Stress axis : x y z
#
# Youngs Moduli (GPa) = 240.79175 240.79176 114.51921
#
# Poissons Ratio (x) = -4.05552 0.53035
# Poissons Ratio (y) = -4.05552 0.53035
# Poissons Ratio (z) = 1.11513 1.11513
#
# Static dielectric constant tensor:
#      x y z
#    x 3.664450 0.000000 0.000000 
#    y 0.000000 3.664450 0.000000 
#    z 0.000000 0.000000 4.495800 
# 
# 
# High freq. dielectric constant tensor:
#      x y z
#    x 1.729310 0.000000 0.000000 
#    y 0.000000 1.729310 0.000000 
#    z 0.000000 0.000000 1.769920 
# 
# From -- ./inp_files/2920.got.cif
#   From: 2010.03.12/outbox.cif.g09.slc.cpg/sg151_2_cif.got.tgz:2920.got - 2010.04.03 13:42:29.
