data_PCOD8321526
_publ_section_title
;
Structure prediction by ZEFSAII (Michael W. Deem and Ramdas Pophale) SiO2 
 PCOD8321526
Probable space group: R 3
;
_chemical_formula_sum "Si O2"
_cell_formula_units_Z 51
_cell_length_a 16.420075
_cell_length_b 16.420075
_cell_length_c 10.576881
_cell_angle_alpha 90.000000
_cell_angle_beta 90.000000
_cell_angle_gamma 120.000000
_cell_volume 2469.667706
_symmetry_space_group_name_H-M "R 3"
_symmetry_group_IT_number 146
_symmetry_cell_setting 'hexagonal'
loop_
_space_group_symop_operation_xyz
x,y,z
-y,x-y,z
-x+y,-x,z
2/3+x,1/3+y,1/3+z
2/3-y,1/3+x-y,1/3+z
2/3-x+y,1/3-x,1/3+z
1/3+x,2/3+y,2/3+z
1/3-y,2/3+x-y,2/3+z
1/3-x+y,2/3-x,2/3+z
loop_
_atom_site_type_symbol
_atom_site_label
_atom_site_fract_x
_atom_site_fract_y
_atom_site_fract_z
Si Si1 0.082187 0.187795 0.768450
Si Si2 0.333334 0.666668 0.121999
Si Si3 0.839266 0.426290 0.951855
Si Si4 0.123710 0.791350 0.103762
Si Si5 0.607071 0.850513 0.824788
Si Si6 0.811910 0.310178 0.382730
Si Si7 0.000000 0.000000 0.163582
O O1 0.129931 0.125277 0.733074
O O2 0.167845 0.292375 0.769947
O O3 0.001703 0.173056 0.666245
O O4 0.026344 0.157021 0.899786
O O5 0.438854 0.736046 0.165521
O O6 0.333334 0.666667 0.976137
O O7 0.940538 0.506436 0.899918
O O8 0.180183 0.905205 0.092742
O O9 0.011845 0.750569 0.105836
O O10 0.148301 0.752265 0.977648
O O11 0.542498 0.747024 0.769881
O O12 0.709093 0.269785 0.445830
#
# Coordination Sequence:
#
# PCOD8321526 Si02
#       7
#     9   3   9   9   9   9   3
#     4  10  23  42  67  92 132 172 229 266 334 407
#     4   9  21  37  62  91 123 168 220 263 337 399
#     4  10  21  42  64  95 128 176 217 280 329 402
#     4  11  24  42  67  99 137 172 223 276 347 399
#     4  11  24  43  63 102 132 174 221 281 336 404
#     4  11  23  39  67  93 125 174 221 268 330 406
#     4  12  18  37  62  88 117 168 217 260 319 387
#
# _framework density 20.650551
#
# number of rings (size 3 to 8) (size 9 to 14) (size 15 to 20)
#    0.000    1.412    1.765    3.529    2.471    2.824 
#    3.176    0.000    0.000    0.000    0.000    0.000 
#    0.000    0.000    0.000    0.000    0.000    0.000 
#
# Total GULP energy -210679.776869 kJ/mol
# GULP energy per Si atom -12392.928051 kJ/mol
# Density = 2.060355 g / cm^3
# Si number density = 20.650551 Si / 1000 Ang^3
#
#
#
# Elastic Constant Matrix: (Units=GPa)
#
#
# Indices 1 2 3 4 5 6 
#
# 1 116.1837 41.5379 62.5950 -11.3392 -7.2754 0.0008
# 2 41.5379 116.1823 62.5952 11.3393 7.2754 -0.0008
# 3 62.5950 62.5952 113.8673 0.0011 -0.0013 0.0021
# 4 -11.3392 11.3393 0.0011 38.3756 0.0003 7.2745
# 5 -7.2754 7.2754 -0.0013 0.0003 38.3769 -11.3399
# 6 0.0008 -0.0008 0.0021 7.2745 -11.3399 37.3235
#
#
#
# Elastic Compliance Matrix: (Units=1/GPa)
#
#
# Indices 1 2 3 4 5 6 
#
# 1 0.013294 -0.002046 -0.006183 0.004533 0.002908 0.000000
# 2 -0.002046 0.013295 -0.006184 -0.004533 -0.002908 0.000001
# 3 -0.006183 -0.006184 0.015581 0.000000 0.000000 -0.000001
# 4 0.004533 -0.004533 0.000000 0.029840 0.000000 -0.005816
# 5 0.002908 -0.002908 0.000000 0.000000 0.029839 0.009066
# 6 0.000000 0.000001 -0.000001 -0.005816 0.009066 0.030681
#
#
# Mechanical properties :
#
#
# Convention : Reuss Voigt Hill
#
# Bulk Modulus (GPa) = 74.94321 75.52107 75.23214
# Shear Modulus (GPa) = 30.15627 34.78221 32.46924
#
# Velocity S-wave (km/s) = 3.82555 4.10850 3.96955
# Velocity P-wave (km/s) = 7.47550 7.69134 7.58419
#
# Compressibility (1/GPa) = 0.01334344
#
# Stress axis : x y z
#
# Youngs Moduli (GPa) = 75.21912 75.21775 64.18268
#
# Poissons Ratio (x) = 0.15391 0.39687
# Poissons Ratio (y) = 0.15391 0.39688
# Poissons Ratio (z) = 0.46511 0.46511
#
# Static dielectric constant tensor:
#      x y z
#    x 3.488030 -0.000040 -0.000020 
#    y -0.000040 3.487990 -0.000030 
#    z -0.000020 -0.000030 3.695920 
# 
# 
# High freq. dielectric constant tensor:
#      x y z
#    x 1.812080 0.000000 0.000000 
#    y 0.000000 1.812080 0.000000 
#    z 0.000000 0.000000 1.812280 
# 
# From -- ./inp_files/1150.got.cif
#   From: 2010.06.25/outbox.cif.g09.slc.cpg/sg146_cif.got.tgz:1150.got - 2010.06.28 11:17:22.
