data_PCOD8321514
_publ_section_title
;
Structure prediction by ZEFSAII (Michael W. Deem and Ramdas Pophale) SiO2 
 PCOD8321514
Probable space group: R 3
;
_chemical_formula_sum "Si O2"
_cell_formula_units_Z 33
_cell_length_a 13.408255
_cell_length_b 13.408255
_cell_length_c 7.611210
_cell_angle_alpha 90.000000
_cell_angle_beta 90.000000
_cell_angle_gamma 120.000000
_cell_volume 1185.028671
_symmetry_space_group_name_H-M "R 3"
_symmetry_group_IT_number 146
_symmetry_cell_setting 'hexagonal'
loop_
_space_group_symop_operation_xyz
x,y,z
-y,x-y,z
-x+y,-x,z
2/3+x,1/3+y,1/3+z
2/3-y,1/3+x-y,1/3+z
2/3-x+y,1/3-x,1/3+z
1/3+x,2/3+y,2/3+z
1/3-y,2/3+x-y,2/3+z
1/3-x+y,2/3-x,2/3+z
loop_
_atom_site_type_symbol
_atom_site_label
_atom_site_fract_x
_atom_site_fract_y
_atom_site_fract_z
Si Si1 0.666667 0.333335 0.329326
Si Si2 0.000000 0.000000 0.413614
Si Si3 0.786235 0.666665 0.871463
Si Si4 0.793526 0.579800 0.228589
Si Si5 0.246465 0.126860 0.514341
O O1 0.666668 0.333334 0.538136
O O2 0.775341 0.451671 0.255666
O O3 0.990343 0.881665 0.487271
O O4 0.766404 0.769440 0.933230
O O5 0.877002 0.705551 0.710448
O O6 0.663631 0.563886 0.809695
O O7 0.838117 0.627780 0.032480
O O8 0.883804 0.666668 0.371463
#
# Coordination Sequence:
#
# PCOD8321514 Si02
#       5
#     3   3   9   9   9
#     4  12  27  40  77 118 160 209 271 331 386 490
#     4  12  27  40  77 118 160 209 271 331 386 490
#     4  10  20  36  76  92 136 210 246 314 382 460
#     4  11  21  44  69 106 145 205 264 315 401 459
#     4  11  21  44  69 106 145 205 264 315 401 459
#
# _framework density 27.847428000000001
#
# number of rings (size 3 to 8) (size 9 to 14) (size 15 to 20)
#    0.000    1.091    5.455    3.273    0.000    8.727 
#    0.000    5.455   18.000    0.000    0.000    0.000 
#    0.000    0.000    0.000    0.000    0.000    0.000 
#
# Total GULP energy -136436.128847 kJ/mol
# GULP energy per Si atom -12403.284441 kJ/mol
# Density = 2.778405 g / cm^3
# Si number density = 27.847428 Si / 1000 Ang^3
#
#
#
# Elastic Constant Matrix: (Units=GPa)
#
#
# Indices 1 2 3 4 5 6 
#
# 1 92.6817 5.2188 45.6250 0.6212 0.0003 0.0008
# 2 5.2188 92.6825 45.6257 -0.6213 0.0004 0.0003
# 3 45.6250 45.6257 289.0980 0.0000 -0.0004 0.0002
# 4 0.6212 -0.6213 0.0000 7.9425 0.0007 -0.0005
# 5 0.0003 0.0004 -0.0004 0.0007 7.9425 0.6205
# 6 0.0008 0.0003 0.0002 -0.0005 0.6205 43.7313
#
#
#
# Elastic Compliance Matrix: (Units=1/GPa)
#
#
# Indices 1 2 3 4 5 6 
#
# 1 0.011711 0.000265 -0.001890 -0.000895 0.000000 0.000000
# 2 0.000265 0.011711 -0.001890 0.000895 -0.000001 0.000000
# 3 -0.001890 -0.001890 0.004056 0.000000 0.000000 0.000000
# 4 -0.000895 0.000895 0.000000 0.126044 -0.000012 0.000002
# 5 0.000000 -0.000001 0.000000 -0.000012 0.126045 -0.001789
# 6 0.000000 0.000000 0.000000 0.000002 -0.001789 0.022892
#
#
# Mechanical properties :
#
#
# Convention : Reuss Voigt Hill
#
# Bulk Modulus (GPa) = 48.90566 74.15571 61.53068
# Shear Modulus (GPa) = 15.80749 37.12278 26.46514
#
# Velocity S-wave (km/s) = 2.38512 3.65509 3.08614
# Velocity P-wave (km/s) = 5.01848 6.67084 5.90276
#
# Compressibility (1/GPa) = 0.02044753
#
# Stress axis : x y z
#
# Youngs Moduli (GPa) = 85.38893 85.38946 246.57191
#
# Poissons Ratio (x) = -0.02263 0.46603
# Poissons Ratio (y) = -0.02263 0.46604
# Poissons Ratio (z) = 0.16139 0.16139
#
# Static dielectric constant tensor:
#      x y z
#    x 4.918660 -0.000010 0.000000 
#    y -0.000010 4.918630 0.000010 
#    z 0.000000 0.000010 4.971470 
# 
# 
# High freq. dielectric constant tensor:
#      x y z
#    x 2.117020 0.000000 0.000000 
#    y 0.000000 2.117020 0.000000 
#    z 0.000000 0.000000 2.129200 
# 
# From -- ./inp_files/545.got.cif
#   From: 2010.06.25/outbox.cif.g09.slc.cpg/sg146_cif.got.tgz:545.got - 2010.06.28 11:17:22.
