data_PCOD8321938
_publ_section_title
;
Structure prediction by ZEFSAII (Michael W. Deem and Ramdas Pophale) SiO2 
 PCOD8321938
Probable space group: P 31 1 2
;
_chemical_formula_sum "Si O2"
_cell_formula_units_Z 42
_cell_length_a 9.374846
_cell_length_b 9.374846
_cell_length_c 28.298355
_cell_angle_alpha 90.000000
_cell_angle_beta 90.000000
_cell_angle_gamma 120.000000
_cell_volume 2153.873073
_symmetry_space_group_name_H-M "P 31 1 2"
_symmetry_group_IT_number 151
_symmetry_cell_setting 'hexagonal'
loop_
_space_group_symop_operation_xyz
x,y,z
-y,x-y,1/3+z
-x+y,-x,2/3+z
-y,-x,2/3-z
-x+y,y,1/3-z
x,x-y,-z
loop_
_atom_site_type_symbol
_atom_site_label
_atom_site_fract_x
_atom_site_fract_y
_atom_site_fract_z
Si Si1 0.038894 0.674610 0.581143
Si Si2 0.428026 0.990492 0.930797
Si Si3 0.376241 0.601516 0.276854
Si Si4 0.622688 0.150903 0.013905
Si Si5 0.741682 0.074968 0.587394
Si Si6 0.130224 0.022750 0.950673
Si Si7 0.755485 0.225330 0.487671
O O1 0.946877 0.534963 0.619922
O O2 0.020483 0.834455 0.589686
O O3 0.942342 0.599446 0.531841
O O4 0.234076 0.740838 0.582333
O O5 0.356593 0.798333 0.920653
O O6 0.298828 0.019909 0.961483
O O7 0.459666 0.089214 0.882128
O O8 0.590065 0.053726 0.963895
O O9 0.374147 0.625854 0.333334
O O10 0.409236 0.451013 0.266813
O O11 0.781871 0.171841 0.040618
O O12 0.657564 0.328782 0.000000
O O13 0.762304 0.137804 0.534656
O O14 0.847806 0.984204 0.586693
O O15 0.045507 0.022754 0.000000
O O16 0.677417 0.338709 0.500000
#
# Coordination Sequence:
#
# PCOD8321938 Si02
#       7
#     6   6   6   6   6   6   6
#     4  11  20  38  71  84 127 169 211 263 327 397
#     4  10  20  37  69  91 126 171 223 259 321 396
#     4  11  22  40  66 102 128 161 220 286 332 385
#     4  12  18  38  64  95 117 175 222 264 322 383
#     4  11  25  38  64  94 131 167 221 270 330 394
#     4  10  18  38  62  91 121 165 208 262 323 388
#     4  11  22  42  63  92 130 180 221 256 326 419
#
# _framework density 19.499756000000001
#
# number of rings (size 3 to 8) (size 9 to 14) (size 15 to 20)
#    0.000    1.143    7.143    1.286    0.000    5.143 
#    5.143    0.000    3.143    0.000    0.000    0.000 
#    0.000    0.000    0.000    0.000    0.000    0.000 
#
# Total GULP energy -520532.236467 kJ/mol
# GULP energy per Si atom -12393.624678 kJ/mol
# Density = 1.945537 g / cm^3
# Si number density = 19.499756 Si / 1000 Ang^3
#
#
#
# Elastic Constant Matrix: (Units=GPa)
#
#
# Indices 1 2 3 4 5 6 
#
# 1 123.0278 60.5827 58.6046 0.0001 0.6794 0.0000
# 2 60.5827 123.0278 58.6046 -0.0001 -0.6794 0.0000
# 3 58.6046 58.6046 118.5034 0.0000 0.0000 0.0000
# 4 0.0001 -0.0001 0.0000 26.1690 0.0000 -0.6794
# 5 0.6794 -0.6794 0.0000 0.0000 26.1690 0.0001
# 6 0.0000 0.0000 0.0000 -0.6794 0.0001 31.2225
#
#
#
# Elastic Compliance Matrix: (Units=1/GPa)
#
#
# Indices 1 2 3 4 5 6 
#
# 1 0.011991 -0.004032 -0.003936 0.000000 -0.000416 0.000000
# 2 -0.004032 0.011991 -0.003936 0.000000 0.000416 0.000000
# 3 -0.003936 -0.003936 0.012332 0.000000 0.000000 0.000000
# 4 0.000000 0.000000 0.000000 0.038235 0.000000 0.000832
# 5 -0.000416 0.000416 0.000000 0.000000 0.038235 0.000000
# 6 0.000000 0.000000 0.000000 0.000832 0.000000 0.032046
#
#
# Mechanical properties :
#
#
# Convention : Reuss Voigt Hill
#
# Bulk Modulus (GPa) = 79.96538 80.01584 79.99061
# Shear Modulus (GPa) = 28.93419 29.16325 29.04872
#
# Velocity S-wave (km/s) = 3.85622 3.87146 3.86385
# Velocity P-wave (km/s) = 7.80543 7.81713 7.81128
#
# Compressibility (1/GPa) = 0.01250541
#
# Stress axis : x y z
#
# Youngs Moduli (GPa) = 83.39591 83.39591 81.09273
#
# Poissons Ratio (x) = 0.33626 0.31918
# Poissons Ratio (y) = 0.33626 0.31918
# Poissons Ratio (z) = 0.32824 0.32824
#
# Static dielectric constant tensor:
#      x y z
#    x 3.453260 0.000000 0.000000 
#    y 0.000000 3.453260 0.000000 
#    z 0.000000 0.000000 3.517830 
# 
# 
# High freq. dielectric constant tensor:
#      x y z
#    x 1.752540 0.000000 0.000000 
#    y 0.000000 1.752540 0.000000 
#    z 0.000000 0.000000 1.757570 
# 
# From -- ./inp_files/5039.got.cif
#   From: 2010.03.12/outbox.cif.g09.slc.cpg/sg151_3_cif.got.tgz:5039.got - 2010.04.03 13:42:29.
