data_PCOD8321863
_publ_section_title
;
Structure prediction by ZEFSAII (Michael W. Deem and Ramdas Pophale) SiO2 
 PCOD8321863
Probable space group: P 3 1 2
;
_chemical_formula_sum "Si O2"
_cell_formula_units_Z 32
_cell_length_a 16.518486
_cell_length_b 16.518486
_cell_length_c 9.052763
_cell_angle_alpha 90.000000
_cell_angle_beta 90.000000
_cell_angle_gamma 120.000000
_cell_volume 2139.204294
_symmetry_space_group_name_H-M "P 3 1 2"
_symmetry_group_IT_number 149
_symmetry_cell_setting 'hexagonal'
loop_
_space_group_symop_operation_xyz
x,y,z
-y,x-y,z
-x+y,-x,z
-y,-x,-z
-x+y,y,-z
x,x-y,-z
loop_
_atom_site_type_symbol
_atom_site_label
_atom_site_fract_x
_atom_site_fract_y
_atom_site_fract_z
Si Si1 0.766948 0.721573 0.673171
Si Si2 0.000000 0.000000 0.825024
Si Si3 0.846600 0.512822 0.324464
Si Si4 0.789085 0.894543 0.824906
Si Si5 0.766948 0.045376 0.673171
Si Si6 0.846600 0.333778 0.324464
O O1 0.689845 0.616556 0.722641
O O2 0.741004 0.789739 0.761898
O O3 0.870083 0.740167 0.714874
O O4 0.760884 0.736722 0.500000
O O5 0.895030 0.947516 0.764844
O O6 0.000000 0.000000 0.000000
O O7 0.869178 0.434589 0.260789
O O8 0.746286 0.492572 0.262844
O O9 0.841268 0.508065 0.500000
O O10 0.741003 0.951265 0.761898
O O11 0.781263 0.890632 0.000000
O O12 0.689845 0.073289 0.722641
#
# Coordination Sequence:
#
# PCOD8321863 Si02
#       6
#     6   2   6   6   6   6
#     4   9  17  27  39  59  84 108 136 169 203 238
#     4   9  18  27  37  53  73 105 145 173 193 228
#     4   8  13  22  38  60  85 110 135 163 197 238
#     4  11  19  29  41  55  79 111 145 173 199 236
#     4   9  17  27  39  59  84 108 136 169 203 238
#     4   8  13  22  38  60  85 110 135 163 197 238
#
# _framework density 14.958833
#
# number of rings (size 3 to 8) (size 9 to 14) (size 15 to 20)
#    0.000    3.000    1.875    3.188    0.000    1.500 
#    0.000    0.000    0.000    1.125    0.000    0.000 
#    1.875    3.000    3.375    0.000    1.125    0.000 
#
# Total GULP energy -396602.966475 kJ/mol
# GULP energy per Si atom -12393.842702 kJ/mol
# Density = 1.492479 g / cm^3
# Si number density = 14.958833 Si / 1000 Ang^3
#
#
#
# Elastic Constant Matrix: (Units=GPa)
#
#
# Indices 1 2 3 4 5 6 
#
# 1 117.5564 62.8099 30.8253 0.0000 0.0000 0.0000
# 2 62.8099 117.5564 30.8253 0.0000 0.0000 0.0000
# 3 30.8253 30.8253 35.0505 0.0000 0.0000 0.0000
# 4 0.0000 0.0000 0.0000 8.3276 0.0000 0.0000
# 5 0.0000 0.0000 0.0000 0.0000 8.3276 0.0000
# 6 0.0000 0.0000 0.0000 0.0000 0.0000 27.3732
#
#
#
# Elastic Compliance Matrix: (Units=1/GPa)
#
#
# Indices 1 2 3 4 5 6 
#
# 1 0.013097 -0.005169 -0.006972 0.000000 0.000000 0.000000
# 2 -0.005169 0.013097 -0.006972 0.000000 0.000000 0.000000
# 3 -0.006972 -0.006972 0.040793 0.000000 0.000000 0.000000
# 4 0.000000 0.000000 0.000000 0.120083 0.000000 0.000000
# 5 0.000000 0.000000 0.000000 0.000000 0.120083 0.000000
# 6 0.000000 0.000000 0.000000 0.000000 0.000000 0.036532
#
#
# Mechanical properties :
#
#
# Convention : Reuss Voigt Hill
#
# Bulk Modulus (GPa) = 34.76975 57.67604 46.22289
# Shear Modulus (GPa) = 12.77151 18.51919 15.64535
#
# Velocity S-wave (km/s) = 2.92512 3.52235 3.23754
# Velocity P-wave (km/s) = 5.89088 7.42852 6.70393
#
# Compressibility (1/GPa) = 0.02876063
#
# Stress axis : x y z
#
# Youngs Moduli (GPa) = 76.35555 76.35555 24.51418
#
# Poissons Ratio (x) = 0.39471 0.17090
# Poissons Ratio (y) = 0.39471 0.17090
# Poissons Ratio (z) = 0.53232 0.53232
#
# Static dielectric constant tensor:
#      x y z
#    x 2.974550 0.000000 0.000000 
#    y 0.000000 2.974550 0.000000 
#    z 0.000000 0.000000 2.478600 
# 
# 
# High freq. dielectric constant tensor:
#      x y z
#    x 1.557340 0.000000 0.000000 
#    y 0.000000 1.557340 0.000000 
#    z 0.000000 0.000000 1.538240 
# 
# From -- ./inp_files/873.got.cif
#   From: 2010.03.12/outbox.cif.g09.slc.cpg/sg149_cif.got.tgz:873.got - 2010.04.03 13:40:41.
