data_PCOD8321869
_publ_section_title
;
Structure prediction by ZEFSAII (Michael W. Deem and Ramdas Pophale) SiO2 
 PCOD8321869
Probable space group: P 3 2 1
;
_chemical_formula_sum "Si O2"
_cell_formula_units_Z 48
_cell_length_a 20.021656
_cell_length_b 20.021656
_cell_length_c 9.075921
_cell_angle_alpha 90.000000
_cell_angle_beta 90.000000
_cell_angle_gamma 120.000000
_cell_volume 3150.803573
_symmetry_space_group_name_H-M "P 3 2 1"
_symmetry_group_IT_number 150
_symmetry_cell_setting 'hexagonal'
loop_
_space_group_symop_operation_xyz
x,y,z
-y,x-y,z
-x+y,-x,z
x-y,-y,-z
-x,-x+y,-z
y,x,-z
loop_
_atom_site_type_symbol
_atom_site_label
_atom_site_fract_x
_atom_site_fract_y
_atom_site_fract_z
Si Si1 0.016112 0.430279 0.835776
Si Si2 0.319252 0.460218 0.748590
Si Si3 0.364315 0.545390 0.249186
Si Si4 0.818925 0.364315 0.249186
Si Si5 0.859035 0.319252 0.748589
Si Si6 0.414167 0.430279 0.164224
Si Si7 0.246789 0.753211 0.500000
Si Si8 0.749397 0.498794 1.000000
O O1 0.951691 0.360007 0.737401
O O2 0.000000 0.500000 0.831931
O O3 0.101956 0.462222 0.772821
O O4 0.000000 0.395358 0.000000
O O5 0.383280 0.550634 0.743905
O O6 0.360006 0.408316 0.737401
O O7 0.263795 0.439426 0.607305
O O8 0.271351 0.446586 0.900052
O O9 0.449366 0.616720 0.256096
O O10 0.360266 0.462222 0.227179
O O11 0.321645 0.545589 0.399268
O O12 0.321198 0.555539 0.108267
O O13 0.776056 0.321645 0.399267
O O14 0.765659 0.321198 0.108266
O O15 0.824369 0.263795 0.607304
O O16 0.824764 0.271351 0.900051
O O17 0.395358 0.395358 0.000000
#
# Coordination Sequence:
#
# PCOD8321869 Si02
#       8
#     6   6   6   6   6   6   6   6
#     4   9  16  29  53  63  73  95 149 189 205 238
#     4  10  19  33  44  61  81 110 140 174 214 264
#     4  10  19  33  44  61  81 110 140 174 214 264
#     4  10  19  33  44  61  81 110 140 174 214 264
#     4  10  19  33  44  61  81 110 140 174 214 264
#     4   9  16  29  53  63  73  95 149 189 205 238
#     4  10  22  32  38  58  92 104 128 163 228 271
#     4  10  18  28  42  62  84 100 132 171 222 257
#
# _framework density 15.234209999999999
#
# number of rings (size 3 to 8) (size 9 to 14) (size 15 to 20)
#    0.000    2.250    2.500    1.500    0.000    1.000 
#   30.000    3.750    0.000    0.000    0.000    0.000 
#    0.000    0.000    0.000    0.000    0.000    0.000 
#
# Total GULP energy -594719.318087 kJ/mol
# GULP energy per Si atom -12389.985793 kJ/mol
# Density = 1.519954 g / cm^3
# Si number density = 15.234210 Si / 1000 Ang^3
#
#
#
# Elastic Constant Matrix: (Units=GPa)
#
#
# Indices 1 2 3 4 5 6 
#
# 1 61.0055 28.5018 29.2945 0.0000 0.0000 0.0000
# 2 28.5018 61.0055 29.2945 0.0000 0.0000 0.0000
# 3 29.2945 29.2945 102.5308 0.0000 0.0000 0.0000
# 4 0.0000 0.0000 0.0000 17.1990 0.0000 0.0000
# 5 0.0000 0.0000 0.0000 0.0000 17.1990 0.0000
# 6 0.0000 0.0000 0.0000 0.0000 0.0000 16.2518
#
#
#
# Elastic Compliance Matrix: (Units=1/GPa)
#
#
# Indices 1 2 3 4 5 6 
#
# 1 0.022254 -0.008512 -0.003926 0.000000 0.000000 0.000000
# 2 -0.008512 0.022254 -0.003926 0.000000 0.000000 0.000000
# 3 -0.003926 -0.003926 0.011997 0.000000 0.000000 0.000000
# 4 0.000000 0.000000 0.000000 0.058143 0.000000 0.000000
# 5 0.000000 0.000000 0.000000 0.000000 0.058143 0.000000
# 6 0.000000 0.000000 0.000000 0.000000 0.000000 0.061532
#
#
# Mechanical properties :
#
#
# Convention : Reuss Voigt Hill
#
# Bulk Modulus (GPa) = 42.05920 44.30259 43.18089
# Shear Modulus (GPa) = 18.18336 19.29336 18.73836
#
# Velocity S-wave (km/s) = 3.45858 3.56258 3.51097
# Velocity P-wave (km/s) = 6.60434 6.78725 6.69642
#
# Compressibility (1/GPa) = 0.02377601
#
# Stress axis : x y z
#
# Youngs Moduli (GPa) = 44.93562 44.93562 83.35546
#
# Poissons Ratio (x) = 0.38248 0.32729
# Poissons Ratio (y) = 0.38248 0.32729
# Poissons Ratio (z) = 0.17643 0.17643
#
# Static dielectric constant tensor:
#      x y z
#    x 2.896680 0.000000 0.000000 
#    y 0.000000 2.896680 0.000000 
#    z 0.000000 0.000000 3.189770 
# 
# 
# High freq. dielectric constant tensor:
#      x y z
#    x 1.542540 0.000000 0.000000 
#    y 0.000000 1.542540 0.000000 
#    z 0.000000 0.000000 1.603580 
# 
# From -- ./inp_files/793.got.cif
#   From: 2010.03.12/outbox.cif.g09.slc.cpg/sg150_cif.got.tgz:793.got - 2010.04.03 13:41:37.
