data_PCOD8321404
_publ_section_title
;
Structure prediction by ZEFSAII (Michael W. Deem and Ramdas Pophale) SiO2 
 PCOD8321404
Probable space group: P 31
;
_chemical_formula_sum "Si O2"
_cell_formula_units_Z 24
_cell_length_a 10.840154
_cell_length_b 10.840154
_cell_length_c 11.591135
_cell_angle_alpha 90.000000
_cell_angle_beta 90.000000
_cell_angle_gamma 120.000000
_cell_volume 1179.580270
_symmetry_space_group_name_H-M "P 31"
_symmetry_group_IT_number 144
_symmetry_cell_setting 'hexagonal'
loop_
_space_group_symop_operation_xyz
x,y,z
-y,x-y,1/3+z
-x+y,-x,2/3+z
loop_
_atom_site_type_symbol
_atom_site_label
_atom_site_fract_x
_atom_site_fract_y
_atom_site_fract_z
Si Si1 0.487648 0.185735 0.561150
Si Si2 0.016951 0.342509 0.082605
Si Si3 0.421854 0.985864 0.362199
Si Si4 0.281621 0.327800 0.136593
Si Si5 0.491447 0.796166 0.944228
Si Si6 0.484683 0.821863 0.681891
Si Si7 0.797156 0.260181 0.505334
Si Si8 0.523374 0.083149 0.953598
O O1 0.645370 0.204029 0.568520
O O2 0.512294 0.342202 0.535439
O O3 0.386216 0.128040 0.675073
O O4 0.399610 0.078270 0.459087
O O5 0.125097 0.279172 0.081875
O O6 0.092247 0.494053 0.020663
O O7 0.976311 0.353851 0.214552
O O8 0.548577 0.953910 0.391158
O O9 0.273026 0.839684 0.350642
O O10 0.451311 0.072669 0.244281
O O11 0.282188 0.379043 0.266878
O O12 0.311493 0.195059 0.144268
O O13 0.534218 0.804201 0.809239
O O14 0.534794 0.948827 0.000691
O O15 0.322563 0.698748 0.951154
O O16 0.808698 0.340229 0.385136
#
# Coordination Sequence:
#
# PCOD8321404 Si02
#       8
#     3   3   3   3   3   3   3   3
#     4  11  23  38  60  88 128 165 211 263 325 380
#     4  11  21  38  65  90 124 162 210 267 319 382
#     4  11  22  36  60  96 124 160 210 269 322 380
#     4  11  22  38  65  94 123 169 207 272 324 382
#     4  11  22  34  63  89 125 158 208 270 308 379
#     4  11  18  35  58  97 119 149 205 264 329 360
#     4  11  23  38  62  96 125 163 208 266 327 390
#     4  11  23  39  61  90 126 172 207 263 322 383
#
# _framework density 20.346219999999999
#
# number of rings (size 3 to 8) (size 9 to 14) (size 15 to 20)
#    0.000    1.000    6.250    3.750    1.750    1.000 
#    0.000    0.000    5.500    0.000    0.000    0.000 
#    0.000    0.000    0.000    0.000    0.000    0.000 
#
# Total GULP energy -297473.150308 kJ/mol
# GULP energy per Si atom -12394.714596 kJ/mol
# Density = 2.029991 g / cm^3
# Si number density = 20.346220 Si / 1000 Ang^3
#
#
#
# Elastic Constant Matrix: (Units=GPa)
#
#
# Indices 1 2 3 4 5 6 
#
# 1 84.7099 26.0813 35.9839 1.1344 2.2587 0.0000
# 2 26.0813 84.7099 35.9839 -1.1344 -2.2587 0.0000
# 3 35.9839 35.9839 79.2899 0.0000 0.0000 0.0000
# 4 1.1344 -1.1344 0.0000 27.3473 0.0000 -2.2587
# 5 2.2587 -2.2587 0.0000 0.0000 27.3473 1.1344
# 6 0.0000 0.0000 0.0000 -2.2587 1.1344 29.3143
#
#
#
# Elastic Compliance Matrix: (Units=1/GPa)
#
#
# Indices 1 2 3 4 5 6 
#
# 1 0.014996 -0.002197 -0.005809 -0.000713 -0.001420 0.000000
# 2 -0.002197 0.014996 -0.005809 0.000713 0.001420 0.000000
# 3 -0.005809 -0.005809 0.017884 0.000000 0.000000 0.000000
# 4 -0.000713 0.000713 0.000000 0.036860 0.000000 0.002840
# 5 -0.001420 0.001420 0.000000 0.000000 0.036860 -0.001426
# 6 0.000000 0.000000 0.000000 0.002840 -0.001426 0.034387
#
#
# Mechanical properties :
#
#
# Convention : Reuss Voigt Hill
#
# Bulk Modulus (GPa) = 49.38751 49.42311 49.40531
# Shear Modulus (GPa) = 26.26561 26.84581 26.55571
#
# Velocity S-wave (km/s) = 3.59685 3.63636 3.61666
# Velocity P-wave (km/s) = 6.44795 6.47878 6.46339
#
# Compressibility (1/GPa) = 0.02024803
#
# Stress axis : x y z
#
# Youngs Moduli (GPa) = 66.68288 66.68288 55.91538
#
# Poissons Ratio (x) = 0.14652 0.32479
# Poissons Ratio (y) = 0.14652 0.32479
# Poissons Ratio (z) = 0.38733 0.38733
#
# Static dielectric constant tensor:
#      x y z
#    x 3.688460 0.000000 0.000000 
#    y 0.000000 3.688460 0.000000 
#    z 0.000000 0.000000 3.743060 
# 
# 
# High freq. dielectric constant tensor:
#      x y z
#    x 1.778160 0.000000 0.000000 
#    y 0.000000 1.778160 0.000000 
#    z 0.000000 0.000000 1.798360 
# 
# From -- ./inp_files/666.got.cif
#   From: 2010.03.12/outbox.cif.g09.slc.cpg/sg144_cif.got.tgz:666.got - 2010.04.03 13:34:42.
