data_PCOD8321932
_publ_section_title
;
Structure prediction by ZEFSAII (Michael W. Deem and Ramdas Pophale) SiO2 
 PCOD8321932
Probable space group: P 31 1 2
;
_chemical_formula_sum "Si O2"
_cell_formula_units_Z 42
_cell_length_a 9.358316
_cell_length_b 9.358316
_cell_length_c 28.260923
_cell_angle_alpha 90.000000
_cell_angle_beta 90.000000
_cell_angle_gamma 120.000000
_cell_volume 2143.445202
_symmetry_space_group_name_H-M "P 31 1 2"
_symmetry_group_IT_number 151
_symmetry_cell_setting 'hexagonal'
loop_
_space_group_symop_operation_xyz
x,y,z
-y,x-y,1/3+z
-x+y,-x,2/3+z
-y,-x,2/3-z
-x+y,y,1/3-z
x,x-y,-z
loop_
_atom_site_type_symbol
_atom_site_label
_atom_site_fract_x
_atom_site_fract_y
_atom_site_fract_z
Si Si1 0.731628 0.342906 0.615227
Si Si2 0.888558 0.138301 0.041036
Si Si3 0.245871 0.577593 0.881729
Si Si4 0.694472 0.563876 0.212837
Si Si5 0.953154 0.868457 0.061502
Si Si6 0.527247 0.737316 0.364400
Si Si7 0.316985 0.963233 0.054124
O O1 0.654008 0.308016 0.666667
O O2 0.851341 0.267803 0.608174
O O3 0.579137 0.252687 0.580670
O O4 0.848947 0.537726 0.605566
O O5 0.055884 0.307173 0.049160
O O6 0.894630 0.999245 0.073301
O O7 0.863689 0.091164 0.986034
O O8 0.338041 0.661960 0.833334
O O9 0.296127 0.722014 0.921117
O O10 0.312366 0.460141 0.901590
O O11 0.046622 0.473295 0.873978
O O12 0.759873 0.519747 0.166667
O O13 0.839798 0.740937 0.229476
O O14 0.149192 0.969287 0.052904
O O15 0.430214 0.569787 0.333334
O O16 0.555563 0.889157 0.330238
#
# Coordination Sequence:
#
# PCOD8321932 Si02
#       7
#     6   6   6   6   6   6   6
#     4  12  23  38  62  97 123 155 198 268 315 360
#     4  10  18  35  66  87 120 149 206 245 309 358
#     4  10  21  41  65  84 120 171 209 247 301 378
#     4  11  24  43  61  89 128 170 205 254 319 378
#     4   9  20  40  60  88 117 164 198 249 300 378
#     4   9  17  36  63  91 119 159 201 254 312 372
#     4   9  22  37  62  89 123 152 202 261 312 352
#
# _framework density 19.594621
#
# number of rings (size 3 to 8) (size 9 to 14) (size 15 to 20)
#    0.000    2.000    2.857    1.286    4.000    2.857 
#    7.714    2.143    0.000    0.000    0.000    0.000 
#    0.000    0.000    0.000    0.000    0.000    0.000 
#
# Total GULP energy -520646.141164 kJ/mol
# GULP energy per Si atom -12396.336694 kJ/mol
# Density = 1.955002 g / cm^3
# Si number density = 19.594621 Si / 1000 Ang^3
#
#
#
# Elastic Constant Matrix: (Units=GPa)
#
#
# Indices 1 2 3 4 5 6 
#
# 1 97.3685 34.0447 40.1415 0.0024 -7.3695 0.0000
# 2 34.0447 97.3685 40.1415 -0.0024 7.3695 0.0000
# 3 40.1415 40.1415 116.0151 0.0000 0.0000 0.0000
# 4 0.0024 -0.0024 0.0000 25.1797 0.0000 7.3695
# 5 -7.3695 7.3695 0.0000 0.0000 25.1797 0.0024
# 6 0.0000 0.0000 0.0000 7.3695 0.0024 31.6619
#
#
#
# Elastic Compliance Matrix: (Units=1/GPa)
#
#
# Indices 1 2 3 4 5 6 
#
# 1 0.013298 -0.003649 -0.003339 -0.000002 0.004960 0.000000
# 2 -0.003649 0.013298 -0.003339 0.000002 -0.004960 0.000000
# 3 -0.003339 -0.003339 0.010930 0.000000 0.000000 0.000000
# 4 -0.000002 0.000002 0.000000 0.042618 0.000000 -0.009920
# 5 0.004960 -0.004960 0.000000 0.000000 0.042618 -0.000003
# 6 0.000000 0.000000 0.000000 -0.009920 -0.000003 0.033893
#
#
# Mechanical properties :
#
#
# Convention : Reuss Voigt Hill
#
# Bulk Modulus (GPa) = 59.26357 59.93419 59.59888
# Shear Modulus (GPa) = 27.33290 29.49922 28.41606
#
# Velocity S-wave (km/s) = 3.73891 3.88426 3.81228
# Velocity P-wave (km/s) = 6.99641 7.12531 7.06115
#
# Compressibility (1/GPa) = 0.01687377
#
# Stress axis : x y z
#
# Youngs Moduli (GPa) = 75.20059 75.20059 91.49185
#
# Poissons Ratio (x) = 0.27437 0.30546
# Poissons Ratio (y) = 0.27437 0.30546
# Poissons Ratio (z) = 0.25107 0.25107
#
# Static dielectric constant tensor:
#      x y z
#    x 3.565840 0.000000 0.000000 
#    y 0.000000 3.565840 0.000000 
#    z 0.000000 0.000000 3.329890 
# 
# 
# High freq. dielectric constant tensor:
#      x y z
#    x 1.762500 0.000000 0.000000 
#    y 0.000000 1.762500 0.000000 
#    z 0.000000 0.000000 1.744100 
# 
# From -- ./inp_files/5032.got.cif
#   From: 2010.03.12/outbox.cif.g09.slc.cpg/sg151_3_cif.got.tgz:5032.got - 2010.04.03 13:42:29.
