data_PCOD8321441
_publ_section_title
;
Structure prediction by ZEFSAII (Michael W. Deem and Ramdas Pophale) SiO2 
 PCOD8321441
Probable space group: P 31
;
_chemical_formula_sum "Si O2"
_cell_formula_units_Z 24
_cell_length_a 13.191529
_cell_length_b 13.191529
_cell_length_c 6.551165
_cell_angle_alpha 90.000000
_cell_angle_beta 90.000000
_cell_angle_gamma 120.000000
_cell_volume 987.277962
_symmetry_space_group_name_H-M "P 31"
_symmetry_group_IT_number 144
_symmetry_cell_setting 'hexagonal'
loop_
_space_group_symop_operation_xyz
x,y,z
-y,x-y,1/3+z
-x+y,-x,2/3+z
loop_
_atom_site_type_symbol
_atom_site_label
_atom_site_fract_x
_atom_site_fract_y
_atom_site_fract_z
Si Si1 0.845991 0.772149 0.292330
Si Si2 0.222126 0.612553 0.758012
Si Si3 0.554136 0.249090 0.059809
Si Si4 0.048929 0.839748 0.582447
Si Si5 0.628902 0.623653 0.574024
Si Si6 0.757636 0.091585 0.598118
Si Si7 0.245782 0.866625 0.287560
Si Si8 0.091189 0.624467 0.103442
O O1 0.883760 0.910842 0.314318
O O2 0.720459 0.681963 0.390633
O O3 0.947100 0.769034 0.422806
O O4 0.851426 0.729389 0.062353
O O5 0.314555 0.595981 0.891691
O O6 0.114526 0.484453 0.696491
O O7 0.159699 0.668811 0.887771
O O8 0.617260 0.351046 0.894654
O O9 0.498915 0.119429 0.968068
O O10 0.443072 0.253325 0.145105
O O11 0.176920 0.886986 0.470118
O O12 0.012224 0.759552 0.783997
O O13 0.673100 0.722988 0.754198
O O14 0.495913 0.582979 0.504948
O O15 0.647833 0.035539 0.750982
O O16 0.167436 0.727030 0.257984
#
# Coordination Sequence:
#
# PCOD8321441 Si02
#       8
#     3   3   3   3   3   3   3   3
#     4  12  29  50  77 113 153 204 265 335 397 481
#     4  12  23  42  69 106 152 196 250 308 379 466
#     4  12  30  50  81 113 159 206 268 326 407 483
#     4  12  28  48  78 106 155 199 262 326 402 470
#     4  12  28  50  79 116 161 207 267 329 401 488
#     4  12  28  50  79 115 151 206 268 325 404 479
#     4  12  25  48  74 113 154 202 261 320 396 476
#     4  12  25  44  77 106 153 202 255 319 398 467
#
# _framework density 24.309263000000001
#
# number of rings (size 3 to 8) (size 9 to 14) (size 15 to 20)
#    0.000    0.000    3.750    5.250   10.500    0.000 
#    0.000    0.000    0.000    0.000    0.000    0.000 
#    0.000    0.000    0.000    0.000    0.000    0.000 
#
# Total GULP energy -297408.854173 kJ/mol
# GULP energy per Si atom -12392.035591 kJ/mol
# Density = 2.425393 g / cm^3
# Si number density = 24.309263 Si / 1000 Ang^3
#
#
#
# Elastic Constant Matrix: (Units=GPa)
#
#
# Indices 1 2 3 4 5 6 
#
# 1 108.4373 25.8744 47.1820 0.4559 -2.6938 0.0000
# 2 25.8744 108.4373 47.1820 -0.4559 2.6938 0.0000
# 3 47.1820 47.1820 124.5988 0.0000 0.0000 0.0000
# 4 0.4559 -0.4559 0.0000 39.8382 0.0000 2.6938
# 5 -2.6938 2.6938 0.0000 0.0000 39.8382 0.4559
# 6 0.0000 0.0000 0.0000 2.6938 0.4559 41.2814
#
#
#
# Elastic Compliance Matrix: (Units=1/GPa)
#
#
# Indices 1 2 3 4 5 6 
#
# 1 0.011156 -0.001012 -0.003841 -0.000139 0.000823 0.000000
# 2 -0.001012 0.011156 -0.003841 0.000139 -0.000823 0.000000
# 3 -0.003841 -0.003841 0.010935 0.000000 0.000000 0.000000
# 4 -0.000139 0.000139 0.000000 0.025216 0.000000 -0.001645
# 5 0.000823 -0.000823 0.000000 0.000000 0.025216 -0.000278
# 6 0.000000 0.000000 0.000000 -0.001645 -0.000278 0.024334
#
#
# Mechanical properties :
#
#
# Convention : Reuss Voigt Hill
#
# Bulk Modulus (GPa) = 63.05943 64.66115 63.86029
# Shear Modulus (GPa) = 38.25934 38.94055 38.59994
#
# Velocity S-wave (km/s) = 3.97149 4.00669 3.98913
# Velocity P-wave (km/s) = 6.85763 6.93267 6.89525
#
# Compressibility (1/GPa) = 0.01585806
#
# Stress axis : x y z
#
# Youngs Moduli (GPa) = 89.64032 89.64032 91.44987
#
# Poissons Ratio (x) = 0.09067 0.35129
# Poissons Ratio (y) = 0.09067 0.35129
# Poissons Ratio (z) = 0.34434 0.34434
#
# Static dielectric constant tensor:
#      x y z
#    x 4.796650 0.000000 0.000000 
#    y 0.000000 4.796650 0.000000 
#    z 0.000000 0.000000 4.475050 
# 
# 
# High freq. dielectric constant tensor:
#      x y z
#    x 1.973300 0.000000 0.000000 
#    y 0.000000 1.973300 0.000000 
#    z 0.000000 0.000000 1.978050 
# 
# From -- ./inp_files/139.got.cif
#   From: 2010.03.12/outbox.cif.g09.slc.cpg/sg144_cif.got.tgz:139.got - 2010.04.03 13:34:42.
