data_PCOD8321217
_publ_section_title
;
Structure prediction by ZEFSAII (Michael W. Deem and Ramdas Pophale) SiO2 
 PCOD8321217
Probable space group: I 41/A C D
;
_chemical_formula_sum "Si O2"
_cell_formula_units_Z 176
_cell_length_a 26.858628
_cell_length_b 26.858628
_cell_length_c 11.450650
_cell_angle_alpha 90.000000
_cell_angle_beta 90.000000
_cell_angle_gamma 90.000000
_cell_volume 8260.337433
_symmetry_space_group_name_H-M "I 41/A C D"
_symmetry_group_IT_number 142
_space_group.IT_coordinate_system_code '2'
_symmetry_cell_setting 'tetragonal'
loop_
_space_group_symop_operation_xyz
x,y,z
1/4-y,3/4+x,1/4+z
-x,1/2-y,z
1/4+y,1/4-x,3/4+z
x,-y,1/2-z
1/2-x,y,-z
3/4+y,1/4+x,1/4-z
1/4-y,1/4-x,1/4-z
-x,-y,-z
3/4+y,1/4-x,3/4-z
x,1/2+y,-z
3/4-y,3/4+x,1/4-z
-x,y,1/2+z
1/2+x,-y,z
1/4-y,3/4-x,3/4+z
3/4+y,3/4+x,3/4+z
1/2+x,1/2+y,1/2+z
3/4-y,1/4+x,3/4+z
1/2-x,-y,1/2+z
3/4+y,3/4-x,1/4+z
1/2+x,1/2-y,-z
-x,1/2+y,1/2-z
1/4+y,3/4+x,3/4-z
3/4-y,3/4-x,3/4-z
1/2-x,1/2-y,1/2-z
1/4+y,3/4-x,1/4-z
1/2+x,y,1/2-z
1/4-y,1/4+x,3/4-z
1/2-x,1/2+y,z
x,1/2-y,1/2+z
3/4-y,1/4-x,1/4+z
1/4+y,1/4+x,1/4+z
loop_
_atom_site_type_symbol
_atom_site_label
_atom_site_fract_x
_atom_site_fract_y
_atom_site_fract_z
Si Si1 0.724103 0.974103 0.625000
Si Si2 0.441292 0.621810 0.688415
Si Si3 0.109695 0.973048 0.922055
Si Si4 0.121216 0.550922 0.686818
Si Si5 0.056172 0.612723 0.854427
Si Si6 0.170071 0.653857 0.662865
O O1 0.750000 0.992306 0.500000
O O2 0.731097 0.915938 0.635924
O O3 0.420411 0.670411 0.625000
O O4 0.416736 0.572817 0.636981
O O5 0.499799 0.625052 0.674588
O O6 0.424523 0.621474 0.823685
O O7 0.084601 0.023583 0.873515
O O8 0.103894 0.965653 0.059894
O O9 0.140120 0.500000 0.750000
O O10 0.075078 0.577403 0.750389
O O11 0.164033 0.593820 0.684168
O O12 0.086159 0.663842 0.875000
O O13 0.062718 0.582542 0.972306
#
# Coordination Sequence:
#
# PCOD8321217 Si02
#       6
#    16  32  32  32  32  32
#     4  12  26  44  66 102 147 192 236 282 339 424
#     4  12  25  44  70  95 133 182 223 289 358 412
#     4  12  23  42  66 100 140 182 227 274 344 412
#     4  11  22  43  69 100 138 182 231 283 346 412
#     4  10  26  45  67  99 131 170 235 297 347 419
#     4  11  24  43  67  97 142 175 228 282 333 425
#
# _framework density 21.306636000000001
#
# number of rings (size 3 to 8) (size 9 to 14) (size 15 to 20)
#    0.000    0.727    4.545    2.727    2.545    5.455 
#    0.000    0.000    0.000    2.182    0.000    0.000 
#    0.000    0.000    0.000    0.000    0.000    0.000 
#
# Total GULP energy -1090452.038919 kJ/mol
# GULP energy per Si atom -12391.500442 kJ/mol
# Density = 2.125814 g / cm^3
# Si number density = 21.306636 Si / 1000 Ang^3
#
#
#
# Elastic Constant Matrix: (Units=GPa)
#
#
# Indices 1 2 3 4 5 6 
#
# 1 121.2282 27.3005 31.8101 0.0000 0.0000 0.0000
# 2 27.3005 121.2294 31.8118 0.0000 0.0000 0.0000
# 3 31.8101 31.8118 102.5753 0.0000 0.0000 0.0000
# 4 0.0000 0.0000 0.0000 24.7273 0.0000 0.0000
# 5 0.0000 0.0000 0.0000 0.0000 24.7282 0.0000
# 6 0.0000 0.0000 0.0000 0.0000 0.0000 11.0029
#
#
#
# Elastic Compliance Matrix: (Units=1/GPa)
#
#
# Indices 1 2 3 4 5 6 
#
# 1 0.009205 -0.001441 -0.002408 0.000000 0.000000 0.000000
# 2 -0.001441 0.009205 -0.002408 0.000000 0.000000 0.000000
# 3 -0.002408 -0.002408 0.011242 0.000000 0.000000 0.000000
# 4 0.000000 0.000000 0.000000 0.040441 0.000000 0.000000
# 5 0.000000 0.000000 0.000000 0.000000 0.040440 0.000000
# 6 0.000000 0.000000 0.000000 0.000000 0.000000 0.090885
#
#
# Mechanical properties :
#
#
# Convention : Reuss Voigt Hill
#
# Bulk Modulus (GPa) = 58.34565 58.54196 58.44381
# Shear Modulus (GPa) = 22.76395 29.03238 25.89817
#
# Velocity S-wave (km/s) = 3.27218 3.69534 3.49018
# Velocity P-wave (km/s) = 6.45906 6.76336 6.61296
#
# Compressibility (1/GPa) = 0.01713924
#
# Stress axis : x y z
#
# Youngs Moduli (GPa) = 108.63379 108.63385 88.94926
#
# Poissons Ratio (x) = 0.15656 0.21416
# Poissons Ratio (y) = 0.15656 0.21418
# Poissons Ratio (z) = 0.26156 0.26158
#
# Static dielectric constant tensor:
#      x y z
#    x 4.047140 0.000000 0.000000 
#    y 0.000000 4.047160 0.000000 
#    z 0.000000 0.000000 4.519140 
# 
# 
# High freq. dielectric constant tensor:
#      x y z
#    x 1.825460 0.000000 0.000000 
#    y 0.000000 1.825460 0.000000 
#    z 0.000000 0.000000 1.860810 
# 
# From -- ./inp_files/3990.got.cif
#   From: 2010.03.12/outbox.cif.g09.slc.cpg/sg142_2_cif.got.tgz:3990.got - 2010.04.03 13:27:16.
