data_PCOD8321619
_publ_section_title
;
Structure prediction by ZEFSAII (Michael W. Deem and Ramdas Pophale) SiO2 
 PCOD8321619
Probable space group: P -3
;
_chemical_formula_sum "Si O2"
_cell_formula_units_Z 42
_cell_length_a 12.379043
_cell_length_b 12.379043
_cell_length_c 17.350242
_cell_angle_alpha 90.000000
_cell_angle_beta 90.000000
_cell_angle_gamma 120.000000
_cell_volume 2302.556583
_symmetry_space_group_name_H-M "P -3"
_symmetry_group_IT_number 147
_symmetry_cell_setting 'hexagonal'
loop_
_space_group_symop_operation_xyz
x,y,z
-y,x-y,z
-x+y,-x,z
-x,-y,-z
y,-x+y,-z
x-y,x,-z
loop_
_atom_site_type_symbol
_atom_site_label
_atom_site_fract_x
_atom_site_fract_y
_atom_site_fract_z
Si Si1 0.911969 0.332059 0.367856
Si Si2 0.744865 0.758585 0.225550
Si Si3 0.744475 0.987481 0.488512
Si Si4 0.426670 0.347629 0.917664
Si Si5 0.580928 0.670393 0.653568
Si Si6 0.760802 0.013790 0.203144
Si Si7 0.412500 0.092737 0.938967
O O1 0.984872 0.294769 0.307010
O O2 0.764130 0.236421 0.360244
O O3 0.941817 0.471678 0.355840
O O4 0.960374 0.326024 0.452324
O O5 0.637982 0.677008 0.164778
O O6 0.760054 0.893344 0.237076
O O7 0.875433 0.777361 0.195372
O O8 0.703425 0.010273 0.405366
O O9 0.871381 0.104823 0.518016
O O10 0.434570 0.230450 0.949048
O O11 0.564793 0.462223 0.906070
O O12 0.348335 0.379620 0.977346
O O13 0.631477 0.683141 0.739952
O O14 0.700409 0.988701 0.118875
#
# Coordination Sequence:
#
# PCOD8321619 Si02
#       7
#     6   6   6   6   6   6   6
#     4  10  20  34  52  74 101 133 168 206 248 295
#     4  10  20  34  53  76 102 132 166 206 251 299
#     4  10  20  34  54  78 104 134 168 208 252 298
#     4  10  20  34  52  74 101 133 169 209 253 301
#     4  10  20  34  52  74 101 133 168 206 248 295
#     4  10  20  34  53  76 102 132 166 206 251 299
#     4  10  20  34  52  74 101 133 169 209 253 301
#
# _framework density 18.240594999999999
#
# number of rings (size 3 to 8) (size 9 to 14) (size 15 to 20)
#    0.000    2.000    0.000    4.000    0.000    0.000 
#    0.000    2.857    0.000   21.714    0.000    0.000 
#    0.000    0.000    0.000    0.000    0.000    0.000 
#
# Total GULP energy -521005.187547 kJ/mol
# GULP energy per Si atom -12404.885418 kJ/mol
# Density = 1.819908 g / cm^3
# Si number density = 18.240595 Si / 1000 Ang^3
#
#
#
# Elastic Constant Matrix: (Units=GPa)
#
#
# Indices 1 2 3 4 5 6 
#
# 1 62.5383 39.7685 -1.6893 -3.5321 8.7901 0.0000
# 2 39.7685 62.5383 -1.6893 3.5321 -8.7901 0.0000
# 3 -1.6893 -1.6893 26.1121 0.0000 0.0000 0.0000
# 4 -3.5321 3.5321 0.0000 13.0715 0.0000 -8.7901
# 5 8.7901 -8.7901 0.0000 0.0000 13.0715 -3.5321
# 6 0.0000 0.0000 0.0000 -8.7901 -3.5321 11.3849
#
#
#
# Elastic Compliance Matrix: (Units=1/GPa)
#
#
# Indices 1 2 3 4 5 6 
#
# 1 0.060215 -0.050420 0.000634 0.029896 -0.074398 0.000000
# 2 -0.050420 0.060215 0.000634 -0.029896 0.074398 0.000000
# 3 0.000634 0.000634 0.038378 0.000000 0.000000 0.000000
# 4 0.029896 -0.029896 0.000000 0.192720 0.000000 0.148797
# 5 -0.074398 0.074398 0.000000 0.000000 0.192720 0.059791
# 6 0.000000 0.000000 0.000000 0.148797 0.059791 0.221270
#
#
# Mechanical properties :
#
#
# Convention : Reuss Voigt Hill
#
# Bulk Modulus (GPa) = 16.52781 24.88540 20.70661
# Shear Modulus (GPa) = 5.65616 15.15881 10.40749
#
# Velocity S-wave (km/s) = 1.76284 2.88592 2.39125
# Velocity P-wave (km/s) = 3.63650 4.97767 4.35897
#
# Compressibility (1/GPa) = 0.06050407
#
# Stress axis : x y z
#
# Youngs Moduli (GPa) = 16.60707 16.60707 26.05635
#
# Poissons Ratio (x) = 0.83733 -0.01651
# Poissons Ratio (y) = 0.83733 -0.01651
# Poissons Ratio (z) = -0.01052 -0.01052
#
# Static dielectric constant tensor:
#      x y z
#    x 3.349340 0.000000 0.000000 
#    y 0.000000 3.349340 0.000000 
#    z 0.000000 0.000000 3.303300 
# 
# 
# High freq. dielectric constant tensor:
#      x y z
#    x 1.713420 0.000000 0.000000 
#    y 0.000000 1.713420 0.000000 
#    z 0.000000 0.000000 1.714250 
# 
# From -- ./inp_files/1025.got.cif
#   From: 2010.03.12/outbox.cif.g09.slc.cpg/sg147_cif.got.tgz:1025.got - 2010.04.03 13:37:56.
