data_PCOD8321806
_publ_section_title
;
Structure prediction by ZEFSAII (Michael W. Deem and Ramdas Pophale) SiO2 
 PCOD8321806
Probable space group: R -3
;
_chemical_formula_sum "Si O2"
_cell_formula_units_Z 72
_cell_length_a 14.252016
_cell_length_b 14.252016
_cell_length_c 19.102035
_cell_angle_alpha 90.000000
_cell_angle_beta 90.000000
_cell_angle_gamma 120.000000
_cell_volume 3360.182539
_symmetry_space_group_name_H-M "R -3"
_symmetry_group_IT_number 148
_symmetry_cell_setting 'hexagonal'
loop_
_space_group_symop_operation_xyz
x,y,z
-y,x-y,z
-x+y,-x,z
-x,-y,-z
y,-x+y,-z
x-y,x,-z
2/3+x,1/3+y,1/3+z
2/3-y,1/3+x-y,1/3+z
2/3-x+y,1/3-x,1/3+z
2/3-x,1/3-y,1/3-z
2/3+y,1/3-x+y,1/3-z
2/3+x-y,1/3+x,1/3-z
1/3+x,2/3+y,2/3+z
1/3-y,2/3+x-y,2/3+z
1/3-x+y,2/3-x,2/3+z
1/3-x,2/3-y,2/3-z
1/3+y,2/3-x+y,2/3-z
1/3+x-y,2/3+x,2/3-z
loop_
_atom_site_type_symbol
_atom_site_label
_atom_site_fract_x
_atom_site_fract_y
_atom_site_fract_z
Si Si1 0.609517 0.705180 0.842002
Si Si2 0.323544 0.455885 0.193929
Si Si3 0.990210 0.200992 0.027262
Si Si4 0.276184 0.237671 0.675335
O O1 0.666667 0.833334 0.833334
O O2 0.693498 0.659684 0.833615
O O3 0.525893 0.652468 0.777292
O O4 0.547798 0.666666 0.916667
O O5 0.215418 0.459170 0.180860
O O6 0.347533 0.474107 0.277292
O O7 0.089581 0.207497 0.985807
O O8 0.973167 0.299519 0.999719
O O9 0.333334 0.166667 0.666667
#
# Coordination Sequence:
#
# PCOD8321806 Si02
#       4
#    18  18  18  18
#     4  11  24  42  69 104 138 185 249 302 367 442
#     4  11  25  43  70 101 147 192 244 303 381 444
#     4  11  25  43  70 101 147 192 244 303 381 444
#     4  11  24  42  69 104 138 185 249 302 367 442
#
# _framework density 21.427408
#
# number of rings (size 3 to 8) (size 9 to 14) (size 15 to 20)
#    0.000    1.000    5.000    0.500    7.000    0.000 
#    0.000    0.000    0.000    2.000   13.000    0.000 
#    0.000    0.000    0.000    0.000    0.000    0.000 
#
# Total GULP energy -297437.733816 kJ/mol
# GULP energy per Si atom -12393.238909 kJ/mol
# Density = 2.137864 g / cm^3
# Si number density = 21.427408 Si / 1000 Ang^3
#
#
#
# Elastic Constant Matrix: (Units=GPa)
#
#
# Indices 1 2 3 4 5 6 
#
# 1 119.3066 64.8139 37.5830 0.5693 0.0000 0.0000
# 2 64.8139 119.3066 37.5830 -0.5693 0.0000 0.0000
# 3 37.5830 37.5830 208.9807 0.0000 0.0000 0.0000
# 4 0.5693 -0.5693 0.0000 31.9432 0.0000 0.0000
# 5 0.0000 0.0000 0.0000 0.0000 31.9432 0.5693
# 6 0.0000 0.0000 0.0000 0.0000 0.5693 27.2464
#
#
#
# Elastic Compliance Matrix: (Units=1/GPa)
#
#
# Indices 1 2 3 4 5 6 
#
# 1 0.012110 -0.006248 -0.001054 -0.000327 0.000000 0.000000
# 2 -0.006248 0.012110 -0.001054 0.000327 0.000000 0.000000
# 3 -0.001054 -0.001054 0.005164 0.000000 0.000000 0.000000
# 4 -0.000327 0.000327 0.000000 0.031317 0.000000 0.000000
# 5 0.000000 0.000000 0.000000 0.000000 0.031317 -0.000654
# 6 0.000000 0.000000 0.000000 0.000000 -0.000654 0.036716
#
#
# Mechanical properties :
#
#
# Convention : Reuss Voigt Hill
#
# Bulk Modulus (GPa) = 78.92128 80.83933 79.88031
# Shear Modulus (GPa) = 33.40670 38.73415 36.07042
#
# Velocity S-wave (km/s) = 3.95278 4.25631 4.10735
# Velocity P-wave (km/s) = 7.59898 7.87171 7.73655
#
# Compressibility (1/GPa) = 0.01267085
#
# Stress axis : x y z
#
# Youngs Moduli (GPa) = 82.57814 82.57814 193.63768
#
# Poissons Ratio (x) = 0.51596 0.20412
# Poissons Ratio (y) = 0.51596 0.20412
# Poissons Ratio (z) = 0.08705 0.08705
#
# Static dielectric constant tensor:
#      x y z
#    x 3.788830 0.000000 0.000000 
#    y 0.000000 3.788830 0.000000 
#    z 0.000000 0.000000 4.658660 
# 
# 
# High freq. dielectric constant tensor:
#      x y z
#    x 1.822270 0.000000 0.000000 
#    y 0.000000 1.822270 0.000000 
#    z 0.000000 0.000000 1.878930 
# 
# From -- ./inp_files/2531.got.cif
#   From: 2010.03.12/outbox.cif.g09.slc.cpg/sg148_2_cif.got.tgz:2531.got - 2010.04.03 13:38:46.
