data_PCOD8321706
_publ_section_title
;
Structure prediction by ZEFSAII (Michael W. Deem and Ramdas Pophale) SiO2 
 PCOD8321706
Probable space group: R -3
;
_chemical_formula_sum "Si O2"
_cell_formula_units_Z 120
_cell_length_a 18.059934
_cell_length_b 18.059934
_cell_length_c 29.227152
_cell_angle_alpha 90.000000
_cell_angle_beta 90.000000
_cell_angle_gamma 120.000000
_cell_volume 8255.615306
_symmetry_space_group_name_H-M "R -3"
_symmetry_group_IT_number 148
_symmetry_cell_setting 'hexagonal'
loop_
_space_group_symop_operation_xyz
x,y,z
-y,x-y,z
-x+y,-x,z
-x,-y,-z
y,-x+y,-z
x-y,x,-z
2/3+x,1/3+y,1/3+z
2/3-y,1/3+x-y,1/3+z
2/3-x+y,1/3-x,1/3+z
2/3-x,1/3-y,1/3-z
2/3+y,1/3-x+y,1/3-z
2/3+x-y,1/3+x,1/3-z
1/3+x,2/3+y,2/3+z
1/3-y,2/3+x-y,2/3+z
1/3-x+y,2/3-x,2/3+z
1/3-x,2/3-y,2/3-z
1/3+y,2/3-x+y,2/3-z
1/3+x-y,2/3+x,2/3-z
loop_
_atom_site_type_symbol
_atom_site_label
_atom_site_fract_x
_atom_site_fract_y
_atom_site_fract_z
Si Si1 0.333334 0.666667 0.368258
Si Si2 0.614019 0.059350 0.043241
Si Si3 0.785955 0.744799 0.548394
Si Si4 0.281026 0.890152 0.376245
Si Si5 0.451582 0.374527 0.880058
Si Si6 0.479396 0.241007 0.926438
Si Si7 0.000000 0.000000 0.408092
Si Si8 0.476903 0.238466 0.033615
O O1 0.333334 0.666667 0.313462
O O2 0.237964 0.615505 0.388433
O O3 0.543676 0.089054 0.034011
O O4 0.709289 0.140051 0.050117
O O5 0.594853 0.010607 0.091324
O O6 0.610867 0.002432 0.999691
O O7 0.736464 0.739651 0.501702
O O8 0.885740 0.771086 0.540841
O O9 0.771574 0.809610 0.579525
O O10 0.263344 0.919424 0.424980
O O11 0.377270 0.905811 0.379775
O O12 0.433216 0.290210 0.907619
O O13 0.572929 0.289017 0.904398
O O14 0.483710 0.249077 0.979943
#
# Coordination Sequence:
#
# PCOD8321706 Si02
#       8
#     6  18  18  18  18  18   6  18
#     4   9  18  24  42  73  91 123 156 177 226 271
#     4  10  20  31  46  69  94 122 157 191 225 269
#     4  11  21  31  44  67  98 128 157 188 229 277
#     4  10  20  31  46  69  94 122 157 191 225 269
#     4  11  21  31  44  67  98 128 157 188 229 277
#     4  11  18  27  43  67  97 130 156 182 217 278
#     4   9  18  21  37  67  96 129 162 174 204 271
#     4  11  18  32  48  66  96 123 155 194 224 264
#
# _framework density 14.535561
#
# number of rings (size 3 to 8) (size 9 to 14) (size 15 to 20)
#    0.000    1.500    7.500    0.000    0.000    0.000 
#    0.000    2.250    0.000    0.000    0.000    0.000 
#    0.000    0.000    0.000    8.100    0.000    0.000 
#
# Total GULP energy -495713.277843 kJ/mol
# GULP energy per Si atom -12392.831946 kJ/mol
# Density = 1.450248 g / cm^3
# Si number density = 14.535561 Si / 1000 Ang^3
#
#
#
# Elastic Constant Matrix: (Units=GPa)
#
#
# Indices 1 2 3 4 5 6 
#
# 1 78.4861 28.0137 18.2138 4.5849 -6.6125 -0.0001
# 2 28.0137 78.4861 18.2134 -4.5849 6.6127 -0.0002
# 3 18.2138 18.2134 53.8957 0.0001 -0.0004 -0.0001
# 4 4.5849 -4.5849 0.0001 49.0268 -0.0022 6.6132
# 5 -6.6125 6.6127 -0.0004 -0.0022 49.0244 4.5841
# 6 -0.0001 -0.0002 -0.0001 6.6132 4.5841 25.2363
#
#
#
# Elastic Compliance Matrix: (Units=1/GPa)
#
#
# Indices 1 2 3 4 5 6 
#
# 1 0.015762 -0.005145 -0.003588 -0.001955 0.002820 0.000000
# 2 -0.005145 0.015762 -0.003588 0.001955 -0.002820 0.000000
# 3 -0.003588 -0.003588 0.020979 0.000000 0.000000 0.000000
# 4 -0.001955 0.001955 0.000000 0.021524 0.000001 -0.005640
# 5 0.002820 -0.002820 0.000000 0.000001 0.021524 -0.003910
# 6 0.000000 0.000000 0.000000 -0.005640 -0.003910 0.041814
#
#
# Mechanical properties :
#
#
# Convention : Reuss Voigt Hill
#
# Bulk Modulus (GPa) = 35.89174 37.74998 36.82086
# Shear Modulus (GPa) = 29.18967 34.41929 31.80448
#
# Velocity S-wave (km/s) = 4.48611 4.87142 4.68273
# Velocity P-wave (km/s) = 7.18189 7.59396 7.39079
#
# Compressibility (1/GPa) = 0.02786157
#
# Stress axis : x y z
#
# Youngs Moduli (GPa) = 63.44406 63.44423 47.66596
#
# Poissons Ratio (x) = 0.32642 0.17102
# Poissons Ratio (y) = 0.32642 0.17102
# Poissons Ratio (z) = 0.22763 0.22763
#
# Static dielectric constant tensor:
#      x y z
#    x 2.450490 0.000020 0.000000 
#    y 0.000020 2.450470 0.000000 
#    z 0.000000 0.000000 2.669000 
# 
# 
# High freq. dielectric constant tensor:
#      x y z
#    x 1.537210 0.000000 0.000000 
#    y 0.000000 1.537210 0.000000 
#    z 0.000000 0.000000 1.541450 
# 
# From -- ./inp_files/3738.got.cif
#   From: 2010.03.12/outbox.cif.g09.slc.cpg/sg148_2_cif.got.tgz:3738.got - 2010.04.03 13:38:46.
