data_PCOD8321426
_publ_section_title
;
Structure prediction by ZEFSAII (Michael W. Deem and Ramdas Pophale) SiO2 
 PCOD8321426
Probable space group: P 31
;
_chemical_formula_sum "Si O2"
_cell_formula_units_Z 24
_cell_length_a 13.827966
_cell_length_b 13.827966
_cell_length_c 6.519078
_cell_angle_alpha 90.000000
_cell_angle_beta 90.000000
_cell_angle_gamma 120.000000
_cell_volume 1079.526767
_symmetry_space_group_name_H-M "P 31"
_symmetry_group_IT_number 144
_symmetry_cell_setting 'hexagonal'
loop_
_space_group_symop_operation_xyz
x,y,z
-y,x-y,1/3+z
-x+y,-x,2/3+z
loop_
_atom_site_type_symbol
_atom_site_label
_atom_site_fract_x
_atom_site_fract_y
_atom_site_fract_z
Si Si1 0.384137 0.435350 0.451730
Si Si2 0.673606 0.796081 0.134488
Si Si3 0.718202 0.433622 0.269748
Si Si4 0.251703 0.260786 0.123265
Si Si5 0.436878 0.732838 0.956935
Si Si6 0.611570 0.064944 0.193089
Si Si7 0.449463 0.043678 0.527573
Si Si8 0.916346 0.900041 0.951899
O O1 0.283773 0.330957 0.334380
O O2 0.372053 0.546238 0.453260
O O3 0.376578 0.399835 0.688698
O O4 0.506063 0.473457 0.366558
O O5 0.698516 0.881583 0.318466
O O6 0.642475 0.679348 0.238446
O O7 0.564824 0.765148 0.997669
O O8 0.784000 0.838406 0.994460
O O9 0.607599 0.342319 0.384349
O O10 0.817169 0.465407 0.426947
O O11 0.703123 0.537963 0.212193
O O12 0.183417 0.128360 0.160186
O O13 0.368211 0.291726 0.012928
O O14 0.359657 0.615890 0.839527
O O15 0.493782 0.023642 0.309583
O O16 0.949047 0.011817 0.825461
#
# Coordination Sequence:
#
# PCOD8321426 Si02
#       8
#     3   3   3   3   3   3   3   3
#     4  11  24  45  73 101 148 189 235 304 364 437
#     4  12  27  48  73 109 145 188 253 301 360 439
#     4  12  24  42  70 101 146 190 236 299 360 431
#     4  11  27  47  74 106 142 188 248 303 368 433
#     4  12  27  47  76 105 152 192 237 299 375 440
#     4  11  24  46  70 105 146 188 240 295 368 437
#     4  11  26  42  69 107 141 188 247 294 363 437
#     4  12  27  51  75 104 144 191 244 309 370 428
#
# _framework density 22.231964000000001
#
# number of rings (size 3 to 8) (size 9 to 14) (size 15 to 20)
#    0.000    0.500    5.000    2.250    7.000    2.000 
#    4.500    0.000    0.000    0.000    0.000    0.000 
#    0.000    0.000    0.000    0.000    0.000    0.000 
#
# Total GULP energy -297530.323507 kJ/mol
# GULP energy per Si atom -12397.096813 kJ/mol
# Density = 2.218136 g / cm^3
# Si number density = 22.231964 Si / 1000 Ang^3
#
#
#
# Elastic Constant Matrix: (Units=GPa)
#
#
# Indices 1 2 3 4 5 6 
#
# 1 105.3049 36.2867 29.3217 -1.9537 0.4365 0.0000
# 2 36.2867 105.3049 29.3217 1.9537 -0.4365 0.0000
# 3 29.3217 29.3217 95.2138 0.0000 0.0000 0.0000
# 4 -1.9537 1.9537 0.0000 38.7876 0.0000 -0.4365
# 5 0.4365 -0.4365 0.0000 0.0000 38.7876 -1.9537
# 6 0.0000 0.0000 0.0000 -0.4365 -1.9537 34.5091
#
#
#
# Elastic Compliance Matrix: (Units=1/GPa)
#
#
# Indices 1 2 3 4 5 6 
#
# 1 0.011314 -0.003219 -0.002493 0.000732 -0.000164 0.000000
# 2 -0.003219 0.011314 -0.002493 -0.000732 0.000164 0.000000
# 3 -0.002493 -0.002493 0.012038 0.000000 0.000000 0.000000
# 4 0.000732 -0.000732 0.000000 0.025859 0.000000 0.000327
# 5 -0.000164 0.000164 0.000000 0.000000 0.025859 0.001464
# 6 0.000000 0.000000 0.000000 0.000327 0.001464 0.029065
#
#
# Mechanical properties :
#
#
# Convention : Reuss Voigt Hill
#
# Bulk Modulus (GPa) = 54.77491 55.07597 54.92544
# Shear Modulus (GPa) = 36.24692 36.47644 36.36168
#
# Velocity S-wave (km/s) = 4.04220 4.05498 4.04859
# Velocity P-wave (km/s) = 6.81742 6.83746 6.82745
#
# Compressibility (1/GPa) = 0.01825653
#
# Stress axis : x y z
#
# Youngs Moduli (GPa) = 88.38798 88.38798 83.06951
#
# Poissons Ratio (x) = 0.28449 0.20709
# Poissons Ratio (y) = 0.28449 0.20709
# Poissons Ratio (z) = 0.22035 0.22035
#
# Static dielectric constant tensor:
#      x y z
#    x 4.129210 0.000000 0.000000 
#    y 0.000000 4.129210 0.000000 
#    z 0.000000 0.000000 3.984350 
# 
# 
# High freq. dielectric constant tensor:
#      x y z
#    x 1.883380 0.000000 0.000000 
#    y 0.000000 1.883380 0.000000 
#    z 0.000000 0.000000 1.879850 
# 
# From -- ./inp_files/169.got.cif
#   From: 2010.03.12/outbox.cif.g09.slc.cpg/sg144_cif.got.tgz:169.got - 2010.04.03 13:34:42.
