data_PCOD8321161
_publ_section_title
;
Structure prediction by ZEFSAII (Michael W. Deem and Ramdas Pophale) SiO2 
 PCOD8321161
Probable space group: I 41/A C D
;
_chemical_formula_sum "Si O2"
_cell_formula_units_Z 160
_cell_length_a 23.053232
_cell_length_b 23.053232
_cell_length_c 13.236273
_cell_angle_alpha 90.000000
_cell_angle_beta 90.000000
_cell_angle_gamma 90.000000
_cell_volume 7034.437215
_symmetry_space_group_name_H-M "I 41/A C D"
_symmetry_group_IT_number 142
_space_group.IT_coordinate_system_code '2'
_symmetry_cell_setting 'tetragonal'
loop_
_space_group_symop_operation_xyz
x,y,z
1/4-y,3/4+x,1/4+z
-x,1/2-y,z
1/4+y,1/4-x,3/4+z
x,-y,1/2-z
1/2-x,y,-z
3/4+y,1/4+x,1/4-z
1/4-y,1/4-x,1/4-z
-x,-y,-z
3/4+y,1/4-x,3/4-z
x,1/2+y,-z
3/4-y,3/4+x,1/4-z
-x,y,1/2+z
1/2+x,-y,z
1/4-y,3/4-x,3/4+z
3/4+y,3/4+x,3/4+z
1/2+x,1/2+y,1/2+z
3/4-y,1/4+x,3/4+z
1/2-x,-y,1/2+z
3/4+y,3/4-x,1/4+z
1/2+x,1/2-y,-z
-x,1/2+y,1/2-z
1/4+y,3/4+x,3/4-z
3/4-y,3/4-x,3/4-z
1/2-x,1/2-y,1/2-z
1/4+y,3/4-x,1/4-z
1/2+x,y,1/2-z
1/4-y,1/4+x,3/4-z
1/2-x,1/2+y,z
x,1/2-y,1/2+z
3/4-y,1/4-x,1/4+z
1/4+y,1/4+x,1/4+z
loop_
_atom_site_type_symbol
_atom_site_label
_atom_site_fract_x
_atom_site_fract_y
_atom_site_fract_z
Si Si1 0.030305 0.433171 0.231921
Si Si2 0.356417 0.106417 0.375000
Si Si3 0.250000 0.924020 0.500000
Si Si4 0.251632 0.609159 0.783320
Si Si5 0.653357 0.316189 0.826758
Si Si6 0.908437 0.734616 0.146641
O O1 0.047704 0.500000 0.250000
O O2 0.083285 0.398449 0.182552
O O3 0.014432 0.401483 0.335991
O O4 0.974204 0.429319 0.162622
O O5 0.305937 0.105245 0.291070
O O6 0.198769 0.966735 0.476652
O O7 0.232058 0.884380 0.597010
O O8 0.208118 0.662711 0.758049
O O9 0.622849 0.372849 0.875000
O O10 0.606202 0.281468 0.761700
O O11 0.937326 0.797774 0.149472
#
# Coordination Sequence:
#
# PCOD8321161 Si02
#       6
#    32  16  16  32  32  32
#     4  12  29  47  73 112 148 190 248 309 374 445
#     4  12  28  46  69 108 150 192 242 314 374 441
#     4  10  22  42  66 106 134 190 248 288 372 466
#     4  11  25  42  75 101 144 193 240 306 374 452
#     4  12  25  49  73 107 148 197 245 309 380 450
#     4  11  25  47  77 104 142 198 251 304 362 442
#
# _framework density 22.745246000000002
#
# number of rings (size 3 to 8) (size 9 to 14) (size 15 to 20)
#    0.000    0.600    4.000    3.600    8.400    4.800 
#    0.000    0.000    0.000    0.000    0.000    0.000 
#    0.000    0.000    0.000    0.000    0.000    0.000 
#
# Total GULP energy -991963.507366 kJ/mol
# GULP energy per Si atom -12399.543842 kJ/mol
# Density = 2.269348 g / cm^3
# Si number density = 22.745246 Si / 1000 Ang^3
#
#
#
# Elastic Constant Matrix: (Units=GPa)
#
#
# Indices 1 2 3 4 5 6 
#
# 1 204.9619 -60.6562 30.1146 0.0000 0.0000 0.0000
# 2 -60.6562 204.9619 30.1146 0.0000 0.0000 0.0000
# 3 30.1146 30.1146 96.8714 0.0000 0.0000 0.0000
# 4 0.0000 0.0000 0.0000 40.1204 0.0000 0.0000
# 5 0.0000 0.0000 0.0000 0.0000 40.1204 0.0000
# 6 0.0000 0.0000 0.0000 0.0000 0.0000 69.5125
#
#
#
# Elastic Compliance Matrix: (Units=1/GPa)
#
#
# Indices 1 2 3 4 5 6 
#
# 1 0.005864 0.002099 -0.002475 0.000000 0.000000 0.000000
# 2 0.002099 0.005864 -0.002475 0.000000 0.000000 0.000000
# 3 -0.002475 -0.002475 0.011862 0.000000 0.000000 0.000000
# 4 0.000000 0.000000 0.000000 0.024925 0.000000 0.000000
# 5 0.000000 0.000000 0.000000 0.000000 0.024925 0.000000
# 6 0.000000 0.000000 0.000000 0.000000 0.000000 0.014386
#
#
# Mechanical properties :
#
#
# Convention : Reuss Voigt Hill
#
# Bulk Modulus (GPa) = 55.90936 56.21572 56.06254
# Shear Modulus (GPa) = 50.25561 63.76546 57.01054
#
# Velocity S-wave (km/s) = 4.70563 5.30052 5.01191
# Velocity P-wave (km/s) = 7.35921 7.88858 7.62849
#
# Compressibility (1/GPa) = 0.01788609
#
# Stress axis : x y z
#
# Youngs Moduli (GPa) = 170.53614 170.53614 84.30239
#
# Poissons Ratio (x) = -0.35796 0.20869
# Poissons Ratio (y) = -0.35796 0.20869
# Poissons Ratio (z) = 0.42215 0.42215
#
# Static dielectric constant tensor:
#      x y z
#    x 4.119290 0.000000 0.000000 
#    y 0.000000 4.119290 0.000000 
#    z 0.000000 0.000000 4.491870 
# 
# 
# High freq. dielectric constant tensor:
#      x y z
#    x 1.905730 0.000000 0.000000 
#    y 0.000000 1.905730 0.000000 
#    z 0.000000 0.000000 1.905520 
# 
# From -- ./inp_files/3895.got.cif
#   From: 2010.03.12/outbox.cif.g09.slc.cpg/sg142_2_cif.got.tgz:3895.got - 2010.04.03 13:27:16.
