data_PCOD8321183
_publ_section_title
;
Structure prediction by ZEFSAII (Michael W. Deem and Ramdas Pophale) SiO2 
 PCOD8321183
Probable space group: I 41/A C D
;
_chemical_formula_sum "Si O2"
_cell_formula_units_Z 192
_cell_length_a 20.133499
_cell_length_b 20.133499
_cell_length_c 21.276406
_cell_angle_alpha 90.000000
_cell_angle_beta 90.000000
_cell_angle_gamma 90.000000
_cell_volume 8624.556745
_symmetry_space_group_name_H-M "I 41/A C D"
_symmetry_group_IT_number 142
_space_group.IT_coordinate_system_code '2'
_symmetry_cell_setting 'tetragonal'
loop_
_space_group_symop_operation_xyz
x,y,z
1/4-y,3/4+x,1/4+z
-x,1/2-y,z
1/4+y,1/4-x,3/4+z
x,-y,1/2-z
1/2-x,y,-z
3/4+y,1/4+x,1/4-z
1/4-y,1/4-x,1/4-z
-x,-y,-z
3/4+y,1/4-x,3/4-z
x,1/2+y,-z
3/4-y,3/4+x,1/4-z
-x,y,1/2+z
1/2+x,-y,z
1/4-y,3/4-x,3/4+z
3/4+y,3/4+x,3/4+z
1/2+x,1/2+y,1/2+z
3/4-y,1/4+x,3/4+z
1/2-x,-y,1/2+z
3/4+y,3/4-x,1/4+z
1/2+x,1/2-y,-z
-x,1/2+y,1/2-z
1/4+y,3/4+x,3/4-z
3/4-y,3/4-x,3/4-z
1/2-x,1/2-y,1/2-z
1/4+y,3/4-x,1/4-z
1/2+x,y,1/2-z
1/4-y,1/4+x,3/4-z
1/2-x,1/2+y,z
x,1/2-y,1/2+z
3/4-y,1/4-x,1/4+z
1/4+y,1/4+x,1/4+z
loop_
_atom_site_type_symbol
_atom_site_label
_atom_site_fract_x
_atom_site_fract_y
_atom_site_fract_z
Si Si1 0.320667 0.497422 0.319673
Si Si2 0.559360 0.800602 0.282397
Si Si3 0.033043 0.989589 0.898276
Si Si4 0.831579 0.198843 0.267691
Si Si5 0.185114 0.297299 0.541953
Si Si6 0.119239 0.390177 0.368624
O O1 0.286411 0.500000 0.250000
O O2 0.268539 0.481462 0.375000
O O3 0.377310 0.440882 0.317118
O O4 0.354007 0.567872 0.335160
O O5 0.500000 0.750000 0.290374
O O6 0.620027 0.760298 0.250608
O O7 0.537465 0.864627 0.242116
O O8 0.582997 0.823131 0.351477
O O9 0.004638 0.936232 0.849308
O O10 0.081843 0.040051 0.862714
O O11 0.074508 0.951943 0.952708
O O12 0.971538 0.027191 0.931076
O O13 0.865801 0.133889 0.297823
O O14 0.250000 0.282246 0.500000
#
# Coordination Sequence:
#
# PCOD8321183 Si02
#       6
#    32  32  32  32  32  32
#     4  11  24  41  73 103 141 185 246 306 371 452
#     4  11  25  40  69 104 142 187 252 307 368 447
#     4  10  23  41  67  94 143 182 230 302 369 436
#     4  10  23  38  66 105 132 181 241 299 364 441
#     4  11  22  44  68 101 139 195 239 304 376 449
#     4  11  23  43  68 108 141 189 242 308 372 448
#
# _framework density 22.262013
#
# number of rings (size 3 to 8) (size 9 to 14) (size 15 to 20)
#    0.000    1.333    5.000    0.000   11.667    0.000 
#    0.000    4.167    0.000    0.000    0.000    0.000 
#    0.000    0.000    0.000    0.000    0.000    0.000 
#
# Total GULP energy -1190398.009003 kJ/mol
# GULP energy per Si atom -12399.979260 kJ/mol
# Density = 2.221134 g / cm^3
# Si number density = 22.262013 Si / 1000 Ang^3
#
#
#
# Elastic Constant Matrix: (Units=GPa)
#
#
# Indices 1 2 3 4 5 6 
#
# 1 95.8202 47.0829 58.3085 0.0000 0.0000 0.0000
# 2 47.0829 95.8199 58.3078 0.0000 0.0000 0.0000
# 3 58.3085 58.3078 142.2415 0.0000 0.0000 0.0000
# 4 0.0000 0.0000 0.0000 36.3434 0.0000 0.0000
# 5 0.0000 0.0000 0.0000 0.0000 36.3434 0.0000
# 6 0.0000 0.0000 0.0000 0.0000 0.0000 29.0007
#
#
#
# Elastic Compliance Matrix: (Units=1/GPa)
#
#
# Indices 1 2 3 4 5 6 
#
# 1 0.015517 -0.005001 -0.004311 0.000000 0.000000 0.000000
# 2 -0.005001 0.015517 -0.004310 0.000000 0.000000 0.000000
# 3 -0.004311 -0.004310 0.010564 0.000000 0.000000 0.000000
# 4 0.000000 0.000000 0.000000 0.027515 0.000000 0.000000
# 5 0.000000 0.000000 0.000000 0.000000 0.027515 0.000000
# 6 0.000000 0.000000 0.000000 0.000000 0.000000 0.034482
#
#
# Mechanical properties :
#
#
# Convention : Reuss Voigt Hill
#
# Bulk Modulus (GPa) = 69.67199 73.47556 71.57378
# Shear Modulus (GPa) = 30.64863 31.68301 31.16582
#
# Velocity S-wave (km/s) = 3.71445 3.77661 3.74566
# Velocity P-wave (km/s) = 7.05411 7.21759 7.13632
#
# Compressibility (1/GPa) = 0.01435297
#
# Stress axis : x y z
#
# Youngs Moduli (GPa) = 64.44628 64.44651 94.65897
#
# Poissons Ratio (x) = 0.32232 0.40803
# Poissons Ratio (y) = 0.32232 0.40802
# Poissons Ratio (z) = 0.27780 0.27779
#
# Static dielectric constant tensor:
#      x y z
#    x 3.937080 0.000000 0.000000 
#    y 0.000000 3.937080 0.000000 
#    z 0.000000 0.000000 3.931300 
# 
# 
# High freq. dielectric constant tensor:
#      x y z
#    x 1.866730 0.000000 0.000000 
#    y 0.000000 1.866730 0.000000 
#    z 0.000000 0.000000 1.872370 
# 
# From -- ./inp_files/10445.got.cif
#   From: 2010.03.12/outbox.cif.g09.slc.cpg/sg142_6_cif.got.tgz:10445.got - 2010.04.03 13:27:16.
