data_PCOD8321263
_publ_section_title
;
Structure prediction by ZEFSAII (Michael W. Deem and Ramdas Pophale) SiO2 
 PCOD8321263
Probable space group: I 41/A C D
;
_chemical_formula_sum "Si O2"
_cell_formula_units_Z 176
_cell_length_a 17.068847
_cell_length_b 17.068847
_cell_length_c 28.750316
_cell_angle_alpha 90.000000
_cell_angle_beta 90.000000
_cell_angle_gamma 90.000000
_cell_volume 8376.276280
_symmetry_space_group_name_H-M "I 41/A C D"
_symmetry_group_IT_number 142
_space_group.IT_coordinate_system_code '2'
_symmetry_cell_setting 'tetragonal'
loop_
_space_group_symop_operation_xyz
x,y,z
1/4-y,3/4+x,1/4+z
-x,1/2-y,z
1/4+y,1/4-x,3/4+z
x,-y,1/2-z
1/2-x,y,-z
3/4+y,1/4+x,1/4-z
1/4-y,1/4-x,1/4-z
-x,-y,-z
3/4+y,1/4-x,3/4-z
x,1/2+y,-z
3/4-y,3/4+x,1/4-z
-x,y,1/2+z
1/2+x,-y,z
1/4-y,3/4-x,3/4+z
3/4+y,3/4+x,3/4+z
1/2+x,1/2+y,1/2+z
3/4-y,1/4+x,3/4+z
1/2-x,-y,1/2+z
3/4+y,3/4-x,1/4+z
1/2+x,1/2-y,-z
-x,1/2+y,1/2-z
1/4+y,3/4+x,3/4-z
3/4-y,3/4-x,3/4-z
1/2-x,1/2-y,1/2-z
1/4+y,3/4-x,1/4-z
1/2+x,y,1/2-z
1/4-y,1/4+x,3/4-z
1/2-x,1/2+y,z
x,1/2-y,1/2+z
3/4-y,1/4-x,1/4+z
1/4+y,1/4+x,1/4+z
loop_
_atom_site_type_symbol
_atom_site_label
_atom_site_fract_x
_atom_site_fract_y
_atom_site_fract_z
Si Si1 0.457157 0.327689 0.199990
Si Si2 0.779420 0.286952 0.297449
Si Si3 0.552943 0.013953 0.142195
Si Si4 0.176759 0.268267 0.028571
Si Si5 0.269108 0.980893 0.625000
Si Si6 0.800482 0.947932 0.458227
O O1 0.500000 0.250000 0.180449
O O2 0.370039 0.300717 0.206714
O O3 0.467819 0.400770 0.164319
O O4 0.488883 0.349254 0.251853
O O5 0.750000 0.250000 0.250000
O O6 0.759861 0.228492 0.339716
O O7 0.743270 0.371673 0.305326
O O8 0.513347 0.940383 0.169254
O O9 0.644838 0.996068 0.144937
O O10 0.174553 0.361315 0.028313
O O11 0.250000 0.234512 0.000000
O O12 0.256915 0.047146 0.585814
O O13 0.750000 0.986372 0.500000
#
# Coordination Sequence:
#
# PCOD8321263 Si02
#       6
#    32  32  32  32  16  32
#     4  11  25  44  71 102 142 181 234 300 363 425
#     4  12  26  42  68 104 142 181 242 291 355 426
#     4  11  26  42  69 101 141 191 235 292 358 424
#     4   9  22  44  67  95 138 182 226 290 361 416
#     4  12  24  42  70  99 137 184 240 282 340 428
#     4  11  23  42  69  97 134 181 234 287 348 421
#
# _framework density 21.011724000000001
#
# number of rings (size 3 to 8) (size 9 to 14) (size 15 to 20)
#    0.000    1.091    1.818    3.273    7.636    1.455 
#    0.000    0.000    0.000    0.000    0.000    0.000 
#    0.000    0.000    0.000    0.000    0.000    0.000 
#
# Total GULP energy -1091072.955462 kJ/mol
# GULP energy per Si atom -12398.556312 kJ/mol
# Density = 2.096390 g / cm^3
# Si number density = 21.011724 Si / 1000 Ang^3
#
#
#
# Elastic Constant Matrix: (Units=GPa)
#
#
# Indices 1 2 3 4 5 6 
#
# 1 80.3661 29.7736 32.9692 0.0000 0.0000 0.0000
# 2 29.7736 80.3658 32.9691 0.0000 0.0000 0.0000
# 3 32.9692 32.9691 144.7937 0.0000 0.0000 0.0000
# 4 0.0000 0.0000 0.0000 67.0487 0.0000 0.0000
# 5 0.0000 0.0000 0.0000 0.0000 67.0482 0.0000
# 6 0.0000 0.0000 0.0000 0.0000 0.0000 33.2955
#
#
#
# Elastic Compliance Matrix: (Units=1/GPa)
#
#
# Indices 1 2 3 4 5 6 
#
# 1 0.015139 -0.004627 -0.002394 0.000000 0.000000 0.000000
# 2 -0.004627 0.015139 -0.002394 0.000000 0.000000 0.000000
# 3 -0.002394 -0.002394 0.007996 0.000000 0.000000 0.000000
# 4 0.000000 0.000000 0.000000 0.014915 0.000000 0.000000
# 5 0.000000 0.000000 0.000000 0.000000 0.014915 0.000000
# 6 0.000000 0.000000 0.000000 0.000000 0.000000 0.030034
#
#
# Mechanical properties :
#
#
# Convention : Reuss Voigt Hill
#
# Bulk Modulus (GPa) = 51.42267 55.21659 53.31963
# Shear Modulus (GPa) = 40.50282 47.46606 43.98444
#
# Velocity S-wave (km/s) = 4.39524 4.75808 4.58025
# Velocity P-wave (km/s) = 7.09112 7.51809 7.30773
#
# Compressibility (1/GPa) = 0.01944668
#
# Stress axis : x y z
#
# Youngs Moduli (GPa) = 66.05415 66.05389 125.05572
#
# Poissons Ratio (x) = 0.30561 0.29934
# Poissons Ratio (y) = 0.30561 0.29934
# Poissons Ratio (z) = 0.15811 0.15811
#
# Static dielectric constant tensor:
#      x y z
#    x 3.834950 0.000000 0.000000 
#    y 0.000000 3.834990 0.000000 
#    z 0.000000 0.000000 3.982930 
# 
# 
# High freq. dielectric constant tensor:
#      x y z
#    x 1.827350 0.000000 0.000000 
#    y 0.000000 1.827350 0.000000 
#    z 0.000000 0.000000 1.833230 
# 
# From -- ./inp_files/11481.got.cif
#   From: 2010.03.12/outbox.cif.g09.slc.cpg/sg142_6_cif.got.tgz:11481.got - 2010.04.03 13:27:16.
