data_PCOD8321958
_publ_section_title
;
Structure prediction by ZEFSAII (Michael W. Deem and Ramdas Pophale) SiO2 
 PCOD8321958
Probable space group: P 31 1 2
;
_chemical_formula_sum "Si O2"
_cell_formula_units_Z 36
_cell_length_a 9.015890
_cell_length_b 9.015890
_cell_length_c 24.975386
_cell_angle_alpha 90.000000
_cell_angle_beta 90.000000
_cell_angle_gamma 120.000000
_cell_volume 1758.166697
_symmetry_space_group_name_H-M "P 31 1 2"
_symmetry_group_IT_number 151
_symmetry_cell_setting 'hexagonal'
loop_
_space_group_symop_operation_xyz
x,y,z
-y,x-y,1/3+z
-x+y,-x,2/3+z
-y,-x,2/3-z
-x+y,y,1/3-z
x,x-y,-z
loop_
_atom_site_type_symbol
_atom_site_label
_atom_site_fract_x
_atom_site_fract_y
_atom_site_fract_z
Si Si1 0.391263 0.623589 0.944172
Si Si2 0.741718 0.324512 0.772540
Si Si3 0.075259 0.741112 0.212064
Si Si4 0.889031 0.263057 0.388068
Si Si5 0.364326 0.964693 0.578194
Si Si6 0.071607 0.064597 0.389827
O O1 0.521478 0.737417 0.897850
O O2 0.385657 0.444667 0.949383
O O3 0.198889 0.581208 0.927629
O O4 0.447644 0.723822 0.000000
O O5 0.718852 0.281149 0.833334
O O6 0.714419 0.483248 0.763508
O O7 0.934325 0.366675 0.757762
O O8 0.596772 0.141815 0.746972
O O9 0.062564 0.720231 0.148031
O O10 0.043432 0.896547 0.230766
O O11 0.783693 0.216308 0.333334
O O12 0.919947 0.106400 0.405167
O O13 0.236972 0.985913 0.618478
O O14 0.033889 0.966112 0.333334
#
# Coordination Sequence:
#
# PCOD8321958 Si02
#       6
#     6   6   6   6   6   6
#     4  11  22  36  58  85 113 151 197 244 294 353
#     4   9  19  37  59  82 112 148 186 233 293 351
#     4  10  19  37  61  84 111 150 197 242 291 353
#     4  10  21  36  54  80 115 150 187 237 291 347
#     4   9  20  37  58  83 116 153 190 239 297 353
#     4   9  18  33  55  82 113 148 187 233 285 339
#
# _framework density 20.475874000000001
#
# number of rings (size 3 to 8) (size 9 to 14) (size 15 to 20)
#    0.000    2.333    0.000    3.500    0.000    4.667 
#    0.000    6.667    0.000   16.000    0.000    0.000 
#    0.000    0.000    0.000    0.000    0.000    0.000 
#
# Total GULP energy -445993.196534 kJ/mol
# GULP energy per Si atom -12388.699904 kJ/mol
# Density = 2.042927 g / cm^3
# Si number density = 20.475874 Si / 1000 Ang^3
#
#
#
# Elastic Constant Matrix: (Units=GPa)
#
#
# Indices 1 2 3 4 5 6 
#
# 1 96.7405 27.3041 14.3432 0.0021 -11.7392 0.0000
# 2 27.3041 96.7405 14.3432 -0.0021 11.7392 0.0000
# 3 14.3432 14.3432 47.5118 0.0000 0.0000 0.0000
# 4 0.0021 -0.0021 0.0000 35.1472 0.0000 11.7392
# 5 -11.7392 11.7392 0.0000 0.0000 35.1472 0.0021
# 6 0.0000 0.0000 0.0000 11.7392 0.0021 34.7182
#
#
#
# Elastic Compliance Matrix: (Units=1/GPa)
#
#
# Indices 1 2 3 4 5 6 
#
# 1 0.012451 -0.003784 -0.002616 -0.000001 0.005423 0.000000
# 2 -0.003784 0.012451 -0.002616 0.000001 -0.005423 0.000000
# 3 -0.002616 -0.002616 0.022627 0.000000 0.000000 0.000000
# 4 -0.000001 0.000001 0.000000 0.032074 0.000000 -0.010845
# 5 0.005423 -0.005423 0.000000 0.000000 0.032074 -0.000002
# 6 0.000000 0.000000 0.000000 -0.010845 -0.000002 0.032470
#
#
# Mechanical properties :
#
#
# Convention : Reuss Voigt Hill
#
# Bulk Modulus (GPa) = 33.90403 39.21931 36.56167
# Shear Modulus (GPa) = 29.06755 33.33601 31.20178
#
# Velocity S-wave (km/s) = 3.77185 4.03930 3.90786
# Velocity P-wave (km/s) = 5.96348 6.39923 6.18519
#
# Compressibility (1/GPa) = 0.02949502
#
# Stress axis : x y z
#
# Youngs Moduli (GPa) = 80.31523 80.31523 44.19475
#
# Poissons Ratio (x) = 0.30393 0.11563
# Poissons Ratio (y) = 0.30393 0.11563
# Poissons Ratio (z) = 0.21013 0.21013
#
# Static dielectric constant tensor:
#      x y z
#    x 3.118160 0.000000 0.000000 
#    y 0.000000 3.118160 0.000000 
#    z 0.000000 0.000000 3.549450 
# 
# 
# High freq. dielectric constant tensor:
#      x y z
#    x 1.797670 0.000000 0.000000 
#    y 0.000000 1.797670 0.000000 
#    z 0.000000 0.000000 1.787030 
# 
# From -- ./inp_files/4670.got.cif
#   From: 2010.03.12/outbox.cif.g09.slc.cpg/sg151_3_cif.got.tgz:4670.got - 2010.04.03 13:42:29.
