data_PCOD8321650
_publ_section_title
;
Structure prediction by ZEFSAII (Michael W. Deem and Ramdas Pophale) SiO2 
 PCOD8321650
Probable space group: P -3
;
_chemical_formula_sum "Si O2"
_cell_formula_units_Z 24
_cell_length_a 14.749335
_cell_length_b 14.749335
_cell_length_c 5.142905
_cell_angle_alpha 90.000000
_cell_angle_beta 90.000000
_cell_angle_gamma 120.000000
_cell_volume 968.911283
_symmetry_space_group_name_H-M "P -3"
_symmetry_group_IT_number 147
_symmetry_cell_setting 'hexagonal'
loop_
_space_group_symop_operation_xyz
x,y,z
-y,x-y,z
-x+y,-x,z
-x,-y,-z
y,-x+y,-z
x-y,x,-z
loop_
_atom_site_type_symbol
_atom_site_label
_atom_site_fract_x
_atom_site_fract_y
_atom_site_fract_z
Si Si1 0.451015 0.340439 0.545201
Si Si2 0.775211 0.931985 0.054397
Si Si3 0.796483 0.428165 0.046647
Si Si4 0.342243 0.099456 0.446192
O O1 0.515924 0.390281 0.284361
O O2 0.412489 0.216081 0.562998
O O3 0.366302 0.379655 0.567334
O O4 0.529640 0.391789 0.784504
O O5 0.751317 0.956975 0.342052
O O6 0.821849 0.856951 0.095457
O O7 0.680407 0.880382 0.848485
O O8 0.697262 0.448502 0.061155
#
# Coordination Sequence:
#
# PCOD8321650 Si02
#       4
#     6   6   6   6
#     4  12  22  44  66 101 132 177 214 268 318 396
#     4  12  21  38  54  88 131 184 228 266 297 368
#     4  10  24  46  74  91 126 169 212 276 358 400
#     4  12  24  38  64  96 140 170 220 262 326 371
#
# _framework density 24.770068999999999
#
# number of rings (size 3 to 8) (size 9 to 14) (size 15 to 20)
#    0.500    0.000    5.000    4.750    0.000    0.000 
#    0.000   10.000    0.000    0.000    0.000    0.000 
#    0.000    0.000    0.000    0.000    0.000    0.000 
#
# Total GULP energy -297402.520643 kJ/mol
# GULP energy per Si atom -12391.771693 kJ/mol
# Density = 2.471369 g / cm^3
# Si number density = 24.770069 Si / 1000 Ang^3
#
#
#
# Elastic Constant Matrix: (Units=GPa)
#
#
# Indices 1 2 3 4 5 6 
#
# 1 54.4308 -20.6917 11.5752 2.0539 -6.3781 0.0000
# 2 -20.6917 54.4308 11.5752 -2.0539 6.3781 0.0000
# 3 11.5752 11.5752 147.7143 0.0000 0.0000 0.0000
# 4 2.0539 -2.0539 0.0000 24.9676 0.0000 6.3781
# 5 -6.3781 6.3781 0.0000 0.0000 24.9676 2.0539
# 6 0.0000 0.0000 0.0000 6.3781 2.0539 37.5613
#
#
#
# Elastic Compliance Matrix: (Units=1/GPa)
#
#
# Indices 1 2 3 4 5 6 
#
# 1 0.022652 0.008671 -0.002455 -0.001150 0.003572 0.000000
# 2 0.008671 0.022652 -0.002455 0.001150 -0.003572 0.000000
# 3 -0.002455 -0.002455 0.007155 0.000000 0.000000 0.000000
# 4 -0.001150 0.001150 0.000000 0.042066 0.000000 -0.007143
# 5 0.003572 -0.003572 0.000000 0.000000 0.042066 -0.002300
# 6 0.000000 0.000000 0.000000 -0.007143 -0.002300 0.027962
#
#
# Mechanical properties :
#
#
# Convention : Reuss Voigt Hill
#
# Bulk Modulus (GPa) = 16.67136 29.05480 22.86308
# Shear Modulus (GPa) = 28.24500 34.44046 31.34273
#
# Velocity S-wave (km/s) = 3.38048 3.73286 3.56103
# Velocity P-wave (km/s) = 4.68849 5.50766 5.11450
#
# Compressibility (1/GPa) = 0.05998311
#
# Stress axis : x y z
#
# Youngs Moduli (GPa) = 44.14585 44.14585 139.77189
#
# Poissons Ratio (x) = -0.38280 0.34308
# Poissons Ratio (y) = -0.38280 0.34308
# Poissons Ratio (z) = 0.10836 0.10836
#
# Static dielectric constant tensor:
#      x y z
#    x 4.242600 0.000000 0.000000 
#    y 0.000000 4.242600 0.000000 
#    z 0.000000 0.000000 4.321000 
# 
# 
# High freq. dielectric constant tensor:
#      x y z
#    x 1.975880 0.000000 0.000000 
#    y 0.000000 1.975880 0.000000 
#    z 0.000000 0.000000 2.005080 
# 
# From -- ./inp_files/115.got.cif
#   From: 2010.03.12/outbox.cif.g09.slc.cpg/sg147_cif.got.tgz:115.got - 2010.04.03 13:37:56.
