data_PCOD8321209
_publ_section_title
;
Structure prediction by ZEFSAII (Michael W. Deem and Ramdas Pophale) SiO2 
 PCOD8321209
Probable space group: I 41/A C D
;
_chemical_formula_sum "Si O2"
_cell_formula_units_Z 176
_cell_length_a 16.894878
_cell_length_b 16.894878
_cell_length_c 26.284297
_cell_angle_alpha 90.000000
_cell_angle_beta 90.000000
_cell_angle_gamma 90.000000
_cell_volume 7502.508324
_symmetry_space_group_name_H-M "I 41/A C D"
_symmetry_group_IT_number 142
_space_group.IT_coordinate_system_code '2'
_symmetry_cell_setting 'tetragonal'
loop_
_space_group_symop_operation_xyz
x,y,z
1/4-y,3/4+x,1/4+z
-x,1/2-y,z
1/4+y,1/4-x,3/4+z
x,-y,1/2-z
1/2-x,y,-z
3/4+y,1/4+x,1/4-z
1/4-y,1/4-x,1/4-z
-x,-y,-z
3/4+y,1/4-x,3/4-z
x,1/2+y,-z
3/4-y,3/4+x,1/4-z
-x,y,1/2+z
1/2+x,-y,z
1/4-y,3/4-x,3/4+z
3/4+y,3/4+x,3/4+z
1/2+x,1/2+y,1/2+z
3/4-y,1/4+x,3/4+z
1/2-x,-y,1/2+z
3/4+y,3/4-x,1/4+z
1/2+x,1/2-y,-z
-x,1/2+y,1/2-z
1/4+y,3/4+x,3/4-z
3/4-y,3/4-x,3/4-z
1/2-x,1/2-y,1/2-z
1/4+y,3/4-x,1/4-z
1/2+x,y,1/2-z
1/4-y,1/4+x,3/4-z
1/2-x,1/2+y,z
x,1/2-y,1/2+z
3/4-y,1/4-x,1/4+z
1/4+y,1/4+x,1/4+z
loop_
_atom_site_type_symbol
_atom_site_label
_atom_site_fract_x
_atom_site_fract_y
_atom_site_fract_z
Si Si1 0.025152 0.908849 0.235986
Si Si2 0.173930 0.321192 0.796327
Si Si3 0.225802 0.141847 0.795342
Si Si4 0.697713 0.343591 0.593389
Si Si5 0.964010 0.116090 0.162174
Si Si6 0.362853 0.112853 0.875000
O O1 0.095866 0.844841 0.235087
O O2 0.987208 0.912260 0.179889
O O3 0.960504 0.872486 0.276460
O O4 0.049957 0.000000 0.250000
O O5 0.188356 0.228241 0.807626
O O6 0.247024 0.355820 0.763520
O O7 0.163639 0.363322 0.850888
O O8 0.160711 0.074299 0.802743
O O9 0.294874 0.112756 0.832774
O O10 0.791308 0.338910 0.602370
O O11 0.937303 0.187303 0.125000
O O12 0.056243 0.102022 0.154742
#
# Coordination Sequence:
#
# PCOD8321209 Si02
#       6
#    32  32  32  32  32  16
#     4  10  24  47  71 103 150 194 248 309 377 447
#     4  11  23  45  73 104 150 198 241 309 380 457
#     4  11  26  43  73 112 148 193 253 300 388 457
#     4  11  25  44  72 110 147 186 253 310 376 448
#     4  11  25  46  73 102 143 197 251 299 368 453
#     4  12  23  50  68 104 144 197 240 300 370 454
#
# _framework density 23.458819999999999
#
# number of rings (size 3 to 8) (size 9 to 14) (size 15 to 20)
#    0.000    1.091    3.636    1.364    6.364    0.727 
#    3.273    1.818    0.000    0.000    0.000    0.000 
#    0.000    0.000    0.000    0.000    0.000    0.000 
#
# Total GULP energy -1090460.168035 kJ/mol
# GULP energy per Si atom -12391.592819 kJ/mol
# Density = 2.340543 g / cm^3
# Si number density = 23.458820 Si / 1000 Ang^3
#
#
#
# Elastic Constant Matrix: (Units=GPa)
#
#
# Indices 1 2 3 4 5 6 
#
# 1 95.5306 68.7219 38.8374 0.0000 0.0000 0.0000
# 2 68.7219 95.5306 38.8374 0.0000 0.0000 0.0000
# 3 38.8374 38.8374 150.0787 0.0000 0.0000 0.0000
# 4 0.0000 0.0000 0.0000 34.5019 0.0000 0.0000
# 5 0.0000 0.0000 0.0000 0.0000 34.5019 0.0000
# 6 0.0000 0.0000 0.0000 0.0000 0.0000 28.3275
#
#
#
# Elastic Compliance Matrix: (Units=1/GPa)
#
#
# Indices 1 2 3 4 5 6 
#
# 1 0.022119 -0.015182 -0.001795 0.000000 0.000000 0.000000
# 2 -0.015182 0.022119 -0.001795 0.000000 0.000000 0.000000
# 3 -0.001795 -0.001795 0.007592 0.000000 0.000000 0.000000
# 4 0.000000 0.000000 0.000000 0.028984 0.000000 0.000000
# 5 0.000000 0.000000 0.000000 0.000000 0.028984 0.000000
# 6 0.000000 0.000000 0.000000 0.000000 0.000000 0.035301
#
#
# Mechanical properties :
#
#
# Convention : Reuss Voigt Hill
#
# Bulk Modulus (GPa) = 69.99966 70.43703 70.21834
# Shear Modulus (GPa) = 26.67994 32.44914 29.56454
#
# Velocity S-wave (km/s) = 3.37606 3.72323 3.55389
# Velocity P-wave (km/s) = 6.71574 6.96952 6.84381
#
# Compressibility (1/GPa) = 0.01428578
#
# Stress axis : x y z
#
# Youngs Moduli (GPa) = 45.20961 45.20961 131.71254
#
# Poissons Ratio (x) = 0.68638 0.23645
# Poissons Ratio (y) = 0.68638 0.23645
# Poissons Ratio (z) = 0.08116 0.08116
#
# Static dielectric constant tensor:
#      x y z
#    x 4.048640 0.000000 0.000000 
#    y 0.000000 4.048640 0.000000 
#    z 0.000000 0.000000 4.642280 
# 
# 
# High freq. dielectric constant tensor:
#      x y z
#    x 1.916870 0.000000 0.000000 
#    y 0.000000 1.916870 0.000000 
#    z 0.000000 0.000000 1.953110 
# 
# From -- ./inp_files/11446.got.cif
#   From: 2010.03.12/outbox.cif.g09.slc.cpg/sg142_6_cif.got.tgz:11446.got - 2010.04.03 13:27:16.
