data_PCOD8321414
_publ_section_title
;
Structure prediction by ZEFSAII (Michael W. Deem and Ramdas Pophale) SiO2 
 PCOD8321414
Probable space group: P 31
;
_chemical_formula_sum "Si O2"
_cell_formula_units_Z 15
_cell_length_a 7.456374
_cell_length_b 7.456374
_cell_length_c 11.989291
_cell_angle_alpha 90.000000
_cell_angle_beta 90.000000
_cell_angle_gamma 120.000000
_cell_volume 577.270680
_symmetry_space_group_name_H-M "P 31"
_symmetry_group_IT_number 144
_symmetry_cell_setting 'hexagonal'
loop_
_space_group_symop_operation_xyz
x,y,z
-y,x-y,1/3+z
-x+y,-x,2/3+z
loop_
_atom_site_type_symbol
_atom_site_label
_atom_site_fract_x
_atom_site_fract_y
_atom_site_fract_z
Si Si1 0.798180 0.491265 0.125000
Si Si2 0.750267 0.099194 0.025631
Si Si3 0.446464 0.830831 0.216611
Si Si4 0.337323 0.405441 0.122653
Si Si5 0.864971 0.810144 0.943567
O O1 0.857575 0.325380 0.078740
O O2 0.901853 0.537192 0.245570
O O3 0.553800 0.406204 0.137363
O O4 0.899059 0.687152 0.043736
O O5 0.585048 0.930007 0.108138
O O6 0.922405 0.035370 0.991810
O O7 0.328609 0.586507 0.191627
O O8 0.588638 0.876589 0.326128
O O9 0.293858 0.920762 0.235812
O O10 0.166772 0.185494 0.176281
#
# Coordination Sequence:
#
# PCOD8321414 Si02
#       5
#     3   3   3   3   3
#     4  11  22  45  75 111 165 209 265 350 400 472
#     4  12  23  45  80 113 156 223 271 328 422 483
#     4  11  23  44  77 116 159 212 276 333 409 486
#     4  11  23  48  77 110 166 217 262 348 408 473
#     4  11  25  48  77 114 158 217 274 329 419 490
#
# _framework density 25.984341000000001
#
# number of rings (size 3 to 8) (size 9 to 14) (size 15 to 20)
#    0.000    0.800    8.000    1.200    0.000    1.600 
#    3.600    0.000    0.000    0.000    0.000    0.000 
#    0.000    0.000    0.000    0.000    0.000    0.000 
#
# Total GULP energy -186004.649902 kJ/mol
# GULP energy per Si atom -12400.309993 kJ/mol
# Density = 2.592520 g / cm^3
# Si number density = 25.984341 Si / 1000 Ang^3
#
#
#
# Elastic Constant Matrix: (Units=GPa)
#
#
# Indices 1 2 3 4 5 6 
#
# 1 116.3255 48.2634 74.1319 3.1004 6.6735 0.0000
# 2 48.2634 116.3255 74.1319 -3.1004 -6.6735 0.0000
# 3 74.1319 74.1319 207.2191 0.0000 0.0000 0.0000
# 4 3.1004 -3.1004 0.0000 26.1579 0.0000 -6.6735
# 5 6.6735 -6.6735 0.0000 0.0000 26.1579 3.1004
# 6 0.0000 0.0000 0.0000 -6.6735 3.1004 34.0311
#
#
#
# Elastic Compliance Matrix: (Units=1/GPa)
#
#
# Indices 1 2 3 4 5 6 
#
# 1 0.012304 -0.003340 -0.003207 -0.001854 -0.003991 0.000000
# 2 -0.003340 0.012304 -0.003207 0.001854 0.003991 0.000000
# 3 -0.003207 -0.003207 0.007120 0.000000 0.000000 0.000000
# 4 -0.001854 0.001854 0.000000 0.040705 0.000000 0.007982
# 5 -0.003991 0.003991 0.000000 0.000000 0.040705 -0.003708
# 6 0.000000 0.000000 0.000000 0.007982 -0.003708 0.031288
#
#
# Mechanical properties :
#
#
# Convention : Reuss Voigt Hill
#
# Bulk Modulus (GPa) = 81.82275 92.54716 87.18496
# Shear Modulus (GPa) = 29.76018 33.49224 31.62621
#
# Velocity S-wave (km/s) = 3.38792 3.59408 3.49252
# Velocity P-wave (km/s) = 6.84555 7.27441 7.06324
#
# Compressibility (1/GPa) = 0.01222154
#
# Stress axis : x y z
#
# Youngs Moduli (GPa) = 81.27170 81.27170 140.44014
#
# Poissons Ratio (x) = 0.27142 0.45041
# Poissons Ratio (y) = 0.27142 0.45041
# Poissons Ratio (z) = 0.26065 0.26065
#
# Static dielectric constant tensor:
#      x y z
#    x 4.659580 0.000000 0.000000 
#    y 0.000000 4.659580 0.000000 
#    z 0.000000 0.000000 5.084510 
# 
# 
# High freq. dielectric constant tensor:
#      x y z
#    x 2.033250 0.000000 0.000000 
#    y 0.000000 2.033250 0.000000 
#    z 0.000000 0.000000 2.065810 
# 
# From -- ./inp_files/490.got.cif
#   From: 2010.03.12/outbox.cif.g09.slc.cpg/sg144_cif.got.tgz:490.got - 2010.04.03 13:34:42.
