data_PCOD8321379
_publ_section_title
;
Structure prediction by ZEFSAII (Michael W. Deem and Ramdas Pophale) SiO2 
 PCOD8321379
Probable space group: P 31
;
_chemical_formula_sum "Si O2"
_cell_formula_units_Z 24
_cell_length_a 14.843186
_cell_length_b 14.843186
_cell_length_c 5.097862
_cell_angle_alpha 90.000000
_cell_angle_beta 90.000000
_cell_angle_gamma 120.000000
_cell_volume 972.686674
_symmetry_space_group_name_H-M "P 31"
_symmetry_group_IT_number 144
_symmetry_cell_setting 'hexagonal'
loop_
_space_group_symop_operation_xyz
x,y,z
-y,x-y,1/3+z
-x+y,-x,2/3+z
loop_
_atom_site_type_symbol
_atom_site_label
_atom_site_fract_x
_atom_site_fract_y
_atom_site_fract_z
Si Si1 0.785631 0.095230 0.247950
Si Si2 0.883436 0.566481 0.102551
Si Si3 0.439786 0.695729 0.124236
Si Si4 0.074812 0.578868 0.897398
Si Si5 0.410638 0.033028 0.260588
Si Si6 0.648663 0.864845 0.268261
Si Si7 0.738709 0.305616 0.470645
Si Si8 0.996623 0.280517 0.117755
O O1 0.753407 0.100857 0.546736
O O2 0.910183 0.163184 0.207843
O O3 0.735472 0.975244 0.149563
O O4 0.734796 0.142053 0.053406
O O5 0.782929 0.457396 0.026465
O O6 0.986095 0.553089 0.116404
O O7 0.376572 0.753036 0.212093
O O8 0.438791 0.608757 0.329466
O O9 0.560770 0.781441 0.062216
O O10 0.120895 0.698776 0.817813
O O11 0.018280 0.500215 0.651612
O O12 0.472074 0.145118 0.116954
O O13 0.360161 0.041870 0.533007
O O14 0.328242 0.969682 0.033244
O O15 0.719195 0.821098 0.384017
O O16 0.740993 0.412733 0.541455
#
# Coordination Sequence:
#
# PCOD8321379 Si02
#       8
#     3   3   3   3   3   3   3   3
#     4  11  24  46  74  99 140 185 243 300 359 433
#     4  11  24  44  67 101 140 189 236 290 358 422
#     4  10  22  41  65 104 146 187 235 291 358 441
#     4  10  23  44  66 104 142 192 237 290 362 441
#     4  12  26  46  71 100 143 192 232 286 366 436
#     4  10  25  43  72 108 141 190 241 305 367 430
#     4  12  27  40  66 105 143 188 241 302 349 428
#     4  12  25  48  75 101 141 191 243 298 361 435
#
# _framework density 24.673924
#
# number of rings (size 3 to 8) (size 9 to 14) (size 15 to 20)
#    0.000    1.000    5.000    0.000    5.250    8.000 
#    0.000    0.000    8.250    0.000    0.000    0.000 
#    0.000    0.000    0.000    0.000    0.000    0.000 
#
# Total GULP energy -297317.407128 kJ/mol
# GULP energy per Si atom -12388.225297 kJ/mol
# Density = 2.461776 g / cm^3
# Si number density = 24.673924 Si / 1000 Ang^3
#
#
#
# Elastic Constant Matrix: (Units=GPa)
#
#
# Indices 1 2 3 4 5 6 
#
# 1 126.7208 40.8275 -3.0828 -0.0135 1.6140 0.0000
# 2 40.8275 126.7208 -3.0828 0.0135 -1.6140 0.0000
# 3 -3.0828 -3.0828 48.6780 0.0000 0.0000 0.0000
# 4 -0.0135 0.0135 0.0000 20.5256 0.0000 -1.6140
# 5 1.6140 -1.6140 0.0000 0.0000 20.5256 -0.0135
# 6 0.0000 0.0000 0.0000 -1.6140 -0.0135 42.9467
#
#
#
# Elastic Compliance Matrix: (Units=1/GPa)
#
#
# Indices 1 2 3 4 5 6 
#
# 1 0.008830 -0.002847 0.000379 0.000008 -0.000918 0.000000
# 2 -0.002847 0.008830 0.000379 -0.000008 0.000918 0.000000
# 3 0.000379 0.000379 0.020591 0.000000 0.000000 0.000000
# 4 0.000008 -0.000008 0.000000 0.048864 0.000000 0.001836
# 5 -0.000918 0.000918 0.000000 0.000000 0.048864 0.000015
# 6 0.000000 0.000000 0.000000 0.001836 0.000015 0.023354
#
#
# Mechanical properties :
#
#
# Convention : Reuss Voigt Hill
#
# Bulk Modulus (GPa) = 29.35017 41.27149 35.31083
# Shear Modulus (GPa) = 28.59294 34.63009 31.61152
#
# Velocity S-wave (km/s) = 3.40786 3.75041 3.58323
# Velocity P-wave (km/s) = 5.23504 5.95963 5.60905
#
# Compressibility (1/GPa) = 0.03407135
#
# Stress axis : x y z
#
# Youngs Moduli (GPa) = 113.25520 113.25520 48.56455
#
# Poissons Ratio (x) = 0.32247 -0.01840
# Poissons Ratio (y) = 0.32247 -0.01840
# Poissons Ratio (z) = -0.04291 -0.04291
#
# Static dielectric constant tensor:
#      x y z
#    x 4.779220 0.000000 0.000000 
#    y 0.000000 4.779220 0.000000 
#    z 0.000000 0.000000 4.000040 
# 
# 
# High freq. dielectric constant tensor:
#      x y z
#    x 1.984190 0.000000 0.000000 
#    y 0.000000 1.984190 0.000000 
#    z 0.000000 0.000000 1.959580 
# 
# From -- ./inp_files/168.got.cif
#   From: 2010.03.12/outbox.cif.g09.slc.cpg/sg144_cif.got.tgz:168.got - 2010.04.03 13:34:42.
