data_PCOD8321711
_publ_section_title
;
Structure prediction by ZEFSAII (Michael W. Deem and Ramdas Pophale) SiO2 
 PCOD8321711
Probable space group: R -3
;
_chemical_formula_sum "Si O2"
_cell_formula_units_Z 72
_cell_length_a 12.324522
_cell_length_b 12.324522
_cell_length_c 29.937010
_cell_angle_alpha 90.000000
_cell_angle_beta 90.000000
_cell_angle_gamma 120.000000
_cell_volume 3938.031837
_symmetry_space_group_name_H-M "R -3"
_symmetry_group_IT_number 148
_symmetry_cell_setting 'hexagonal'
loop_
_space_group_symop_operation_xyz
x,y,z
-y,x-y,z
-x+y,-x,z
-x,-y,-z
y,-x+y,-z
x-y,x,-z
2/3+x,1/3+y,1/3+z
2/3-y,1/3+x-y,1/3+z
2/3-x+y,1/3-x,1/3+z
2/3-x,1/3-y,1/3-z
2/3+y,1/3-x+y,1/3-z
2/3+x-y,1/3+x,1/3-z
1/3+x,2/3+y,2/3+z
1/3-y,2/3+x-y,2/3+z
1/3-x+y,2/3-x,2/3+z
1/3-x,2/3-y,2/3-z
1/3+y,2/3-x+y,2/3-z
1/3+x-y,2/3+x,2/3-z
loop_
_atom_site_type_symbol
_atom_site_label
_atom_site_fract_x
_atom_site_fract_y
_atom_site_fract_z
Si Si1 0.416604 0.084679 0.701417
Si Si2 0.680882 0.590207 0.118946
Si Si3 0.336581 0.422156 0.047084
Si Si4 0.921954 0.572723 0.131384
O O1 0.529357 0.059864 0.709981
O O2 0.467378 0.233344 0.702398
O O3 0.308376 0.015470 0.737839
O O4 0.359024 0.027178 0.653331
O O5 0.803493 0.579006 0.113078
O O6 0.570546 0.457387 0.136263
O O7 0.701777 0.697574 0.153753
O O8 0.354156 0.390606 0.097460
#
# Coordination Sequence:
#
# PCOD8321711 Si02
#       4
#    18  18  18  18
#     4  10  20  34  53  76 102 132 167 208 253 300
#     4  10  20  34  53  76 103 135 170 208 250 297
#     4  10  20  34  53  76 102 132 167 208 253 300
#     4  10  20  34  53  76 103 135 170 208 250 297
#
# _framework density 18.283245999999998
#
# number of rings (size 3 to 8) (size 9 to 14) (size 15 to 20)
#    0.000    2.000    0.000    4.000    0.000    0.000 
#    0.000    5.000    0.000   20.000    0.000    0.000 
#    0.000    0.000    0.000    0.000    0.000    0.000 
#
# Total GULP energy -297720.105565 kJ/mol
# GULP energy per Si atom -12405.004399 kJ/mol
# Density = 1.824163 g / cm^3
# Si number density = 18.283246 Si / 1000 Ang^3
#
#
#
# Elastic Constant Matrix: (Units=GPa)
#
#
# Indices 1 2 3 4 5 6 
#
# 1 62.1815 24.2016 -1.7618 2.5092 -1.2338 0.0000
# 2 24.2016 62.1815 -1.7618 -2.5092 1.2338 0.0000
# 3 -1.7618 -1.7618 39.0574 0.0000 0.0000 0.0000
# 4 2.5092 -2.5092 0.0000 18.7862 0.0000 1.2338
# 5 -1.2338 1.2338 0.0000 0.0000 18.7862 2.5092
# 6 0.0000 0.0000 0.0000 1.2338 2.5092 18.9900
#
#
#
# Elastic Compliance Matrix: (Units=1/GPa)
#
#
# Indices 1 2 3 4 5 6 
#
# 1 0.019259 -0.007661 0.000523 -0.003596 0.001768 0.000000
# 2 -0.007661 0.019259 0.000523 0.003596 -0.001768 0.000000
# 3 0.000523 0.000523 0.025651 0.000000 0.000000 0.000000
# 4 -0.003596 0.003596 0.000000 0.054423 0.000000 -0.003536
# 5 0.001768 -0.001768 0.000000 0.000000 0.054423 -0.007191
# 6 0.000000 0.000000 0.000000 -0.003536 -0.007191 0.053839
#
#
# Mechanical properties :
#
#
# Convention : Reuss Voigt Hill
#
# Bulk Modulus (GPa) = 19.63153 22.75295 21.19224
# Shear Modulus (GPa) = 19.45049 20.82862 20.13955
#
# Velocity S-wave (km/s) = 3.26520 3.37889 3.32253
# Velocity P-wave (km/s) = 4.99761 5.26254 5.13178
#
# Compressibility (1/GPa) = 0.05093845
#
# Stress axis : x y z
#
# Youngs Moduli (GPa) = 51.92463 51.92463 38.98549
#
# Poissons Ratio (x) = 0.39780 -0.02039
# Poissons Ratio (y) = 0.39780 -0.02039
# Poissons Ratio (z) = -0.02716 -0.02716
#
# Static dielectric constant tensor:
#      x y z
#    x 3.298150 0.000000 0.000000 
#    y 0.000000 3.298150 0.000000 
#    z 0.000000 0.000000 3.395420 
# 
# 
# High freq. dielectric constant tensor:
#      x y z
#    x 1.709790 0.000000 0.000000 
#    y 0.000000 1.709790 0.000000 
#    z 0.000000 0.000000 1.720970 
# 
# From -- ./inp_files/3899.got.cif
#   From: 2010.03.12/outbox.cif.g09.slc.cpg/sg148_2_cif.got.tgz:3899.got - 2010.04.03 13:38:46.
