data_PCOD8321107
_publ_section_title
;
Structure prediction by ZEFSAII (Michael W. Deem and Ramdas Pophale) SiO2 
 PCOD8321107
Probable space group: I 41/A C D
;
_chemical_formula_sum "Si O2"
_cell_formula_units_Z 192
_cell_length_a 21.390322
_cell_length_b 21.390322
_cell_length_c 22.813724
_cell_angle_alpha 90.000000
_cell_angle_beta 90.000000
_cell_angle_gamma 90.000000
_cell_volume 10438.325316
_symmetry_space_group_name_H-M "I 41/A C D"
_symmetry_group_IT_number 142
_space_group.IT_coordinate_system_code '2'
_symmetry_cell_setting 'tetragonal'
loop_
_space_group_symop_operation_xyz
x,y,z
1/4-y,3/4+x,1/4+z
-x,1/2-y,z
1/4+y,1/4-x,3/4+z
x,-y,1/2-z
1/2-x,y,-z
3/4+y,1/4+x,1/4-z
1/4-y,1/4-x,1/4-z
-x,-y,-z
3/4+y,1/4-x,3/4-z
x,1/2+y,-z
3/4-y,3/4+x,1/4-z
-x,y,1/2+z
1/2+x,-y,z
1/4-y,3/4-x,3/4+z
3/4+y,3/4+x,3/4+z
1/2+x,1/2+y,1/2+z
3/4-y,1/4+x,3/4+z
1/2-x,-y,1/2+z
3/4+y,3/4-x,1/4+z
1/2+x,1/2-y,-z
-x,1/2+y,1/2-z
1/4+y,3/4+x,3/4-z
3/4-y,3/4-x,3/4-z
1/2-x,1/2-y,1/2-z
1/4+y,3/4-x,1/4-z
1/2+x,y,1/2-z
1/4-y,1/4+x,3/4-z
1/2-x,1/2+y,z
x,1/2-y,1/2+z
3/4-y,1/4-x,1/4+z
1/4+y,1/4+x,1/4+z
loop_
_atom_site_type_symbol
_atom_site_label
_atom_site_fract_x
_atom_site_fract_y
_atom_site_fract_z
Si Si1 0.754312 0.258522 0.819898
Si Si2 0.855801 0.855604 0.197440
Si Si3 0.478589 0.873476 0.622060
Si Si4 0.555699 0.796410 0.531271
Si Si5 0.123784 0.022289 0.871293
Si Si6 0.304800 0.951096 0.038255
O O1 0.750000 0.250000 0.750000
O O2 0.813874 0.302216 0.832728
O O3 0.693528 0.288497 0.851558
O O4 0.763218 0.193917 0.852813
O O5 0.921333 0.829056 0.221639
O O6 0.869626 0.906485 0.148082
O O7 0.818076 0.884550 0.251805
O O8 0.413906 0.836095 0.625000
O O9 0.527238 0.848046 0.574385
O O10 0.511255 0.863616 0.685965
O O11 0.500000 0.750000 0.513564
O O12 0.138008 0.972985 0.818877
O O13 0.176316 0.007333 0.919361
O O14 0.250000 0.981527 0.000000
#
# Coordination Sequence:
#
# PCOD8321107 Si02
#       6
#    32  32  32  32  32  32
#     4  12  21  36  58  81 117 152 187 233 290 338
#     4  11  21  36  57  85 112 150 190 232 283 334
#     4   9  18  34  57  88 110 142 194 236 279 335
#     4   9  17  33  58  82 111 146 190 236 274 330
#     4  10  21  37  56  85 113 144 199 229 276 346
#     4   9  18  36  62  81 106 147 189 241 274 329
#
# _framework density 18.393754999999999
#
# number of rings (size 3 to 8) (size 9 to 14) (size 15 to 20)
#    0.000    2.000    3.333    2.000    0.000    2.667 
#    9.000    0.000    0.000    3.000    0.000    0.000 
#    0.000    0.000    0.000    0.000    0.000    0.000 
#
# Total GULP energy -1189891.092009 kJ/mol
# GULP energy per Si atom -12394.698875 kJ/mol
# Density = 1.835189 g / cm^3
# Si number density = 18.393755 Si / 1000 Ang^3
#
#
#
# Elastic Constant Matrix: (Units=GPa)
#
#
# Indices 1 2 3 4 5 6 
#
# 1 102.9139 54.1908 52.4678 0.0000 0.0000 0.0000
# 2 54.1908 102.9150 52.4682 0.0000 0.0000 0.0000
# 3 52.4678 52.4682 82.0592 0.0000 0.0000 0.0000
# 4 0.0000 0.0000 0.0000 29.3641 0.0000 0.0000
# 5 0.0000 0.0000 0.0000 0.0000 29.3646 0.0000
# 6 0.0000 0.0000 0.0000 0.0000 0.0000 20.8929
#
#
#
# Elastic Compliance Matrix: (Units=1/GPa)
#
#
# Indices 1 2 3 4 5 6 
#
# 1 0.015817 -0.004707 -0.007104 0.000000 0.000000 0.000000
# 2 -0.004707 0.015817 -0.007104 0.000000 0.000000 0.000000
# 3 -0.007104 -0.007104 0.021270 0.000000 0.000000 0.000000
# 4 0.000000 0.000000 0.000000 0.034055 0.000000 0.000000
# 5 0.000000 0.000000 0.000000 0.000000 0.034055 0.000000
# 6 0.000000 0.000000 0.000000 0.000000 0.000000 0.047863
#
#
# Mechanical properties :
#
#
# Convention : Reuss Voigt Hill
#
# Bulk Modulus (GPa) = 66.33172 67.34906 66.84039
# Shear Modulus (GPa) = 23.61495 24.50843 24.06169
#
# Velocity S-wave (km/s) = 3.58698 3.65421 3.62075
# Velocity P-wave (km/s) = 7.30039 7.38234 7.34148
#
# Compressibility (1/GPa) = 0.01507574
#
# Stress axis : x y z
#
# Youngs Moduli (GPa) = 63.22332 63.22385 47.01404
#
# Poissons Ratio (x) = 0.29760 0.33397
# Poissons Ratio (y) = 0.29759 0.33397
# Poissons Ratio (z) = 0.44911 0.44912
#
# Static dielectric constant tensor:
#      x y z
#    x 3.427400 0.000000 0.000000 
#    y 0.000000 3.427400 0.000000 
#    z 0.000000 0.000000 3.633030 
# 
# 
# High freq. dielectric constant tensor:
#      x y z
#    x 1.708000 0.000000 0.000000 
#    y 0.000000 1.708000 0.000000 
#    z 0.000000 0.000000 1.701980 
# 
# From -- ./inp_files/10428.got.cif
#   From: 2010.03.12/outbox.cif.g09.slc.cpg/sg142_6_cif.got.tgz:10428.got - 2010.04.03 13:27:16.
