data_PCOD8321193
_publ_section_title
;
Structure prediction by ZEFSAII (Michael W. Deem and Ramdas Pophale) SiO2 
 PCOD8321193
Probable space group: I 41/A C D
;
_chemical_formula_sum "Si O2"
_cell_formula_units_Z 176
_cell_length_a 17.558476
_cell_length_b 17.558476
_cell_length_c 26.491465
_cell_angle_alpha 90.000000
_cell_angle_beta 90.000000
_cell_angle_gamma 90.000000
_cell_volume 8167.320764
_symmetry_space_group_name_H-M "I 41/A C D"
_symmetry_group_IT_number 142
_space_group.IT_coordinate_system_code '2'
_symmetry_cell_setting 'tetragonal'
loop_
_space_group_symop_operation_xyz
x,y,z
1/4-y,3/4+x,1/4+z
-x,1/2-y,z
1/4+y,1/4-x,3/4+z
x,-y,1/2-z
1/2-x,y,-z
3/4+y,1/4+x,1/4-z
1/4-y,1/4-x,1/4-z
-x,-y,-z
3/4+y,1/4-x,3/4-z
x,1/2+y,-z
3/4-y,3/4+x,1/4-z
-x,y,1/2+z
1/2+x,-y,z
1/4-y,3/4-x,3/4+z
3/4+y,3/4+x,3/4+z
1/2+x,1/2+y,1/2+z
3/4-y,1/4+x,3/4+z
1/2-x,-y,1/2+z
3/4+y,3/4-x,1/4+z
1/2+x,1/2-y,-z
-x,1/2+y,1/2-z
1/4+y,3/4+x,3/4-z
3/4-y,3/4-x,3/4-z
1/2-x,1/2-y,1/2-z
1/4+y,3/4-x,1/4-z
1/2+x,y,1/2-z
1/4-y,1/4+x,3/4-z
1/2-x,1/2+y,z
x,1/2-y,1/2+z
3/4-y,1/4-x,1/4+z
1/4+y,1/4+x,1/4+z
loop_
_atom_site_type_symbol
_atom_site_label
_atom_site_fract_x
_atom_site_fract_y
_atom_site_fract_z
Si Si1 0.993259 0.661014 0.251360
Si Si2 0.644770 0.909875 0.044361
Si Si3 0.026854 0.642006 0.642060
Si Si4 0.750000 0.462446 0.500000
Si Si5 0.558870 0.982141 0.130149
Si Si6 0.321920 0.653637 0.578434
O O1 0.905221 0.636537 0.257966
O O2 0.000000 0.750000 0.255538
O O3 0.013925 0.628546 0.196221
O O4 0.053503 0.629899 0.291448
O O5 0.573488 0.935859 0.078911
O O6 0.709620 0.870486 0.077964
O O7 0.679534 0.982663 0.015271
O O8 0.961643 0.663826 0.601687
O O9 0.073447 0.570952 0.620516
O O10 0.726439 0.409242 0.452543
O O11 0.471064 0.978694 0.147869
O O12 0.364623 0.614623 0.625000
#
# Coordination Sequence:
#
# PCOD8321193 Si02
#       6
#    32  32  32  16  32  32
#     4  11  22  45  69  94 136 179 237 281 345 427
#     4  10  24  42  67 100 131 189 228 291 360 423
#     4  11  23  39  64  98 129 176 217 279 350 410
#     4  12  26  42  68 106 148 178 238 308 374 428
#     4  10  23  43  67  92 140 179 230 281 355 422
#     4  11  26  44  68 101 135 188 234 294 349 429
#
# _framework density 21.549295000000001
#
# number of rings (size 3 to 8) (size 9 to 14) (size 15 to 20)
#    0.000    1.273    1.818    3.273    7.636    6.182 
#    0.000    2.727    0.000    0.000    0.000    0.000 
#    0.000    0.000    0.000    0.000    0.000    0.000 
#
# Total GULP energy -1090792.878149 kJ/mol
# GULP energy per Si atom -12395.373615 kJ/mol
# Density = 2.150025 g / cm^3
# Si number density = 21.549295 Si / 1000 Ang^3
#
#
#
# Elastic Constant Matrix: (Units=GPa)
#
#
# Indices 1 2 3 4 5 6 
#
# 1 123.5349 50.4417 38.2720 0.0000 0.0000 0.0000
# 2 50.4417 123.5349 38.2720 0.0000 0.0000 0.0000
# 3 38.2720 38.2720 108.4450 0.0000 0.0000 0.0000
# 4 0.0000 0.0000 0.0000 31.3775 0.0000 0.0000
# 5 0.0000 0.0000 0.0000 0.0000 31.3775 0.0000
# 6 0.0000 0.0000 0.0000 0.0000 0.0000 11.3924
#
#
#
# Elastic Compliance Matrix: (Units=1/GPa)
#
#
# Indices 1 2 3 4 5 6 
#
# 1 0.010243 -0.003438 -0.002401 0.000000 0.000000 0.000000
# 2 -0.003438 0.010243 -0.002401 0.000000 0.000000 0.000000
# 3 -0.002401 -0.002401 0.010916 0.000000 0.000000 0.000000
# 4 0.000000 0.000000 0.000000 0.031870 0.000000 0.000000
# 5 0.000000 0.000000 0.000000 0.000000 0.031870 0.000000
# 6 0.000000 0.000000 0.000000 0.000000 0.000000 0.087778
#
#
# Mechanical properties :
#
#
# Convention : Reuss Voigt Hill
#
# Bulk Modulus (GPa) = 67.02622 67.72069 67.37346
# Shear Modulus (GPa) = 24.46478 30.06475 27.26476
#
# Velocity S-wave (km/s) = 3.37307 3.73924 3.56086
# Velocity P-wave (km/s) = 6.80745 7.08073 6.94543
#
# Compressibility (1/GPa) = 0.01491953
#
# Stress axis : x y z
#
# Youngs Moduli (GPa) = 97.62960 97.62960 91.60663
#
# Poissons Ratio (x) = 0.33569 0.21998
# Poissons Ratio (y) = 0.33569 0.21998
# Poissons Ratio (z) = 0.23445 0.23445
#
# Static dielectric constant tensor:
#      x y z
#    x 3.968160 0.000000 0.000000 
#    y 0.000000 3.968160 0.000000 
#    z 0.000000 0.000000 4.059910 
# 
# 
# High freq. dielectric constant tensor:
#      x y z
#    x 1.851360 0.000000 0.000000 
#    y 0.000000 1.851360 0.000000 
#    z 0.000000 0.000000 1.849970 
# 
# From -- ./inp_files/11469.got.cif
#   From: 2010.03.12/outbox.cif.g09.slc.cpg/sg142_6_cif.got.tgz:11469.got - 2010.04.03 13:27:16.
