data_PCOD8321436
_publ_section_title
;
Structure prediction by ZEFSAII (Michael W. Deem and Ramdas Pophale) SiO2 
 PCOD8321436
Probable space group: P 31
;
_chemical_formula_sum "Si O2"
_cell_formula_units_Z 18
_cell_length_a 8.391749
_cell_length_b 8.391749
_cell_length_c 11.021214
_cell_angle_alpha 90.000000
_cell_angle_beta 90.000000
_cell_angle_gamma 120.000000
_cell_volume 672.148197
_symmetry_space_group_name_H-M "P 31"
_symmetry_group_IT_number 144
_symmetry_cell_setting 'hexagonal'
loop_
_space_group_symop_operation_xyz
x,y,z
-y,x-y,1/3+z
-x+y,-x,2/3+z
loop_
_atom_site_type_symbol
_atom_site_label
_atom_site_fract_x
_atom_site_fract_y
_atom_site_fract_z
Si Si1 0.702276 0.534562 0.493120
Si Si2 0.156965 0.479978 0.824644
Si Si3 0.815059 0.338482 0.670150
Si Si4 0.043398 0.162692 0.002937
Si Si5 0.806812 0.819163 0.845590
Si Si6 0.475482 0.828405 0.912191
O O1 0.837032 0.495174 0.575601
O O2 0.620674 0.394681 0.380244
O O3 0.818294 0.742843 0.445210
O O4 0.528510 0.499445 0.574502
O O5 0.264437 0.685674 0.877948
O O6 0.262914 0.457650 0.710710
O O7 0.952364 0.432671 0.784489
O O8 0.159327 0.355945 0.934936
O O9 0.864511 0.199470 0.601806
O O10 0.179211 0.094497 0.057408
O O11 0.908530 0.018867 0.906082
O O12 0.603564 0.790004 0.816894
#
# Coordination Sequence:
#
# PCOD8321436 Si02
#       6
#     3   3   3   3   3   3
#     4  12  27  46  75 110 153 200 252 312 376 444
#     4  11  26  48  78 111 152 199 254 313 377 450
#     4  11  27  49  73 111 153 199 253 312 373 448
#     4  12  27  50  79 112 153 202 250 313 380 449
#     4  11  26  46  75 109 151 199 253 309 375 448
#     4  11  25  49  76 111 150 201 256 311 375 451
#
# _framework density 26.779809
#
# number of rings (size 3 to 8) (size 9 to 14) (size 15 to 20)
#    0.000    0.667    0.000    7.000    0.000   22.667 
#    0.000    1.667    0.000    0.000    0.000    0.000 
#    0.000    0.000    0.000    0.000    0.000    0.000 
#
# Total GULP energy -223333.513992 kJ/mol
# GULP energy per Si atom -12407.417444 kJ/mol
# Density = 2.671886 g / cm^3
# Si number density = 26.779809 Si / 1000 Ang^3
#
#
#
# Elastic Constant Matrix: (Units=GPa)
#
#
# Indices 1 2 3 4 5 6 
#
# 1 96.9803 21.1282 17.9756 -1.2011 8.3659 0.0000
# 2 21.1282 96.9803 17.9756 1.2011 -8.3659 0.0000
# 3 17.9756 17.9756 76.3458 0.0000 0.0000 0.0000
# 4 -1.2011 1.2011 0.0000 41.3164 0.0000 -8.3659
# 5 8.3659 -8.3659 0.0000 0.0000 41.3164 -1.2011
# 6 0.0000 0.0000 0.0000 -8.3659 -1.2011 37.9261
#
#
#
# Elastic Compliance Matrix: (Units=1/GPa)
#
#
# Indices 1 2 3 4 5 6 
#
# 1 0.011467 -0.002346 -0.002147 0.000402 -0.002797 0.000000
# 2 -0.002346 0.011467 -0.002147 -0.000402 0.002797 0.000000
# 3 -0.002147 -0.002147 0.014110 0.000000 0.000000 0.000000
# 4 0.000402 -0.000402 0.000000 0.025359 0.000000 0.005594
# 5 -0.002797 0.002797 0.000000 0.000000 0.025359 0.000803
# 6 0.000000 0.000000 0.000000 0.005594 0.000803 0.027626
#
#
# Mechanical properties :
#
#
# Convention : Reuss Voigt Hill
#
# Bulk Modulus (GPa) = 42.08618 42.71836 42.40227
# Shear Modulus (GPa) = 36.60555 38.32690 37.46622
#
# Velocity S-wave (km/s) = 3.70118 3.78721 3.74444
# Velocity P-wave (km/s) = 5.83222 5.92539 5.87899
#
# Compressibility (1/GPa) = 0.02376077
#
# Stress axis : x y z
#
# Youngs Moduli (GPa) = 87.20800 87.20800 70.87415
#
# Poissons Ratio (x) = 0.20462 0.15220
# Poissons Ratio (y) = 0.20462 0.15220
# Poissons Ratio (z) = 0.18727 0.18727
#
# Static dielectric constant tensor:
#      x y z
#    x 4.879030 0.000000 0.000000 
#    y 0.000000 4.879030 0.000000 
#    z 0.000000 0.000000 4.766700 
# 
# 
# High freq. dielectric constant tensor:
#      x y z
#    x 2.082870 0.000000 0.000000 
#    y 0.000000 2.082870 0.000000 
#    z 0.000000 0.000000 2.075210 
# 
# From -- ./inp_files/573.got.cif
#   From: 2010.03.12/outbox.cif.g09.slc.cpg/sg144_cif.got.tgz:573.got - 2010.04.03 13:34:42.
