data_PCOD8321216
_publ_section_title
;
Structure prediction by ZEFSAII (Michael W. Deem and Ramdas Pophale) SiO2 
 PCOD8321216
Probable space group: I 41/A C D
;
_chemical_formula_sum "Si O2"
_cell_formula_units_Z 72
_cell_length_a 9.956343
_cell_length_b 9.956343
_cell_length_c 29.989508
_cell_angle_alpha 90.000000
_cell_angle_beta 90.000000
_cell_angle_gamma 90.000000
_cell_volume 2972.822919
_symmetry_space_group_name_H-M "I 41/A C D"
_symmetry_group_IT_number 142
_space_group.IT_coordinate_system_code '2'
_symmetry_cell_setting 'tetragonal'
loop_
_space_group_symop_operation_xyz
x,y,z
1/4-y,3/4+x,1/4+z
-x,1/2-y,z
1/4+y,1/4-x,3/4+z
x,-y,1/2-z
1/2-x,y,-z
3/4+y,1/4+x,1/4-z
1/4-y,1/4-x,1/4-z
-x,-y,-z
3/4+y,1/4-x,3/4-z
x,1/2+y,-z
3/4-y,3/4+x,1/4-z
-x,y,1/2+z
1/2+x,-y,z
1/4-y,3/4-x,3/4+z
3/4+y,3/4+x,3/4+z
1/2+x,1/2+y,1/2+z
3/4-y,1/4+x,3/4+z
1/2-x,-y,1/2+z
3/4+y,3/4-x,1/4+z
1/2+x,1/2-y,-z
-x,1/2+y,1/2-z
1/4+y,3/4+x,3/4-z
3/4-y,3/4-x,3/4-z
1/2-x,1/2-y,1/2-z
1/4+y,3/4-x,1/4-z
1/2+x,y,1/2-z
1/4-y,1/4+x,3/4-z
1/2-x,1/2+y,z
x,1/2-y,1/2+z
3/4-y,1/4-x,1/4+z
1/4+y,1/4+x,1/4+z
loop_
_atom_site_type_symbol
_atom_site_label
_atom_site_fract_x
_atom_site_fract_y
_atom_site_fract_z
Si Si1 0.250000 0.127341 0.500000
Si Si2 0.380356 0.008824 0.415526
Si Si3 0.500000 0.750000 0.299163
Si Si4 0.000000 0.250000 0.625000
O O1 0.304566 0.030980 0.461701
O O2 0.372635 0.216454 0.518181
O O3 0.271738 0.021738 0.375000
O O4 0.497745 0.119606 0.407161
O O5 0.455003 0.867273 0.417279
#
# Coordination Sequence:
#
# PCOD8321216 Si02
#       4
#    16  32  16   8
#     4  12  26  48  82 124 166 210 276 344 418 496
#     4  10  25  49  81 110 164 211 274 337 418 489
#     4  12  27  51  82 120 154 222 271 347 406 500
#     4   8  22  52  74 108 170 220 260 354 408 494
#
# _framework density 24.219404999999998
#
# number of rings (size 3 to 8) (size 9 to 14) (size 15 to 20)
#    1.333    0.000    0.000    4.000    0.000    8.889 
#    8.000    0.000    0.000    0.000    0.000    0.000 
#    0.000    0.000    0.000    0.000    0.000    0.000 
#
# Total GULP energy -446189.396124 kJ/mol
# GULP energy per Si atom -12394.149892 kJ/mol
# Density = 2.416428 g / cm^3
# Si number density = 24.219405 Si / 1000 Ang^3
#
#
#
# Elastic Constant Matrix: (Units=GPa)
#
#
# Indices 1 2 3 4 5 6 
#
# 1 172.5273 97.3381 83.2004 0.0000 0.0000 0.0000
# 2 97.3381 172.5273 83.2004 0.0000 0.0000 0.0000
# 3 83.2004 83.2004 172.2560 0.0000 0.0000 0.0000
# 4 0.0000 0.0000 0.0000 22.6294 0.0000 0.0000
# 5 0.0000 0.0000 0.0000 0.0000 22.6294 0.0000
# 6 0.0000 0.0000 0.0000 0.0000 0.0000 45.3190
#
#
#
# Elastic Compliance Matrix: (Units=1/GPa)
#
#
# Indices 1 2 3 4 5 6 
#
# 1 0.009289 -0.004011 -0.002549 0.000000 0.000000 0.000000
# 2 -0.004011 0.009289 -0.002549 0.000000 0.000000 0.000000
# 3 -0.002549 -0.002549 0.008268 0.000000 0.000000 0.000000
# 4 0.000000 0.000000 0.000000 0.044190 0.000000 0.000000
# 5 0.000000 0.000000 0.000000 0.000000 0.044190 0.000000
# 6 0.000000 0.000000 0.000000 0.000000 0.000000 0.022066
#
#
# Mechanical properties :
#
#
# Convention : Reuss Voigt Hill
#
# Bulk Modulus (GPa) = 115.92376 116.08761 116.00568
# Shear Modulus (GPa) = 31.56868 35.02033 33.29451
#
# Velocity S-wave (km/s) = 3.61424 3.80671 3.71172
# Velocity P-wave (km/s) = 8.08609 8.20713 8.14684
#
# Compressibility (1/GPa) = 0.00862636
#
# Stress axis : x y z
#
# Youngs Moduli (GPa) = 107.65993 107.65995 120.95402
#
# Poissons Ratio (x) = 0.43185 0.30830
# Poissons Ratio (y) = 0.43185 0.30830
# Poissons Ratio (z) = 0.27442 0.27442
#
# Static dielectric constant tensor:
#      x y z
#    x 4.294210 0.000000 0.000000 
#    y 0.000000 4.294210 0.000000 
#    z 0.000000 0.000000 4.332820 
# 
# 
# High freq. dielectric constant tensor:
#      x y z
#    x 1.961330 0.000000 0.000000 
#    y 0.000000 1.961330 0.000000 
#    z 0.000000 0.000000 1.973030 
# 
# From -- ./inp_files/10801.got.cif
#   From: 2010.03.12/outbox.cif.g09.slc.cpg/sg142_6_cif.got.tgz:10801.got - 2010.04.03 13:27:16.
