data_PCOD8321384
_publ_section_title
;
Structure prediction by ZEFSAII (Michael W. Deem and Ramdas Pophale) SiO2 
 PCOD8321384
Probable space group: P 31
;
_chemical_formula_sum "Si O2"
_cell_formula_units_Z 24
_cell_length_a 11.930898
_cell_length_b 11.930898
_cell_length_c 8.031357
_cell_angle_alpha 90.000000
_cell_angle_beta 90.000000
_cell_angle_gamma 120.000000
_cell_volume 990.069834
_symmetry_space_group_name_H-M "P 31"
_symmetry_group_IT_number 144
_symmetry_cell_setting 'hexagonal'
loop_
_space_group_symop_operation_xyz
x,y,z
-y,x-y,1/3+z
-x+y,-x,2/3+z
loop_
_atom_site_type_symbol
_atom_site_label
_atom_site_fract_x
_atom_site_fract_y
_atom_site_fract_z
Si Si1 0.094699 0.069669 0.486950
Si Si2 0.594443 0.268878 0.700977
Si Si3 0.348132 0.745501 0.247008
Si Si4 0.340597 0.226207 0.828053
Si Si5 0.069491 0.676679 0.721439
Si Si6 0.016961 0.517534 0.033619
Si Si7 0.735698 0.770296 0.370743
Si Si8 0.247219 0.351082 0.584538
O O1 0.167177 0.226968 0.462033
O O2 0.992947 0.022984 0.642968
O O3 0.199053 0.024134 0.537305
O O4 0.681796 0.354991 0.550570
O O5 0.452524 0.253463 0.695326
O O6 0.591887 0.135356 0.681288
O O7 0.325107 0.646502 0.400325
O O8 0.499575 0.853828 0.245369
O O9 0.259605 0.814925 0.266567
O O10 0.249738 0.282050 0.757197
O O11 0.257177 0.070625 0.851825
O O12 0.387593 0.304101 0.002260
O O13 0.089708 0.615957 0.885532
O O14 0.113595 0.826451 0.753648
O O15 0.056501 0.408284 0.022049
O O16 0.059049 0.604018 0.199692
#
# Coordination Sequence:
#
# PCOD8321384 Si02
#       8
#     3   3   3   3   3   3   3   3
#     4  11  27  50  78 107 148 200 254 315 372 448
#     4  11  22  43  69  98 135 183 237 292 358 425
#     4  12  25  43  73 108 146 191 238 302 374 447
#     4  10  22  43  68  95 144 187 231 303 356 437
#     4  12  23  42  71 107 138 190 243 295 369 439
#     4  11  25  41  71 103 140 186 237 300 364 443
#     4  10  23  44  73 101 147 191 237 305 377 430
#     4  11  23  48  67 105 148 186 239 304 372 439
#
# _framework density 24.240714000000001
#
# number of rings (size 3 to 8) (size 9 to 14) (size 15 to 20)
#    0.000    1.000    2.500    4.500    3.500    0.000 
#    0.000    0.000    0.000    0.000    0.000    0.000 
#    0.000    0.000    0.000    0.000    0.000    0.000 
#
# Total GULP energy -297394.203315 kJ/mol
# GULP energy per Si atom -12391.425138 kJ/mol
# Density = 2.418554 g / cm^3
# Si number density = 24.240714 Si / 1000 Ang^3
#
#
#
# Elastic Constant Matrix: (Units=GPa)
#
#
# Indices 1 2 3 4 5 6 
#
# 1 113.4935 34.2818 29.3508 1.4520 3.3563 0.0000
# 2 34.2818 113.4935 29.3508 -1.4520 -3.3563 0.0000
# 3 29.3508 29.3508 94.1199 0.0000 0.0000 0.0000
# 4 1.4520 -1.4520 0.0000 27.0684 0.0000 -3.3563
# 5 3.3563 -3.3563 0.0000 0.0000 27.0684 1.4520
# 6 0.0000 0.0000 0.0000 -3.3563 1.4520 39.6058
#
#
#
# Elastic Compliance Matrix: (Units=1/GPa)
#
#
# Indices 1 2 3 4 5 6 
#
# 1 0.010254 -0.002530 -0.002409 -0.000686 -0.001585 0.000000
# 2 -0.002530 0.010254 -0.002409 0.000686 0.001585 0.000000
# 3 -0.002409 -0.002409 0.012127 0.000000 0.000000 0.000000
# 4 -0.000686 0.000686 0.000000 0.037410 0.000000 0.003170
# 5 -0.001585 0.001585 0.000000 0.000000 0.037410 -0.001372
# 6 0.000000 0.000000 0.000000 0.003170 -0.001372 0.025568
#
#
# Mechanical properties :
#
#
# Convention : Reuss Voigt Hill
#
# Bulk Modulus (GPa) = 55.74101 56.34148 56.04125
# Shear Modulus (GPa) = 32.53150 33.95677 33.24413
#
# Velocity S-wave (km/s) = 3.66733 3.74681 3.70728
# Velocity P-wave (km/s) = 6.40134 6.48159 6.44159
#
# Compressibility (1/GPa) = 0.01794011
#
# Stress axis : x y z
#
# Youngs Moduli (GPa) = 97.52437 97.52437 82.46069
#
# Poissons Ratio (x) = 0.24674 0.19862
# Poissons Ratio (y) = 0.24674 0.19862
# Poissons Ratio (z) = 0.23490 0.23490
#
# Static dielectric constant tensor:
#      x y z
#    x 4.541860 0.000000 0.000000 
#    y 0.000000 4.541860 0.000000 
#    z 0.000000 0.000000 4.065470 
# 
# 
# High freq. dielectric constant tensor:
#      x y z
#    x 1.969880 0.000000 0.000000 
#    y 0.000000 1.969880 0.000000 
#    z 0.000000 0.000000 1.943450 
# 
# From -- ./inp_files/407.got.cif
#   From: 2010.03.12/outbox.cif.g09.slc.cpg/sg144_cif.got.tgz:407.got - 2010.04.03 13:34:42.
