data_PCOD8321019
_publ_section_title
;
Structure prediction by ZEFSAII (Michael W. Deem and Ramdas Pophale) SiO2 
 PCOD8321019
Probable space group: I 41/A C D
;
_chemical_formula_sum "Si O2"
_cell_formula_units_Z 120
_cell_length_a 13.935350
_cell_length_b 13.935350
_cell_length_c 29.061833
_cell_angle_alpha 90.000000
_cell_angle_beta 90.000000
_cell_angle_gamma 90.000000
_cell_volume 5643.633005
_symmetry_space_group_name_H-M "I 41/A C D"
_symmetry_group_IT_number 142
_space_group.IT_coordinate_system_code '2'
_symmetry_cell_setting 'tetragonal'
loop_
_space_group_symop_operation_xyz
x,y,z
1/4-y,3/4+x,1/4+z
-x,1/2-y,z
1/4+y,1/4-x,3/4+z
x,-y,1/2-z
1/2-x,y,-z
3/4+y,1/4+x,1/4-z
1/4-y,1/4-x,1/4-z
-x,-y,-z
3/4+y,1/4-x,3/4-z
x,1/2+y,-z
3/4-y,3/4+x,1/4-z
-x,y,1/2+z
1/2+x,-y,z
1/4-y,3/4-x,3/4+z
3/4+y,3/4+x,3/4+z
1/2+x,1/2+y,1/2+z
3/4-y,1/4+x,3/4+z
1/2-x,-y,1/2+z
3/4+y,3/4-x,1/4+z
1/2+x,1/2-y,-z
-x,1/2+y,1/2-z
1/4+y,3/4+x,3/4-z
3/4-y,3/4-x,3/4-z
1/2-x,1/2-y,1/2-z
1/4+y,3/4-x,1/4-z
1/2+x,y,1/2-z
1/4-y,1/4+x,3/4-z
1/2-x,1/2+y,z
x,1/2-y,1/2+z
3/4-y,1/4-x,1/4+z
1/4+y,1/4+x,1/4+z
loop_
_atom_site_type_symbol
_atom_site_label
_atom_site_fract_x
_atom_site_fract_y
_atom_site_fract_z
Si Si1 0.674125 0.775030 0.059643
Si Si2 0.500000 0.750000 0.625000
Si Si3 0.750000 0.870624 0.500000
Si Si4 0.153351 0.274030 0.376467
Si Si5 0.761422 0.078445 0.674711
O O1 0.595186 0.745210 0.095717
O O2 0.664798 0.703623 0.015718
O O3 0.780988 0.754942 0.079242
O O4 0.662545 0.887918 0.047862
O O5 0.773382 0.936473 0.543544
O O6 0.103859 0.176206 0.359832
O O7 0.219981 0.315141 0.335217
O O8 0.775804 0.025804 0.625000
#
# Coordination Sequence:
#
# PCOD8321019 Si02
#       5
#    32   8  16  32  32
#     4  11  24  43  67 102 137 178 237 285 343 428
#     4  12  24  44  72  92 140 186 226 282 368 416
#     4  12  24  42  72 102 138 192 230 290 348 424
#     4  10  19  39  70  94 130 180 229 278 346 410
#     4  10  22  44  68  99 143 181 230 286 350 411
#
# _framework density 21.262898
#
# number of rings (size 3 to 8) (size 9 to 14) (size 15 to 20)
#    0.000    1.333    6.667    0.800    1.867    0.000 
#    4.800    1.333    0.000    0.000    0.000    0.000 
#    0.000    0.000    0.000    0.000    0.000    0.000 
#
# Total GULP energy -743522.798088 kJ/mol
# GULP energy per Si atom -12392.046635 kJ/mol
# Density = 2.121450 g / cm^3
# Si number density = 21.262898 Si / 1000 Ang^3
#
#
#
# Elastic Constant Matrix: (Units=GPa)
#
#
# Indices 1 2 3 4 5 6 
#
# 1 121.8482 65.5667 42.3790 0.0000 0.0000 0.0000
# 2 65.5667 121.8482 42.3790 0.0000 0.0000 0.0000
# 3 42.3790 42.3790 88.8311 0.0000 0.0000 0.0000
# 4 0.0000 0.0000 0.0000 35.2479 0.0000 0.0000
# 5 0.0000 0.0000 0.0000 0.0000 35.2479 0.0000
# 6 0.0000 0.0000 0.0000 0.0000 0.0000 34.3777
#
#
#
# Elastic Compliance Matrix: (Units=1/GPa)
#
#
# Indices 1 2 3 4 5 6 
#
# 1 0.012286 -0.005482 -0.003246 0.000000 0.000000 0.000000
# 2 -0.005482 0.012286 -0.003246 0.000000 0.000000 0.000000
# 3 -0.003246 -0.003246 0.014354 0.000000 0.000000 0.000000
# 4 0.000000 0.000000 0.000000 0.028370 0.000000 0.000000
# 5 0.000000 0.000000 0.000000 0.000000 0.028370 0.000000
# 6 0.000000 0.000000 0.000000 0.000000 0.000000 0.029089
#
#
# Mechanical properties :
#
#
# Convention : Reuss Voigt Hill
#
# Bulk Modulus (GPa) = 66.76333 70.35298 68.55816
# Shear Modulus (GPa) = 32.53181 33.12158 32.82669
#
# Velocity S-wave (km/s) = 3.91574 3.95107 3.93345
# Velocity P-wave (km/s) = 7.20494 7.34668 7.27615
#
# Compressibility (1/GPa) = 0.01497828
#
# Stress axis : x y z
#
# Youngs Moduli (GPa) = 81.39503 81.39503 69.66527
#
# Poissons Ratio (x) = 0.44621 0.22612
# Poissons Ratio (y) = 0.44621 0.22612
# Poissons Ratio (z) = 0.26420 0.26420
#
# Static dielectric constant tensor:
#      x y z
#    x 4.092660 0.000000 0.000000 
#    y 0.000000 4.092660 0.000000 
#    z 0.000000 0.000000 4.415420 
# 
# 
# High freq. dielectric constant tensor:
#      x y z
#    x 1.843300 0.000000 0.000000 
#    y 0.000000 1.843300 0.000000 
#    z 0.000000 0.000000 1.808950 
# 
# From -- ./inp_files/12265.got.cif
#   From: 2010.03.12/outbox.cif.g09.slc.cpg/sg142_7_cif.got.tgz:12265.got - 2010.04.03 13:27:16.
