data_PCOD8321304
_publ_section_title
;
Structure prediction by ZEFSAII (Michael W. Deem and Ramdas Pophale) SiO2 
 PCOD8321304
Probable space group: I 41/A C D
;
_chemical_formula_sum "Si O2"
_cell_formula_units_Z 88
_cell_length_a 13.493078
_cell_length_b 13.493078
_cell_length_c 19.776432
_cell_angle_alpha 90.000000
_cell_angle_beta 90.000000
_cell_angle_gamma 90.000000
_cell_volume 3600.559583
_symmetry_space_group_name_H-M "I 41/A C D"
_symmetry_group_IT_number 142
_space_group.IT_coordinate_system_code '2'
_symmetry_cell_setting 'tetragonal'
loop_
_space_group_symop_operation_xyz
x,y,z
1/4-y,3/4+x,1/4+z
-x,1/2-y,z
1/4+y,1/4-x,3/4+z
x,-y,1/2-z
1/2-x,y,-z
3/4+y,1/4+x,1/4-z
1/4-y,1/4-x,1/4-z
-x,-y,-z
3/4+y,1/4-x,3/4-z
x,1/2+y,-z
3/4-y,3/4+x,1/4-z
-x,y,1/2+z
1/2+x,-y,z
1/4-y,3/4-x,3/4+z
3/4+y,3/4+x,3/4+z
1/2+x,1/2+y,1/2+z
3/4-y,1/4+x,3/4+z
1/2-x,-y,1/2+z
3/4+y,3/4-x,1/4+z
1/2+x,1/2-y,-z
-x,1/2+y,1/2-z
1/4+y,3/4+x,3/4-z
3/4-y,3/4-x,3/4-z
1/2-x,1/2-y,1/2-z
1/4+y,3/4-x,1/4-z
1/2+x,y,1/2-z
1/4-y,1/4+x,3/4-z
1/2-x,1/2+y,z
x,1/2-y,1/2+z
3/4-y,1/4-x,1/4+z
1/4+y,1/4+x,1/4+z
loop_
_atom_site_type_symbol
_atom_site_label
_atom_site_fract_x
_atom_site_fract_y
_atom_site_fract_z
Si Si1 0.446444 0.000000 0.750000
Si Si2 0.500000 0.750000 0.375000
Si Si3 0.385513 0.023784 0.012097
Si Si4 0.179587 0.362352 0.913962
O O1 0.382968 0.100640 0.762075
O O2 0.516101 0.007061 0.684514
O O3 0.417347 0.812382 0.334518
O O4 0.355863 0.023716 0.091867
O O5 0.315888 0.948735 0.969880
O O6 0.500000 0.000000 0.000000
#
# Coordination Sequence:
#
# PCOD8321304 Si02
#       4
#    16   8  32  32
#     4  12  26  44  74 114 152 200 256 320 390 456
#     4  12  20  52  72 110 152 208 248 326 392 444
#     4  12  25  47  77 111 152 204 258 314 389 464
#     4  12  25  46  78 109 158 202 256 323 386 462
#
# _framework density 24.440646000000001
#
# number of rings (size 3 to 8) (size 9 to 14) (size 15 to 20)
#    0.000    0.000    7.273    1.091    0.000   10.182 
#    0.000    0.000    0.000   15.273    0.000    0.000 
#    0.000    0.000    0.000    0.000    0.000    0.000 
#
# Total GULP energy -545128.154141 kJ/mol
# GULP energy per Si atom -12389.276230 kJ/mol
# Density = 2.438502 g / cm^3
# Si number density = 24.440646 Si / 1000 Ang^3
#
#
#
# Elastic Constant Matrix: (Units=GPa)
#
#
# Indices 1 2 3 4 5 6 
#
# 1 120.5320 30.7589 105.2857 0.0000 0.0000 0.0000
# 2 30.7589 120.5320 105.2857 0.0000 0.0000 0.0000
# 3 105.2857 105.2857 180.2490 0.0000 0.0000 0.0000
# 4 0.0000 0.0000 0.0000 46.5767 0.0000 0.0000
# 5 0.0000 0.0000 0.0000 0.0000 46.5767 0.0000
# 6 0.0000 0.0000 0.0000 0.0000 0.0000 47.6150
#
#
#
# Elastic Compliance Matrix: (Units=1/GPa)
#
#
# Indices 1 2 3 4 5 6 
#
# 1 0.023241 0.012102 -0.020645 0.000000 0.000000 0.000000
# 2 0.012102 0.023241 -0.020645 0.000000 0.000000 0.000000
# 3 -0.020645 -0.020645 0.029666 0.000000 0.000000 0.000000
# 4 0.000000 0.000000 0.000000 0.021470 0.000000 0.000000
# 5 0.000000 0.000000 0.000000 0.000000 0.021470 0.000000
# 6 0.000000 0.000000 0.000000 0.000000 0.000000 0.021002
#
#
# Mechanical properties :
#
#
# Convention : Reuss Voigt Hill
#
# Bulk Modulus (GPa) = 56.26142 100.44150 78.35146
# Shear Modulus (GPa) = 24.46313 40.15254 32.30783
#
# Velocity S-wave (km/s) = 3.16716 4.05762 3.63972
# Velocity P-wave (km/s) = 6.03690 7.94592 7.05627
#
# Compressibility (1/GPa) = 0.01777417
#
# Stress axis : x y z
#
# Youngs Moduli (GPa) = 43.02654 43.02654 33.70913
#
# Poissons Ratio (x) = -0.52072 0.69592
# Poissons Ratio (y) = -0.52072 0.69592
# Poissons Ratio (z) = 0.88827 0.88827
#
# Static dielectric constant tensor:
#      x y z
#    x 4.647080 0.000000 0.000000 
#    y 0.000000 4.647080 0.000000 
#    z 0.000000 0.000000 4.512690 
# 
# 
# High freq. dielectric constant tensor:
#      x y z
#    x 1.987030 0.000000 0.000000 
#    y 0.000000 1.987030 0.000000 
#    z 0.000000 0.000000 1.964680 
# 
# From -- ./inp_files/11979.got.cif
#   From: 2010.03.12/outbox.cif.g09.slc.cpg/sg142_6_cif.got.tgz:11979.got - 2010.04.03 13:27:16.
