data_PCOD8321763
_publ_section_title
;
Structure prediction by ZEFSAII (Michael W. Deem and Ramdas Pophale) SiO2 
 PCOD8321763
Probable space group: R -3
;
_chemical_formula_sum "Si O2"
_cell_formula_units_Z 108
_cell_length_a 17.291634
_cell_length_b 17.291634
_cell_length_c 21.761523
_cell_angle_alpha 90.000000
_cell_angle_beta 90.000000
_cell_angle_gamma 120.000000
_cell_volume 5634.974919
_symmetry_space_group_name_H-M "R -3"
_symmetry_group_IT_number 148
_symmetry_cell_setting 'hexagonal'
loop_
_space_group_symop_operation_xyz
x,y,z
-y,x-y,z
-x+y,-x,z
-x,-y,-z
y,-x+y,-z
x-y,x,-z
2/3+x,1/3+y,1/3+z
2/3-y,1/3+x-y,1/3+z
2/3-x+y,1/3-x,1/3+z
2/3-x,1/3-y,1/3-z
2/3+y,1/3-x+y,1/3-z
2/3+x-y,1/3+x,1/3-z
1/3+x,2/3+y,2/3+z
1/3-y,2/3+x-y,2/3+z
1/3-x+y,2/3-x,2/3+z
1/3-x,2/3-y,2/3-z
1/3+y,2/3-x+y,2/3-z
1/3+x-y,2/3+x,2/3-z
loop_
_atom_site_type_symbol
_atom_site_label
_atom_site_fract_x
_atom_site_fract_y
_atom_site_fract_z
Si Si1 0.001053 0.351433 0.215370
Si Si2 0.125448 0.510181 0.018788
Si Si3 0.240721 0.262121 0.326797
Si Si4 0.324029 0.491165 0.447859
Si Si5 0.827085 0.835532 0.480371
Si Si6 0.985489 0.808091 0.198913
O O1 0.019446 0.387866 0.286421
O O2 0.022171 0.272019 0.204175
O O3 0.063286 0.430067 0.169671
O O4 0.900294 0.319252 0.193979
O O5 0.174859 0.492098 0.074860
O O6 0.022473 0.437168 0.025653
O O7 0.132412 0.607179 0.021358
O O8 0.173735 0.502313 0.958452
O O9 0.247458 0.216340 0.263114
O O10 0.235144 0.491108 0.468468
O O11 0.411120 0.570455 0.479925
O O12 0.902562 0.833024 0.518738
#
# Coordination Sequence:
#
# PCOD8321763 Si02
#       6
#    18  18  18  18  18  18
#     4  11  21  38  58  82 115 152 201 240 287 349
#     4   9  18  35  53  79 115 147 190 228 286 346
#     4   9  18  35  56  83 108 148 192 239 283 342
#     4  10  23  37  59  86 115 153 195 248 291 353
#     4  12  23  34  51  81 117 155 186 231 287 349
#     4  11  21  39  61  87 120 155 199 245 302 352
#
# _framework density 19.166011999999998
#
# number of rings (size 3 to 8) (size 9 to 14) (size 15 to 20)
#    0.000    1.667    3.333    3.000    2.333    0.000 
#    0.000    0.000    0.000    0.000    0.000    0.000 
#    0.000    4.000    0.000    0.000    0.000    0.000 
#
# Total GULP energy -446211.770385 kJ/mol
# GULP energy per Si atom -12394.771400 kJ/mol
# Density = 1.912239 g / cm^3
# Si number density = 19.166012 Si / 1000 Ang^3
#
#
#
# Elastic Constant Matrix: (Units=GPa)
#
#
# Indices 1 2 3 4 5 6 
#
# 1 73.7335 14.6080 20.9983 4.3381 1.9668 0.0000
# 2 14.6080 73.7335 20.9983 -4.3381 -1.9668 0.0000
# 3 20.9983 20.9983 92.1818 0.0000 0.0000 0.0000
# 4 4.3381 -4.3381 0.0000 29.8503 0.0000 -1.9668
# 5 1.9668 -1.9668 0.0000 0.0000 29.8503 4.3381
# 6 0.0000 0.0000 0.0000 -1.9668 4.3381 29.5627
#
#
#
# Elastic Compliance Matrix: (Units=1/GPa)
#
#
# Indices 1 2 3 4 5 6 
#
# 1 0.015027 -0.002333 -0.002892 -0.002523 -0.001144 0.000000
# 2 -0.002333 0.015027 -0.002892 0.002523 0.001144 0.000000
# 3 -0.002892 -0.002892 0.012166 0.000000 0.000000 0.000000
# 4 -0.002523 0.002523 0.000000 0.034385 0.000000 0.002288
# 5 -0.001144 0.001144 0.000000 0.000000 0.034385 -0.005046
# 6 0.000000 0.000000 0.000000 0.002288 -0.005046 0.034719
#
#
# Mechanical properties :
#
#
# Convention : Reuss Voigt Hill
#
# Bulk Modulus (GPa) = 38.47994 39.20645 38.84319
# Shear Modulus (GPa) = 29.30799 30.05558 29.68179
#
# Velocity S-wave (km/s) = 3.91470 3.96431 3.93958
# Velocity P-wave (km/s) = 6.36819 6.43855 6.40347
#
# Compressibility (1/GPa) = 0.02598757
#
# Stress axis : x y z
#
# Youngs Moduli (GPa) = 66.54712 66.54712 82.19939
#
# Poissons Ratio (x) = 0.15522 0.23770
# Poissons Ratio (y) = 0.15522 0.23770
# Poissons Ratio (z) = 0.19243 0.19243
#
# Static dielectric constant tensor:
#      x y z
#    x 3.360160 0.000000 0.000000 
#    y 0.000000 3.360160 0.000000 
#    z 0.000000 0.000000 3.964850 
# 
# 
# High freq. dielectric constant tensor:
#      x y z
#    x 1.734430 0.000000 0.000000 
#    y 0.000000 1.734430 0.000000 
#    z 0.000000 0.000000 1.740520 
# 
# From -- ./inp_files/3088.got.cif
#   From: 2010.03.12/outbox.cif.g09.slc.cpg/sg148_2_cif.got.tgz:3088.got - 2010.04.03 13:38:46.
