data_PCOD8321701
_publ_section_title
;
Structure prediction by ZEFSAII (Michael W. Deem and Ramdas Pophale) SiO2 
 PCOD8321701
Probable space group: R -3
;
_chemical_formula_sum "Si O2"
_cell_formula_units_Z 108
_cell_length_a 22.694778
_cell_length_b 22.694778
_cell_length_c 13.424253
_cell_angle_alpha 90.000000
_cell_angle_beta 90.000000
_cell_angle_gamma 120.000000
_cell_volume 5987.873790
_symmetry_space_group_name_H-M "R -3"
_symmetry_group_IT_number 148
_symmetry_cell_setting 'hexagonal'
loop_
_space_group_symop_operation_xyz
x,y,z
-y,x-y,z
-x+y,-x,z
-x,-y,-z
y,-x+y,-z
x-y,x,-z
2/3+x,1/3+y,1/3+z
2/3-y,1/3+x-y,1/3+z
2/3-x+y,1/3-x,1/3+z
2/3-x,1/3-y,1/3-z
2/3+y,1/3-x+y,1/3-z
2/3+x-y,1/3+x,1/3-z
1/3+x,2/3+y,2/3+z
1/3-y,2/3+x-y,2/3+z
1/3-x+y,2/3-x,2/3+z
1/3-x,2/3-y,2/3-z
1/3+y,2/3-x+y,2/3-z
1/3+x-y,2/3+x,2/3-z
loop_
_atom_site_type_symbol
_atom_site_label
_atom_site_fract_x
_atom_site_fract_y
_atom_site_fract_z
Si Si1 0.178896 0.417808 0.251995
Si Si2 0.256912 0.407339 0.862283
Si Si3 0.538754 0.933486 0.764082
Si Si4 0.864767 0.587177 0.201683
Si Si5 0.425627 0.929069 0.885951
Si Si6 0.271835 0.417013 0.088588
O O1 0.117576 0.340121 0.248585
O O2 0.223589 0.436480 0.352666
O O3 0.228737 0.437855 0.158755
O O4 0.144816 0.463801 0.243270
O O5 0.335959 0.453731 0.837695
O O6 0.215699 0.439655 0.809099
O O7 0.235103 0.330982 0.826266
O O8 0.241119 0.405796 0.978553
O O9 0.546288 0.915659 0.650838
O O10 0.465082 0.925263 0.787823
O O11 0.596570 0.011194 0.790582
O O12 0.888855 0.543612 0.136424
#
# Coordination Sequence:
#
# PCOD8321701 Si02
#       6
#    18  18  18  18  18  18
#     4  10  21  36  55  82 112 147 189 224 279 332
#     4  10  20  36  52  82 114 141 185 228 280 332
#     4  10  19  36  56  79 114 144 180 231 282 335
#     4  10  21  33  55  83 109 148 181 224 281 337
#     4  10  20  36  55  82 112 147 184 225 275 340
#     4  10  21  35  56  80 111 148 184 234 278 332
#
# _framework density 18.036452000000001
#
# number of rings (size 3 to 8) (size 9 to 14) (size 15 to 20)
#    0.000    2.000    1.667    2.000    2.333    1.333 
#    0.000    0.000    0.000    1.000    4.333    2.333 
#    0.000    0.000    0.000    0.000    0.000    0.000 
#
# Total GULP energy -446382.567003 kJ/mol
# GULP energy per Si atom -12399.515750 kJ/mol
# Density = 1.799540 g / cm^3
# Si number density = 18.036452 Si / 1000 Ang^3
#
#
#
# Elastic Constant Matrix: (Units=GPa)
#
#
# Indices 1 2 3 4 5 6 
#
# 1 99.0789 49.5132 37.7079 -0.1661 0.0699 0.0000
# 2 49.5132 99.0789 37.7079 0.1661 -0.0699 0.0000
# 3 37.7079 37.7079 78.8530 0.0000 0.0000 0.0000
# 4 -0.1661 0.1661 0.0000 29.6681 0.0000 -0.0699
# 5 0.0699 -0.0699 0.0000 0.0000 29.6681 -0.1661
# 6 0.0000 0.0000 0.0000 -0.0699 -0.1661 24.7828
#
#
#
# Elastic Compliance Matrix: (Units=1/GPa)
#
#
# Indices 1 2 3 4 5 6 
#
# 1 0.014531 -0.005645 -0.004250 0.000113 -0.000048 0.000000
# 2 -0.005645 0.014531 -0.004250 -0.000113 0.000048 0.000000
# 3 -0.004250 -0.004250 0.016746 0.000000 0.000000 0.000000
# 4 0.000113 -0.000113 0.000000 0.033708 0.000000 0.000095
# 5 -0.000048 0.000048 0.000000 0.000000 0.033708 0.000226
# 6 0.000000 0.000000 0.000000 0.000095 0.000226 0.040352
#
#
# Mechanical properties :
#
#
# Convention : Reuss Voigt Hill
#
# Bulk Modulus (GPa) = 57.07445 58.54100 57.80773
# Shear Modulus (GPa) = 26.63751 26.96259 26.80005
#
# Velocity S-wave (km/s) = 3.84718 3.87058 3.85890
# Velocity P-wave (km/s) = 7.17266 7.24588 7.20936
#
# Compressibility (1/GPa) = 0.01752098
#
# Stress axis : x y z
#
# Youngs Moduli (GPa) = 68.81640 68.81640 59.71481
#
# Poissons Ratio (x) = 0.38845 0.25377
# Poissons Ratio (y) = 0.38845 0.25377
# Poissons Ratio (z) = 0.29245 0.29245
#
# Static dielectric constant tensor:
#      x y z
#    x 3.143110 0.000000 0.000000 
#    y 0.000000 3.143110 0.000000 
#    z 0.000000 0.000000 3.410870 
# 
# 
# High freq. dielectric constant tensor:
#      x y z
#    x 1.681660 0.000000 0.000000 
#    y 0.000000 1.681660 0.000000 
#    z 0.000000 0.000000 1.712030 
# 
# From -- ./inp_files/1531.got.cif
#   From: 2010.03.12/outbox.cif.g09.slc.cpg/sg148_1_cif.got.tgz:1531.got - 2010.04.03 13:38:46.
