data_PCOD8321788
_publ_section_title
;
Structure prediction by ZEFSAII (Michael W. Deem and Ramdas Pophale) SiO2 
 PCOD8321788
Probable space group: R -3
;
_chemical_formula_sum "Si O2"
_cell_formula_units_Z 126
_cell_length_a 20.570224
_cell_length_b 20.570224
_cell_length_c 16.564377
_cell_angle_alpha 90.000000
_cell_angle_beta 90.000000
_cell_angle_gamma 120.000000
_cell_volume 6069.931360
_symmetry_space_group_name_H-M "R -3"
_symmetry_group_IT_number 148
_symmetry_cell_setting 'hexagonal'
loop_
_space_group_symop_operation_xyz
x,y,z
-y,x-y,z
-x+y,-x,z
-x,-y,-z
y,-x+y,-z
x-y,x,-z
2/3+x,1/3+y,1/3+z
2/3-y,1/3+x-y,1/3+z
2/3-x+y,1/3-x,1/3+z
2/3-x,1/3-y,1/3-z
2/3+y,1/3-x+y,1/3-z
2/3+x-y,1/3+x,1/3-z
1/3+x,2/3+y,2/3+z
1/3-y,2/3+x-y,2/3+z
1/3-x+y,2/3-x,2/3+z
1/3-x,2/3-y,2/3-z
1/3+y,2/3-x+y,2/3-z
1/3+x-y,2/3+x,2/3-z
loop_
_atom_site_type_symbol
_atom_site_label
_atom_site_fract_x
_atom_site_fract_y
_atom_site_fract_z
Si Si1 0.244004 0.822283 0.520862
Si Si2 0.615632 0.647331 0.979714
Si Si3 0.947873 0.792914 0.246162
Si Si4 0.113144 0.373127 0.691902
Si Si5 0.742302 0.593735 0.793070
Si Si6 0.032904 0.818720 0.396684
Si Si7 0.653320 0.518514 0.513212
O O1 0.331731 0.864295 0.496156
O O2 0.232760 0.830762 0.615742
O O3 0.202811 0.857395 0.469350
O O4 0.207213 0.734850 0.498065
O O5 0.596798 0.561948 0.970497
O O6 0.595518 0.675708 0.898720
O O7 0.702758 0.702290 0.998144
O O8 0.567214 0.648552 0.055699
O O9 0.900190 0.706033 0.274092
O O10 0.893313 0.824926 0.223735
O O11 0.998530 0.841891 0.321950
O O12 0.151127 0.434710 0.760695
O O13 0.773895 0.537953 0.772695
O O14 0.699297 0.568229 0.876680
#
# Coordination Sequence:
#
# PCOD8321788 Si02
#       7
#    18  18  18  18  18  18  18
#     4  12  24  44  68  99 137 178 230 277 341 399
#     4  11  21  38  67  97 136 174 215 276 338 409
#     4  11  25  45  62  98 137 177 217 285 333 406
#     4  11  24  41  68 101 138 170 221 288 340 400
#     4  12  22  40  66 101 135 177 225 277 343 402
#     4  11  23  39  65  95 138 173 217 279 336 403
#     4  12  27  40  70  98 133 186 222 275 342 406
#
# _framework density 20.758058999999999
#
# number of rings (size 3 to 8) (size 9 to 14) (size 15 to 20)
#    0.000    0.571    7.143    3.429    6.000    0.000 
#    0.857    0.000    0.000    1.143    0.000    0.000 
#    0.000    0.000    0.000    0.000    0.000    0.000 
#
# Total GULP energy -520974.591536 kJ/mol
# GULP energy per Si atom -12404.156941 kJ/mol
# Density = 2.071081 g / cm^3
# Si number density = 20.758059 Si / 1000 Ang^3
#
#
#
# Elastic Constant Matrix: (Units=GPa)
#
#
# Indices 1 2 3 4 5 6 
#
# 1 97.7842 40.8765 41.6969 -6.7466 7.0667 0.0000
# 2 40.8765 97.7842 41.6969 6.7466 -7.0667 0.0000
# 3 41.6969 41.6969 122.2792 0.0000 0.0000 0.0000
# 4 -6.7466 6.7466 0.0000 22.3943 0.0000 -7.0667
# 5 7.0667 -7.0667 0.0000 0.0000 22.3943 -6.7466
# 6 0.0000 0.0000 0.0000 -7.0667 -6.7466 28.4538
#
#
#
# Elastic Compliance Matrix: (Units=1/GPa)
#
#
# Indices 1 2 3 4 5 6 
#
# 1 0.014870 -0.005798 -0.003094 0.006227 -0.006522 0.000000
# 2 -0.005798 0.014870 -0.003094 -0.006227 0.006522 0.000000
# 3 -0.003094 -0.003094 0.010288 0.000000 0.000000 0.000000
# 4 0.006227 -0.006227 0.000000 0.052522 0.000000 0.013044
# 5 -0.006522 0.006522 0.000000 0.000000 0.052522 0.012453
# 6 0.000000 0.000000 0.000000 0.013044 0.012453 0.041337
#
#
# Mechanical properties :
#
#
# Convention : Reuss Voigt Hill
#
# Bulk Modulus (GPa) = 62.27396 62.93198 62.60297
# Shear Modulus (GPa) = 23.17678 27.55366 25.36522
#
# Velocity S-wave (km/s) = 3.34506 3.64726 3.49943
# Velocity P-wave (km/s) = 6.70703 6.93682 6.82289
#
# Compressibility (1/GPa) = 0.01605808
#
# Stress axis : x y z
#
# Youngs Moduli (GPa) = 67.24737 67.24737 97.20176
#
# Poissons Ratio (x) = 0.38990 0.30071
# Poissons Ratio (y) = 0.38990 0.30071
# Poissons Ratio (z) = 0.20804 0.20804
#
# Static dielectric constant tensor:
#      x y z
#    x 3.534840 0.000000 0.000000 
#    y 0.000000 3.534840 0.000000 
#    z 0.000000 0.000000 3.986230 
# 
# 
# High freq. dielectric constant tensor:
#      x y z
#    x 1.790060 0.000000 0.000000 
#    y 0.000000 1.790060 0.000000 
#    z 0.000000 0.000000 1.836670 
# 
# From -- ./inp_files/2763.got.cif
#   From: 2010.03.12/outbox.cif.g09.slc.cpg/sg148_2_cif.got.tgz:2763.got - 2010.04.03 13:38:46.
