data_PCOD8321503
_publ_section_title
;
Structure prediction by ZEFSAII (Michael W. Deem and Ramdas Pophale) SiO2 
 PCOD8321503
Probable space group: R 3
;
_chemical_formula_sum "Si O2"
_cell_formula_units_Z 51
_cell_length_a 21.165882
_cell_length_b 21.165882
_cell_length_c 8.128024
_cell_angle_alpha 90.000000
_cell_angle_beta 90.000000
_cell_angle_gamma 120.000000
_cell_volume 3153.467433
_symmetry_space_group_name_H-M "R 3"
_symmetry_group_IT_number 146
_symmetry_cell_setting 'hexagonal'
loop_
_space_group_symop_operation_xyz
x,y,z
-y,x-y,z
-x+y,-x,z
2/3+x,1/3+y,1/3+z
2/3-y,1/3+x-y,1/3+z
2/3-x+y,1/3-x,1/3+z
1/3+x,2/3+y,2/3+z
1/3-y,2/3+x-y,2/3+z
1/3-x+y,2/3-x,2/3+z
loop_
_atom_site_type_symbol
_atom_site_label
_atom_site_fract_x
_atom_site_fract_y
_atom_site_fract_z
Si Si1 0.000000 0.000000 0.669975
Si Si2 0.266592 0.527997 0.920284
Si Si3 0.256890 0.923544 0.192775
Si Si4 0.952831 0.419248 0.518005
Si Si5 0.419248 0.952806 0.200858
Si Si6 0.000000 0.000000 0.048800
Si Si7 0.194666 0.599954 0.131829
O O1 0.917518 0.969263 0.613188
O O2 0.000000 0.000000 0.859386
O O3 0.215019 0.448095 0.848165
O O4 0.302567 0.584180 0.772253
O O5 0.217199 0.550545 0.026062
O O6 0.333319 0.531751 0.026048
O O7 0.334839 0.929481 0.215441
O O8 0.211600 0.884029 0.358454
O O9 0.262886 0.001518 0.170091
O O10 0.217356 0.878259 0.027099
O O11 0.000018 0.462011 0.359444
O O12 0.433630 0.885237 0.203960
#
# Coordination Sequence:
#
# PCOD8321503 Si02
#       7
#     3   9   9   9   9   3   9
#     4   9  19  32  49  78 100 143 187 219 256 314
#     4   9  18  34  51  69 112 148 170 217 273 322
#     4  10  18  28  46  78 110 142 154 216 276 314
#     4  11  18  31  49  78 113 133 175 212 272 332
#     4  11  18  31  49  78 113 133 175 212 272 332
#     4   9  19  32  49  78 100 143 187 219 256 314
#     4   9  18  34  51  69 112 148 170 217 273 322
#
# _framework density 16.172673
#
# number of rings (size 3 to 8) (size 9 to 14) (size 15 to 20)
#    0.000    2.118    7.059    1.412    0.000    2.824 
#    0.000    0.000    0.000    0.000    0.000    2.471 
#    0.000    0.000    0.000    0.000    0.000    0.000 
#
# Total GULP energy -210692.170558 kJ/mol
# GULP energy per Si atom -12393.657092 kJ/mol
# Density = 1.613586 g / cm^3
# Si number density = 16.172673 Si / 1000 Ang^3
#
#
#
# Elastic Constant Matrix: (Units=GPa)
#
#
# Indices 1 2 3 4 5 6 
#
# 1 89.0746 49.8859 53.5136 -3.9565 0.0308 0.0041
# 2 49.8859 89.0531 53.4877 3.9560 -0.0035 0.0016
# 3 53.5136 53.4877 164.0530 0.0014 0.0387 0.0070
# 4 -3.9565 3.9560 0.0014 16.7856 -0.0013 -0.0031
# 5 0.0308 -0.0035 0.0387 -0.0013 16.8133 -3.9488
# 6 0.0041 0.0016 0.0070 -0.0031 -3.9488 19.5850
#
#
#
# Elastic Compliance Matrix: (Units=1/GPa)
#
#
# Indices 1 2 3 4 5 6 
#
# 1 0.018205 -0.008595 -0.003136 0.006317 -0.000029 -0.000007
# 2 -0.008595 0.018206 -0.003132 -0.006316 0.000028 0.000006
# 3 -0.003136 -0.003132 0.008140 -0.000002 -0.000015 -0.000005
# 4 0.006317 -0.006316 -0.000002 0.062552 -0.000006 0.000008
# 5 -0.000029 0.000028 -0.000015 -0.000006 0.062433 0.012588
# 6 -0.000007 0.000006 -0.000005 0.000008 0.012588 0.053597
#
#
# Mechanical properties :
#
#
# Convention : Reuss Voigt Hill
#
# Bulk Modulus (GPa) = 67.45807 72.88390 70.17098
# Shear Modulus (GPa) = 19.39480 22.98970 21.19225
#
# Velocity S-wave (km/s) = 3.46675 3.77439 3.62384
# Velocity P-wave (km/s) = 7.60435 8.00991 7.80976
#
# Compressibility (1/GPa) = 0.01482402
#
# Stress axis : x y z
#
# Youngs Moduli (GPa) = 54.93058 54.92752 122.85367
#
# Poissons Ratio (x) = 0.47210 0.38528
# Poissons Ratio (y) = 0.47213 0.38479
# Poissons Ratio (z) = 0.17227 0.17204
#
# Static dielectric constant tensor:
#      x y z
#    x 2.713120 -0.000080 0.000270 
#    y -0.000080 2.713280 0.000050 
#    z 0.000270 0.000050 3.545800 
# 
# 
# High freq. dielectric constant tensor:
#      x y z
#    x 1.592370 0.000000 0.000000 
#    y 0.000000 1.592370 0.000000 
#    z 0.000000 0.000000 1.635900 
# 
# From -- ./inp_files/735.got.cif
#   From: 2010.06.25/outbox.cif.g09.slc.cpg/sg146_cif.got.tgz:735.got - 2010.06.28 11:17:22.
