data_PCOD8321968
_publ_section_title
;
Structure prediction by ZEFSAII (Michael W. Deem and Ramdas Pophale) SiO2 
 PCOD8321968
Probable space group: P 31 1 2
;
_chemical_formula_sum "Si O2"
_cell_formula_units_Z 36
_cell_length_a 8.841390
_cell_length_b 8.841390
_cell_length_c 26.145567
_cell_angle_alpha 90.000000
_cell_angle_beta 90.000000
_cell_angle_gamma 120.000000
_cell_volume 1769.985841
_symmetry_space_group_name_H-M "P 31 1 2"
_symmetry_group_IT_number 151
_symmetry_cell_setting 'hexagonal'
loop_
_space_group_symop_operation_xyz
x,y,z
-y,x-y,1/3+z
-x+y,-x,2/3+z
-y,-x,2/3-z
-x+y,y,1/3-z
x,x-y,-z
loop_
_atom_site_type_symbol
_atom_site_label
_atom_site_fract_x
_atom_site_fract_y
_atom_site_fract_z
Si Si1 0.205910 0.124911 0.731166
Si Si2 0.869314 0.741143 0.277462
Si Si3 0.529286 0.066415 0.225436
Si Si4 0.633358 0.454729 0.613410
Si Si5 0.213104 0.412853 0.055919
Si Si6 0.254731 0.791133 0.604955
O O1 0.221415 0.117823 0.670663
O O2 0.380334 0.275543 0.755877
O O3 0.046903 0.154212 0.748573
O O4 0.175943 0.937510 0.750009
O O5 0.830693 0.547500 0.268364
O O6 0.711036 0.752918 0.249810
O O7 0.505257 0.010514 0.166667
O O8 0.714824 0.239851 0.233566
O O9 0.526052 0.915872 0.259580
O O10 0.723803 0.447605 0.666667
O O11 0.592867 0.610360 0.610346
O O12 0.223841 0.581742 0.083995
O O13 0.171213 0.437549 0.998261
#
# Coordination Sequence:
#
# PCOD8321968 Si02
#       6
#     6   6   6   6   6   6
#     4  10  20  37  60  93 122 157 200 256 306 354
#     4  10  20  35  65  92 119 151 209 262 297 348
#     4  12  25  41  59  89 130 165 198 250 319 380
#     4  12  21  37  61  91 121 162 207 253 299 361
#     4  10  20  35  65  92 119 148 209 260 292 347
#     4  10  20  37  60  93 119 155 199 252 306 356
#
# _framework density 20.339143
#
# number of rings (size 3 to 8) (size 9 to 14) (size 15 to 20)
#    0.000    1.333    3.333    3.000    4.667    2.667 
#    0.000   10.000    0.000    0.000    0.000    0.000 
#    0.000    0.000    0.000    0.000    0.000    0.000 
#
# Total GULP energy -446228.834114 kJ/mol
# GULP energy per Si atom -12395.245392 kJ/mol
# Density = 2.029285 g / cm^3
# Si number density = 20.339143 Si / 1000 Ang^3
#
#
#
# Elastic Constant Matrix: (Units=GPa)
#
#
# Indices 1 2 3 4 5 6 
#
# 1 125.9549 49.5151 11.1382 0.0016 9.4089 0.0000
# 2 49.5151 125.9549 11.1382 -0.0016 -9.4089 0.0000
# 3 11.1382 11.1382 24.8035 0.0000 0.0000 0.0000
# 4 0.0016 -0.0016 0.0000 1.4172 0.0000 -9.4089
# 5 9.4089 -9.4089 0.0000 0.0000 1.4172 0.0016
# 6 0.0000 0.0000 0.0000 -9.4089 0.0016 38.2199
#
#
#
# Elastic Compliance Matrix: (Units=1/GPa)
#
#
# Indices 1 2 3 4 5 6 
#
# 1 -0.007289 0.013332 -0.002714 0.000023 0.136907 0.000000
# 2 0.013332 -0.007289 -0.002714 -0.000023 -0.136907 0.000000
# 3 -0.002714 -0.002714 0.042754 0.000000 0.000000 0.000000
# 4 0.000023 -0.000023 0.000000 -1.112262 0.000000 -0.273813
# 5 0.136907 -0.136907 0.000000 0.000000 -1.112262 0.000047
# 6 0.000000 0.000000 0.000000 -0.273813 0.000047 -0.041242
#
#
# Mechanical properties :
#
#
# Convention : Reuss Voigt Hill
#
# Bulk Modulus (GPa) = 22.73462 46.69960 34.71711
# Shear Modulus (GPa) = -2.23340 21.87230 9.81945
#
# Velocity S-wave (km/s) = -1.04903 3.28286 2.19962
# Velocity P-wave (km/s) = 3.12006 6.11390 4.85358
#
# Compressibility (1/GPa) = 0.04398578
#
# Stress axis : x y z
#
# Youngs Moduli (GPa) = -137.19699 -137.19699 23.38946
#
# Poissons Ratio (x) = 1.82915 0.06348
# Poissons Ratio (y) = 1.82915 0.06348
# Poissons Ratio (z) = -0.37234 -0.37234
#
# Static dielectric constant tensor:
#      x y z
#    x 4.044160 0.000000 0.000000 
#    y 0.000000 4.044160 0.000000 
#    z 0.000000 0.000000 1.991200 
# 
# 
# High freq. dielectric constant tensor:
#      x y z
#    x 1.817760 0.000000 0.000000 
#    y 0.000000 1.817760 0.000000 
#    z 0.000000 0.000000 1.730080 
# 
# From -- ./inp_files/4625.got.cif
#   From: 2010.03.12/outbox.cif.g09.slc.cpg/sg151_3_cif.got.tgz:4625.got - 2010.04.03 13:42:29.
