data_PCOD8321576
_publ_section_title
;
Structure prediction by ZEFSAII (Michael W. Deem and Ramdas Pophale) SiO2 
 PCOD8321576
Probable space group: R 3
;
_chemical_formula_sum "Si O2"
_cell_formula_units_Z 42
_cell_length_a 17.032336
_cell_length_b 17.032336
_cell_length_c 7.498601
_cell_angle_alpha 90.000000
_cell_angle_beta 90.000000
_cell_angle_gamma 120.000000
_cell_volume 1883.906346
_symmetry_space_group_name_H-M "R 3"
_symmetry_group_IT_number 146
_symmetry_cell_setting 'hexagonal'
loop_
_space_group_symop_operation_xyz
x,y,z
-y,x-y,z
-x+y,-x,z
2/3+x,1/3+y,1/3+z
2/3-y,1/3+x-y,1/3+z
2/3-x+y,1/3-x,1/3+z
1/3+x,2/3+y,2/3+z
1/3-y,2/3+x-y,2/3+z
1/3-x+y,2/3-x,2/3+z
loop_
_atom_site_type_symbol
_atom_site_label
_atom_site_fract_x
_atom_site_fract_y
_atom_site_fract_z
Si Si1 0.666668 0.333334 0.667836
Si Si2 0.067257 0.863406 0.471017
Si Si3 0.549296 0.054929 0.939592
Si Si4 0.671097 0.733672 0.040212
Si Si5 0.685310 0.509079 0.118773
Si Si6 0.333334 0.666667 0.579943
O O1 0.694160 0.259761 0.733053
O O2 0.666668 0.333334 0.457115
O O3 0.107060 0.824961 0.321164
O O4 0.989678 0.773935 0.570531
O O5 0.149525 0.923189 0.608533
O O6 0.501593 0.060108 0.754581
O O7 0.528390 0.107006 0.095046
O O8 0.625870 0.651783 0.901558
O O9 0.761872 0.812788 0.957517
O O10 0.709312 0.432319 0.164446
#
# Coordination Sequence:
#
# PCOD8321576 Si02
#       6
#     3   9   9   9   9   3
#     4  12  25  50  79 108 148 206 262 316 383 466
#     4  12  26  49  75 107 158 198 256 324 381 459
#     4  12  26  46  74 110 149 200 250 317 388 446
#     4  12  25  45  74 108 145 189 250 316 378 457
#     4  12  23  47  74 104 149 196 255 308 380 461
#     4  12  25  41  76 111 133 203 265 307 374 463
#
# _framework density 22.294101999999999
#
# number of rings (size 3 to 8) (size 9 to 14) (size 15 to 20)
#    0.000    0.000    6.429    3.857    3.000    1.714 
#    3.857    0.000    0.000    0.000    0.000    0.000 
#    0.000    0.000    0.000    0.000    0.000    0.000 
#
# Total GULP energy -173587.014980 kJ/mol
# GULP energy per Si atom -12399.072499 kJ/mol
# Density = 2.224336 g / cm^3
# Si number density = 22.294102 Si / 1000 Ang^3
#
#
#
# Elastic Constant Matrix: (Units=GPa)
#
#
# Indices 1 2 3 4 5 6 
#
# 1 103.5376 36.2528 22.8431 2.7706 2.6869 0.0006
# 2 36.2528 103.5403 22.8449 -2.7707 -2.6874 0.0009
# 3 22.8431 22.8449 99.5487 0.0000 0.0015 0.0034
# 4 2.7706 -2.7707 0.0000 32.8953 -0.0009 -2.6878
# 5 2.6869 -2.6874 0.0015 -0.0009 32.8967 2.7733
# 6 0.0006 0.0009 0.0034 -2.6878 2.7733 33.6437
#
#
#
# Elastic Compliance Matrix: (Units=1/GPa)
#
#
# Indices 1 2 3 4 5 6 
#
# 1 0.011399 -0.003666 -0.001775 -0.001269 -0.001230 0.000000
# 2 -0.003666 0.011399 -0.001775 0.001269 0.001231 0.000000
# 3 -0.001775 -0.001775 0.010860 0.000000 0.000000 -0.000001
# 4 -0.001269 0.001269 0.000000 0.030814 0.000001 0.002462
# 5 -0.001230 0.001231 0.000000 0.000001 0.030813 -0.002540
# 6 0.000000 0.000000 -0.000001 0.002462 -0.002540 0.030129
#
#
# Mechanical properties :
#
#
# Convention : Reuss Voigt Hill
#
# Bulk Modulus (GPa) = 52.00689 52.27868 52.14278
# Shear Modulus (GPa) = 34.18705 34.86619 34.52662
#
# Velocity S-wave (km/s) = 3.92019 3.95893 3.93961
# Velocity P-wave (km/s) = 6.62335 6.66318 6.64330
#
# Compressibility (1/GPa) = 0.01922822
#
# Stress axis : x y z
#
# Youngs Moduli (GPa) = 87.72551 87.72698 92.08258
#
# Poissons Ratio (x) = 0.32157 0.16340
# Poissons Ratio (y) = 0.32157 0.16343
# Poissons Ratio (z) = 0.15567 0.15570
#
# Static dielectric constant tensor:
#      x y z
#    x 4.083110 0.000000 -0.000010 
#    y 0.000000 4.083100 0.000000 
#    z -0.000010 0.000000 4.032040 
# 
# 
# High freq. dielectric constant tensor:
#      x y z
#    x 1.885430 0.000000 0.000000 
#    y 0.000000 1.885430 0.000000 
#    z 0.000000 0.000000 1.877450 
# 
# From -- ./inp_files/633.got.cif
#   From: 2010.06.25/outbox.cif.g09.slc.cpg/sg146_cif.got.tgz:633.got - 2010.06.28 11:17:22.
