data_PCOD8321007
_publ_section_title
;
Structure prediction by ZEFSAII (Michael W. Deem and Ramdas Pophale) SiO2 
 PCOD8321007
Probable space group: I 41/A C D
;
_chemical_formula_sum "Si O2"
_cell_formula_units_Z 208
_cell_length_a 19.370727
_cell_length_b 19.370727
_cell_length_c 30.863889
_cell_angle_alpha 90.000000
_cell_angle_beta 90.000000
_cell_angle_gamma 90.000000
_cell_volume 11580.904741
_symmetry_space_group_name_H-M "I 41/A C D"
_symmetry_group_IT_number 142
_space_group.IT_coordinate_system_code '2'
_symmetry_cell_setting 'tetragonal'
loop_
_space_group_symop_operation_xyz
x,y,z
1/4-y,3/4+x,1/4+z
-x,1/2-y,z
1/4+y,1/4-x,3/4+z
x,-y,1/2-z
1/2-x,y,-z
3/4+y,1/4+x,1/4-z
1/4-y,1/4-x,1/4-z
-x,-y,-z
3/4+y,1/4-x,3/4-z
x,1/2+y,-z
3/4-y,3/4+x,1/4-z
-x,y,1/2+z
1/2+x,-y,z
1/4-y,3/4-x,3/4+z
3/4+y,3/4+x,3/4+z
1/2+x,1/2+y,1/2+z
3/4-y,1/4+x,3/4+z
1/2-x,-y,1/2+z
3/4+y,3/4-x,1/4+z
1/2+x,1/2-y,-z
-x,1/2+y,1/2-z
1/4+y,3/4+x,3/4-z
3/4-y,3/4-x,3/4-z
1/2-x,1/2-y,1/2-z
1/4+y,3/4-x,1/4-z
1/2+x,y,1/2-z
1/4-y,1/4+x,3/4-z
1/2-x,1/2+y,z
x,1/2-y,1/2+z
3/4-y,1/4-x,1/4+z
1/4+y,1/4+x,1/4+z
loop_
_atom_site_type_symbol
_atom_site_label
_atom_site_fract_x
_atom_site_fract_y
_atom_site_fract_z
Si Si1 0.797836 0.047836 0.125000
Si Si2 0.901788 0.785123 0.607911
Si Si3 0.947515 0.187945 0.259898
Si Si4 0.302635 0.789967 0.035238
Si Si5 0.795059 0.449675 0.715244
Si Si6 0.454280 0.007529 0.376700
Si Si7 0.700659 0.707398 0.220074
O O1 0.769324 0.015679 0.080434
O O2 0.787566 0.128767 0.125011
O O3 0.921508 0.704018 0.611364
O O4 0.907004 0.812832 0.558411
O O5 0.825579 0.796143 0.626796
O O6 0.980607 0.129747 0.228935
O O7 0.876541 0.214426 0.238504
O O8 0.000000 0.250000 0.262536
O O9 0.295734 0.872535 0.034812
O O10 0.285268 0.758230 0.082788
O O11 0.250000 0.758221 0.000000
O O12 0.760823 0.500000 0.750000
O O13 0.772188 0.371338 0.722662
O O14 0.486992 0.039538 0.420848
O O15 0.750000 0.750000 0.250000
#
# Coordination Sequence:
#
# PCOD8321007 Si02
#       7
#    16  32  32  32  32  32  32
#     4   8  16  28  50  78 105 134 182 241 268 328
#     4  11  21  34  57  91 125 154 196 253 319 370
#     4  11  21  36  57  89 121 153 197 252 307 365
#     4   9  16  31  56  81 106 147 192 239 281 343
#     4   8  15  28  49  76 101 134 182 226 270 322
#     4  10  19  36  56  86 114 147 206 247 291 357
#     4  10  21  34  54  82 116 153 186 240 298 359
#
# _framework density 17.960601
#
# number of rings (size 3 to 8) (size 9 to 14) (size 15 to 20)
#    0.000    2.308    3.077    1.846    2.154    0.000 
#    0.000    1.538    0.000    4.615    0.000    0.000 
#    0.000    0.000    0.000    0.000    0.000    0.000 
#
# Total GULP energy -1288372.044509 kJ/mol
# GULP energy per Si atom -12388.192736 kJ/mol
# Density = 1.791972 g / cm^3
# Si number density = 17.960601 Si / 1000 Ang^3
#
#
#
# Elastic Constant Matrix: (Units=GPa)
#
#
# Indices 1 2 3 4 5 6 
#
# 1 61.1168 23.4348 32.9082 0.0000 0.0000 0.0000
# 2 23.4348 61.1168 32.9082 0.0000 0.0000 0.0000
# 3 32.9082 32.9082 180.6138 0.0000 0.0000 0.0000
# 4 0.0000 0.0000 0.0000 27.2620 0.0000 0.0000
# 5 0.0000 0.0000 0.0000 0.0000 27.2620 0.0000
# 6 0.0000 0.0000 0.0000 0.0000 0.0000 17.0637
#
#
#
# Elastic Compliance Matrix: (Units=1/GPa)
#
#
# Indices 1 2 3 4 5 6 
#
# 1 0.020160 -0.006378 -0.002511 0.000000 0.000000 0.000000
# 2 -0.006378 0.020160 -0.002511 0.000000 0.000000 0.000000
# 3 -0.002511 -0.002511 0.006452 0.000000 0.000000 0.000000
# 4 0.000000 0.000000 0.000000 0.036681 0.000000 0.000000
# 5 0.000000 0.000000 0.000000 0.000000 0.036681 0.000000
# 6 0.000000 0.000000 0.000000 0.000000 0.000000 0.058604
#
#
# Mechanical properties :
#
#
# Convention : Reuss Voigt Hill
#
# Bulk Modulus (GPa) = 41.71712 53.48330 47.60021
# Shear Modulus (GPa) = 23.86313 28.55728 26.21021
#
# Velocity S-wave (km/s) = 3.64900 3.99180 3.82424
# Velocity P-wave (km/s) = 6.40555 7.14764 6.78674
#
# Compressibility (1/GPa) = 0.02397097
#
# Stress axis : x y z
#
# Youngs Moduli (GPa) = 49.60364 49.60364 154.99754
#
# Poissons Ratio (x) = 0.31637 0.38921
# Poissons Ratio (y) = 0.31637 0.38921
# Poissons Ratio (z) = 0.12456 0.12456
#
# Static dielectric constant tensor:
#      x y z
#    x 3.158560 0.000000 0.000000 
#    y 0.000000 3.158560 0.000000 
#    z 0.000000 0.000000 4.290060 
# 
# 
# High freq. dielectric constant tensor:
#      x y z
#    x 1.664420 0.000000 0.000000 
#    y 0.000000 1.664420 0.000000 
#    z 0.000000 0.000000 1.725610 
# 
# From -- ./inp_files/12689.got.cif
#   From: 2010.03.12/outbox.cif.g09.slc.cpg/sg142_7_cif.got.tgz:12689.got - 2010.04.03 13:27:16.
