data_PCOD8321837
_publ_section_title
;
Structure prediction by ZEFSAII (Michael W. Deem and Ramdas Pophale) SiO2 
 PCOD8321837
Probable space group: P 3 1 2
;
_chemical_formula_sum "Si O2"
_cell_formula_units_Z 42
_cell_length_a 13.165480
_cell_length_b 13.165480
_cell_length_c 17.498558
_cell_angle_alpha 90.000000
_cell_angle_beta 90.000000
_cell_angle_gamma 120.000000
_cell_volume 2626.674684
_symmetry_space_group_name_H-M "P 3 1 2"
_symmetry_group_IT_number 149
_symmetry_cell_setting 'hexagonal'
loop_
_space_group_symop_operation_xyz
x,y,z
-y,x-y,z
-x+y,-x,z
-y,-x,-z
-x+y,y,-z
x,x-y,-z
loop_
_atom_site_type_symbol
_atom_site_label
_atom_site_fract_x
_atom_site_fract_y
_atom_site_fract_z
Si Si1 0.431832 0.098224 0.086622
Si Si2 0.333513 0.901647 0.623975
Si Si3 0.001868 0.240762 0.500000
Si Si4 0.431832 0.098224 0.913378
Si Si5 0.333291 0.900493 0.201256
Si Si6 0.567201 0.666709 0.798744
Si Si7 0.568135 0.901647 0.623975
O O1 0.563616 0.127232 0.101348
O O2 0.427587 0.213793 0.104650
O O3 0.343259 0.000981 0.145180
O O4 0.392173 0.054256 0.000000
O O5 0.305204 0.986720 0.574064
O O6 0.337428 0.940552 0.711446
O O7 0.457033 0.914066 0.598815
O O8 0.233724 0.766276 0.611964
O O9 0.102439 0.204877 0.500000
O O10 0.013280 0.318484 0.425936
O O11 0.875741 0.124260 0.500000
O O12 0.343259 0.000981 0.854820
O O13 0.212826 0.787174 0.180711
O O14 0.435355 0.870710 0.185314
O O15 0.337428 0.940552 0.288554
#
# Coordination Sequence:
#
# PCOD8321837 Si02
#       7
#     6   6   6   6   6   6   6
#     4   9  17  29  45  64  86 115 152 191 225 257
#     4   9  17  30  49  71  92 115 145 183 224 264
#     4  10  20  32  46  64  88 118 150 184 220 258
#     4   9  17  29  45  64  86 115 152 191 225 257
#     4   9  17  29  46  69  95 119 143 176 222 272
#     4   9  17  29  46  69  95 119 143 176 222 272
#     4   9  17  30  49  71  92 115 145 183 224 264
#
# _framework density 15.989799
#
# number of rings (size 3 to 8) (size 9 to 14) (size 15 to 20)
#    0.000    2.857    0.000    1.429    0.000    5.143 
#    0.000    1.429    0.000    4.571    0.000    0.000 
#    0.000    0.000    0.000    0.000    0.000    0.000 
#
# Total GULP energy -520789.878826 kJ/mol
# GULP energy per Si atom -12399.759020 kJ/mol
# Density = 1.595341 g / cm^3
# Si number density = 15.989799 Si / 1000 Ang^3
#
#
#
# Elastic Constant Matrix: (Units=GPa)
#
#
# Indices 1 2 3 4 5 6 
#
# 1 106.2945 60.4490 68.4062 0.0000 0.0000 0.0000
# 2 60.4490 106.2945 68.4062 0.0000 0.0000 0.0000
# 3 68.4062 68.4062 108.8022 0.0000 0.0000 0.0000
# 4 0.0000 0.0000 0.0000 27.3497 0.0000 0.0000
# 5 0.0000 0.0000 0.0000 0.0000 27.3497 0.0000
# 6 0.0000 0.0000 0.0000 0.0000 0.0000 22.9227
#
#
#
# Elastic Compliance Matrix: (Units=1/GPa)
#
#
# Indices 1 2 3 4 5 6 
#
# 1 0.017100 -0.004712 -0.007788 0.000000 0.000000 0.000000
# 2 -0.004712 0.017100 -0.007788 0.000000 0.000000 0.000000
# 3 -0.007788 -0.007788 0.018984 0.000000 0.000000 0.000000
# 4 0.000000 0.000000 0.000000 0.036564 0.000000 0.000000
# 5 0.000000 0.000000 0.000000 0.000000 0.036564 0.000000
# 6 0.000000 0.000000 0.000000 0.000000 0.000000 0.043625
#
#
# Mechanical properties :
#
#
# Convention : Reuss Voigt Hill
#
# Bulk Modulus (GPa) = 79.32624 79.54604 79.43614
# Shear Modulus (GPa) = 23.28657 23.79973 23.54315
#
# Velocity S-wave (km/s) = 3.82034 3.86221 3.84133
# Velocity P-wave (km/s) = 8.31735 8.35134 8.33436
#
# Compressibility (1/GPa) = 0.01260617
#
# Stress axis : x y z
#
# Youngs Moduli (GPa) = 58.47974 58.47974 52.67513
#
# Poissons Ratio (x) = 0.27558 0.41025
# Poissons Ratio (y) = 0.27558 0.41025
# Poissons Ratio (z) = 0.45546 0.45546
#
# Static dielectric constant tensor:
#      x y z
#    x 2.902910 0.000000 0.000000 
#    y 0.000000 2.902910 0.000000 
#    z 0.000000 0.000000 3.241440 
# 
# 
# High freq. dielectric constant tensor:
#      x y z
#    x 1.601200 0.000000 0.000000 
#    y 0.000000 1.601200 0.000000 
#    z 0.000000 0.000000 1.626580 
# 
# From -- ./inp_files/1132.got.cif
#   From: 2010.03.12/outbox.cif.g09.slc.cpg/sg149_cif.got.tgz:1132.got - 2010.04.03 13:40:41.
