data_PCOD8321750
_publ_section_title
;
Structure prediction by ZEFSAII (Michael W. Deem and Ramdas Pophale) SiO2 
 PCOD8321750
Probable space group: R -3
;
_chemical_formula_sum "Si O2"
_cell_formula_units_Z 114
_cell_length_a 19.777896
_cell_length_b 19.777896
_cell_length_c 15.364105
_cell_angle_alpha 90.000000
_cell_angle_beta 90.000000
_cell_angle_gamma 120.000000
_cell_volume 5204.728453
_symmetry_space_group_name_H-M "R -3"
_symmetry_group_IT_number 148
_symmetry_cell_setting 'hexagonal'
loop_
_space_group_symop_operation_xyz
x,y,z
-y,x-y,z
-x+y,-x,z
-x,-y,-z
y,-x+y,-z
x-y,x,-z
2/3+x,1/3+y,1/3+z
2/3-y,1/3+x-y,1/3+z
2/3-x+y,1/3-x,1/3+z
2/3-x,1/3-y,1/3-z
2/3+y,1/3-x+y,1/3-z
2/3+x-y,1/3+x,1/3-z
1/3+x,2/3+y,2/3+z
1/3-y,2/3+x-y,2/3+z
1/3-x+y,2/3-x,2/3+z
1/3-x,2/3-y,2/3-z
1/3+y,2/3-x+y,2/3-z
1/3+x-y,2/3+x,2/3-z
loop_
_atom_site_type_symbol
_atom_site_label
_atom_site_fract_x
_atom_site_fract_y
_atom_site_fract_z
Si Si1 0.435306 0.958108 0.428618
Si Si2 0.558945 0.805207 0.362987
Si Si3 0.333334 0.666667 0.767247
Si Si4 0.834148 0.360995 0.184597
Si Si5 0.393833 0.447683 0.094746
Si Si6 0.022650 0.731664 0.029171
Si Si7 0.930111 0.196202 0.368680
O O1 0.367532 0.878188 0.463181
O O2 0.456811 0.936958 0.335552
O O3 0.500000 0.000000 0.500000
O O4 0.407223 0.019322 0.403078
O O5 0.527070 0.770330 0.458663
O O6 0.645056 0.875990 0.377361
O O7 0.548479 0.737435 0.294483
O O8 0.514459 0.846856 0.321111
O O9 0.333335 0.666668 0.666667
O O10 0.256259 0.670219 0.793899
O O11 0.892003 0.376183 0.267445
O O12 0.308757 0.369805 0.088762
O O13 0.413137 0.468420 0.195250
O O14 0.931703 0.670941 0.018941
#
# Coordination Sequence:
#
# PCOD8321750 Si02
#       7
#    18  18   6  18  18  18  18
#     4  12  25  43  68 102 131 182 234 288 348 417
#     4  10  23  41  68  97 137 179 221 283 343 418
#     4  12  33  48  69  99 142 206 238 276 348 435
#     4  12  25  50  70  97 145 184 237 284 344 426
#     4  10  22  39  66 105 136 173 220 283 364 401
#     4  11  24  42  70  99 135 173 227 297 349 403
#     4  11  24  40  66 100 136 176 222 280 351 412
#
# _framework density 21.903161000000001
#
# number of rings (size 3 to 8) (size 9 to 14) (size 15 to 20)
#    0.000    0.947    3.158    2.842   11.053    1.263 
#    0.000    0.000    0.000    0.000    0.000    3.316 
#    0.000    0.000    0.000    0.000    0.000    0.000 
#
# Total GULP energy -470768.861613 kJ/mol
# GULP energy per Si atom -12388.654253 kJ/mol
# Density = 2.185331 g / cm^3
# Si number density = 21.903161 Si / 1000 Ang^3
#
#
#
# Elastic Constant Matrix: (Units=GPa)
#
#
# Indices 1 2 3 4 5 6 
#
# 1 59.7003 44.4676 18.4377 -1.2993 3.7037 -0.0001
# 2 44.4676 59.7006 18.4379 1.2993 -3.7035 0.0000
# 3 18.4377 18.4379 99.8873 0.0000 0.0000 -0.0001
# 4 -1.2993 1.2993 0.0000 43.0446 0.0000 -3.7034
# 5 3.7037 -3.7035 0.0000 0.0000 43.0446 -1.2993
# 6 -0.0001 0.0000 -0.0001 -3.7034 -1.2993 7.6164
#
#
#
# Elastic Compliance Matrix: (Units=1/GPa)
#
#
# Indices 1 2 3 4 5 6 
#
# 1 0.039578 -0.029307 -0.001896 0.002079 -0.005927 0.000000
# 2 -0.029307 0.039578 -0.001896 -0.002079 0.005927 0.000000
# 3 -0.001896 -0.001896 0.010711 0.000000 0.000000 0.000000
# 4 0.002079 -0.002079 0.000000 0.024377 0.000000 0.011853
# 5 -0.005927 0.005927 0.000000 0.000000 0.024377 0.004158
# 6 0.000000 0.000000 0.000000 0.011853 0.004158 0.137769
#
#
# Mechanical properties :
#
#
# Convention : Reuss Voigt Hill
#
# Bulk Modulus (GPa) = 42.24815 42.44164 42.34489
# Shear Modulus (GPa) = 14.26626 27.93744 21.10185
#
# Velocity S-wave (km/s) = 2.55489 3.57529 3.10726
# Velocity P-wave (km/s) = 5.29469 6.03842 5.67875
#
# Compressibility (1/GPa) = 0.02366967
#
# Stress axis : x y z
#
# Youngs Moduli (GPa) = 25.26665 25.26674 93.36030
#
# Poissons Ratio (x) = 0.74049 0.17700
# Poissons Ratio (y) = 0.74048 0.17701
# Poissons Ratio (z) = 0.04790 0.04790
#
# Static dielectric constant tensor:
#      x y z
#    x 3.948330 0.000020 -0.000010 
#    y 0.000020 3.948320 0.000000 
#    z -0.000010 0.000000 3.607730 
# 
# 
# High freq. dielectric constant tensor:
#      x y z
#    x 1.858760 0.000000 0.000000 
#    y 0.000000 1.858760 0.000000 
#    z 0.000000 0.000000 1.873170 
# 
# From -- ./inp_files/2115.got.cif
#   From: 2010.03.12/outbox.cif.g09.slc.cpg/sg148_2_cif.got.tgz:2115.got - 2010.04.03 13:38:46.
