data_PCOD8321462
_publ_section_title
;
Structure prediction by ZEFSAII (Michael W. Deem and Ramdas Pophale) SiO2 
 PCOD8321462
Probable space group: P 32
;
_chemical_formula_sum "Si O2"
_cell_formula_units_Z 24
_cell_length_a 7.918208
_cell_length_b 7.918208
_cell_length_c 20.175353
_cell_angle_alpha 90.000000
_cell_angle_beta 90.000000
_cell_angle_gamma 120.000000
_cell_volume 1095.482856
_symmetry_space_group_name_H-M "P 32"
_symmetry_group_IT_number 145
_symmetry_cell_setting 'hexagonal'
loop_
_space_group_symop_operation_xyz
x,y,z
-y,x-y,2/3+z
-x+y,-x,1/3+z
loop_
_atom_site_type_symbol
_atom_site_label
_atom_site_fract_x
_atom_site_fract_y
_atom_site_fract_z
Si Si1 0.835438 0.065407 0.699380
Si Si2 0.686363 0.620282 0.242953
Si Si3 0.686363 0.066081 0.458344
Si Si4 0.012518 0.631363 0.668741
Si Si5 0.605897 0.970113 0.245309
Si Si6 0.934593 0.164562 0.335251
Si Si7 0.029888 0.394103 0.789322
Si Si8 0.618846 0.631363 0.699223
O O1 0.809936 0.171946 0.636371
O O2 0.032493 0.064986 0.683982
O O3 0.848718 0.185219 0.766616
O O4 0.655756 0.849031 0.707622
O O5 0.780753 0.561507 0.183982
O O6 0.472907 0.449402 0.264174
O O7 0.654772 0.801729 0.225377
O O8 0.828054 0.190064 0.398260
O O9 0.654772 0.853044 0.475920
O O10 0.472907 0.023505 0.437123
O O11 0.082151 0.534269 0.725256
O O12 0.815939 0.631877 0.683982
O O13 0.193275 0.849031 0.660342
O O14 0.512400 0.024800 0.183982
O O15 0.465731 0.917849 0.309375
O O16 0.814781 0.151282 0.268015
#
# Coordination Sequence:
#
# PCOD8321462 Si02
#       8
#     3   3   3   3   3   3   3   3
#     4   8  17  35  59  83 114 156 199 247 303 363
#     4  10  20  37  60  87 117 154 205 257 309 378
#     4  10  20  37  60  87 117 154 205 257 309 378
#     4  10  20  37  58  84 120 156 197 256 314 370
#     4  10  20  37  61  86 115 158 206 250 309 381
#     4   8  17  35  59  83 114 156 199 247 303 363
#     4  10  20  37  61  86 115 158 206 250 309 381
#     4  10  20  37  58  84 120 156 197 256 314 370
#
# _framework density 21.908147
#
# number of rings (size 3 to 8) (size 9 to 14) (size 15 to 20)
#    0.000    2.500    0.000    3.750    0.000    1.000 
#    0.000   17.500    0.000    0.000    0.000    0.000 
#    0.000    0.000    0.000    0.000    0.000    0.000 
#
# Total GULP energy -297342.263356 kJ/mol
# GULP energy per Si atom -12389.260973 kJ/mol
# Density = 2.185828 g / cm^3
# Si number density = 21.908147 Si / 1000 Ang^3
#
#
#
# Elastic Constant Matrix: (Units=GPa)
#
#
# Indices 1 2 3 4 5 6 
#
# 1 105.6399 32.8735 51.0510 0.0000 7.4864 0.0000
# 2 32.8735 105.6399 51.0510 0.0000 -7.4864 0.0000
# 3 51.0510 51.0510 132.2873 0.0000 0.0000 0.0000
# 4 0.0000 0.0000 0.0000 29.7065 0.0000 -7.4864
# 5 7.4864 -7.4864 0.0000 0.0000 29.7065 0.0000
# 6 0.0000 0.0000 0.0000 -7.4864 0.0000 36.3832
#
#
#
# Elastic Compliance Matrix: (Units=1/GPa)
#
#
# Indices 1 2 3 4 5 6 
#
# 1 0.012292 -0.002202 -0.003894 0.000000 -0.003653 0.000000
# 2 -0.002202 0.012292 -0.003894 0.000000 0.003653 0.000000
# 3 -0.003894 -0.003894 0.010565 0.000000 0.000000 0.000000
# 4 0.000000 0.000000 0.000000 0.035504 0.000000 0.007305
# 5 -0.003653 0.003653 0.000000 0.000000 0.035504 0.000000
# 6 0.000000 0.000000 0.000000 0.007305 0.000000 0.028988
#
#
# Mechanical properties :
#
#
# Convention : Reuss Voigt Hill
#
# Bulk Modulus (GPa) = 65.92364 68.16868 67.04616
# Shear Modulus (GPa) = 31.21488 33.06537 32.14012
#
# Velocity S-wave (km/s) = 3.77876 3.88915 3.83435
# Velocity P-wave (km/s) = 7.01391 7.16593 7.09033
#
# Compressibility (1/GPa) = 0.01516906
#
# Stress axis : x y z
#
# Youngs Moduli (GPa) = 81.35412 81.35412 94.65624
#
# Poissons Ratio (x) = 0.17916 0.36856
# Poissons Ratio (y) = 0.17916 0.36856
# Poissons Ratio (z) = 0.31677 0.31677
#
# Static dielectric constant tensor:
#      x y z
#    x 4.062550 0.000000 0.000000 
#    y 0.000000 4.062550 0.000000 
#    z 0.000000 0.000000 3.840350 
# 
# 
# High freq. dielectric constant tensor:
#      x y z
#    x 1.858960 0.000000 0.000000 
#    y 0.000000 1.858960 0.000000 
#    z 0.000000 0.000000 1.847880 
# 
# From -- ./inp_files/945.got.cif
#   From: 2010.03.12/outbox.cif.g09.slc.cpg/sg145_cif.got.tgz:945.got - 2010.04.03 13:35:35.
