data_PCOD8321492
_publ_section_title
;
Structure prediction by ZEFSAII (Michael W. Deem and Ramdas Pophale) SiO2 
 PCOD8321492
Probable space group: P 32
;
_chemical_formula_sum "Si O2"
_cell_formula_units_Z 21
_cell_length_a 9.152537
_cell_length_b 9.152537
_cell_length_c 11.393601
_cell_angle_alpha 90.000000
_cell_angle_beta 90.000000
_cell_angle_gamma 120.000000
_cell_volume 826.560457
_symmetry_space_group_name_H-M "P 32"
_symmetry_group_IT_number 145
_symmetry_cell_setting 'hexagonal'
loop_
_space_group_symop_operation_xyz
x,y,z
-y,x-y,2/3+z
-x+y,-x,1/3+z
loop_
_atom_site_type_symbol
_atom_site_label
_atom_site_fract_x
_atom_site_fract_y
_atom_site_fract_z
Si Si1 0.937147 0.423714 0.347580
Si Si2 0.123491 0.447431 0.131466
Si Si3 0.026219 0.783387 0.288972
Si Si4 0.826155 0.406169 0.989386
Si Si5 0.271576 0.762885 0.832656
Si Si6 0.929180 0.512334 0.741677
Si Si7 0.719357 0.791502 0.374854
O O1 0.753056 0.287379 0.394500
O O2 0.016550 0.356432 0.248032
O O3 0.932065 0.580888 0.288084
O O4 0.049934 0.463287 0.463390
O O5 0.286192 0.628323 0.171911
O O6 0.011802 0.487353 0.042193
O O7 0.163359 0.318563 0.064309
O O8 0.113111 0.851132 0.163198
O O9 0.900956 0.857605 0.312468
O O10 0.725213 0.198871 0.983361
O O11 0.838335 0.491721 0.865314
O O12 0.118475 0.674552 0.738103
O O13 0.193648 0.778316 0.956248
O O14 0.941136 0.344720 0.732005
#
# Coordination Sequence:
#
# PCOD8321492 Si02
#       7
#     3   3   3   3   3   3   3
#     4  11  25  48  77 110 151 208 263 317 390 479
#     4  11  25  50  76 114 158 204 261 324 389 472
#     4  11  27  50  77 112 161 203 264 330 394 470
#     4  12  26  46  78 112 156 201 258 326 392 465
#     4  11  29  48  80 110 153 211 265 319 392 471
#     4  12  27  47  76 112 151 205 257 321 392 465
#     4  12  27  49  80 114 160 208 262 331 399 468
#
# _framework density 25.406488
#
# number of rings (size 3 to 8) (size 9 to 14) (size 15 to 20)
#    0.000    0.571    4.286    1.714   10.000    2.286 
#    2.571    0.000    0.000    0.000    0.000    0.000 
#    0.000    0.000    0.000    0.000    0.000    0.000 
#
# Total GULP energy -260309.121053 kJ/mol
# GULP energy per Si atom -12395.672431 kJ/mol
# Density = 2.534866 g / cm^3
# Si number density = 25.406488 Si / 1000 Ang^3
#
#
#
# Elastic Constant Matrix: (Units=GPa)
#
#
# Indices 1 2 3 4 5 6 
#
# 1 131.6037 55.9877 22.4730 3.1663 0.3126 0.0000
# 2 55.9877 131.6037 22.4730 -3.1663 -0.3126 0.0000
# 3 22.4730 22.4730 53.0227 0.0000 0.0000 0.0000
# 4 3.1663 -3.1663 0.0000 36.4874 0.0000 -0.3126
# 5 0.3126 -0.3126 0.0000 0.0000 36.4874 3.1663
# 6 0.0000 0.0000 0.0000 -0.3126 3.1663 37.8080
#
#
#
# Elastic Compliance Matrix: (Units=1/GPa)
#
#
# Indices 1 2 3 4 5 6 
#
# 1 0.009628 -0.003695 -0.002515 -0.001156 -0.000114 0.000000
# 2 -0.003695 0.009628 -0.002515 0.001156 0.000114 0.000000
# 3 -0.002515 -0.002515 0.020991 0.000000 0.000000 0.000000
# 4 -0.001156 0.001156 0.000000 0.027609 0.000000 0.000228
# 5 -0.000114 0.000114 0.000000 0.000000 0.027609 -0.002312
# 6 0.000000 0.000000 0.000000 0.000228 -0.002312 0.026645
#
#
# Mechanical properties :
#
#
# Convention : Reuss Voigt Hill
#
# Bulk Modulus (GPa) = 43.86140 57.56639 50.71389
# Shear Modulus (GPa) = 33.97693 36.50966 35.24329
#
# Velocity S-wave (km/s) = 3.66092 3.79492 3.72852
# Velocity P-wave (km/s) = 5.93053 6.47373 6.20807
#
# Compressibility (1/GPa) = 0.02279909
#
# Stress axis : x y z
#
# Youngs Moduli (GPa) = 103.86515 103.86515 47.63834
#
# Poissons Ratio (x) = 0.38374 0.11980
# Poissons Ratio (y) = 0.38374 0.11980
# Poissons Ratio (z) = 0.26119 0.26119
#
# Static dielectric constant tensor:
#      x y z
#    x 4.582670 0.000000 0.000000 
#    y 0.000000 4.582670 0.000000 
#    z 0.000000 0.000000 4.562670 
# 
# 
# High freq. dielectric constant tensor:
#      x y z
#    x 2.013990 0.000000 0.000000 
#    y 0.000000 2.013990 0.000000 
#    z 0.000000 0.000000 2.017570 
# 
# From -- ./inp_files/624.got.cif
#   From: 2010.03.12/outbox.cif.g09.slc.cpg/sg145_cif.got.tgz:624.got - 2010.04.03 13:35:35.
