data_PCOD8321253
_publ_section_title
;
Structure prediction by ZEFSAII (Michael W. Deem and Ramdas Pophale) SiO2 
 PCOD8321253
Probable space group: I 41/A C D
;
_chemical_formula_sum "Si O2"
_cell_formula_units_Z 240
_cell_length_a 19.816359
_cell_length_b 19.816359
_cell_length_c 27.018398
_cell_angle_alpha 90.000000
_cell_angle_beta 90.000000
_cell_angle_gamma 90.000000
_cell_volume 10609.802944
_symmetry_space_group_name_H-M "I 41/A C D"
_symmetry_group_IT_number 142
_space_group.IT_coordinate_system_code '2'
_symmetry_cell_setting 'tetragonal'
loop_
_space_group_symop_operation_xyz
x,y,z
1/4-y,3/4+x,1/4+z
-x,1/2-y,z
1/4+y,1/4-x,3/4+z
x,-y,1/2-z
1/2-x,y,-z
3/4+y,1/4+x,1/4-z
1/4-y,1/4-x,1/4-z
-x,-y,-z
3/4+y,1/4-x,3/4-z
x,1/2+y,-z
3/4-y,3/4+x,1/4-z
-x,y,1/2+z
1/2+x,-y,z
1/4-y,3/4-x,3/4+z
3/4+y,3/4+x,3/4+z
1/2+x,1/2+y,1/2+z
3/4-y,1/4+x,3/4+z
1/2-x,-y,1/2+z
3/4+y,3/4-x,1/4+z
1/2+x,1/2-y,-z
-x,1/2+y,1/2-z
1/4+y,3/4+x,3/4-z
3/4-y,3/4-x,3/4-z
1/2-x,1/2-y,1/2-z
1/4+y,3/4-x,1/4-z
1/2+x,y,1/2-z
1/4-y,1/4+x,3/4-z
1/2-x,1/2+y,z
x,1/2-y,1/2+z
3/4-y,1/4-x,1/4+z
1/4+y,1/4+x,1/4+z
loop_
_atom_site_type_symbol
_atom_site_label
_atom_site_fract_x
_atom_site_fract_y
_atom_site_fract_z
Si Si1 0.381457 0.319349 0.205755
Si Si2 0.920880 0.170880 0.625000
Si Si3 0.882797 0.954410 0.402532
Si Si4 0.390875 0.777088 0.207365
Si Si5 0.988165 0.880219 0.244704
Si Si6 0.684290 0.790523 0.397019
Si Si7 0.704823 0.948418 0.957734
Si Si8 0.282227 0.182502 0.928730
O O1 0.365636 0.258455 0.242764
O O2 0.459825 0.335210 0.212873
O O3 0.367545 0.295676 0.149210
O O4 0.336360 0.383545 0.222278
O O5 0.928099 0.224977 0.669628
O O6 0.931314 0.095046 0.642484
O O7 0.864285 0.885716 0.375000
O O8 0.941122 0.930455 0.439876
O O9 0.909167 0.004810 0.361439
O O10 0.814913 0.987708 0.424516
O O11 0.446267 0.835738 0.216491
O O12 0.938213 0.904405 0.200587
O O13 0.028006 0.942120 0.271507
O O14 0.716912 0.716215 0.403037
O O15 0.757411 0.893419 0.936876
O O16 0.750000 0.982546 0.000000
#
# Coordination Sequence:
#
# PCOD8321253 Si02
#       8
#    32  16  32  32  32  32  32  32
#     4  11  25  44  69 108 140 188 238 297 365 436
#     4  12  26  45  76 112 140 194 246 305 374 428
#     4  11  27  46  67 101 143 185 234 300 361 424
#     4  12  27  45  70 110 148 188 239 306 370 444
#     4  12  25  43  75 106 146 193 240 303 377 447
#     4  11  25  45  73 100 148 190 236 298 366 446
#     4  11  22  45  71  96 136 185 242 293 345 433
#     4  12  23  46  74 105 139 191 248 298 356 443
#
# _framework density 22.620588999999999
#
# number of rings (size 3 to 8) (size 9 to 14) (size 15 to 20)
#    0.000    0.533    5.333    1.600    2.800    3.733 
#    2.400    0.000    0.000    0.000    0.000    0.000 
#    0.000    0.000    0.000    0.000    0.000    0.000 
#
# Total GULP energy -1486963.186254 kJ/mol
# GULP energy per Si atom -12391.359885 kJ/mol
# Density = 2.256910 g / cm^3
# Si number density = 22.620589 Si / 1000 Ang^3
#
#
#
# Elastic Constant Matrix: (Units=GPa)
#
#
# Indices 1 2 3 4 5 6 
#
# 1 81.0117 20.5716 29.3741 0.0000 0.0000 0.0000
# 2 20.5716 81.0130 29.3734 0.0000 0.0000 0.0000
# 3 29.3741 29.3734 103.4068 0.0000 0.0000 0.0000
# 4 0.0000 0.0000 0.0000 26.3722 0.0000 0.0000
# 5 0.0000 0.0000 0.0000 0.0000 26.3730 0.0000
# 6 0.0000 0.0000 0.0000 0.0000 0.0000 43.8016
#
#
#
# Elastic Compliance Matrix: (Units=1/GPa)
#
#
# Indices 1 2 3 4 5 6 
#
# 1 0.014162 -0.002383 -0.003346 0.000000 0.000000 0.000000
# 2 -0.002383 0.014162 -0.003346 0.000000 0.000000 0.000000
# 3 -0.003346 -0.003346 0.011571 0.000000 0.000000 0.000000
# 4 0.000000 0.000000 0.000000 0.037919 0.000000 0.000000
# 5 0.000000 0.000000 0.000000 0.000000 0.037918 0.000000
# 6 0.000000 0.000000 0.000000 0.000000 0.000000 0.022830
#
#
# Mechanical properties :
#
#
# Convention : Reuss Voigt Hill
#
# Bulk Modulus (GPa) = 45.98597 47.11887 46.55242
# Shear Modulus (GPa) = 30.49509 31.71683 31.10596
#
# Velocity S-wave (km/s) = 3.67565 3.74855 3.71228
# Velocity P-wave (km/s) = 6.19574 6.29371 6.24492
#
# Compressibility (1/GPa) = 0.02174576
#
# Stress axis : x y z
#
# Youngs Moduli (GPa) = 70.61012 70.61171 86.41949
#
# Poissons Ratio (x) = 0.16827 0.28917
# Poissons Ratio (y) = 0.16827 0.28915
# Poissons Ratio (z) = 0.23627 0.23626
#
# Static dielectric constant tensor:
#      x y z
#    x 4.176260 0.000000 0.000000 
#    y 0.000000 4.176250 0.000000 
#    z 0.000000 0.000000 4.609620 
# 
# 
# High freq. dielectric constant tensor:
#      x y z
#    x 1.896420 0.000000 0.000000 
#    y 0.000000 1.896420 0.000000 
#    z 0.000000 0.000000 1.892310 
# 
# From -- ./inp_files/11684.got.cif
#   From: 2010.03.12/outbox.cif.g09.slc.cpg/sg142_6_cif.got.tgz:11684.got - 2010.04.03 13:27:16.
