data_PCOD8321079
_publ_section_title
;
Structure prediction by ZEFSAII (Michael W. Deem and Ramdas Pophale) SiO2 
 PCOD8321079
Probable space group: I 41/A C D
;
_chemical_formula_sum "Si O2"
_cell_formula_units_Z 112
_cell_length_a 13.203937
_cell_length_b 13.203937
_cell_length_c 27.685269
_cell_angle_alpha 90.000000
_cell_angle_beta 90.000000
_cell_angle_gamma 90.000000
_cell_volume 4826.759218
_symmetry_space_group_name_H-M "I 41/A C D"
_symmetry_group_IT_number 142
_space_group.IT_coordinate_system_code '2'
_symmetry_cell_setting 'tetragonal'
loop_
_space_group_symop_operation_xyz
x,y,z
1/4-y,3/4+x,1/4+z
-x,1/2-y,z
1/4+y,1/4-x,3/4+z
x,-y,1/2-z
1/2-x,y,-z
3/4+y,1/4+x,1/4-z
1/4-y,1/4-x,1/4-z
-x,-y,-z
3/4+y,1/4-x,3/4-z
x,1/2+y,-z
3/4-y,3/4+x,1/4-z
-x,y,1/2+z
1/2+x,-y,z
1/4-y,3/4-x,3/4+z
3/4+y,3/4+x,3/4+z
1/2+x,1/2+y,1/2+z
3/4-y,1/4+x,3/4+z
1/2-x,-y,1/2+z
3/4+y,3/4-x,1/4+z
1/2+x,1/2-y,-z
-x,1/2+y,1/2-z
1/4+y,3/4+x,3/4-z
3/4-y,3/4-x,3/4-z
1/2-x,1/2-y,1/2-z
1/4+y,3/4-x,1/4-z
1/2+x,y,1/2-z
1/4-y,1/4+x,3/4-z
1/2-x,1/2+y,z
x,1/2-y,1/2+z
3/4-y,1/4-x,1/4+z
1/4+y,1/4+x,1/4+z
loop_
_atom_site_type_symbol
_atom_site_label
_atom_site_fract_x
_atom_site_fract_y
_atom_site_fract_z
Si Si1 0.188316 0.307332 0.179269
Si Si2 0.530496 0.137198 0.034094
Si Si3 0.773906 0.975075 0.553912
Si Si4 0.371641 0.878360 0.625000
O O1 0.124572 0.272935 0.226248
O O2 0.307997 0.293490 0.189603
O O3 0.176568 0.426945 0.169009
O O4 0.148457 0.241624 0.133479
O O5 0.500000 0.250000 0.049578
O O6 0.643228 0.114052 0.053587
O O7 0.750000 0.010632 0.500000
O O8 0.812568 0.078364 0.578595
#
# Coordination Sequence:
#
# PCOD8321079 Si02
#       4
#    32  32  32  16
#     4   9  19  39  61  94 137 170 227 286 348 421
#     4   9  18  38  67  93 126 177 231 282 348 420
#     4   9  19  40  64  94 136 183 229 293 357 426
#     4  10  20  40  63  91 138 180 216 296 354 411
#
# _framework density 23.203975
#
# number of rings (size 3 to 8) (size 9 to 14) (size 15 to 20)
#    0.000    2.857    0.000    1.714    0.000    0.000 
#   20.571   24.286    0.000    0.000    0.000    0.000 
#    0.000    0.000    0.000    0.000    0.000    0.000 
#
# Total GULP energy -694288.831869 kJ/mol
# GULP energy per Si atom -12398.014855 kJ/mol
# Density = 2.315116 g / cm^3
# Si number density = 23.203975 Si / 1000 Ang^3
#
#
#
# Elastic Constant Matrix: (Units=GPa)
#
#
# Indices 1 2 3 4 5 6 
#
# 1 171.9614 64.7949 48.8138 0.0000 0.0000 0.0000
# 2 64.7949 171.9600 48.8136 0.0000 0.0000 0.0000
# 3 48.8138 48.8136 83.1516 0.0000 0.0000 0.0000
# 4 0.0000 0.0000 0.0000 30.0815 0.0000 0.0000
# 5 0.0000 0.0000 0.0000 0.0000 30.0815 0.0000
# 6 0.0000 0.0000 0.0000 0.0000 0.0000 26.5909
#
#
#
# Elastic Compliance Matrix: (Units=1/GPa)
#
#
# Indices 1 2 3 4 5 6 
#
# 1 0.007452 -0.001879 -0.003271 0.000000 0.000000 0.000000
# 2 -0.001879 0.007452 -0.003271 0.000000 0.000000 0.000000
# 3 -0.003271 -0.003271 0.015867 0.000000 0.000000 0.000000
# 4 0.000000 0.000000 0.000000 0.033243 0.000000 0.000000
# 5 0.000000 0.000000 0.000000 0.000000 0.033243 0.000000
# 6 0.000000 0.000000 0.000000 0.000000 0.000000 0.037607
#
#
# Mechanical properties :
#
#
# Convention : Reuss Voigt Hill
#
# Bulk Modulus (GPa) = 71.80348 83.54641 77.67494
# Shear Modulus (GPa) = 31.97933 34.99415 33.48674
#
# Velocity S-wave (km/s) = 3.71642 3.88765 3.80300
# Velocity P-wave (km/s) = 7.03046 7.49901 7.26851
#
# Compressibility (1/GPa) = 0.01392690
#
# Stress axis : x y z
#
# Youngs Moduli (GPa) = 134.19172 134.19069 63.02300
#
# Poissons Ratio (x) = 0.25218 0.20618
# Poissons Ratio (y) = 0.25218 0.20618
# Poissons Ratio (z) = 0.43900 0.43900
#
# Static dielectric constant tensor:
#      x y z
#    x 4.163360 0.000000 0.000000 
#    y 0.000000 4.163390 0.000000 
#    z 0.000000 0.000000 4.133030 
# 
# 
# High freq. dielectric constant tensor:
#      x y z
#    x 1.912890 0.000000 0.000000 
#    y 0.000000 1.912890 0.000000 
#    z 0.000000 0.000000 1.913420 
# 
# From -- ./inp_files/12215.got.cif
#   From: 2010.03.12/outbox.cif.g09.slc.cpg/sg142_7_cif.got.tgz:12215.got - 2010.04.03 13:27:16.
