data_PCOD8321199
_publ_section_title
;
Structure prediction by ZEFSAII (Michael W. Deem and Ramdas Pophale) SiO2 
 PCOD8321199
Probable space group: I 41/A C D
;
_chemical_formula_sum "Si O2"
_cell_formula_units_Z 136
_cell_length_a 16.379333
_cell_length_b 16.379333
_cell_length_c 22.630208
_cell_angle_alpha 90.000000
_cell_angle_beta 90.000000
_cell_angle_gamma 90.000000
_cell_volume 6071.289899
_symmetry_space_group_name_H-M "I 41/A C D"
_symmetry_group_IT_number 142
_space_group.IT_coordinate_system_code '2'
_symmetry_cell_setting 'tetragonal'
loop_
_space_group_symop_operation_xyz
x,y,z
1/4-y,3/4+x,1/4+z
-x,1/2-y,z
1/4+y,1/4-x,3/4+z
x,-y,1/2-z
1/2-x,y,-z
3/4+y,1/4+x,1/4-z
1/4-y,1/4-x,1/4-z
-x,-y,-z
3/4+y,1/4-x,3/4-z
x,1/2+y,-z
3/4-y,3/4+x,1/4-z
-x,y,1/2+z
1/2+x,-y,z
1/4-y,3/4-x,3/4+z
3/4+y,3/4+x,3/4+z
1/2+x,1/2+y,1/2+z
3/4-y,1/4+x,3/4+z
1/2-x,-y,1/2+z
3/4+y,3/4-x,1/4+z
1/2+x,1/2-y,-z
-x,1/2+y,1/2-z
1/4+y,3/4+x,3/4-z
3/4-y,3/4-x,3/4-z
1/2-x,1/2-y,1/2-z
1/4+y,3/4-x,1/4-z
1/2+x,y,1/2-z
1/4-y,1/4+x,3/4-z
1/2-x,1/2+y,z
x,1/2-y,1/2+z
3/4-y,1/4-x,1/4+z
1/4+y,1/4+x,1/4+z
loop_
_atom_site_type_symbol
_atom_site_label
_atom_site_fract_x
_atom_site_fract_y
_atom_site_fract_z
Si Si1 0.310952 0.060952 0.875000
Si Si2 0.500000 0.750000 0.625000
Si Si3 0.250000 0.202155 0.500000
Si Si4 0.496329 0.583400 0.960270
Si Si5 0.627110 0.584888 0.350794
Si Si6 0.934827 0.363791 0.211759
O O1 0.215469 0.075395 0.878159
O O2 0.345494 0.104058 0.933581
O O3 0.499007 0.833229 0.662547
O O4 0.259952 0.144698 0.557054
O O5 0.173898 0.263413 0.498147
O O6 0.582144 0.618465 0.937332
O O7 0.437389 0.577478 0.903703
O O8 0.500000 0.500000 0.000000
O O9 0.463588 0.655557 0.001205
#
# Coordination Sequence:
#
# PCOD8321199 Si02
#       6
#    16   8  16  32  32  32
#     4  11  24  44  76 106 147 193 247 326 368 470
#     4  10  24  38  72 102 144 182 234 308 364 454
#     4  12  28  44  74 110 146 202 246 322 380 470
#     4  12  26  49  77 109 149 201 251 317 391 461
#     4  12  28  46  74 111 150 198 260 314 395 465
#     4  11  23  46  73 103 147 191 251 303 393 444
#
# _framework density 22.400513
#
# number of rings (size 3 to 8) (size 9 to 14) (size 15 to 20)
#    0.000    0.471    2.353    5.647    6.588    4.235 
#    0.000    0.000    0.000    0.000    0.000    0.000 
#    0.000    0.000    0.000    0.000    0.000    0.000 
#
# Total GULP energy -842849.763691 kJ/mol
# GULP energy per Si atom -12394.849466 kJ/mol
# Density = 2.234953 g / cm^3
# Si number density = 22.400513 Si / 1000 Ang^3
#
#
#
# Elastic Constant Matrix: (Units=GPa)
#
#
# Indices 1 2 3 4 5 6 
#
# 1 138.9480 10.0976 44.2011 0.0000 0.0000 0.0000
# 2 10.0976 138.9480 44.2011 0.0000 0.0000 0.0000
# 3 44.2011 44.2011 123.2439 0.0000 0.0000 0.0000
# 4 0.0000 0.0000 0.0000 39.3457 0.0000 0.0000
# 5 0.0000 0.0000 0.0000 0.0000 39.3457 0.0000
# 6 0.0000 0.0000 0.0000 0.0000 0.0000 43.0789
#
#
#
# Elastic Compliance Matrix: (Units=1/GPa)
#
#
# Indices 1 2 3 4 5 6 
#
# 1 0.008142 0.000381 -0.003056 0.000000 0.000000 0.000000
# 2 0.000381 0.008142 -0.003056 0.000000 0.000000 0.000000
# 3 -0.003056 -0.003056 0.010306 0.000000 0.000000 0.000000
# 4 0.000000 0.000000 0.000000 0.025416 0.000000 0.000000
# 5 0.000000 0.000000 0.000000 0.000000 0.025416 0.000000
# 6 0.000000 0.000000 0.000000 0.000000 0.000000 0.023213
#
#
# Mechanical properties :
#
#
# Convention : Reuss Voigt Hill
#
# Bulk Modulus (GPa) = 66.11601 66.45996 66.28798
# Shear Modulus (GPa) = 42.68380 44.53007 43.60694
#
# Velocity S-wave (km/s) = 4.36992 4.46343 4.41692
# Velocity P-wave (km/s) = 7.41897 7.50308 7.46114
#
# Compressibility (1/GPa) = 0.01512493
#
# Stress axis : x y z
#
# Youngs Moduli (GPa) = 122.82635 122.82635 97.02726
#
# Poissons Ratio (x) = -0.04675 0.29656
# Poissons Ratio (y) = -0.04675 0.29656
# Poissons Ratio (z) = 0.37542 0.37542
#
# Static dielectric constant tensor:
#      x y z
#    x 4.222600 0.000000 0.000000 
#    y 0.000000 4.222600 0.000000 
#    z 0.000000 0.000000 4.096850 
# 
# 
# High freq. dielectric constant tensor:
#      x y z
#    x 1.891110 0.000000 0.000000 
#    y 0.000000 1.891110 0.000000 
#    z 0.000000 0.000000 1.897980 
# 
# From -- ./inp_files/8850.got.cif
#   From: 2010.03.12/outbox.cif.g09.slc.cpg/sg142_5_cif.got.tgz:8850.got - 2010.04.03 13:27:16.
