data_PCOD8321096
_publ_section_title
;
Structure prediction by ZEFSAII (Michael W. Deem and Ramdas Pophale) SiO2 
 PCOD8321096
Probable space group: I 41/A C D
;
_chemical_formula_sum "Si O2"
_cell_formula_units_Z 160
_cell_length_a 24.686385
_cell_length_b 24.686385
_cell_length_c 14.686654
_cell_angle_alpha 90.000000
_cell_angle_beta 90.000000
_cell_angle_gamma 90.000000
_cell_volume 8950.305497
_symmetry_space_group_name_H-M "I 41/A C D"
_symmetry_group_IT_number 142
_space_group.IT_coordinate_system_code '2'
_symmetry_cell_setting 'tetragonal'
loop_
_space_group_symop_operation_xyz
x,y,z
1/4-y,3/4+x,1/4+z
-x,1/2-y,z
1/4+y,1/4-x,3/4+z
x,-y,1/2-z
1/2-x,y,-z
3/4+y,1/4+x,1/4-z
1/4-y,1/4-x,1/4-z
-x,-y,-z
3/4+y,1/4-x,3/4-z
x,1/2+y,-z
3/4-y,3/4+x,1/4-z
-x,y,1/2+z
1/2+x,-y,z
1/4-y,3/4-x,3/4+z
3/4+y,3/4+x,3/4+z
1/2+x,1/2+y,1/2+z
3/4-y,1/4+x,3/4+z
1/2-x,-y,1/2+z
3/4+y,3/4-x,1/4+z
1/2+x,1/2-y,-z
-x,1/2+y,1/2-z
1/4+y,3/4+x,3/4-z
3/4-y,3/4-x,3/4-z
1/2-x,1/2-y,1/2-z
1/4+y,3/4-x,1/4-z
1/2+x,y,1/2-z
1/4-y,1/4+x,3/4-z
1/2-x,1/2+y,z
x,1/2-y,1/2+z
3/4-y,1/4-x,1/4+z
1/4+y,1/4+x,1/4+z
loop_
_atom_site_type_symbol
_atom_site_label
_atom_site_fract_x
_atom_site_fract_y
_atom_site_fract_z
Si Si1 0.540053 0.558797 0.095385
Si Si2 0.197185 0.302194 0.792327
Si Si3 0.640793 0.763020 0.465300
Si Si4 0.419506 0.660045 0.017964
Si Si5 0.422756 0.294193 0.779665
O O1 0.577171 0.505115 0.075729
O O2 0.531492 0.570717 0.201783
O O3 0.565437 0.611666 0.048031
O O4 0.482033 0.544997 0.050220
O O5 0.175537 0.264795 0.874483
O O6 0.150200 0.346111 0.769633
O O7 0.621599 0.701291 0.472306
O O8 0.586476 0.800376 0.459565
O O9 0.412287 0.662287 0.125000
O O10 0.482686 0.672840 0.991943
O O11 0.455789 0.294212 0.875000
#
# Coordination Sequence:
#
# PCOD8321096 Si02
#       5
#    32  32  32  32  32
#     4   9  19  36  47  66 103 144 171 215 252 306
#     4  10  21  32  49  70 102 140 179 210 252 313
#     4  11  20  31  52  75 102 135 177 213 258 314
#     4  11  19  32  46  72 107 140 165 209 255 312
#     4   9  17  30  49  68 100 140 169 201 258 306
#
# _framework density 17.876484999999999
#
# number of rings (size 3 to 8) (size 9 to 14) (size 15 to 20)
#    0.000    2.000    6.000    1.200    5.600    0.000 
#    0.000    0.000    0.000    0.000    0.000    0.000 
#    0.000   33.600    0.000    0.000    0.000    0.000 
#
# Total GULP energy -991148.722700 kJ/mol
# GULP energy per Si atom -12389.359034 kJ/mol
# Density = 1.783580 g / cm^3
# Si number density = 17.876485 Si / 1000 Ang^3
#
#
#
# Elastic Constant Matrix: (Units=GPa)
#
#
# Indices 1 2 3 4 5 6 
#
# 1 72.1808 19.5101 12.9273 0.0000 0.0000 0.0000
# 2 19.5101 72.1821 12.9268 0.0000 0.0000 0.0000
# 3 12.9273 12.9268 59.2472 0.0000 0.0000 0.0000
# 4 0.0000 0.0000 0.0000 19.7925 0.0000 0.0000
# 5 0.0000 0.0000 0.0000 0.0000 19.7921 0.0000
# 6 0.0000 0.0000 0.0000 0.0000 0.0000 9.8796
#
#
#
# Elastic Compliance Matrix: (Units=1/GPa)
#
#
# Indices 1 2 3 4 5 6 
#
# 1 0.015304 -0.003682 -0.002536 0.000000 0.000000 0.000000
# 2 -0.003682 0.015303 -0.002535 0.000000 0.000000 0.000000
# 3 -0.002536 -0.002535 0.017985 0.000000 0.000000 0.000000
# 4 0.000000 0.000000 0.000000 0.050524 0.000000 0.000000
# 5 0.000000 0.000000 0.000000 0.000000 0.050525 0.000000
# 6 0.000000 0.000000 0.000000 0.000000 0.000000 0.101219
#
#
# Mechanical properties :
#
#
# Convention : Reuss Voigt Hill
#
# Bulk Modulus (GPa) = 32.17015 32.70429 32.43722
# Shear Modulus (GPa) = 17.93860 20.44255 19.19057
#
# Velocity S-wave (km/s) = 3.17120 3.38530 3.28000
# Velocity P-wave (km/s) = 5.60746 5.79782 5.70343
#
# Compressibility (1/GPa) = 0.03108471
#
# Stress axis : x y z
#
# Youngs Moduli (GPa) = 65.34433 65.34575 55.60222
#
# Poissons Ratio (x) = 0.24062 0.14099
# Poissons Ratio (y) = 0.24062 0.14098
# Poissons Ratio (z) = 0.16569 0.16568
#
# Static dielectric constant tensor:
#      x y z
#    x 3.506220 0.000000 0.000000 
#    y 0.000000 3.506220 0.000000 
#    z 0.000000 0.000000 3.501960 
# 
# 
# High freq. dielectric constant tensor:
#      x y z
#    x 1.657520 0.000000 0.000000 
#    y 0.000000 1.657520 0.000000 
#    z 0.000000 0.000000 1.710060 
# 
# From -- ./inp_files/7710.got.cif
#   From: 2010.03.12/outbox.cif.g09.slc.cpg/sg142_4_cif.got.tgz:7710.got - 2010.04.03 13:27:16.
