data_PCOD8321464
_publ_section_title
;
Structure prediction by ZEFSAII (Michael W. Deem and Ramdas Pophale) SiO2 
 PCOD8321464
Probable space group: P 32
;
_chemical_formula_sum "Si O2"
_cell_formula_units_Z 18
_cell_length_a 12.244081
_cell_length_b 12.244081
_cell_length_c 7.540890
_cell_angle_alpha 90.000000
_cell_angle_beta 90.000000
_cell_angle_gamma 120.000000
_cell_volume 979.051699
_symmetry_space_group_name_H-M "P 32"
_symmetry_group_IT_number 145
_symmetry_cell_setting 'hexagonal'
loop_
_space_group_symop_operation_xyz
x,y,z
-y,x-y,2/3+z
-x+y,-x,1/3+z
loop_
_atom_site_type_symbol
_atom_site_label
_atom_site_fract_x
_atom_site_fract_y
_atom_site_fract_z
Si Si1 0.102575 0.352857 0.317270
Si Si2 0.530688 0.742689 0.625542
Si Si3 0.680878 0.989106 0.460595
Si Si4 0.932289 0.895002 0.089139
Si Si5 0.093907 0.626666 0.800136
Si Si6 0.504709 0.956809 0.752522
O O1 0.117218 0.377256 0.107713
O O2 0.231685 0.428820 0.423212
O O3 0.049988 0.206860 0.349553
O O4 0.010993 0.405001 0.383415
O O5 0.622593 0.836434 0.472389
O O6 0.437841 0.606207 0.550060
O O7 0.452291 0.807290 0.706668
O O8 0.629836 0.010041 0.273197
O O9 0.830299 0.057830 0.468232
O O10 0.627816 0.036576 0.625396
O O11 0.953514 0.971914 0.270254
O O12 0.014264 0.556630 0.624923
#
# Coordination Sequence:
#
# PCOD8321464 Si02
#       6
#     3   3   3   3   3   3
#     4  11  21  36  56  92 117 163 192 244 319 358
#     4   9  19  33  58  89 124 140 185 256 319 366
#     4  10  21  38  55  86 118 159 191 249 305 357
#     4  12  26  42  60  82 130 174 215 242 283 382
#     4  11  19  33  56  85 119 145 186 244 319 357
#     4   9  22  32  57  88 118 141 189 247 313 368
#
# _framework density 18.385138999999999
#
# number of rings (size 3 to 8) (size 9 to 14) (size 15 to 20)
#    1.000    0.667    3.333    2.000    7.000    0.000 
#    0.000    0.000    0.000    0.000    4.333    0.000 
#    0.000    0.000    0.000    0.000    0.000    0.000 
#
# Total GULP energy -223031.317201 kJ/mol
# GULP energy per Si atom -12390.628733 kJ/mol
# Density = 1.834329 g / cm^3
# Si number density = 18.385139 Si / 1000 Ang^3
#
#
#
# Elastic Constant Matrix: (Units=GPa)
#
#
# Indices 1 2 3 4 5 6 
#
# 1 45.2309 2.3071 13.0076 0.8917 -2.0008 0.0000
# 2 2.3071 45.2309 13.0076 -0.8917 2.0008 0.0000
# 3 13.0076 13.0076 117.3063 0.0000 0.0000 0.0000
# 4 0.8917 -0.8917 0.0000 19.2729 0.0000 2.0008
# 5 -2.0008 2.0008 0.0000 0.0000 19.2729 0.8917
# 6 0.0000 0.0000 0.0000 2.0008 0.8917 21.4619
#
#
#
# Elastic Compliance Matrix: (Units=1/GPa)
#
#
# Indices 1 2 3 4 5 6 
#
# 1 0.022983 -0.000588 -0.002483 -0.001091 0.002447 0.000000
# 2 -0.000588 0.022983 -0.002483 0.001091 -0.002447 0.000000
# 3 -0.002483 -0.002483 0.009075 0.000000 0.000000 0.000000
# 4 -0.001091 0.001091 0.000000 0.052495 0.000000 -0.004894
# 5 0.002447 -0.002447 0.000000 0.000000 0.052495 -0.002181
# 6 0.000000 0.000000 0.000000 -0.004894 -0.002181 0.047141
#
#
# Mechanical properties :
#
#
# Convention : Reuss Voigt Hill
#
# Bulk Modulus (GPa) = 22.76253 29.37921 26.07087
# Shear Modulus (GPa) = 21.46609 23.96457 22.71533
#
# Velocity S-wave (km/s) = 3.42069 3.61428 3.51882
# Velocity P-wave (km/s) = 5.29238 5.78204 5.54262
#
# Compressibility (1/GPa) = 0.04393185
#
# Stress axis : x y z
#
# Youngs Moduli (GPa) = 43.51107 43.51107 110.18780
#
# Poissons Ratio (x) = 0.02558 0.27363
# Poissons Ratio (y) = 0.02558 0.27363
# Poissons Ratio (z) = 0.10805 0.10805
#
# Static dielectric constant tensor:
#      x y z
#    x 3.073360 0.000000 0.000000 
#    y 0.000000 3.073360 0.000000 
#    z 0.000000 0.000000 3.726200 
# 
# 
# High freq. dielectric constant tensor:
#      x y z
#    x 1.677330 0.000000 0.000000 
#    y 0.000000 1.677330 0.000000 
#    z 0.000000 0.000000 1.740010 
# 
# From -- ./inp_files/339.got.cif
#   From: 2010.03.12/outbox.cif.g09.slc.cpg/sg145_cif.got.tgz:339.got - 2010.04.03 13:35:35.
