data_PCOD8321767
_publ_section_title
;
Structure prediction by ZEFSAII (Michael W. Deem and Ramdas Pophale) SiO2 
 PCOD8321767
Probable space group: R -3
;
_chemical_formula_sum "Si O2"
_cell_formula_units_Z 108
_cell_length_a 20.477991
_cell_length_b 20.477991
_cell_length_c 13.281802
_cell_angle_alpha 90.000000
_cell_angle_beta 90.000000
_cell_angle_gamma 120.000000
_cell_volume 4823.500512
_symmetry_space_group_name_H-M "R -3"
_symmetry_group_IT_number 148
_symmetry_cell_setting 'hexagonal'
loop_
_space_group_symop_operation_xyz
x,y,z
-y,x-y,z
-x+y,-x,z
-x,-y,-z
y,-x+y,-z
x-y,x,-z
2/3+x,1/3+y,1/3+z
2/3-y,1/3+x-y,1/3+z
2/3-x+y,1/3-x,1/3+z
2/3-x,1/3-y,1/3-z
2/3+y,1/3-x+y,1/3-z
2/3+x-y,1/3+x,1/3-z
1/3+x,2/3+y,2/3+z
1/3-y,2/3+x-y,2/3+z
1/3-x+y,2/3-x,2/3+z
1/3-x,2/3-y,2/3-z
1/3+y,2/3-x+y,2/3-z
1/3+x-y,2/3+x,2/3-z
loop_
_atom_site_type_symbol
_atom_site_label
_atom_site_fract_x
_atom_site_fract_y
_atom_site_fract_z
Si Si1 0.511698 0.679169 0.903764
Si Si2 0.520342 0.419387 0.427008
Si Si3 0.463476 0.876514 0.784186
Si Si4 0.731833 0.642838 0.818958
Si Si5 0.683666 0.030837 0.038364
Si Si6 0.698277 0.480621 0.785957
O O1 0.561792 0.764085 0.858852
O O2 0.450806 0.621358 0.825442
O O3 0.568062 0.646939 0.920613
O O4 0.469842 0.675712 0.009544
O O5 0.561549 0.466192 0.328554
O O6 0.518131 0.340851 0.441015
O O7 0.435937 0.404844 0.413486
O O8 0.518983 0.948040 0.855647
O O9 0.696563 0.640586 0.927819
O O10 0.666947 0.642260 0.747214
O O11 0.739704 0.569754 0.807206
O O12 0.765469 0.461657 0.794625
#
# Coordination Sequence:
#
# PCOD8321767 Si02
#       6
#    18  18  18  18  18  18
#     4  11  25  43  71 101 138 185 235 295 357 422
#     4  11  23  44  68 105 138 184 230 295 356 432
#     4  11  24  43  69 101 143 177 234 295 361 433
#     4  10  25  40  72 101 138 179 229 298 359 424
#     4  10  23  42  68 103 137 176 233 290 364 422
#     4  11  28  47  67  96 137 190 243 288 350 434
#
# _framework density 22.390377999999998
#
# number of rings (size 3 to 8) (size 9 to 14) (size 15 to 20)
#    0.000    1.333    1.667    1.667   14.000    2.667 
#    1.000    0.833    0.000    0.000    0.000    0.000 
#    0.000    0.000    0.000    0.000    0.000    0.000 
#
# Total GULP energy -446006.465399 kJ/mol
# GULP energy per Si atom -12389.068483 kJ/mol
# Density = 2.233942 g / cm^3
# Si number density = 22.390378 Si / 1000 Ang^3
#
#
#
# Elastic Constant Matrix: (Units=GPa)
#
#
# Indices 1 2 3 4 5 6 
#
# 1 79.6149 18.8161 25.2126 0.6652 1.6305 0.0000
# 2 18.8161 79.6149 25.2126 -0.6652 -1.6305 0.0000
# 3 25.2126 25.2126 88.7066 0.0000 0.0000 0.0000
# 4 0.6652 -0.6652 0.0000 37.1083 0.0000 -1.6305
# 5 1.6305 -1.6305 0.0000 0.0000 37.1083 0.6652
# 6 0.0000 0.0000 0.0000 -1.6305 0.6652 30.3994
#
#
#
# Elastic Compliance Matrix: (Units=1/GPa)
#
#
# Indices 1 2 3 4 5 6 
#
# 1 0.014192 -0.002301 -0.003380 -0.000296 -0.000725 0.000000
# 2 -0.002301 0.014192 -0.003380 0.000296 0.000725 0.000000
# 3 -0.003380 -0.003380 0.013194 0.000000 0.000000 0.000000
# 4 -0.000296 0.000296 0.000000 0.027022 0.000000 0.001449
# 5 -0.000725 0.000725 0.000000 0.000000 0.027022 -0.000591
# 6 0.000000 0.000000 0.000000 0.001449 -0.000591 0.032986
#
#
# Mechanical properties :
#
#
# Convention : Reuss Voigt Hill
#
# Bulk Modulus (GPa) = 42.63083 42.93545 42.78314
# Shear Modulus (GPa) = 32.35222 32.83622 32.59422
#
# Velocity S-wave (km/s) = 3.80533 3.83369 3.81953
# Velocity P-wave (km/s) = 6.19585 6.23006 6.21298
#
# Compressibility (1/GPa) = 0.02345720
#
# Stress axis : x y z
#
# Youngs Moduli (GPa) = 70.46279 70.46279 75.79037
#
# Poissons Ratio (x) = 0.16214 0.25615
# Poissons Ratio (y) = 0.16214 0.25615
# Poissons Ratio (z) = 0.23814 0.23814
#
# Static dielectric constant tensor:
#      x y z
#    x 4.069800 0.000000 0.000000 
#    y 0.000000 4.069800 0.000000 
#    z 0.000000 0.000000 4.160900 
# 
# 
# High freq. dielectric constant tensor:
#      x y z
#    x 1.882000 0.000000 0.000000 
#    y 0.000000 1.882000 0.000000 
#    z 0.000000 0.000000 1.881460 
# 
# From -- ./inp_files/2071.got.cif
#   From: 2010.03.12/outbox.cif.g09.slc.cpg/sg148_2_cif.got.tgz:2071.got - 2010.04.03 13:38:46.
