data_PCOD8321600
_publ_section_title
;
Structure prediction by ZEFSAII (Michael W. Deem and Ramdas Pophale) SiO2 
 PCOD8321600
Probable space group: P -3
;
_chemical_formula_sum "Si O2"
_cell_formula_units_Z 30
_cell_length_a 13.142679
_cell_length_b 13.142679
_cell_length_c 12.435046
_cell_angle_alpha 90.000000
_cell_angle_beta 90.000000
_cell_angle_gamma 120.000000
_cell_volume 1860.140846
_symmetry_space_group_name_H-M "P -3"
_symmetry_group_IT_number 147
_symmetry_cell_setting 'hexagonal'
loop_
_space_group_symop_operation_xyz
x,y,z
-y,x-y,z
-x+y,-x,z
-x,-y,-z
y,-x+y,-z
x-y,x,-z
loop_
_atom_site_type_symbol
_atom_site_label
_atom_site_fract_x
_atom_site_fract_y
_atom_site_fract_z
Si Si1 0.099447 0.666476 0.419266
Si Si2 0.760751 1.000000 1.000000
Si Si3 0.900553 0.567029 0.580734
Si Si4 0.901168 0.333742 0.825832
Si Si5 0.666259 0.098833 0.825831
O O1 0.132096 0.566048 0.440908
O O2 0.211380 0.788620 0.446867
O O3 0.057112 0.660398 0.296761
O O4 1.000000 0.655419 0.500000
O O5 0.696945 0.016181 0.896759
O O6 0.887772 0.112228 0.020606
O O7 0.680763 0.983819 0.103239
O O8 0.942887 0.603285 0.703238
O O9 0.764639 0.235361 0.838560
O O10 0.915169 0.457585 0.862723
#
# Coordination Sequence:
#
# PCOD8321600 Si02
#       5
#     6   6   6   6   6
#     4   9  17  29  46  67  90 116 145 178 216 257
#     4  10  20  32  46  64  88 118 148 178 214 258
#     4   9  17  29  46  67  90 116 145 178 216 257
#     4   9  17  30  48  68  88 112 144 182 221 258
#     4   9  17  30  48  68  88 112 144 182 221 258
#
# _framework density 16.127811999999999
#
# number of rings (size 3 to 8) (size 9 to 14) (size 15 to 20)
#    0.000    2.800    0.000    1.600    0.000    4.800 
#    0.000    0.000    0.000    1.200    0.000    0.000 
#    0.000    0.000    0.000    0.000    0.000    0.000 
#
# Total GULP energy -372018.615754 kJ/mol
# GULP energy per Si atom -12400.620525 kJ/mol
# Density = 1.609110 g / cm^3
# Si number density = 16.127812 Si / 1000 Ang^3
#
#
#
# Elastic Constant Matrix: (Units=GPa)
#
#
# Indices 1 2 3 4 5 6 
#
# 1 112.0984 68.5929 69.3097 -2.7734 0.0001 0.0000
# 2 68.5929 112.0984 69.3097 2.7734 -0.0001 0.0000
# 3 69.3097 69.3097 100.8471 0.0000 0.0000 0.0000
# 4 -2.7734 2.7734 0.0000 27.6870 0.0000 -0.0001
# 5 0.0001 -0.0001 0.0000 0.0000 27.6870 -2.7734
# 6 0.0000 0.0000 0.0000 -0.0001 -2.7734 21.7528
#
#
#
# Elastic Compliance Matrix: (Units=1/GPa)
#
#
# Indices 1 2 3 4 5 6 
#
# 1 0.017495 -0.005788 -0.008046 0.002332 0.000000 0.000000
# 2 -0.005788 0.017495 -0.008046 -0.002332 0.000000 0.000000
# 3 -0.008046 -0.008046 0.020975 0.000000 0.000000 0.000000
# 4 0.002332 -0.002332 0.000000 0.036585 0.000000 0.000000
# 5 0.000000 0.000000 0.000000 0.000000 0.036585 0.004665
# 6 0.000000 0.000000 0.000000 0.000000 0.004665 0.046566
#
#
# Mechanical properties :
#
#
# Convention : Reuss Voigt Hill
#
# Bulk Modulus (GPa) = 81.92864 82.16318 82.04591
# Shear Modulus (GPa) = 22.36848 23.28080 22.82464
#
# Velocity S-wave (km/s) = 3.72822 3.80349 3.76604
# Velocity P-wave (km/s) = 8.33323 8.38715 8.36023
#
# Compressibility (1/GPa) = 0.01220574
#
# Stress axis : x y z
#
# Youngs Moduli (GPa) = 57.15987 57.15987 47.67537
#
# Poissons Ratio (x) = 0.33085 0.38358
# Poissons Ratio (y) = 0.33085 0.38358
# Poissons Ratio (z) = 0.45989 0.45989
#
# Static dielectric constant tensor:
#      x y z
#    x 2.982460 0.000000 0.000000 
#    y 0.000000 2.982460 0.000000 
#    z 0.000000 0.000000 3.151510 
# 
# 
# High freq. dielectric constant tensor:
#      x y z
#    x 1.616140 0.000000 0.000000 
#    y 0.000000 1.616140 0.000000 
#    z 0.000000 0.000000 1.624510 
# 
# From -- ./inp_files/897.got.cif
#   From: 2010.03.12/outbox.cif.g09.slc.cpg/sg147_cif.got.tgz:897.got - 2010.04.03 13:37:56.
