data_PCOD8321595
_publ_section_title
;
Structure prediction by ZEFSAII (Michael W. Deem and Ramdas Pophale) SiO2 
 PCOD8321595
Probable space group: P -3
;
_chemical_formula_sum "Si O2"
_cell_formula_units_Z 40
_cell_length_a 12.436796
_cell_length_b 12.436796
_cell_length_c 15.478913
_cell_angle_alpha 90.000000
_cell_angle_beta 90.000000
_cell_angle_gamma 120.000000
_cell_volume 2073.423958
_symmetry_space_group_name_H-M "P -3"
_symmetry_group_IT_number 147
_symmetry_cell_setting 'hexagonal'
loop_
_space_group_symop_operation_xyz
x,y,z
-y,x-y,z
-x+y,-x,z
-x,-y,-z
y,-x+y,-z
x-y,x,-z
loop_
_atom_site_type_symbol
_atom_site_label
_atom_site_fract_x
_atom_site_fract_y
_atom_site_fract_z
Si Si1 0.961850 0.732659 0.999982
Si Si2 0.333334 0.666668 0.093582
Si Si3 0.666667 0.333333 0.111509
Si Si4 0.058302 0.279214 0.312053
Si Si5 0.220373 0.940977 0.686939
Si Si6 0.351631 0.906523 0.152390
Si Si7 0.634334 0.078457 0.157111
Si Si8 0.214784 0.942786 0.499563
O O1 0.977537 0.664234 0.916999
O O2 0.857008 0.767828 0.980611
O O3 0.924544 0.645450 0.082640
O O4 0.290674 0.762140 0.127341
O O5 0.333334 0.666667 0.991114
O O6 0.618092 0.197104 0.147921
O O7 0.162022 0.239672 0.298355
O O8 0.080645 0.387109 0.246347
O O9 0.066764 0.340244 0.408007
O O10 0.924368 0.157772 0.297650
O O11 0.305043 0.916343 0.751269
O O12 0.266297 0.922860 0.590999
O O13 0.498327 0.960134 0.151587
O O14 0.072021 0.849414 0.492619
#
# Coordination Sequence:
#
# PCOD8321595 Si02
#       8
#     6   2   2   6   6   6   6   6
#     4  12  24  40  60  86 115 146 182 232 292 350
#     4  12  24  42  63  82 110 154 198 246 285 334
#     4  12  24  42  63  82 110 154 198 246 285 334
#     4  10  19  35  58  89 121 153 189 234 288 345
#     4  10  19  35  58  89 121 153 189 234 288 345
#     4  12  25  40  60  84 113 151 197 241 288 339
#     4  12  25  40  60  84 113 151 197 241 288 339
#     4   8  15  28  53  84 118 152 187 228 280 342
#
# _framework density 19.291761999999999
#
# number of rings (size 3 to 8) (size 9 to 14) (size 15 to 20)
#    0.000    1.200    1.500    6.450    0.000    2.400 
#    0.000    3.750    0.000    1.800    0.000    0.000 
#    0.000    0.000    0.000    0.000    0.000    0.000 
#
# Total GULP energy -495860.450488 kJ/mol
# GULP energy per Si atom -12396.511262 kJ/mol
# Density = 1.924785 g / cm^3
# Si number density = 19.291762 Si / 1000 Ang^3
#
#
#
# Elastic Constant Matrix: (Units=GPa)
#
#
# Indices 1 2 3 4 5 6 
#
# 1 -87.3531 172.8772 23.2918 -21.0342 18.0108 0.0156
# 2 172.8772 -87.3430 23.2979 21.0342 -18.0091 -0.0082
# 3 23.2918 23.2979 114.1340 -0.0009 -0.0001 -0.0027
# 4 -21.0342 21.0342 -0.0009 19.5614 -0.0010 -18.0135
# 5 18.0108 -18.0091 -0.0001 -0.0010 19.5561 -21.0629
# 6 0.0156 -0.0082 -0.0027 -18.0135 -21.0629 -130.2673
#
#
#
# Elastic Compliance Matrix: (Units=1/GPa)
#
#
# Indices 1 2 3 4 5 6 
#
# 1 0.005100 0.008054 -0.002685 -0.003176 0.002719 0.000000
# 2 0.008054 0.005101 -0.002685 0.003176 -0.002719 0.000001
# 3 -0.002685 -0.002685 0.009858 0.000000 0.000000 0.000000
# 4 -0.003176 0.003176 0.000000 0.039288 0.000000 -0.005433
# 5 0.002719 -0.002719 0.000000 0.000000 0.039286 -0.006352
# 6 0.000000 0.000001 0.000000 -0.005433 -0.006352 -0.005898
#
#
# Mechanical properties :
#
#
# Convention : Reuss Voigt Hill
#
# Bulk Modulus (GPa) = 39.32811 42.04128 40.68469
# Shear Modulus (GPa) = 52.16902 -36.89856 7.63523
#
# Velocity S-wave (km/s) = 5.20585 -4.37814 1.99157
# Velocity P-wave (km/s) = 7.52095 1.92817 5.14037
#
# Compressibility (1/GPa) = 0.02542711
#
# Stress axis : x y z
#
# Youngs Moduli (GPa) = 196.06028 196.04546 101.44478
#
# Poissons Ratio (x) = -1.57890 0.27237
# Poissons Ratio (y) = -1.57902 0.27236
# Poissons Ratio (z) = 0.52640 0.52634
#
# Static dielectric constant tensor:
#      x y z
#    x 3.428930 0.000000 0.000000 
#    y 0.000000 3.428930 0.000000 
#    z 0.000000 0.000000 4.136360 
# 
# 
# High freq. dielectric constant tensor:
#      x y z
#    x 1.743440 0.000000 0.000000 
#    y 0.000000 1.743440 0.000000 
#    z 0.000000 0.000000 1.771050 
# 
# From -- ./inp_files/1051.got.cif
#   From: 2010.03.12/outbox.cif.g09.slc.cpg/sg147_cif.got.tgz:1051.got - 2010.04.03 13:37:56.
