data_PCOD8321738
_publ_section_title
;
Structure prediction by ZEFSAII (Michael W. Deem and Ramdas Pophale) SiO2 
 PCOD8321738
Probable space group: R -3
;
_chemical_formula_sum "Si O2"
_cell_formula_units_Z 54
_cell_length_a 20.492917
_cell_length_b 20.492917
_cell_length_c 5.884803
_cell_angle_alpha 90.000000
_cell_angle_beta 90.000000
_cell_angle_gamma 120.000000
_cell_volume 2140.277682
_symmetry_space_group_name_H-M "R -3"
_symmetry_group_IT_number 148
_symmetry_cell_setting 'hexagonal'
loop_
_space_group_symop_operation_xyz
x,y,z
-y,x-y,z
-x+y,-x,z
-x,-y,-z
y,-x+y,-z
x-y,x,-z
2/3+x,1/3+y,1/3+z
2/3-y,1/3+x-y,1/3+z
2/3-x+y,1/3-x,1/3+z
2/3-x,1/3-y,1/3-z
2/3+y,1/3-x+y,1/3-z
2/3+x-y,1/3+x,1/3-z
1/3+x,2/3+y,2/3+z
1/3-y,2/3+x-y,2/3+z
1/3-x+y,2/3-x,2/3+z
1/3-x,2/3-y,2/3-z
1/3+y,2/3-x+y,2/3-z
1/3+x-y,2/3+x,2/3-z
loop_
_atom_site_type_symbol
_atom_site_label
_atom_site_fract_x
_atom_site_fract_y
_atom_site_fract_z
Si Si1 0.938347 0.195383 0.867820
Si Si2 0.601925 0.054885 0.122759
Si Si3 0.313129 0.517609 0.113344
O O1 0.852624 0.132628 0.942142
O O2 0.936939 0.242968 0.648113
O O3 0.984208 0.153778 0.791702
O O4 0.985908 0.249969 0.076866
O O5 0.609827 0.105293 0.907138
O O6 0.248658 0.538190 0.059637
#
# Coordination Sequence:
#
# PCOD8321738 Si02
#       3
#    18  18  18
#     4  10  22  40  63  92 126 165 210 259 312 373
#     4  10  22  40  63  92 126 165 210 259 312 373
#     4  10  21  38  62  92 125 162 206 258 316 376
#
# _framework density 25.230373
#
# number of rings (size 3 to 8) (size 9 to 14) (size 15 to 20)
#    0.000    2.000    0.000    2.333    0.000    5.333 
#    0.000   10.000    0.000   16.667    0.000    0.000 
#    0.000    0.000    0.000    0.000    0.000    1.333 
#
# Total GULP energy -223180.834310 kJ/mol
# GULP energy per Si atom -12398.935239 kJ/mol
# Density = 2.517295 g / cm^3
# Si number density = 25.230373 Si / 1000 Ang^3
#
#
#
# Elastic Constant Matrix: (Units=GPa)
#
#
# Indices 1 2 3 4 5 6 
#
# 1 95.6741 22.6436 9.5034 7.7347 -1.8210 0.0584
# 2 22.6436 95.3392 8.8494 -7.4086 2.0131 0.0534
# 3 9.5034 8.8494 38.8911 0.5390 0.4169 0.2048
# 4 7.7347 -7.4086 0.5390 34.6312 0.2429 2.0234
# 5 -1.8210 2.0131 0.4169 0.2429 34.7454 7.6683
# 6 0.0584 0.0534 0.2048 2.0234 7.6683 36.3377
#
#
#
# Elastic Compliance Matrix: (Units=1/GPa)
#
#
# Indices 1 2 3 4 5 6 
#
# 1 0.011606 -0.002819 -0.002159 -0.003167 0.000819 0.000001
# 2 -0.002819 0.011605 -0.001987 0.003149 -0.000817 -0.000004
# 3 -0.002159 -0.001987 0.026701 -0.000353 -0.000303 -0.000061
# 4 -0.003167 0.003149 -0.000353 0.030360 -0.000193 -0.001647
# 5 0.000819 -0.000817 -0.000303 -0.000193 0.030284 -0.006378
# 6 0.000001 -0.000004 -0.000061 -0.001647 -0.006378 0.028958
#
#
# Mechanical properties :
#
#
# Convention : Reuss Voigt Hill
#
# Bulk Modulus (GPa) = 27.79246 34.65523 31.22384
# Shear Modulus (GPa) = 30.22301 33.73674 31.97988
#
# Velocity S-wave (km/s) = 3.46480 3.66067 3.56408
# Velocity P-wave (km/s) = 5.20056 5.62429 5.41657
#
# Compressibility (1/GPa) = 0.03598099
#
# Stress axis : x y z
#
# Youngs Moduli (GPa) = 86.16546 86.17082 37.45186
#
# Poissons Ratio (x) = 0.24295 0.08087
# Poissons Ratio (y) = 0.24294 0.07440
# Poissons Ratio (z) = 0.18606 0.17118
#
# Static dielectric constant tensor:
#      x y z
#    x 4.812680 -0.000300 -0.000710 
#    y -0.000300 4.812820 -0.000540 
#    z -0.000710 -0.000540 3.834160 
# 
# 
# High freq. dielectric constant tensor:
#      x y z
#    x 2.019360 -0.000010 -0.000080 
#    y -0.000010 2.019410 -0.000010 
#    z -0.000080 -0.000010 1.959010 
# 
# From -- ./inp_files/256.got.cif
#   From: 2010.03.12/outbox.cif.g09.slc.cpg/sg148_1_cif.got.tgz:256.got - 2010.04.03 13:38:46.
