data_PCOD8321223
_publ_section_title
;
Structure prediction by ZEFSAII (Michael W. Deem and Ramdas Pophale) SiO2 
 PCOD8321223
Probable space group: I 41/A C D
;
_chemical_formula_sum "Si O2"
_cell_formula_units_Z 112
_cell_length_a 17.597592
_cell_length_b 17.597592
_cell_length_c 18.630144
_cell_angle_alpha 90.000000
_cell_angle_beta 90.000000
_cell_angle_gamma 90.000000
_cell_volume 5769.294393
_symmetry_space_group_name_H-M "I 41/A C D"
_symmetry_group_IT_number 142
_space_group.IT_coordinate_system_code '2'
_symmetry_cell_setting 'tetragonal'
loop_
_space_group_symop_operation_xyz
x,y,z
1/4-y,3/4+x,1/4+z
-x,1/2-y,z
1/4+y,1/4-x,3/4+z
x,-y,1/2-z
1/2-x,y,-z
3/4+y,1/4+x,1/4-z
1/4-y,1/4-x,1/4-z
-x,-y,-z
3/4+y,1/4-x,3/4-z
x,1/2+y,-z
3/4-y,3/4+x,1/4-z
-x,y,1/2+z
1/2+x,-y,z
1/4-y,3/4-x,3/4+z
3/4+y,3/4+x,3/4+z
1/2+x,1/2+y,1/2+z
3/4-y,1/4+x,3/4+z
1/2-x,-y,1/2+z
3/4+y,3/4-x,1/4+z
1/2+x,1/2-y,-z
-x,1/2+y,1/2-z
1/4+y,3/4+x,3/4-z
3/4-y,3/4-x,3/4-z
1/2-x,1/2-y,1/2-z
1/4+y,3/4-x,1/4-z
1/2+x,y,1/2-z
1/4-y,1/4+x,3/4-z
1/2-x,1/2+y,z
x,1/2-y,1/2+z
3/4-y,1/4-x,1/4+z
1/4+y,1/4+x,1/4+z
loop_
_atom_site_type_symbol
_atom_site_label
_atom_site_fract_x
_atom_site_fract_y
_atom_site_fract_z
Si Si1 0.317831 0.661565 0.173469
Si Si2 0.238737 0.988737 0.375000
Si Si3 0.004828 0.961675 0.174343
Si Si4 0.659837 0.129802 0.172377
O O1 0.392781 0.642781 0.125000
O O2 0.266378 0.584437 0.178021
O O3 0.276367 0.732210 0.135835
O O4 0.334281 0.681866 0.256111
O O5 0.319101 0.979592 0.416208
O O6 0.934489 0.910544 0.147188
O O7 0.080266 0.912566 0.181134
O O8 0.983999 0.000000 0.250000
#
# Coordination Sequence:
#
# PCOD8321223 Si02
#       4
#    32  16  32  32
#     4   9  17  35  61  76 109 149 194 236 293 342
#     4   8  18  32  60  82 109 137 192 256 286 336
#     4  11  22  36  56  90 116 154 197 249 296 367
#     4  11  20  36  58  84 117 153 196 241 305 355
#
# _framework density 19.413118999999998
#
# number of rings (size 3 to 8) (size 9 to 14) (size 15 to 20)
#    0.857    1.143    2.857    1.714    0.000    5.143 
#    0.000    0.000    0.000    0.000    0.000    0.000 
#    0.000    0.000    0.000    0.000    0.000    0.000 
#
# Total GULP energy -693773.557136 kJ/mol
# GULP energy per Si atom -12388.813520 kJ/mol
# Density = 1.936893 g / cm^3
# Si number density = 19.413119 Si / 1000 Ang^3
#
#
#
# Elastic Constant Matrix: (Units=GPa)
#
#
# Indices 1 2 3 4 5 6 
#
# 1 33.0351 0.7757 27.6203 0.0000 0.0000 0.0000
# 2 0.7757 33.0351 27.6203 0.0000 0.0000 0.0000
# 3 27.6203 27.6203 144.7230 0.0000 0.0000 0.0000
# 4 0.0000 0.0000 0.0000 25.4067 0.0000 0.0000
# 5 0.0000 0.0000 0.0000 0.0000 25.4067 0.0000
# 6 0.0000 0.0000 0.0000 0.0000 0.0000 11.6760
#
#
#
# Elastic Compliance Matrix: (Units=1/GPa)
#
#
# Indices 1 2 3 4 5 6 
#
# 1 0.036988 0.005989 -0.008202 0.000000 0.000000 0.000000
# 2 0.005989 0.036988 -0.008202 0.000000 0.000000 0.000000
# 3 -0.008202 -0.008202 0.010041 0.000000 0.000000 0.000000
# 4 0.000000 0.000000 0.000000 0.039360 0.000000 0.000000
# 5 0.000000 0.000000 0.000000 0.000000 0.039360 0.000000
# 6 0.000000 0.000000 0.000000 0.000000 0.000000 0.085646
#
#
# Mechanical properties :
#
#
# Convention : Reuss Voigt Hill
#
# Bulk Modulus (GPa) = 15.82624 35.86955 25.84789
# Shear Modulus (GPa) = 17.22510 22.81632 20.02071
#
# Velocity S-wave (km/s) = 2.98198 3.43199 3.21487
# Velocity P-wave (km/s) = 4.47507 5.84994 5.20808
#
# Compressibility (1/GPa) = 0.06318621
#
# Stress axis : x y z
#
# Youngs Moduli (GPa) = 27.03579 27.03578 99.59635
#
# Poissons Ratio (x) = -0.16192 0.81691
# Poissons Ratio (y) = -0.16192 0.81691
# Poissons Ratio (z) = 0.22175 0.22175
#
# Static dielectric constant tensor:
#      x y z
#    x 3.241800 0.000000 0.000000 
#    y 0.000000 3.241800 0.000000 
#    z 0.000000 0.000000 3.533300 
# 
# 
# High freq. dielectric constant tensor:
#      x y z
#    x 1.724780 0.000000 0.000000 
#    y 0.000000 1.724780 0.000000 
#    z 0.000000 0.000000 1.765600 
# 
# From -- ./inp_files/6853.got.cif
#   From: 2010.03.12/outbox.cif.g09.slc.cpg/sg142_4_cif.got.tgz:6853.got - 2010.04.03 13:27:16.
