data_PCOD8321386
_publ_section_title
;
Structure prediction by ZEFSAII (Michael W. Deem and Ramdas Pophale) SiO2 
 PCOD8321386
Probable space group: P 31
;
_chemical_formula_sum "Si O2"
_cell_formula_units_Z 21
_cell_length_a 9.061420
_cell_length_b 9.061420
_cell_length_c 12.764214
_cell_angle_alpha 90.000000
_cell_angle_beta 90.000000
_cell_angle_gamma 120.000000
_cell_volume 907.647529
_symmetry_space_group_name_H-M "P 31"
_symmetry_group_IT_number 144
_symmetry_cell_setting 'hexagonal'
loop_
_space_group_symop_operation_xyz
x,y,z
-y,x-y,1/3+z
-x+y,-x,2/3+z
loop_
_atom_site_type_symbol
_atom_site_label
_atom_site_fract_x
_atom_site_fract_y
_atom_site_fract_z
Si Si1 0.669942 0.580965 0.924570
Si Si2 0.005760 0.874551 0.539745
Si Si3 0.464542 0.792116 0.208700
Si Si4 0.995142 0.862391 0.033554
Si Si5 0.586981 0.253647 0.040889
Si Si6 0.466084 0.804275 0.714891
Si Si7 0.422310 0.085702 0.823874
O O1 0.516264 0.620877 0.925391
O O2 0.704564 0.530389 0.809532
O O3 0.844181 0.746436 0.954746
O O4 0.616498 0.438869 0.014055
O O5 0.971960 0.916546 0.656783
O O6 0.817070 0.771280 0.489720
O O7 0.087280 0.753946 0.540889
O O8 0.130207 0.050317 0.479664
O O9 0.413223 0.616350 0.268781
O O10 0.388747 0.750120 0.091662
O O11 0.129134 0.795800 0.040889
O O12 0.772202 0.283164 0.067723
O O13 0.507508 0.136278 0.938912
O O14 0.431078 0.920231 0.793698
#
# Coordination Sequence:
#
# PCOD8321386 Si02
#       7
#     3   3   3   3   3   3   3
#     4  11  24  46  77 105 143 188 239 297 358 427
#     4  12  27  46  70 106 143 190 237 303 354 418
#     4  12  27  46  70 106 143 190 237 303 354 418
#     4  12  28  46  72 106 144 192 241 296 356 428
#     4  10  22  44  78 108 140 184 240 290 360 422
#     4  12  28  46  72 106 144 192 241 296 356 428
#     4  11  24  46  77 105 143 188 239 297 358 427
#
# _framework density 23.136735999999999
#
# number of rings (size 3 to 8) (size 9 to 14) (size 15 to 20)
#    0.000    0.571    4.286    3.429    6.000    6.857 
#    0.000    0.000    0.000    0.000    0.000    0.000 
#    0.000    0.000    0.000    0.000    0.000    0.000 
#
# Total GULP energy -260376.568511 kJ/mol
# GULP energy per Si atom -12398.884215 kJ/mol
# Density = 2.308408 g / cm^3
# Si number density = 23.136736 Si / 1000 Ang^3
#
#
#
# Elastic Constant Matrix: (Units=GPa)
#
#
# Indices 1 2 3 4 5 6 
#
# 1 116.4148 30.3023 45.9108 11.8241 -0.0001 0.0000
# 2 30.3023 116.4148 45.9108 -11.8241 0.0001 0.0000
# 3 45.9108 45.9108 95.6702 0.0000 0.0000 0.0000
# 4 11.8241 -11.8241 0.0000 37.0528 0.0000 0.0001
# 5 -0.0001 0.0001 0.0000 0.0000 37.0528 11.8241
# 6 0.0000 0.0000 0.0000 0.0001 11.8241 43.0563
#
#
#
# Elastic Compliance Matrix: (Units=1/GPa)
#
#
# Indices 1 2 3 4 5 6 
#
# 1 0.011235 -0.001493 -0.004675 -0.004062 0.000000 0.000000
# 2 -0.001493 0.011235 -0.004675 0.004062 0.000000 0.000000
# 3 -0.004675 -0.004675 0.014939 0.000000 0.000000 0.000000
# 4 -0.004062 0.004062 0.000000 0.029581 0.000000 0.000000
# 5 0.000000 0.000000 0.000000 0.000000 0.029581 -0.008124
# 6 0.000000 0.000000 0.000000 0.000000 -0.008124 0.025456
#
#
# Mechanical properties :
#
#
# Convention : Reuss Voigt Hill
#
# Bulk Modulus (GPa) = 63.60066 63.63862 63.61964
# Shear Modulus (GPa) = 33.56739 37.19076 35.37908
#
# Velocity S-wave (km/s) = 3.81310 4.01363 3.91465
# Velocity P-wave (km/s) = 6.85092 7.00315 6.92745
#
# Compressibility (1/GPa) = 0.01572311
#
# Stress axis : x y z
#
# Youngs Moduli (GPa) = 89.00880 89.00880 66.93733
#
# Poissons Ratio (x) = 0.13292 0.31292
# Poissons Ratio (y) = 0.13292 0.31292
# Poissons Ratio (z) = 0.41610 0.41610
#
# Static dielectric constant tensor:
#      x y z
#    x 4.279180 0.000000 0.000000 
#    y 0.000000 4.279180 0.000000 
#    z 0.000000 0.000000 4.196790 
# 
# 
# High freq. dielectric constant tensor:
#      x y z
#    x 1.923590 0.000000 0.000000 
#    y 0.000000 1.923590 0.000000 
#    z 0.000000 0.000000 1.915890 
# 
# From -- ./inp_files/594.got.cif
#   From: 2010.03.12/outbox.cif.g09.slc.cpg/sg144_cif.got.tgz:594.got - 2010.04.03 13:34:42.
