data_PCOD8321072
_publ_section_title
;
Structure prediction by ZEFSAII (Michael W. Deem and Ramdas Pophale) SiO2 
 PCOD8321072
Probable space group: I 41/A C D
;
_chemical_formula_sum "Si O2"
_cell_formula_units_Z 160
_cell_length_a 20.475945
_cell_length_b 20.475945
_cell_length_c 19.850912
_cell_angle_alpha 90.000000
_cell_angle_beta 90.000000
_cell_angle_gamma 90.000000
_cell_volume 8322.779193
_symmetry_space_group_name_H-M "I 41/A C D"
_symmetry_group_IT_number 142
_space_group.IT_coordinate_system_code '2'
_symmetry_cell_setting 'tetragonal'
loop_
_space_group_symop_operation_xyz
x,y,z
1/4-y,3/4+x,1/4+z
-x,1/2-y,z
1/4+y,1/4-x,3/4+z
x,-y,1/2-z
1/2-x,y,-z
3/4+y,1/4+x,1/4-z
1/4-y,1/4-x,1/4-z
-x,-y,-z
3/4+y,1/4-x,3/4-z
x,1/2+y,-z
3/4-y,3/4+x,1/4-z
-x,y,1/2+z
1/2+x,-y,z
1/4-y,3/4-x,3/4+z
3/4+y,3/4+x,3/4+z
1/2+x,1/2+y,1/2+z
3/4-y,1/4+x,3/4+z
1/2-x,-y,1/2+z
3/4+y,3/4-x,1/4+z
1/2+x,1/2-y,-z
-x,1/2+y,1/2-z
1/4+y,3/4+x,3/4-z
3/4-y,3/4-x,3/4-z
1/2-x,1/2-y,1/2-z
1/4+y,3/4-x,1/4-z
1/2+x,y,1/2-z
1/4-y,1/4+x,3/4-z
1/2-x,1/2+y,z
x,1/2-y,1/2+z
3/4-y,1/4-x,1/4+z
1/4+y,1/4+x,1/4+z
loop_
_atom_site_type_symbol
_atom_site_label
_atom_site_fract_x
_atom_site_fract_y
_atom_site_fract_z
Si Si1 0.143051 0.696509 0.415568
Si Si2 0.422789 0.759972 0.470463
Si Si3 0.744445 0.695328 0.194514
Si Si4 0.872259 0.847004 0.626156
Si Si5 0.673079 0.573947 0.256809
O O1 0.082982 0.667018 0.375000
O O2 0.114591 0.757278 0.457997
O O3 0.195542 0.722373 0.362217
O O4 0.177100 0.643628 0.464171
O O5 0.500000 0.750000 0.480314
O O6 0.392960 0.823773 0.434303
O O7 0.406156 0.695957 0.429634
O O8 0.750000 0.750000 0.250000
O O9 0.814372 0.690697 0.161396
O O10 0.723575 0.625071 0.224252
O O11 0.845364 0.910786 0.585326
O O12 0.701886 0.500000 0.250000
#
# Coordination Sequence:
#
# PCOD8321072 Si02
#       5
#    32  32  32  32  32
#     4   9  21  38  59  89 119 159 207 248 306 374
#     4  11  21  36  61  89 123 159 199 253 314 375
#     4  11  23  38  64  92 119 160 212 264 304 370
#     4  11  20  37  61  89 120 158 203 251 316 371
#     4  10  20  39  64  87 117 166 210 247 302 382
#
# _framework density 19.224347999999999
#
# number of rings (size 3 to 8) (size 9 to 14) (size 15 to 20)
#    0.000    1.600    4.000    1.200    5.600    0.400 
#    0.000    0.000   13.200    0.000    0.000    0.000 
#    0.000    0.000    0.000    0.000    0.000    0.000 
#
# Total GULP energy -991482.274052 kJ/mol
# GULP energy per Si atom -12393.528426 kJ/mol
# Density = 1.918059 g / cm^3
# Si number density = 19.224348 Si / 1000 Ang^3
#
#
#
# Elastic Constant Matrix: (Units=GPa)
#
#
# Indices 1 2 3 4 5 6 
#
# 1 91.7495 19.9755 38.8418 0.0000 0.0000 0.0000
# 2 19.9755 91.7540 38.8430 0.0000 0.0000 0.0000
# 3 38.8418 38.8430 110.2829 0.0000 0.0000 0.0000
# 4 0.0000 0.0000 0.0000 16.5610 0.0000 0.0000
# 5 0.0000 0.0000 0.0000 0.0000 16.5599 0.0000
# 6 0.0000 0.0000 0.0000 0.0000 0.0000 19.8513
#
#
#
# Elastic Compliance Matrix: (Units=1/GPa)
#
#
# Indices 1 2 3 4 5 6 
#
# 1 0.012893 -0.001040 -0.004175 0.000000 0.000000 0.000000
# 2 -0.001040 0.012892 -0.004175 0.000000 0.000000 0.000000
# 3 -0.004175 -0.004175 0.012008 0.000000 0.000000 0.000000
# 4 0.000000 0.000000 0.000000 0.060383 0.000000 0.000000
# 5 0.000000 0.000000 0.000000 0.000000 0.060387 0.000000
# 6 0.000000 0.000000 0.000000 0.000000 0.000000 0.050375
#
#
# Mechanical properties :
#
#
# Convention : Reuss Voigt Hill
#
# Bulk Modulus (GPa) = 52.58851 54.34522 53.46687
# Shear Modulus (GPa) = 21.36257 23.66952 22.51604
#
# Velocity S-wave (km/s) = 3.33712 3.51269 3.42603
# Velocity P-wave (km/s) = 6.50100 6.69196 6.59717
#
# Compressibility (1/GPa) = 0.01901556
#
# Stress axis : x y z
#
# Youngs Moduli (GPa) = 77.56177 77.56546 83.27539
#
# Poissons Ratio (x) = 0.08063 0.34766
# Poissons Ratio (y) = 0.08063 0.34765
# Poissons Ratio (z) = 0.32380 0.32381
#
# Static dielectric constant tensor:
#      x y z
#    x 3.502130 0.000000 0.000000 
#    y 0.000000 3.502130 0.000000 
#    z 0.000000 0.000000 4.103000 
# 
# 
# High freq. dielectric constant tensor:
#      x y z
#    x 1.732040 0.000000 0.000000 
#    y 0.000000 1.732040 0.000000 
#    z 0.000000 0.000000 1.766210 
# 
# From -- ./inp_files/7353.got.cif
#   From: 2010.03.12/outbox.cif.g09.slc.cpg/sg142_4_cif.got.tgz:7353.got - 2010.04.03 13:27:16.
