data_PCOD8321975
_publ_section_title
;
Structure prediction by ZEFSAII (Michael W. Deem and Ramdas Pophale) SiO2 
 PCOD8321975
Probable space group: P 31 1 2
;
_chemical_formula_sum "Si O2"
_cell_formula_units_Z 45
_cell_length_a 15.142783
_cell_length_b 15.142783
_cell_length_c 12.407544
_cell_angle_alpha 90.000000
_cell_angle_beta 90.000000
_cell_angle_gamma 120.000000
_cell_volume 2463.927095
_symmetry_space_group_name_H-M "P 31 1 2"
_symmetry_group_IT_number 151
_symmetry_cell_setting 'hexagonal'
loop_
_space_group_symop_operation_xyz
x,y,z
-y,x-y,1/3+z
-x+y,-x,2/3+z
-y,-x,2/3-z
-x+y,y,1/3-z
x,x-y,-z
loop_
_atom_site_type_symbol
_atom_site_label
_atom_site_fract_x
_atom_site_fract_y
_atom_site_fract_z
Si Si1 0.682508 0.853567 0.114379
Si Si2 0.663194 0.540716 0.007929
Si Si3 0.466069 0.335475 0.031458
Si Si4 0.755154 0.125816 0.579339
Si Si5 0.302439 0.250817 0.473529
Si Si6 0.978981 0.021020 0.333334
Si Si7 0.950179 0.114310 0.540427
Si Si8 0.034657 0.419636 0.486295
O O1 0.716864 0.781520 0.171836
O O2 0.607316 0.874628 0.189372
O O3 0.780060 0.961128 0.080881
O O4 0.625172 0.812586 0.000000
O O5 0.584122 0.421869 0.026522
O O6 0.685350 0.597335 0.121828
O O7 0.762634 0.546442 0.955232
O O8 0.624988 0.596944 0.928508
O O9 0.422508 0.329531 0.152384
O O10 0.454068 0.227034 0.000000
O O11 0.405197 0.368126 0.950173
O O12 0.717833 0.051746 0.682698
O O13 0.850095 0.122469 0.526457
O O14 0.259147 0.129574 0.500000
O O15 0.985183 0.097370 0.424677
O O16 0.094128 0.068854 0.290496
O O17 0.082479 0.541240 0.500000
#
# Coordination Sequence:
#
# PCOD8321975 Si02
#       8
#     6   6   6   6   6   3   6   6
#     4  12  19  33  63  84 110 157 193 235 300 337
#     4  10  20  39  57  82 111 148 195 246 280 345
#     4  11  22  38  61  80 116 155 190 243 297 349
#     4  11  22  39  52  82 119 156 192 238 293 347
#     4  10  22  37  55  87 123 150 191 238 283 362
#     4  10  24  32  48  82 118 160 200 222 272 348
#     4  11  21  34  51  79 118 157 191 237 272 344
#     4  10  21  38  59  89 112 140 203 256 287 344
#
# _framework density 18.263527
#
# number of rings (size 3 to 8) (size 9 to 14) (size 15 to 20)
#    0.000    1.333    4.667    1.600    4.667    0.533 
#    7.200    0.000    0.000    0.000    3.467    0.000 
#    0.000    0.000    0.000    0.000    0.000    0.000 
#
# Total GULP energy -557899.522057 kJ/mol
# GULP energy per Si atom -12397.767157 kJ/mol
# Density = 1.822196 g / cm^3
# Si number density = 18.263527 Si / 1000 Ang^3
#
#
#
# Elastic Constant Matrix: (Units=GPa)
#
#
# Indices 1 2 3 4 5 6 
#
# 1 97.0013 39.2434 51.8112 -0.0001 0.9655 0.0000
# 2 39.2434 97.0013 51.8112 0.0001 -0.9655 0.0000
# 3 51.8112 51.8112 123.1438 0.0000 0.0000 0.0000
# 4 -0.0001 0.0001 0.0000 18.9922 0.0000 -0.9655
# 5 0.9655 -0.9655 0.0000 0.0000 18.9922 -0.0001
# 6 0.0000 0.0000 0.0000 -0.9655 -0.0001 28.8789
#
#
#
# Elastic Compliance Matrix: (Units=1/GPa)
#
#
# Indices 1 2 3 4 5 6 
#
# 1 0.014068 -0.003275 -0.004541 0.000000 -0.000882 0.000000
# 2 -0.003275 0.014068 -0.004541 0.000000 0.000882 0.000000
# 3 -0.004541 -0.004541 0.011942 0.000000 0.000000 0.000000
# 4 0.000000 0.000000 0.000000 0.052743 0.000000 0.001763
# 5 -0.000882 0.000882 0.000000 0.000000 0.052743 0.000000
# 6 0.000000 0.000000 0.000000 0.001763 0.000000 0.034686
#
#
# Mechanical properties :
#
#
# Convention : Reuss Voigt Hill
#
# Bulk Modulus (GPa) = 65.08673 66.98646 66.03660
# Shear Modulus (GPa) = 23.79966 24.99135 24.39551
#
# Velocity S-wave (km/s) = 3.61380 3.70317 3.65876
# Velocity P-wave (km/s) = 7.28887 7.41903 7.35424
#
# Compressibility (1/GPa) = 0.01536411
#
# Stress axis : x y z
#
# Youngs Moduli (GPa) = 71.08125 71.08125 83.73813
#
# Poissons Ratio (x) = 0.23277 0.38028
# Poissons Ratio (y) = 0.23277 0.38028
# Poissons Ratio (z) = 0.32280 0.32280
#
# Static dielectric constant tensor:
#      x y z
#    x 3.399520 0.000000 0.000000 
#    y 0.000000 3.399520 0.000000 
#    z 0.000000 0.000000 3.577770 
# 
# 
# High freq. dielectric constant tensor:
#      x y z
#    x 1.688930 0.000000 0.000000 
#    y 0.000000 1.688930 0.000000 
#    z 0.000000 0.000000 1.722310 
# 
# From -- ./inp_files/2666.got.cif
#   From: 2010.03.12/outbox.cif.g09.slc.cpg/sg151_2_cif.got.tgz:2666.got - 2010.04.03 13:42:29.
