data_PCOD8321162
_publ_section_title
;
Structure prediction by ZEFSAII (Michael W. Deem and Ramdas Pophale) SiO2 
 PCOD8321162
Probable space group: I 41/A C D
;
_chemical_formula_sum "Si O2"
_cell_formula_units_Z 96
_cell_length_a 23.392726
_cell_length_b 23.392726
_cell_length_c 8.276765
_cell_angle_alpha 90.000000
_cell_angle_beta 90.000000
_cell_angle_gamma 90.000000
_cell_volume 4529.208279
_symmetry_space_group_name_H-M "I 41/A C D"
_symmetry_group_IT_number 142
_space_group.IT_coordinate_system_code '2'
_symmetry_cell_setting 'tetragonal'
loop_
_space_group_symop_operation_xyz
x,y,z
1/4-y,3/4+x,1/4+z
-x,1/2-y,z
1/4+y,1/4-x,3/4+z
x,-y,1/2-z
1/2-x,y,-z
3/4+y,1/4+x,1/4-z
1/4-y,1/4-x,1/4-z
-x,-y,-z
3/4+y,1/4-x,3/4-z
x,1/2+y,-z
3/4-y,3/4+x,1/4-z
-x,y,1/2+z
1/2+x,-y,z
1/4-y,3/4-x,3/4+z
3/4+y,3/4+x,3/4+z
1/2+x,1/2+y,1/2+z
3/4-y,1/4+x,3/4+z
1/2-x,-y,1/2+z
3/4+y,3/4-x,1/4+z
1/2+x,1/2-y,-z
-x,1/2+y,1/2-z
1/4+y,3/4+x,3/4-z
3/4-y,3/4-x,3/4-z
1/2-x,1/2-y,1/2-z
1/4+y,3/4-x,1/4-z
1/2+x,y,1/2-z
1/4-y,1/4+x,3/4-z
1/2-x,1/2+y,z
x,1/2-y,1/2+z
3/4-y,1/4-x,1/4+z
1/4+y,1/4+x,1/4+z
loop_
_atom_site_type_symbol
_atom_site_label
_atom_site_fract_x
_atom_site_fract_y
_atom_site_fract_z
Si Si1 0.044253 0.818074 0.047869
Si Si2 0.325118 0.500000 0.250000
Si Si3 0.476228 0.500000 0.750000
Si Si4 0.074045 0.056848 0.440145
O O1 0.077529 0.772151 0.157484
O O2 0.080665 0.875623 0.045801
O O3 0.040425 0.790425 0.875000
O O4 0.286731 0.536731 0.125000
O O5 0.366310 0.461879 0.138442
O O6 0.518406 0.546486 0.829038
O O7 0.435168 0.528219 0.615749
#
# Coordination Sequence:
#
# PCOD8321162 Si02
#       4
#    32  16  16  32
#     4  11  23  37  59  93 130 164 200 243 302 381
#     4  11  28  47  66  90 120 163 220 277 322 378
#     4   9  20  39  66 100 124 161 222 253 306 400
#     4  10  22  42  66  92 129 168 206 265 321 370
#
# _framework density 21.195757
#
# number of rings (size 3 to 8) (size 9 to 14) (size 15 to 20)
#    0.000    1.667    0.000    4.000    0.000   16.000 
#    0.000    0.000    0.000    0.000    0.000    0.000 
#    0.000    0.000    0.000    0.000    0.000    0.000 
#
# Total GULP energy -594953.706199 kJ/mol
# GULP energy per Si atom -12394.868879 kJ/mol
# Density = 2.114751 g / cm^3
# Si number density = 21.195757 Si / 1000 Ang^3
#
#
#
# Elastic Constant Matrix: (Units=GPa)
#
#
# Indices 1 2 3 4 5 6 
#
# 1 144.9938 62.9234 74.1453 0.0000 0.0000 0.0000
# 2 62.9234 144.9938 74.1453 0.0000 0.0000 0.0000
# 3 74.1453 74.1453 172.3795 0.0000 0.0000 0.0000
# 4 0.0000 0.0000 0.0000 24.8389 0.0000 0.0000
# 5 0.0000 0.0000 0.0000 0.0000 24.8389 0.0000
# 6 0.0000 0.0000 0.0000 0.0000 0.0000 25.3899
#
#
#
# Elastic Compliance Matrix: (Units=1/GPa)
#
#
# Indices 1 2 3 4 5 6 
#
# 1 0.009561 -0.002623 -0.002984 0.000000 0.000000 0.000000
# 2 -0.002623 0.009561 -0.002984 0.000000 0.000000 0.000000
# 3 -0.002984 -0.002984 0.008368 0.000000 0.000000 0.000000
# 4 0.000000 0.000000 0.000000 0.040259 0.000000 0.000000
# 5 0.000000 0.000000 0.000000 0.000000 0.040259 0.000000
# 6 0.000000 0.000000 0.000000 0.000000 0.000000 0.039386
#
#
# Mechanical properties :
#
#
# Convention : Reuss Voigt Hill
#
# Bulk Modulus (GPa) = 97.01716 98.31056 97.66386
# Shear Modulus (GPa) = 29.75924 31.75709 30.75817
#
# Velocity S-wave (km/s) = 3.75109 3.87496 3.81353
# Velocity P-wave (km/s) = 8.03942 8.15495 8.09739
#
# Compressibility (1/GPa) = 0.01030745
#
# Stress axis : x y z
#
# Youngs Moduli (GPa) = 104.58787 104.58787 119.49763
#
# Poissons Ratio (x) = 0.27437 0.35661
# Poissons Ratio (y) = 0.27437 0.35661
# Poissons Ratio (z) = 0.31212 0.31212
#
# Static dielectric constant tensor:
#      x y z
#    x 3.718010 0.000000 0.000000 
#    y 0.000000 3.718010 0.000000 
#    z 0.000000 0.000000 4.155540 
# 
# 
# High freq. dielectric constant tensor:
#      x y z
#    x 1.827570 0.000000 0.000000 
#    y 0.000000 1.827570 0.000000 
#    z 0.000000 0.000000 1.851810 
# 
# From -- ./inp_files/1694.got.cif
#   From: 2010.03.12/outbox.cif.g09.slc.cpg/sg142_1_cif.got.tgz:1694.got - 2010.04.03 13:27:16.
