data_PCOD8321780
_publ_section_title
;
Structure prediction by ZEFSAII (Michael W. Deem and Ramdas Pophale) SiO2 
 PCOD8321780
Probable space group: R -3
;
_chemical_formula_sum "Si O2"
_cell_formula_units_Z 108
_cell_length_a 24.227439
_cell_length_b 24.227439
_cell_length_c 12.492061
_cell_angle_alpha 90.000000
_cell_angle_beta 90.000000
_cell_angle_gamma 120.000000
_cell_volume 6350.088025
_symmetry_space_group_name_H-M "R -3"
_symmetry_group_IT_number 148
_symmetry_cell_setting 'hexagonal'
loop_
_space_group_symop_operation_xyz
x,y,z
-y,x-y,z
-x+y,-x,z
-x,-y,-z
y,-x+y,-z
x-y,x,-z
2/3+x,1/3+y,1/3+z
2/3-y,1/3+x-y,1/3+z
2/3-x+y,1/3-x,1/3+z
2/3-x,1/3-y,1/3-z
2/3+y,1/3-x+y,1/3-z
2/3+x-y,1/3+x,1/3-z
1/3+x,2/3+y,2/3+z
1/3-y,2/3+x-y,2/3+z
1/3-x+y,2/3-x,2/3+z
1/3-x,2/3-y,2/3-z
1/3+y,2/3-x+y,2/3-z
1/3+x-y,2/3+x,2/3-z
loop_
_atom_site_type_symbol
_atom_site_label
_atom_site_fract_x
_atom_site_fract_y
_atom_site_fract_z
Si Si1 0.414035 0.707028 0.367822
Si Si2 0.973343 0.399279 0.881715
Si Si3 0.066351 0.933471 0.059843
Si Si4 0.226970 0.453932 0.278053
Si Si5 0.026700 0.425840 0.117922
Si Si6 0.599194 0.799482 0.515681
O O1 0.369665 0.739351 0.352013
O O2 0.440394 0.720246 0.487312
O O3 0.469239 0.734626 0.278397
O O4 0.906711 0.399390 0.885500
O O5 0.961914 0.333445 0.833014
O O6 0.023627 0.457242 0.806729
O O7 0.000025 0.405042 0.999804
O O8 0.104975 0.894694 0.061545
O O9 0.999842 0.890954 0.000190
O O10 0.267350 0.426632 0.219041
O O11 0.215223 0.430566 0.399002
O O12 0.976387 0.433388 0.193053
#
# Coordination Sequence:
#
# PCOD8321780 Si02
#       6
#    18  18  18  18  18  18
#     4   9  16  28  44  67 102 130 157 191 243 294
#     4   9  17  33  53  70  93 126 168 205 247 293
#     4  11  17  28  47  73 103 134 166 196 238 308
#     4   8  16  32  47  66  90 130 160 194 236 289
#     4   9  17  33  53  70  93 126 168 205 247 293
#     4   8  18  31  47  69  94 129 168 199 237 289
#
# _framework density 17.007638
#
# number of rings (size 3 to 8) (size 9 to 14) (size 15 to 20)
#    0.333    2.667    1.667    2.167    0.000    1.333 
#    6.000    0.000    0.000    1.000    0.000   12.833 
#    0.000    0.000    0.000    0.000    0.000    0.000 
#
# Total GULP energy -446094.471491 kJ/mol
# GULP energy per Si atom -12391.513097 kJ/mol
# Density = 1.696893 g / cm^3
# Si number density = 17.007638 Si / 1000 Ang^3
#
#
#
# Elastic Constant Matrix: (Units=GPa)
#
#
# Indices 1 2 3 4 5 6 
#
# 1 134.0915 74.7594 36.2140 -13.2280 -0.0011 0.0000
# 2 74.7594 134.0915 36.2140 13.2280 0.0011 0.0000
# 3 36.2140 36.2140 34.3343 0.0000 0.0001 0.0000
# 4 -13.2280 13.2280 0.0000 19.3478 0.0000 0.0011
# 5 -0.0011 0.0011 0.0001 0.0000 19.3478 -13.2280
# 6 0.0000 0.0000 0.0000 0.0011 -13.2280 29.6661
#
#
#
# Elastic Compliance Matrix: (Units=1/GPa)
#
#
# Indices 1 2 3 4 5 6 
#
# 1 0.015898 -0.008348 -0.007963 0.016577 0.000002 0.000000
# 2 -0.008348 0.015898 -0.007963 -0.016577 -0.000001 0.000000
# 3 -0.007963 -0.007963 0.045923 0.000000 0.000000 0.000000
# 4 0.016577 -0.016577 0.000000 0.074352 0.000000 -0.000003
# 5 0.000002 -0.000001 0.000000 0.000000 0.074352 0.033153
# 6 0.000000 0.000000 0.000000 -0.000003 0.033153 0.048491
#
#
# Mechanical properties :
#
#
# Convention : Reuss Voigt Hill
#
# Bulk Modulus (GPa) = 34.28098 66.32133 50.30116
# Shear Modulus (GPa) = 15.00664 24.02765 19.51715
#
# Velocity S-wave (km/s) = 2.97366 3.76274 3.39123
# Velocity P-wave (km/s) = 5.65598 7.61297 6.70625
#
# Compressibility (1/GPa) = 0.02917069
#
# Stress axis : x y z
#
# Youngs Moduli (GPa) = 62.90221 62.90235 21.77547
#
# Poissons Ratio (x) = 0.52511 0.17340
# Poissons Ratio (y) = 0.52511 0.17340
# Poissons Ratio (z) = 0.50089 0.50088
#
# Static dielectric constant tensor:
#      x y z
#    x 3.384200 0.000000 0.000000 
#    y 0.000000 3.384200 0.000000 
#    z 0.000000 0.000000 2.841640 
# 
# 
# High freq. dielectric constant tensor:
#      x y z
#    x 1.656680 0.000000 0.000000 
#    y 0.000000 1.656680 0.000000 
#    z 0.000000 0.000000 1.623470 
# 
# From -- ./inp_files/1535.got.cif
#   From: 2010.03.12/outbox.cif.g09.slc.cpg/sg148_1_cif.got.tgz:1535.got - 2010.04.03 13:38:46.
