data_PCOD8321588
_publ_section_title
;
Structure prediction by ZEFSAII (Michael W. Deem and Ramdas Pophale) SiO2 
 PCOD8321588
Probable space group: P -3
;
_chemical_formula_sum "Si O2"
_cell_formula_units_Z 42
_cell_length_a 18.805117
_cell_length_b 18.805117
_cell_length_c 8.911794
_cell_angle_alpha 90.000000
_cell_angle_beta 90.000000
_cell_angle_gamma 120.000000
_cell_volume 2729.278477
_symmetry_space_group_name_H-M "P -3"
_symmetry_group_IT_number 147
_symmetry_cell_setting 'hexagonal'
loop_
_space_group_symop_operation_xyz
x,y,z
-y,x-y,z
-x+y,-x,z
-x,-y,-z
y,-x+y,-z
x-y,x,-z
loop_
_atom_site_type_symbol
_atom_site_label
_atom_site_fract_x
_atom_site_fract_y
_atom_site_fract_z
Si Si1 0.333139 0.812186 0.447633
Si Si2 0.576870 0.641709 0.216899
Si Si3 0.672771 0.471478 0.702152
Si Si4 0.461129 0.607696 0.777342
Si Si5 0.529048 0.742897 0.019872
Si Si6 0.565946 0.898562 0.881024
Si Si7 0.570901 0.534301 0.822005
O O1 0.348490 0.900215 0.386850
O O2 0.379998 0.779701 0.337972
O O3 0.237655 0.743483 0.424862
O O4 0.356815 0.812132 0.618032
O O5 0.586404 0.717166 0.113970
O O6 0.660074 0.634242 0.222412
O O7 0.504717 0.556890 0.145226
O O8 0.710562 0.473436 0.867494
O O9 0.631818 0.529704 0.698654
O O10 0.377286 0.523076 0.802716
O O11 0.539624 0.594941 0.766839
O O12 0.470246 0.670562 0.907457
O O13 0.586252 0.826490 0.922504
O O14 0.569573 0.948963 0.027351
#
# Coordination Sequence:
#
# PCOD8321588 Si02
#       7
#     6   6   6   6   6   6   6
#     4  10  21  32  43  65  91 112 142 186 229 268
#     4   9  16  33  47  58  84 113 145 175 217 272
#     4   9  20  33  45  59  87 121 138 174 232 269
#     4  11  20  32  46  66  86 107 151 194 215 254
#     4  10  19  31  48  64  78 114 148 180 217 258
#     4  10  18  30  48  64  84 111 148 186 217 260
#     4   9  16  32  51  60  78 116 153 176 212 266
#
# _framework density 15.388683
#
# number of rings (size 3 to 8) (size 9 to 14) (size 15 to 20)
#    0.000    2.286    2.857    1.143    4.000    5.143 
#    0.857    0.000    0.000    0.000    0.000    0.000 
#    0.000    0.000    0.000    0.429    0.286    0.000 
#
# Total GULP energy -520323.103890 kJ/mol
# GULP energy per Si atom -12388.645331 kJ/mol
# Density = 1.535366 g / cm^3
# Si number density = 15.388683 Si / 1000 Ang^3
#
#
#
# Elastic Constant Matrix: (Units=GPa)
#
#
# Indices 1 2 3 4 5 6 
#
# 1 61.7847 22.9552 23.0567 2.1128 -3.5145 0.0000
# 2 22.9552 61.7847 23.0567 -2.1128 3.5145 0.0000
# 3 23.0567 23.0567 65.3272 0.0000 0.0000 0.0000
# 4 2.1128 -2.1128 0.0000 16.2360 0.0000 3.5145
# 5 -3.5145 3.5145 0.0000 0.0000 16.2360 2.1128
# 6 0.0000 0.0000 0.0000 3.5145 2.1128 19.4148
#
#
#
# Elastic Compliance Matrix: (Units=1/GPa)
#
#
# Indices 1 2 3 4 5 6 
#
# 1 0.020905 -0.006299 -0.005155 -0.003540 0.005889 0.000000
# 2 -0.006299 0.020905 -0.005155 0.003540 -0.005889 0.000000
# 3 -0.005155 -0.005155 0.018946 0.000000 0.000000 0.000000
# 4 -0.003540 0.003540 0.000000 0.065062 0.000000 -0.011778
# 5 0.005889 -0.005889 0.000000 0.000000 0.065062 -0.007081
# 6 0.000000 0.000000 0.000000 -0.011778 -0.007081 0.054410
#
#
# Mechanical properties :
#
#
# Convention : Reuss Voigt Hill
#
# Bulk Modulus (GPa) = 36.31314 36.33710 36.32512
# Shear Modulus (GPa) = 17.37979 18.36589 17.87284
#
# Velocity S-wave (km/s) = 3.36428 3.45841 3.41167
# Velocity P-wave (km/s) = 6.22412 6.29377 6.25905
#
# Compressibility (1/GPa) = 0.02753824
#
# Stress axis : x y z
#
# Youngs Moduli (GPa) = 47.83433 47.83433 52.78031
#
# Poissons Ratio (x) = 0.30133 0.27209
# Poissons Ratio (y) = 0.30133 0.27209
# Poissons Ratio (z) = 0.24659 0.24659
#
# Static dielectric constant tensor:
#      x y z
#    x 3.006910 0.000000 0.000000 
#    y 0.000000 3.006910 0.000000 
#    z 0.000000 0.000000 2.911370 
# 
# 
# High freq. dielectric constant tensor:
#      x y z
#    x 1.558470 0.000000 0.000000 
#    y 0.000000 1.558470 0.000000 
#    z 0.000000 0.000000 1.593310 
# 
# From -- ./inp_files/697.got.cif
#   From: 2010.03.12/outbox.cif.g09.slc.cpg/sg147_cif.got.tgz:697.got - 2010.04.03 13:37:56.
