data_PCOD8321434
_publ_section_title
;
Structure prediction by ZEFSAII (Michael W. Deem and Ramdas Pophale) SiO2 
 PCOD8321434
Probable space group: P 31
;
_chemical_formula_sum "Si O2"
_cell_formula_units_Z 24
_cell_length_a 13.914754
_cell_length_b 13.914754
_cell_length_c 6.617826
_cell_angle_alpha 90.000000
_cell_angle_beta 90.000000
_cell_angle_gamma 120.000000
_cell_volume 1109.678168
_symmetry_space_group_name_H-M "P 31"
_symmetry_group_IT_number 144
_symmetry_cell_setting 'hexagonal'
loop_
_space_group_symop_operation_xyz
x,y,z
-y,x-y,1/3+z
-x+y,-x,2/3+z
loop_
_atom_site_type_symbol
_atom_site_label
_atom_site_fract_x
_atom_site_fract_y
_atom_site_fract_z
Si Si1 0.398925 0.229043 0.504780
Si Si2 0.618112 0.240521 0.035839
Si Si3 0.186993 0.734330 0.405557
Si Si4 0.429276 0.895321 0.367512
Si Si5 0.836264 0.763523 0.504854
Si Si6 0.683941 0.611281 0.830122
Si Si7 0.160799 0.239609 0.000973
Si Si8 0.324287 0.388818 0.343260
O O1 0.527130 0.293954 0.559008
O O2 0.333294 0.146092 0.683889
O O3 0.383409 0.166412 0.295313
O O4 0.361266 0.319368 0.481194
O O5 0.661803 0.266035 0.266060
O O6 0.502213 0.126578 0.035903
O O7 0.318373 0.786587 0.444123
O O8 0.127177 0.615030 0.512882
O O9 0.141443 0.813308 0.489688
O O10 0.167291 0.720339 0.164665
O O11 0.516530 0.944619 0.551151
O O12 0.385067 0.977795 0.303905
O O13 0.740725 0.714754 0.676763
O O14 0.828756 0.859313 0.384666
O O15 0.956328 0.809206 0.603020
O O16 0.226645 0.305865 0.198039
#
# Coordination Sequence:
#
# PCOD8321434 Si02
#       8
#     3   3   3   3   3   3   3   3
#     4  12  25  42  70  99 142 186 227 287 348 416
#     4  12  25  39  64 103 143 180 227 278 343 420
#     4  11  25  49  72 105 144 180 234 292 359 424
#     4  11  28  43  75 105 137 185 233 288 359 422
#     4  12  26  48  71 101 140 185 244 293 353 416
#     4  12  26  44  69 105 142 184 235 286 352 424
#     4  11  26  47  72 104 138 188 236 296 352 412
#     4  11  25  46  73 100 146 180 232 292 356 418
#
# _framework density 21.627890000000001
#
# number of rings (size 3 to 8) (size 9 to 14) (size 15 to 20)
#    0.000    0.500    5.000    2.250    7.000    5.000 
#    2.250    0.000    0.000    0.000    0.000    0.000 
#    0.000    0.000    0.000    0.000    0.000    0.000 
#
# Total GULP energy -297715.410410 kJ/mol
# GULP energy per Si atom -12404.808767 kJ/mol
# Density = 2.157866 g / cm^3
# Si number density = 21.627890 Si / 1000 Ang^3
#
#
#
# Elastic Constant Matrix: (Units=GPa)
#
#
# Indices 1 2 3 4 5 6 
#
# 1 94.2393 25.4653 27.2539 -5.6890 -4.4416 0.0000
# 2 25.4653 94.2393 27.2539 5.6890 4.4416 0.0000
# 3 27.2539 27.2539 96.6698 0.0000 0.0000 0.0000
# 4 -5.6890 5.6890 0.0000 28.5691 0.0000 4.4416
# 5 -4.4416 4.4416 0.0000 0.0000 28.5691 -5.6890
# 6 0.0000 0.0000 0.0000 4.4416 -5.6890 34.3870
#
#
#
# Elastic Compliance Matrix: (Units=1/GPa)
#
#
# Indices 1 2 3 4 5 6 
#
# 1 0.012469 -0.002885 -0.002702 0.003058 0.002387 0.000000
# 2 -0.002885 0.012469 -0.002702 -0.003058 -0.002387 0.000000
# 3 -0.002702 -0.002702 0.011868 0.000000 0.000000 0.000000
# 4 0.003058 -0.003058 0.000000 0.036963 0.000000 -0.004774
# 5 0.002387 -0.002387 0.000000 0.000000 0.036963 0.006115
# 6 0.000000 0.000000 0.000000 -0.004774 0.006115 0.030709
#
#
# Mechanical properties :
#
#
# Convention : Reuss Voigt Hill
#
# Bulk Modulus (GPa) = 49.43558 49.45497 49.44528
# Shear Modulus (GPa) = 30.34661 31.98339 31.16500
#
# Velocity S-wave (km/s) = 3.74989 3.84969 3.80012
# Velocity P-wave (km/s) = 6.45414 6.53270 6.49353
#
# Compressibility (1/GPa) = 0.02022834
#
# Stress axis : x y z
#
# Youngs Moduli (GPa) = 80.19614 80.19614 84.25960
#
# Poissons Ratio (x) = 0.23138 0.22768
# Poissons Ratio (y) = 0.23138 0.22768
# Poissons Ratio (z) = 0.21670 0.21670
#
# Static dielectric constant tensor:
#      x y z
#    x 3.924960 0.000000 0.000000 
#    y 0.000000 3.924960 0.000000 
#    z 0.000000 0.000000 3.895420 
# 
# 
# High freq. dielectric constant tensor:
#      x y z
#    x 1.854090 0.000000 0.000000 
#    y 0.000000 1.854090 0.000000 
#    z 0.000000 0.000000 1.859280 
# 
# From -- ./inp_files/158.got.cif
#   From: 2010.03.12/outbox.cif.g09.slc.cpg/sg144_cif.got.tgz:158.got - 2010.04.03 13:34:42.
