data_PCOD8321395
_publ_section_title
;
Structure prediction by ZEFSAII (Michael W. Deem and Ramdas Pophale) SiO2 
 PCOD8321395
Probable space group: P 31
;
_chemical_formula_sum "Si O2"
_cell_formula_units_Z 21
_cell_length_a 9.272610
_cell_length_b 9.272610
_cell_length_c 10.571238
_cell_angle_alpha 90.000000
_cell_angle_beta 90.000000
_cell_angle_gamma 120.000000
_cell_volume 787.155384
_symmetry_space_group_name_H-M "P 31"
_symmetry_group_IT_number 144
_symmetry_cell_setting 'hexagonal'
loop_
_space_group_symop_operation_xyz
x,y,z
-y,x-y,1/3+z
-x+y,-x,2/3+z
loop_
_atom_site_type_symbol
_atom_site_label
_atom_site_fract_x
_atom_site_fract_y
_atom_site_fract_z
Si Si1 0.842792 0.814373 0.066300
Si Si2 0.433625 0.772092 0.710953
Si Si3 0.826791 0.359787 0.840314
Si Si4 0.099945 0.705201 0.779315
Si Si5 0.746018 0.536919 0.436286
Si Si6 0.101823 0.681794 0.311636
Si Si7 0.879044 0.881692 0.546919
O O1 0.789271 0.628799 0.106987
O O2 0.868152 0.928802 0.188662
O O3 0.701621 0.819351 0.980755
O O4 0.027448 0.894842 0.005989
O O5 0.251523 0.752671 0.683086
O O6 0.546360 0.835673 0.588345
O O7 0.383179 0.579349 0.736859
O O8 0.523049 0.887115 0.832490
O O9 0.635527 0.317372 0.844353
O O10 0.937193 0.526018 0.757381
O O11 0.892217 0.383997 0.987178
O O12 0.052967 0.851612 0.770699
O O13 0.770896 0.678304 0.539103
O O14 0.912530 0.587657 0.357340
#
# Coordination Sequence:
#
# PCOD8321395 Si02
#       7
#     3   3   3   3   3   3   3
#     4  11  24  47  75 106 148 197 255 307 383 453
#     4  10  23  43  76 105 147 190 251 302 379 449
#     4  12  26  49  73 110 150 195 251 314 384 448
#     4  11  24  44  74 105 144 192 245 309 373 446
#     4  11  28  46  71 108 154 195 248 318 381 448
#     4  10  23  46  73 108 143 196 245 307 375 453
#     4  11  26  45  72 106 144 201 245 313 375 457
#
# _framework density 26.678339999999999
#
# number of rings (size 3 to 8) (size 9 to 14) (size 15 to 20)
#    0.000    1.143    1.429    3.429   10.000    3.429 
#    2.571    0.000    0.000    0.000    0.000    0.000 
#    0.000    0.000    0.000    0.000    0.000    0.000 
#
# Total GULP energy -260268.028616 kJ/mol
# GULP energy per Si atom -12393.715648 kJ/mol
# Density = 2.661762 g / cm^3
# Si number density = 26.678340 Si / 1000 Ang^3
#
#
#
# Elastic Constant Matrix: (Units=GPa)
#
#
# Indices 1 2 3 4 5 6 
#
# 1 127.0704 35.9917 9.5267 -2.3203 0.5541 0.0000
# 2 35.9917 127.0704 9.5267 2.3203 -0.5541 0.0000
# 3 9.5267 9.5267 53.0469 0.0000 0.0000 0.0000
# 4 -2.3203 2.3203 0.0000 31.0857 0.0000 -0.5541
# 5 0.5541 -0.5541 0.0000 0.0000 31.0857 -2.3203
# 6 0.0000 0.0000 0.0000 -0.5541 -2.3203 45.5394
#
#
#
# Elastic Compliance Matrix: (Units=1/GPa)
#
#
# Indices 1 2 3 4 5 6 
#
# 1 0.008644 -0.002380 -0.001125 0.000823 -0.000196 0.000000
# 2 -0.002380 0.008644 -0.001125 -0.000823 0.000196 0.000000
# 3 -0.001125 -0.001125 0.019255 0.000000 0.000000 0.000000
# 4 0.000823 -0.000823 0.000000 0.032299 0.000000 0.000393
# 5 -0.000196 0.000196 0.000000 0.000000 0.032299 0.001646
# 6 0.000000 0.000000 0.000000 0.000393 0.001646 0.022048
#
#
# Mechanical properties :
#
#
# Convention : Reuss Voigt Hill
#
# Bulk Modulus (GPa) = 36.65201 46.36418 41.50810
# Shear Modulus (GPa) = 35.32495 38.35166 36.83831
#
# Velocity S-wave (km/s) = 3.64277 3.79563 3.71999
# Velocity P-wave (km/s) = 5.60905 6.05192 5.83469
#
# Compressibility (1/GPa) = 0.02728363
#
# Stress axis : x y z
#
# Youngs Moduli (GPa) = 115.68775 115.68775 51.93369
#
# Poissons Ratio (x) = 0.27532 0.05842
# Poissons Ratio (y) = 0.27532 0.05842
# Poissons Ratio (z) = 0.13014 0.13014
#
# Static dielectric constant tensor:
#      x y z
#    x 5.020760 0.000000 0.000000 
#    y 0.000000 5.020760 0.000000 
#    z 0.000000 0.000000 4.491410 
# 
# 
# High freq. dielectric constant tensor:
#      x y z
#    x 2.084550 0.000000 0.000000 
#    y 0.000000 2.084550 0.000000 
#    z 0.000000 0.000000 2.047250 
# 
# From -- ./inp_files/606.got.cif
#   From: 2010.03.12/outbox.cif.g09.slc.cpg/sg144_cif.got.tgz:606.got - 2010.04.03 13:34:42.
