data_PCOD8321349
_publ_section_title
;
Structure prediction by ZEFSAII (Michael W. Deem and Ramdas Pophale) SiO2 
 PCOD8321349
Probable space group: P 31
;
_chemical_formula_sum "Si O2"
_cell_formula_units_Z 18
_cell_length_a 8.675120
_cell_length_b 8.675120
_cell_length_c 12.736070
_cell_angle_alpha 90.000000
_cell_angle_beta 90.000000
_cell_angle_gamma 120.000000
_cell_volume 830.074459
_symmetry_space_group_name_H-M "P 31"
_symmetry_group_IT_number 144
_symmetry_cell_setting 'hexagonal'
loop_
_space_group_symop_operation_xyz
x,y,z
-y,x-y,1/3+z
-x+y,-x,2/3+z
loop_
_atom_site_type_symbol
_atom_site_label
_atom_site_fract_x
_atom_site_fract_y
_atom_site_fract_z
Si Si1 0.770650 0.615216 0.345080
Si Si2 0.650623 0.857119 0.291385
Si Si3 0.051193 0.157118 0.746491
Si Si4 0.528859 0.206527 0.906760
Si Si5 0.939206 0.179233 0.399109
Si Si6 0.419771 0.015615 0.272670
O O1 0.611045 0.657403 0.319215
O O2 0.812147 0.514588 0.252990
O O3 0.725632 0.505977 0.451891
O O4 0.948884 0.804875 0.341599
O O5 0.790506 0.928979 0.194761
O O6 0.466589 0.854700 0.262810
O O7 0.751084 0.992396 0.389320
O O8 0.016797 0.311989 0.705566
O O9 0.868243 0.966085 0.738587
O O10 0.582703 0.392856 0.962414
O O11 0.353417 0.050359 0.966091
O O12 0.955248 0.288963 0.502791
#
# Coordination Sequence:
#
# PCOD8321349 Si02
#       6
#     3   3   3   3   3   3
#     4  11  23  42  65  93 133 183 231 284 348 419
#     4  10  23  41  64  99 139 175 228 289 349 418
#     4  11  22  41  68  97 134 177 229 287 347 417
#     4  11  22  42  64  94 133 179 234 281 347 419
#     4  10  19  39  67  95 127 181 230 273 346 413
#     4  11  23  41  68  98 134 177 230 290 345 418
#
# _framework density 21.684802999999999
#
# number of rings (size 3 to 8) (size 9 to 14) (size 15 to 20)
#    0.000    1.333    5.000    2.000    4.667    0.000 
#    3.000    1.667    0.000    0.000    0.000    0.000 
#    0.000    0.000    0.000    0.000    0.000    0.000 
#
# Total GULP energy -223036.756838 kJ/mol
# GULP energy per Si atom -12390.930935 kJ/mol
# Density = 2.163545 g / cm^3
# Si number density = 21.684803 Si / 1000 Ang^3
#
#
#
# Elastic Constant Matrix: (Units=GPa)
#
#
# Indices 1 2 3 4 5 6 
#
# 1 128.6481 47.1347 37.3167 -12.1401 2.6654 0.0000
# 2 47.1347 128.6481 37.3167 12.1401 -2.6654 0.0000
# 3 37.3167 37.3167 66.1779 0.0000 0.0000 0.0000
# 4 -12.1401 12.1401 0.0000 31.4415 0.0000 -2.6654
# 5 2.6654 -2.6654 0.0000 0.0000 31.4415 -12.1401
# 6 0.0000 0.0000 0.0000 -2.6654 -12.1401 40.7567
#
#
#
# Elastic Compliance Matrix: (Units=1/GPa)
#
#
# Indices 1 2 3 4 5 6 
#
# 1 0.010715 -0.003235 -0.004218 0.005386 -0.001183 0.000000
# 2 -0.003235 0.010715 -0.004218 -0.005386 0.001183 0.000000
# 3 -0.004218 -0.004218 0.019867 0.000000 0.000000 0.000000
# 4 0.005386 -0.005386 0.000000 0.036165 0.000000 0.002365
# 5 -0.001183 0.001183 0.000000 0.000000 0.036165 0.010772
# 6 0.000000 0.000000 0.000000 0.002365 0.010772 0.027899
#
#
# Mechanical properties :
#
#
# Convention : Reuss Voigt Hill
#
# Bulk Modulus (GPa) = 55.69184 63.00114 59.34649
# Shear Modulus (GPa) = 29.26516 34.17500 31.72008
#
# Velocity S-wave (km/s) = 3.67763 3.97418 3.82878
# Velocity P-wave (km/s) = 6.61600 7.08343 6.85370
#
# Compressibility (1/GPa) = 0.01795595
#
# Stress axis : x y z
#
# Youngs Moduli (GPa) = 93.33064 93.33064 50.33403
#
# Poissons Ratio (x) = 0.30193 0.21229
# Poissons Ratio (y) = 0.30193 0.21229
# Poissons Ratio (z) = 0.39363 0.39363
#
# Static dielectric constant tensor:
#      x y z
#    x 4.108020 0.000000 0.000000 
#    y 0.000000 4.108020 0.000000 
#    z 0.000000 0.000000 3.759900 
# 
# 
# High freq. dielectric constant tensor:
#      x y z
#    x 1.842920 0.000000 0.000000 
#    y 0.000000 1.842920 0.000000 
#    z 0.000000 0.000000 1.849260 
# 
# From -- ./inp_files/511.got.cif
#   From: 2010.03.12/outbox.cif.g09.slc.cpg/sg144_cif.got.tgz:511.got - 2010.04.03 13:34:42.
