data_PCOD8321556
_publ_section_title
;
Structure prediction by ZEFSAII (Michael W. Deem and Ramdas Pophale) SiO2 
 PCOD8321556
Probable space group: R 3
;
_chemical_formula_sum "Si O2"
_cell_formula_units_Z 60
_cell_length_a 16.839509
_cell_length_b 16.839509
_cell_length_c 11.305106
_cell_angle_alpha 90.000000
_cell_angle_beta 90.000000
_cell_angle_gamma 120.000000
_cell_volume 2776.285464
_symmetry_space_group_name_H-M "R 3"
_symmetry_group_IT_number 146
_symmetry_cell_setting 'hexagonal'
loop_
_space_group_symop_operation_xyz
x,y,z
-y,x-y,z
-x+y,-x,z
2/3+x,1/3+y,1/3+z
2/3-y,1/3+x-y,1/3+z
2/3-x+y,1/3-x,1/3+z
1/3+x,2/3+y,2/3+z
1/3-y,2/3+x-y,2/3+z
1/3-x+y,2/3-x,2/3+z
loop_
_atom_site_type_symbol
_atom_site_label
_atom_site_fract_x
_atom_site_fract_y
_atom_site_fract_z
Si Si1 0.666667 0.333333 0.660075
Si Si2 0.333334 0.666667 0.280382
Si Si3 0.954371 0.259489 0.327078
Si Si4 0.105886 0.378104 0.489905
Si Si5 0.820739 0.354276 0.499008
Si Si6 0.139985 0.229413 0.003556
Si Si7 0.145297 0.563033 0.412307
Si Si8 0.950795 0.517767 0.331647
O O1 0.666668 0.333334 0.803678
O O2 0.769219 0.372023 0.608225
O O3 0.230667 0.631252 0.330097
O O4 0.945687 0.346444 0.284148
O O5 0.991108 0.227263 0.217776
O O6 0.848204 0.185967 0.356364
O O7 0.027068 0.283203 0.432779
O O8 0.128566 0.459907 0.397668
O O9 0.197915 0.378032 0.529203
O O10 0.749243 0.257978 0.437528
O O11 0.868996 0.436637 0.406863
O O12 0.246830 0.255997 0.000836
O O13 0.092450 0.172215 0.883582
O O14 0.053004 0.565152 0.381631
#
# Coordination Sequence:
#
# PCOD8321556 Si02
#       8
#     3   3   9   9   9   9   9   9
#     4  12  30  43  65  97 141 192 229 281 370 453
#     4  12  30  49  62 100 144 198 232 284 364 456
#     4  11  20  37  65 103 135 181 227 287 358 431
#     4  11  19  36  69 103 131 175 230 290 349 429
#     4  12  22  40  69 100 138 179 233 297 355 434
#     4  11  22  39  69 103 130 172 236 297 351 407
#     4  11  23  43  70  96 136 180 230 294 352 422
#     4  12  22  39  67 104 135 173 239 300 353 414
#
# _framework density 21.611611
#
# number of rings (size 3 to 8) (size 9 to 14) (size 15 to 20)
#    0.000    0.600   10.500    0.900    2.100    0.000 
#    0.000    1.500    6.600    0.000    0.000    0.000 
#    0.000    0.000    0.000    0.000    0.000    0.000 
#
# Total GULP energy -247801.425366 kJ/mol
# GULP energy per Si atom -12390.071268 kJ/mol
# Density = 2.156242 g / cm^3
# Si number density = 21.611611 Si / 1000 Ang^3
#
#
#
# Elastic Constant Matrix: (Units=GPa)
#
#
# Indices 1 2 3 4 5 6 
#
# 1 102.1810 39.1189 40.8068 6.5866 -4.4712 0.0000
# 2 39.1189 102.1814 40.8070 -6.5866 4.4710 0.0001
# 3 40.8068 40.8070 105.9935 -0.0001 0.0000 0.0001
# 4 6.5866 -6.5866 -0.0001 26.1407 0.0000 4.4711
# 5 -4.4712 4.4710 0.0000 0.0000 26.1405 6.5865
# 6 0.0000 0.0001 0.0001 4.4711 6.5865 31.5311
#
#
#
# Elastic Compliance Matrix: (Units=1/GPa)
#
#
# Indices 1 2 3 4 5 6 
#
# 1 0.013140 -0.004039 -0.003504 -0.004328 0.002938 0.000000
# 2 -0.004039 0.013139 -0.003504 0.004328 -0.002938 0.000000
# 3 -0.003504 -0.003504 0.012132 0.000000 0.000000 0.000000
# 4 -0.004328 0.004328 0.000000 0.041441 0.000000 -0.005876
# 5 0.002938 -0.002938 0.000000 0.000000 0.041441 -0.008657
# 6 0.000000 0.000000 0.000000 -0.005876 -0.008657 0.034356
#
#
# Mechanical properties :
#
#
# Convention : Reuss Voigt Hill
#
# Bulk Modulus (GPa) = 61.27810 61.31348 61.29579
# Shear Modulus (GPa) = 27.29533 29.40401 28.34967
#
# Velocity S-wave (km/s) = 3.55772 3.69259 3.62578
# Velocity P-wave (km/s) = 6.72995 6.82733 6.77882
#
# Compressibility (1/GPa) = 0.01631904
#
# Stress axis : x y z
#
# Youngs Moduli (GPa) = 76.10619 76.10654 82.42372
#
# Poissons Ratio (x) = 0.30736 0.28880
# Poissons Ratio (y) = 0.30736 0.28880
# Poissons Ratio (z) = 0.26666 0.26666
#
# Static dielectric constant tensor:
#      x y z
#    x 3.856250 0.000000 0.000000 
#    y 0.000000 3.856240 0.000000 
#    z 0.000000 0.000000 3.766490 
# 
# 
# High freq. dielectric constant tensor:
#      x y z
#    x 1.835080 0.000000 0.000000 
#    y 0.000000 1.835080 0.000000 
#    z 0.000000 0.000000 1.840550 
# 
# From -- ./inp_files/1262.got.cif
#   From: 2010.06.25/outbox.cif.g09.slc.cpg/sg146_cif.got.tgz:1262.got - 2010.06.28 11:17:22.
