data_PCOD8321563
_publ_section_title
;
Structure prediction by ZEFSAII (Michael W. Deem and Ramdas Pophale) SiO2 
 PCOD8321563
Probable space group: R 3
;
_chemical_formula_sum "Si O2"
_cell_formula_units_Z 60
_cell_length_a 16.498271
_cell_length_b 16.498271
_cell_length_c 11.742713
_cell_angle_alpha 90.000000
_cell_angle_beta 90.000000
_cell_angle_gamma 120.000000
_cell_volume 2768.062835
_symmetry_space_group_name_H-M "R 3"
_symmetry_group_IT_number 146
_symmetry_cell_setting 'hexagonal'
loop_
_space_group_symop_operation_xyz
x,y,z
-y,x-y,z
-x+y,-x,z
2/3+x,1/3+y,1/3+z
2/3-y,1/3+x-y,1/3+z
2/3-x+y,1/3-x,1/3+z
1/3+x,2/3+y,2/3+z
1/3-y,2/3+x-y,2/3+z
1/3-x+y,2/3-x,2/3+z
loop_
_atom_site_type_symbol
_atom_site_label
_atom_site_fract_x
_atom_site_fract_y
_atom_site_fract_z
Si Si1 0.000000 0.000000 0.072307
Si Si2 0.121407 0.773813 0.870017
Si Si3 0.666668 0.333335 0.677243
Si Si4 0.794031 0.868938 0.033199
Si Si5 0.535606 0.127396 0.716350
Si Si6 0.235460 0.898842 0.671925
Si Si7 0.764505 0.663368 0.744351
Si Si8 0.014200 0.559443 0.879567
O O1 0.000000 0.000000 0.208108
O O2 0.075872 0.979629 0.016852
O O3 0.151418 0.814916 0.742784
O O4 0.035039 0.666632 0.874780
O O5 0.095404 0.840827 0.941816
O O6 0.212709 0.776506 0.924220
O O7 0.590671 0.237132 0.732690
O O8 0.769448 0.890037 0.158693
O O9 0.756873 0.759998 0.023138
O O10 0.426632 0.090124 0.726288
O O11 0.571274 0.078842 0.807799
O O12 0.206369 0.873139 0.541469
O O13 0.248228 0.999977 0.708217
O O14 0.848573 0.663554 0.673472
#
# Coordination Sequence:
#
# PCOD8321563 Si02
#       8
#     3   9   3   9   9   9   9   9
#     4  12  24  42  69 100 125 184 231 288 358 419
#     4  11  23  41  68 101 140 183 229 292 350 415
#     4  12  24  42  69 100 125 184 231 288 358 419
#     4  11  22  40  67  99 141 169 234 291 341 416
#     4  11  22  40  67  99 141 169 234 291 341 416
#     4  12  20  39  71 105 136 184 229 281 350 425
#     4  12  20  39  71 105 136 184 229 281 350 425
#     4  11  23  41  68 101 140 183 229 292 350 415
#
# _framework density 21.675809000000001
#
# number of rings (size 3 to 8) (size 9 to 14) (size 15 to 20)
#    0.000    0.600    6.000    5.400    0.000    0.000 
#    0.000   15.000    0.000    9.000    0.000    0.000 
#    0.000    0.000    0.000    0.000    0.000    0.000 
#
# Total GULP energy -247998.769873 kJ/mol
# GULP energy per Si atom -12399.938494 kJ/mol
# Density = 2.162647 g / cm^3
# Si number density = 21.675809 Si / 1000 Ang^3
#
#
#
# Elastic Constant Matrix: (Units=GPa)
#
#
# Indices 1 2 3 4 5 6 
#
# 1 86.0648 28.7290 33.8348 6.9662 -0.0022 -0.0003
# 2 28.7290 86.0639 33.8342 -6.9660 0.0024 -0.0004
# 3 33.8348 33.8342 152.4495 -0.0001 -0.0001 -0.0003
# 4 6.9662 -6.9660 -0.0001 29.1634 0.0001 0.0024
# 5 -0.0022 0.0024 -0.0001 0.0001 29.1634 6.9663
# 6 -0.0003 -0.0004 -0.0003 0.0024 6.9663 28.6679
#
#
#
# Elastic Compliance Matrix: (Units=1/GPa)
#
#
# Indices 1 2 3 4 5 6 
#
# 1 0.014269 -0.004247 -0.002224 -0.004423 0.000001 0.000000
# 2 -0.004247 0.014269 -0.002224 0.004423 -0.000002 0.000000
# 3 -0.002224 -0.002224 0.007547 0.000000 0.000000 0.000000
# 4 -0.004423 0.004423 0.000000 0.036402 0.000000 -0.000003
# 5 0.000001 -0.000002 0.000000 0.000000 0.036403 -0.008846
# 6 0.000000 0.000000 0.000000 -0.000003 -0.008846 0.037032
#
#
# Mechanical properties :
#
#
# Convention : Reuss Voigt Hill
#
# Bulk Modulus (GPa) = 53.49186 57.48602 55.48894
# Shear Modulus (GPa) = 29.49073 32.61095 31.05084
#
# Velocity S-wave (km/s) = 3.69255 3.88298 3.78896
# Velocity P-wave (km/s) = 6.55069 6.83240 6.69303
#
# Compressibility (1/GPa) = 0.01869443
#
# Stress axis : x y z
#
# Youngs Moduli (GPa) = 70.08097 70.08043 132.50457
#
# Poissons Ratio (x) = 0.29761 0.29475
# Poissons Ratio (y) = 0.29761 0.29474
# Poissons Ratio (z) = 0.15589 0.15588
#
# Static dielectric constant tensor:
#      x y z
#    x 3.801750 0.000000 -0.000030 
#    y 0.000000 3.801770 0.000000 
#    z -0.000030 0.000000 4.269220 
# 
# 
# High freq. dielectric constant tensor:
#      x y z
#    x 1.845160 0.000000 0.000000 
#    y 0.000000 1.845160 0.000000 
#    z 0.000000 0.000000 1.846440 
# 
# From -- ./inp_files/1273.got.cif
#   From: 2010.06.25/outbox.cif.g09.slc.cpg/sg146_cif.got.tgz:1273.got - 2010.06.28 11:17:22.
