data_PCOD8321100
_publ_section_title
;
Structure prediction by ZEFSAII (Michael W. Deem and Ramdas Pophale) SiO2 
 PCOD8321100
Probable space group: I 41/A C D
;
_chemical_formula_sum "Si O2"
_cell_formula_units_Z 224
_cell_length_a 22.501458
_cell_length_b 22.501458
_cell_length_c 21.849565
_cell_angle_alpha 90.000000
_cell_angle_beta 90.000000
_cell_angle_gamma 90.000000
_cell_volume 11062.775878
_symmetry_space_group_name_H-M "I 41/A C D"
_symmetry_group_IT_number 142
_space_group.IT_coordinate_system_code '2'
_symmetry_cell_setting 'tetragonal'
loop_
_space_group_symop_operation_xyz
x,y,z
1/4-y,3/4+x,1/4+z
-x,1/2-y,z
1/4+y,1/4-x,3/4+z
x,-y,1/2-z
1/2-x,y,-z
3/4+y,1/4+x,1/4-z
1/4-y,1/4-x,1/4-z
-x,-y,-z
3/4+y,1/4-x,3/4-z
x,1/2+y,-z
3/4-y,3/4+x,1/4-z
-x,y,1/2+z
1/2+x,-y,z
1/4-y,3/4-x,3/4+z
3/4+y,3/4+x,3/4+z
1/2+x,1/2+y,1/2+z
3/4-y,1/4+x,3/4+z
1/2-x,-y,1/2+z
3/4+y,3/4-x,1/4+z
1/2+x,1/2-y,-z
-x,1/2+y,1/2-z
1/4+y,3/4+x,3/4-z
3/4-y,3/4-x,3/4-z
1/2-x,1/2-y,1/2-z
1/4+y,3/4-x,1/4-z
1/2+x,y,1/2-z
1/4-y,1/4+x,3/4-z
1/2-x,1/2+y,z
x,1/2-y,1/2+z
3/4-y,1/4-x,1/4+z
1/4+y,1/4+x,1/4+z
loop_
_atom_site_type_symbol
_atom_site_label
_atom_site_fract_x
_atom_site_fract_y
_atom_site_fract_z
Si Si1 0.566424 0.692024 0.353179
Si Si2 0.084342 0.976127 0.503746
Si Si3 0.956017 0.562415 0.273421
Si Si4 0.401134 0.249566 0.878431
Si Si5 0.866407 0.101631 0.825709
Si Si6 0.528125 0.405796 0.496856
Si Si7 0.366990 0.977188 0.625650
O O1 0.496246 0.677883 0.347177
O O2 0.593909 0.632236 0.380226
O O3 0.598020 0.706905 0.288132
O O4 0.137809 0.946030 0.541430
O O5 0.093968 0.961100 0.432906
O O6 0.023868 0.945013 0.528404
O O7 0.083046 0.047973 0.512646
O O8 0.987540 0.500000 0.250000
O O9 0.999534 0.608037 0.310865
O O10 0.924609 0.595095 0.216969
O O11 0.901520 0.544968 0.315702
O O12 0.439042 0.189042 0.875000
O O13 0.442784 0.307217 0.875000
O O14 0.361960 0.252655 0.818329
O O15 0.855824 0.046871 0.870412
O O16 0.302958 0.947043 0.625000
#
# Coordination Sequence:
#
# PCOD8321100 Si02
#       7
#    32  32  32  32  32  32  32
#     4  11  24  37  58  91 132 166 200 252 316 382
#     4  11  21  37  63  83 124 163 204 254 307 375
#     4  10  21  35  60  90 123 156 208 265 307 360
#     4  11  24  39  63  92 124 165 208 258 315 378
#     4  11  22  38  59  95 124 161 207 258 320 367
#     4  11  23  40  59  87 121 167 208 246 308 378
#     4  11  20  36  60  93 119 155 210 267 312 359
#
# _framework density 20.248083000000001
#
# number of rings (size 3 to 8) (size 9 to 14) (size 15 to 20)
#    0.000    1.143    5.714    1.286    2.000    1.143 
#    0.000    0.714    0.000    0.000    0.000    0.000 
#    0.000    0.000    0.000    0.000    0.000    0.000 
#
# Total GULP energy -1387891.451610 kJ/mol
# GULP energy per Si atom -12391.887961 kJ/mol
# Density = 2.020200 g / cm^3
# Si number density = 20.248083 Si / 1000 Ang^3
#
#
#
# Elastic Constant Matrix: (Units=GPa)
#
#
# Indices 1 2 3 4 5 6 
#
# 1 91.0042 43.9527 30.3903 0.0000 0.0000 0.0000
# 2 43.9527 91.0035 30.3895 0.0000 0.0000 0.0000
# 3 30.3903 30.3895 77.2962 0.0000 0.0000 0.0000
# 4 0.0000 0.0000 0.0000 30.3628 0.0000 0.0000
# 5 0.0000 0.0000 0.0000 0.0000 30.3629 0.0000
# 6 0.0000 0.0000 0.0000 0.0000 0.0000 33.1402
#
#
#
# Elastic Compliance Matrix: (Units=1/GPa)
#
#
# Indices 1 2 3 4 5 6 
#
# 1 0.015129 -0.006125 -0.003540 0.000000 0.000000 0.000000
# 2 -0.006125 0.015129 -0.003540 0.000000 0.000000 0.000000
# 3 -0.003540 -0.003540 0.015721 0.000000 0.000000 0.000000
# 4 0.000000 0.000000 0.000000 0.032935 0.000000 0.000000
# 5 0.000000 0.000000 0.000000 0.000000 0.032935 0.000000
# 6 0.000000 0.000000 0.000000 0.000000 0.000000 0.030175
#
#
# Mechanical properties :
#
#
# Convention : Reuss Voigt Hill
#
# Bulk Modulus (GPa) = 51.10167 52.08544 51.59356
# Shear Modulus (GPa) = 28.57863 29.07794 28.82829
#
# Velocity S-wave (km/s) = 3.76097 3.79368 3.77736
# Velocity P-wave (km/s) = 6.64473 6.70588 6.67537
#
# Compressibility (1/GPa) = 0.01956883
#
# Stress axis : x y z
#
# Youngs Moduli (GPa) = 66.09906 66.09910 63.60963
#
# Poissons Ratio (x) = 0.40484 0.22519
# Poissons Ratio (y) = 0.40484 0.22518
# Poissons Ratio (z) = 0.23400 0.23399
#
# Static dielectric constant tensor:
#      x y z
#    x 3.785010 0.000000 0.000000 
#    y 0.000000 3.785020 0.000000 
#    z 0.000000 0.000000 3.677840 
# 
# 
# High freq. dielectric constant tensor:
#      x y z
#    x 1.781420 0.000000 0.000000 
#    y 0.000000 1.781420 0.000000 
#    z 0.000000 0.000000 1.787090 
# 
# From -- ./inp_files/10561.got.cif
#   From: 2010.03.12/outbox.cif.g09.slc.cpg/sg142_6_cif.got.tgz:10561.got - 2010.04.03 13:27:16.
