data_PCOD8321201
_publ_section_title
;
Structure prediction by ZEFSAII (Michael W. Deem and Ramdas Pophale) SiO2 
 PCOD8321201
Probable space group: I 41/A C D
;
_chemical_formula_sum "Si O2"
_cell_formula_units_Z 144
_cell_length_a 19.928286
_cell_length_b 19.928286
_cell_length_c 17.444553
_cell_angle_alpha 90.000000
_cell_angle_beta 90.000000
_cell_angle_gamma 90.000000
_cell_volume 6927.870169
_symmetry_space_group_name_H-M "I 41/A C D"
_symmetry_group_IT_number 142
_space_group.IT_coordinate_system_code '2'
_symmetry_cell_setting 'tetragonal'
loop_
_space_group_symop_operation_xyz
x,y,z
1/4-y,3/4+x,1/4+z
-x,1/2-y,z
1/4+y,1/4-x,3/4+z
x,-y,1/2-z
1/2-x,y,-z
3/4+y,1/4+x,1/4-z
1/4-y,1/4-x,1/4-z
-x,-y,-z
3/4+y,1/4-x,3/4-z
x,1/2+y,-z
3/4-y,3/4+x,1/4-z
-x,y,1/2+z
1/2+x,-y,z
1/4-y,3/4-x,3/4+z
3/4+y,3/4+x,3/4+z
1/2+x,1/2+y,1/2+z
3/4-y,1/4+x,3/4+z
1/2-x,-y,1/2+z
3/4+y,3/4-x,1/4+z
1/2+x,1/2-y,-z
-x,1/2+y,1/2-z
1/4+y,3/4+x,3/4-z
3/4-y,3/4-x,3/4-z
1/2-x,1/2-y,1/2-z
1/4+y,3/4-x,1/4-z
1/2+x,y,1/2-z
1/4-y,1/4+x,3/4-z
1/2-x,1/2+y,z
x,1/2-y,1/2+z
3/4-y,1/4-x,1/4+z
1/4+y,1/4+x,1/4+z
loop_
_atom_site_type_symbol
_atom_site_label
_atom_site_fract_x
_atom_site_fract_y
_atom_site_fract_z
Si Si1 0.765174 0.984827 0.875000
Si Si2 0.930984 0.724268 0.458835
Si Si3 0.253162 0.605664 0.738003
Si Si4 0.944933 0.609745 0.561074
Si Si5 0.401565 0.854188 0.974475
O O1 0.698043 0.982500 0.924683
O O2 0.768173 0.919119 0.822249
O O3 0.944500 0.694500 0.375000
O O4 0.902140 0.665277 0.512522
O O5 0.889579 0.794112 0.462462
O O6 0.000000 0.750000 0.497711
O O7 0.213936 0.674555 0.719536
O O8 0.333204 0.614144 0.737761
O O9 0.924394 0.615829 0.649059
O O10 0.023253 0.621679 0.545607
#
# Coordination Sequence:
#
# PCOD8321201 Si02
#       5
#    16  32  32  32  32
#     4  10  24  42  64  80 120 182 220 266 324 396
#     4   9  20  36  61  95 125 164 205 261 328 388
#     4  11  23  42  63  90 125 172 226 267 326 388
#     4  11  21  37  65  96 130 168 208 269 334 390
#     4  11  21  39  66  96 132 168 212 269 332 398
#
# _framework density 20.785608
#
# number of rings (size 3 to 8) (size 9 to 14) (size 15 to 20)
#    0.000    1.556    4.444    0.667    1.556    3.556 
#    0.000    0.000    0.000    5.333    0.000    0.000 
#    0.000    0.000    0.000    0.000    0.000    0.000 
#
# Total GULP energy -892124.760619 kJ/mol
# GULP energy per Si atom -12390.621675 kJ/mol
# Density = 2.073830 g / cm^3
# Si number density = 20.785608 Si / 1000 Ang^3
#
#
#
# Elastic Constant Matrix: (Units=GPa)
#
#
# Indices 1 2 3 4 5 6 
#
# 1 65.1083 -2.6899 33.2682 0.0000 0.0000 0.0000
# 2 -2.6899 65.1080 33.2680 0.0000 0.0000 0.0000
# 3 33.2682 33.2680 121.1456 0.0000 0.0000 0.0000
# 4 0.0000 0.0000 0.0000 23.8201 0.0000 0.0000
# 5 0.0000 0.0000 0.0000 0.0000 23.8188 0.0000
# 6 0.0000 0.0000 0.0000 0.0000 0.0000 32.2408
#
#
#
# Elastic Compliance Matrix: (Units=1/GPa)
#
#
# Indices 1 2 3 4 5 6 
#
# 1 0.018701 0.003951 -0.006220 0.000000 0.000000 0.000000
# 2 0.003951 0.018701 -0.006220 0.000000 0.000000 0.000000
# 3 -0.006220 -0.006220 0.011671 0.000000 0.000000 0.000000
# 4 0.000000 0.000000 0.000000 0.041981 0.000000 0.000000
# 5 0.000000 0.000000 0.000000 0.000000 0.041984 0.000000
# 6 0.000000 0.000000 0.000000 0.000000 0.000000 0.031017
#
#
# Mechanical properties :
#
#
# Convention : Reuss Voigt Hill
#
# Bulk Modulus (GPa) = 31.15974 42.11718 36.63846
# Shear Modulus (GPa) = 26.07813 28.47697 27.27755
#
# Velocity S-wave (km/s) = 3.54591 3.70541 3.62654
# Velocity P-wave (km/s) = 5.63810 6.21397 5.93303
#
# Compressibility (1/GPa) = 0.03209270
#
# Stress axis : x y z
#
# Youngs Moduli (GPa) = 53.47388 53.47370 85.68263
#
# Poissons Ratio (x) = -0.21128 0.53299
# Poissons Ratio (y) = -0.21128 0.53299
# Poissons Ratio (z) = 0.33263 0.33263
#
# Static dielectric constant tensor:
#      x y z
#    x 3.791440 0.000000 0.000000 
#    y 0.000000 3.791430 0.000000 
#    z 0.000000 0.000000 3.724820 
# 
# 
# High freq. dielectric constant tensor:
#      x y z
#    x 1.802420 0.000000 0.000000 
#    y 0.000000 1.802420 0.000000 
#    z 0.000000 0.000000 1.820500 
# 
# From -- ./inp_files/7304.got.cif
#   From: 2010.03.12/outbox.cif.g09.slc.cpg/sg142_4_cif.got.tgz:7304.got - 2010.04.03 13:27:16.
