data_PCOD8321152
_publ_section_title
;
Structure prediction by ZEFSAII (Michael W. Deem and Ramdas Pophale) SiO2 
 PCOD8321152
Probable space group: I 41/A C D
;
_chemical_formula_sum "Si O2"
_cell_formula_units_Z 88
_cell_length_a 22.996973
_cell_length_b 22.996973
_cell_length_c 7.825161
_cell_angle_alpha 90.000000
_cell_angle_beta 90.000000
_cell_angle_gamma 90.000000
_cell_volume 4138.420650
_symmetry_space_group_name_H-M "I 41/A C D"
_symmetry_group_IT_number 142
_space_group.IT_coordinate_system_code '2'
_symmetry_cell_setting 'tetragonal'
loop_
_space_group_symop_operation_xyz
x,y,z
1/4-y,3/4+x,1/4+z
-x,1/2-y,z
1/4+y,1/4-x,3/4+z
x,-y,1/2-z
1/2-x,y,-z
3/4+y,1/4+x,1/4-z
1/4-y,1/4-x,1/4-z
-x,-y,-z
3/4+y,1/4-x,3/4-z
x,1/2+y,-z
3/4-y,3/4+x,1/4-z
-x,y,1/2+z
1/2+x,-y,z
1/4-y,3/4-x,3/4+z
3/4+y,3/4+x,3/4+z
1/2+x,1/2+y,1/2+z
3/4-y,1/4+x,3/4+z
1/2-x,-y,1/2+z
3/4+y,3/4-x,1/4+z
1/2+x,1/2-y,-z
-x,1/2+y,1/2-z
1/4+y,3/4+x,3/4-z
3/4-y,3/4-x,3/4-z
1/2-x,1/2-y,1/2-z
1/4+y,3/4-x,1/4-z
1/2+x,y,1/2-z
1/4-y,1/4+x,3/4-z
1/2-x,1/2+y,z
x,1/2-y,1/2+z
3/4-y,1/4-x,1/4+z
1/4+y,1/4+x,1/4+z
loop_
_atom_site_type_symbol
_atom_site_label
_atom_site_fract_x
_atom_site_fract_y
_atom_site_fract_z
Si Si1 0.173086 0.500000 0.750000
Si Si2 0.500000 0.250000 0.125000
Si Si3 0.521585 0.500000 0.250000
Si Si4 0.071614 0.439968 0.939516
Si Si5 0.431718 0.181718 0.375000
O O1 0.213629 0.463629 0.625000
O O2 0.133911 0.453511 0.854716
O O3 0.482585 0.192800 0.235447
O O4 0.479193 0.445827 0.202757
O O5 0.562315 0.487178 0.410923
O O6 0.066180 0.377882 0.024233
#
# Coordination Sequence:
#
# PCOD8321152 Si02
#       5
#    16   8  16  32  16
#     4  11  28  45  64  94 130 169 228 289 336 394
#     4  10  24  42  60 106 140 162 216 262 320 394
#     4   9  20  41  64  96 128 159 224 263 310 394
#     4  10  22  40  67  95 126 176 210 267 327 393
#     4  11  22  40  66  94 132 176 202 264 324 393
#
# _framework density 21.264150999999998
#
# number of rings (size 3 to 8) (size 9 to 14) (size 15 to 20)
#    0.000    1.818    0.000    2.182    7.636    0.000 
#   13.091    0.000    0.000    0.000    0.000    0.000 
#    0.000    0.000    0.000    0.000    0.000    0.000 
#
# Total GULP energy -545295.165249 kJ/mol
# GULP energy per Si atom -12393.071937 kJ/mol
# Density = 2.121575 g / cm^3
# Si number density = 21.264151 Si / 1000 Ang^3
#
#
#
# Elastic Constant Matrix: (Units=GPa)
#
#
# Indices 1 2 3 4 5 6 
#
# 1 122.9354 65.5636 67.7238 0.0000 0.0000 0.0000
# 2 65.5636 122.9354 67.7238 0.0000 0.0000 0.0000
# 3 67.7238 67.7238 136.1500 0.0000 0.0000 0.0000
# 4 0.0000 0.0000 0.0000 10.6138 0.0000 0.0000
# 5 0.0000 0.0000 0.0000 0.0000 10.6138 0.0000
# 6 0.0000 0.0000 0.0000 0.0000 0.0000 18.5098
#
#
#
# Elastic Compliance Matrix: (Units=1/GPa)
#
#
# Indices 1 2 3 4 5 6 
#
# 1 0.012843 -0.004587 -0.004107 0.000000 0.000000 0.000000
# 2 -0.004587 0.012843 -0.004107 0.000000 0.000000 0.000000
# 3 -0.004107 -0.004107 0.011430 0.000000 0.000000 0.000000
# 4 0.000000 0.000000 0.000000 0.094217 0.000000 0.000000
# 5 0.000000 0.000000 0.000000 0.000000 0.094217 0.000000
# 6 0.000000 0.000000 0.000000 0.000000 0.000000 0.054025
#
#
# Mechanical properties :
#
#
# Convention : Reuss Voigt Hill
#
# Bulk Modulus (GPa) = 86.83931 87.11592 86.97761
# Shear Modulus (GPa) = 16.18042 20.01478 18.09760
#
# Velocity S-wave (km/s) = 2.76148 3.07130 2.92050
# Velocity P-wave (km/s) = 7.14806 7.32356 7.23634
#
# Compressibility (1/GPa) = 0.01151552
#
# Stress axis : x y z
#
# Youngs Moduli (GPa) = 77.86297 77.86297 87.48642
#
# Poissons Ratio (x) = 0.35717 0.35928
# Poissons Ratio (y) = 0.35717 0.35928
# Poissons Ratio (z) = 0.31976 0.31976
#
# Static dielectric constant tensor:
#      x y z
#    x 3.731810 0.000000 0.000000 
#    y 0.000000 3.731810 0.000000 
#    z 0.000000 0.000000 4.314150 
# 
# 
# High freq. dielectric constant tensor:
#      x y z
#    x 1.823490 0.000000 0.000000 
#    y 0.000000 1.823490 0.000000 
#    z 0.000000 0.000000 1.860260 
# 
# From -- ./inp_files/1706.got.cif
#   From: 2010.03.12/outbox.cif.g09.slc.cpg/sg142_1_cif.got.tgz:1706.got - 2010.04.03 13:27:16.
