data_PCOD8321533
_publ_section_title
;
Structure prediction by ZEFSAII (Michael W. Deem and Ramdas Pophale) SiO2 
 PCOD8321533
Probable space group: R 3
;
_chemical_formula_sum "Si O2"
_cell_formula_units_Z 33
_cell_length_a 11.397755
_cell_length_b 11.397755
_cell_length_c 12.843483
_cell_angle_alpha 90.000000
_cell_angle_beta 90.000000
_cell_angle_gamma 120.000000
_cell_volume 1444.947546
_symmetry_space_group_name_H-M "R 3"
_symmetry_group_IT_number 146
_symmetry_cell_setting 'hexagonal'
loop_
_space_group_symop_operation_xyz
x,y,z
-y,x-y,z
-x+y,-x,z
2/3+x,1/3+y,1/3+z
2/3-y,1/3+x-y,1/3+z
2/3-x+y,1/3-x,1/3+z
1/3+x,2/3+y,2/3+z
1/3-y,2/3+x-y,2/3+z
1/3-x+y,2/3-x,2/3+z
loop_
_atom_site_type_symbol
_atom_site_label
_atom_site_fract_x
_atom_site_fract_y
_atom_site_fract_z
Si Si1 0.000000 0.000000 0.686696
Si Si2 0.456390 0.501561 0.065560
Si Si3 0.333333 0.666666 0.106917
Si Si4 0.357521 0.008169 0.256335
Si Si5 0.819166 0.620610 0.097105
O O1 0.118610 0.977076 0.731654
O O2 0.000000 0.000000 0.564222
O O3 0.335118 0.535165 0.061523
O O4 0.548834 0.593701 0.159855
O O5 0.384052 0.340304 0.084783
O O6 0.543426 0.553053 0.958990
O O7 0.346936 0.138761 0.214913
O O8 0.472255 0.055040 0.347805
#
# Coordination Sequence:
#
# PCOD8321533 Si02
#       5
#     3   9   3   9   9
#     4  12  18  39  72  94 125 181 240 279 351 418
#     4  11  23  41  68  97 143 181 232 294 350 423
#     4  12  24  42  66  97 137 190 234 288 360 424
#     4  10  22  39  66 106 129 174 244 282 350 424
#     4  11  21  41  70 100 136 182 232 297 353 419
#
# _framework density 22.838200000000001
#
# number of rings (size 3 to 8) (size 9 to 14) (size 15 to 20)
#    0.000    1.091    8.182    0.000    0.000    2.182 
#    0.000    0.000    6.000    0.000    0.000    0.000 
#    0.000    0.000    0.000    0.000    0.000    0.000 
#
# Total GULP energy -136314.259892 kJ/mol
# GULP energy per Si atom -12392.205445 kJ/mol
# Density = 2.278622 g / cm^3
# Si number density = 22.838200 Si / 1000 Ang^3
#
#
#
# Elastic Constant Matrix: (Units=GPa)
#
#
# Indices 1 2 3 4 5 6 
#
# 1 116.5736 49.3826 49.9030 8.5354 -4.8124 -0.0003
# 2 49.3826 116.5740 49.9033 -8.5354 4.8121 0.0000
# 3 49.9030 49.9033 116.2177 0.0001 0.0001 -0.0001
# 4 8.5354 -8.5354 0.0001 35.5391 -0.0001 4.8124
# 5 -4.8124 4.8121 0.0001 -0.0001 35.5388 8.5356
# 6 -0.0003 0.0000 -0.0001 4.8124 8.5356 33.5959
#
#
#
# Elastic Compliance Matrix: (Units=1/GPa)
#
#
# Indices 1 2 3 4 5 6 
#
# 1 0.012154 -0.004030 -0.003488 -0.003887 0.002191 0.000000
# 2 -0.004030 0.012154 -0.003488 0.003887 -0.002191 0.000000
# 3 -0.003488 -0.003488 0.011600 0.000000 0.000000 0.000000
# 4 -0.003887 0.003887 0.000000 0.030599 0.000000 -0.004383
# 5 0.002191 -0.002191 0.000000 0.000000 0.030599 -0.007774
# 6 0.000000 0.000000 0.000000 -0.004383 -0.007774 0.032369
#
#
# Mechanical properties :
#
#
# Convention : Reuss Voigt Hill
#
# Bulk Modulus (GPa) = 71.97142 71.97145 71.97144
# Shear Modulus (GPa) = 32.02683 34.27985 33.15334
#
# Velocity S-wave (km/s) = 3.74884 3.87846 3.81420
# Velocity P-wave (km/s) = 7.09369 7.18600 7.14000
#
# Compressibility (1/GPa) = 0.01389440
#
# Stress axis : x y z
#
# Youngs Moduli (GPa) = 82.27801 82.27823 86.20589
#
# Poissons Ratio (x) = 0.33162 0.30070
# Poissons Ratio (y) = 0.33162 0.30070
# Poissons Ratio (z) = 0.28700 0.28700
#
# Static dielectric constant tensor:
#      x y z
#    x 4.183850 0.000000 0.000000 
#    y 0.000000 4.183850 0.000000 
#    z 0.000000 0.000000 4.226420 
# 
# 
# High freq. dielectric constant tensor:
#      x y z
#    x 1.891150 0.000000 0.000000 
#    y 0.000000 1.891150 0.000000 
#    z 0.000000 0.000000 1.897110 
# 
# From -- ./inp_files/1338.got.cif
#   From: 2010.06.25/outbox.cif.g09.slc.cpg/sg146_cif.got.tgz:1338.got - 2010.06.28 11:17:22.
