data_PCOD8321118
_publ_section_title
;
Structure prediction by ZEFSAII (Michael W. Deem and Ramdas Pophale) SiO2 
 PCOD8321118
Probable space group: I 41/A C D
;
_chemical_formula_sum "Si O2"
_cell_formula_units_Z 168
_cell_length_a 19.162085
_cell_length_b 19.162085
_cell_length_c 22.465269
_cell_angle_alpha 90.000000
_cell_angle_beta 90.000000
_cell_angle_gamma 90.000000
_cell_volume 8248.921065
_symmetry_space_group_name_H-M "I 41/A C D"
_symmetry_group_IT_number 142
_space_group.IT_coordinate_system_code '2'
_symmetry_cell_setting 'tetragonal'
loop_
_space_group_symop_operation_xyz
x,y,z
1/4-y,3/4+x,1/4+z
-x,1/2-y,z
1/4+y,1/4-x,3/4+z
x,-y,1/2-z
1/2-x,y,-z
3/4+y,1/4+x,1/4-z
1/4-y,1/4-x,1/4-z
-x,-y,-z
3/4+y,1/4-x,3/4-z
x,1/2+y,-z
3/4-y,3/4+x,1/4-z
-x,y,1/2+z
1/2+x,-y,z
1/4-y,3/4-x,3/4+z
3/4+y,3/4+x,3/4+z
1/2+x,1/2+y,1/2+z
3/4-y,1/4+x,3/4+z
1/2-x,-y,1/2+z
3/4+y,3/4-x,1/4+z
1/2+x,1/2-y,-z
-x,1/2+y,1/2-z
1/4+y,3/4+x,3/4-z
3/4-y,3/4-x,3/4-z
1/2-x,1/2-y,1/2-z
1/4+y,3/4-x,1/4-z
1/2+x,y,1/2-z
1/4-y,1/4+x,3/4-z
1/2-x,1/2+y,z
x,1/2-y,1/2+z
3/4-y,1/4-x,1/4+z
1/4+y,1/4+x,1/4+z
loop_
_atom_site_type_symbol
_atom_site_label
_atom_site_fract_x
_atom_site_fract_y
_atom_site_fract_z
Si Si1 0.845579 0.904422 0.875000
Si Si2 0.000000 0.750000 0.875000
Si Si3 0.171272 0.359465 0.010185
Si Si4 0.386736 0.784607 0.535831
Si Si5 0.815551 0.934450 0.375000
Si Si6 0.345194 0.936034 0.895402
Si Si7 0.557568 0.333203 0.656407
O O1 0.853537 0.851367 0.930623
O O2 0.768746 0.894035 0.847450
O O3 0.933032 0.745507 0.916084
O O4 0.167188 0.275251 0.014458
O O5 0.145783 0.399208 0.069165
O O6 0.250000 0.381836 0.000000
O O7 0.130786 0.394425 0.954886
O O8 0.431832 0.805308 0.477469
O O9 0.733051 0.918918 0.374304
O O10 0.398350 0.904751 0.846907
O O11 0.481094 0.344637 0.627494
#
# Coordination Sequence:
#
# PCOD8321118 Si02
#       7
#    16   8  32  32  16  32  32
#     4  10  26  41  63  99 130 161 213 261 330 378
#     4  10  22  42  60  84 124 156 210 256 318 366
#     4  10  21  39  62  90 123 165 212 257 315 381
#     4  11  23  40  64  91 124 169 207 266 314 377
#     4   9  21  39  64  92 124 168 212 257 329 383
#     4  10  22  41  62  94 130 166 206 268 319 382
#     4  11  23  40  63  93 127 171 221 261 317 382
#
# _framework density 20.366299999999999
#
# number of rings (size 3 to 8) (size 9 to 14) (size 15 to 20)
#    0.000    1.714    1.905    1.714    5.333    0.000 
#    0.000    0.952    0.000    0.000    0.000    0.000 
#    0.000    0.000    0.000    0.000    0.000    0.000 
#
# Total GULP energy -1041105.265532 kJ/mol
# GULP energy per Si atom -12394.110304 kJ/mol
# Density = 2.031995 g / cm^3
# Si number density = 20.366300 Si / 1000 Ang^3
#
#
#
# Elastic Constant Matrix: (Units=GPa)
#
#
# Indices 1 2 3 4 5 6 
#
# 1 95.0101 46.8464 39.6594 0.0000 0.0000 0.0000
# 2 46.8464 95.0116 39.6596 0.0000 0.0000 0.0000
# 3 39.6594 39.6596 138.4090 0.0000 0.0000 0.0000
# 4 0.0000 0.0000 0.0000 3.7394 0.0000 0.0000
# 5 0.0000 0.0000 0.0000 0.0000 3.7368 0.0000
# 6 0.0000 0.0000 0.0000 0.0000 0.0000 38.8648
#
#
#
# Elastic Compliance Matrix: (Units=1/GPa)
#
#
# Indices 1 2 3 4 5 6 
#
# 1 0.014578 -0.006184 -0.002405 0.000000 0.000000 0.000000
# 2 -0.006184 0.014578 -0.002405 0.000000 0.000000 0.000000
# 3 -0.002405 -0.002405 0.008603 0.000000 0.000000 0.000000
# 4 0.000000 0.000000 0.000000 0.267423 0.000000 0.000000
# 5 0.000000 0.000000 0.000000 0.000000 0.267609 0.000000
# 6 0.000000 0.000000 0.000000 0.000000 0.000000 0.025730
#
#
# Mechanical properties :
#
#
# Convention : Reuss Voigt Hill
#
# Bulk Modulus (GPa) = 63.40848 64.52905 63.96877
# Shear Modulus (GPa) = 7.99019 22.75255 15.37137
#
# Velocity S-wave (km/s) = 1.98287 3.34603 2.75024
# Velocity P-wave (km/s) = 6.03688 6.83234 6.44689
#
# Compressibility (1/GPa) = 0.01577076
#
# Stress axis : x y z
#
# Youngs Moduli (GPa) = 68.59488 68.59609 116.23349
#
# Poissons Ratio (x) = 0.42420 0.27958
# Poissons Ratio (y) = 0.42419 0.27957
# Poissons Ratio (z) = 0.16499 0.16499
#
# Static dielectric constant tensor:
#      x y z
#    x 3.545530 0.000000 0.000000 
#    y 0.000000 3.545490 0.000000 
#    z 0.000000 0.000000 4.064820 
# 
# 
# High freq. dielectric constant tensor:
#      x y z
#    x 1.788200 0.000000 0.000000 
#    y 0.000000 1.788200 0.000000 
#    z 0.000000 0.000000 1.811140 
# 
# From -- ./inp_files/9101.got.cif
#   From: 2010.03.12/outbox.cif.g09.slc.cpg/sg142_5_cif.got.tgz:9101.got - 2010.04.03 13:27:16.
