data_PCOD8321482
_publ_section_title
;
Structure prediction by ZEFSAII (Michael W. Deem and Ramdas Pophale) SiO2 
 PCOD8321482
Probable space group: P 32
;
_chemical_formula_sum "Si O2"
_cell_formula_units_Z 18
_cell_length_a 11.698300
_cell_length_b 11.698300
_cell_length_c 6.104999
_cell_angle_alpha 90.000000
_cell_angle_beta 90.000000
_cell_angle_gamma 120.000000
_cell_volume 723.538655
_symmetry_space_group_name_H-M "P 32"
_symmetry_group_IT_number 145
_symmetry_cell_setting 'hexagonal'
loop_
_space_group_symop_operation_xyz
x,y,z
-y,x-y,2/3+z
-x+y,-x,1/3+z
loop_
_atom_site_type_symbol
_atom_site_label
_atom_site_fract_x
_atom_site_fract_y
_atom_site_fract_z
Si Si1 0.851124 0.619382 0.052460
Si Si2 0.702847 0.894271 0.129897
Si Si3 0.521056 0.668803 0.469438
Si Si4 0.947344 0.067787 0.607799
Si Si5 0.511116 0.854833 0.792259
Si Si6 0.573483 0.511796 0.828627
O O1 0.888915 0.723838 0.256345
O O2 0.834666 0.477859 0.119007
O O3 0.717739 0.589083 0.933006
O O4 0.975330 0.684664 0.891432
O O5 0.622776 0.769290 0.292207
O O6 0.843830 0.905562 0.097451
O O7 0.654876 0.884365 0.877913
O O8 0.462422 0.735361 0.627353
O O9 0.385698 0.564713 0.354832
O O10 0.579233 0.591168 0.608358
O O11 0.020210 0.100756 0.845618
O O12 0.494828 0.967575 0.678183
#
# Coordination Sequence:
#
# PCOD8321482 Si02
#       6
#     3   3   3   3   3   3
#     4  11  25  52  70 111 151 200 254 298 382 447
#     4  11  25  46  72 109 148 192 255 306 374 438
#     4  12  25  47  73 110 149 197 246 312 370 443
#     4  10  24  43  76 112 143 194 247 313 369 433
#     4  12  25  45  75 109 150 198 243 309 369 443
#     4  12  28  49  76 109 157 199 249 310 374 456
#
# _framework density 24.877728999999999
#
# number of rings (size 3 to 8) (size 9 to 14) (size 15 to 20)
#    0.000    0.667    3.333    3.000    2.333   13.333 
#    6.000    0.000    0.000    0.000    0.000    0.000 
#    0.000    0.000    0.000    0.000    0.000    0.000 
#
# Total GULP energy -223042.341791 kJ/mol
# GULP energy per Si atom -12391.241211 kJ/mol
# Density = 2.482111 g / cm^3
# Si number density = 24.877729 Si / 1000 Ang^3
#
#
#
# Elastic Constant Matrix: (Units=GPa)
#
#
# Indices 1 2 3 4 5 6 
#
# 1 79.0260 2.6969 10.5836 6.0791 0.2370 0.0000
# 2 2.6969 79.0260 10.5836 -6.0791 -0.2370 0.0000
# 3 10.5836 10.5836 75.5929 0.0000 0.0000 0.0000
# 4 6.0791 -6.0791 0.0000 31.2835 0.0000 -0.2370
# 5 0.2370 -0.2370 0.0000 0.0000 31.2835 6.0791
# 6 0.0000 0.0000 0.0000 -0.2370 6.0791 38.1645
#
#
#
# Elastic Compliance Matrix: (Units=1/GPa)
#
#
# Indices 1 2 3 4 5 6 
#
# 1 0.013109 -0.000412 -0.001778 -0.002627 -0.000102 0.000000
# 2 -0.000412 0.013109 -0.001778 0.002627 0.000102 0.000000
# 3 -0.001778 -0.001778 0.013727 0.000000 0.000000 0.000000
# 4 -0.002627 0.002627 0.000000 0.032988 0.000000 0.000205
# 5 -0.000102 0.000102 0.000000 0.000000 0.032988 -0.005255
# 6 0.000000 0.000000 0.000000 0.000205 -0.005255 0.027041
#
#
# Mechanical properties :
#
#
# Convention : Reuss Voigt Hill
#
# Bulk Modulus (GPa) = 31.24053 31.26366 31.25209
# Shear Modulus (GPa) = 32.98916 34.13171 33.56044
#
# Velocity S-wave (km/s) = 3.64545 3.70804 3.67688
# Velocity P-wave (km/s) = 5.50490 5.56120 5.53312
#
# Compressibility (1/GPa) = 0.03200970
#
# Stress axis : x y z
#
# Youngs Moduli (GPa) = 76.28579 76.28579 72.85160
#
# Poissons Ratio (x) = 0.03141 0.12951
# Poissons Ratio (y) = 0.03141 0.12951
# Poissons Ratio (z) = 0.13561 0.13561
#
# Static dielectric constant tensor:
#      x y z
#    x 4.726360 0.000000 0.000000 
#    y 0.000000 4.726360 0.000000 
#    z 0.000000 0.000000 5.231680 
# 
# 
# High freq. dielectric constant tensor:
#      x y z
#    x 1.998560 0.000000 0.000000 
#    y 0.000000 1.998560 0.000000 
#    z 0.000000 0.000000 1.988020 
# 
# From -- ./inp_files/130.got.cif
#   From: 2010.03.12/outbox.cif.g09.slc.cpg/sg145_cif.got.tgz:130.got - 2010.04.03 13:35:35.
