data_PCOD8321965
_publ_section_title
;
Structure prediction by ZEFSAII (Michael W. Deem and Ramdas Pophale) SiO2 
 PCOD8321965
Probable space group: P 31 1 2
;
_chemical_formula_sum "Si O2"
_cell_formula_units_Z 48
_cell_length_a 10.987445
_cell_length_b 10.987445
_cell_length_c 21.460829
_cell_angle_alpha 90.000000
_cell_angle_beta 90.000000
_cell_angle_gamma 120.000000
_cell_volume 2243.729790
_symmetry_space_group_name_H-M "P 31 1 2"
_symmetry_group_IT_number 151
_symmetry_cell_setting 'hexagonal'
loop_
_space_group_symop_operation_xyz
x,y,z
-y,x-y,1/3+z
-x+y,-x,2/3+z
-y,-x,2/3-z
-x+y,y,1/3-z
x,x-y,-z
loop_
_atom_site_type_symbol
_atom_site_label
_atom_site_fract_x
_atom_site_fract_y
_atom_site_fract_z
Si Si1 0.441570 0.417088 0.605856
Si Si2 0.958851 0.143606 0.120589
Si Si3 0.140071 0.941533 0.402570
Si Si4 0.038922 0.817692 0.020167
Si Si5 0.590055 0.058779 0.518336
Si Si6 0.242501 0.597381 0.099501
Si Si7 0.151234 0.681200 0.656254
Si Si8 0.482969 0.160999 0.616495
O O1 0.282052 0.343223 0.577457
O O2 0.554858 0.510689 0.554120
O O3 0.481775 0.516697 0.667387
O O4 0.446317 0.281740 0.626743
O O5 0.083398 0.166795 0.166667
O O6 0.902605 0.248497 0.140330
O O7 0.828187 0.982058 0.119332
O O8 0.013430 0.166875 0.050165
O O9 0.117680 0.882321 0.333334
O O10 0.142200 0.092047 0.401262
O O11 0.988272 0.654524 0.033817
O O12 0.209755 0.903572 0.029219
O O13 0.486718 0.923466 0.558945
O O14 0.553877 0.171672 0.548860
O O15 0.312720 0.625440 0.166667
O O16 0.275162 0.495865 0.058048
O O17 0.307990 0.745580 0.065071
O O18 0.598058 0.196115 0.666667
#
# Coordination Sequence:
#
# PCOD8321965 Si02
#       8
#     6   6   6   6   6   6   6   6
#     4  11  25  39  66  98 131 167 221 275 325 399
#     4  11  21  37  61  93 128 161 209 273 331 382
#     4   9  23  41  61  91 128 173 213 262 333 395
#     4  10  19  39  65  92 118 166 218 263 318 395
#     4  12  21  38  65  99 120 165 227 278 319 394
#     4  11  21  35  59  94 130 162 217 277 332 387
#     4  11  21  37  63  95 130 171 212 275 340 380
#     4  11  21  41  65  87 126 171 215 263 328 400
#
# _framework density 21.392949000000002
#
# number of rings (size 3 to 8) (size 9 to 14) (size 15 to 20)
#    0.000    1.250    5.000    1.500    1.750    2.000 
#    0.000    3.125    0.000    0.000    0.000    0.000 
#    0.000    0.000    0.000    0.000    0.000    0.000 
#
# Total GULP energy -594723.547620 kJ/mol
# GULP energy per Si atom -12390.073909 kJ/mol
# Density = 2.134426 g / cm^3
# Si number density = 21.392949 Si / 1000 Ang^3
#
#
#
# Elastic Constant Matrix: (Units=GPa)
#
#
# Indices 1 2 3 4 5 6 
#
# 1 101.4476 34.7766 15.9420 0.0016 14.5691 0.0000
# 2 34.7766 101.4476 15.9420 -0.0016 -14.5691 0.0000
# 3 15.9420 15.9420 70.9018 0.0000 0.0000 0.0000
# 4 0.0016 -0.0016 0.0000 42.3217 0.0000 -14.5691
# 5 14.5691 -14.5691 0.0000 0.0000 42.3217 0.0016
# 6 0.0000 0.0000 0.0000 -14.5691 0.0016 33.3355
#
#
#
# Elastic Compliance Matrix: (Units=1/GPa)
#
#
# Indices 1 2 3 4 5 6 
#
# 1 0.012702 -0.004953 -0.001742 -0.000001 -0.006078 0.000000
# 2 -0.004953 0.012702 -0.001742 0.000001 0.006078 0.000000
# 3 -0.001742 -0.001742 0.014887 0.000000 0.000000 0.000000
# 4 -0.000001 0.000001 0.000000 0.027813 0.000000 0.012156
# 5 -0.006078 0.006078 0.000000 0.000000 0.027813 -0.000001
# 6 0.000000 0.000000 0.000000 0.012156 -0.000001 0.035311
#
#
# Mechanical properties :
#
#
# Convention : Reuss Voigt Hill
#
# Bulk Modulus (GPa) = 42.70632 45.23535 43.97083
# Shear Modulus (GPa) = 32.07000 37.40485 34.73742
#
# Velocity S-wave (km/s) = 3.87601 4.18600 4.03399
# Velocity P-wave (km/s) = 6.32751 6.67491 6.50353
#
# Compressibility (1/GPa) = 0.02341574
#
# Stress axis : x y z
#
# Youngs Moduli (GPa) = 78.72805 78.72805 67.17054
#
# Poissons Ratio (x) = 0.38997 0.11703
# Poissons Ratio (y) = 0.38997 0.11703
# Poissons Ratio (z) = 0.13716 0.13716
#
# Static dielectric constant tensor:
#      x y z
#    x -0.284210 0.000000 0.000000 
#    y 0.000000 -0.284210 0.000000 
#    z 0.000000 0.000000 3.472070 
# 
# 
# High freq. dielectric constant tensor:
#      x y z
#    x 1.832890 0.000000 0.000000 
#    y 0.000000 1.832890 0.000000 
#    z 0.000000 0.000000 1.828160 
# 
# From -- ./inp_files/3979.got.cif
#   From: 2010.03.12/outbox.cif.g09.slc.cpg/sg151_2_cif.got.tgz:3979.got - 2010.04.03 13:42:29.
