data_PCOD8321224
_publ_section_title
;
Structure prediction by ZEFSAII (Michael W. Deem and Ramdas Pophale) SiO2 
 PCOD8321224
Probable space group: I 41/A C D
;
_chemical_formula_sum "Si O2"
_cell_formula_units_Z 160
_cell_length_a 20.491357
_cell_length_b 20.491357
_cell_length_c 18.962815
_cell_angle_alpha 90.000000
_cell_angle_beta 90.000000
_cell_angle_gamma 90.000000
_cell_volume 7962.404700
_symmetry_space_group_name_H-M "I 41/A C D"
_symmetry_group_IT_number 142
_space_group.IT_coordinate_system_code '2'
_symmetry_cell_setting 'tetragonal'
loop_
_space_group_symop_operation_xyz
x,y,z
1/4-y,3/4+x,1/4+z
-x,1/2-y,z
1/4+y,1/4-x,3/4+z
x,-y,1/2-z
1/2-x,y,-z
3/4+y,1/4+x,1/4-z
1/4-y,1/4-x,1/4-z
-x,-y,-z
3/4+y,1/4-x,3/4-z
x,1/2+y,-z
3/4-y,3/4+x,1/4-z
-x,y,1/2+z
1/2+x,-y,z
1/4-y,3/4-x,3/4+z
3/4+y,3/4+x,3/4+z
1/2+x,1/2+y,1/2+z
3/4-y,1/4+x,3/4+z
1/2-x,-y,1/2+z
3/4+y,3/4-x,1/4+z
1/2+x,1/2-y,-z
-x,1/2+y,1/2-z
1/4+y,3/4+x,3/4-z
3/4-y,3/4-x,3/4-z
1/2-x,1/2-y,1/2-z
1/4+y,3/4-x,1/4-z
1/2+x,y,1/2-z
1/4-y,1/4+x,3/4-z
1/2-x,1/2+y,z
x,1/2-y,1/2+z
3/4-y,1/4-x,1/4+z
1/4+y,1/4+x,1/4+z
loop_
_atom_site_type_symbol
_atom_site_label
_atom_site_fract_x
_atom_site_fract_y
_atom_site_fract_z
Si Si1 0.002929 0.353123 0.105580
Si Si2 0.688079 0.794402 0.262948
Si Si3 0.526858 0.569566 0.730912
Si Si4 0.397360 0.232538 0.611246
Si Si5 0.679017 0.064128 0.290577
O O1 0.947576 0.302425 0.125000
O O2 0.996619 0.417808 0.152015
O O3 0.073221 0.323221 0.125000
O O4 0.988829 0.375901 0.026383
O O5 0.750000 0.750000 0.250000
O O6 0.664809 0.793404 0.344190
O O7 0.708629 0.867334 0.237493
O O8 0.496984 0.500000 0.750000
O O9 0.499440 0.624978 0.782414
O O10 0.604450 0.568682 0.732208
O O11 0.451883 0.176782 0.604162
O O12 0.691125 0.058876 0.375000
O O13 0.709035 0.000000 0.250000
#
# Coordination Sequence:
#
# PCOD8321224 Si02
#       5
#    32  32  32  32  32
#     4  11  20  37  60  87 123 160 210 270 334 393
#     4  12  23  38  62  95 127 169 232 276 335 405
#     4  11  20  36  60  87 124 164 216 262 329 404
#     4  11  22  36  56  91 131 164 205 279 355 400
#     4  11  23  43  69  96 130 176 231 277 333 412
#
# _framework density 20.094432000000001
#
# number of rings (size 3 to 8) (size 9 to 14) (size 15 to 20)
#    0.000    0.800    6.000    2.400    2.800    3.200 
#    0.000    1.000    0.000    6.000    0.000    0.000 
#    0.000    0.000    0.000    0.000    0.000    0.000 
#
# Total GULP energy -991701.503407 kJ/mol
# GULP energy per Si atom -12396.268793 kJ/mol
# Density = 2.004870 g / cm^3
# Si number density = 20.094432 Si / 1000 Ang^3
#
#
#
# Elastic Constant Matrix: (Units=GPa)
#
#
# Indices 1 2 3 4 5 6 
#
# 1 91.8534 26.3291 14.0958 0.0000 0.0000 0.0000
# 2 26.3291 91.8567 14.0954 0.0000 0.0000 0.0000
# 3 14.0958 14.0954 82.4054 0.0000 0.0000 0.0000
# 4 0.0000 0.0000 0.0000 22.7413 0.0000 0.0000
# 5 0.0000 0.0000 0.0000 0.0000 22.7447 0.0000
# 6 0.0000 0.0000 0.0000 0.0000 0.0000 29.6606
#
#
#
# Elastic Compliance Matrix: (Units=1/GPa)
#
#
# Indices 1 2 3 4 5 6 
#
# 1 0.012041 -0.003220 -0.001509 0.000000 0.000000 0.000000
# 2 -0.003220 0.012041 -0.001509 0.000000 0.000000 0.000000
# 3 -0.001509 -0.001509 0.012651 0.000000 0.000000 0.000000
# 4 0.000000 0.000000 0.000000 0.043973 0.000000 0.000000
# 5 0.000000 0.000000 0.000000 0.000000 0.043966 0.000000
# 6 0.000000 0.000000 0.000000 0.000000 0.000000 0.033715
#
#
# Mechanical properties :
#
#
# Convention : Reuss Voigt Hill
#
# Bulk Modulus (GPa) = 41.22295 41.68400 41.45347
# Shear Modulus (GPa) = 27.94090 29.13568 28.53829
#
# Velocity S-wave (km/s) = 3.73296 3.81194 3.77265
# Velocity P-wave (km/s) = 6.25613 6.33747 6.29693
#
# Compressibility (1/GPa) = 0.02425833
#
# Stress axis : x y z
#
# Youngs Moduli (GPa) = 83.04656 83.04971 79.04306
#
# Poissons Ratio (x) = 0.26741 0.11927
# Poissons Ratio (y) = 0.26740 0.11926
# Poissons Ratio (z) = 0.12531 0.12531
#
# Static dielectric constant tensor:
#      x y z
#    x 3.841870 0.000000 0.000000 
#    y 0.000000 3.841870 0.000000 
#    z 0.000000 0.000000 3.644350 
# 
# 
# High freq. dielectric constant tensor:
#      x y z
#    x 1.771380 0.000000 0.000000 
#    y 0.000000 1.771380 0.000000 
#    z 0.000000 0.000000 1.796270 
# 
# From -- ./inp_files/7351.got.cif
#   From: 2010.03.12/outbox.cif.g09.slc.cpg/sg142_4_cif.got.tgz:7351.got - 2010.04.03 13:27:16.
