data_PCOD8321644
_publ_section_title
;
Structure prediction by ZEFSAII (Michael W. Deem and Ramdas Pophale) SiO2 
 PCOD8321644
Probable space group: P -3
;
_chemical_formula_sum "Si O2"
_cell_formula_units_Z 34
_cell_length_a 13.706929
_cell_length_b 13.706929
_cell_length_c 9.677506
_cell_angle_alpha 90.000000
_cell_angle_beta 90.000000
_cell_angle_gamma 120.000000
_cell_volume 1574.615084
_symmetry_space_group_name_H-M "P -3"
_symmetry_group_IT_number 147
_symmetry_cell_setting 'hexagonal'
loop_
_space_group_symop_operation_xyz
x,y,z
-y,x-y,z
-x+y,-x,z
-x,-y,-z
y,-x+y,-z
x-y,x,-z
loop_
_atom_site_type_symbol
_atom_site_label
_atom_site_fract_x
_atom_site_fract_y
_atom_site_fract_z
Si Si1 0.666667 0.333333 0.969303
Si Si2 0.774149 0.809201 0.549597
Si Si3 0.700007 0.013226 0.166248
Si Si4 0.666668 0.333335 0.646121
Si Si5 0.521432 0.658523 0.474409
Si Si6 0.736916 0.581718 0.070860
Si Si7 0.487329 0.955061 0.724026
O O1 0.666668 0.333334 0.807407
O O2 0.712416 0.460662 0.017627
O O3 0.864841 0.803768 0.447955
O O4 0.768814 0.752730 0.699656
O O5 0.652448 0.742593 0.482150
O O6 0.790334 0.141219 0.136271
O O7 0.578666 0.003587 0.178836
O O8 0.672161 0.924496 0.043946
O O9 0.539472 0.275985 0.586274
O O10 0.463260 0.604035 0.621838
O O11 0.500567 0.564549 0.364392
O O12 0.645288 0.560325 0.188622
#
# Coordination Sequence:
#
# PCOD8321644 Si02
#       7
#     2   6   6   2   6   6   6
#     4  12  27  40  68 100 147 195 226 278 349 432
#     4  11  26  49  75 102 133 183 238 302 355 408
#     4  11  26  42  70 103 139 184 236 278 358 418
#     4  12  27  37  65 106 147 183 229 287 355 429
#     4  10  25  39  70 101 140 179 232 295 346 422
#     4  12  25  44  67 101 144 192 228 289 341 434
#     4  10  22  43  64  96 140 187 232 280 348 413
#
# _framework density 21.592579000000001
#
# number of rings (size 3 to 8) (size 9 to 14) (size 15 to 20)
#    0.000    1.059    1.765    2.824   17.294    1.412 
#    0.000    0.000    0.000    1.412    0.000    0.000 
#    0.000    0.000    0.000    0.000    0.000    0.000 
#
# Total GULP energy -421445.681459 kJ/mol
# GULP energy per Si atom -12395.461219 kJ/mol
# Density = 2.154343 g / cm^3
# Si number density = 21.592579 Si / 1000 Ang^3
#
#
#
# Elastic Constant Matrix: (Units=GPa)
#
#
# Indices 1 2 3 4 5 6 
#
# 1 76.1198 24.8343 22.3470 -2.5028 -3.1338 -0.0002
# 2 24.8343 76.1188 22.3473 2.5023 3.1335 -0.0008
# 3 22.3470 22.3473 80.2337 0.0001 0.0004 -0.0002
# 4 -2.5028 2.5023 0.0001 31.1014 0.0000 3.1336
# 5 -3.1338 3.1335 0.0004 0.0000 31.1015 -2.5031
# 6 -0.0002 -0.0008 -0.0002 3.1336 -2.5031 25.6422
#
#
#
# Elastic Compliance Matrix: (Units=1/GPa)
#
#
# Indices 1 2 3 4 5 6 
#
# 1 0.015599 -0.004301 -0.003147 0.001601 0.002005 0.000000
# 2 -0.004301 0.015600 -0.003147 -0.001601 -0.002005 0.000000
# 3 -0.003147 -0.003147 0.014217 0.000000 0.000000 0.000000
# 4 0.001601 -0.001601 0.000000 0.032815 0.000000 -0.004010
# 5 0.002005 -0.002005 0.000000 0.000000 0.032815 0.003203
# 6 0.000000 0.000000 0.000000 -0.004010 0.003203 0.039801
#
#
# Mechanical properties :
#
#
# Convention : Reuss Voigt Hill
#
# Bulk Modulus (GPa) = 41.27764 41.28106 41.27935
# Shear Modulus (GPa) = 27.76071 28.43192 28.09632
#
# Velocity S-wave (km/s) = 3.58950 3.63263 3.61113
# Velocity P-wave (km/s) = 6.02805 6.06254 6.04532
#
# Compressibility (1/GPa) = 0.02422619
#
# Stress axis : x y z
#
# Youngs Moduli (GPa) = 64.10515 64.10425 70.34010
#
# Poissons Ratio (x) = 0.27569 0.22136
# Poissons Ratio (y) = 0.27570 0.22136
# Poissons Ratio (z) = 0.20174 0.20174
#
# Static dielectric constant tensor:
#      x y z
#    x 4.087010 -0.000010 0.000000 
#    y -0.000010 4.087020 -0.000010 
#    z 0.000000 -0.000010 4.086490 
# 
# 
# High freq. dielectric constant tensor:
#      x y z
#    x 1.850240 0.000000 0.000000 
#    y 0.000000 1.850240 0.000000 
#    z 0.000000 0.000000 1.856020 
# 
# From -- ./inp_files/557.got.cif
#   From: 2010.03.12/outbox.cif.g09.slc.cpg/sg147_cif.got.tgz:557.got - 2010.04.03 13:37:56.
