data_PCOD8321008
_publ_section_title
;
Structure prediction by ZEFSAII (Michael W. Deem and Ramdas Pophale) SiO2 
 PCOD8321008
Probable space group: I 41/A C D
;
_chemical_formula_sum "Si O2"
_cell_formula_units_Z 240
_cell_length_a 26.237259
_cell_length_b 26.237259
_cell_length_c 16.967669
_cell_angle_alpha 90.000000
_cell_angle_beta 90.000000
_cell_angle_gamma 90.000000
_cell_volume 11680.437459
_symmetry_space_group_name_H-M "I 41/A C D"
_symmetry_group_IT_number 142
_space_group.IT_coordinate_system_code '2'
_symmetry_cell_setting 'tetragonal'
loop_
_space_group_symop_operation_xyz
x,y,z
1/4-y,3/4+x,1/4+z
-x,1/2-y,z
1/4+y,1/4-x,3/4+z
x,-y,1/2-z
1/2-x,y,-z
3/4+y,1/4+x,1/4-z
1/4-y,1/4-x,1/4-z
-x,-y,-z
3/4+y,1/4-x,3/4-z
x,1/2+y,-z
3/4-y,3/4+x,1/4-z
-x,y,1/2+z
1/2+x,-y,z
1/4-y,3/4-x,3/4+z
3/4+y,3/4+x,3/4+z
1/2+x,1/2+y,1/2+z
3/4-y,1/4+x,3/4+z
1/2-x,-y,1/2+z
3/4+y,3/4-x,1/4+z
1/2+x,1/2-y,-z
-x,1/2+y,1/2-z
1/4+y,3/4+x,3/4-z
3/4-y,3/4-x,3/4-z
1/2-x,1/2-y,1/2-z
1/4+y,3/4-x,1/4-z
1/2+x,y,1/2-z
1/4-y,1/4+x,3/4-z
1/2-x,1/2+y,z
x,1/2-y,1/2+z
3/4-y,1/4-x,1/4+z
1/4+y,1/4+x,1/4+z
loop_
_atom_site_type_symbol
_atom_site_label
_atom_site_fract_x
_atom_site_fract_y
_atom_site_fract_z
Si Si1 0.267895 0.677869 0.918004
Si Si2 0.776955 0.657728 0.263148
Si Si3 0.926276 0.278112 0.395569
Si Si4 0.822894 0.422941 0.916540
Si Si5 0.826524 0.598752 0.757839
Si Si6 0.426905 0.845846 0.041914
Si Si7 0.166929 0.749761 0.194747
Si Si8 0.721872 0.528129 0.125000
O O1 0.221393 0.663349 0.858525
O O2 0.293125 0.625672 0.948903
O O3 0.308089 0.711463 0.868526
O O4 0.250000 0.705305 0.000000
O O5 0.816681 0.616367 0.231021
O O6 0.720583 0.638886 0.238356
O O7 0.788933 0.713595 0.228254
O O8 0.940850 0.218693 0.403524
O O9 0.922616 0.299353 0.482557
O O10 0.873124 0.285409 0.350736
O O11 0.845685 0.411018 0.830777
O O12 0.784491 0.470072 0.902094
O O13 0.874731 0.623492 0.799808
O O14 0.813080 0.545491 0.800820
O O15 0.433541 0.816460 0.125000
O O16 0.470449 0.886427 0.014906
#
# Coordination Sequence:
#
# PCOD8321008 Si02
#       8
#    32  32  32  32  32  32  32  16
#     4  11  25  41  61  91 129 166 215 257 308 385
#     4  10  22  39  64  87 120 167 207 256 316 375
#     4   9  21  41  65  91 120 166 207 256 324 383
#     4  10  21  38  61  86 123 169 211 249 311 366
#     4  10  19  36  57  92 126 161 206 254 311 371
#     4  11  21  37  67  93 122 157 206 266 319 371
#     4  11  22  42  66  86 130 164 207 260 319 378
#     4  10  20  34  58  92 128 163 210 264 295 364
#
# _framework density 20.547176
#
# number of rings (size 3 to 8) (size 9 to 14) (size 15 to 20)
#    0.000    1.733    3.333    1.600    1.867    4.800 
#    0.000    6.667    2.933    0.000    0.000    0.000 
#    0.000    0.000    0.000    0.000    0.000    0.000 
#
# Total GULP energy -1487077.709659 kJ/mol
# GULP energy per Si atom -12392.314247 kJ/mol
# Density = 2.050041 g / cm^3
# Si number density = 20.547176 Si / 1000 Ang^3
#
#
#
# Elastic Constant Matrix: (Units=GPa)
#
#
# Indices 1 2 3 4 5 6 
#
# 1 76.7514 53.2350 48.9353 0.0000 0.0000 0.0000
# 2 53.2350 76.7515 48.9358 0.0000 0.0000 0.0000
# 3 48.9353 48.9358 143.1002 0.0000 0.0000 0.0000
# 4 0.0000 0.0000 0.0000 28.2928 0.0000 0.0000
# 5 0.0000 0.0000 0.0000 0.0000 28.2928 0.0000
# 6 0.0000 0.0000 0.0000 0.0000 0.0000 24.1228
#
#
#
# Elastic Compliance Matrix: (Units=1/GPa)
#
#
# Indices 1 2 3 4 5 6 
#
# 1 0.026442 -0.016081 -0.003543 0.000000 0.000000 0.000000
# 2 -0.016081 0.026442 -0.003543 0.000000 0.000000 0.000000
# 3 -0.003543 -0.003543 0.009411 0.000000 0.000000 0.000000
# 4 0.000000 0.000000 0.000000 0.035345 0.000000 0.000000
# 5 0.000000 0.000000 0.000000 0.000000 0.035345 0.000000
# 6 0.000000 0.000000 0.000000 0.000000 0.000000 0.041455
#
#
# Mechanical properties :
#
#
# Convention : Reuss Voigt Hill
#
# Bulk Modulus (GPa) = 62.65388 66.53504 64.59446
# Shear Modulus (GPa) = 22.11464 25.84148 23.97806
#
# Velocity S-wave (km/s) = 3.28424 3.55021 3.41981
# Velocity P-wave (km/s) = 6.70377 7.01835 6.86286
#
# Compressibility (1/GPa) = 0.01596070
#
# Stress axis : x y z
#
# Youngs Moduli (GPa) = 37.81857 37.81836 106.25503
#
# Poissons Ratio (x) = 0.60817 0.37646
# Poissons Ratio (y) = 0.60817 0.37648
# Poissons Ratio (z) = 0.13399 0.13400
#
# Static dielectric constant tensor:
#      x y z
#    x 3.715880 0.000000 0.000000 
#    y 0.000000 3.715890 0.000000 
#    z 0.000000 0.000000 3.881150 
# 
# 
# High freq. dielectric constant tensor:
#      x y z
#    x 1.797810 0.000000 0.000000 
#    y 0.000000 1.797810 0.000000 
#    z 0.000000 0.000000 1.803020 
# 
# From -- ./inp_files/7823.got.cif
#   From: 2010.03.12/outbox.cif.g09.slc.cpg/sg142_4_cif.got.tgz:7823.got - 2010.04.03 13:27:16.
