data_PCOD8321857
_publ_section_title
;
Structure prediction by ZEFSAII (Michael W. Deem and Ramdas Pophale) SiO2 
 PCOD8321857
Probable space group: P 3 1 2
;
_chemical_formula_sum "Si O2"
_cell_formula_units_Z 32
_cell_length_a 15.891377
_cell_length_b 15.891377
_cell_length_c 8.169925
_cell_angle_alpha 90.000000
_cell_angle_beta 90.000000
_cell_angle_gamma 120.000000
_cell_volume 1786.782799
_symmetry_space_group_name_H-M "P 3 1 2"
_symmetry_group_IT_number 149
_symmetry_cell_setting 'hexagonal'
loop_
_space_group_symop_operation_xyz
x,y,z
-y,x-y,z
-x+y,-x,z
-y,-x,-z
-x+y,y,-z
x,x-y,-z
loop_
_atom_site_type_symbol
_atom_site_label
_atom_site_fract_x
_atom_site_fract_y
_atom_site_fract_z
Si Si1 0.043162 0.739858 0.331961
Si Si2 0.000000 0.000000 0.805580
Si Si3 0.888632 0.782604 0.807113
Si Si4 0.505556 0.806674 0.835823
Si Si5 0.150510 0.519244 0.665390
Si Si6 0.068621 0.296484 0.288813
O O1 0.060953 0.649907 0.289752
O O2 0.118369 0.843905 0.247958
O O3 0.062729 0.749094 0.522513
O O4 0.936381 0.717459 0.272461
O O5 0.931990 0.891799 0.737942
O O6 0.000000 0.000000 0.000000
O O7 0.960555 0.745043 0.756073
O O8 0.888948 0.777897 0.000000
O O9 0.491650 0.738715 0.674335
O O10 0.425005 0.838939 0.822175
O O11 0.608855 0.905404 0.819284
O O12 0.496260 0.748130 0.000000
O O13 0.137766 0.568883 0.500000
#
# Coordination Sequence:
#
# PCOD8321857 Si02
#       6
#     6   2   6   6   6   6
#     4  10  21  36  54  80 107 155 194 238 285 344
#     4   9  18  30  49  71 106 147 184 221 283 333
#     4  11  21  34  55  80 111 150 192 235 285 341
#     4  11  23  36  58  84 112 152 195 248 296 347
#     4  11  21  39  57  78 112 152 201 241 293 354
#     4  10  21  35  53  78 112 148 192 239 282 341
#
# _framework density 17.909285000000001
#
# number of rings (size 3 to 8) (size 9 to 14) (size 15 to 20)
#    0.000    1.500    3.750    2.062    5.250    0.000 
#    0.000    0.000    0.000    0.000    0.000    0.000 
#    1.875    0.375    0.000    0.000    0.000    0.000 
#
# Total GULP energy -396428.637710 kJ/mol
# GULP energy per Si atom -12388.394928 kJ/mol
# Density = 1.786852 g / cm^3
# Si number density = 17.909285 Si / 1000 Ang^3
#
#
#
# Elastic Constant Matrix: (Units=GPa)
#
#
# Indices 1 2 3 4 5 6 
#
# 1 123.1070 58.6113 31.1703 -0.0001 5.3049 0.0000
# 2 58.6113 123.1070 31.1703 0.0001 -5.3049 0.0000
# 3 31.1703 31.1703 62.8662 0.0000 0.0000 0.0000
# 4 -0.0001 0.0001 0.0000 25.0271 0.0000 -5.3049
# 5 5.3049 -5.3049 0.0000 0.0000 25.0271 -0.0001
# 6 0.0000 0.0000 0.0000 -5.3049 -0.0001 32.2478
#
#
#
# Elastic Compliance Matrix: (Units=1/GPa)
#
#
# Indices 1 2 3 4 5 6 
#
# 1 0.011348 -0.004717 -0.003288 0.000000 -0.003405 0.000000
# 2 -0.004717 0.011348 -0.003288 0.000000 0.003405 0.000000
# 3 -0.003288 -0.003288 0.019167 0.000000 0.000000 0.000000
# 4 0.000000 0.000000 0.000000 0.041400 0.000000 0.006811
# 5 -0.003405 0.003405 0.000000 0.000000 0.041400 0.000000
# 6 0.000000 0.000000 0.000000 0.006811 0.000000 0.032130
#
#
# Mechanical properties :
#
#
# Convention : Reuss Voigt Hill
#
# Bulk Modulus (GPa) = 51.87282 61.22048 56.54665
# Shear Modulus (GPa) = 26.90993 29.00229 27.95611
#
# Velocity S-wave (km/s) = 3.88050 4.02854 3.95522
# Velocity P-wave (km/s) = 7.00748 7.47641 7.24574
#
# Compressibility (1/GPa) = 0.01927792
#
# Stress axis : x y z
#
# Youngs Moduli (GPa) = 88.12115 88.12115 52.17285
#
# Poissons Ratio (x) = 0.41568 0.17153
# Poissons Ratio (y) = 0.41568 0.17153
# Poissons Ratio (z) = 0.28972 0.28972
#
# Static dielectric constant tensor:
#      x y z
#    x 3.181440 0.000000 0.000000 
#    y 0.000000 3.181440 0.000000 
#    z 0.000000 0.000000 3.147130 
# 
# 
# High freq. dielectric constant tensor:
#      x y z
#    x 1.667920 0.000000 0.000000 
#    y 0.000000 1.667920 0.000000 
#    z 0.000000 0.000000 1.702230 
# 
# From -- ./inp_files/598.got.cif
#   From: 2010.03.12/outbox.cif.g09.slc.cpg/sg149_cif.got.tgz:598.got - 2010.04.03 13:40:41.
