data_PCOD8321383
_publ_section_title
;
Structure prediction by ZEFSAII (Michael W. Deem and Ramdas Pophale) SiO2 
 PCOD8321383
Probable space group: P 31
;
_chemical_formula_sum "Si O2"
_cell_formula_units_Z 24
_cell_length_a 9.122794
_cell_length_b 9.122794
_cell_length_c 15.621701
_cell_angle_alpha 90.000000
_cell_angle_beta 90.000000
_cell_angle_gamma 120.000000
_cell_volume 1125.938551
_symmetry_space_group_name_H-M "P 31"
_symmetry_group_IT_number 144
_symmetry_cell_setting 'hexagonal'
loop_
_space_group_symop_operation_xyz
x,y,z
-y,x-y,1/3+z
-x+y,-x,2/3+z
loop_
_atom_site_type_symbol
_atom_site_label
_atom_site_fract_x
_atom_site_fract_y
_atom_site_fract_z
Si Si1 0.409828 0.704914 0.125000
Si Si2 0.692107 0.789984 0.258192
Si Si3 0.666559 0.927754 0.430710
Si Si4 0.980757 0.990379 0.125000
Si Si5 0.072246 0.333441 0.485957
Si Si6 0.745226 0.254775 0.958334
Si Si7 0.570031 0.285015 0.125000
Si Si8 0.210017 0.307893 0.658475
O O1 0.527577 0.761863 0.207985
O O2 0.276509 0.507435 0.124568
O O3 0.276508 0.769073 0.125432
O O4 0.527577 0.765714 0.042015
O O5 0.716452 0.918962 0.333061
O O6 0.660176 0.609053 0.291654
O O7 0.863745 0.877248 0.202408
O O8 0.637723 0.086718 0.441520
O O9 0.815201 0.927005 0.487902
O O10 0.111802 0.927003 0.095431
O O11 0.863746 0.986499 0.047592
O O12 0.081038 0.283548 0.583605
O O13 0.913282 0.362276 0.475146
O O14 0.684617 0.310540 0.873535
O O15 0.689462 0.315383 0.043133
O O16 0.660176 0.051123 0.958346
#
# Coordination Sequence:
#
# PCOD8321383 Si02
#       8
#     3   3   3   3   3   3   3   3
#     4  11  24  42  66  99 136 176 228 297 348 404
#     4  11  23  45  67  92 138 186 225 280 358 416
#     4  11  23  45  65 103 132 174 233 285 348 417
#     4  10  22  42  70  92 134 188 226 282 354 428
#     4  11  23  45  65 103 132 174 233 285 348 417
#     4  12  24  48  70 104 132 194 230 286 340 438
#     4  11  28  44  74 103 142 182 238 287 358 420
#     4  11  23  45  67  92 138 186 225 280 358 416
#
# _framework density 21.315550000000002
#
# number of rings (size 3 to 8) (size 9 to 14) (size 15 to 20)
#    0.000    1.000    5.000    0.750    3.500    1.000 
#    4.500    2.500    0.000    0.000    0.000    0.000 
#    0.000    0.000    0.000    0.000    0.000    0.000 
#
# Total GULP energy -297570.516725 kJ/mol
# GULP energy per Si atom -12398.771530 kJ/mol
# Density = 2.126703 g / cm^3
# Si number density = 21.315550 Si / 1000 Ang^3
#
#
#
# Elastic Constant Matrix: (Units=GPa)
#
#
# Indices 1 2 3 4 5 6 
#
# 1 125.5677 65.7822 39.3963 0.0000 -1.4231 0.0000
# 2 65.7822 125.5677 39.3963 0.0000 1.4231 0.0000
# 3 39.3963 39.3963 103.4926 0.0000 0.0000 0.0000
# 4 0.0000 0.0000 0.0000 26.1628 0.0000 1.4231
# 5 -1.4231 1.4231 0.0000 0.0000 26.1628 0.0000
# 6 0.0000 0.0000 0.0000 1.4231 0.0000 29.8928
#
#
#
# Elastic Compliance Matrix: (Units=1/GPa)
#
#
# Indices 1 2 3 4 5 6 
#
# 1 0.011484 -0.005286 -0.002359 0.000000 0.000912 0.000000
# 2 -0.005286 0.011484 -0.002359 0.000000 -0.000912 0.000000
# 3 -0.002359 -0.002359 0.011459 0.000000 0.000000 0.000000
# 4 0.000000 0.000000 0.000000 0.038321 0.000000 -0.001824
# 5 0.000912 -0.000912 0.000000 0.000000 0.038321 0.000000
# 6 0.000000 0.000000 0.000000 -0.001824 0.000000 0.033540
#
#
# Mechanical properties :
#
#
# Convention : Reuss Voigt Hill
#
# Bulk Modulus (GPa) = 69.36311 71.53084 70.44698
# Shear Modulus (GPa) = 29.51186 30.44722 29.97954
#
# Velocity S-wave (km/s) = 3.72495 3.78352 3.75435
# Velocity P-wave (km/s) = 7.14927 7.26069 7.20520
#
# Compressibility (1/GPa) = 0.01441688
#
# Stress axis : x y z
#
# Youngs Moduli (GPa) = 87.08015 87.08015 87.27032
#
# Poissons Ratio (x) = 0.46032 0.20589
# Poissons Ratio (y) = 0.46032 0.20589
# Poissons Ratio (z) = 0.20544 0.20544
#
# Static dielectric constant tensor:
#      x y z
#    x 3.987120 0.000000 0.000000 
#    y 0.000000 3.987120 0.000000 
#    z 0.000000 0.000000 3.801990 
# 
# 
# High freq. dielectric constant tensor:
#      x y z
#    x 1.846900 0.000000 0.000000 
#    y 0.000000 1.846900 0.000000 
#    z 0.000000 0.000000 1.826230 
# 
# From -- ./inp_files/835.got.cif
#   From: 2010.03.12/outbox.cif.g09.slc.cpg/sg144_cif.got.tgz:835.got - 2010.04.03 13:34:42.
