data_PCOD8321194
_publ_section_title
;
Structure prediction by ZEFSAII (Michael W. Deem and Ramdas Pophale) SiO2 
 PCOD8321194
Probable space group: I 41/A C D
;
_chemical_formula_sum "Si O2"
_cell_formula_units_Z 216
_cell_length_a 25.857578
_cell_length_b 25.857578
_cell_length_c 13.400137
_cell_angle_alpha 90.000000
_cell_angle_beta 90.000000
_cell_angle_gamma 90.000000
_cell_volume 8959.523757
_symmetry_space_group_name_H-M "I 41/A C D"
_symmetry_group_IT_number 142
_space_group.IT_coordinate_system_code '2'
_symmetry_cell_setting 'tetragonal'
loop_
_space_group_symop_operation_xyz
x,y,z
1/4-y,3/4+x,1/4+z
-x,1/2-y,z
1/4+y,1/4-x,3/4+z
x,-y,1/2-z
1/2-x,y,-z
3/4+y,1/4+x,1/4-z
1/4-y,1/4-x,1/4-z
-x,-y,-z
3/4+y,1/4-x,3/4-z
x,1/2+y,-z
3/4-y,3/4+x,1/4-z
-x,y,1/2+z
1/2+x,-y,z
1/4-y,3/4-x,3/4+z
3/4+y,3/4+x,3/4+z
1/2+x,1/2+y,1/2+z
3/4-y,1/4+x,3/4+z
1/2-x,-y,1/2+z
3/4+y,3/4-x,1/4+z
1/2+x,1/2-y,-z
-x,1/2+y,1/2-z
1/4+y,3/4+x,3/4-z
3/4-y,3/4-x,3/4-z
1/2-x,1/2-y,1/2-z
1/4+y,3/4-x,1/4-z
1/2+x,y,1/2-z
1/4-y,1/4+x,3/4-z
1/2-x,1/2+y,z
x,1/2-y,1/2+z
3/4-y,1/4-x,1/4+z
1/4+y,1/4+x,1/4+z
loop_
_atom_site_type_symbol
_atom_site_label
_atom_site_fract_x
_atom_site_fract_y
_atom_site_fract_z
Si Si1 0.619998 0.996581 0.138868
Si Si2 0.857843 0.580966 0.985302
Si Si3 0.372570 0.122570 0.875000
Si Si4 0.661348 0.814430 0.439395
Si Si5 0.964941 0.891866 0.395454
Si Si6 0.500000 0.750000 0.875000
Si Si7 0.505444 0.499938 0.882717
Si Si8 0.912779 0.798555 0.734763
O O1 0.562083 0.019211 0.149986
O O2 0.646381 0.000000 0.250000
O O3 0.617314 0.937315 0.104032
O O4 0.649256 0.028101 0.050245
O O5 0.829802 0.579802 0.875000
O O6 0.919430 0.591489 0.971526
O O7 0.831103 0.623406 0.058664
O O8 0.405726 0.144280 0.781116
O O9 0.624962 0.808617 0.539083
O O10 0.717059 0.787026 0.428427
O O11 0.629660 0.790967 0.349272
O O12 0.002130 0.847330 0.437031
O O13 0.998449 0.940203 0.355926
O O14 0.457619 0.720409 0.942274
O O15 0.500000 0.500000 0.000000
#
# Coordination Sequence:
#
# PCOD8321194 Si02
#       8
#    32  32  16  32  32   8  32  32
#     4  12  24  44  75 107 145 198 254 319 390 467
#     4  10  23  43  70 107 149 191 243 316 397 474
#     4  12  28  47  76 106 148 196 258 326 378 455
#     4  11  23  41  69 106 144 189 244 319 382 452
#     4  11  22  42  71 106 147 194 245 313 373 462
#     4  12  32  46  72 100 158 224 236 314 376 492
#     4  12  21  39  71 109 145 186 253 317 382 447
#     4  12  26  47  67 104 151 197 260 298 383 453
#
# _framework density 24.108425
#
# number of rings (size 3 to 8) (size 9 to 14) (size 15 to 20)
#    0.000    0.593    4.444    3.111    2.074    0.296 
#    0.000    0.000    1.630    0.000    0.000    0.000 
#    0.000    0.000    0.000    0.000    0.000    0.000 
#
# Total GULP energy -1338316.227258 kJ/mol
# GULP energy per Si atom -12391.816919 kJ/mol
# Density = 2.405355 g / cm^3
# Si number density = 24.108425 Si / 1000 Ang^3
#
#
#
# Elastic Constant Matrix: (Units=GPa)
#
#
# Indices 1 2 3 4 5 6 
#
# 1 100.3787 45.1816 38.4892 0.0000 0.0000 0.0000
# 2 45.1816 100.3787 38.4892 0.0000 0.0000 0.0000
# 3 38.4892 38.4892 133.3607 0.0000 0.0000 0.0000
# 4 0.0000 0.0000 0.0000 35.5288 0.0000 0.0000
# 5 0.0000 0.0000 0.0000 0.0000 35.5288 0.0000
# 6 0.0000 0.0000 0.0000 0.0000 0.0000 30.6905
#
#
#
# Elastic Compliance Matrix: (Units=1/GPa)
#
#
# Indices 1 2 3 4 5 6 
#
# 1 0.013112 -0.005005 -0.002340 0.000000 0.000000 0.000000
# 2 -0.005005 0.013112 -0.002340 0.000000 0.000000 0.000000
# 3 -0.002340 -0.002340 0.008849 0.000000 0.000000 0.000000
# 4 0.000000 0.000000 0.000000 0.028146 0.000000 0.000000
# 5 0.000000 0.000000 0.000000 0.000000 0.028146 0.000000
# 6 0.000000 0.000000 0.000000 0.000000 0.000000 0.032583
#
#
# Mechanical properties :
#
#
# Convention : Reuss Voigt Hill
#
# Bulk Modulus (GPa) = 63.67636 64.27092 63.97364
# Shear Modulus (GPa) = 33.65803 34.48016 34.06910
#
# Velocity S-wave (km/s) = 3.74051 3.78592 3.76328
# Velocity P-wave (km/s) = 6.71752 6.76963 6.74362
#
# Compressibility (1/GPa) = 0.01570441
#
# Stress axis : x y z
#
# Youngs Moduli (GPa) = 76.26512 76.26512 113.00599
#
# Poissons Ratio (x) = 0.38169 0.26442
# Poissons Ratio (y) = 0.38169 0.26442
# Poissons Ratio (z) = 0.17845 0.17845
#
# Static dielectric constant tensor:
#      x y z
#    x 0.653330 0.000000 0.000000 
#    y 0.000000 0.653330 0.000000 
#    z 0.000000 0.000000 -7.846470 
# 
# 
# High freq. dielectric constant tensor:
#      x y z
#    x 1.938510 0.000000 0.000000 
#    y 0.000000 1.938510 0.000000 
#    z 0.000000 0.000000 1.979110 
# 
# From -- ./inp_files/5805.got.cif
#   From: 2010.03.12/outbox.cif.g09.slc.cpg/sg142_3_cif.got.tgz:5805.got - 2010.04.03 13:27:16.
