data_PCOD8321905
_publ_section_title
;
Structure prediction by ZEFSAII (Michael W. Deem and Ramdas Pophale) SiO2 
 PCOD8321905
Probable space group: P 3 2 1
;
_chemical_formula_sum "Si O2"
_cell_formula_units_Z 24
_cell_length_a 13.411165
_cell_length_b 13.411165
_cell_length_c 8.887091
_cell_angle_alpha 90.000000
_cell_angle_beta 90.000000
_cell_angle_gamma 120.000000
_cell_volume 1384.277852
_symmetry_space_group_name_H-M "P 3 2 1"
_symmetry_group_IT_number 150
_symmetry_cell_setting 'hexagonal'
loop_
_space_group_symop_operation_xyz
x,y,z
-y,x-y,z
-x+y,-x,z
x-y,-y,-z
-x,-x+y,-z
y,x,-z
loop_
_atom_site_type_symbol
_atom_site_label
_atom_site_fract_x
_atom_site_fract_y
_atom_site_fract_z
Si Si1 0.449304 0.000059 0.321869
Si Si2 0.648472 0.775793 0.169804
Si Si3 0.351428 0.127294 0.169830
Si Si4 0.677898 0.000008 0.677643
O O1 0.452705 0.114494 0.253413
O O2 0.437728 0.000000 0.500000
O O3 0.338375 0.885602 0.253268
O O4 0.563472 0.000150 0.270018
O O5 0.763025 0.763062 0.168172
O O6 0.676597 0.888549 0.259834
O O7 0.609465 0.782187 0.999973
O O8 0.323081 0.211822 0.259733
O O9 0.687345 0.000000 0.500000
#
# Coordination Sequence:
#
# PCOD8321905 Si02
#       4
#     6   6   6   6
#     4   9  19  37  56  81 112 141 183 228 269 324
#     4   9  20  37  56  81 111 143 182 229 270 322
#     4   9  20  37  56  81 111 143 182 229 270 322
#     4  11  21  35  60  83 108 149 181 224 279 322
#
# _framework density 17.33756
#
# number of rings (size 3 to 8) (size 9 to 14) (size 15 to 20)
#    1.500    1.000    0.000    2.250    0.000    4.000 
#    4.500    0.000    0.000    0.000    0.000    0.000 
#    0.000    0.000    0.000    0.000    0.000    0.000 
#
# Total GULP energy -297372.555088 kJ/mol
# GULP energy per Si atom -12390.523129 kJ/mol
# Density = 1.729810 g / cm^3
# Si number density = 17.337560 Si / 1000 Ang^3
#
#
#
# Elastic Constant Matrix: (Units=GPa)
#
#
# Indices 1 2 3 4 5 6 
#
# 1 105.8484 51.7160 49.2828 0.0088 0.0000 0.0000
# 2 51.7160 105.8484 49.2828 -0.0088 0.0000 0.0000
# 3 49.2828 49.2828 105.6633 0.0000 0.0000 0.0000
# 4 0.0088 -0.0088 0.0000 26.1334 0.0000 0.0000
# 5 0.0000 0.0000 0.0000 0.0000 26.1334 0.0088
# 6 0.0000 0.0000 0.0000 0.0000 0.0088 27.0662
#
#
#
# Elastic Compliance Matrix: (Units=1/GPa)
#
#
# Indices 1 2 3 4 5 6 
#
# 1 0.013717 -0.004756 -0.004180 -0.000006 0.000000 0.000000
# 2 -0.004756 0.013717 -0.004180 0.000006 0.000000 0.000000
# 3 -0.004180 -0.004180 0.013363 0.000000 0.000000 0.000000
# 4 -0.000006 0.000006 0.000000 0.038265 0.000000 0.000000
# 5 0.000000 0.000000 0.000000 0.000000 0.038265 -0.000012
# 6 0.000000 0.000000 0.000000 0.000000 -0.000012 0.036946
#
#
# Mechanical properties :
#
#
# Convention : Reuss Voigt Hill
#
# Bulk Modulus (GPa) = 68.64928 68.65815 68.65371
# Shear Modulus (GPa) = 26.97449 27.00517 26.98983
#
# Velocity S-wave (km/s) = 3.94869 3.95094 3.94982
# Velocity P-wave (km/s) = 7.77633 7.77818 7.77725
#
# Compressibility (1/GPa) = 0.01456680
#
# Stress axis : x y z
#
# Youngs Moduli (GPa) = 72.90102 72.90102 74.83403
#
# Poissons Ratio (x) = 0.34672 0.31278
# Poissons Ratio (y) = 0.34672 0.31278
# Poissons Ratio (z) = 0.30470 0.30470
#
# Static dielectric constant tensor:
#      x y z
#    x 3.070170 0.000000 0.000000 
#    y 0.000000 3.070170 0.000000 
#    z 0.000000 0.000000 3.344890 
# 
# 
# High freq. dielectric constant tensor:
#      x y z
#    x 1.653640 0.000000 0.000000 
#    y 0.000000 1.653640 0.000000 
#    z 0.000000 0.000000 1.692660 
# 
# From -- ./inp_files/549.got.cif
#   From: 2010.03.12/outbox.cif.g09.slc.cpg/sg150_cif.got.tgz:549.got - 2010.04.03 13:41:37.
