data_PCOD8321887
_publ_section_title
;
Structure prediction by ZEFSAII (Michael W. Deem and Ramdas Pophale) SiO2 
 PCOD8321887
Probable space group: P 3 2 1
;
_chemical_formula_sum "Si O2"
_cell_formula_units_Z 14
_cell_length_a 6.886942
_cell_length_b 6.886942
_cell_length_c 14.689193
_cell_angle_alpha 90.000000
_cell_angle_beta 90.000000
_cell_angle_gamma 120.000000
_cell_volume 603.366814
_symmetry_space_group_name_H-M "P 3 2 1"
_symmetry_group_IT_number 150
_symmetry_cell_setting 'hexagonal'
loop_
_space_group_symop_operation_xyz
x,y,z
-y,x-y,z
-x+y,-x,z
x-y,-y,-z
-x,-x+y,-z
y,x,-z
loop_
_atom_site_type_symbol
_atom_site_label
_atom_site_fract_x
_atom_site_fract_y
_atom_site_fract_z
Si Si1 0.000000 0.000000 0.607446
Si Si2 0.883135 0.277351 0.909171
Si Si3 0.609234 0.737683 0.730568
O O1 0.014031 0.227144 0.644982
O O2 0.000000 0.000000 0.500000
O O3 0.908061 0.527008 0.907162
O O4 0.015576 0.253069 0.823164
O O5 0.000000 0.252631 0.000000
O O6 0.516029 0.913160 0.726337
#
# Coordination Sequence:
#
# PCOD8321887 Si02
#       3
#     2   6   6
#     4  12  27  48  73 104 133 177 237 297 367 425
#     4  10  20  34  64 101 149 187 229 276 326 402
#     4  10  23  44  68  99 141 181 229 283 352 405
#
# _framework density 23.203128
#
# number of rings (size 3 to 8) (size 9 to 14) (size 15 to 20)
#    1.714    0.000    0.000    5.143    0.000    1.714 
#    2.571    0.000    0.000    3.429    0.000    0.000 
#    0.000    0.000    0.000    0.000    0.000    0.000 
#
# Total GULP energy -173483.704102 kJ/mol
# GULP energy per Si atom -12391.693150 kJ/mol
# Density = 2.315032 g / cm^3
# Si number density = 23.203128 Si / 1000 Ang^3
#
#
#
# Elastic Constant Matrix: (Units=GPa)
#
#
# Indices 1 2 3 4 5 6 
#
# 1 71.5135 2.0477 43.1703 -7.8692 0.0000 0.0000
# 2 2.0477 71.5135 43.1703 7.8692 0.0000 0.0000
# 3 43.1703 43.1703 235.7866 0.0000 0.0000 0.0000
# 4 -7.8692 7.8692 0.0000 34.7883 0.0000 0.0000
# 5 0.0000 0.0000 0.0000 0.0000 34.7883 -7.8692
# 6 0.0000 0.0000 0.0000 0.0000 -7.8692 34.7329
#
#
#
# Elastic Compliance Matrix: (Units=1/GPa)
#
#
# Indices 1 2 3 4 5 6 
#
# 1 0.016244 0.001071 -0.003170 0.003432 0.000000 0.000000
# 2 0.001071 0.016244 -0.003170 -0.003432 0.000000 0.000000
# 3 -0.003170 -0.003170 0.005402 0.000000 0.000000 0.000000
# 4 0.003432 -0.003432 0.000000 0.030298 0.000000 0.000000
# 5 0.000000 0.000000 0.000000 0.000000 0.030298 0.006864
# 6 0.000000 0.000000 0.000000 0.000000 0.006864 0.030346
#
#
# Mechanical properties :
#
#
# Convention : Reuss Voigt Hill
#
# Bulk Modulus (GPa) = 36.56133 61.73222 49.14677
# Shear Modulus (GPa) = 33.67260 40.22361 36.94811
#
# Velocity S-wave (km/s) = 3.81361 4.16810 3.99479
# Velocity P-wave (km/s) = 5.93150 7.05882 6.51957
#
# Compressibility (1/GPa) = 0.02735130
#
# Stress axis : x y z
#
# Youngs Moduli (GPa) = 61.56065 61.56065 185.11659
#
# Poissons Ratio (x) = -0.06593 0.58686
# Poissons Ratio (y) = -0.06593 0.58686
# Poissons Ratio (z) = 0.19516 0.19516
#
# Static dielectric constant tensor:
#      x y z
#    x 3.857330 0.000000 0.000000 
#    y 0.000000 3.857330 0.000000 
#    z 0.000000 0.000000 3.609570 
# 
# 
# High freq. dielectric constant tensor:
#      x y z
#    x 1.910970 0.000000 0.000000 
#    y 0.000000 1.910970 0.000000 
#    z 0.000000 0.000000 1.881870 
# 
# From -- ./inp_files/817.got.cif
#   From: 2010.03.12/outbox.cif.g09.slc.cpg/sg150_cif.got.tgz:817.got - 2010.04.03 13:41:37.
