data_PCOD8321557
_publ_section_title
;
Structure prediction by ZEFSAII (Michael W. Deem and Ramdas Pophale) SiO2 
 PCOD8321557
Probable space group: R 3
;
_chemical_formula_sum "Si O2"
_cell_formula_units_Z 63
_cell_length_a 18.486933
_cell_length_b 18.486933
_cell_length_c 10.249685
_cell_angle_alpha 90.000000
_cell_angle_beta 90.000000
_cell_angle_gamma 120.000000
_cell_volume 3033.687798
_symmetry_space_group_name_H-M "R 3"
_symmetry_group_IT_number 146
_symmetry_cell_setting 'hexagonal'
loop_
_space_group_symop_operation_xyz
x,y,z
-y,x-y,z
-x+y,-x,z
2/3+x,1/3+y,1/3+z
2/3-y,1/3+x-y,1/3+z
2/3-x+y,1/3-x,1/3+z
1/3+x,2/3+y,2/3+z
1/3-y,2/3+x-y,2/3+z
1/3-x+y,2/3-x,2/3+z
loop_
_atom_site_type_symbol
_atom_site_label
_atom_site_fract_x
_atom_site_fract_y
_atom_site_fract_z
Si Si1 0.424325 0.848706 0.817000
Si Si2 0.814177 0.709871 0.480055
Si Si3 0.295985 0.949357 0.553530
Si Si4 0.105574 0.165437 0.847800
Si Si5 0.194095 0.069623 0.743872
Si Si6 0.008171 0.466005 0.464468
Si Si7 0.185475 0.093882 0.234571
O O1 0.415572 0.816943 0.667797
O O2 0.482436 0.822159 0.895563
O O3 0.337346 0.791626 0.892818
O O4 0.461468 0.947764 0.833955
O O5 0.726507 0.708420 0.462960
O O6 0.868391 0.772900 0.596844
O O7 0.873309 0.751593 0.356373
O O8 0.249629 0.857234 0.492169
O O9 0.393692 0.977554 0.586666
O O10 0.243430 0.944047 0.682211
O O11 0.162820 0.129608 0.801240
O O12 0.161850 0.264433 0.817645
O O13 0.022354 0.134896 0.760461
O O14 0.914262 0.446484 0.443948
#
# Coordination Sequence:
#
# PCOD8321557 Si02
#       7
#     9   9   9   9   9   9   9
#     4  12  25  45  71 101 135 181 229 283 340 409
#     4  12  24  45  68 102 139 174 234 285 336 400
#     4  11  19  39  69 104 127 173 234 279 322 387
#     4  11  22  43  65  99 132 175 224 279 334 396
#     4  11  25  41  69 101 136 179 223 279 337 408
#     4  11  20  38  69  99 129 173 225 278 330 390
#     4  12  25  43  69  98 140 179 221 283 345 408
#
# _framework density 20.766805000000002
#
# number of rings (size 3 to 8) (size 9 to 14) (size 15 to 20)
#    0.000    0.571    5.714    5.714    0.000    1.143 
#    5.143    0.000    0.000    0.000    0.000    0.000 
#    0.000    0.000    0.000    0.000    0.000    0.000 
#
# Total GULP energy -260219.036735 kJ/mol
# GULP energy per Si atom -12391.382702 kJ/mol
# Density = 2.071954 g / cm^3
# Si number density = 20.766805 Si / 1000 Ang^3
#
#
#
# Elastic Constant Matrix: (Units=GPa)
#
#
# Indices 1 2 3 4 5 6 
#
# 1 150.6992 65.6315 48.4291 -1.9013 1.0234 0.0000
# 2 65.6315 150.6992 48.4291 1.9013 -1.0234 0.0000
# 3 48.4291 48.4291 58.5515 0.0000 0.0000 0.0000
# 4 -1.9013 1.9013 0.0000 29.6242 0.0000 -1.0234
# 5 1.0234 -1.0234 0.0000 0.0000 29.6242 -1.9013
# 6 0.0000 0.0000 0.0000 -1.0234 -1.9013 42.5338
#
#
#
# Elastic Compliance Matrix: (Units=1/GPa)
#
#
# Indices 1 2 3 4 5 6 
#
# 1 0.009570 -0.002229 -0.006072 0.000757 -0.000408 0.000000
# 2 -0.002229 0.009570 -0.006072 -0.000757 0.000408 0.000000
# 3 -0.006072 -0.006072 0.027124 0.000000 0.000000 0.000000
# 4 0.000757 -0.000757 0.000000 0.033881 0.000000 0.000815
# 5 -0.000408 0.000408 0.000000 0.000000 0.033882 0.001515
# 6 0.000000 0.000000 0.000000 0.000815 0.001515 0.023598
#
#
# Mechanical properties :
#
#
# Convention : Reuss Voigt Hill
#
# Bulk Modulus (GPa) = 57.08480 76.10325 66.59403
# Shear Modulus (GPa) = 29.03431 33.52048 31.27740
#
# Velocity S-wave (km/s) = 3.74319 4.02199 3.88509
# Velocity P-wave (km/s) = 6.79927 7.63510 7.22927
#
# Compressibility (1/GPa) = 0.01751780
#
# Stress axis : x y z
#
# Youngs Moduli (GPa) = 104.49210 104.49211 36.86831
#
# Poissons Ratio (x) = 0.23290 0.22387
# Poissons Ratio (y) = 0.23290 0.22387
# Poissons Ratio (z) = 0.63448 0.63448
#
# Static dielectric constant tensor:
#      x y z
#    x 3.801570 0.000000 0.000000 
#    y 0.000000 3.801570 0.000000 
#    z 0.000000 0.000000 4.054900 
# 
# 
# High freq. dielectric constant tensor:
#      x y z
#    x 1.812620 0.000000 0.000000 
#    y 0.000000 1.812620 0.000000 
#    z 0.000000 0.000000 1.817570 
# 
# From -- ./inp_files/1231.got.cif
#   From: 2010.06.25/outbox.cif.g09.slc.cpg/sg146_cif.got.tgz:1231.got - 2010.06.28 11:17:22.
