data_PCOD8321055
_publ_section_title
;
Structure prediction by ZEFSAII (Michael W. Deem and Ramdas Pophale) SiO2 
 PCOD8321055
Probable space group: I 41/A C D
;
_chemical_formula_sum "Si O2"
_cell_formula_units_Z 160
_cell_length_a 20.384762
_cell_length_b 20.384762
_cell_length_c 16.278580
_cell_angle_alpha 90.000000
_cell_angle_beta 90.000000
_cell_angle_gamma 90.000000
_cell_volume 6764.377070
_symmetry_space_group_name_H-M "I 41/A C D"
_symmetry_group_IT_number 142
_space_group.IT_coordinate_system_code '2'
_symmetry_cell_setting 'tetragonal'
loop_
_space_group_symop_operation_xyz
x,y,z
1/4-y,3/4+x,1/4+z
-x,1/2-y,z
1/4+y,1/4-x,3/4+z
x,-y,1/2-z
1/2-x,y,-z
3/4+y,1/4+x,1/4-z
1/4-y,1/4-x,1/4-z
-x,-y,-z
3/4+y,1/4-x,3/4-z
x,1/2+y,-z
3/4-y,3/4+x,1/4-z
-x,y,1/2+z
1/2+x,-y,z
1/4-y,3/4-x,3/4+z
3/4+y,3/4+x,3/4+z
1/2+x,1/2+y,1/2+z
3/4-y,1/4+x,3/4+z
1/2-x,-y,1/2+z
3/4+y,3/4-x,1/4+z
1/2+x,1/2-y,-z
-x,1/2+y,1/2-z
1/4+y,3/4+x,3/4-z
3/4-y,3/4-x,3/4-z
1/2-x,1/2-y,1/2-z
1/4+y,3/4-x,1/4-z
1/2+x,y,1/2-z
1/4-y,1/4+x,3/4-z
1/2-x,1/2+y,z
x,1/2-y,1/2+z
3/4-y,1/4-x,1/4+z
1/4+y,1/4+x,1/4+z
loop_
_atom_site_type_symbol
_atom_site_label
_atom_site_fract_x
_atom_site_fract_y
_atom_site_fract_z
Si Si1 0.000000 0.250000 0.018954
Si Si2 0.442303 0.500000 0.250000
Si Si3 0.181159 0.582860 0.467522
Si Si4 0.968818 0.611441 0.813129
Si Si5 0.748912 0.659376 0.320085
Si Si6 0.999183 0.398263 0.006827
O O1 0.933536 0.250565 0.071471
O O2 0.996770 0.322000 0.972668
O O3 0.488018 0.564344 0.243868
O O4 0.397044 0.499222 0.331643
O O5 0.250000 0.608299 0.500000
O O6 0.191004 0.558997 0.375000
O O7 0.133233 0.646152 0.475787
O O8 0.156106 0.523846 0.524449
O O9 0.960906 0.589168 0.907558
O O10 0.820159 0.677887 0.280486
O O11 0.694871 0.717368 0.310203
#
# Coordination Sequence:
#
# PCOD8321055 Si02
#       6
#    16  16  32  32  32  32
#     4  12  21  38  71 112 137 176 241 310 371 439
#     4  10  24  44  64 100 150 192 226 296 378 444
#     4  12  24  46  74 101 134 189 254 299 348 439
#     4  11  20  40  68 102 140 182 236 298 365 436
#     4  10  22  44  67 100 136 193 238 291 369 437
#     4  10  20  37  71  98 140 179 233 293 367 436
#
# _framework density 23.653323
#
# number of rings (size 3 to 8) (size 9 to 14) (size 15 to 20)
#    0.000    1.200    5.000    1.800    0.000    0.000 
#    9.000    3.000    0.000    0.000    0.000    0.000 
#    0.000    0.000    0.000    0.000    0.000    0.000 
#
# Total GULP energy -991056.561108 kJ/mol
# GULP energy per Si atom -12388.207014 kJ/mol
# Density = 2.359949 g / cm^3
# Si number density = 23.653323 Si / 1000 Ang^3
#
#
#
# Elastic Constant Matrix: (Units=GPa)
#
#
# Indices 1 2 3 4 5 6 
#
# 1 127.2914 29.5986 27.1495 0.0000 0.0000 0.0000
# 2 29.5986 127.2920 27.1497 0.0000 0.0000 0.0000
# 3 27.1495 27.1497 106.1066 0.0000 0.0000 0.0000
# 4 0.0000 0.0000 0.0000 26.1873 0.0000 0.0000
# 5 0.0000 0.0000 0.0000 0.0000 26.1874 0.0000
# 6 0.0000 0.0000 0.0000 0.0000 0.0000 33.1256
#
#
#
# Elastic Compliance Matrix: (Units=1/GPa)
#
#
# Indices 1 2 3 4 5 6 
#
# 1 0.008615 -0.001621 -0.001789 0.000000 0.000000 0.000000
# 2 -0.001621 0.008615 -0.001789 0.000000 0.000000 0.000000
# 3 -0.001789 -0.001789 0.010340 0.000000 0.000000 0.000000
# 4 0.000000 0.000000 0.000000 0.038186 0.000000 0.000000
# 5 0.000000 0.000000 0.000000 0.000000 0.038186 0.000000
# 6 0.000000 0.000000 0.000000 0.000000 0.000000 0.030188
#
#
# Mechanical properties :
#
#
# Convention : Reuss Voigt Hill
#
# Bulk Modulus (GPa) = 58.24414 58.72063 58.48239
# Shear Modulus (GPa) = 33.27704 35.55287 34.41496
#
# Velocity S-wave (km/s) = 3.75489 3.88117 3.81855
# Velocity P-wave (km/s) = 6.59367 6.70552 6.64983
#
# Compressibility (1/GPa) = 0.01716911
#
# Stress axis : x y z
#
# Youngs Moduli (GPa) = 116.08108 116.08148 96.71020
#
# Poissons Ratio (x) = 0.18822 0.17305
# Poissons Ratio (y) = 0.18822 0.17305
# Poissons Ratio (z) = 0.20771 0.20771
#
# Static dielectric constant tensor:
#      x y z
#    x 4.265580 0.000000 0.000000 
#    y 0.000000 4.265580 0.000000 
#    z 0.000000 0.000000 3.913060 
# 
# 
# High freq. dielectric constant tensor:
#      x y z
#    x 1.936430 0.000000 0.000000 
#    y 0.000000 1.936430 0.000000 
#    z 0.000000 0.000000 1.909960 
# 
# From -- ./inp_files/7442.got.cif
#   From: 2010.03.12/outbox.cif.g09.slc.cpg/sg142_4_cif.got.tgz:7442.got - 2010.04.03 13:27:16.
