data_PCOD8321125
_publ_section_title
;
Structure prediction by ZEFSAII (Michael W. Deem and Ramdas Pophale) SiO2 
 PCOD8321125
Probable space group: I 41/A C D
;
_chemical_formula_sum "Si O2"
_cell_formula_units_Z 176
_cell_length_a 17.300794
_cell_length_b 17.300794
_cell_length_c 26.307617
_cell_angle_alpha 90.000000
_cell_angle_beta 90.000000
_cell_angle_gamma 90.000000
_cell_volume 7874.329442
_symmetry_space_group_name_H-M "I 41/A C D"
_symmetry_group_IT_number 142
_space_group.IT_coordinate_system_code '2'
_symmetry_cell_setting 'tetragonal'
loop_
_space_group_symop_operation_xyz
x,y,z
1/4-y,3/4+x,1/4+z
-x,1/2-y,z
1/4+y,1/4-x,3/4+z
x,-y,1/2-z
1/2-x,y,-z
3/4+y,1/4+x,1/4-z
1/4-y,1/4-x,1/4-z
-x,-y,-z
3/4+y,1/4-x,3/4-z
x,1/2+y,-z
3/4-y,3/4+x,1/4-z
-x,y,1/2+z
1/2+x,-y,z
1/4-y,3/4-x,3/4+z
3/4+y,3/4+x,3/4+z
1/2+x,1/2+y,1/2+z
3/4-y,1/4+x,3/4+z
1/2-x,-y,1/2+z
3/4+y,3/4-x,1/4+z
1/2+x,1/2-y,-z
-x,1/2+y,1/2-z
1/4+y,3/4+x,3/4-z
3/4-y,3/4-x,3/4-z
1/2-x,1/2-y,1/2-z
1/4+y,3/4-x,1/4-z
1/2+x,y,1/2-z
1/4-y,1/4+x,3/4-z
1/2-x,1/2+y,z
x,1/2-y,1/2+z
3/4-y,1/4-x,1/4+z
1/4+y,1/4+x,1/4+z
loop_
_atom_site_type_symbol
_atom_site_label
_atom_site_fract_x
_atom_site_fract_y
_atom_site_fract_z
Si Si1 0.074383 0.153301 0.890244
Si Si2 0.607919 0.369098 0.750815
Si Si3 0.750000 0.473569 0.000000
Si Si4 0.654797 0.210855 0.937846
Si Si5 0.763256 0.086007 0.912965
Si Si6 0.506965 0.859626 0.088189
O O1 0.109438 0.236261 0.875767
O O2 0.069060 0.156208 0.951105
O O3 0.129362 0.087515 0.865910
O O4 0.669540 0.430899 0.731514
O O5 0.530123 0.410432 0.771698
O O6 0.641679 0.314337 0.795367
O O7 0.712916 0.520242 0.952997
O O8 0.720346 0.148305 0.949424
O O9 0.567941 0.175941 0.939907
O O10 0.676159 0.234737 0.878842
O O11 0.700049 0.049952 0.875000
O O12 0.546637 0.796637 0.125000
#
# Coordination Sequence:
#
# PCOD8321125 Si02
#       6
#    32  32  16  32  32  32
#     4  11  29  50  72 106 144 194 237 300 367 439
#     4  11  24  44  70 101 143 183 242 287 357 431
#     4  12  30  44  66 104 136 196 236 292 368 418
#     4  10  21  40  74 105 134 186 236 293 352 424
#     4  12  26  50  69 102 150 182 243 299 362 437
#     4   9  18  37  69 107 132 175 237 292 334 419
#
# _framework density 22.351111
#
# number of rings (size 3 to 8) (size 9 to 14) (size 15 to 20)
#    0.000    1.273    3.636    3.818   10.182    3.636 
#    0.000    2.727    0.000    0.000    0.000    0.000 
#    0.000    0.000    0.000    0.000    0.000    0.000 
#
# Total GULP energy -1090389.412347 kJ/mol
# GULP energy per Si atom -12390.788777 kJ/mol
# Density = 2.230024 g / cm^3
# Si number density = 22.351111 Si / 1000 Ang^3
#
#
#
# Elastic Constant Matrix: (Units=GPa)
#
#
# Indices 1 2 3 4 5 6 
#
# 1 83.9209 54.8287 27.1661 0.0000 0.0000 0.0000
# 2 54.8287 83.9200 27.1661 0.0000 0.0000 0.0000
# 3 27.1661 27.1661 83.4381 0.0000 0.0000 0.0000
# 4 0.0000 0.0000 0.0000 29.1426 0.0000 0.0000
# 5 0.0000 0.0000 0.0000 0.0000 29.1428 0.0000
# 6 0.0000 0.0000 0.0000 0.0000 0.0000 32.4206
#
#
#
# Elastic Compliance Matrix: (Units=1/GPa)
#
#
# Indices 1 2 3 4 5 6 
#
# 1 0.021317 -0.013057 -0.002689 0.000000 0.000000 0.000000
# 2 -0.013057 0.021317 -0.002689 0.000000 0.000000 0.000000
# 3 -0.002689 -0.002689 0.013736 0.000000 0.000000 0.000000
# 4 0.000000 0.000000 0.000000 0.034314 0.000000 0.000000
# 5 0.000000 0.000000 0.000000 0.000000 0.034314 0.000000
# 6 0.000000 0.000000 0.000000 0.000000 0.000000 0.030845
#
#
# Mechanical properties :
#
#
# Convention : Reuss Voigt Hill
#
# Bulk Modulus (GPa) = 51.28415 52.17788 51.73101
# Shear Modulus (GPa) = 25.09859 27.61572 26.35716
#
# Velocity S-wave (km/s) = 3.35464 3.51884 3.43772
# Velocity P-wave (km/s) = 6.16437 6.31704 6.24117
#
# Compressibility (1/GPa) = 0.01949920
#
# Stress axis : x y z
#
# Youngs Moduli (GPa) = 46.91068 46.91014 72.80026
#
# Poissons Ratio (x) = 0.61250 0.19579
# Poissons Ratio (y) = 0.61250 0.19580
# Poissons Ratio (z) = 0.12616 0.12616
#
# Static dielectric constant tensor:
#      x y z
#    x 4.172950 0.000000 0.000000 
#    y 0.000000 4.172950 0.000000 
#    z 0.000000 0.000000 4.499880 
# 
# 
# High freq. dielectric constant tensor:
#      x y z
#    x 1.874460 0.000000 0.000000 
#    y 0.000000 1.874460 0.000000 
#    z 0.000000 0.000000 1.888900 
# 
# From -- ./inp_files/11459.got.cif
#   From: 2010.03.12/outbox.cif.g09.slc.cpg/sg142_6_cif.got.tgz:11459.got - 2010.04.03 13:27:16.
