data_PCOD8321880
_publ_section_title
;
Structure prediction by ZEFSAII (Michael W. Deem and Ramdas Pophale) SiO2 
 PCOD8321880
Probable space group: P 3 2 1
;
_chemical_formula_sum "Si O2"
_cell_formula_units_Z 38
_cell_length_a 14.438835
_cell_length_b 14.438835
_cell_length_c 11.178832
_cell_angle_alpha 90.000000
_cell_angle_beta 90.000000
_cell_angle_gamma 120.000000
_cell_volume 2018.326248
_symmetry_space_group_name_H-M "P 3 2 1"
_symmetry_group_IT_number 150
_symmetry_cell_setting 'hexagonal'
loop_
_space_group_symop_operation_xyz
x,y,z
-y,x-y,z
-x+y,-x,z
x-y,-y,-z
-x,-x+y,-z
y,x,-z
loop_
_atom_site_type_symbol
_atom_site_label
_atom_site_fract_x
_atom_site_fract_y
_atom_site_fract_z
Si Si1 0.788578 0.788578 0.641814
Si Si2 0.755225 0.563001 0.639320
Si Si3 0.755225 0.563001 0.360680
Si Si4 0.567981 0.365843 1.000000
Si Si5 0.586952 0.120037 0.256453
Si Si6 0.000000 0.000000 0.642914
Si Si7 0.586952 0.120037 0.743547
O O1 0.794237 0.794237 0.500000
O O2 0.785588 0.680636 0.687116
O O3 0.680636 0.785588 0.687116
O O4 0.893968 0.893968 0.692239
O O5 0.726562 0.553272 0.500000
O O6 0.853354 0.543466 0.663916
O O7 0.656991 0.466433 0.709140
O O8 0.853354 0.543466 0.336084
O O9 0.656991 0.466433 0.290860
O O10 0.549424 0.245332 0.000000
O O11 0.514197 0.382454 0.883105
O O12 0.514197 0.382454 0.116895
O O13 0.498845 1.000000 0.286565
O O14 0.000000 0.000000 0.500000
#
# Coordination Sequence:
#
# PCOD8321880 Si02
#       7
#     6   6   6   6   6   2   6
#     4   9  20  36  55  80 113 152 195 228 269 337
#     4  11  22  37  56  85 122 156 188 231 288 355
#     4  11  22  37  56  85 122 156 188 231 288 355
#     4  10  19  40  62  78 112 156 196 241 292 348
#     4  12  23  38  61  86 117 153 195 244 297 346
#     4   9  18  36  57  75 105 154 191 229 270 315
#     4  12  23  38  61  86 117 153 195 244 297 346
#
# _framework density 18.827480999999999
#
# number of rings (size 3 to 8) (size 9 to 14) (size 15 to 20)
#    0.316    0.947    4.737    2.053    2.211    1.895 
#    0.000    0.000    0.000    0.000    0.000    0.000 
#    0.000    0.000    0.000    0.000    0.000    0.000 
#
# Total GULP energy -471244.517027 kJ/mol
# GULP energy per Si atom -12401.171501 kJ/mol
# Density = 1.878463 g / cm^3
# Si number density = 18.827481 Si / 1000 Ang^3
#
#
#
# Elastic Constant Matrix: (Units=GPa)
#
#
# Indices 1 2 3 4 5 6 
#
# 1 102.7031 28.8427 18.2392 0.0000 0.0000 0.0000
# 2 28.8427 102.7031 18.2392 0.0000 0.0000 0.0000
# 3 18.2392 18.2392 61.1483 0.0000 0.0000 0.0000
# 4 0.0000 0.0000 0.0000 17.6453 0.0000 0.0000
# 5 0.0000 0.0000 0.0000 0.0000 17.6453 0.0000
# 6 0.0000 0.0000 0.0000 0.0000 0.0000 36.9302
#
#
#
# Elastic Compliance Matrix: (Units=1/GPa)
#
#
# Indices 1 2 3 4 5 6 
#
# 1 0.010913 -0.002626 -0.002472 0.000000 0.000000 0.000000
# 2 -0.002626 0.010913 -0.002472 0.000000 0.000000 0.000000
# 3 -0.002472 -0.002472 0.017828 0.000000 0.000000 0.000000
# 4 0.000000 0.000000 0.000000 0.056672 0.000000 0.000000
# 5 0.000000 0.000000 0.000000 0.000000 0.056672 0.000000
# 6 0.000000 0.000000 0.000000 0.000000 0.000000 0.027078
#
#
# Mechanical properties :
#
#
# Convention : Reuss Voigt Hill
#
# Bulk Modulus (GPa) = 40.79076 44.13294 42.46185
# Shear Modulus (GPa) = 24.58344 27.85971 26.22157
#
# Velocity S-wave (km/s) = 3.61740 3.85091 3.73598
# Velocity P-wave (km/s) = 6.25779 6.57756 6.41967
#
# Compressibility (1/GPa) = 0.02451536
#
# Stress axis : x y z
#
# Youngs Moduli (GPa) = 91.63188 91.63188 56.09050
#
# Poissons Ratio (x) = 0.24061 0.13865
# Poissons Ratio (y) = 0.24061 0.13865
# Poissons Ratio (z) = 0.22651 0.22651
#
# Static dielectric constant tensor:
#      x y z
#    x 3.406130 0.000000 0.000000 
#    y 0.000000 3.406130 0.000000 
#    z 0.000000 0.000000 3.124270 
# 
# 
# High freq. dielectric constant tensor:
#      x y z
#    x 1.731040 0.000000 0.000000 
#    y 0.000000 1.731040 0.000000 
#    z 0.000000 0.000000 1.706530 
# 
# From -- ./inp_files/936.got.cif
#   From: 2010.03.12/outbox.cif.g09.slc.cpg/sg150_cif.got.tgz:936.got - 2010.04.03 13:41:37.
