data_PCOD8321429
_publ_section_title
;
Structure prediction by ZEFSAII (Michael W. Deem and Ramdas Pophale) SiO2 
 PCOD8321429
Probable space group: P 31
;
_chemical_formula_sum "Si O2"
_cell_formula_units_Z 18
_cell_length_a 11.680946
_cell_length_b 11.680946
_cell_length_c 6.535438
_cell_angle_alpha 90.000000
_cell_angle_beta 90.000000
_cell_angle_gamma 120.000000
_cell_volume 772.256128
_symmetry_space_group_name_H-M "P 31"
_symmetry_group_IT_number 144
_symmetry_cell_setting 'hexagonal'
loop_
_space_group_symop_operation_xyz
x,y,z
-y,x-y,1/3+z
-x+y,-x,2/3+z
loop_
_atom_site_type_symbol
_atom_site_label
_atom_site_fract_x
_atom_site_fract_y
_atom_site_fract_z
Si Si1 0.765967 0.318556 0.166480
Si Si2 0.351031 0.927790 0.718793
Si Si3 0.137073 0.817694 0.404950
Si Si4 0.737056 0.081291 0.396316
Si Si5 0.104486 0.008138 0.126553
Si Si6 0.143825 0.703555 0.005269
O O1 0.733392 0.421478 0.283553
O O2 0.708195 0.195275 0.324734
O O3 0.923192 0.379130 0.124499
O O4 0.265560 0.928937 0.525546
O O5 0.250545 0.839180 0.897493
O O6 0.418553 0.844556 0.636141
O O7 0.030445 0.715220 0.558236
O O8 0.074254 0.888614 0.275092
O O9 0.167485 0.731449 0.247059
O O10 0.894944 0.154285 0.426057
O O11 0.664517 0.008177 0.605602
O O12 0.042075 0.088751 0.234214
#
# Coordination Sequence:
#
# PCOD8321429 Si02
#       6
#     3   3   3   3   3   3
#     4  12  28  50  75 106 150 200 250 308 371 449
#     4  11  28  45  73 107 140 194 247 301 370 436
#     4  11  25  42  68 102 144 182 237 304 356 438
#     4  11  25  42  68 105 139 187 241 292 369 429
#     4  12  23  39  69 106 143 185 229 294 364 430
#     4  11  25  46  69 102 142 188 238 305 364 432
#
# _framework density 23.308330000000002
#
# number of rings (size 3 to 8) (size 9 to 14) (size 15 to 20)
#    0.000    0.667    3.333    3.000    7.000    8.000 
#    0.000    0.000    0.000    0.000    0.000    0.000 
#    0.000    0.000    0.000    0.000    0.000    0.000 
#
# Total GULP energy -223123.128998 kJ/mol
# GULP energy per Si atom -12395.729389 kJ/mol
# Density = 2.325528 g / cm^3
# Si number density = 23.308330 Si / 1000 Ang^3
#
#
#
# Elastic Constant Matrix: (Units=GPa)
#
#
# Indices 1 2 3 4 5 6 
#
# 1 101.8603 23.5841 27.7395 2.4425 -5.3684 0.0000
# 2 23.5841 101.8603 27.7395 -2.4425 5.3684 0.0000
# 3 27.7395 27.7395 101.8883 0.0000 0.0000 0.0000
# 4 2.4425 -2.4425 0.0000 31.5929 0.0000 5.3684
# 5 -5.3684 5.3684 0.0000 0.0000 31.5929 2.4425
# 6 0.0000 0.0000 0.0000 5.3684 2.4425 39.1381
#
#
#
# Elastic Compliance Matrix: (Units=1/GPa)
#
#
# Indices 1 2 3 4 5 6 
#
# 1 0.011104 -0.002041 -0.002467 -0.001016 0.002234 0.000000
# 2 -0.002041 0.011104 -0.002467 0.001016 -0.002234 0.000000
# 3 -0.002467 -0.002467 0.011158 0.000000 0.000000 0.000000
# 4 -0.001016 0.001016 0.000000 0.032569 0.000000 -0.004467
# 5 0.002234 -0.002234 0.000000 0.000000 0.032569 -0.002033
# 6 0.000000 0.000000 0.000000 -0.004467 -0.002033 0.026290
#
#
# Mechanical properties :
#
#
# Convention : Reuss Voigt Hill
#
# Bulk Modulus (GPa) = 51.50830 51.52612 51.51721
# Shear Modulus (GPa) = 34.43114 35.56784 34.99949
#
# Velocity S-wave (km/s) = 3.84761 3.91061 3.87924
# Velocity P-wave (km/s) = 6.47190 6.52263 6.49731
#
# Compressibility (1/GPa) = 0.01941435
#
# Stress axis : x y z
#
# Youngs Moduli (GPa) = 90.05773 90.05774 89.62025
#
# Poissons Ratio (x) = 0.18382 0.22113
# Poissons Ratio (y) = 0.18382 0.22113
# Poissons Ratio (z) = 0.22221 0.22221
#
# Static dielectric constant tensor:
#      x y z
#    x 4.238900 0.000000 0.000000 
#    y 0.000000 4.238900 0.000000 
#    z 0.000000 0.000000 4.412380 
# 
# 
# High freq. dielectric constant tensor:
#      x y z
#    x 1.922140 0.000000 0.000000 
#    y 0.000000 1.922140 0.000000 
#    z 0.000000 0.000000 1.930770 
# 
# From -- ./inp_files/92.got.cif
#   From: 2010.03.12/outbox.cif.g09.slc.cpg/sg144_cif.got.tgz:92.got - 2010.04.03 13:34:42.
