data_PCOD8321014
_publ_section_title
;
Structure prediction by ZEFSAII (Michael W. Deem and Ramdas Pophale) SiO2 
 PCOD8321014
Probable space group: I 41/A C D
;
_chemical_formula_sum "Si O2"
_cell_formula_units_Z 176
_cell_length_a 16.935672
_cell_length_b 16.935672
_cell_length_c 28.097347
_cell_angle_alpha 90.000000
_cell_angle_beta 90.000000
_cell_angle_gamma 90.000000
_cell_volume 8058.796384
_symmetry_space_group_name_H-M "I 41/A C D"
_symmetry_group_IT_number 142
_space_group.IT_coordinate_system_code '2'
_symmetry_cell_setting 'tetragonal'
loop_
_space_group_symop_operation_xyz
x,y,z
1/4-y,3/4+x,1/4+z
-x,1/2-y,z
1/4+y,1/4-x,3/4+z
x,-y,1/2-z
1/2-x,y,-z
3/4+y,1/4+x,1/4-z
1/4-y,1/4-x,1/4-z
-x,-y,-z
3/4+y,1/4-x,3/4-z
x,1/2+y,-z
3/4-y,3/4+x,1/4-z
-x,y,1/2+z
1/2+x,-y,z
1/4-y,3/4-x,3/4+z
3/4+y,3/4+x,3/4+z
1/2+x,1/2+y,1/2+z
3/4-y,1/4+x,3/4+z
1/2-x,-y,1/2+z
3/4+y,3/4-x,1/4+z
1/2+x,1/2-y,-z
-x,1/2+y,1/2-z
1/4+y,3/4+x,3/4-z
3/4-y,3/4-x,3/4-z
1/2-x,1/2-y,1/2-z
1/4+y,3/4-x,1/4-z
1/2+x,y,1/2-z
1/4-y,1/4+x,3/4-z
1/2-x,1/2+y,z
x,1/2-y,1/2+z
3/4-y,1/4-x,1/4+z
1/4+y,1/4+x,1/4+z
loop_
_atom_site_type_symbol
_atom_site_label
_atom_site_fract_x
_atom_site_fract_y
_atom_site_fract_z
Si Si1 0.623987 0.269972 0.637956
Si Si2 0.484191 0.157645 0.007014
Si Si3 0.171288 0.087110 0.023254
Si Si4 0.837325 0.610813 0.764453
Si Si5 0.216058 0.966058 0.375000
Si Si6 0.622118 0.528151 0.329073
O O1 0.561861 0.341213 0.631743
O O2 0.641038 0.262710 0.693714
O O3 0.704855 0.292274 0.609460
O O4 0.500000 0.250000 0.015476
O O5 0.399608 0.148758 0.982427
O O6 0.549836 0.114180 0.974337
O O7 0.185735 0.080563 0.079191
O O8 0.250000 0.123560 0.000000
O O9 0.151680 0.005490 0.995448
O O10 0.883085 0.584126 0.717030
O O11 0.865008 0.561209 0.810730
O O12 0.308015 0.949363 0.365374
#
# Coordination Sequence:
#
# PCOD8321014 Si02
#       6
#    32  32  32  32  16  32
#     4  11  20  37  60  94 132 174 223 279 338 406
#     4  12  24  42  62  97 143 180 225 284 359 433
#     4  11  22  43  68  95 130 179 230 290 355 416
#     4  10  20  41  66  92 126 173 220 285 344 408
#     4  10  20  40  63  94 121 160 222 290 328 418
#     4  10  19  37  65  90 128 161 228 284 332 406
#
# _framework density 21.839490000000001
#
# number of rings (size 3 to 8) (size 9 to 14) (size 15 to 20)
#    0.000    1.273    7.273    1.636    0.000    0.000 
#    9.818    0.455    0.000    0.000    0.000    0.000 
#    0.000    0.000    0.000    0.000    0.000    0.000 
#
# Total GULP energy -1091020.310260 kJ/mol
# GULP energy per Si atom -12397.958071 kJ/mol
# Density = 2.178978 g / cm^3
# Si number density = 21.839490 Si / 1000 Ang^3
#
#
#
# Elastic Constant Matrix: (Units=GPa)
#
#
# Indices 1 2 3 4 5 6 
#
# 1 99.2396 47.7153 50.2471 0.0000 0.0000 0.0000
# 2 47.7153 99.2396 50.2471 0.0000 0.0000 0.0000
# 3 50.2471 50.2471 98.9601 0.0000 0.0000 0.0000
# 4 0.0000 0.0000 0.0000 28.1955 0.0000 0.0000
# 5 0.0000 0.0000 0.0000 0.0000 28.1955 0.0000
# 6 0.0000 0.0000 0.0000 0.0000 0.0000 30.8554
#
#
#
# Elastic Compliance Matrix: (Units=1/GPa)
#
#
# Indices 1 2 3 4 5 6 
#
# 1 0.014916 -0.004492 -0.005293 0.000000 0.000000 0.000000
# 2 -0.004492 0.014916 -0.005293 0.000000 0.000000 0.000000
# 3 -0.005293 -0.005293 0.015480 0.000000 0.000000 0.000000
# 4 0.000000 0.000000 0.000000 0.035467 0.000000 0.000000
# 5 0.000000 0.000000 0.000000 0.000000 0.035467 0.000000
# 6 0.000000 0.000000 0.000000 0.000000 0.000000 0.032409
#
#
# Mechanical properties :
#
#
# Convention : Reuss Voigt Hill
#
# Bulk Modulus (GPa) = 65.97643 65.98426 65.98034
# Shear Modulus (GPa) = 27.19407 27.39793 27.29600
#
# Velocity S-wave (km/s) = 3.53254 3.54575 3.53915
# Velocity P-wave (km/s) = 6.84936 6.85872 6.85404
#
# Compressibility (1/GPa) = 0.01515693
#
# Stress axis : x y z
#
# Youngs Moduli (GPa) = 67.04056 67.04056 64.59888
#
# Poissons Ratio (x) = 0.30114 0.34192
# Poissons Ratio (y) = 0.30114 0.34192
# Poissons Ratio (z) = 0.35485 0.35485
#
# Static dielectric constant tensor:
#      x y z
#    x 3.878950 0.000000 0.000000 
#    y 0.000000 3.878950 0.000000 
#    z 0.000000 0.000000 3.927440 
# 
# 
# High freq. dielectric constant tensor:
#      x y z
#    x 1.844710 0.000000 0.000000 
#    y 0.000000 1.844710 0.000000 
#    z 0.000000 0.000000 1.854690 
# 
# From -- ./inp_files/11456.got.cif
#   From: 2010.03.12/outbox.cif.g09.slc.cpg/sg142_6_cif.got.tgz:11456.got - 2010.04.03 13:27:16.
