data_PCOD8321864
_publ_section_title
;
Structure prediction by ZEFSAII (Michael W. Deem and Ramdas Pophale) SiO2 
 PCOD8321864
Probable space group: P 3 1 2
;
_chemical_formula_sum "Si O2"
_cell_formula_units_Z 20
_cell_length_a 11.675726
_cell_length_b 11.675726
_cell_length_c 7.208708
_cell_angle_alpha 90.000000
_cell_angle_beta 90.000000
_cell_angle_gamma 120.000000
_cell_volume 851.051527
_symmetry_space_group_name_H-M "P 3 1 2"
_symmetry_group_IT_number 149
_symmetry_cell_setting 'hexagonal'
loop_
_space_group_symop_operation_xyz
x,y,z
-y,x-y,z
-x+y,-x,z
-y,-x,-z
-x+y,y,-z
x,x-y,-z
loop_
_atom_site_type_symbol
_atom_site_label
_atom_site_fract_x
_atom_site_fract_y
_atom_site_fract_z
Si Si1 0.870057 0.627971 0.227450
Si Si2 0.270176 0.288043 0.567680
Si Si3 0.333182 0.408300 0.938914
Si Si4 0.666668 0.333334 0.281248
O O1 0.833044 0.733944 0.313540
O O2 0.743053 0.482646 0.205059
O O3 0.968167 0.630324 0.390411
O O4 0.948303 0.671554 0.030127
O O5 0.123535 0.247070 0.500000
O O6 0.329582 0.406843 0.716152
O O7 0.467412 0.532589 0.000000
O O8 0.209884 0.419767 0.000000
O O9 0.666668 0.333334 0.500000
#
# Coordination Sequence:
#
# PCOD8321864 Si02
#       4
#     6   6   6   2
#     4  11  25  45  73 107 148 185 248 310 377 444
#     4  11  23  45  70 101 143 193 240 299 366 448
#     4  12  26  45  69 103 145 192 248 306 372 453
#     4  12  21  42  78 115 144 195 241 318 393 442
#
# _framework density 23.500339
#
# number of rings (size 3 to 8) (size 9 to 14) (size 15 to 20)
#    0.000    0.600    6.000    3.000    0.000    0.000 
#    7.200    3.000    0.000    0.000    0.000    0.000 
#    0.000    0.000    0.000    0.000    0.000    0.000 
#
# Total GULP energy -247900.561106 kJ/mol
# GULP energy per Si atom -12395.028055 kJ/mol
# Density = 2.344685 g / cm^3
# Si number density = 23.500339 Si / 1000 Ang^3
#
#
#
# Elastic Constant Matrix: (Units=GPa)
#
#
# Indices 1 2 3 4 5 6 
#
# 1 108.2324 41.4184 29.3980 -0.0013 -1.7304 -0.0004
# 2 41.4184 108.2317 29.3971 0.0008 1.7300 -0.0002
# 3 29.3980 29.3971 121.3232 0.0009 0.0005 -0.0006
# 4 -0.0013 0.0008 0.0009 -7.1077 0.0006 1.7300
# 5 -1.7304 1.7300 0.0005 0.0006 -7.1085 -0.0014
# 6 -0.0004 -0.0002 -0.0006 1.7300 -0.0014 33.4069
#
#
#
# Elastic Compliance Matrix: (Units=1/GPa)
#
#
# Indices 1 2 3 4 5 6 
#
# 1 0.011083 -0.003698 -0.001790 -0.000003 -0.003598 0.000000
# 2 -0.003698 0.011083 -0.001789 0.000002 0.003597 0.000000
# 3 -0.001790 -0.001789 0.009110 0.000001 0.000001 0.000000
# 4 -0.000003 0.000002 0.000001 -0.138940 -0.000012 0.007195
# 5 -0.003598 0.003597 0.000001 -0.000012 -0.138926 -0.000005
# 6 0.000000 0.000000 0.000000 0.007195 -0.000005 0.029561
#
#
# Mechanical properties :
#
#
# Convention : Reuss Voigt Hill
#
# Bulk Modulus (GPa) = 59.80068 59.80161 59.80115
# Shear Modulus (GPa) = -25.39332 19.67640 -2.85846
#
# Velocity S-wave (km/s) = -3.29074 2.89672 -1.10408
# Velocity P-wave (km/s) = 3.32616 6.05726 4.88639
#
# Compressibility (1/GPa) = 0.01672222
#
# Stress axis : x y z
#
# Youngs Moduli (GPa) = 90.22868 90.22813 109.77339
#
# Poissons Ratio (x) = 0.33363 0.19644
# Poissons Ratio (y) = 0.33364 0.19644
# Poissons Ratio (z) = 0.16147 0.16146
#
# Static dielectric constant tensor:
#      x y z
#    x 4.223400 0.000000 0.000000 
#    y 0.000000 4.223410 0.000000 
#    z 0.000000 0.000000 5.132100 
# 
# 
# High freq. dielectric constant tensor:
#      x y z
#    x 1.915170 0.000000 0.000000 
#    y 0.000000 1.915170 0.000000 
#    z 0.000000 0.000000 1.971790 
# 
# From -- ./inp_files/442.got.cif
#   From: 2010.03.12/outbox.cif.g09.slc.cpg/sg149_cif.got.tgz:442.got - 2010.04.03 13:40:41.
