data_PCOD8321754
_publ_section_title
;
Structure prediction by ZEFSAII (Michael W. Deem and Ramdas Pophale) SiO2 
 PCOD8321754
Probable space group: R -3
;
_chemical_formula_sum "Si O2"
_cell_formula_units_Z 126
_cell_length_a 17.180798
_cell_length_b 17.180798
_cell_length_c 26.457765
_cell_angle_alpha 90.000000
_cell_angle_beta 90.000000
_cell_angle_gamma 120.000000
_cell_volume 6763.483733
_symmetry_space_group_name_H-M "R -3"
_symmetry_group_IT_number 148
_symmetry_cell_setting 'hexagonal'
loop_
_space_group_symop_operation_xyz
x,y,z
-y,x-y,z
-x+y,-x,z
-x,-y,-z
y,-x+y,-z
x-y,x,-z
2/3+x,1/3+y,1/3+z
2/3-y,1/3+x-y,1/3+z
2/3-x+y,1/3-x,1/3+z
2/3-x,1/3-y,1/3-z
2/3+y,1/3-x+y,1/3-z
2/3+x-y,1/3+x,1/3-z
1/3+x,2/3+y,2/3+z
1/3-y,2/3+x-y,2/3+z
1/3-x+y,2/3-x,2/3+z
1/3-x,2/3-y,2/3-z
1/3+y,2/3-x+y,2/3-z
1/3+x-y,2/3+x,2/3-z
loop_
_atom_site_type_symbol
_atom_site_label
_atom_site_fract_x
_atom_site_fract_y
_atom_site_fract_z
Si Si1 0.411283 0.961972 0.271320
Si Si2 0.397653 0.991097 0.766294
Si Si3 0.821075 0.836946 0.812324
Si Si4 0.741202 0.651314 0.235329
Si Si5 0.484920 0.162504 0.512034
Si Si6 0.781544 0.076448 0.281357
Si Si7 0.181231 0.002829 0.509002
O O1 0.514673 0.999396 0.259189
O O2 0.396148 0.924777 0.328205
O O3 0.347917 0.883628 0.232520
O O4 0.391097 0.043671 0.269502
O O5 0.421313 0.072422 0.805267
O O6 0.343601 0.896060 0.794062
O O7 0.326862 0.982314 0.723943
O O8 0.734635 0.784369 0.848495
O O9 0.888317 0.798680 0.815127
O O10 0.791229 0.824322 0.754452
O O11 0.867660 0.942551 0.825933
O O12 0.776362 0.756581 0.224153
O O13 0.817794 0.642812 0.266350
O O14 0.089973 0.919311 0.488517
#
# Coordination Sequence:
#
# PCOD8321754 Si02
#       7
#    18  18  18  18  18  18  18
#     4  11  22  36  58  87 117 147 194 248 290 338
#     4  11  20  36  61  84 113 150 198 236 280 349
#     4  11  21  37  60  83 118 154 196 236 280 355
#     4  11  20  37  59  81 117 155 191 239 286 346
#     4  11  20  36  60  85 110 151 202 232 277 330
#     4  11  22  37  54  86 119 156 185 238 300 340
#     4  10  22  40  63  85 111 150 198 241 288 344
#
# _framework density 18.629453000000002
#
# number of rings (size 3 to 8) (size 9 to 14) (size 15 to 20)
#    0.000    1.143    5.714    2.143    2.000    0.000 
#    0.000    8.571    0.000    0.000    0.000    4.000 
#    0.000    0.000    0.000    0.000    0.000    0.000 
#
# Total GULP energy -520711.869630 kJ/mol
# GULP energy per Si atom -12397.901658 kJ/mol
# Density = 1.858705 g / cm^3
# Si number density = 18.629453 Si / 1000 Ang^3
#
#
#
# Elastic Constant Matrix: (Units=GPa)
#
#
# Indices 1 2 3 4 5 6 
#
# 1 94.4122 48.6543 37.4454 -4.6306 2.3478 0.0000
# 2 48.6543 94.4122 37.4454 4.6306 -2.3478 0.0000
# 3 37.4454 37.4454 117.2550 0.0000 0.0000 0.0000
# 4 -4.6306 4.6306 0.0000 1.1147 0.0000 -2.3478
# 5 2.3478 -2.3478 0.0000 0.0000 1.1147 -4.6306
# 6 0.0000 0.0000 0.0000 -2.3478 -4.6306 22.8790
#
#
#
# Elastic Compliance Matrix: (Units=1/GPa)
#
#
# Indices 1 2 3 4 5 6 
#
# 1 -0.187992 0.196385 -0.002680 -1.596667 0.809562 0.000001
# 2 0.196385 -0.187992 -0.002680 1.596667 -0.809562 -0.000001
# 3 -0.002680 -0.002680 0.010240 0.000000 0.000000 0.000000
# 4 -1.596667 1.596667 0.000000-15.777853 0.000031 -1.619109
# 5 0.809562 -0.809562 0.000000 0.000031-15.777871 -3.193331
# 6 0.000001 -0.000001 0.000000 -1.619109 -3.193331 -0.768753
#
#
# Mechanical properties :
#
#
# Convention : Reuss Voigt Hill
#
# Bulk Modulus (GPa) = 61.33123 61.46327 61.39725
# Shear Modulus (GPa) = -0.15121 17.19065 8.51972
#
# Velocity S-wave (km/s) = -0.28521 3.04100 2.14084
# Velocity P-wave (km/s) = 5.73452 6.73754 6.25616
#
# Compressibility (1/GPa) = 0.01630491
#
# Stress axis : x y z
#
# Youngs Moduli (GPa) = -5.31937 -5.31937 97.65347
#
# Poissons Ratio (x) = 1.04464 0.26173
# Poissons Ratio (y) = 1.04464 0.26173
# Poissons Ratio (z) = -0.01426 -0.01426
#
# Static dielectric constant tensor:
#      x y z
#    x 3.488990 0.000000 0.000000 
#    y 0.000000 3.488990 0.000000 
#    z 0.000000 0.000000 3.280310 
# 
# 
# High freq. dielectric constant tensor:
#      x y z
#    x 1.727680 0.000000 0.000000 
#    y 0.000000 1.727680 0.000000 
#    z 0.000000 0.000000 1.707130 
# 
# From -- ./inp_files/3457.got.cif
#   From: 2010.03.12/outbox.cif.g09.slc.cpg/sg148_2_cif.got.tgz:3457.got - 2010.04.03 13:38:46.
