data_PCOD8321962
_publ_section_title
;
Structure prediction by ZEFSAII (Michael W. Deem and Ramdas Pophale) SiO2 
 PCOD8321962
Probable space group: P 31 1 2
;
_chemical_formula_sum "Si O2"
_cell_formula_units_Z 42
_cell_length_a 8.690722
_cell_length_b 8.690722
_cell_length_c 31.362934
_cell_angle_alpha 90.000000
_cell_angle_beta 90.000000
_cell_angle_gamma 120.000000
_cell_volume 2051.441002
_symmetry_space_group_name_H-M "P 31 1 2"
_symmetry_group_IT_number 151
_symmetry_cell_setting 'hexagonal'
loop_
_space_group_symop_operation_xyz
x,y,z
-y,x-y,1/3+z
-x+y,-x,2/3+z
-y,-x,2/3-z
-x+y,y,1/3-z
x,x-y,-z
loop_
_atom_site_type_symbol
_atom_site_label
_atom_site_fract_x
_atom_site_fract_y
_atom_site_fract_z
Si Si1 0.431405 0.184084 0.734710
Si Si2 0.686090 0.242754 0.879360
Si Si3 0.338003 0.001997 0.345263
Si Si4 0.856304 0.913233 0.449774
Si Si5 0.537852 0.610757 0.587454
Si Si6 0.437794 0.604918 0.285560
Si Si7 0.969021 0.191458 0.920127
O O1 0.619918 0.327682 0.755128
O O2 0.405465 0.290862 0.697176
O O3 0.445140 0.020914 0.715701
O O4 0.272210 0.114881 0.769345
O O5 0.683302 0.316699 0.833334
O O6 0.527378 0.038025 0.883237
O O7 0.874349 0.254325 0.886107
O O8 0.507477 0.008464 0.368754
O O9 0.240070 0.076950 0.375341
O O10 0.199273 0.800728 0.333334
O O11 0.732079 0.952657 0.418642
O O12 0.048042 0.078302 0.440727
O O13 0.808298 0.904149 0.500000
O O14 0.400837 0.687496 0.586924
O O15 0.379345 0.620656 0.333334
O O16 0.630697 0.769431 0.272796
#
# Coordination Sequence:
#
# PCOD8321962 Si02
#       7
#     6   6   6   6   6   6   6
#     4  10  21  37  66  84 118 168 202 251 307 372
#     4  10  21  41  61  86 122 166 209 247 303 376
#     4  11  20  40  61  90 123 157 209 253 315 368
#     4  11  22  42  63  91 122 161 211 256 307 373
#     4  10  24  38  60  92 121 160 200 259 314 361
#     4  10  19  38  59  90 122 155 195 247 311 378
#     4  10  21  36  66  90 116 162 205 248 310 372
#
# _framework density 20.473412
#
# number of rings (size 3 to 8) (size 9 to 14) (size 15 to 20)
#    0.000    1.714    2.857    1.714    0.000    0.000 
#    7.714    0.000    0.000    0.000    0.000    0.000 
#    0.000    0.000    0.000    0.000    0.000    0.000 
#
# Total GULP energy -520548.033912 kJ/mol
# GULP energy per Si atom -12394.000807 kJ/mol
# Density = 2.042681 g / cm^3
# Si number density = 20.473412 Si / 1000 Ang^3
#
#
#
# Elastic Constant Matrix: (Units=GPa)
#
#
# Indices 1 2 3 4 5 6 
#
# 1 98.9789 38.8977 42.6158 -0.0002 6.8110 0.0000
# 2 38.8977 98.9789 42.6158 0.0002 -6.8110 0.0000
# 3 42.6158 42.6158 107.9254 0.0000 0.0000 0.0000
# 4 -0.0002 0.0002 0.0000 26.0141 0.0000 -6.8110
# 5 6.8110 -6.8110 0.0000 0.0000 26.0141 -0.0002
# 6 0.0000 0.0000 0.0000 -6.8110 -0.0002 30.0406
#
#
#
# Elastic Compliance Matrix: (Units=1/GPa)
#
#
# Indices 1 2 3 4 5 6 
#
# 1 0.013645 -0.004050 -0.003789 0.000000 -0.004633 0.000000
# 2 -0.004050 0.013645 -0.003789 0.000000 0.004633 0.000000
# 3 -0.003789 -0.003789 0.012258 0.000000 0.000000 0.000000
# 4 0.000000 0.000000 0.000000 0.040867 0.000000 0.009266
# 5 -0.004633 0.004633 0.000000 0.000000 0.040867 0.000000
# 6 0.000000 0.000000 0.000000 0.009266 0.000000 0.035389
#
#
# Mechanical properties :
#
#
# Convention : Reuss Voigt Hill
#
# Bulk Modulus (GPa) = 61.37682 61.57131 61.47407
# Shear Modulus (GPa) = 26.97533 28.53068 27.75300
#
# Velocity S-wave (km/s) = 3.63378 3.73708 3.68579
# Velocity P-wave (km/s) = 6.90288 6.98284 6.94297
#
# Compressibility (1/GPa) = 0.01629280
#
# Stress axis : x y z
#
# Youngs Moduli (GPa) = 73.28841 73.28841 81.58151
#
# Poissons Ratio (x) = 0.29680 0.30909
# Poissons Ratio (y) = 0.29680 0.30909
# Poissons Ratio (z) = 0.27767 0.27767
#
# Static dielectric constant tensor:
#      x y z
#    x 3.817730 0.000000 0.000000 
#    y 0.000000 3.817730 0.000000 
#    z 0.000000 0.000000 3.691850 
# 
# 
# High freq. dielectric constant tensor:
#      x y z
#    x 1.796410 0.000000 0.000000 
#    y 0.000000 1.796410 0.000000 
#    z 0.000000 0.000000 1.793380 
# 
# From -- ./inp_files/5024.got.cif
#   From: 2010.03.12/outbox.cif.g09.slc.cpg/sg151_3_cif.got.tgz:5024.got - 2010.04.03 13:42:29.
