data_PCOD8321466
_publ_section_title
;
Structure prediction by ZEFSAII (Michael W. Deem and Ramdas Pophale) SiO2 
 PCOD8321466
Probable space group: P 32
;
_chemical_formula_sum "Si O2"
_cell_formula_units_Z 24
_cell_length_a 8.665697
_cell_length_b 8.665697
_cell_length_c 16.545605
_cell_angle_alpha 90.000000
_cell_angle_beta 90.000000
_cell_angle_gamma 120.000000
_cell_volume 1076.019850
_symmetry_space_group_name_H-M "P 32"
_symmetry_group_IT_number 145
_symmetry_cell_setting 'hexagonal'
loop_
_space_group_symop_operation_xyz
x,y,z
-y,x-y,2/3+z
-x+y,-x,1/3+z
loop_
_atom_site_type_symbol
_atom_site_label
_atom_site_fract_x
_atom_site_fract_y
_atom_site_fract_z
Si Si1 0.264395 0.019224 0.397370
Si Si2 0.956864 0.895209 0.101806
Si Si3 0.621849 0.206000 0.025536
Si Si4 0.376467 0.605006 0.779691
Si Si5 0.539331 0.288519 0.189293
Si Si6 0.652211 0.767900 0.325191
Si Si7 0.217642 0.898769 0.222973
Si Si8 0.352555 0.931058 0.817460
O O1 0.379771 0.222353 0.365697
O O2 0.110735 0.023275 0.448160
O O3 0.356260 0.936003 0.454699
O O4 0.194625 0.889851 0.319003
O O5 0.753589 0.730665 0.093465
O O6 0.071299 0.913666 0.021537
O O7 0.032334 0.856635 0.182982
O O8 0.651999 0.318670 0.107414
O O9 0.423261 0.039265 0.024176
O O10 0.666663 0.319350 0.940747
O O11 0.300998 0.490961 0.698516
O O12 0.262035 0.509026 0.859960
O O13 0.356602 0.777395 0.766671
O O14 0.490747 0.444314 0.182466
O O15 0.372599 0.089929 0.190654
O O16 0.638110 0.776817 0.229161
#
# Coordination Sequence:
#
# PCOD8321466 Si02
#       8
#     3   3   3   3   3   3   3   3
#     4  11  24  40  65  96 125 172 224 265 332 404
#     4  11  22  40  64  93 130 167 221 271 328 393
#     4  10  21  41  66  93 128 170 215 271 333 393
#     4  11  22  40  64  93 130 167 221 271 328 393
#     4  10  21  41  66  93 128 170 215 271 333 393
#     4  10  22  43  65  88 131 169 213 279 335 384
#     4  10  22  43  65  88 131 169 213 279 335 384
#     4  11  24  40  65  96 125 172 224 265 332 404
#
# _framework density 22.304424000000001
#
# number of rings (size 3 to 8) (size 9 to 14) (size 15 to 20)
#    0.000    1.500    2.500    3.000    3.500    0.000 
#    0.000    6.250    0.000    0.000    0.000    0.000 
#    0.000    0.000    0.000    0.000    0.000    0.000 
#
# Total GULP energy -297368.938030 kJ/mol
# GULP energy per Si atom -12390.372418 kJ/mol
# Density = 2.225366 g / cm^3
# Si number density = 22.304424 Si / 1000 Ang^3
#
#
#
# Elastic Constant Matrix: (Units=GPa)
#
#
# Indices 1 2 3 4 5 6 
#
# 1 99.3791 35.6985 14.0538 -3.8772 0.0000 0.0000
# 2 35.6985 99.3791 14.0538 3.8772 0.0000 0.0000
# 3 14.0538 14.0538 75.7063 0.0000 0.0000 0.0000
# 4 -3.8772 3.8772 0.0000 22.2633 0.0000 0.0000
# 5 0.0000 0.0000 0.0000 0.0000 22.2633 -3.8772
# 6 0.0000 0.0000 0.0000 0.0000 -3.8772 31.8403
#
#
#
# Elastic Compliance Matrix: (Units=1/GPa)
#
#
# Indices 1 2 3 4 5 6 
#
# 1 0.011872 -0.004172 -0.001430 0.002794 0.000000 0.000000
# 2 -0.004172 0.011872 -0.001430 -0.002794 0.000000 0.000000
# 3 -0.001430 -0.001430 0.013740 0.000000 0.000000 0.000000
# 4 0.002794 -0.002794 0.000000 0.045890 0.000000 0.000000
# 5 0.000000 0.000000 0.000000 0.000000 0.045890 0.005588
# 6 0.000000 0.000000 0.000000 0.000000 0.005588 0.032087
#
#
# Mechanical properties :
#
#
# Convention : Reuss Voigt Hill
#
# Bulk Modulus (GPa) = 42.69334 44.67520 43.68427
# Shear Modulus (GPa) = 27.28961 29.31727 28.30344
#
# Velocity S-wave (km/s) = 3.50166 3.62942 3.56611
# Velocity P-wave (km/s) = 5.96084 6.13488 6.04849
#
# Compressibility (1/GPa) = 0.02342286
#
# Stress axis : x y z
#
# Youngs Moduli (GPa) = 84.23098 84.23098 72.78194
#
# Poissons Ratio (x) = 0.35137 0.10404
# Poissons Ratio (y) = 0.35137 0.10404
# Poissons Ratio (z) = 0.12041 0.12041
#
# Static dielectric constant tensor:
#      x y z
#    x 3.914980 0.000000 0.000000 
#    y 0.000000 3.914980 0.000000 
#    z 0.000000 0.000000 4.121460 
# 
# 
# High freq. dielectric constant tensor:
#      x y z
#    x 1.871390 0.000000 0.000000 
#    y 0.000000 1.871390 0.000000 
#    z 0.000000 0.000000 1.877950 
# 
# From -- ./inp_files/866.got.cif
#   From: 2010.03.12/outbox.cif.g09.slc.cpg/sg145_cif.got.tgz:866.got - 2010.04.03 13:35:35.
