data_PCOD8321919
_publ_section_title
;
Structure prediction by ZEFSAII (Michael W. Deem and Ramdas Pophale) SiO2 
 PCOD8321919
Probable space group: P 31 1 2
;
_chemical_formula_sum "Si O2"
_cell_formula_units_Z 24
_cell_length_a 8.936773
_cell_length_b 8.936773
_cell_length_c 18.151110
_cell_angle_alpha 90.000000
_cell_angle_beta 90.000000
_cell_angle_gamma 120.000000
_cell_volume 1255.438011
_symmetry_space_group_name_H-M "P 31 1 2"
_symmetry_group_IT_number 151
_symmetry_cell_setting 'hexagonal'
loop_
_space_group_symop_operation_xyz
x,y,z
-y,x-y,1/3+z
-x+y,-x,2/3+z
-y,-x,2/3-z
-x+y,y,1/3-z
x,x-y,-z
loop_
_atom_site_type_symbol
_atom_site_label
_atom_site_fract_x
_atom_site_fract_y
_atom_site_fract_z
Si Si1 0.844012 0.576398 0.459299
Si Si2 0.066073 0.578494 0.332029
Si Si3 0.421281 0.486220 0.164651
Si Si4 0.576048 0.732401 0.787939
O O1 0.797419 0.398710 0.500000
O O2 0.675839 0.594980 0.457897
O O3 0.907172 0.577593 0.375453
O O4 0.996246 0.738598 0.506149
O O5 0.228074 0.771927 0.333334
O O6 0.006376 0.501053 0.250983
O O7 0.117297 0.446376 0.370287
O O8 0.235152 0.470304 0.166667
O O9 0.566733 0.659662 0.206329
O O10 0.413674 0.586327 0.833334
#
# Coordination Sequence:
#
# PCOD8321919 Si02
#       4
#     6   6   6   6
#     4   9  20  35  55  86 119 152 197 247 296 352
#     4  10  16  35  62  79 114 162 193 239 295 355
#     4  11  19  34  62  88 111 153 206 244 291 365
#     4   8  16  31  54  82 105 151 199 229 284 355
#
# _framework density 19.116831999999999
#
# number of rings (size 3 to 8) (size 9 to 14) (size 15 to 20)
#    0.000    3.000    7.500    0.000    0.000    4.000 
#    0.000    6.250   11.000    0.000    0.000    0.000 
#    0.000    0.000    0.000    0.000    0.000    0.000 
#
# Total GULP energy -297326.310492 kJ/mol
# GULP energy per Si atom -12388.596271 kJ/mol
# Density = 1.907332 g / cm^3
# Si number density = 19.116832 Si / 1000 Ang^3
#
#
#
# Elastic Constant Matrix: (Units=GPa)
#
#
# Indices 1 2 3 4 5 6 
#
# 1 92.9781 30.2588 24.8897 -0.0001 -4.9576 0.0000
# 2 30.2588 92.9781 24.8897 0.0001 4.9576 0.0000
# 3 24.8897 24.8897 98.0509 0.0000 0.0000 0.0000
# 4 -0.0001 0.0001 0.0000 18.9600 0.0000 4.9576
# 5 -4.9576 4.9576 0.0000 0.0000 18.9600 -0.0001
# 6 0.0000 0.0000 0.0000 4.9576 -0.0001 31.3597
#
#
#
# Elastic Compliance Matrix: (Units=1/GPa)
#
#
# Indices 1 2 3 4 5 6 
#
# 1 0.012837 -0.003795 -0.002295 0.000000 0.004349 0.000000
# 2 -0.003795 0.012837 -0.002295 0.000000 -0.004349 0.000000
# 3 -0.002295 -0.002295 0.011364 0.000000 0.000000 0.000000
# 4 0.000000 0.000000 0.000000 0.055017 0.000000 -0.008698
# 5 0.004349 -0.004349 0.000000 0.000000 0.055017 0.000000
# 6 0.000000 0.000000 0.000000 -0.008698 0.000000 0.033263
#
#
# Mechanical properties :
#
#
# Convention : Reuss Voigt Hill
#
# Bulk Modulus (GPa) = 49.34253 49.34261 49.34257
# Shear Modulus (GPa) = 24.52664 27.45386 25.99025
#
# Velocity S-wave (km/s) = 3.58577 3.79371 3.69121
# Velocity P-wave (km/s) = 6.55825 6.71244 6.63579
#
# Compressibility (1/GPa) = 0.02026649
#
# Stress axis : x y z
#
# Youngs Moduli (GPa) = 77.90261 77.90261 87.99715
#
# Poissons Ratio (x) = 0.29564 0.20197
# Poissons Ratio (y) = 0.29564 0.20197
# Poissons Ratio (z) = 0.17880 0.17880
#
# Static dielectric constant tensor:
#      x y z
#    x 3.546980 0.000000 0.000000 
#    y 0.000000 3.546980 0.000000 
#    z 0.000000 0.000000 3.711040 
# 
# 
# High freq. dielectric constant tensor:
#      x y z
#    x 1.716770 0.000000 0.000000 
#    y 0.000000 1.716770 0.000000 
#    z 0.000000 0.000000 1.744170 
# 
# From -- ./inp_files/3749.got.cif
#   From: 2010.03.12/outbox.cif.g09.slc.cpg/sg151_2_cif.got.tgz:3749.got - 2010.04.03 13:42:29.
