data_PCOD8321807
_publ_section_title
;
Structure prediction by ZEFSAII (Michael W. Deem and Ramdas Pophale) SiO2 
 PCOD8321807
Probable space group: R -3
;
_chemical_formula_sum "Si O2"
_cell_formula_units_Z 84
_cell_length_a 13.552092
_cell_length_b 13.552092
_cell_length_c 25.250726
_cell_angle_alpha 90.000000
_cell_angle_beta 90.000000
_cell_angle_gamma 120.000000
_cell_volume 4016.217124
_symmetry_space_group_name_H-M "R -3"
_symmetry_group_IT_number 148
_symmetry_cell_setting 'hexagonal'
loop_
_space_group_symop_operation_xyz
x,y,z
-y,x-y,z
-x+y,-x,z
-x,-y,-z
y,-x+y,-z
x-y,x,-z
2/3+x,1/3+y,1/3+z
2/3-y,1/3+x-y,1/3+z
2/3-x+y,1/3-x,1/3+z
2/3-x,1/3-y,1/3-z
2/3+y,1/3-x+y,1/3-z
2/3+x-y,1/3+x,1/3-z
1/3+x,2/3+y,2/3+z
1/3-y,2/3+x-y,2/3+z
1/3-x+y,2/3-x,2/3+z
1/3-x,2/3-y,2/3-z
1/3+y,2/3-x+y,2/3-z
1/3+x-y,2/3+x,2/3-z
loop_
_atom_site_type_symbol
_atom_site_label
_atom_site_fract_x
_atom_site_fract_y
_atom_site_fract_z
Si Si1 0.666668 0.333334 0.924527
Si Si2 0.259285 0.135276 0.428893
Si Si3 0.000000 0.000000 0.716717
Si Si4 0.198980 0.402674 0.672487
Si Si5 0.902971 0.476871 0.565806
Si Si6 0.316079 0.307972 0.824212
O O1 0.540852 0.289354 0.902244
O O2 0.666668 0.333334 0.987404
O O3 0.304592 0.134574 0.370442
O O4 0.325330 0.103669 0.471364
O O5 0.282096 0.260408 0.443093
O O6 0.015352 0.119199 0.736805
O O7 0.148218 0.481200 0.654077
O O8 0.146926 0.343961 0.728254
O O9 0.895670 0.370308 0.534332
O O10 0.921632 0.575009 0.524392
#
# Coordination Sequence:
#
# PCOD8321807 Si02
#       6
#     6  18   6  18  18  18
#     4  12  27  40  67  99 138 174 232 280 312 409
#     4  12  24  44  68  99 135 180 224 274 338 389
#     4  12  24  42  64 100 132 175 223 273 330 394
#     4  12  24  46  71 101 135 171 221 274 333 404
#     4  11  24  44  66  98 136 174 229 272 333 406
#     4  11  24  43  68  94 134 177 222 283 332 396
#
# _framework density 20.915203000000002
#
# number of rings (size 3 to 8) (size 9 to 14) (size 15 to 20)
#    0.000    0.429    6.429    2.786    0.000    0.857 
#    0.000    4.286    0.000    0.000    0.000    0.000 
#    0.000    0.000    0.000    0.000    0.000    0.000 
#
# Total GULP energy -347429.950731 kJ/mol
# GULP energy per Si atom -12408.212526 kJ/mol
# Density = 2.086760 g / cm^3
# Si number density = 20.915203 Si / 1000 Ang^3
#
#
#
# Elastic Constant Matrix: (Units=GPa)
#
#
# Indices 1 2 3 4 5 6 
#
# 1 76.8405 19.9226 10.8286 -5.6476 1.4179 -0.0001
# 2 19.9226 76.8412 10.8286 5.6480 -1.4180 0.0003
# 3 10.8286 10.8286 82.7863 0.0002 -0.0001 0.0000
# 4 -5.6476 5.6480 0.0002 33.9390 0.0000 -1.4181
# 5 1.4179 -1.4180 -0.0001 0.0000 33.9385 -5.6477
# 6 -0.0001 0.0003 0.0000 -1.4181 -5.6477 28.4590
#
#
#
# Elastic Compliance Matrix: (Units=1/GPa)
#
#
# Indices 1 2 3 4 5 6 
#
# 1 0.014427 -0.003781 -0.001393 0.003030 -0.000761 0.000000
# 2 -0.003781 0.014427 -0.001393 -0.003030 0.000761 0.000000
# 3 -0.001393 -0.001393 0.012444 0.000000 0.000000 0.000000
# 4 0.003030 -0.003030 0.000000 0.030537 0.000000 0.001522
# 5 -0.000761 0.000761 0.000000 0.000000 0.030537 0.006060
# 6 0.000000 0.000000 0.000000 0.001522 0.006060 0.036417
#
#
# Mechanical properties :
#
#
# Convention : Reuss Voigt Hill
#
# Bulk Modulus (GPa) = 35.50411 35.51417 35.50914
# Shear Modulus (GPa) = 30.99635 32.25985 31.62810
#
# Velocity S-wave (km/s) = 3.85385 3.93162 3.89293
# Velocity P-wave (km/s) = 6.06754 6.13409 6.10091
#
# Compressibility (1/GPa) = 0.02816575
#
# Stress axis : x y z
#
# Youngs Moduli (GPa) = 69.31318 69.31374 80.36264
#
# Poissons Ratio (x) = 0.26208 0.11191
# Poissons Ratio (y) = 0.26208 0.11191
# Poissons Ratio (z) = 0.09652 0.09652
#
# Static dielectric constant tensor:
#      x y z
#    x 3.729410 0.000000 0.000000 
#    y 0.000000 3.729390 0.000000 
#    z 0.000000 0.000000 3.915480 
# 
# 
# High freq. dielectric constant tensor:
#      x y z
#    x 1.821660 0.000000 0.000000 
#    y 0.000000 1.821660 0.000000 
#    z 0.000000 0.000000 1.833500 
# 
# From -- ./inp_files/3347.got.cif
#   From: 2010.03.12/outbox.cif.g09.slc.cpg/sg148_2_cif.got.tgz:3347.got - 2010.04.03 13:38:46.
