data_PCOD8321469
_publ_section_title
;
Structure prediction by ZEFSAII (Michael W. Deem and Ramdas Pophale) SiO2 
 PCOD8321469
Probable space group: P 32
;
_chemical_formula_sum "Si O2"
_cell_formula_units_Z 21
_cell_length_a 11.126014
_cell_length_b 11.126014
_cell_length_c 10.840351
_cell_angle_alpha 90.000000
_cell_angle_beta 90.000000
_cell_angle_gamma 120.000000
_cell_volume 1162.125900
_symmetry_space_group_name_H-M "P 32"
_symmetry_group_IT_number 145
_symmetry_cell_setting 'hexagonal'
loop_
_space_group_symop_operation_xyz
x,y,z
-y,x-y,2/3+z
-x+y,-x,1/3+z
loop_
_atom_site_type_symbol
_atom_site_label
_atom_site_fract_x
_atom_site_fract_y
_atom_site_fract_z
Si Si1 0.756169 0.916393 0.731960
Si Si2 0.160564 0.741550 0.833187
Si Si3 0.293008 0.962616 0.621864
Si Si4 0.773659 0.055330 0.354621
Si Si5 0.552223 0.935584 0.555835
Si Si6 0.819844 0.838921 0.481809
Si Si7 0.314402 0.827706 0.077163
O O1 0.707884 0.800348 0.835030
O O2 0.626753 0.927087 0.680029
O O3 0.827985 0.872503 0.626355
O O4 0.862653 0.067178 0.785664
O O5 0.211153 0.861221 0.732998
O O6 0.126007 0.598559 0.767891
O O7 0.018013 0.714183 0.894838
O O8 0.282336 0.788683 0.933734
O O9 0.440760 0.977553 0.594086
O O10 0.329450 0.116492 0.659370
O O11 0.664194 0.046053 0.458655
O O12 0.851980 0.976244 0.405267
O O13 0.476777 0.784712 0.491725
O O14 0.666704 0.713790 0.445667
#
# Coordination Sequence:
#
# PCOD8321469 Si02
#       7
#     3   3   3   3   3   3   3
#     4  10  22  36  61  89 115 153 197 245 298 350
#     4  10  22  36  61  89 115 153 197 245 298 350
#     4  12  24  36  62  86 124 152 204 238 290 374
#     4   9  23  39  59  85 122 153 190 249 302 339
#     4   9  23  39  59  85 122 153 190 249 302 339
#     4   9  20  37  62  85 118 148 194 252 296 344
#     4   9  20  37  62  85 118 148 194 252 296 344
#
# _framework density 18.070330999999999
#
# number of rings (size 3 to 8) (size 9 to 14) (size 15 to 20)
#    0.000    2.857    0.000    1.714   24.000    0.000 
#    0.000    1.429    0.000    0.000    0.000    0.000 
#    0.000    0.000    0.000    0.000    0.000    0.000 
#
# Total GULP energy -260381.935351 kJ/mol
# GULP energy per Si atom -12399.139779 kJ/mol
# Density = 1.802920 g / cm^3
# Si number density = 18.070331 Si / 1000 Ang^3
#
#
#
# Elastic Constant Matrix: (Units=GPa)
#
#
# Indices 1 2 3 4 5 6 
#
# 1 56.2733 9.7122 8.1572 5.6295 0.0588 0.0000
# 2 9.7122 56.2733 8.1572 -5.6295 -0.0588 0.0000
# 3 8.1572 8.1572 67.3692 0.0000 0.0000 0.0000
# 4 5.6295 -5.6295 0.0000 19.3169 0.0000 -0.0588
# 5 0.0588 -0.0588 0.0000 0.0000 19.3169 5.6295
# 6 0.0000 0.0000 0.0000 -0.0588 5.6295 23.2806
#
#
#
# Elastic Compliance Matrix: (Units=1/GPa)
#
#
# Indices 1 2 3 4 5 6 
#
# 1 0.019364 -0.003742 -0.001892 -0.006734 -0.000070 0.000000
# 2 -0.003742 0.019364 -0.001892 0.006734 0.000070 0.000000
# 3 -0.001892 -0.001892 0.015302 0.000000 0.000000 0.000000
# 4 -0.006734 0.006734 0.000000 0.055693 0.000000 0.000141
# 5 -0.000070 0.000070 0.000000 0.000000 0.055693 -0.013467
# 6 0.000000 0.000000 0.000000 0.000141 -0.013467 0.046211
#
#
# Mechanical properties :
#
#
# Convention : Reuss Voigt Hill
#
# Bulk Modulus (GPa) = 25.65398 25.77432 25.71415
# Shear Modulus (GPa) = 20.86197 22.64217 21.75207
#
# Velocity S-wave (km/s) = 3.40146 3.54362 3.47327
# Velocity P-wave (km/s) = 5.44556 5.57111 5.50869
#
# Compressibility (1/GPa) = 0.03898031
#
# Stress axis : x y z
#
# Youngs Moduli (GPa) = 51.64208 51.64208 65.35239
#
# Poissons Ratio (x) = 0.19322 0.12362
# Poissons Ratio (y) = 0.19322 0.12362
# Poissons Ratio (z) = 0.09769 0.09769
#
# Static dielectric constant tensor:
#      x y z
#    x 3.181190 0.000000 0.000000 
#    y 0.000000 3.181190 0.000000 
#    z 0.000000 0.000000 3.529950 
# 
# 
# High freq. dielectric constant tensor:
#      x y z
#    x 1.686570 0.000000 0.000000 
#    y 0.000000 1.686570 0.000000 
#    z 0.000000 0.000000 1.718300 
# 
# From -- ./inp_files/361.got.cif
#   From: 2010.03.12/outbox.cif.g09.slc.cpg/sg145_cif.got.tgz:361.got - 2010.04.03 13:35:35.
