data_PCOD8321524
_publ_section_title
;
Structure prediction by ZEFSAII (Michael W. Deem and Ramdas Pophale) SiO2 
 PCOD8321524
Probable space group: R 3
;
_chemical_formula_sum "Si O2"
_cell_formula_units_Z 42
_cell_length_a 10.408792
_cell_length_b 10.408792
_cell_length_c 19.750664
_cell_angle_alpha 90.000000
_cell_angle_beta 90.000000
_cell_angle_gamma 120.000000
_cell_volume 1853.160321
_symmetry_space_group_name_H-M "R 3"
_symmetry_group_IT_number 146
_symmetry_cell_setting 'hexagonal'
loop_
_space_group_symop_operation_xyz
x,y,z
-y,x-y,z
-x+y,-x,z
2/3+x,1/3+y,1/3+z
2/3-y,1/3+x-y,1/3+z
2/3-x+y,1/3-x,1/3+z
1/3+x,2/3+y,2/3+z
1/3-y,2/3+x-y,2/3+z
1/3-x+y,2/3-x,2/3+z
loop_
_atom_site_type_symbol
_atom_site_label
_atom_site_fract_x
_atom_site_fract_y
_atom_site_fract_z
Si Si1 0.345911 0.245636 0.553030
Si Si2 0.000000 0.000000 0.060857
Si Si3 0.666668 0.333335 0.552317
Si Si4 0.150847 0.339844 0.069472
Si Si5 0.852954 0.024122 0.828450
Si Si6 0.664143 0.855735 0.363675
O O1 0.517390 0.327852 0.576781
O O2 0.319998 0.150243 0.485248
O O3 0.291837 0.364204 0.542334
O O4 0.262284 0.152377 0.620504
O O5 0.000000 0.000000 0.139744
O O6 0.080017 0.172875 0.038343
O O7 0.044440 0.403463 0.051259
O O8 0.309747 0.444875 0.035796
O O9 0.818190 0.026324 0.748943
O O10 0.021940 0.156316 0.843087
#
# Coordination Sequence:
#
# PCOD8321524 Si02
#       6
#     9   3   3   9   9   9
#     4  10  21  40  66 100 130 184 225 284 350 420
#     4   9  21  39  66  96 135 183 231 298 350 403
#     4   9  18  33  69  90 123 168 234 265 344 415
#     4  10  23  42  67 100 142 179 238 294 349 432
#     4   9  23  43  63  91 142 174 226 290 341 408
#     4  11  22  41  67  99 138 180 234 285 354 422
#
# _framework density 22.663985
#
# number of rings (size 3 to 8) (size 9 to 14) (size 15 to 20)
#    0.429    1.714    0.000    1.714   12.000    0.000 
#   11.571    0.000    0.000    0.000    0.000    0.000 
#    0.000    0.000    0.000    0.000    0.000    0.000 
#
# Total GULP energy -173467.990947 kJ/mol
# GULP energy per Si atom -12390.570782 kJ/mol
# Density = 2.261240 g / cm^3
# Si number density = 22.663985 Si / 1000 Ang^3
#
#
#
# Elastic Constant Matrix: (Units=GPa)
#
#
# Indices 1 2 3 4 5 6 
#
# 1 108.9678 41.8365 36.4163 -5.9533 -6.0812 0.0000
# 2 41.8365 108.9689 36.4163 5.9542 6.0815 0.0000
# 3 36.4163 36.4163 134.7046 -0.0001 0.0001 0.0000
# 4 -5.9533 5.9542 -0.0001 10.6297 -0.0008 6.0817
# 5 -6.0812 6.0815 0.0001 -0.0008 10.6313 -5.9530
# 6 0.0000 0.0000 0.0000 6.0817 -5.9530 33.5660
#
#
#
# Elastic Compliance Matrix: (Units=1/GPa)
#
#
# Indices 1 2 3 4 5 6 
#
# 1 0.013159 -0.005532 -0.002062 0.010469 0.010691 -0.000001
# 2 -0.005532 0.013159 -0.002062 -0.010470 -0.010692 0.000001
# 3 -0.002062 -0.002062 0.008538 0.000000 0.000000 0.000000
# 4 0.010469 -0.010470 0.000000 0.118040 0.000012 -0.021385
# 5 0.010691 -0.010692 0.000000 0.000012 0.118012 0.020927
# 6 -0.000001 0.000001 0.000000 -0.021385 0.020927 0.037378
#
#
# Mechanical properties :
#
#
# Convention : Reuss Voigt Hill
#
# Bulk Modulus (GPa) = 64.33030 64.66438 64.49734
# Shear Modulus (GPa) = 15.02503 26.83020 20.92761
#
# Velocity S-wave (km/s) = 2.57757 3.44441 3.04202
# Velocity P-wave (km/s) = 6.10774 6.66426 6.39206
#
# Compressibility (1/GPa) = 0.01554477
#
# Stress axis : x y z
#
# Youngs Moduli (GPa) = 75.99645 75.99620 117.11708
#
# Poissons Ratio (x) = 0.42038 0.24148
# Poissons Ratio (y) = 0.42039 0.24148
# Poissons Ratio (z) = 0.15669 0.15669
#
# Static dielectric constant tensor:
#      x y z
#    x 4.909980 0.000040 0.000010 
#    y 0.000040 4.909940 0.000040 
#    z 0.000010 0.000040 4.186070 
# 
# 
# High freq. dielectric constant tensor:
#      x y z
#    x 1.882040 0.000000 0.000000 
#    y 0.000000 1.882040 0.000000 
#    z 0.000000 0.000000 1.897510 
# 
# From -- ./inp_files/1705.got.cif
#   From: 2010.06.25/outbox.cif.g09.slc.cpg/sg146_cif.got.tgz:1705.got - 2010.06.28 11:17:22.
