data_PCOD8321963
_publ_section_title
;
Structure prediction by ZEFSAII (Michael W. Deem and Ramdas Pophale) SiO2 
 PCOD8321963
Probable space group: P 31 1 2
;
_chemical_formula_sum "Si O2"
_cell_formula_units_Z 24
_cell_length_a 7.591411
_cell_length_b 7.591411
_cell_length_c 27.461387
_cell_angle_alpha 90.000000
_cell_angle_beta 90.000000
_cell_angle_gamma 120.000000
_cell_volume 1370.560180
_symmetry_space_group_name_H-M "P 31 1 2"
_symmetry_group_IT_number 151
_symmetry_cell_setting 'hexagonal'
loop_
_space_group_symop_operation_xyz
x,y,z
-y,x-y,1/3+z
-x+y,-x,2/3+z
-y,-x,2/3-z
-x+y,y,1/3-z
x,x-y,-z
loop_
_atom_site_type_symbol
_atom_site_label
_atom_site_fract_x
_atom_site_fract_y
_atom_site_fract_z
Si Si1 0.612948 0.601236 0.381931
Si Si2 0.559779 0.463542 0.726881
Si Si3 0.596429 0.982119 0.378494
Si Si4 0.353619 0.683041 0.223364
O O1 0.531228 0.468773 0.333334
O O2 0.785281 0.562226 0.404098
O O3 0.701444 0.841752 0.370638
O O4 0.429839 0.529859 0.421269
O O5 0.506122 0.504119 0.672795
O O6 0.487587 0.565125 0.767270
O O7 0.800918 0.559471 0.733337
O O8 0.408834 0.866630 0.416371
O O9 0.318984 0.637967 0.166667
#
# Coordination Sequence:
#
# PCOD8321963 Si02
#       4
#     6   6   6   6
#     4  10  19  38  61  84 114 148 193 243 280 328
#     4  11  19  38  64  84 108 154 198 239 286 328
#     4   9  20  37  59  87 111 143 202 240 272 337
#     4  10  22  40  55  85 128 150 184 237 290 357
#
# _framework density 17.511089999999999
#
# number of rings (size 3 to 8) (size 9 to 14) (size 15 to 20)
#    1.500    0.500    5.000    0.750    0.000    2.000 
#   13.500    0.000    0.000    0.000    0.000    0.000 
#    0.000    0.000    0.000    0.000    0.000    0.000 
#
# Total GULP energy -297436.778395 kJ/mol
# GULP energy per Si atom -12393.199100 kJ/mol
# Density = 1.747123 g / cm^3
# Si number density = 17.511090 Si / 1000 Ang^3
#
#
#
# Elastic Constant Matrix: (Units=GPa)
#
#
# Indices 1 2 3 4 5 6 
#
# 1 103.0781 37.9012 20.9849 -0.0004 2.2952 0.0000
# 2 37.9012 103.0781 20.9849 0.0004 -2.2952 0.0000
# 3 20.9849 20.9849 82.6433 0.0000 0.0000 0.0000
# 4 -0.0004 0.0004 0.0000 8.9703 0.0000 -2.2952
# 5 2.2952 -2.2952 0.0000 0.0000 8.9703 -0.0004
# 6 0.0000 0.0000 0.0000 -2.2952 -0.0004 32.5885
#
#
#
# Elastic Compliance Matrix: (Units=1/GPa)
#
#
# Indices 1 2 3 4 5 6 
#
# 1 0.011649 -0.003976 -0.001948 0.000001 -0.003998 0.000000
# 2 -0.003976 0.011649 -0.001948 -0.000001 0.003998 0.000000
# 3 -0.001948 -0.001948 0.013090 0.000000 0.000000 0.000000
# 4 0.000001 -0.000001 0.000000 0.113525 0.000000 0.007996
# 5 -0.003998 0.003998 0.000000 0.000000 0.113525 0.000001
# 6 0.000000 0.000000 0.000000 0.007996 0.000001 0.031249
#
#
# Mechanical properties :
#
#
# Convention : Reuss Voigt Hill
#
# Bulk Modulus (GPa) = 48.44351 49.83796 49.14074
# Shear Modulus (GPa) = 15.75733 24.03436 19.89585
#
# Velocity S-wave (km/s) = 3.00300 3.70878 3.37439
# Velocity P-wave (km/s) = 6.30465 6.84563 6.58070
#
# Compressibility (1/GPa) = 0.02064260
#
# Stress axis : x y z
#
# Youngs Moduli (GPa) = 85.84538 85.84538 76.39610
#
# Poissons Ratio (x) = 0.34128 0.14885
# Poissons Ratio (y) = 0.34128 0.14885
# Poissons Ratio (z) = 0.16726 0.16726
#
# Static dielectric constant tensor:
#      x y z
#    x 3.176330 0.000000 0.000000 
#    y 0.000000 3.176330 0.000000 
#    z 0.000000 0.000000 2.987490 
# 
# 
# High freq. dielectric constant tensor:
#      x y z
#    x 1.670310 0.000000 0.000000 
#    y 0.000000 1.670310 0.000000 
#    z 0.000000 0.000000 1.659730 
# 
# From -- ./inp_files/4068.got.cif
#   From: 2010.03.12/outbox.cif.g09.slc.cpg/sg151_3_cif.got.tgz:4068.got - 2010.04.03 13:42:29.
