data_PCOD8321852
_publ_section_title
;
Structure prediction by ZEFSAII (Michael W. Deem and Ramdas Pophale) SiO2 
 PCOD8321852
Probable space group: P 3 1 2
;
_chemical_formula_sum "Si O2"
_cell_formula_units_Z 48
_cell_length_a 18.369956
_cell_length_b 18.369956
_cell_length_c 8.500403
_cell_angle_alpha 90.000000
_cell_angle_beta 90.000000
_cell_angle_gamma 120.000000
_cell_volume 2484.198984
_symmetry_space_group_name_H-M "P 3 1 2"
_symmetry_group_IT_number 149
_symmetry_cell_setting 'hexagonal'
loop_
_space_group_symop_operation_xyz
x,y,z
-y,x-y,z
-x+y,-x,z
-y,-x,-z
-x+y,y,-z
x,x-y,-z
loop_
_atom_site_type_symbol
_atom_site_label
_atom_site_fract_x
_atom_site_fract_y
_atom_site_fract_z
Si Si1 0.813076 0.906525 0.185832
Si Si2 0.904972 0.095057 0.686491
Si Si3 0.625365 0.812686 0.688547
Si Si4 0.092715 0.625508 0.315829
Si Si5 0.913501 0.374603 0.818499
Si Si6 0.807722 0.615439 0.313502
Si Si7 0.913517 0.538917 0.818523
Si Si8 0.374496 0.467231 0.684191
O O1 0.857156 0.856596 0.251184
O O2 0.716616 0.858264 0.235858
O O3 0.857103 0.000518 0.251250
O O4 0.821414 0.910707 0.000000
O O5 0.907214 0.092787 0.500000
O O6 0.856340 0.143698 0.743901
O O7 0.635643 0.817822 0.500000
O O8 0.572238 0.718208 0.755211
O O9 0.572178 0.853974 0.755207
O O10 0.108117 0.631188 0.500006
O O11 0.119069 0.559546 0.243462
O O12 0.996167 0.592868 0.283037
O O13 0.847644 0.284678 0.754938
O O14 0.878645 0.439331 0.795113
O O15 0.934433 0.369998 0.999983
O O16 0.805990 0.611979 0.500000
O O17 0.715327 0.563005 0.245052
O O18 0.996196 0.592891 0.717026
#
# Coordination Sequence:
#
# PCOD8321852 Si02
#       8
#     6   6   6   6   6   6   6   6
#     4  12  25  39  58  86 117 151 193 238 282 335
#     4  11  24  42  61  83 116 155 191 234 288 339
#     4  10  20  35  55  82 114 150 190 232 283 337
#     4   9  18  34  55  79 109 146 186 230 276 327
#     4  10  21  37  57  81 110 145 181 224 278 332
#     4  11  23  38  60  87 111 144 188 232 277 333
#     4  10  21  37  57  81 110 145 181 224 278 332
#     4   9  18  34  55  79 109 146 186 230 276 327
#
# _framework density 19.322125
#
# number of rings (size 3 to 8) (size 9 to 14) (size 15 to 20)
#    0.000    1.750    0.000    4.375    0.000   10.500 
#    1.500    0.000    0.000    0.000    0.000    0.000 
#    0.000    0.000    0.000    0.000    0.000    0.000 
#
# Total GULP energy -595105.500031 kJ/mol
# GULP energy per Si atom -12398.031251 kJ/mol
# Density = 1.927815 g / cm^3
# Si number density = 19.322125 Si / 1000 Ang^3
#
#
#
# Elastic Constant Matrix: (Units=GPa)
#
#
# Indices 1 2 3 4 5 6 
#
# 1 150.6631 114.4786 28.2501 0.0000 -0.0151 0.0000
# 2 114.4786 150.6631 28.2501 0.0000 0.0151 0.0000
# 3 28.2501 28.2501 47.4823 0.0000 0.0000 0.0000
# 4 0.0000 0.0000 0.0000 6.0474 0.0000 0.0151
# 5 -0.0151 0.0151 0.0000 0.0000 6.0474 0.0000
# 6 0.0000 0.0000 0.0000 0.0151 0.0000 18.0923
#
#
#
# Elastic Compliance Matrix: (Units=1/GPa)
#
#
# Indices 1 2 3 4 5 6 
#
# 1 0.015978 -0.011658 -0.002570 0.000000 0.000069 0.000000
# 2 -0.011658 0.015978 -0.002570 0.000000 -0.000069 0.000000
# 3 -0.002570 -0.002570 0.024118 0.000000 0.000000 0.000000
# 4 0.000000 0.000000 0.000000 0.165362 0.000000 -0.000138
# 5 0.000069 -0.000069 0.000000 0.000000 0.165362 0.000000
# 6 0.000000 0.000000 0.000000 -0.000138 0.000000 0.055272
#
#
# Mechanical properties :
#
#
# Convention : Reuss Voigt Hill
#
# Bulk Modulus (GPa) = 44.48863 76.75179 60.62021
# Shear Modulus (GPa) = 10.34858 17.89272 14.12065
#
# Velocity S-wave (km/s) = 2.31677 3.04636 2.70627
# Velocity P-wave (km/s) = 5.49830 7.22373 6.41925
#
# Compressibility (1/GPa) = 0.02247765
#
# Stress axis : x y z
#
# Youngs Moduli (GPa) = 62.58742 62.58742 41.46236
#
# Poissons Ratio (x) = 0.72967 0.10655
# Poissons Ratio (y) = 0.72967 0.10655
# Poissons Ratio (z) = 0.16083 0.16083
#
# Static dielectric constant tensor:
#      x y z
#    x 3.936510 0.000000 0.000000 
#    y 0.000000 3.936510 0.000000 
#    z 0.000000 0.000000 3.540380 
# 
# 
# High freq. dielectric constant tensor:
#      x y z
#    x 1.762740 0.000000 0.000000 
#    y 0.000000 1.762740 0.000000 
#    z 0.000000 0.000000 1.749790 
# 
# From -- ./inp_files/732.got.cif
#   From: 2010.03.12/outbox.cif.g09.slc.cpg/sg149_cif.got.tgz:732.got - 2010.04.03 13:40:41.
