data_PCOD8321724
_publ_section_title
;
Structure prediction by ZEFSAII (Michael W. Deem and Ramdas Pophale) SiO2 
 PCOD8321724
Probable space group: R -3
;
_chemical_formula_sum "Si O2"
_cell_formula_units_Z 72
_cell_length_a 10.831402
_cell_length_b 10.831402
_cell_length_c 28.978239
_cell_angle_alpha 90.000000
_cell_angle_beta 90.000000
_cell_angle_gamma 120.000000
_cell_volume 2944.231610
_symmetry_space_group_name_H-M "R -3"
_symmetry_group_IT_number 148
_symmetry_cell_setting 'hexagonal'
loop_
_space_group_symop_operation_xyz
x,y,z
-y,x-y,z
-x+y,-x,z
-x,-y,-z
y,-x+y,-z
x-y,x,-z
2/3+x,1/3+y,1/3+z
2/3-y,1/3+x-y,1/3+z
2/3-x+y,1/3-x,1/3+z
2/3-x,1/3-y,1/3-z
2/3+y,1/3-x+y,1/3-z
2/3+x-y,1/3+x,1/3-z
1/3+x,2/3+y,2/3+z
1/3-y,2/3+x-y,2/3+z
1/3-x+y,2/3-x,2/3+z
1/3-x,2/3-y,2/3-z
1/3+y,2/3-x+y,2/3-z
1/3+x-y,2/3+x,2/3-z
loop_
_atom_site_type_symbol
_atom_site_label
_atom_site_fract_x
_atom_site_fract_y
_atom_site_fract_z
Si Si1 0.774846 0.680749 0.051773
Si Si2 0.593074 0.933031 0.143956
Si Si3 0.844497 0.466405 0.524966
Si Si4 0.224257 0.316852 0.050271
O O1 0.716473 0.553743 0.088384
O O2 0.711652 0.781463 0.064734
O O3 0.945610 0.778584 0.051282
O O4 0.725947 0.612625 0.000379
O O5 0.603243 0.812393 0.172351
O O6 0.757590 0.063628 0.155734
O O7 0.576403 0.909082 0.088870
O O8 0.704367 0.488515 0.517361
#
# Coordination Sequence:
#
# PCOD8321724 Si02
#       4
#    18  18  18  18
#     4  10  20  43  62 100 126 166 216 258 314 368
#     4  12  25  44  65  94 130 168 211 257 320 382
#     4  10  24  42  65  96 125 166 212 265 312 370
#     4  10  22  37  68  93 131 168 206 265 311 372
#
# _framework density 24.454599000000002
#
# number of rings (size 3 to 8) (size 9 to 14) (size 15 to 20)
#    0.500    1.000    2.500    2.250    3.500    4.000 
#    4.500    3.750    0.000    0.000    0.000    0.000 
#    0.000    0.000    0.000    0.000    0.000    0.000 
#
# Total GULP energy -297580.302441 kJ/mol
# GULP energy per Si atom -12399.179268 kJ/mol
# Density = 2.439894 g / cm^3
# Si number density = 24.454599 Si / 1000 Ang^3
#
#
#
# Elastic Constant Matrix: (Units=GPa)
#
#
# Indices 1 2 3 4 5 6 
#
# 1 38.5503 15.2695 -1.0076 0.5436 1.6473 0.0000
# 2 15.2695 38.5503 -1.0076 -0.5436 -1.6473 0.0000
# 3 -1.0076 -1.0076 140.8763 0.0000 0.0000 0.0000
# 4 0.5436 -0.5436 0.0000 38.5995 0.0000 -1.6473
# 5 1.6473 -1.6473 0.0000 0.0000 38.5995 0.5436
# 6 0.0000 0.0000 0.0000 -1.6473 0.5436 11.6404
#
#
#
# Elastic Compliance Matrix: (Units=1/GPa)
#
#
# Indices 1 2 3 4 5 6 
#
# 1 0.030915 -0.012329 0.000133 -0.000609 -0.001845 0.000000
# 2 -0.012329 0.030915 0.000133 0.000609 0.001845 0.000000
# 3 0.000133 0.000133 0.007100 0.000000 0.000000 0.000000
# 4 -0.000609 0.000609 0.000000 0.026082 0.000000 0.003691
# 5 -0.001845 0.001845 0.000000 0.000000 0.026082 -0.001218
# 6 0.000000 0.000000 0.000000 0.003691 -0.001218 0.086487
#
#
# Mechanical properties :
#
#
# Convention : Reuss Voigt Hill
#
# Bulk Modulus (GPa) = 22.31992 27.16507 24.74250
# Shear Modulus (GPa) = 20.27241 31.41603 25.84422
#
# Velocity S-wave (km/s) = 2.88233 3.58811 3.25441
# Velocity P-wave (km/s) = 4.49711 5.31964 4.92557
#
# Compressibility (1/GPa) = 0.04480303
#
# Stress axis : x y z
#
# Youngs Moduli (GPa) = 32.34726 32.34726 140.83862
#
# Poissons Ratio (x) = 0.39881 -0.01872
# Poissons Ratio (y) = 0.39881 -0.01872
# Poissons Ratio (z) = -0.00430 -0.00430
#
# Static dielectric constant tensor:
#      x y z
#    x 4.636030 0.000000 0.000000 
#    y 0.000000 4.636030 0.000000 
#    z 0.000000 0.000000 4.767140 
# 
# 
# High freq. dielectric constant tensor:
#      x y z
#    x 1.987770 0.000000 0.000000 
#    y 0.000000 1.987770 0.000000 
#    z 0.000000 0.000000 1.981300 
# 
# From -- ./inp_files/3890.got.cif
#   From: 2010.03.12/outbox.cif.g09.slc.cpg/sg148_2_cif.got.tgz:3890.got - 2010.04.03 13:38:46.
