data_PCOD8321175
_publ_section_title
;
Structure prediction by ZEFSAII (Michael W. Deem and Ramdas Pophale) SiO2 
 PCOD8321175
Probable space group: I 41/A C D
;
_chemical_formula_sum "Si O2"
_cell_formula_units_Z 136
_cell_length_a 18.787191
_cell_length_b 18.787191
_cell_length_c 17.153155
_cell_angle_alpha 90.000000
_cell_angle_beta 90.000000
_cell_angle_gamma 90.000000
_cell_volume 6054.352642
_symmetry_space_group_name_H-M "I 41/A C D"
_symmetry_group_IT_number 142
_space_group.IT_coordinate_system_code '2'
_symmetry_cell_setting 'tetragonal'
loop_
_space_group_symop_operation_xyz
x,y,z
1/4-y,3/4+x,1/4+z
-x,1/2-y,z
1/4+y,1/4-x,3/4+z
x,-y,1/2-z
1/2-x,y,-z
3/4+y,1/4+x,1/4-z
1/4-y,1/4-x,1/4-z
-x,-y,-z
3/4+y,1/4-x,3/4-z
x,1/2+y,-z
3/4-y,3/4+x,1/4-z
-x,y,1/2+z
1/2+x,-y,z
1/4-y,3/4-x,3/4+z
3/4+y,3/4+x,3/4+z
1/2+x,1/2+y,1/2+z
3/4-y,1/4+x,3/4+z
1/2-x,-y,1/2+z
3/4+y,3/4-x,1/4+z
1/2+x,1/2-y,-z
-x,1/2+y,1/2-z
1/4+y,3/4+x,3/4-z
3/4-y,3/4-x,3/4-z
1/2-x,1/2-y,1/2-z
1/4+y,3/4-x,1/4-z
1/2+x,y,1/2-z
1/4-y,1/4+x,3/4-z
1/2-x,1/2+y,z
x,1/2-y,1/2+z
3/4-y,1/4-x,1/4+z
1/4+y,1/4+x,1/4+z
loop_
_atom_site_type_symbol
_atom_site_label
_atom_site_fract_x
_atom_site_fract_y
_atom_site_fract_z
Si Si1 0.183663 0.566338 0.875000
Si Si2 0.000000 0.750000 0.625000
Si Si3 0.250000 0.531782 0.500000
Si Si4 0.347051 0.150424 0.449407
Si Si5 0.977802 0.112798 0.962274
Si Si6 0.526394 0.035271 0.381739
O O1 0.198184 0.516221 0.948523
O O2 0.196084 0.646729 0.901964
O O3 0.069119 0.729910 0.677838
O O4 0.295704 0.582367 0.555686
O O5 0.398628 0.148628 0.375000
O O6 0.397096 0.143270 0.525363
O O7 0.301368 0.222597 0.440162
O O8 0.978866 0.048375 0.900840
O O9 0.012341 0.084087 0.042125
#
# Coordination Sequence:
#
# PCOD8321175 Si02
#       6
#    16   8  16  32  32  32
#     4  12  26  42  71 108 138 175 236 290 342 420
#     4  12  28  40  70 100 140 172 232 290 344 420
#     4  12  24  42  70 100 138 174 228 292 344 408
#     4  10  22  44  67  91 131 183 220 282 349 410
#     4  10  24  46  65  99 135 178 228 281 347 421
#     4  10  24  44  70  95 137 179 228 282 345 416
#
# _framework density 22.463177999999999
#
# number of rings (size 3 to 8) (size 9 to 14) (size 15 to 20)
#    0.000    1.412    3.529    0.000    6.588    2.824 
#    0.000    0.000    0.000    0.000    0.000    0.000 
#    0.000    0.000    0.000    0.000    0.000    0.000 
#
# Total GULP energy -842983.239971 kJ/mol
# GULP energy per Si atom -12396.812353 kJ/mol
# Density = 2.241205 g / cm^3
# Si number density = 22.463178 Si / 1000 Ang^3
#
#
#
# Elastic Constant Matrix: (Units=GPa)
#
#
# Indices 1 2 3 4 5 6 
#
# 1 156.6062 50.1010 37.9011 0.0000 0.0000 0.0000
# 2 50.1010 156.6067 37.9005 0.0000 0.0000 0.0000
# 3 37.9011 37.9005 50.1704 0.0000 0.0000 0.0000
# 4 0.0000 0.0000 0.0000 37.5410 0.0000 0.0000
# 5 0.0000 0.0000 0.0000 0.0000 37.5414 0.0000
# 6 0.0000 0.0000 0.0000 0.0000 0.0000 35.5669
#
#
#
# Elastic Compliance Matrix: (Units=1/GPa)
#
#
# Indices 1 2 3 4 5 6 
#
# 1 0.008040 -0.001349 -0.005055 0.000000 0.000000 0.000000
# 2 -0.001349 0.008040 -0.005055 0.000000 0.000000 0.000000
# 3 -0.005055 -0.005055 0.027570 0.000000 0.000000 0.000000
# 4 0.000000 0.000000 0.000000 0.026638 0.000000 0.000000
# 5 0.000000 0.000000 0.000000 0.000000 0.026637 0.000000
# 6 0.000000 0.000000 0.000000 0.000000 0.000000 0.028116
#
#
# Mechanical properties :
#
#
# Convention : Reuss Voigt Hill
#
# Bulk Modulus (GPa) = 48.23349 68.35427 58.29388
# Shear Modulus (GPa) = 32.28522 37.96193 35.12358
#
# Velocity S-wave (km/s) = 3.79522 4.11538 3.95854
# Velocity P-wave (km/s) = 6.38152 7.28542 6.84840
#
# Compressibility (1/GPa) = 0.02073248
#
# Stress axis : x y z
#
# Youngs Moduli (GPa) = 124.37230 124.37365 36.27187
#
# Poissons Ratio (x) = 0.16776 0.18336
# Poissons Ratio (y) = 0.16776 0.18335
# Poissons Ratio (z) = 0.62871 0.62870
#
# Static dielectric constant tensor:
#      x y z
#    x 4.078820 0.000000 0.000000 
#    y 0.000000 4.078790 0.000000 
#    z 0.000000 0.000000 4.868620 
# 
# 
# High freq. dielectric constant tensor:
#      x y z
#    x 1.889680 0.000000 0.000000 
#    y 0.000000 1.889680 0.000000 
#    z 0.000000 0.000000 1.871170 
# 
# From -- ./inp_files/8839.got.cif
#   From: 2010.03.12/outbox.cif.g09.slc.cpg/sg142_5_cif.got.tgz:8839.got - 2010.04.03 13:27:16.
