data_PCOD8321550
_publ_section_title
;
Structure prediction by ZEFSAII (Michael W. Deem and Ramdas Pophale) SiO2 
 PCOD8321550
Probable space group: R 3
;
_chemical_formula_sum "Si O2"
_cell_formula_units_Z 45
_cell_length_a 13.866836
_cell_length_b 13.866836
_cell_length_c 11.465416
_cell_angle_alpha 90.000000
_cell_angle_beta 90.000000
_cell_angle_gamma 120.000000
_cell_volume 1909.304548
_symmetry_space_group_name_H-M "R 3"
_symmetry_group_IT_number 146
_symmetry_cell_setting 'hexagonal'
loop_
_space_group_symop_operation_xyz
x,y,z
-y,x-y,z
-x+y,-x,z
2/3+x,1/3+y,1/3+z
2/3-y,1/3+x-y,1/3+z
2/3-x+y,1/3-x,1/3+z
1/3+x,2/3+y,2/3+z
1/3-y,2/3+x-y,2/3+z
1/3-x+y,2/3-x,2/3+z
loop_
_atom_site_type_symbol
_atom_site_label
_atom_site_fract_x
_atom_site_fract_y
_atom_site_fract_z
Si Si1 0.138905 0.062476 0.413680
Si Si2 0.255077 0.893467 0.265833
Si Si3 0.871714 0.551847 0.553846
Si Si4 0.885521 0.346082 0.184324
Si Si5 0.119128 0.655117 0.614013
O O1 0.243825 0.103804 0.495174
O O2 0.180585 0.101327 0.279799
O O3 0.068759 0.126229 0.437170
O O4 0.300539 0.861744 0.379202
O O5 0.132436 0.876389 0.284552
O O6 0.340183 0.018839 0.227688
O O7 0.844877 0.536061 0.417838
O O8 0.000895 0.642006 0.578394
O O9 0.766163 0.240389 0.211177
O O10 0.900505 0.454856 0.247794
#
# Coordination Sequence:
#
# PCOD8321550 Si02
#       5
#     9   9   9   9   9
#     4  10  26  41  75 104 142 195 248 307 369 447
#     4  12  26  49  75 107 151 198 258 308 385 450
#     4  12  25  48  74 108 152 197 257 309 383 447
#     4  12  29  47  77 110 154 201 251 316 379 460
#     4  12  28  47  75 111 153 199 250 316 382 450
#
# _framework density 23.56879
#
# number of rings (size 3 to 8) (size 9 to 14) (size 15 to 20)
#    0.400    0.000    2.000    5.200   11.200    0.000 
#    0.000    0.000    0.000    0.000    0.000    0.000 
#    0.000    0.000    0.000    0.000    0.000    0.000 
#
# Total GULP energy -185937.778124 kJ/mol
# GULP energy per Si atom -12395.851875 kJ/mol
# Density = 2.351515 g / cm^3
# Si number density = 23.568790 Si / 1000 Ang^3
#
#
#
# Elastic Constant Matrix: (Units=GPa)
#
#
# Indices 1 2 3 4 5 6 
#
# 1 115.4222 27.8099 10.4250 3.7248 9.8885 0.0000
# 2 27.8099 115.4222 10.4250 -3.7248 -9.8885 0.0000
# 3 10.4250 10.4250 133.7635 0.0000 0.0000 0.0000
# 4 3.7248 -3.7248 0.0000 31.8346 0.0000 -9.8885
# 5 9.8885 -9.8885 0.0000 0.0000 31.8346 3.7248
# 6 0.0000 0.0000 0.0000 -9.8885 3.7248 43.8061
#
#
#
# Elastic Compliance Matrix: (Units=1/GPa)
#
#
# Indices 1 2 3 4 5 6 
#
# 1 0.009735 -0.002673 -0.000550 -0.001452 -0.003854 0.000000
# 2 -0.002673 0.009735 -0.000550 0.001452 0.003854 0.000000
# 3 -0.000550 -0.000550 0.007562 0.000000 0.000000 0.000000
# 4 -0.001452 0.001452 0.000000 0.034146 0.000000 0.007708
# 5 -0.003854 0.003854 0.000000 0.000000 0.034146 -0.002903
# 6 0.000000 0.000000 0.000000 0.007708 -0.002903 0.024815
#
#
# Mechanical properties :
#
#
# Convention : Reuss Voigt Hill
#
# Bulk Modulus (GPa) = 51.32476 51.32531 51.32503
# Shear Modulus (GPa) = 37.26345 42.55827 39.91086
#
# Velocity S-wave (km/s) = 3.98056 4.25397 4.11953
# Velocity P-wave (km/s) = 6.55365 6.77882 6.66718
#
# Compressibility (1/GPa) = 0.01948377
#
# Stress axis : x y z
#
# Youngs Moduli (GPa) = 102.72670 102.72670 132.24594
#
# Poissons Ratio (x) = 0.27457 0.07278
# Poissons Ratio (y) = 0.27457 0.07278
# Poissons Ratio (z) = 0.05654 0.05654
#
# Static dielectric constant tensor:
#      x y z
#    x 4.291550 0.000000 0.000000 
#    y 0.000000 4.291550 0.000000 
#    z 0.000000 0.000000 4.236240 
# 
# 
# High freq. dielectric constant tensor:
#      x y z
#    x 1.945300 0.000000 0.000000 
#    y 0.000000 1.945300 0.000000 
#    z 0.000000 0.000000 1.938700 
# 
# From -- ./inp_files/1078.got.cif
#   From: 2010.06.25/outbox.cif.g09.slc.cpg/sg146_cif.got.tgz:1078.got - 2010.06.28 11:17:22.
