data_PCOD8321131
_publ_section_title
;
Structure prediction by ZEFSAII (Michael W. Deem and Ramdas Pophale) SiO2 
 PCOD8321131
Probable space group: I 41/A C D
;
_chemical_formula_sum "Si O2"
_cell_formula_units_Z 160
_cell_length_a 20.134093
_cell_length_b 20.134093
_cell_length_c 16.769399
_cell_angle_alpha 90.000000
_cell_angle_beta 90.000000
_cell_angle_gamma 90.000000
_cell_volume 6798.007490
_symmetry_space_group_name_H-M "I 41/A C D"
_symmetry_group_IT_number 142
_space_group.IT_coordinate_system_code '2'
_symmetry_cell_setting 'tetragonal'
loop_
_space_group_symop_operation_xyz
x,y,z
1/4-y,3/4+x,1/4+z
-x,1/2-y,z
1/4+y,1/4-x,3/4+z
x,-y,1/2-z
1/2-x,y,-z
3/4+y,1/4+x,1/4-z
1/4-y,1/4-x,1/4-z
-x,-y,-z
3/4+y,1/4-x,3/4-z
x,1/2+y,-z
3/4-y,3/4+x,1/4-z
-x,y,1/2+z
1/2+x,-y,z
1/4-y,3/4-x,3/4+z
3/4+y,3/4+x,3/4+z
1/2+x,1/2+y,1/2+z
3/4-y,1/4+x,3/4+z
1/2-x,-y,1/2+z
3/4+y,3/4-x,1/4+z
1/2+x,1/2-y,-z
-x,1/2+y,1/2-z
1/4+y,3/4+x,3/4-z
3/4-y,3/4-x,3/4-z
1/2-x,1/2-y,1/2-z
1/4+y,3/4-x,1/4-z
1/2+x,y,1/2-z
1/4-y,1/4+x,3/4-z
1/2-x,1/2+y,z
x,1/2-y,1/2+z
3/4-y,1/4-x,1/4+z
1/4+y,1/4+x,1/4+z
loop_
_atom_site_type_symbol
_atom_site_label
_atom_site_fract_x
_atom_site_fract_y
_atom_site_fract_z
Si Si1 0.135946 0.349769 0.013644
Si Si2 0.548152 0.005670 0.338356
Si Si3 0.046604 0.851422 0.302412
Si Si4 0.131174 0.388835 0.415008
Si Si5 0.914724 0.974992 0.408437
O O1 0.100147 0.280595 0.031742
O O2 0.201167 0.358162 0.069652
O O3 0.087280 0.411893 0.032241
O O4 0.149694 0.345838 0.920015
O O5 0.575486 0.080430 0.341300
O O6 0.490513 0.996680 0.404287
O O7 0.514966 0.000000 0.250000
O O8 0.608945 0.954584 0.347757
O O9 0.049996 0.799996 0.375000
O O10 0.091311 0.837515 0.223174
O O11 0.131752 0.465876 0.445047
#
# Coordination Sequence:
#
# PCOD8321131 Si02
#       5
#    32  32  32  32  32
#     4  10  23  45  67 105 142 183 237 286 345 423
#     4   9  20  41  68  97 139 180 231 284 351 408
#     4  10  23  46  70 100 142 185 227 291 350 420
#     4  11  21  39  74 103 133 179 237 295 342 409
#     4  10  21  43  70  96 138 192 227 285 348 419
#
# _framework density 23.53631
#
# number of rings (size 3 to 8) (size 9 to 14) (size 15 to 20)
#    0.000    2.000    0.000    4.200    2.800    0.800 
#   21.600   12.000    8.800    0.600    0.000    0.000 
#    0.000    0.000    0.000    0.000    0.000    0.000 
#
# Total GULP energy -991100.265753 kJ/mol
# GULP energy per Si atom -12388.753322 kJ/mol
# Density = 2.348274 g / cm^3
# Si number density = 23.536310 Si / 1000 Ang^3
#
#
#
# Elastic Constant Matrix: (Units=GPa)
#
#
# Indices 1 2 3 4 5 6 
#
# 1 123.1920 48.6596 33.9170 0.0000 0.0000 0.0000
# 2 48.6596 123.1920 33.9170 0.0000 0.0000 0.0000
# 3 33.9170 33.9170 93.3784 0.0000 0.0000 0.0000
# 4 0.0000 0.0000 0.0000 24.4237 0.0000 0.0000
# 5 0.0000 0.0000 0.0000 0.0000 24.4237 0.0000
# 6 0.0000 0.0000 0.0000 0.0000 0.0000 12.8469
#
#
#
# Elastic Compliance Matrix: (Units=1/GPa)
#
#
# Indices 1 2 3 4 5 6 
#
# 1 0.010105 -0.003312 -0.002467 0.000000 0.000000 0.000000
# 2 -0.003312 0.010105 -0.002467 0.000000 0.000000 0.000000
# 3 -0.002467 -0.002467 0.012501 0.000000 0.000000 0.000000
# 4 0.000000 0.000000 0.000000 0.040944 0.000000 0.000000
# 5 0.000000 0.000000 0.000000 0.000000 0.040944 0.000000
# 6 0.000000 0.000000 0.000000 0.000000 0.000000 0.077840
#
#
# Mechanical properties :
#
#
# Convention : Reuss Voigt Hill
#
# Bulk Modulus (GPa) = 61.65999 63.63885 62.64942
# Shear Modulus (GPa) = 23.32765 27.22345 25.27555
#
# Velocity S-wave (km/s) = 3.15164 3.40466 3.28059
# Velocity P-wave (km/s) = 6.28478 6.52326 6.40513
#
# Compressibility (1/GPa) = 0.01621797
#
# Stress axis : x y z
#
# Youngs Moduli (GPa) = 98.96149 98.96149 79.99046
#
# Poissons Ratio (x) = 0.32777 0.19736
# Poissons Ratio (y) = 0.32777 0.19736
# Poissons Ratio (z) = 0.24417 0.24417
#
# Static dielectric constant tensor:
#      x y z
#    x 4.325260 0.000000 0.000000 
#    y 0.000000 4.325260 0.000000 
#    z 0.000000 0.000000 4.414620 
# 
# 
# High freq. dielectric constant tensor:
#      x y z
#    x 1.920980 0.000000 0.000000 
#    y 0.000000 1.920980 0.000000 
#    z 0.000000 0.000000 1.934280 
# 
# From -- ./inp_files/7385.got.cif
#   From: 2010.03.12/outbox.cif.g09.slc.cpg/sg142_4_cif.got.tgz:7385.got - 2010.04.03 13:27:16.
