data_PCOD8321615
_publ_section_title
;
Structure prediction by ZEFSAII (Michael W. Deem and Ramdas Pophale) SiO2 
 PCOD8321615
Probable space group: P -3
;
_chemical_formula_sum "Si O2"
_cell_formula_units_Z 36
_cell_length_a 12.848161
_cell_length_b 12.848161
_cell_length_c 15.211767
_cell_angle_alpha 90.000000
_cell_angle_beta 90.000000
_cell_angle_gamma 120.000000
_cell_volume 2174.664358
_symmetry_space_group_name_H-M "P -3"
_symmetry_group_IT_number 147
_symmetry_cell_setting 'hexagonal'
loop_
_space_group_symop_operation_xyz
x,y,z
-y,x-y,z
-x+y,-x,z
-x,-y,-z
y,-x+y,-z
x-y,x,-z
loop_
_atom_site_type_symbol
_atom_site_label
_atom_site_fract_x
_atom_site_fract_y
_atom_site_fract_z
Si Si1 0.092835 0.667319 0.069890
Si Si2 0.425516 0.332681 0.930110
Si Si3 0.574420 0.908000 0.269098
Si Si4 0.088323 0.423273 0.579627
Si Si5 0.333580 0.908000 0.269098
Si Si6 0.423273 0.088323 0.420373
O O1 0.218739 0.781261 0.050282
O O2 0.109646 0.554823 0.052042
O O3 0.049833 0.667651 0.169449
O O4 1.000000 0.669254 0.000000
O O5 0.382183 0.332349 0.830551
O O6 0.435456 0.870912 0.281794
O O7 0.585543 0.792772 0.295071
O O8 0.659716 0.020021 0.330383
O O9 0.125995 0.562997 0.577579
O O10 0.206552 0.413105 0.571776
O O11 1.000000 0.351843 0.500000
O O12 0.360304 0.020021 0.330383
#
# Coordination Sequence:
#
# PCOD8321615 Si02
#       6
#     6   6   6   6   6   6
#     4   9  17  29  46  69  95 123 155 191 232 276
#     4   9  17  29  46  69  95 123 155 191 232 276
#     4   9  17  30  49  71  94 121 154 192 232 275
#     4  10  20  33  50  72  97 123 151 186 228 274
#     4   9  17  30  49  71  94 121 154 192 232 275
#     4  10  20  33  50  72  97 123 151 186 228 274
#
# _framework density 16.554279000000001
#
# number of rings (size 3 to 8) (size 9 to 14) (size 15 to 20)
#    0.000    2.667    0.000    2.000    0.000    4.000 
#    0.000    3.333    0.000   10.333    0.000    0.000 
#    0.000    0.000    0.000    0.000    0.000    0.000 
#
# Total GULP energy -446379.294495 kJ/mol
# GULP energy per Si atom -12399.424847 kJ/mol
# Density = 1.651660 g / cm^3
# Si number density = 16.554279 Si / 1000 Ang^3
#
#
#
# Elastic Constant Matrix: (Units=GPa)
#
#
# Indices 1 2 3 4 5 6 
#
# 1 94.4051 55.7709 62.1887 0.5527 0.0000 0.0000
# 2 55.7709 94.4051 62.1887 -0.5527 0.0000 0.0000
# 3 62.1887 62.1887 115.1770 0.0000 0.0000 0.0000
# 4 0.5527 -0.5527 0.0000 25.8401 0.0000 0.0000
# 5 0.0000 0.0000 0.0000 0.0000 25.8401 0.5527
# 6 0.0000 0.0000 0.0000 0.0000 0.5527 19.3171
#
#
#
# Elastic Compliance Matrix: (Units=1/GPa)
#
#
# Indices 1 2 3 4 5 6 
#
# 1 0.018972 -0.006927 -0.006504 -0.000554 0.000000 0.000000
# 2 -0.006927 0.018972 -0.006504 0.000554 0.000000 0.000000
# 3 -0.006504 -0.006504 0.015706 0.000000 0.000000 0.000000
# 4 -0.000554 0.000554 0.000000 0.038723 0.000000 0.000000
# 5 0.000000 0.000000 0.000000 0.000000 0.038723 -0.001108
# 6 0.000000 0.000000 0.000000 0.000000 -0.001108 0.051799
#
#
# Mechanical properties :
#
#
# Convention : Reuss Voigt Hill
#
# Bulk Modulus (GPa) = 72.56262 73.80932 73.18597
# Shear Modulus (GPa) = 21.99162 22.45540 22.22351
#
# Velocity S-wave (km/s) = 3.64875 3.68703 3.66794
# Velocity P-wave (km/s) = 7.85363 7.92519 7.88949
#
# Compressibility (1/GPa) = 0.01378120
#
# Stress axis : x y z
#
# Youngs Moduli (GPa) = 52.70793 52.70793 63.67164
#
# Poissons Ratio (x) = 0.36511 0.41411
# Poissons Ratio (y) = 0.36511 0.41411
# Poissons Ratio (z) = 0.34280 0.34280
#
# Static dielectric constant tensor:
#      x y z
#    x 2.974340 0.000000 0.000000 
#    y 0.000000 2.974340 0.000000 
#    z 0.000000 0.000000 3.463530 
# 
# 
# High freq. dielectric constant tensor:
#      x y z
#    x 1.622290 0.000000 0.000000 
#    y 0.000000 1.622290 0.000000 
#    z 0.000000 0.000000 1.655560 
# 
# From -- ./inp_files/923.got.cif
#   From: 2010.03.12/outbox.cif.g09.slc.cpg/sg147_cif.got.tgz:923.got - 2010.04.03 13:37:56.
