data_PCOD8321450
_publ_section_title
;
Structure prediction by ZEFSAII (Michael W. Deem and Ramdas Pophale) SiO2 
 PCOD8321450
Probable space group: P 31
;
_chemical_formula_sum "Si O2"
_cell_formula_units_Z 18
_cell_length_a 9.583902
_cell_length_b 9.583902
_cell_length_c 9.827393
_cell_angle_alpha 90.000000
_cell_angle_beta 90.000000
_cell_angle_gamma 120.000000
_cell_volume 781.724429
_symmetry_space_group_name_H-M "P 31"
_symmetry_group_IT_number 144
_symmetry_cell_setting 'hexagonal'
loop_
_space_group_symop_operation_xyz
x,y,z
-y,x-y,1/3+z
-x+y,-x,2/3+z
loop_
_atom_site_type_symbol
_atom_site_label
_atom_site_fract_x
_atom_site_fract_y
_atom_site_fract_z
Si Si1 0.462875 0.229273 0.425400
Si Si2 0.990460 0.730561 0.586754
Si Si3 0.492258 0.891958 0.778294
Si Si4 0.477746 0.204518 0.126362
Si Si5 0.432389 0.548062 0.735181
Si Si6 0.277560 0.029948 0.688333
O O1 0.402673 0.353580 0.386932
O O2 0.425644 0.137677 0.280683
O O3 0.654744 0.320866 0.459281
O O4 0.375418 0.114223 0.551614
O O5 0.897320 0.624716 0.717983
O O6 0.873675 0.716533 0.463781
O O7 0.109738 0.666532 0.532498
O O8 0.094427 0.913165 0.638841
O O9 0.458699 0.725712 0.713626
O O10 0.339333 0.917162 0.755960
O O11 0.539352 0.876742 0.932756
O O12 0.450087 0.049367 0.045634
#
# Coordination Sequence:
#
# PCOD8321450 Si02
#       6
#     3   3   3   3   3   3
#     4  12  25  46  79 108 144 199 252 302 377 456
#     4  12  28  49  75 107 154 200 253 315 377 450
#     4  12  26  46  75 111 151 192 251 316 375 446
#     4  12  25  46  79 108 144 199 252 302 377 456
#     4  12  26  46  75 111 151 192 251 316 375 446
#     4  12  28  49  75 107 154 200 253 315 377 450
#
# _framework density 23.026015000000001
#
# number of rings (size 3 to 8) (size 9 to 14) (size 15 to 20)
#    0.000    0.000    6.667    3.000    4.667    4.000 
#    0.000    0.000    0.000    0.000    0.000    0.000 
#    0.000    0.000    0.000    0.000    0.000    0.000 
#
# Total GULP energy -223112.620997 kJ/mol
# GULP energy per Si atom -12395.145611 kJ/mol
# Density = 2.297361 g / cm^3
# Si number density = 23.026015 Si / 1000 Ang^3
#
#
#
# Elastic Constant Matrix: (Units=GPa)
#
#
# Indices 1 2 3 4 5 6 
#
# 1 101.6186 44.6849 20.0501 1.6140 -4.7005 0.0000
# 2 44.6849 101.6186 20.0501 -1.6140 4.7005 0.0000
# 3 20.0501 20.0501 124.8975 0.0000 0.0000 0.0000
# 4 1.6140 -1.6140 0.0000 26.5700 0.0000 4.7005
# 5 -4.7005 4.7005 0.0000 0.0000 26.5700 1.6140
# 6 0.0000 0.0000 0.0000 4.7005 1.6140 28.4668
#
#
#
# Elastic Compliance Matrix: (Units=1/GPa)
#
#
# Indices 1 2 3 4 5 6 
#
# 1 0.012653 -0.005504 -0.001148 -0.001103 0.003212 0.000000
# 2 -0.005504 0.012653 -0.001148 0.001103 -0.003212 0.000000
# 3 -0.001148 -0.001148 0.008375 0.000000 0.000000 0.000000
# 4 -0.001103 0.001103 0.000000 0.038907 0.000000 -0.006424
# 5 0.003212 -0.003212 0.000000 0.000000 0.038907 -0.002206
# 6 0.000000 0.000000 0.000000 -0.006424 -0.002206 0.036314
#
#
# Mechanical properties :
#
#
# Convention : Reuss Voigt Hill
#
# Bulk Modulus (GPa) = 55.29925 55.30054 55.29989
# Shear Modulus (GPa) = 29.50952 32.54466 31.02709
#
# Velocity S-wave (km/s) = 3.58379 3.76358 3.67479
# Velocity P-wave (km/s) = 6.41817 6.55399 6.48643
#
# Compressibility (1/GPa) = 0.01808343
#
# Stress axis : x y z
#
# Youngs Moduli (GPa) = 79.02971 79.02971 119.40198
#
# Poissons Ratio (x) = 0.43496 0.13704
# Poissons Ratio (y) = 0.43496 0.13704
# Poissons Ratio (z) = 0.09071 0.09071
#
# Static dielectric constant tensor:
#      x y z
#    x 4.122070 0.000000 0.000000 
#    y 0.000000 4.122070 0.000000 
#    z 0.000000 0.000000 4.252260 
# 
# 
# High freq. dielectric constant tensor:
#      x y z
#    x 1.902640 0.000000 0.000000 
#    y 0.000000 1.902640 0.000000 
#    z 0.000000 0.000000 1.934310 
# 
# From -- ./inp_files/267.got.cif
#   From: 2010.03.12/outbox.cif.g09.slc.cpg/sg144_cif.got.tgz:267.got - 2010.04.03 13:34:42.
