data_PCOD8321390
_publ_section_title
;
Structure prediction by ZEFSAII (Michael W. Deem and Ramdas Pophale) SiO2 
 PCOD8321390
Probable space group: P 31
;
_chemical_formula_sum "Si O2"
_cell_formula_units_Z 21
_cell_length_a 9.766248
_cell_length_b 9.766248
_cell_length_c 11.917342
_cell_angle_alpha 90.000000
_cell_angle_beta 90.000000
_cell_angle_gamma 120.000000
_cell_volume 984.386233
_symmetry_space_group_name_H-M "P 31"
_symmetry_group_IT_number 144
_symmetry_cell_setting 'hexagonal'
loop_
_space_group_symop_operation_xyz
x,y,z
-y,x-y,1/3+z
-x+y,-x,2/3+z
loop_
_atom_site_type_symbol
_atom_site_label
_atom_site_fract_x
_atom_site_fract_y
_atom_site_fract_z
Si Si1 0.699040 0.184583 0.535570
Si Si2 0.735034 0.623118 0.451418
Si Si3 0.824624 0.781846 0.989008
Si Si4 0.228721 0.824080 0.639361
Si Si5 0.090300 0.493859 0.755282
Si Si6 0.619019 0.407782 0.662432
Si Si7 0.027746 0.936947 0.537056
O O1 0.697353 0.305641 0.624750
O O2 0.806421 0.278506 0.427908
O O3 0.781170 0.102466 0.604307
O O4 0.526808 0.064544 0.489915
O O5 0.607314 0.631998 0.370689
O O6 0.626728 0.512818 0.555058
O O7 0.831248 0.552044 0.382968
O O8 0.860771 0.801779 0.488772
O O9 0.631614 0.679728 0.985759
O O10 0.858278 0.826971 0.118777
O O11 0.910349 0.942284 0.920873
O O12 0.183251 0.668563 0.708193
O O13 0.277237 0.799004 0.515065
O O14 0.077030 0.848806 0.629567
#
# Coordination Sequence:
#
# PCOD8321390 Si02
#       7
#     3   3   3   3   3   3   3
#     4  11  20  42  67  99 130 176 229 286 347 420
#     4  11  22  44  67 102 138 180 238 291 355 426
#     4  11  25  43  71  98 137 177 236 293 356 420
#     4  11  24  46  67  96 143 180 229 290 352 425
#     4  11  24  46  66  98 138 182 226 292 354 423
#     4  10  23  37  72 102 131 180 230 291 345 429
#     4  11  24  44  68 101 135 185 230 301 353 423
#
# _framework density 21.333089000000001
#
# number of rings (size 3 to 8) (size 9 to 14) (size 15 to 20)
#    0.000    1.143    4.286    1.714    4.000    0.000 
#    7.714    0.000    0.000    0.000    0.000    0.000 
#    0.000    0.000    0.000    0.000    0.000    0.000 
#
# Total GULP energy -260194.346367 kJ/mol
# GULP energy per Si atom -12390.206970 kJ/mol
# Density = 2.128453 g / cm^3
# Si number density = 21.333089 Si / 1000 Ang^3
#
#
#
# Elastic Constant Matrix: (Units=GPa)
#
#
# Indices 1 2 3 4 5 6 
#
# 1 103.7088 41.1364 45.1439 0.3342 5.7602 0.0000
# 2 41.1364 103.7088 45.1439 -0.3342 -5.7602 0.0000
# 3 45.1439 45.1439 95.6839 0.0000 0.0000 0.0000
# 4 0.3342 -0.3342 0.0000 40.0078 0.0000 -5.7602
# 5 5.7602 -5.7602 0.0000 0.0000 40.0078 0.3342
# 6 0.0000 0.0000 0.0000 -5.7602 0.3342 31.2862
#
#
#
# Elastic Compliance Matrix: (Units=1/GPa)
#
#
# Indices 1 2 3 4 5 6 
#
# 1 0.013099 -0.003319 -0.004614 -0.000137 -0.002364 0.000000
# 2 -0.003319 0.013099 -0.004614 0.000137 0.002364 0.000000
# 3 -0.004614 -0.004614 0.014805 0.000000 0.000000 0.000000
# 4 -0.000137 0.000137 0.000000 0.025678 0.000000 0.004728
# 5 -0.002364 0.002364 0.000000 0.000000 0.025678 -0.000274
# 6 0.000000 0.000000 0.000000 0.004728 -0.000274 0.032836
#
#
# Mechanical properties :
#
#
# Convention : Reuss Voigt Hill
#
# Bulk Modulus (GPa) = 62.86031 62.88335 62.87183
# Shear Modulus (GPa) = 32.13487 33.70549 32.92018
#
# Velocity S-wave (km/s) = 3.88537 3.97919 3.93256
# Velocity P-wave (km/s) = 7.04686 7.11708 7.08205
#
# Compressibility (1/GPa) = 0.01590829
#
# Stress axis : x y z
#
# Youngs Moduli (GPa) = 76.34057 76.34057 67.54380
#
# Poissons Ratio (x) = 0.25337 0.31167
# Poissons Ratio (y) = 0.25337 0.31167
# Poissons Ratio (z) = 0.35226 0.35226
#
# Static dielectric constant tensor:
#      x y z
#    x 3.745940 0.000000 0.000000 
#    y 0.000000 3.745940 0.000000 
#    z 0.000000 0.000000 4.158850 
# 
# 
# High freq. dielectric constant tensor:
#      x y z
#    x 1.823660 0.000000 0.000000 
#    y 0.000000 1.823660 0.000000 
#    z 0.000000 0.000000 1.854630 
# 
# From -- ./inp_files/584.got.cif
#   From: 2010.03.12/outbox.cif.g09.slc.cpg/sg144_cif.got.tgz:584.got - 2010.04.03 13:34:42.
