data_PCOD8321300
_publ_section_title
;
Structure prediction by ZEFSAII (Michael W. Deem and Ramdas Pophale) SiO2 
 PCOD8321300
Probable space group: I 41/A C D
;
_chemical_formula_sum "Si O2"
_cell_formula_units_Z 112
_cell_length_a 14.431462
_cell_length_b 14.431462
_cell_length_c 18.996949
_cell_angle_alpha 90.000000
_cell_angle_beta 90.000000
_cell_angle_gamma 90.000000
_cell_volume 3956.439391
_symmetry_space_group_name_H-M "I 41/A C D"
_symmetry_group_IT_number 142
_space_group.IT_coordinate_system_code '2'
_symmetry_cell_setting 'tetragonal'
loop_
_space_group_symop_operation_xyz
x,y,z
1/4-y,3/4+x,1/4+z
-x,1/2-y,z
1/4+y,1/4-x,3/4+z
x,-y,1/2-z
1/2-x,y,-z
3/4+y,1/4+x,1/4-z
1/4-y,1/4-x,1/4-z
-x,-y,-z
3/4+y,1/4-x,3/4-z
x,1/2+y,-z
3/4-y,3/4+x,1/4-z
-x,y,1/2+z
1/2+x,-y,z
1/4-y,3/4-x,3/4+z
3/4+y,3/4+x,3/4+z
1/2+x,1/2+y,1/2+z
3/4-y,1/4+x,3/4+z
1/2-x,-y,1/2+z
3/4+y,3/4-x,1/4+z
1/2+x,1/2-y,-z
-x,1/2+y,1/2-z
1/4+y,3/4+x,3/4-z
3/4-y,3/4-x,3/4-z
1/2-x,1/2-y,1/2-z
1/4+y,3/4-x,1/4-z
1/2+x,y,1/2-z
1/4-y,1/4+x,3/4-z
1/2-x,1/2+y,z
x,1/2-y,1/2+z
3/4-y,1/4-x,1/4+z
1/4+y,1/4+x,1/4+z
loop_
_atom_site_type_symbol
_atom_site_label
_atom_site_fract_x
_atom_site_fract_y
_atom_site_fract_z
Si Si1 0.319098 0.312076 0.914444
Si Si2 0.229717 0.000000 0.750000
Si Si3 0.387603 0.862268 0.542130
Si Si4 0.511295 0.612598 0.407238
O O1 0.416251 0.333750 0.875000
O O2 0.287119 0.412887 0.939740
O O3 0.246142 0.265858 0.859489
O O4 0.095967 0.162793 0.865872
O O5 0.294956 0.920868 0.718504
O O6 0.406165 0.843836 0.625000
O O7 0.477143 0.870538 0.491353
O O8 0.335624 0.764148 0.522793
#
# Coordination Sequence:
#
# PCOD8321300 Si02
#       4
#    32  16  32  32
#     4  12  27  49  82 118 164 218 280 347 422 517
#     4  12  24  50  76 118 160 220 274 340 420 514
#     4  12  29  50  82 122 166 214 284 353 425 513
#     4  11  26  52  82 117 165 225 277 351 427 508
#
# _framework density 28.308281999999998
#
# number of rings (size 3 to 8) (size 9 to 14) (size 15 to 20)
#    0.000    0.286    2.857    5.143    4.000    8.571 
#    0.000    0.000    0.000    0.000    0.000    0.000 
#    0.000    0.000    0.000    0.000    0.000    0.000 
#
# Total GULP energy -694132.688405 kJ/mol
# GULP energy per Si atom -12395.226579 kJ/mol
# Density = 2.824385 g / cm^3
# Si number density = 28.308282 Si / 1000 Ang^3
#
#
#
# Elastic Constant Matrix: (Units=GPa)
#
#
# Indices 1 2 3 4 5 6 
#
# 1 98.2729 -13.6133 -3.2124 0.0000 0.0000 0.0000
# 2 -13.6133 98.2751 -3.2117 0.0000 0.0000 0.0000
# 3 -3.2124 -3.2117 120.5232 0.0000 0.0000 0.0000
# 4 0.0000 0.0000 0.0000 48.0006 0.0000 0.0000
# 5 0.0000 0.0000 0.0000 0.0000 47.9998 0.0000
# 6 0.0000 0.0000 0.0000 0.0000 0.0000 35.2983
#
#
#
# Elastic Compliance Matrix: (Units=1/GPa)
#
#
# Indices 1 2 3 4 5 6 
#
# 1 0.010387 0.001449 0.000315 0.000000 0.000000 0.000000
# 2 0.001449 0.010387 0.000315 0.000000 0.000000 0.000000
# 3 0.000315 0.000315 0.008314 0.000000 0.000000 0.000000
# 4 0.000000 0.000000 0.000000 0.020833 0.000000 0.000000
# 5 0.000000 0.000000 0.000000 0.000000 0.020833 0.000000
# 6 0.000000 0.000000 0.000000 0.000000 0.000000 0.028330
#
#
# Mechanical properties :
#
#
# Convention : Reuss Voigt Hill
#
# Bulk Modulus (GPa) = 30.07765 30.77739 30.42752
# Shear Modulus (GPa) = 47.16702 48.73364 47.95033
#
# Velocity S-wave (km/s) = 4.08633 4.15364 4.12012
# Velocity P-wave (km/s) = 5.73692 5.82232 5.77978
#
# Compressibility (1/GPa) = 0.03324728
#
# Stress axis : x y z
#
# Youngs Moduli (GPa) = 96.27605 96.27828 120.27949
#
# Poissons Ratio (x) = -0.13952 -0.03794
# Poissons Ratio (y) = -0.13951 -0.03794
# Poissons Ratio (z) = -0.03037 -0.03037
#
# Static dielectric constant tensor:
#      x y z
#    x 5.556600 0.000000 0.000000 
#    y 0.000000 5.556580 0.000000 
#    z 0.000000 0.000000 5.262810 
# 
# 
# High freq. dielectric constant tensor:
#      x y z
#    x 2.162790 0.000000 0.000000 
#    y 0.000000 2.162790 0.000000 
#    z 0.000000 0.000000 2.144600 
# 
# From -- ./inp_files/11108.got.cif
#   From: 2010.03.12/outbox.cif.g09.slc.cpg/sg142_6_cif.got.tgz:11108.got - 2010.04.03 13:27:16.
