data_PCOD8321640
_publ_section_title
;
Structure prediction by ZEFSAII (Michael W. Deem and Ramdas Pophale) SiO2 
 PCOD8321640
Probable space group: P -3
;
_chemical_formula_sum "Si O2"
_cell_formula_units_Z 34
_cell_length_a 14.386281
_cell_length_b 14.386281
_cell_length_c 7.541800
_cell_angle_alpha 90.000000
_cell_angle_beta 90.000000
_cell_angle_gamma 120.000000
_cell_volume 1351.769741
_symmetry_space_group_name_H-M "P -3"
_symmetry_group_IT_number 147
_symmetry_cell_setting 'hexagonal'
loop_
_space_group_symop_operation_xyz
x,y,z
-y,x-y,z
-x+y,-x,z
-x,-y,-z
y,-x+y,-z
x-y,x,-z
loop_
_atom_site_type_symbol
_atom_site_label
_atom_site_fract_x
_atom_site_fract_y
_atom_site_fract_z
Si Si1 0.209209 0.096426 0.590647
Si Si2 0.666668 0.333335 0.123563
Si Si3 0.509848 0.630818 0.832360
Si Si4 0.388262 0.021551 0.155228
Si Si5 0.566836 0.725476 0.445413
Si Si6 0.333335 0.666668 0.455955
Si Si7 0.047805 0.850020 0.902318
O O1 0.183465 0.151521 0.422270
O O2 0.338880 0.150527 0.585340
O O3 0.157311 0.123345 0.753862
O O4 0.550028 0.313984 0.064870
O O5 0.666668 0.333334 0.335527
O O6 0.410192 0.510882 0.794348
O O7 0.564173 0.686912 0.647392
O O8 0.594786 0.627386 0.962752
O O9 0.344401 0.938327 0.314747
O O10 0.322728 0.086192 0.138511
O O11 0.454642 0.715206 0.385117
O O12 0.967819 0.815570 0.075866
#
# Coordination Sequence:
#
# PCOD8321640 Si02
#       7
#     6   2   6   6   6   2   6
#     4  11  25  43  68 101 128 175 223 270 335 400
#     4   9  21  37  65  91 127 176 202 265 323 382
#     4  10  22  40  63  92 133 166 217 261 320 381
#     4  10  24  40  63  97 120 175 215 264 323 389
#     4  10  23  42  66  95 134 175 213 274 323 387
#     4   9  21  43  65  97 133 173 223 262 329 394
#     4  11  25  43  66  91 131 168 213 276 333 386
#
# _framework density 25.152214000000001
#
# number of rings (size 3 to 8) (size 9 to 14) (size 15 to 20)
#    0.000    1.765    0.000    1.941    7.412    9.882 
#    6.353    0.000    0.000    0.000    0.000    0.000 
#    0.000    0.000    0.000    0.000    0.000    0.000 
#
# Total GULP energy -421369.444621 kJ/mol
# GULP energy per Si atom -12393.218959 kJ/mol
# Density = 2.509497 g / cm^3
# Si number density = 25.152214 Si / 1000 Ang^3
#
#
#
# Elastic Constant Matrix: (Units=GPa)
#
#
# Indices 1 2 3 4 5 6 
#
# 1 59.6064 11.9521 -22.6195 -4.5301 -9.3766 0.0009
# 2 11.9521 59.6077 -22.6210 4.5287 9.3766 -0.0002
# 3 -22.6195 -22.6210 56.7803 0.0001 0.0000 0.0004
# 4 -4.5301 4.5287 0.0001 15.5217 -0.0001 9.3768
# 5 -9.3766 9.3766 0.0000 -0.0001 15.5220 -4.5289
# 6 0.0009 -0.0002 0.0004 9.3768 -4.5289 23.8278
#
#
#
# Elastic Compliance Matrix: (Units=1/GPa)
#
#
# Indices 1 2 3 4 5 6 
#
# 1 0.024184 -0.005505 0.007441 0.008666 0.017934 -0.000003
# 2 -0.005505 0.024184 0.007442 -0.008663 -0.017934 0.000001
# 3 0.007441 0.007442 0.023541 0.000001 -0.000001 -0.000001
# 4 0.008666 -0.008663 0.000001 0.091153 0.000003 -0.035870
# 5 0.017934 -0.017934 -0.000001 0.000003 0.091146 0.017322
# 6 -0.000003 0.000001 -0.000001 -0.035870 0.017322 0.059376
#
#
# Mechanical properties :
#
#
# Convention : Reuss Voigt Hill
#
# Bulk Modulus (GPa) = 11.02973 12.15753 11.59363
# Shear Modulus (GPa) = 15.38232 24.92649 20.15441
#
# Velocity S-wave (km/s) = 2.47568 3.15147 2.83379
# Velocity P-wave (km/s) = 3.54495 4.25282 3.91491
#
# Compressibility (1/GPa) = 0.09066404
#
# Stress axis : x y z
#
# Youngs Moduli (GPa) = 41.34954 41.35046 42.47955
#
# Poissons Ratio (x) = 0.22763 -0.31609
# Poissons Ratio (y) = 0.22762 -0.31612
# Poissons Ratio (z) = -0.30769 -0.30771
#
# Static dielectric constant tensor:
#      x y z
#    x 4.850910 0.000000 0.000000 
#    y 0.000000 4.850930 0.000000 
#    z 0.000000 0.000000 4.895640 
# 
# 
# High freq. dielectric constant tensor:
#      x y z
#    x 2.003030 0.000000 0.000000 
#    y 0.000000 2.003030 0.000000 
#    z 0.000000 0.000000 2.009980 
# 
# From -- ./inp_files/573.got.cif
#   From: 2010.03.12/outbox.cif.g09.slc.cpg/sg147_cif.got.tgz:573.got - 2010.04.03 13:37:56.
