data_PCOD8321150
_publ_section_title
;
Structure prediction by ZEFSAII (Michael W. Deem and Ramdas Pophale) SiO2 
 PCOD8321150
Probable space group: I 41/A C D
;
_chemical_formula_sum "Si O2"
_cell_formula_units_Z 144
_cell_length_a 26.694706
_cell_length_b 26.694706
_cell_length_c 9.714308
_cell_angle_alpha 90.000000
_cell_angle_beta 90.000000
_cell_angle_gamma 90.000000
_cell_volume 6922.487071
_symmetry_space_group_name_H-M "I 41/A C D"
_symmetry_group_IT_number 142
_space_group.IT_coordinate_system_code '2'
_symmetry_cell_setting 'tetragonal'
loop_
_space_group_symop_operation_xyz
x,y,z
1/4-y,3/4+x,1/4+z
-x,1/2-y,z
1/4+y,1/4-x,3/4+z
x,-y,1/2-z
1/2-x,y,-z
3/4+y,1/4+x,1/4-z
1/4-y,1/4-x,1/4-z
-x,-y,-z
3/4+y,1/4-x,3/4-z
x,1/2+y,-z
3/4-y,3/4+x,1/4-z
-x,y,1/2+z
1/2+x,-y,z
1/4-y,3/4-x,3/4+z
3/4+y,3/4+x,3/4+z
1/2+x,1/2+y,1/2+z
3/4-y,1/4+x,3/4+z
1/2-x,-y,1/2+z
3/4+y,3/4-x,1/4+z
1/2+x,1/2-y,-z
-x,1/2+y,1/2-z
1/4+y,3/4+x,3/4-z
3/4-y,3/4-x,3/4-z
1/2-x,1/2-y,1/2-z
1/4+y,3/4-x,1/4-z
1/2+x,y,1/2-z
1/4-y,1/4+x,3/4-z
1/2-x,1/2+y,z
x,1/2-y,1/2+z
3/4-y,1/4-x,1/4+z
1/4+y,1/4+x,1/4+z
loop_
_atom_site_type_symbol
_atom_site_label
_atom_site_fract_x
_atom_site_fract_y
_atom_site_fract_z
Si Si1 0.750000 0.554320 0.500000
Si Si2 0.344784 0.094784 0.375000
Si Si3 0.942059 0.569028 0.575821
Si Si4 0.841946 0.374151 0.910392
Si Si5 0.808234 0.772270 0.966196
Si Si6 0.250000 0.134643 0.500000
O O1 0.730417 0.519584 0.625000
O O2 0.796065 0.588838 0.552004
O O3 0.386501 0.096616 0.495074
O O4 0.293834 0.097434 0.459627
O O5 0.895959 0.605296 0.539504
O O6 0.980056 0.564274 0.448642
O O7 0.918641 0.514983 0.618364
O O8 0.974615 0.585312 0.710826
O O9 0.835122 0.322019 0.983919
O O10 0.750000 0.773729 0.000000
#
# Coordination Sequence:
#
# PCOD8321150 Si02
#       6
#    16  16  32  32  32  16
#     4  12  28  42  62  90 130 188 221 265 324 398
#     4  10  24  38  60  88 132 171 222 284 310 384
#     4  11  25  41  63  97 129 164 227 278 329 397
#     4  11  26  44  65  92 136 173 227 270 337 402
#     4  12  23  41  69  92 127 176 218 273 340 398
#     4  10  22  40  56  90 130 172 221 275 326 390
#
# _framework density 20.801772
#
# number of rings (size 3 to 8) (size 9 to 14) (size 15 to 20)
#    0.000    0.889    2.222    4.000   14.000    0.889 
#    0.000    0.000    0.000    0.667    0.000    3.111 
#    0.000    0.000    0.000    0.000    0.000    0.000 
#
# Total GULP energy -892196.931771 kJ/mol
# GULP energy per Si atom -12391.624052 kJ/mol
# Density = 2.075443 g / cm^3
# Si number density = 20.801772 Si / 1000 Ang^3
#
#
#
# Elastic Constant Matrix: (Units=GPa)
#
#
# Indices 1 2 3 4 5 6 
#
# 1 86.7658 40.3731 25.6478 0.0000 0.0000 0.0000
# 2 40.3731 86.7660 25.6481 0.0000 0.0000 0.0000
# 3 25.6478 25.6481 132.1144 0.0000 0.0000 0.0000
# 4 0.0000 0.0000 0.0000 33.7823 0.0000 0.0000
# 5 0.0000 0.0000 0.0000 0.0000 33.7825 0.0000
# 6 0.0000 0.0000 0.0000 0.0000 0.0000 10.7445
#
#
#
# Elastic Compliance Matrix: (Units=1/GPa)
#
#
# Indices 1 2 3 4 5 6 
#
# 1 0.015044 -0.006511 -0.001657 0.000000 0.000000 0.000000
# 2 -0.006511 0.015044 -0.001657 0.000000 0.000000 0.000000
# 3 -0.001657 -0.001657 0.008212 0.000000 0.000000 0.000000
# 4 0.000000 0.000000 0.000000 0.029601 0.000000 0.000000
# 5 0.000000 0.000000 0.000000 0.000000 0.029601 0.000000
# 6 0.000000 0.000000 0.000000 0.000000 0.000000 0.093071
#
#
# Mechanical properties :
#
#
# Convention : Reuss Voigt Hill
#
# Bulk Modulus (GPa) = 53.60993 54.33158 53.97075
# Shear Modulus (GPa) = 23.10105 29.92701 26.51403
#
# Velocity S-wave (km/s) = 3.33608 3.79710 3.57403
# Velocity P-wave (km/s) = 6.37707 6.73791 6.55997
#
# Compressibility (1/GPa) = 0.01865326
#
# Stress axis : x y z
#
# Youngs Moduli (GPa) = 66.46962 66.46973 121.76639
#
# Poissons Ratio (x) = 0.43276 0.20173
# Poissons Ratio (y) = 0.43276 0.20173
# Poissons Ratio (z) = 0.11012 0.11012
#
# Static dielectric constant tensor:
#      x y z
#    x 3.771460 0.000000 0.000000 
#    y 0.000000 3.771460 0.000000 
#    z 0.000000 0.000000 4.419300 
# 
# 
# High freq. dielectric constant tensor:
#      x y z
#    x 1.794290 0.000000 0.000000 
#    y 0.000000 1.794290 0.000000 
#    z 0.000000 0.000000 1.844580 
# 
# From -- ./inp_files/2191.got.cif
#   From: 2010.03.12/outbox.cif.g09.slc.cpg/sg142_2_cif.got.tgz:2191.got - 2010.04.03 13:27:16.
