data_PCOD8321227
_publ_section_title
;
Structure prediction by ZEFSAII (Michael W. Deem and Ramdas Pophale) SiO2 
 PCOD8321227
Probable space group: I 41/A C D
;
_chemical_formula_sum "Si O2"
_cell_formula_units_Z 160
_cell_length_a 19.012385
_cell_length_b 19.012385
_cell_length_c 20.577745
_cell_angle_alpha 90.000000
_cell_angle_beta 90.000000
_cell_angle_gamma 90.000000
_cell_volume 7438.253606
_symmetry_space_group_name_H-M "I 41/A C D"
_symmetry_group_IT_number 142
_space_group.IT_coordinate_system_code '2'
_symmetry_cell_setting 'tetragonal'
loop_
_space_group_symop_operation_xyz
x,y,z
1/4-y,3/4+x,1/4+z
-x,1/2-y,z
1/4+y,1/4-x,3/4+z
x,-y,1/2-z
1/2-x,y,-z
3/4+y,1/4+x,1/4-z
1/4-y,1/4-x,1/4-z
-x,-y,-z
3/4+y,1/4-x,3/4-z
x,1/2+y,-z
3/4-y,3/4+x,1/4-z
-x,y,1/2+z
1/2+x,-y,z
1/4-y,3/4-x,3/4+z
3/4+y,3/4+x,3/4+z
1/2+x,1/2+y,1/2+z
3/4-y,1/4+x,3/4+z
1/2-x,-y,1/2+z
3/4+y,3/4-x,1/4+z
1/2+x,1/2-y,-z
-x,1/2+y,1/2-z
1/4+y,3/4+x,3/4-z
3/4-y,3/4-x,3/4-z
1/2-x,1/2-y,1/2-z
1/4+y,3/4-x,1/4-z
1/2+x,y,1/2-z
1/4-y,1/4+x,3/4-z
1/2-x,1/2+y,z
x,1/2-y,1/2+z
3/4-y,1/4-x,1/4+z
1/4+y,1/4+x,1/4+z
loop_
_atom_site_type_symbol
_atom_site_label
_atom_site_fract_x
_atom_site_fract_y
_atom_site_fract_z
Si Si1 0.579502 0.088574 0.500480
Si Si2 0.812526 0.815784 0.047615
Si Si3 0.578717 0.828717 0.125000
Si Si4 0.914966 0.835035 0.375000
Si Si5 0.432277 0.060205 0.555996
Si Si6 0.667109 0.336329 0.503152
O O1 0.631747 0.120080 0.554926
O O2 0.607662 0.134618 0.439396
O O3 0.499376 0.099786 0.523901
O O4 0.590586 0.006380 0.487316
O O5 0.784312 0.800336 0.120728
O O6 0.750000 0.838673 0.000000
O O7 0.848826 0.744715 0.020297
O O8 0.497358 0.848625 0.119946
O O9 0.888785 0.879289 0.313279
O O10 0.367622 0.114687 0.558125
O O11 0.750000 0.350185 0.500000
#
# Coordination Sequence:
#
# PCOD8321227 Si02
#       6
#    32  32  16  16  32  32
#     4  11  23  41  68  96 131 174 228 276 337 408
#     4  11  24  43  66  96 131 176 229 281 341 405
#     4  11  20  40  69  98 126 172 231 282 318 403
#     4  11  22  40  69  96 134 174 229 274 334 405
#     4  11  25  42  64  98 138 176 216 287 347 401
#     4  11  25  43  66  98 136 179 221 278 348 417
#
# _framework density 21.510427
#
# number of rings (size 3 to 8) (size 9 to 14) (size 15 to 20)
#    0.000    1.000    4.000    2.400    2.800    3.200 
#    0.000    3.000    0.000    0.000    0.000    0.000 
#    0.000    0.000    0.000    0.000    0.000    0.000 
#
# Total GULP energy -991821.874665 kJ/mol
# GULP energy per Si atom -12397.773433 kJ/mol
# Density = 2.146147 g / cm^3
# Si number density = 21.510427 Si / 1000 Ang^3
#
#
#
# Elastic Constant Matrix: (Units=GPa)
#
#
# Indices 1 2 3 4 5 6 
#
# 1 137.1443 46.0989 29.5969 0.0000 0.0000 0.0000
# 2 46.0989 137.1473 29.5998 0.0000 0.0000 0.0000
# 3 29.5969 29.5998 109.3182 0.0000 0.0000 0.0000
# 4 0.0000 0.0000 0.0000 31.0351 0.0000 0.0000
# 5 0.0000 0.0000 0.0000 0.0000 31.0356 0.0000
# 6 0.0000 0.0000 0.0000 0.0000 0.0000 37.2665
#
#
#
# Elastic Compliance Matrix: (Units=1/GPa)
#
#
# Indices 1 2 3 4 5 6 
#
# 1 0.008482 -0.002502 -0.001619 0.000000 0.000000 0.000000
# 2 -0.002502 0.008482 -0.001619 0.000000 0.000000 0.000000
# 3 -0.001619 -0.001619 0.010024 0.000000 0.000000 0.000000
# 4 0.000000 0.000000 0.000000 0.032222 0.000000 0.000000
# 5 0.000000 0.000000 0.000000 0.000000 0.032221 0.000000
# 6 0.000000 0.000000 0.000000 0.000000 0.000000 0.026834
#
#
# Mechanical properties :
#
#
# Convention : Reuss Voigt Hill
#
# Bulk Modulus (GPa) = 64.48200 66.02233 65.25217
# Shear Modulus (GPa) = 37.06074 38.42172 37.74123
#
# Velocity S-wave (km/s) = 4.15531 4.23092 4.19329
# Velocity P-wave (km/s) = 7.28453 7.39103 7.33797
#
# Compressibility (1/GPa) = 0.01550820
#
# Stress axis : x y z
#
# Youngs Moduli (GPa) = 117.89883 117.90016 99.75655
#
# Poissons Ratio (x) = 0.29493 0.16151
# Poissons Ratio (y) = 0.29493 0.16154
# Poissons Ratio (z) = 0.19088 0.19092
#
# Static dielectric constant tensor:
#      x y z
#    x 3.748640 0.000000 0.000000 
#    y 0.000000 3.748660 0.000000 
#    z 0.000000 0.000000 3.984680 
# 
# 
# High freq. dielectric constant tensor:
#      x y z
#    x 1.837690 0.000000 0.000000 
#    y 0.000000 1.837690 0.000000 
#    z 0.000000 0.000000 1.855410 
# 
# From -- ./inp_files/7446.got.cif
#   From: 2010.03.12/outbox.cif.g09.slc.cpg/sg142_4_cif.got.tgz:7446.got - 2010.04.03 13:27:16.
