data_PCOD8321398
_publ_section_title
;
Structure prediction by ZEFSAII (Michael W. Deem and Ramdas Pophale) SiO2 
 PCOD8321398
Probable space group: P 31
;
_chemical_formula_sum "Si O2"
_cell_formula_units_Z 9
_cell_length_a 8.320095
_cell_length_b 8.320095
_cell_length_c 6.655850
_cell_angle_alpha 90.000000
_cell_angle_beta 90.000000
_cell_angle_gamma 120.000000
_cell_volume 399.016383
_symmetry_space_group_name_H-M "P 31"
_symmetry_group_IT_number 144
_symmetry_cell_setting 'hexagonal'
loop_
_space_group_symop_operation_xyz
x,y,z
-y,x-y,1/3+z
-x+y,-x,2/3+z
loop_
_atom_site_type_symbol
_atom_site_label
_atom_site_fract_x
_atom_site_fract_y
_atom_site_fract_z
Si Si1 0.172764 0.645846 0.089410
Si Si2 0.514375 0.208147 0.778456
Si Si3 0.015133 0.856123 0.306468
O O1 0.263773 0.550715 0.221775
O O2 0.967946 0.488847 0.018487
O O3 0.164478 0.802509 0.225124
O O4 0.645548 0.400804 0.665814
O O5 0.304606 0.167233 0.781756
O O6 0.119478 0.036949 0.442767
#
# Coordination Sequence:
#
# PCOD8321398 Si02
#       3
#     3   3   3
#     4  11  24  41  65  94 127 167 209 258 312 371
#     4  10  24  42  64  92 126 166 210 260 312 370
#     4  11  24  41  65  94 127 167 209 258 312 371
#
# _framework density 22.555465000000002
#
# number of rings (size 3 to 8) (size 9 to 14) (size 15 to 20)
#    0.000    1.333    0.000    4.000    0.000   24.000 
#    0.000    0.000    0.000    0.000    0.000    0.000 
#    0.000    0.000    0.000    0.000    0.000    0.000 
#
# Total GULP energy -111627.237060 kJ/mol
# GULP energy per Si atom -12403.026340 kJ/mol
# Density = 2.250413 g / cm^3
# Si number density = 22.555465 Si / 1000 Ang^3
#
#
#
# Elastic Constant Matrix: (Units=GPa)
#
#
# Indices 1 2 3 4 5 6 
#
# 1 84.7233 8.1325 8.5200 -5.5431 -3.5136 0.0000
# 2 8.1325 84.7233 8.5200 5.5431 3.5136 0.0000
# 3 8.5200 8.5200 27.1189 0.0000 0.0000 0.0000
# 4 -5.5431 5.5431 0.0000 38.0644 0.0000 3.5136
# 5 -3.5136 3.5136 0.0000 0.0000 38.0644 -5.5431
# 6 0.0000 0.0000 0.0000 3.5136 -5.5431 38.2954
#
#
#
# Elastic Compliance Matrix: (Units=1/GPa)
#
#
# Indices 1 2 3 4 5 6 
#
# 1 0.012441 -0.001013 -0.003590 0.001959 0.001242 0.000000
# 2 -0.001013 0.012441 -0.003590 -0.001959 -0.001242 0.000000
# 3 -0.003590 -0.003590 0.039131 0.000000 0.000000 0.000000
# 4 0.001959 -0.001959 0.000000 0.027071 0.000000 -0.002484
# 5 0.001242 -0.001242 0.000000 0.000000 0.027071 0.003918
# 6 0.000000 0.000000 0.000000 -0.002484 0.003918 0.026908
#
#
# Mechanical properties :
#
#
# Convention : Reuss Voigt Hill
#
# Bulk Modulus (GPa) = 20.99716 27.43450 24.21583
# Shear Modulus (GPa) = 28.19670 34.31106 31.25388
#
# Velocity S-wave (km/s) = 3.53952 3.90447 3.72646
# Velocity P-wave (km/s) = 5.10231 5.70228 5.41062
#
# Compressibility (1/GPa) = 0.04762549
#
# Stress axis : x y z
#
# Youngs Moduli (GPa) = 80.37872 80.37872 25.55536
#
# Poissons Ratio (x) = 0.08141 0.09176
# Poissons Ratio (y) = 0.08141 0.09176
# Poissons Ratio (z) = 0.28860 0.28860
#
# Static dielectric constant tensor:
#      x y z
#    x 4.240060 0.000000 0.000000 
#    y 0.000000 4.240060 0.000000 
#    z 0.000000 0.000000 3.673020 
# 
# 
# High freq. dielectric constant tensor:
#      x y z
#    x 1.902610 0.000000 0.000000 
#    y 0.000000 1.902610 0.000000 
#    z 0.000000 0.000000 1.872680 
# 
# From -- ./inp_files/34.got.cif
#   From: 2010.03.12/outbox.cif.g09.slc.cpg/sg144_cif.got.tgz:34.got - 2010.04.03 13:34:42.
