data_PCOD8321802
_publ_section_title
;
Structure prediction by ZEFSAII (Michael W. Deem and Ramdas Pophale) SiO2 
 PCOD8321802
Probable space group: R -3
;
_chemical_formula_sum "Si O2"
_cell_formula_units_Z 108
_cell_length_a 20.028733
_cell_length_b 20.028733
_cell_length_c 13.897289
_cell_angle_alpha 90.000000
_cell_angle_beta 90.000000
_cell_angle_gamma 120.000000
_cell_volume 4828.004595
_symmetry_space_group_name_H-M "R -3"
_symmetry_group_IT_number 148
_symmetry_cell_setting 'hexagonal'
loop_
_space_group_symop_operation_xyz
x,y,z
-y,x-y,z
-x+y,-x,z
-x,-y,-z
y,-x+y,-z
x-y,x,-z
2/3+x,1/3+y,1/3+z
2/3-y,1/3+x-y,1/3+z
2/3-x+y,1/3-x,1/3+z
2/3-x,1/3-y,1/3-z
2/3+y,1/3-x+y,1/3-z
2/3+x-y,1/3+x,1/3-z
1/3+x,2/3+y,2/3+z
1/3-y,2/3+x-y,2/3+z
1/3-x+y,2/3-x,2/3+z
1/3-x,2/3-y,2/3-z
1/3+y,2/3-x+y,2/3-z
1/3+x-y,2/3+x,2/3-z
loop_
_atom_site_type_symbol
_atom_site_label
_atom_site_fract_x
_atom_site_fract_y
_atom_site_fract_z
Si Si1 0.321639 0.464797 0.442210
Si Si2 0.293246 0.370781 0.261493
Si Si3 0.298931 0.065334 0.054615
Si Si4 0.732967 0.167589 0.477379
Si Si5 0.180282 0.512019 0.192591
Si Si6 0.399443 0.870025 0.392250
O O1 0.276518 0.397605 0.363812
O O2 0.384070 0.458561 0.508699
O O3 0.258041 0.466212 0.509771
O O4 0.377662 0.545693 0.387584
O O5 0.344604 0.333461 0.289451
O O6 0.215907 0.310321 0.205770
O O7 0.341696 0.445498 0.193760
O O8 0.370755 0.151931 0.049342
O O9 0.242965 0.057909 0.968218
O O10 0.649237 0.151341 0.509804
O O11 0.182320 0.588212 0.154364
O O12 0.164882 0.502746 0.306087
#
# Coordination Sequence:
#
# PCOD8321802 Si02
#       6
#    18  18  18  18  18  18
#     4  12  26  43  75  99 139 189 236 292 357 418
#     4  11  23  45  70 109 138 182 227 296 360 422
#     4  11  26  44  72 102 144 182 233 298 353 422
#     4  11  26  46  70 103 142 183 237 295 354 430
#     4  12  25  44  72 104 144 186 232 288 359 430
#     4  11  25  46  65 104 140 181 235 292 355 430
#
# _framework density 22.369491
#
# number of rings (size 3 to 8) (size 9 to 14) (size 15 to 20)
#    0.000    0.667    3.333    4.167    9.333    0.000 
#    1.000    0.000    0.000    1.000    0.000    0.000 
#    0.000    0.000    0.000    0.000    0.000    0.000 
#
# Total GULP energy -446508.138982 kJ/mol
# GULP energy per Si atom -12403.003861 kJ/mol
# Density = 2.231858 g / cm^3
# Si number density = 22.369491 Si / 1000 Ang^3
#
#
#
# Elastic Constant Matrix: (Units=GPa)
#
#
# Indices 1 2 3 4 5 6 
#
# 1 77.6646 22.3835 10.8622 -5.2230 -2.3741 0.0000
# 2 22.3835 77.6646 10.8622 5.2230 2.3741 0.0000
# 3 10.8622 10.8622 92.5065 0.0000 0.0000 0.0000
# 4 -5.2230 5.2230 0.0000 33.2486 0.0000 2.3741
# 5 -2.3741 2.3741 0.0000 0.0000 33.2486 -5.2230
# 6 0.0000 0.0000 0.0000 2.3741 -5.2230 27.6406
#
#
#
# Elastic Compliance Matrix: (Units=1/GPa)
#
#
# Indices 1 2 3 4 5 6 
#
# 1 0.014509 -0.004252 -0.001204 0.002947 0.001340 0.000000
# 2 -0.004252 0.014509 -0.001204 -0.002947 -0.001340 0.000000
# 3 -0.001204 -0.001204 0.011093 0.000000 0.000000 0.000000
# 4 0.002947 -0.002947 0.000000 0.031194 0.000000 -0.002679
# 5 0.001340 -0.001340 0.000000 0.000000 0.031194 0.005894
# 6 0.000000 0.000000 0.000000 -0.002679 0.005894 0.037523
#
#
# Mechanical properties :
#
#
# Convention : Reuss Voigt Hill
#
# Bulk Modulus (GPa) = 37.32891 37.33905 37.33398
# Shear Modulus (GPa) = 30.81236 32.40943 31.61090
#
# Velocity S-wave (km/s) = 3.71540 3.81047 3.76323
# Velocity P-wave (km/s) = 5.92699 6.00731 5.96729
#
# Compressibility (1/GPa) = 0.02678889
#
# Stress axis : x y z
#
# Youngs Moduli (GPa) = 68.92270 68.92270 90.14792
#
# Poissons Ratio (x) = 0.29308 0.10857
# Poissons Ratio (y) = 0.29308 0.10857
# Poissons Ratio (z) = 0.08301 0.08301
#
# Static dielectric constant tensor:
#      x y z
#    x 3.940570 0.000000 0.000000 
#    y 0.000000 3.940570 0.000000 
#    z 0.000000 0.000000 4.178670 
# 
# 
# High freq. dielectric constant tensor:
#      x y z
#    x 1.873890 0.000000 0.000000 
#    y 0.000000 1.873890 0.000000 
#    z 0.000000 0.000000 1.897460 
# 
# From -- ./inp_files/2067.got.cif
#   From: 2010.03.12/outbox.cif.g09.slc.cpg/sg148_2_cif.got.tgz:2067.got - 2010.04.03 13:38:46.
