data_PCOD8321705
_publ_section_title
;
Structure prediction by ZEFSAII (Michael W. Deem and Ramdas Pophale) SiO2 
 PCOD8321705
Probable space group: R -3
;
_chemical_formula_sum "Si O2"
_cell_formula_units_Z 108
_cell_length_a 18.710427
_cell_length_b 18.710427
_cell_length_c 15.951154
_cell_angle_alpha 90.000000
_cell_angle_beta 90.000000
_cell_angle_gamma 120.000000
_cell_volume 4836.042817
_symmetry_space_group_name_H-M "R -3"
_symmetry_group_IT_number 148
_symmetry_cell_setting 'hexagonal'
loop_
_space_group_symop_operation_xyz
x,y,z
-y,x-y,z
-x+y,-x,z
-x,-y,-z
y,-x+y,-z
x-y,x,-z
2/3+x,1/3+y,1/3+z
2/3-y,1/3+x-y,1/3+z
2/3-x+y,1/3-x,1/3+z
2/3-x,1/3-y,1/3-z
2/3+y,1/3-x+y,1/3-z
2/3+x-y,1/3+x,1/3-z
1/3+x,2/3+y,2/3+z
1/3-y,2/3+x-y,2/3+z
1/3-x+y,2/3-x,2/3+z
1/3-x,2/3-y,2/3-z
1/3+y,2/3-x+y,2/3-z
1/3+x-y,2/3+x,2/3-z
loop_
_atom_site_type_symbol
_atom_site_label
_atom_site_fract_x
_atom_site_fract_y
_atom_site_fract_z
Si Si1 0.644322 0.853692 0.051879
Si Si2 0.240874 0.285840 0.321345
Si Si3 0.560918 0.184126 0.103549
Si Si4 0.763172 0.850538 0.431620
Si Si5 0.960673 0.117807 0.324403
Si Si6 0.756394 0.498622 0.379320
O O1 0.647667 0.935855 0.014641
O O2 0.595404 0.831946 0.139265
O O3 0.587168 0.776068 0.991270
O O4 0.736037 0.869087 0.056270
O O5 0.192881 0.233226 0.238705
O O6 0.176019 0.254923 0.398642
O O7 0.277490 0.379713 0.294109
O O8 0.571830 0.210114 0.200677
O O9 0.634633 0.166072 0.078556
O O10 0.563498 0.252266 0.038336
O O11 0.857610 0.869503 0.414162
O O12 0.799462 0.471533 0.309121
#
# Coordination Sequence:
#
# PCOD8321705 Si02
#       6
#    18  18  18  18  18  18
#     4  11  23  41  63 103 133 167 226 278 333 399
#     4   9  20  37  62  89 133 172 208 260 342 389
#     4  10  20  44  62  94 131 176 215 282 324 399
#     4  10  19  39  63  94 133 176 207 265 336 400
#     4  10  22  38  71  97 130 175 227 266 342 401
#     4  12  27  47  69  94 132 180 236 283 338 402
#
# _framework density 22.332308000000001
#
# number of rings (size 3 to 8) (size 9 to 14) (size 15 to 20)
#    0.000    1.667    1.667    2.500    2.333    0.000 
#    0.000    8.333    0.000    0.000    0.000    0.000 
#    0.000    0.000    0.000    0.000    0.000    0.000 
#
# Total GULP energy -445978.936043 kJ/mol
# GULP energy per Si atom -12388.303779 kJ/mol
# Density = 2.228148 g / cm^3
# Si number density = 22.332308 Si / 1000 Ang^3
#
#
#
# Elastic Constant Matrix: (Units=GPa)
#
#
# Indices 1 2 3 4 5 6 
#
# 1 88.9329 27.0190 33.6103 -2.7930 -3.4807 0.0000
# 2 27.0190 88.9329 33.6103 2.7930 3.4807 0.0000
# 3 33.6103 33.6103 103.6907 0.0000 0.0000 0.0000
# 4 -2.7930 2.7930 0.0000 22.2897 0.0000 3.4807
# 5 -3.4807 3.4807 0.0000 0.0000 22.2897 -2.7930
# 6 0.0000 0.0000 0.0000 3.4807 -2.7930 30.9569
#
#
#
# Elastic Compliance Matrix: (Units=1/GPa)
#
#
# Indices 1 2 3 4 5 6 
#
# 1 0.013626 -0.003006 -0.003442 0.002084 0.002597 0.000000
# 2 -0.003006 0.013626 -0.003442 -0.002084 -0.002597 0.000000
# 3 -0.003442 -0.003442 0.011876 0.000000 0.000000 0.000000
# 4 0.002084 -0.002084 0.000000 0.046197 0.000000 -0.005194
# 5 0.002597 -0.002597 0.000000 0.000000 0.046197 0.004168
# 6 0.000000 0.000000 0.000000 -0.005194 0.004168 0.033263
#
#
# Mechanical properties :
#
#
# Convention : Reuss Voigt Hill
#
# Bulk Modulus (GPa) = 51.69000 52.22621 51.95810
# Shear Modulus (GPa) = 26.17611 27.59506 26.88559
#
# Velocity S-wave (km/s) = 3.42734 3.51900 3.47347
# Velocity P-wave (km/s) = 6.23364 6.32044 6.27719
#
# Compressibility (1/GPa) = 0.01934610
#
# Stress axis : x y z
#
# Youngs Moduli (GPa) = 73.39073 73.39073 84.20582
#
# Poissons Ratio (x) = 0.22060 0.28986
# Poissons Ratio (y) = 0.22060 0.28986
# Poissons Ratio (z) = 0.25264 0.25264
#
# Static dielectric constant tensor:
#      x y z
#    x 4.005050 0.000000 0.000000 
#    y 0.000000 4.005050 0.000000 
#    z 0.000000 0.000000 3.896110 
# 
# 
# High freq. dielectric constant tensor:
#      x y z
#    x 1.874670 0.000000 0.000000 
#    y 0.000000 1.874670 0.000000 
#    z 0.000000 0.000000 1.866400 
# 
# From -- ./inp_files/2047.got.cif
#   From: 2010.03.12/outbox.cif.g09.slc.cpg/sg148_2_cif.got.tgz:2047.got - 2010.04.03 13:38:46.
