data_PCOD8321004
_publ_section_title
;
Structure prediction by ZEFSAII (Michael W. Deem and Ramdas Pophale) SiO2 
 PCOD8321004
Probable space group: I 41/A C D
;
_chemical_formula_sum "Si O2"
_cell_formula_units_Z 160
_cell_length_a 18.245371
_cell_length_b 18.245371
_cell_length_c 25.530066
_cell_angle_alpha 90.000000
_cell_angle_beta 90.000000
_cell_angle_gamma 90.000000
_cell_volume 8498.794633
_symmetry_space_group_name_H-M "I 41/A C D"
_symmetry_group_IT_number 142
_space_group.IT_coordinate_system_code '2'
_symmetry_cell_setting 'tetragonal'
loop_
_space_group_symop_operation_xyz
x,y,z
1/4-y,3/4+x,1/4+z
-x,1/2-y,z
1/4+y,1/4-x,3/4+z
x,-y,1/2-z
1/2-x,y,-z
3/4+y,1/4+x,1/4-z
1/4-y,1/4-x,1/4-z
-x,-y,-z
3/4+y,1/4-x,3/4-z
x,1/2+y,-z
3/4-y,3/4+x,1/4-z
-x,y,1/2+z
1/2+x,-y,z
1/4-y,3/4-x,3/4+z
3/4+y,3/4+x,3/4+z
1/2+x,1/2+y,1/2+z
3/4-y,1/4+x,3/4+z
1/2-x,-y,1/2+z
3/4+y,3/4-x,1/4+z
1/2+x,1/2-y,-z
-x,1/2+y,1/2-z
1/4+y,3/4+x,3/4-z
3/4-y,3/4-x,3/4-z
1/2-x,1/2-y,1/2-z
1/4+y,3/4-x,1/4-z
1/2+x,y,1/2-z
1/4-y,1/4+x,3/4-z
1/2-x,1/2+y,z
x,1/2-y,1/2+z
3/4-y,1/4-x,1/4+z
1/4+y,1/4+x,1/4+z
loop_
_atom_site_type_symbol
_atom_site_label
_atom_site_fract_x
_atom_site_fract_y
_atom_site_fract_z
Si Si1 0.197501 0.934548 0.786008
Si Si2 0.831550 0.219284 0.253268
Si Si3 0.476305 0.141453 0.111532
Si Si4 0.003844 0.862236 0.395724
Si Si5 0.755034 0.658882 0.882009
O O1 0.170870 0.869051 0.748628
O O2 0.247103 0.897654 0.832108
O O3 0.128197 0.970275 0.814462
O O4 0.234409 0.000000 0.750000
O O5 0.750000 0.250000 0.250000
O O6 0.867809 0.242298 0.306479
O O7 0.884019 0.253888 0.208586
O O8 0.543096 0.168651 0.147874
O O9 0.437388 0.075945 0.141963
O O10 0.083787 0.833787 0.375000
O O11 0.942683 0.807318 0.375000
O O12 0.979946 0.943312 0.377295
#
# Coordination Sequence:
#
# PCOD8321004 Si02
#       5
#    32  32  32  32  32
#     4  10  19  35  65  88 112 160 205 245 301 364
#     4  11  20  39  65  85 121 162 199 250 313 362
#     4  11  24  40  63  88 124 163 200 247 311 369
#     4  10  19  35  63  89 116 153 204 248 298 358
#     4  10  19  41  60  89 123 156 203 253 300 362
#
# _framework density 18.826198000000002
#
# number of rings (size 3 to 8) (size 9 to 14) (size 15 to 20)
#    0.000    1.600    8.000    1.200    0.000    3.200 
#    3.600    2.000    0.000    0.000    0.000    0.000 
#    0.000    0.000    0.000    0.000    0.000    0.000 
#
# Total GULP energy -991293.894414 kJ/mol
# GULP energy per Si atom -12391.173680 kJ/mol
# Density = 1.878335 g / cm^3
# Si number density = 18.826198 Si / 1000 Ang^3
#
#
#
# Elastic Constant Matrix: (Units=GPa)
#
#
# Indices 1 2 3 4 5 6 
#
# 1 113.9497 69.3712 39.0624 0.0000 0.0000 0.0000
# 2 69.3712 113.9488 39.0629 0.0000 0.0000 0.0000
# 3 39.0624 39.0629 89.1632 0.0000 0.0000 0.0000
# 4 0.0000 0.0000 0.0000 25.8333 0.0000 0.0000
# 5 0.0000 0.0000 0.0000 0.0000 25.8332 0.0000
# 6 0.0000 0.0000 0.0000 0.0000 0.0000 26.7415
#
#
#
# Elastic Compliance Matrix: (Units=1/GPa)
#
#
# Indices 1 2 3 4 5 6 
#
# 1 0.014570 -0.007863 -0.002938 0.000000 0.000000 0.000000
# 2 -0.007863 0.014570 -0.002939 0.000000 0.000000 0.000000
# 3 -0.002938 -0.002939 0.013790 0.000000 0.000000 0.000000
# 4 0.000000 0.000000 0.000000 0.038710 0.000000 0.000000
# 5 0.000000 0.000000 0.000000 0.000000 0.038710 0.000000
# 6 0.000000 0.000000 0.000000 0.000000 0.000000 0.037395
#
#
# Mechanical properties :
#
#
# Convention : Reuss Voigt Hill
#
# Bulk Modulus (GPa) = 64.72200 68.00608 66.36404
# Shear Modulus (GPa) = 26.26411 26.98595 26.62503
#
# Velocity S-wave (km/s) = 3.73913 3.79017 3.76474
# Velocity P-wave (km/s) = 7.28662 7.44012 7.36377
#
# Compressibility (1/GPa) = 0.01545070
#
# Stress axis : x y z
#
# Youngs Moduli (GPa) = 68.63520 68.63423 72.51591
#
# Poissons Ratio (x) = 0.53965 0.21308
# Poissons Ratio (y) = 0.53966 0.21309
# Poissons Ratio (z) = 0.20167 0.20169
#
# Static dielectric constant tensor:
#      x y z
#    x 3.416760 0.000000 0.000000 
#    y 0.000000 3.416830 0.000000 
#    z 0.000000 0.000000 3.408250 
# 
# 
# High freq. dielectric constant tensor:
#      x y z
#    x 1.724140 0.000000 0.000000 
#    y 0.000000 1.724140 0.000000 
#    z 0.000000 0.000000 1.732700 
# 
# From -- ./inp_files/11302.got.cif
#   From: 2010.03.12/outbox.cif.g09.slc.cpg/sg142_6_cif.got.tgz:11302.got - 2010.04.03 13:27:16.
