data_PCOD8321835
_publ_section_title
;
Structure prediction by ZEFSAII (Michael W. Deem and Ramdas Pophale) SiO2 
 PCOD8321835
Probable space group: P 3 1 2
;
_chemical_formula_sum "Si O2"
_cell_formula_units_Z 32
_cell_length_a 16.000740
_cell_length_b 16.000740
_cell_length_c 7.442243
_cell_angle_alpha 90.000000
_cell_angle_beta 90.000000
_cell_angle_gamma 120.000000
_cell_volume 1650.116529
_symmetry_space_group_name_H-M "P 3 1 2"
_symmetry_group_IT_number 149
_symmetry_cell_setting 'hexagonal'
loop_
_space_group_symop_operation_xyz
x,y,z
-y,x-y,z
-x+y,-x,z
-y,-x,-z
-x+y,y,-z
x,x-y,-z
loop_
_atom_site_type_symbol
_atom_site_label
_atom_site_fract_x
_atom_site_fract_y
_atom_site_fract_z
Si Si1 0.054426 0.293246 0.508873
Si Si2 0.360390 0.504362 0.351695
Si Si3 0.710065 0.637394 0.201125
Si Si4 0.958568 0.468585 0.801277
Si Si5 0.363313 0.266770 0.216642
Si Si6 0.333334 0.666666 0.789339
O O1 0.122594 0.245188 0.500000
O O2 0.123508 0.403753 0.567825
O O3 0.006601 0.277141 0.311528
O O4 0.971662 0.242390 0.660589
O O5 0.439152 0.560849 0.500000
O O6 0.424773 0.495728 0.193085
O O7 0.307394 0.561629 0.283317
O O8 0.610928 0.548924 0.285425
O O9 0.795771 0.615729 0.237610
O O10 0.710381 0.656645 0.987365
O O11 0.902029 0.362207 0.708909
O O12 0.918170 0.459085 0.000000
O O13 0.333334 0.666667 0.000000
#
# Coordination Sequence:
#
# PCOD8321835 Si02
#       6
#     6   6   6   6   6   2
#     4  11  22  36  57  81 109 148 191 233 283 335
#     4  11  20  35  52  75 109 150 192 229 275 328
#     4  10  19  38  60  83 119 149 185 237 279 336
#     4   9  18  34  55  81 115 150 185 226 274 331
#     4   9  21  36  58  89 113 149 191 226 285 343
#     4  12  25  35  49  75 115 155 196 243 274 323
#
# _framework density 19.392569999999999
#
# number of rings (size 3 to 8) (size 9 to 14) (size 15 to 20)
#    0.000    1.875    1.875    2.812    0.000    0.750 
#    1.125    0.000    0.000    3.000    0.000    0.000 
#    0.000    0.000    0.000    0.000    0.000    0.000 
#
# Total GULP energy -396509.715340 kJ/mol
# GULP energy per Si atom -12390.928604 kJ/mol
# Density = 1.934843 g / cm^3
# Si number density = 19.392570 Si / 1000 Ang^3
#
#
#
# Elastic Constant Matrix: (Units=GPa)
#
#
# Indices 1 2 3 4 5 6 
#
# 1 83.5343 47.9122 26.0153 0.0003 1.1711 -0.0015
# 2 47.9122 83.5335 26.0158 -0.0001 -1.1707 0.0010
# 3 26.0153 26.0158 75.0800 -0.0002 -0.0002 0.0003
# 4 0.0003 -0.0001 -0.0002 20.7826 0.0003 -1.1714
# 5 1.1711 -1.1707 -0.0002 0.0003 20.7821 -0.0014
# 6 -0.0015 0.0010 0.0003 -1.1714 -0.0014 17.8112
#
#
#
# Elastic Compliance Matrix: (Units=1/GPa)
#
#
# Indices 1 2 3 4 5 6 
#
# 1 0.018497 -0.009680 -0.003055 0.000000 -0.001588 0.000002
# 2 -0.009680 0.018497 -0.003055 0.000000 0.001587 -0.000002
# 3 -0.003055 -0.003055 0.015436 0.000000 0.000000 0.000000
# 4 0.000000 0.000000 0.000000 0.048296 -0.000001 0.003176
# 5 -0.001588 0.001587 0.000000 -0.000001 0.048297 0.000004
# 6 0.000002 -0.000002 0.000000 0.003176 0.000004 0.056353
#
#
# Mechanical properties :
#
#
# Convention : Reuss Voigt Hill
#
# Bulk Modulus (GPa) = 47.96197 49.11493 48.53845
# Shear Modulus (GPa) = 20.49957 21.35551 20.92754
#
# Velocity S-wave (km/s) = 3.25481 3.32207 3.28861
# Velocity P-wave (km/s) = 6.23786 6.33218 6.28520
#
# Compressibility (1/GPa) = 0.02084985
#
# Stress axis : x y z
#
# Youngs Moduli (GPa) = 54.06306 54.06221 64.78217
#
# Poissons Ratio (x) = 0.52333 0.19791
# Poissons Ratio (y) = 0.52333 0.19793
# Poissons Ratio (z) = 0.16516 0.16517
#
# Static dielectric constant tensor:
#      x y z
#    x 4.104520 0.000070 0.000000 
#    y 0.000070 4.104570 0.000000 
#    z 0.000000 0.000000 3.633570 
# 
# 
# High freq. dielectric constant tensor:
#      x y z
#    x 1.741800 0.000000 0.000000 
#    y 0.000000 1.741800 0.000000 
#    z 0.000000 0.000000 1.759660 
# 
# From -- ./inp_files/589.got.cif
#   From: 2010.03.12/outbox.cif.g09.slc.cpg/sg149_cif.got.tgz:589.got - 2010.04.03 13:40:41.
