data_PCOD8321758
_publ_section_title
;
Structure prediction by ZEFSAII (Michael W. Deem and Ramdas Pophale) SiO2 
 PCOD8321758
Probable space group: R -3
;
_chemical_formula_sum "Si O2"
_cell_formula_units_Z 120
_cell_length_a 17.377228
_cell_length_b 17.377228
_cell_length_c 23.090282
_cell_angle_alpha 90.000000
_cell_angle_beta 90.000000
_cell_angle_gamma 120.000000
_cell_volume 6038.385942
_symmetry_space_group_name_H-M "R -3"
_symmetry_group_IT_number 148
_symmetry_cell_setting 'hexagonal'
loop_
_space_group_symop_operation_xyz
x,y,z
-y,x-y,z
-x+y,-x,z
-x,-y,-z
y,-x+y,-z
x-y,x,-z
2/3+x,1/3+y,1/3+z
2/3-y,1/3+x-y,1/3+z
2/3-x+y,1/3-x,1/3+z
2/3-x,1/3-y,1/3-z
2/3+y,1/3-x+y,1/3-z
2/3+x-y,1/3+x,1/3-z
1/3+x,2/3+y,2/3+z
1/3-y,2/3+x-y,2/3+z
1/3-x+y,2/3-x,2/3+z
1/3-x,2/3-y,2/3-z
1/3+y,2/3-x+y,2/3-z
1/3+x-y,2/3+x,2/3-z
loop_
_atom_site_type_symbol
_atom_site_label
_atom_site_fract_x
_atom_site_fract_y
_atom_site_fract_z
Si Si1 0.666668 0.333334 0.458613
Si Si2 0.520404 0.733800 0.354178
Si Si3 0.333334 0.666668 0.930329
Si Si4 0.367861 0.144309 0.742530
Si Si5 0.196851 0.667233 0.624300
Si Si6 0.761559 0.612643 0.976150
Si Si7 0.120836 0.919958 0.516258
Si Si8 0.703319 0.647452 0.357658
O O1 0.666668 0.333334 0.527525
O O2 0.754815 0.337704 0.433393
O O3 0.432787 0.731221 0.379135
O O4 0.546423 0.775229 0.289758
O O5 0.606892 0.801186 0.391732
O O6 0.502610 0.633561 0.354882
O O7 0.377424 0.166930 0.810118
O O8 0.368095 0.053858 0.730923
O O9 0.253272 0.751960 0.665117
O O10 0.113262 0.674575 0.601685
O O11 0.748161 0.567259 0.913969
O O12 0.722597 0.681495 0.974547
O O13 0.862950 0.652055 0.999115
O O14 0.015639 0.864046 0.510924
#
# Coordination Sequence:
#
# PCOD8321758 Si02
#       8
#     6  18   6  18  18  18  18  18
#     4   9  22  37  57  93 124 160 207 265 302 361
#     4  10  23  42  62  83 123 168 207 254 310 394
#     4  12  24  40  64  88 118 171 222 250 314 382
#     4  10  22  42  61  89 126 160 202 262 329 372
#     4   9  17  35  60  87 122 158 202 253 307 362
#     4  11  23  39  63  93 124 162 211 260 316 383
#     4  12  24  41  65  98 123 158 211 278 323 367
#     4  11  20  36  63  93 120 163 205 249 313 392
#
# _framework density 19.872859999999999
#
# number of rings (size 3 to 8) (size 9 to 14) (size 15 to 20)
#    0.000    1.500    4.500    1.650    0.000    1.200 
#    0.000    0.000    0.000    3.600    0.000    0.000 
#    0.000    0.000    0.000    0.000    0.000    0.000 
#
# Total GULP energy -495568.053716 kJ/mol
# GULP energy per Si atom -12389.201343 kJ/mol
# Density = 1.982763 g / cm^3
# Si number density = 19.872860 Si / 1000 Ang^3
#
#
#
# Elastic Constant Matrix: (Units=GPa)
#
#
# Indices 1 2 3 4 5 6 
#
# 1 105.5252 29.5431 24.9444 1.6640 1.2529 -0.0005
# 2 29.5431 105.5245 24.9444 -1.6640 -1.2531 -0.0003
# 3 24.9444 24.9444 63.5213 0.0000 -0.0003 -0.0003
# 4 1.6640 -1.6640 0.0000 20.5036 -0.0001 -1.2530
# 5 1.2529 -1.2531 -0.0003 -0.0001 20.5037 1.6641
# 6 -0.0005 -0.0003 -0.0003 -1.2530 1.6641 37.9906
#
#
#
# Elastic Compliance Matrix: (Units=1/GPa)
#
#
# Indices 1 2 3 4 5 6 
#
# 1 0.010947 -0.002288 -0.003401 -0.001074 -0.000809 0.000000
# 2 -0.002288 0.010947 -0.003401 0.001074 0.000809 0.000000
# 3 -0.003401 -0.003401 0.018414 0.000000 0.000000 0.000000
# 4 -0.001074 0.001074 0.000000 0.049045 0.000000 0.001618
# 5 -0.000809 0.000809 0.000000 0.000000 0.049045 -0.002148
# 6 0.000000 0.000000 0.000000 0.001618 -0.002148 0.026470
#
#
# Mechanical properties :
#
#
# Convention : Reuss Voigt Hill
#
# Bulk Modulus (GPa) = 45.18645 48.15944 46.67295
# Shear Modulus (GPa) = 26.25742 28.80883 27.53313
#
# Velocity S-wave (km/s) = 3.63887 3.81157 3.72622
# Velocity P-wave (km/s) = 6.35943 6.60735 6.48457
#
# Compressibility (1/GPa) = 0.02213053
#
# Stress axis : x y z
#
# Youngs Moduli (GPa) = 91.34738 91.34671 54.30784
#
# Poissons Ratio (x) = 0.20896 0.18468
# Poissons Ratio (y) = 0.20896 0.18468
# Poissons Ratio (z) = 0.31064 0.31064
#
# Static dielectric constant tensor:
#      x y z
#    x 3.926810 0.000000 0.000000 
#    y 0.000000 3.926800 0.000000 
#    z 0.000000 0.000000 3.297440 
# 
# 
# High freq. dielectric constant tensor:
#      x y z
#    x 1.791820 0.000000 0.000000 
#    y 0.000000 1.791820 0.000000 
#    z 0.000000 0.000000 1.731360 
# 
# From -- ./inp_files/3490.got.cif
#   From: 2010.03.12/outbox.cif.g09.slc.cpg/sg148_2_cif.got.tgz:3490.got - 2010.04.03 13:38:46.
