data_PCOD8321348
_publ_section_title
;
Structure prediction by ZEFSAII (Michael W. Deem and Ramdas Pophale) SiO2 
 PCOD8321348
Probable space group: P 31
;
_chemical_formula_sum "Si O2"
_cell_formula_units_Z 18
_cell_length_a 9.685073
_cell_length_b 9.685073
_cell_length_c 11.194307
_cell_angle_alpha 90.000000
_cell_angle_beta 90.000000
_cell_angle_gamma 120.000000
_cell_volume 909.355383
_symmetry_space_group_name_H-M "P 31"
_symmetry_group_IT_number 144
_symmetry_cell_setting 'hexagonal'
loop_
_space_group_symop_operation_xyz
x,y,z
-y,x-y,1/3+z
-x+y,-x,2/3+z
loop_
_atom_site_type_symbol
_atom_site_label
_atom_site_fract_x
_atom_site_fract_y
_atom_site_fract_z
Si Si1 0.239342 0.262518 0.274490
Si Si2 0.765555 0.267795 0.715037
Si Si3 0.860936 0.752399 0.703536
Si Si4 0.567776 0.168901 0.120500
Si Si5 0.310155 0.404148 0.894385
Si Si6 0.472397 0.558128 0.132005
O O1 0.350012 0.259346 0.382646
O O2 0.204721 0.132837 0.171386
O O3 0.328939 0.441313 0.220020
O O4 0.073896 0.218474 0.334074
O O5 0.824086 0.333334 0.584436
O O6 0.604393 0.271063 0.751100
O O7 0.901252 0.387440 0.807801
O O8 0.720770 0.567922 0.694404
O O9 0.004393 0.779039 0.615521
O O10 0.592677 0.016673 0.119560
O O11 0.188749 0.448188 0.834802
O O12 0.405215 0.533831 0.997489
#
# Coordination Sequence:
#
# PCOD8321348 Si02
#       6
#     3   3   3   3   3   3
#     4  10  22  39  63  86 126 160 202 254 308 361
#     4  10  18  40  61  81 115 162 198 242 299 359
#     4  10  21  40  59  88 123 158 199 257 301 356
#     4  10  18  40  61  81 115 162 198 242 299 359
#     4  10  22  39  63  86 126 160 202 254 308 361
#     4  10  21  40  59  88 123 158 199 257 301 356
#
# _framework density 19.794242000000001
#
# number of rings (size 3 to 8) (size 9 to 14) (size 15 to 20)
#    0.000    2.000    6.667    0.000    4.667    0.000 
#    6.000    5.000    0.000    0.000    0.000    0.000 
#    0.000    0.000    0.000    0.000    0.000    0.000 
#
# Total GULP energy -223084.696834 kJ/mol
# GULP energy per Si atom -12393.594269 kJ/mol
# Density = 1.974919 g / cm^3
# Si number density = 19.794242 Si / 1000 Ang^3
#
#
#
# Elastic Constant Matrix: (Units=GPa)
#
#
# Indices 1 2 3 4 5 6 
#
# 1 141.7803 64.3766 44.2234 -9.4705 -0.0002 0.0000
# 2 64.3766 141.7803 44.2234 9.4705 0.0002 0.0000
# 3 44.2234 44.2234 42.3769 0.0000 0.0000 0.0000
# 4 -9.4705 9.4705 0.0000 29.5042 0.0000 0.0002
# 5 -0.0002 0.0002 0.0000 0.0000 29.5042 -9.4705
# 6 0.0000 0.0000 0.0000 0.0002 -9.4705 38.7018
#
#
#
# Elastic Compliance Matrix: (Units=1/GPa)
#
#
# Indices 1 2 3 4 5 6 
#
# 1 0.011402 -0.002619 -0.009166 0.004500 0.000000 0.000000
# 2 -0.002619 0.011402 -0.009166 -0.004500 0.000000 0.000000
# 3 -0.009166 -0.009166 0.042728 0.000000 0.000000 0.000000
# 4 0.004500 -0.004500 0.000000 0.036783 0.000000 0.000000
# 5 0.000000 0.000000 0.000000 0.000000 0.036783 0.009001
# 6 0.000000 0.000000 0.000000 0.000000 0.009001 0.028041
#
#
# Mechanical properties :
#
#
# Convention : Reuss Voigt Hill
#
# Bulk Modulus (GPa) = 42.31706 70.17601 56.24654
# Shear Modulus (GPa) = 23.05046 31.08298 27.06672
#
# Velocity S-wave (km/s) = 3.41618 3.96701 3.70185
# Velocity P-wave (km/s) = 6.08155 7.51748 6.83732
#
# Compressibility (1/GPa) = 0.02363113
#
# Stress axis : x y z
#
# Youngs Moduli (GPa) = 87.70558 87.70558 23.40389
#
# Poissons Ratio (x) = 0.22968 0.21451
# Poissons Ratio (y) = 0.22968 0.21451
# Poissons Ratio (z) = 0.80388 0.80388
#
# Static dielectric constant tensor:
#      x y z
#    x 3.720790 0.000000 0.000000 
#    y 0.000000 3.720790 0.000000 
#    z 0.000000 0.000000 3.504820 
# 
# 
# High freq. dielectric constant tensor:
#      x y z
#    x 1.766100 0.000000 0.000000 
#    y 0.000000 1.766100 0.000000 
#    z 0.000000 0.000000 1.754710 
# 
# From -- ./inp_files/558.got.cif
#   From: 2010.03.12/outbox.cif.g09.slc.cpg/sg144_cif.got.tgz:558.got - 2010.04.03 13:34:42.
