data_PCOD8321444
_publ_section_title
;
Structure prediction by ZEFSAII (Michael W. Deem and Ramdas Pophale) SiO2 
 PCOD8321444
Probable space group: P 31
;
_chemical_formula_sum "Si O2"
_cell_formula_units_Z 18
_cell_length_a 11.730777
_cell_length_b 11.730777
_cell_length_c 6.879632
_cell_angle_alpha 90.000000
_cell_angle_beta 90.000000
_cell_angle_gamma 120.000000
_cell_volume 819.878311
_symmetry_space_group_name_H-M "P 31"
_symmetry_group_IT_number 144
_symmetry_cell_setting 'hexagonal'
loop_
_space_group_symop_operation_xyz
x,y,z
-y,x-y,1/3+z
-x+y,-x,2/3+z
loop_
_atom_site_type_symbol
_atom_site_label
_atom_site_fract_x
_atom_site_fract_y
_atom_site_fract_z
Si Si1 0.710937 0.446622 0.580100
Si Si2 0.947786 0.067810 0.613670
Si Si3 0.660589 0.788863 0.158681
Si Si4 0.698189 0.032047 0.406669
Si Si5 0.994573 0.476748 0.027634
Si Si6 0.438579 0.763758 0.901001
O O1 0.653600 0.396019 0.795811
O O2 0.839689 0.589882 0.603955
O O3 0.606767 0.457352 0.445427
O O4 0.031273 0.199498 0.734188
O O5 0.806503 0.051714 0.566862
O O6 0.017542 0.071587 0.410967
O O7 0.552495 0.742881 0.990047
O O8 0.662486 0.907559 0.273956
O O9 0.621713 0.668581 0.303608
O O10 0.565136 0.007616 0.508268
O O11 0.082977 0.575362 0.197206
O O12 0.395518 0.690742 0.697116
#
# Coordination Sequence:
#
# PCOD8321444 Si02
#       6
#     3   3   3   3   3   3
#     4  12  28  51  76 111 152 198 253 311 379 449
#     4  12  28  51  76 111 152 198 253 311 379 449
#     4  12  27  46  80 109 152 200 250 311 378 452
#     4  12  28  50  78 112 152 200 252 316 378 448
#     4  12  27  46  80 109 152 200 250 311 378 452
#     4  12  24  48  74 112 150 192 248 308 384 454
#
# _framework density 21.954476
#
# number of rings (size 3 to 8) (size 9 to 14) (size 15 to 20)
#    0.000    0.000    5.000    4.000   11.667    0.000 
#    0.000    0.000    0.000    0.000    0.000    0.000 
#    0.000    0.000    0.000    0.000    0.000    0.000 
#
# Total GULP energy -223362.998091 kJ/mol
# GULP energy per Si atom -12409.055449 kJ/mol
# Density = 2.190451 g / cm^3
# Si number density = 21.954476 Si / 1000 Ang^3
#
#
#
# Elastic Constant Matrix: (Units=GPa)
#
#
# Indices 1 2 3 4 5 6 
#
# 1 93.1370 21.5835 21.8050 0.4602 -5.8973 0.0000
# 2 21.5835 93.1370 21.8050 -0.4602 5.8973 0.0000
# 3 21.8050 21.8050 85.0602 0.0000 0.0000 0.0000
# 4 0.4602 -0.4602 0.0000 34.4331 0.0000 5.8973
# 5 -5.8973 5.8973 0.0000 0.0000 34.4331 0.4602
# 6 0.0000 0.0000 0.0000 5.8973 0.4602 35.7768
#
#
#
# Elastic Compliance Matrix: (Units=1/GPa)
#
#
# Indices 1 2 3 4 5 6 
#
# 1 0.012021 -0.002363 -0.002476 -0.000192 0.002464 0.000000
# 2 -0.002363 0.012021 -0.002476 0.000192 -0.002464 0.000000
# 3 -0.002476 -0.002476 0.013026 0.000000 0.000000 0.000000
# 4 -0.000192 0.000192 0.000000 0.029891 0.000000 -0.004927
# 5 0.002464 -0.002464 0.000000 0.000000 0.029891 -0.000384
# 6 0.000000 0.000000 0.000000 -0.004927 -0.000384 0.028768
#
#
# Mechanical properties :
#
#
# Convention : Reuss Voigt Hill
#
# Bulk Modulus (GPa) = 44.56632 44.63571 44.60101
# Shear Modulus (GPa) = 33.84635 34.67132 34.25883
#
# Velocity S-wave (km/s) = 3.93066 3.97827 3.95454
# Velocity P-wave (km/s) = 6.39872 6.44029 6.41954
#
# Compressibility (1/GPa) = 0.02243847
#
# Stress axis : x y z
#
# Youngs Moduli (GPa) = 83.18744 83.18744 76.77121
#
# Poissons Ratio (x) = 0.19658 0.19007
# Poissons Ratio (y) = 0.19658 0.19007
# Poissons Ratio (z) = 0.20596 0.20596
#
# Static dielectric constant tensor:
#      x y z
#    x 4.180700 0.000000 0.000000 
#    y 0.000000 4.180700 0.000000 
#    z 0.000000 0.000000 3.935690 
# 
# 
# High freq. dielectric constant tensor:
#      x y z
#    x 1.878490 0.000000 0.000000 
#    y 0.000000 1.878490 0.000000 
#    z 0.000000 0.000000 1.871150 
# 
# From -- ./inp_files/103.got.cif
#   From: 2010.03.12/outbox.cif.g09.slc.cpg/sg144_cif.got.tgz:103.got - 2010.04.03 13:34:42.
