data_PCOD8321369
_publ_section_title
;
Structure prediction by ZEFSAII (Michael W. Deem and Ramdas Pophale) SiO2 
 PCOD8321369
Probable space group: P 31
;
_chemical_formula_sum "Si O2"
_cell_formula_units_Z 21
_cell_length_a 11.934303
_cell_length_b 11.934303
_cell_length_c 7.827148
_cell_angle_alpha 90.000000
_cell_angle_beta 90.000000
_cell_angle_gamma 120.000000
_cell_volume 965.446689
_symmetry_space_group_name_H-M "P 31"
_symmetry_group_IT_number 144
_symmetry_cell_setting 'hexagonal'
loop_
_space_group_symop_operation_xyz
x,y,z
-y,x-y,1/3+z
-x+y,-x,2/3+z
loop_
_atom_site_type_symbol
_atom_site_label
_atom_site_fract_x
_atom_site_fract_y
_atom_site_fract_z
Si Si1 0.880465 0.234948 0.125000
Si Si2 0.067267 0.401463 0.387430
Si Si3 0.936567 0.019515 0.045446
Si Si4 0.972425 0.569387 0.550197
Si Si5 0.163828 0.350273 0.721988
Si Si6 0.277506 0.681282 0.935705
Si Si7 0.455727 0.987270 0.561769
O O1 0.920769 0.145346 0.016884
O O2 0.729393 0.155962 0.170704
O O3 0.966557 0.267217 0.297998
O O4 0.904527 0.366949 0.027638
O O5 0.167480 0.404825 0.531051
O O6 0.168449 0.491194 0.242572
O O7 0.975161 0.455545 0.448065
O O8 0.986745 0.017439 0.236577
O O9 0.801018 0.891713 0.023024
O O10 0.101216 0.702949 0.494760
O O11 0.961149 0.528340 0.750002
O O12 0.071616 0.382321 0.829999
O O13 0.303173 0.633590 0.752353
O O14 0.126879 0.595987 0.985697
#
# Coordination Sequence:
#
# PCOD8321369 Si02
#       7
#     3   3   3   3   3   3   3
#     4  11  24  43  64 100 140 183 237 289 348 444
#     4  11  22  41  66  96 131 180 230 292 353 419
#     4  11  22  40  66  97 134 183 228 284 349 422
#     4  10  24  43  66  98 139 181 235 293 358 430
#     4  10  21  40  65  97 132 171 224 292 351 418
#     4  12  22  36  68 106 138 169 224 297 370 421
#     4  11  21  41  67 100 138 179 228 297 359 422
#
# _framework density 21.751591000000001
#
# number of rings (size 3 to 8) (size 9 to 14) (size 15 to 20)
#    0.000    1.143    2.857    5.143    0.000    0.000 
#    2.571    2.857    0.000    0.000    0.000    0.000 
#    0.000    0.000    0.000    0.000    0.000    0.000 
#
# Total GULP energy -260179.703546 kJ/mol
# GULP energy per Si atom -12389.509693 kJ/mol
# Density = 2.170208 g / cm^3
# Si number density = 21.751591 Si / 1000 Ang^3
#
#
#
# Elastic Constant Matrix: (Units=GPa)
#
#
# Indices 1 2 3 4 5 6 
#
# 1 98.9614 38.8979 42.9610 0.3773 -3.6041 0.0000
# 2 38.8979 98.9614 42.9610 -0.3773 3.6041 0.0000
# 3 42.9610 42.9610 126.6936 0.0000 0.0000 0.0000
# 4 0.3773 -0.3773 0.0000 32.5983 0.0000 3.6041
# 5 -3.6041 3.6041 0.0000 0.0000 32.5983 0.3773
# 6 0.0000 0.0000 0.0000 3.6041 0.3773 30.0317
#
#
#
# Elastic Compliance Matrix: (Units=1/GPa)
#
#
# Indices 1 2 3 4 5 6 
#
# 1 0.013037 -0.003839 -0.003119 -0.000195 0.001866 0.000000
# 2 -0.003839 0.013037 -0.003119 0.000195 -0.001866 0.000000
# 3 -0.003119 -0.003119 0.010008 0.000000 0.000000 0.000000
# 4 -0.000195 0.000195 0.000000 0.031094 0.000000 -0.003732
# 5 0.001866 -0.001866 0.000000 0.000000 0.031094 -0.000391
# 6 0.000000 0.000000 0.000000 -0.003732 -0.000391 0.033751
#
#
# Mechanical properties :
#
#
# Convention : Reuss Voigt Hill
#
# Bulk Modulus (GPa) = 62.78230 63.80623 63.29427
# Shear Modulus (GPa) = 31.74972 32.36544 32.05758
#
# Velocity S-wave (km/s) = 3.82468 3.86159 3.84318
# Velocity P-wave (km/s) = 6.95918 7.01999 6.98965
#
# Compressibility (1/GPa) = 0.01592806
#
# Stress axis : x y z
#
# Youngs Moduli (GPa) = 76.70756 76.70756 99.91787
#
# Poissons Ratio (x) = 0.29447 0.31163
# Poissons Ratio (y) = 0.29447 0.31163
# Poissons Ratio (z) = 0.23924 0.23924
#
# Static dielectric constant tensor:
#      x y z
#    x 3.819670 0.000000 0.000000 
#    y 0.000000 3.819670 0.000000 
#    z 0.000000 0.000000 4.011500 
# 
# 
# High freq. dielectric constant tensor:
#      x y z
#    x 1.846840 0.000000 0.000000 
#    y 0.000000 1.846840 0.000000 
#    z 0.000000 0.000000 1.862470 
# 
# From -- ./inp_files/338.got.cif
#   From: 2010.03.12/outbox.cif.g09.slc.cpg/sg144_cif.got.tgz:338.got - 2010.04.03 13:34:42.
