data_PCOD8321370
_publ_section_title
;
Structure prediction by ZEFSAII (Michael W. Deem and Ramdas Pophale) SiO2 
 PCOD8321370
Probable space group: P 31
;
_chemical_formula_sum "Si O2"
_cell_formula_units_Z 18
_cell_length_a 5.289151
_cell_length_b 5.289151
_cell_length_c 26.679297
_cell_angle_alpha 90.000000
_cell_angle_beta 90.000000
_cell_angle_gamma 120.000000
_cell_volume 646.363680
_symmetry_space_group_name_H-M "P 31"
_symmetry_group_IT_number 144
_symmetry_cell_setting 'hexagonal'
loop_
_space_group_symop_operation_xyz
x,y,z
-y,x-y,1/3+z
-x+y,-x,2/3+z
loop_
_atom_site_type_symbol
_atom_site_label
_atom_site_fract_x
_atom_site_fract_y
_atom_site_fract_z
Si Si1 0.917784 0.791169 0.381750
Si Si2 0.268469 0.686698 0.029815
Si Si3 0.331603 0.514652 0.173336
Si Si4 0.415544 0.540059 0.931468
Si Si5 0.064856 0.084877 0.283404
Si Si6 0.001693 0.849699 0.139882
O O1 0.578783 0.631946 0.400232
O O2 0.101112 0.101782 0.412094
O O3 0.054813 0.584253 0.395545
O O4 0.901913 0.804370 0.321280
O O5 0.431409 0.569138 0.991938
O O6 0.104859 0.771543 0.989944
O O7 0.332654 0.564873 0.234458
O O8 0.199175 0.704801 0.149543
O O9 0.666644 0.642950 0.156606
O O10 0.134110 0.172269 0.163677
O O11 0.278515 0.196112 0.917674
O O12 0.754546 0.719831 0.912986
#
# Coordination Sequence:
#
# PCOD8321370 Si02
#       6
#     3   3   3   3   3   3
#     4  10  23  39  65  97 132 173 232 282 353 416
#     4  10  21  40  66  97 128 172 221 296 352 407
#     4  12  28  49  73 106 144 197 240 293 351 429
#     4  10  23  39  65  97 132 173 232 282 353 416
#     4  10  21  40  66  97 128 172 221 296 352 407
#     4  12  28  49  73 106 144 197 240 293 351 429
#
# _framework density 27.848094
#
# number of rings (size 3 to 8) (size 9 to 14) (size 15 to 20)
#    0.000    1.333    0.000    4.000    9.333    0.000 
#    0.000    0.000    0.000    0.000    0.000    0.000 
#    0.000    0.000    0.000    0.000    0.000    0.000 
#
# Total GULP energy -223020.850092 kJ/mol
# GULP energy per Si atom -12390.047227 kJ/mol
# Density = 2.778471 g / cm^3
# Si number density = 27.848094 Si / 1000 Ang^3
#
#
#
# Elastic Constant Matrix: (Units=GPa)
#
#
# Indices 1 2 3 4 5 6 
#
# 1 158.4485 53.9897 -8.0460 1.4689 -0.0012 0.0000
# 2 53.9897 158.4485 -8.0460 -1.4689 0.0012 0.0000
# 3 -8.0460 -8.0460 96.2082 0.0000 0.0000 0.0000
# 4 1.4689 -1.4689 0.0000 33.8866 0.0000 0.0012
# 5 -0.0012 0.0012 0.0000 0.0000 33.8866 1.4689
# 6 0.0000 0.0000 0.0000 0.0012 1.4689 52.2294
#
#
#
# Elastic Compliance Matrix: (Units=1/GPa)
#
#
# Indices 1 2 3 4 5 6 
#
# 1 0.007161 -0.002424 0.000396 -0.000415 0.000000 0.000000
# 2 -0.002424 0.007161 0.000396 0.000415 0.000000 0.000000
# 3 0.000396 0.000396 0.010460 0.000000 0.000000 0.000000
# 4 -0.000415 0.000415 0.000000 0.029546 0.000000 -0.000001
# 5 0.000000 0.000000 0.000000 0.000000 0.029546 -0.000831
# 6 0.000000 0.000000 0.000000 -0.000001 -0.000831 0.019170
#
#
# Mechanical properties :
#
#
# Convention : Reuss Voigt Hill
#
# Bulk Modulus (GPa) = 46.46916 54.32227 50.39571
# Shear Modulus (GPa) = 44.06036 49.01435 46.53735
#
# Velocity S-wave (km/s) = 3.98196 4.19986 4.09236
# Velocity P-wave (km/s) = 6.15339 6.56258 6.36128
#
# Compressibility (1/GPa) = 0.02151965
#
# Stress axis : x y z
#
# Youngs Moduli (GPa) = 139.64436 139.64436 95.59874
#
# Poissons Ratio (x) = 0.33847 -0.03787
# Poissons Ratio (y) = 0.33847 -0.03787
# Poissons Ratio (z) = -0.05532 -0.05532
#
# Static dielectric constant tensor:
#      x y z
#    x 5.485380 0.000000 0.000000 
#    y 0.000000 5.485380 0.000000 
#    z 0.000000 0.000000 6.953930 
# 
# 
# High freq. dielectric constant tensor:
#      x y z
#    x 2.133500 0.000000 0.000000 
#    y 0.000000 2.133500 0.000000 
#    z 0.000000 0.000000 2.135470 
# 
# From -- ./inp_files/1033.got.cif
#   From: 2010.03.12/outbox.cif.g09.slc.cpg/sg144_cif.got.tgz:1033.got - 2010.04.03 13:34:42.
