data_PCOD8321972
_publ_section_title
;
Structure prediction by ZEFSAII (Michael W. Deem and Ramdas Pophale) SiO2 
 PCOD8321972
Probable space group: P 31 1 2
;
_chemical_formula_sum "Si O2"
_cell_formula_units_Z 36
_cell_length_a 9.140242
_cell_length_b 9.140242
_cell_length_c 24.289988
_cell_angle_alpha 90.000000
_cell_angle_beta 90.000000
_cell_angle_gamma 120.000000
_cell_volume 1757.410920
_symmetry_space_group_name_H-M "P 31 1 2"
_symmetry_group_IT_number 151
_symmetry_cell_setting 'hexagonal'
loop_
_space_group_symop_operation_xyz
x,y,z
-y,x-y,1/3+z
-x+y,-x,2/3+z
-y,-x,2/3-z
-x+y,y,1/3-z
x,x-y,-z
loop_
_atom_site_type_symbol
_atom_site_label
_atom_site_fract_x
_atom_site_fract_y
_atom_site_fract_z
Si Si1 0.535304 0.730259 0.938364
Si Si2 0.886806 0.811421 0.604581
Si Si3 0.968768 0.145585 0.771183
Si Si4 0.317466 0.857990 0.889617
Si Si5 0.490183 0.396226 0.895555
Si Si6 0.799469 0.458650 0.224911
O O1 0.690337 0.843862 0.897169
O O2 0.364269 0.734277 0.923403
O O3 0.495542 0.538589 0.934934
O O4 0.591985 0.795993 0.000000
O O5 0.872703 0.745405 0.666667
O O6 0.712151 0.807275 0.589269
O O7 0.928095 0.696445 0.563969
O O8 0.039119 0.002355 0.600810
O O9 0.840060 0.205480 0.745792
O O10 0.921952 0.078049 0.833334
O O11 0.230729 0.769272 0.833334
O O12 0.488401 0.029457 0.879017
O O13 0.535665 0.464336 0.833334
O O14 0.619047 0.336400 0.920759
O O15 0.729180 0.458359 0.166667
#
# Coordination Sequence:
#
# PCOD8321972 Si02
#       6
#     6   6   6   6   6   6
#     4  11  22  37  57  84 116 150 190 240 288 335
#     4  11  22  37  57  85 117 148 184 235 290 338
#     4  10  20  37  58  81 111 149 188 232 283 345
#     4  10  21  37  57  80 111 150 188 228 277 341
#     4  10  20  37  60  84 109 149 194 231 278 341
#     4   8  18  35  56  80 105 136 183 232 271 322
#
# _framework density 20.484680999999998
#
# number of rings (size 3 to 8) (size 9 to 14) (size 15 to 20)
#    0.000    2.000    0.000    3.500    0.000    5.333 
#    0.000    0.000    0.000    6.000    0.000    0.000 
#    0.000    0.000    0.000    0.000    0.000    0.000 
#
# Total GULP energy -446122.128524 kJ/mol
# GULP energy per Si atom -12392.281348 kJ/mol
# Density = 2.043806 g / cm^3
# Si number density = 20.484681 Si / 1000 Ang^3
#
#
#
# Elastic Constant Matrix: (Units=GPa)
#
#
# Indices 1 2 3 4 5 6 
#
# 1 132.4444 57.7976 25.8571 0.0000 12.1670 0.0000
# 2 57.7976 132.4444 25.8571 0.0000 -12.1670 0.0000
# 3 25.8571 25.8571 80.8007 0.0000 0.0000 0.0000
# 4 0.0000 0.0000 0.0000 27.5488 0.0000 -12.1670
# 5 12.1670 -12.1670 0.0000 0.0000 27.5488 0.0000
# 6 0.0000 0.0000 0.0000 -12.1670 0.0000 37.3234
#
#
#
# Elastic Compliance Matrix: (Units=1/GPa)
#
#
# Indices 1 2 3 4 5 6 
#
# 1 0.010703 -0.004946 -0.001842 0.000000 -0.006912 0.000000
# 2 -0.004946 0.010703 -0.001842 0.000000 0.006912 0.000000
# 3 -0.001842 -0.001842 0.013555 0.000000 0.000000 0.000000
# 4 0.000000 0.000000 0.000000 0.042404 0.000000 0.013823
# 5 -0.006912 0.006912 0.000000 0.000000 0.042404 0.000000
# 6 0.000000 0.000000 0.000000 0.013823 0.000000 0.031299
#
#
# Mechanical properties :
#
#
# Convention : Reuss Voigt Hill
#
# Bulk Modulus (GPa) = 56.49619 62.74588 59.62103
# Shear Modulus (GPa) = 28.69740 34.22939 31.46340
#
# Velocity S-wave (km/s) = 3.74695 4.09219 3.92337
# Velocity P-wave (km/s) = 6.80875 7.28184 7.04926
#
# Compressibility (1/GPa) = 0.01770031
#
# Stress axis : x y z
#
# Youngs Moduli (GPa) = 93.42817 93.42817 73.77188
#
# Poissons Ratio (x) = 0.46211 0.13592
# Poissons Ratio (y) = 0.46211 0.13592
# Poissons Ratio (z) = 0.17213 0.17213
#
# Static dielectric constant tensor:
#      x y z
#    x 4.274160 0.000000 0.000000 
#    y 0.000000 4.274160 0.000000 
#    z 0.000000 0.000000 3.352130 
# 
# 
# High freq. dielectric constant tensor:
#      x y z
#    x 1.810070 0.000000 0.000000 
#    y 0.000000 1.810070 0.000000 
#    z 0.000000 0.000000 1.774020 
# 
# From -- ./inp_files/4666.got.cif
#   From: 2010.03.12/outbox.cif.g09.slc.cpg/sg151_3_cif.got.tgz:4666.got - 2010.04.03 13:42:29.
