data_PCOD8321142
_publ_section_title
;
Structure prediction by ZEFSAII (Michael W. Deem and Ramdas Pophale) SiO2 
 PCOD8321142
Probable space group: I 41/A C D
;
_chemical_formula_sum "Si O2"
_cell_formula_units_Z 176
_cell_length_a 18.589609
_cell_length_b 18.589609
_cell_length_c 24.980790
_cell_angle_alpha 90.000000
_cell_angle_beta 90.000000
_cell_angle_gamma 90.000000
_cell_volume 8632.700601
_symmetry_space_group_name_H-M "I 41/A C D"
_symmetry_group_IT_number 142
_space_group.IT_coordinate_system_code '2'
_symmetry_cell_setting 'tetragonal'
loop_
_space_group_symop_operation_xyz
x,y,z
1/4-y,3/4+x,1/4+z
-x,1/2-y,z
1/4+y,1/4-x,3/4+z
x,-y,1/2-z
1/2-x,y,-z
3/4+y,1/4+x,1/4-z
1/4-y,1/4-x,1/4-z
-x,-y,-z
3/4+y,1/4-x,3/4-z
x,1/2+y,-z
3/4-y,3/4+x,1/4-z
-x,y,1/2+z
1/2+x,-y,z
1/4-y,3/4-x,3/4+z
3/4+y,3/4+x,3/4+z
1/2+x,1/2+y,1/2+z
3/4-y,1/4+x,3/4+z
1/2-x,-y,1/2+z
3/4+y,3/4-x,1/4+z
1/2+x,1/2-y,-z
-x,1/2+y,1/2-z
1/4+y,3/4+x,3/4-z
3/4-y,3/4-x,3/4-z
1/2-x,1/2-y,1/2-z
1/4+y,3/4-x,1/4-z
1/2+x,y,1/2-z
1/4-y,1/4+x,3/4-z
1/2-x,1/2+y,z
x,1/2-y,1/2+z
3/4-y,1/4-x,1/4+z
1/4+y,1/4+x,1/4+z
loop_
_atom_site_type_symbol
_atom_site_label
_atom_site_fract_x
_atom_site_fract_y
_atom_site_fract_z
Si Si1 0.333139 0.817053 0.481808
Si Si2 0.204701 0.828712 0.795268
Si Si3 0.696006 0.053995 0.375000
Si Si4 0.173799 0.172234 0.206114
Si Si5 0.349033 0.071620 0.107787
Si Si6 0.171345 0.149479 0.477625
O O1 0.250000 0.830400 0.500000
O O2 0.385299 0.848083 0.528093
O O3 0.362141 0.857549 0.428323
O O4 0.349454 0.733253 0.473039
O O5 0.166193 0.754425 0.812268
O O6 0.268189 0.826223 0.752597
O O7 0.247883 0.856775 0.847191
O O8 0.138917 0.874428 0.772889
O O9 0.704602 0.127247 0.342760
O O10 0.767885 0.051765 0.410235
O O11 0.361726 0.090738 0.170050
O O12 0.250000 0.139483 0.500000
#
# Coordination Sequence:
#
# PCOD8321142 Si02
#       6
#    32  32  16  32  32  32
#     4  10  22  40  62  92 130 170 213 261 318 383
#     4  10  23  40  60  92 130 166 210 266 324 384
#     4  12  20  36  68  93 122 165 222 266 322 384
#     4  10  22  38  62  91 128 168 211 261 322 386
#     4  11  23  37  66  95 125 163 219 265 319 387
#     4  11  24  41  64  94 133 167 214 272 325 379
#
# _framework density 20.387592999999999
#
# number of rings (size 3 to 8) (size 9 to 14) (size 15 to 20)
#    0.000    1.455    3.636    1.091    2.545    2.182 
#    0.000    0.000    0.000    1.091    0.000    0.000 
#    0.000    0.000    0.000    0.000    0.000    0.000 
#
# Total GULP energy -1090241.196398 kJ/mol
# GULP energy per Si atom -12389.104505 kJ/mol
# Density = 2.034119 g / cm^3
# Si number density = 20.387593 Si / 1000 Ang^3
#
#
#
# Elastic Constant Matrix: (Units=GPa)
#
#
# Indices 1 2 3 4 5 6 
#
# 1 90.7919 89.8316 9.1098 0.0000 0.0000 0.0000
# 2 89.8316 90.8001 9.1065 0.0000 0.0000 0.0000
# 3 9.1098 9.1065 23.4111 0.0000 0.0000 0.0000
# 4 0.0000 0.0000 0.0000 29.8210 0.0000 0.0000
# 5 0.0000 0.0000 0.0000 0.0000 29.8207 0.0000
# 6 0.0000 0.0000 0.0000 0.0000 0.0000 25.7108
#
#
#
# Elastic Compliance Matrix: (Units=1/GPa)
#
#
# Indices 1 2 3 4 5 6 
#
# 1 0.521386 -0.515592 -0.002329 0.000000 0.000000 0.000000
# 2 -0.515592 0.521322 -0.002155 0.000000 0.000000 0.000000
# 3 -0.002329 -0.002155 0.044459 0.000000 0.000000 0.000000
# 4 0.000000 0.000000 0.000000 0.033533 0.000000 0.000000
# 5 0.000000 0.000000 0.000000 0.000000 0.033534 0.000000
# 6 0.000000 0.000000 0.000000 0.000000 0.000000 0.038894
#
#
# Mechanical properties :
#
#
# Convention : Reuss Voigt Hill
#
# Bulk Modulus (GPa) = 21.26916 46.78877 34.02897
# Shear Modulus (GPa) = 2.22326 23.53419 12.87872
#
# Velocity S-wave (km/s) = 1.04540 3.40124 2.51608
# Velocity P-wave (km/s) = 3.45141 6.19871 5.01678
#
# Compressibility (1/GPa) = 0.04701643
#
# Stress axis : x y z
#
# Youngs Moduli (GPa) = 1.91796 1.91820 22.49257
#
# Poissons Ratio (x) = 0.98901 0.05238
# Poissons Ratio (y) = 0.98889 0.04847
# Poissons Ratio (z) = 0.00447 0.00413
#
# Static dielectric constant tensor:
#      x y z
#    x 3.883860 0.000000 0.000000 
#    y 0.000000 3.883860 0.000000 
#    z 0.000000 0.000000 3.708940 
# 
# 
# High freq. dielectric constant tensor:
#      x y z
#    x 1.798610 0.000000 0.000000 
#    y 0.000000 1.798610 0.000000 
#    z 0.000000 0.000000 1.789470 
# 
# From -- ./inp_files/11422.got.cif
#   From: 2010.03.12/outbox.cif.g09.slc.cpg/sg142_6_cif.got.tgz:11422.got - 2010.04.03 13:27:16.
