data_PCOD8321479
_publ_section_title
;
Structure prediction by ZEFSAII (Michael W. Deem and Ramdas Pophale) SiO2 
 PCOD8321479
Probable space group: P 32
;
_chemical_formula_sum "Si O2"
_cell_formula_units_Z 18
_cell_length_a 8.360710
_cell_length_b 8.360710
_cell_length_c 11.716267
_cell_angle_alpha 90.000000
_cell_angle_beta 90.000000
_cell_angle_gamma 120.000000
_cell_volume 709.261214
_symmetry_space_group_name_H-M "P 32"
_symmetry_group_IT_number 145
_symmetry_cell_setting 'hexagonal'
loop_
_space_group_symop_operation_xyz
x,y,z
-y,x-y,2/3+z
-x+y,-x,1/3+z
loop_
_atom_site_type_symbol
_atom_site_label
_atom_site_fract_x
_atom_site_fract_y
_atom_site_fract_z
Si Si1 0.469347 0.619949 0.200220
Si Si2 0.690284 0.511004 0.355252
Si Si3 0.836694 0.492741 0.927220
Si Si4 0.344423 0.823049 0.354759
Si Si5 0.819846 0.965496 0.136940
Si Si6 0.037337 0.873500 0.297568
O O1 0.550268 0.496770 0.253032
O O2 0.439028 0.711009 0.311314
O O3 0.618223 0.783921 0.116505
O O4 0.270546 0.502479 0.138387
O O5 0.587236 0.453646 0.475370
O O6 0.757065 0.368920 0.312287
O O7 0.867382 0.713594 0.370691
O O8 0.964082 0.474893 0.026803
O O9 0.899109 0.705443 0.898421
O O10 0.186457 0.810749 0.268905
O O11 0.954921 0.894327 0.180695
O O12 0.925164 0.079829 0.025204
#
# Coordination Sequence:
#
# PCOD8321479 Si02
#       6
#     3   3   3   3   3   3
#     4  10  23  43  68  98 136 180 233 288 353 422
#     4  11  24  45  69 100 136 181 237 294 353 422
#     4  11  24  43  68  98 136 183 233 290 353 422
#     4  11  23  40  66  97 134 180 226 288 353 421
#     4  10  24  43  64  93 133 177 225 284 346 415
#     4  11  24  40  63  94 131 173 222 282 346 412
#
# _framework density 25.378520000000002
#
# number of rings (size 3 to 8) (size 9 to 14) (size 15 to 20)
#    0.000    1.333    0.000    5.000    0.000   12.000 
#    0.000    1.667    0.000    0.000    0.000    0.000 
#    0.000    0.000    0.000    0.000    0.000    0.000 
#
# Total GULP energy -223067.594215 kJ/mol
# GULP energy per Si atom -12392.644123 kJ/mol
# Density = 2.532076 g / cm^3
# Si number density = 25.378520 Si / 1000 Ang^3
#
#
#
# Elastic Constant Matrix: (Units=GPa)
#
#
# Indices 1 2 3 4 5 6 
#
# 1 88.5669 11.8740 8.1918 -4.3510 -1.9512 0.0000
# 2 11.8740 88.5669 8.1918 4.3510 1.9512 0.0000
# 3 8.1918 8.1918 41.1979 0.0000 0.0000 0.0000
# 4 -4.3510 4.3510 0.0000 29.0876 0.0000 1.9512
# 5 -1.9512 1.9512 0.0000 0.0000 29.0876 -4.3510
# 6 0.0000 0.0000 0.0000 1.9512 -4.3510 38.3465
#
#
#
# Elastic Compliance Matrix: (Units=1/GPa)
#
#
# Indices 1 2 3 4 5 6 
#
# 1 0.011800 -0.001510 -0.002046 0.001991 0.000893 0.000000
# 2 -0.001510 0.011800 -0.002046 -0.001991 -0.000893 0.000000
# 3 -0.002046 -0.002046 0.025087 0.000000 0.000000 0.000000
# 4 0.001991 -0.001991 0.000000 0.035094 0.000000 -0.001786
# 5 0.000893 -0.000893 0.000000 0.000000 0.035094 0.003982
# 6 0.000000 0.000000 0.000000 -0.001786 0.003982 0.026621
#
#
# Mechanical properties :
#
#
# Convention : Reuss Voigt Hill
#
# Bulk Modulus (GPa) = 26.67925 30.53853 28.60889
# Shear Modulus (GPa) = 29.55173 31.97598 30.76385
#
# Velocity S-wave (km/s) = 3.41609 3.55345 3.48544
# Velocity P-wave (km/s) = 5.10832 5.37544 5.24358
#
# Compressibility (1/GPa) = 0.03748231
#
# Stress axis : x y z
#
# Youngs Moduli (GPa) = 84.74510 84.74510 39.86172
#
# Poissons Ratio (x) = 0.12799 0.08156
# Poissons Ratio (y) = 0.12799 0.08156
# Poissons Ratio (z) = 0.17339 0.17339
#
# Static dielectric constant tensor:
#      x y z
#    x 4.792520 0.000000 0.000000 
#    y 0.000000 4.792520 0.000000 
#    z 0.000000 0.000000 3.943510 
# 
# 
# High freq. dielectric constant tensor:
#      x y z
#    x 2.024080 0.000000 0.000000 
#    y 0.000000 2.024080 0.000000 
#    z 0.000000 0.000000 1.975200 
# 
# From -- ./inp_files/531.got.cif
#   From: 2010.03.12/outbox.cif.g09.slc.cpg/sg145_cif.got.tgz:531.got - 2010.04.03 13:35:35.
