data_PCOD8321901
_publ_section_title
;
Structure prediction by ZEFSAII (Michael W. Deem and Ramdas Pophale) SiO2 
 PCOD8321901
Probable space group: P 3 2 1
;
_chemical_formula_sum "Si O2"
_cell_formula_units_Z 48
_cell_length_a 14.679805
_cell_length_b 14.679805
_cell_length_c 12.261470
_cell_angle_alpha 90.000000
_cell_angle_beta 90.000000
_cell_angle_gamma 120.000000
_cell_volume 2288.304132
_symmetry_space_group_name_H-M "P 3 2 1"
_symmetry_group_IT_number 150
_symmetry_cell_setting 'hexagonal'
loop_
_space_group_symop_operation_xyz
x,y,z
-y,x-y,z
-x+y,-x,z
x-y,-y,-z
-x,-x+y,-z
y,x,-z
loop_
_atom_site_type_symbol
_atom_site_label
_atom_site_fract_x
_atom_site_fract_y
_atom_site_fract_z
Si Si1 0.081755 0.559366 0.901793
Si Si2 0.229343 0.147232 0.784004
Si Si3 0.648108 0.053807 0.738274
Si Si4 0.735111 0.144851 0.381495
Si Si5 0.795928 0.230163 0.141812
Si Si6 0.340960 0.555829 0.431177
Si Si7 0.194324 0.059218 0.109719
Si Si8 0.230171 0.116271 0.532092
O O1 0.144945 0.497758 0.885690
O O2 0.168881 0.682349 0.917468
O O3 0.009540 0.545381 0.797360
O O4 0.000000 0.510640 0.000000
O O5 0.336901 0.253423 0.822268
O O6 0.124997 0.148002 0.827989
O O7 0.247220 0.145757 0.657117
O O8 0.220129 0.037921 0.819127
O O9 0.656205 0.151954 0.675927
O O10 0.655568 0.977095 0.649763
O O11 0.782012 0.216097 0.273009
O O12 0.653019 0.165814 0.449122
O O13 0.822519 0.162205 0.468620
O O14 0.863197 0.180958 0.090681
O O15 0.441054 0.673158 0.424838
O O16 0.129137 0.000000 0.000000
O O17 0.138090 0.138090 0.500000
O O18 0.196548 0.000000 0.500000
#
# Coordination Sequence:
#
# PCOD8321901 Si02
#       8
#     6   6   6   6   6   6   6   6
#     4  11  26  48  77 105 142 192 249 315 373 421
#     4  12  23  42  65 101 137 183 229 292 359 439
#     4  11  23  45  72  94 144 181 236 296 369 439
#     4  11  21  44  67  96 137 190 229 296 358 429
#     4  11  25  47  71 109 137 187 255 302 367 443
#     4  10  24  41  65 103 140 182 237 286 365 434
#     4  12  26  43  68  97 140 180 237 296 361 435
#     4  12  21  36  60  92 135 177 223 274 344 427
#
# _framework density 20.976230999999999
#
# number of rings (size 3 to 8) (size 9 to 14) (size 15 to 20)
#    0.250    0.500    5.000    3.250    5.250    1.000 
#    4.500    0.000    0.000    0.000    0.000    0.000 
#    0.000    0.000    0.000    0.000    0.000    0.000 
#
# Total GULP energy -594721.039732 kJ/mol
# GULP energy per Si atom -12390.021661 kJ/mol
# Density = 2.092849 g / cm^3
# Si number density = 20.976231 Si / 1000 Ang^3
#
#
#
# Elastic Constant Matrix: (Units=GPa)
#
#
# Indices 1 2 3 4 5 6 
#
# 1 53.7036 103.0764 41.8182 -9.2040 0.0000 0.0000
# 2 103.0764 53.7036 41.8182 9.2040 0.0000 0.0000
# 3 41.8182 41.8182 100.0103 0.0000 0.0000 0.0000
# 4 -9.2040 9.2040 0.0000 28.7844 0.0000 0.0000
# 5 0.0000 0.0000 0.0000 0.0000 28.7844 -9.2040
# 6 0.0000 0.0000 0.0000 0.0000 -9.2040 -24.6864
#
#
#
# Elastic Compliance Matrix: (Units=1/GPa)
#
#
# Indices 1 2 3 4 5 6 
#
# 1 -0.004944 0.013153 -0.003433 -0.005786 0.000000 0.000000
# 2 0.013153 -0.004944 -0.003433 0.005786 0.000000 0.000000
# 3 -0.003433 -0.003433 0.012870 0.000000 0.000000 0.000000
# 4 -0.005786 0.005786 0.000000 0.031040 0.000000 0.000000
# 5 0.000000 0.000000 0.000000 0.000000 0.031040 -0.011573
# 6 0.000000 0.000000 0.000000 0.000000 -0.011573 -0.036193
#
#
# Mechanical properties :
#
#
# Convention : Reuss Voigt Hill
#
# Bulk Modulus (GPa) = 64.27602 64.53813 64.40707
# Shear Modulus (GPa) = 232.76219 7.95679 120.35949
#
# Velocity S-wave (km/s) = 10.54541 1.94974 7.58311
# Velocity P-wave (km/s) = 13.37845 5.99189 10.36546
#
# Compressibility (1/GPa) = 0.01555790
#
# Stress axis : x y z
#
# Youngs Moduli (GPa) = -202.28558 -202.28558 77.70176
#
# Poissons Ratio (x) = 2.66069 0.26673
# Poissons Ratio (y) = 2.66069 0.26673
# Poissons Ratio (z) = -0.69440 -0.69440
#
# Static dielectric constant tensor:
#      x y z
#    x 3.859330 0.000000 0.000000 
#    y 0.000000 3.859330 0.000000 
#    z 0.000000 0.000000 3.842130 
# 
# 
# High freq. dielectric constant tensor:
#      x y z
#    x 1.824950 0.000000 0.000000 
#    y 0.000000 1.824950 0.000000 
#    z 0.000000 0.000000 1.822370 
# 
# From -- ./inp_files/974.got.cif
#   From: 2010.03.12/outbox.cif.g09.slc.cpg/sg150_cif.got.tgz:974.got - 2010.04.03 13:41:37.
