data_PCOD8321166
_publ_section_title
;
Structure prediction by ZEFSAII (Michael W. Deem and Ramdas Pophale) SiO2 
 PCOD8321166
Probable space group: I 41/A C D
;
_chemical_formula_sum "Si O2"
_cell_formula_units_Z 160
_cell_length_a 28.426325
_cell_length_b 28.426325
_cell_length_c 9.389717
_cell_angle_alpha 90.000000
_cell_angle_beta 90.000000
_cell_angle_gamma 90.000000
_cell_volume 7587.416719
_symmetry_space_group_name_H-M "I 41/A C D"
_symmetry_group_IT_number 142
_space_group.IT_coordinate_system_code '2'
_symmetry_cell_setting 'tetragonal'
loop_
_space_group_symop_operation_xyz
x,y,z
1/4-y,3/4+x,1/4+z
-x,1/2-y,z
1/4+y,1/4-x,3/4+z
x,-y,1/2-z
1/2-x,y,-z
3/4+y,1/4+x,1/4-z
1/4-y,1/4-x,1/4-z
-x,-y,-z
3/4+y,1/4-x,3/4-z
x,1/2+y,-z
3/4-y,3/4+x,1/4-z
-x,y,1/2+z
1/2+x,-y,z
1/4-y,3/4-x,3/4+z
3/4+y,3/4+x,3/4+z
1/2+x,1/2+y,1/2+z
3/4-y,1/4+x,3/4+z
1/2-x,-y,1/2+z
3/4+y,3/4-x,1/4+z
1/2+x,1/2-y,-z
-x,1/2+y,1/2-z
1/4+y,3/4+x,3/4-z
3/4-y,3/4-x,3/4-z
1/2-x,1/2-y,1/2-z
1/4+y,3/4-x,1/4-z
1/2+x,y,1/2-z
1/4-y,1/4+x,3/4-z
1/2-x,1/2+y,z
x,1/2-y,1/2+z
3/4-y,1/4-x,1/4+z
1/4+y,1/4+x,1/4+z
loop_
_atom_site_type_symbol
_atom_site_label
_atom_site_fract_x
_atom_site_fract_y
_atom_site_fract_z
Si Si1 0.321263 0.304770 0.156521
Si Si2 0.336100 0.586100 0.625000
Si Si3 0.871606 0.650671 0.634680
Si Si4 0.694807 0.716788 0.529731
Si Si5 0.446721 0.282245 0.714542
Si Si6 0.750000 0.630494 0.000000
O O1 0.367111 0.337492 0.177753
O O2 0.310467 0.277813 0.301743
O O3 0.327133 0.264342 0.037064
O O4 0.277267 0.337197 0.112829
O O5 0.373435 0.592126 0.500533
O O6 0.343743 0.533310 0.671938
O O7 0.835034 0.670844 0.518603
O O8 0.895797 0.694361 0.715647
O O9 0.750000 0.710211 0.500000
O O10 0.441153 0.229672 0.652215
O O11 0.467749 0.282252 0.875000
#
# Coordination Sequence:
#
# PCOD8321166 Si02
#       6
#    32  16  32  32  32  16
#     4  11  25  41  66  98 134 175 223 277 339 399
#     4  10  22  42  70  93 128 168 214 276 340 416
#     4  11  24  39  65  93 133 171 224 275 340 398
#     4  12  25  41  66  96 134 174 228 282 337 406
#     4  11  23  39  59  88 130 180 229 273 321 388
#     4  10  22  44  70  96 130 170 220 274 346 410
#
# _framework density 21.087544999999999
#
# number of rings (size 3 to 8) (size 9 to 14) (size 15 to 20)
#    0.000    1.000    2.000    4.800    5.600    6.400 
#    0.000    0.000   17.600    0.000    0.000    0.000 
#    0.000    0.000    0.000    0.000    0.000    0.000 
#
# Total GULP energy -991768.335920 kJ/mol
# GULP energy per Si atom -12397.104199 kJ/mol
# Density = 2.103955 g / cm^3
# Si number density = 21.087545 Si / 1000 Ang^3
#
#
#
# Elastic Constant Matrix: (Units=GPa)
#
#
# Indices 1 2 3 4 5 6 
#
# 1 143.7017 31.9335 39.4511 0.0000 0.0000 0.0000
# 2 31.9335 143.7009 39.4507 0.0000 0.0000 0.0000
# 3 39.4511 39.4507 134.1838 0.0000 0.0000 0.0000
# 4 0.0000 0.0000 0.0000 27.6660 0.0000 0.0000
# 5 0.0000 0.0000 0.0000 0.0000 27.6658 0.0000
# 6 0.0000 0.0000 0.0000 0.0000 0.0000 -241.1088
#
#
#
# Elastic Compliance Matrix: (Units=1/GPa)
#
#
# Indices 1 2 3 4 5 6 
#
# 1 0.007754 -0.001194 -0.001929 0.000000 0.000000 0.000000
# 2 -0.001194 0.007754 -0.001929 0.000000 0.000000 0.000000
# 3 -0.001929 -0.001929 0.008587 0.000000 0.000000 0.000000
# 4 0.000000 0.000000 0.000000 0.036145 0.000000 0.000000
# 5 0.000000 0.000000 0.000000 0.000000 0.036146 0.000000
# 6 0.000000 0.000000 0.000000 0.000000 0.000000 -0.004148
#
#
# Mechanical properties :
#
#
# Convention : Reuss Voigt Hill
#
# Bulk Modulus (GPa) = 71.46987 71.47297 71.47142
# Shear Modulus (GPa) = 46.72757 -16.43865 15.14446
#
# Velocity S-wave (km/s) = 4.71243 -2.79506 2.68278
# Velocity P-wave (km/s) = 7.97338 4.85289 6.60020
#
# Compressibility (1/GPa) = 0.01399191
#
# Stress axis : x y z
#
# Youngs Moduli (GPa) = 128.97265 128.97207 116.46102
#
# Poissons Ratio (x) = 0.15393 0.22462
# Poissons Ratio (y) = 0.15393 0.22462
# Poissons Ratio (z) = 0.24875 0.24875
#
# Static dielectric constant tensor:
#      x y z
#    x 3.979970 0.000000 0.000000 
#    y 0.000000 3.979970 0.000000 
#    z 0.000000 0.000000 3.719870 
# 
# 
# High freq. dielectric constant tensor:
#      x y z
#    x 1.830770 0.000000 0.000000 
#    y 0.000000 1.830770 0.000000 
#    z 0.000000 0.000000 1.828110 
# 
# From -- ./inp_files/2210.got.cif
#   From: 2010.03.12/outbox.cif.g09.slc.cpg/sg142_2_cif.got.tgz:2210.got - 2010.04.03 13:27:16.
