data_PCOD8321906
_publ_section_title
;
Structure prediction by ZEFSAII (Michael W. Deem and Ramdas Pophale) SiO2 
 PCOD8321906
Probable space group: P 3 2 1
;
_chemical_formula_sum "Si O2"
_cell_formula_units_Z 40
_cell_length_a 16.379254
_cell_length_b 16.379254
_cell_length_c 9.529102
_cell_angle_alpha 90.000000
_cell_angle_beta 90.000000
_cell_angle_gamma 120.000000
_cell_volume 2213.965469
_symmetry_space_group_name_H-M "P 3 2 1"
_symmetry_group_IT_number 150
_symmetry_cell_setting 'hexagonal'
loop_
_space_group_symop_operation_xyz
x,y,z
-y,x-y,z
-x+y,-x,z
x-y,-y,-z
-x,-x+y,-z
y,x,-z
loop_
_atom_site_type_symbol
_atom_site_label
_atom_site_fract_x
_atom_site_fract_y
_atom_site_fract_z
Si Si1 0.666668 0.333334 0.636269
Si Si2 0.666667 0.333335 0.300864
Si Si3 0.894271 0.599291 0.471453
Si Si4 0.059411 0.507016 0.623006
Si Si5 0.790648 0.251139 0.249430
Si Si6 0.536394 0.782449 0.257968
Si Si7 0.894594 0.307085 0.972416
Si Si8 0.431676 0.496846 0.115853
O O1 0.666668 0.333334 0.469011
O O2 0.741772 0.305406 0.694640
O O3 0.696180 0.259224 0.240916
O O4 0.890626 0.499580 0.452803
O O5 0.843509 0.612728 0.334532
O O6 0.835251 0.596173 0.606470
O O7 0.000000 0.684638 0.500000
O O8 0.132730 0.476925 0.671806
O O9 0.000000 0.433400 0.500000
O O10 0.993990 0.505905 0.748542
O O11 0.826697 0.243176 0.097166
O O12 0.597882 0.745844 0.174634
O O13 0.520805 0.851259 0.156794
O O14 0.894007 0.404791 0.967417
O O15 0.000000 0.325410 0.000000
O O16 0.418145 0.418145 0.000000
#
# Coordination Sequence:
#
# PCOD8321906 Si02
#       8
#     2   2   6   6   6   6   6   6
#     4  12  21  34  50  88 102 142 221 244 297 343
#     4  12  24  31  50  88 102 142 227 250 300 343
#     4  11  24  38  55  87 113 153 210 254 308 367
#     4  11  21  37  56  80 117 152 207 255 300 356
#     4  12  23  36  56  75 117 157 201 263 292 357
#     4  12  23  36  59  75 117 158 201 264 298 356
#     4  11  26  39  52  84 116 156 211 248 306 373
#     4  11  22  39  54  79 118 154 203 251 303 359
#
# _framework density 18.067128
#
# number of rings (size 3 to 8) (size 9 to 14) (size 15 to 20)
#    0.000    0.600   10.500    0.000    6.300    0.000 
#    0.000    0.000    0.000    0.000    0.000    0.000 
#    0.000    0.000    0.000   34.200    0.000    0.000 
#
# Total GULP energy -495958.450612 kJ/mol
# GULP energy per Si atom -12398.961265 kJ/mol
# Density = 1.802601 g / cm^3
# Si number density = 18.067128 Si / 1000 Ang^3
#
#
#
# Elastic Constant Matrix: (Units=GPa)
#
#
# Indices 1 2 3 4 5 6 
#
# 1 58.1497 25.1426 33.4871 7.5838 0.0000 0.0000
# 2 25.1426 58.1503 33.4872 -7.5838 0.0000 0.0000
# 3 33.4871 33.4872 119.2495 0.0001 0.0000 0.0000
# 4 7.5838 -7.5838 0.0001 33.6788 0.0000 0.0000
# 5 0.0000 0.0000 0.0000 0.0000 33.6787 7.5841
# 6 0.0000 0.0000 0.0000 0.0000 7.5841 16.5037
#
#
#
# Elastic Compliance Matrix: (Units=1/GPa)
#
#
# Indices 1 2 3 4 5 6 
#
# 1 0.024650 -0.009143 -0.004355 -0.007610 0.000000 0.000000
# 2 -0.009143 0.024650 -0.004355 0.007610 0.000000 0.000000
# 3 -0.004355 -0.004355 0.010832 0.000000 0.000000 0.000000
# 4 -0.007610 0.007610 0.000000 0.033119 0.000000 0.000000
# 5 0.000000 0.000000 0.000000 0.000000 0.033120 -0.015220
# 6 0.000000 0.000000 0.000000 0.000000 -0.015220 0.067587
#
#
# Mechanical properties :
#
#
# Convention : Reuss Voigt Hill
#
# Bulk Modulus (GPa) = 40.93749 46.64259 43.79004
# Shear Modulus (GPa) = 21.02567 26.33440 23.68003
#
# Velocity S-wave (km/s) = 3.41508 3.82198 3.62424
# Velocity P-wave (km/s) = 6.18532 6.73417 6.46557
#
# Compressibility (1/GPa) = 0.02442749
#
# Stress axis : x y z
#
# Youngs Moduli (GPa) = 40.56735 40.56788 92.32299
#
# Poissons Ratio (x) = 0.37090 0.40205
# Poissons Ratio (y) = 0.37090 0.40204
# Poissons Ratio (z) = 0.17666 0.17666
#
# Static dielectric constant tensor:
#      x y z
#    x 3.311110 0.000000 0.000000 
#    y 0.000000 3.311100 0.000000 
#    z 0.000000 0.000000 3.758180 
# 
# 
# High freq. dielectric constant tensor:
#      x y z
#    x 1.664590 0.000000 0.000000 
#    y 0.000000 1.664590 0.000000 
#    z 0.000000 0.000000 1.727990 
# 
# From -- ./inp_files/751.got.cif
#   From: 2010.03.12/outbox.cif.g09.slc.cpg/sg150_cif.got.tgz:751.got - 2010.04.03 13:41:37.
