data_PCOD8321478
_publ_section_title
;
Structure prediction by ZEFSAII (Michael W. Deem and Ramdas Pophale) SiO2 
 PCOD8321478
Probable space group: P 32
;
_chemical_formula_sum "Si O2"
_cell_formula_units_Z 24
_cell_length_a 11.321281
_cell_length_b 11.321281
_cell_length_c 9.366724
_cell_angle_alpha 90.000000
_cell_angle_beta 90.000000
_cell_angle_gamma 120.000000
_cell_volume 1039.703474
_symmetry_space_group_name_H-M "P 32"
_symmetry_group_IT_number 145
_symmetry_cell_setting 'hexagonal'
loop_
_space_group_symop_operation_xyz
x,y,z
-y,x-y,2/3+z
-x+y,-x,1/3+z
loop_
_atom_site_type_symbol
_atom_site_label
_atom_site_fract_x
_atom_site_fract_y
_atom_site_fract_z
Si Si1 0.203651 0.517276 0.908700
Si Si2 0.196676 0.089183 0.041172
Si Si3 0.919440 0.479648 0.422509
Si Si4 0.491459 0.165351 0.044249
Si Si5 0.138368 0.486935 0.226618
Si Si6 0.206577 0.262351 0.771647
Si Si7 0.990248 0.595597 0.853918
Si Si8 0.247000 0.294996 0.250580
O O1 0.362941 0.625581 0.934479
O O2 0.191066 0.388827 0.823994
O O3 0.131372 0.591758 0.828631
O O4 0.122185 0.468805 0.057043
O O5 0.336139 0.098624 0.095334
O O6 0.149450 0.147488 0.176469
O O7 0.087110 0.929922 0.017916
O O8 0.224560 0.178558 0.899053
O O9 0.902835 0.388820 0.559466
O O10 0.770414 0.442587 0.366915
O O11 0.994191 0.453101 0.292194
O O12 0.015113 0.638118 0.463470
O O13 0.574595 0.133513 0.164964
O O14 0.165230 0.371465 0.289310
O O15 0.340922 0.323504 0.672137
O O16 0.972680 0.686693 0.732002
#
# Coordination Sequence:
#
# PCOD8321478 Si02
#       8
#     3   3   3   3   3   3   3   3
#     4  12  22  39  70 113 148 176 242 314 371 445
#     4  11  25  48  68  96 156 194 242 305 368 455
#     4  10  23  42  69 101 143 195 239 307 374 439
#     4  10  23  47  69 101 145 189 247 310 368 449
#     4  12  21  39  71 108 147 183 234 310 379 437
#     4  12  26  46  71 104 146 203 248 305 377 454
#     4  11  25  41  75 108 140 192 248 306 374 442
#     4  10  23  42  67 105 147 186 236 299 377 441
#
# _framework density 23.083504999999999
#
# number of rings (size 3 to 8) (size 9 to 14) (size 15 to 20)
#    0.000    1.000    5.000    1.500    1.750    2.000 
#    0.000    1.250    0.000    0.000    0.000    0.000 
#    0.000    0.000    0.000    0.000    0.000    0.000 
#
# Total GULP energy -297547.489691 kJ/mol
# GULP energy per Si atom -12397.812070 kJ/mol
# Density = 2.303097 g / cm^3
# Si number density = 23.083505 Si / 1000 Ang^3
#
#
#
# Elastic Constant Matrix: (Units=GPa)
#
#
# Indices 1 2 3 4 5 6 
#
# 1 112.7548 41.1325 42.0246 -1.2822 -2.0475 0.0000
# 2 41.1325 112.7548 42.0246 1.2822 2.0475 0.0000
# 3 42.0246 42.0246 127.4393 0.0000 0.0000 0.0000
# 4 -1.2822 1.2822 0.0000 32.6480 0.0000 2.0475
# 5 -2.0475 2.0475 0.0000 0.0000 32.6480 -1.2822
# 6 0.0000 0.0000 0.0000 2.0475 -1.2822 35.8111
#
#
#
# Elastic Compliance Matrix: (Units=1/GPa)
#
#
# Indices 1 2 3 4 5 6 
#
# 1 0.010979 -0.003053 -0.002614 0.000551 0.000880 0.000000
# 2 -0.003053 0.010979 -0.002614 -0.000551 -0.000880 0.000000
# 3 -0.002614 -0.002614 0.009571 0.000000 0.000000 0.000000
# 4 0.000551 -0.000551 0.000000 0.030783 0.000000 -0.001760
# 5 0.000880 -0.000880 0.000000 0.000000 0.030783 0.001102
# 6 0.000000 0.000000 0.000000 -0.001760 0.001102 0.028064
#
#
# Mechanical properties :
#
#
# Convention : Reuss Voigt Hill
#
# Bulk Modulus (GPa) = 66.81070 67.03473 66.92271
# Shear Modulus (GPa) = 35.03613 35.40590 35.22101
#
# Velocity S-wave (km/s) = 3.90012 3.92065 3.91040
# Velocity P-wave (km/s) = 7.02048 7.04262 7.03156
#
# Compressibility (1/GPa) = 0.01496766
#
# Stress axis : x y z
#
# Youngs Moduli (GPa) = 91.08328 91.08328 104.48658
#
# Poissons Ratio (x) = 0.27810 0.27309
# Poissons Ratio (y) = 0.27810 0.27309
# Poissons Ratio (z) = 0.23806 0.23806
#
# Static dielectric constant tensor:
#      x y z
#    x 4.231510 0.000000 0.000000 
#    y 0.000000 4.231510 0.000000 
#    z 0.000000 0.000000 4.017160 
# 
# 
# High freq. dielectric constant tensor:
#      x y z
#    x 1.904650 0.000000 0.000000 
#    y 0.000000 1.904650 0.000000 
#    z 0.000000 0.000000 1.909640 
# 
# From -- ./inp_files/449.got.cif
#   From: 2010.03.12/outbox.cif.g09.slc.cpg/sg145_cif.got.tgz:449.got - 2010.04.03 13:35:35.
