data_PCOD8321838
_publ_section_title
;
Structure prediction by ZEFSAII (Michael W. Deem and Ramdas Pophale) SiO2 
 PCOD8321838
Probable space group: P 3 1 2
;
_chemical_formula_sum "Si O2"
_cell_formula_units_Z 48
_cell_length_a 12.746916
_cell_length_b 12.746916
_cell_length_c 20.230012
_cell_angle_alpha 90.000000
_cell_angle_beta 90.000000
_cell_angle_gamma 120.000000
_cell_volume 2846.669314
_symmetry_space_group_name_H-M "P 3 1 2"
_symmetry_group_IT_number 149
_symmetry_cell_setting 'hexagonal'
loop_
_space_group_symop_operation_xyz
x,y,z
-y,x-y,z
-x+y,-x,z
-y,-x,-z
-x+y,y,-z
x,x-y,-z
loop_
_atom_site_type_symbol
_atom_site_label
_atom_site_fract_x
_atom_site_fract_y
_atom_site_fract_z
Si Si1 0.999965 0.754812 0.879323
Si Si2 0.999965 0.245153 0.879323
Si Si3 0.907609 0.574051 0.235694
Si Si4 0.577103 0.665787 0.500000
Si Si5 0.666376 0.092289 0.614353
Si Si6 0.331327 0.420142 0.000000
Si Si7 0.666441 0.574051 0.235694
Si Si8 0.907711 0.574087 0.385647
O O1 0.878800 0.757601 0.896524
O O2 0.989883 0.688404 0.810252
O O3 0.108446 0.891554 0.874078
O O4 0.022223 0.681018 0.936027
O O5 0.022224 0.341205 0.936027
O O6 0.989883 0.301479 0.810252
O O7 0.766169 0.532339 0.229080
O O8 0.923538 0.461769 0.213895
O O9 0.952153 0.614666 0.310636
O O10 0.437850 0.562151 0.500000
O O11 0.585488 0.792744 0.500000
O O12 0.643880 0.659290 0.434282
O O13 0.643880 0.659290 0.565718
O O14 0.662513 0.047847 0.689364
O O15 0.565973 0.131945 0.603942
O O16 0.794554 0.205446 0.595949
O O17 0.462037 0.537964 0.000000
O O18 0.230050 0.460100 0.000000
#
# Coordination Sequence:
#
# PCOD8321838 Si02
#       8
#     6   6   6   6   6   6   6   6
#     4  10  20  33  50  71  97 130 165 198 229 269
#     4  10  20  33  50  71  97 130 165 198 229 269
#     4   9  17  30  49  73  99 125 154 192 240 288
#     4  10  20  32  46  64  90 124 158 192 230 278
#     4   9  17  30  50  74  96 119 151 195 244 288
#     4  10  20  34  52  72  94 120 152 194 242 288
#     4   9  17  30  49  73  99 125 154 192 240 288
#     4   9  17  30  50  74  96 119 151 195 244 288
#
# _framework density 16.861810999999999
#
# number of rings (size 3 to 8) (size 9 to 14) (size 15 to 20)
#    0.000    2.500    0.000    2.500    0.000    3.000 
#    0.000    2.500    0.000    6.000    0.000    0.000 
#    0.000    0.000    0.000    0.000    0.000    0.000 
#
# Total GULP energy -595292.955109 kJ/mol
# GULP energy per Si atom -12401.936565 kJ/mol
# Density = 1.682343 g / cm^3
# Si number density = 16.861811 Si / 1000 Ang^3
#
#
#
# Elastic Constant Matrix: (Units=GPa)
#
#
# Indices 1 2 3 4 5 6 
#
# 1 117.8931 71.4903 68.1088 0.0000 0.0000 0.0000
# 2 71.4903 117.8931 68.1088 0.0000 0.0000 0.0000
# 3 68.1088 68.1088 121.3518 0.0000 0.0000 0.0000
# 4 0.0000 0.0000 0.0000 23.1594 0.0000 0.0000
# 5 0.0000 0.0000 0.0000 0.0000 23.1594 0.0000
# 6 0.0000 0.0000 0.0000 0.0000 0.0000 23.2014
#
#
#
# Elastic Compliance Matrix: (Units=1/GPa)
#
#
# Indices 1 2 3 4 5 6 
#
# 1 0.015203 -0.006348 -0.004970 0.000000 0.000000 0.000000
# 2 -0.006348 0.015203 -0.004970 0.000000 0.000000 0.000000
# 3 -0.004970 -0.004970 0.013819 0.000000 0.000000 0.000000
# 4 0.000000 0.000000 0.000000 0.043179 0.000000 0.000000
# 5 0.000000 0.000000 0.000000 0.000000 0.043179 0.000000
# 6 0.000000 0.000000 0.000000 0.000000 0.000000 0.043101
#
#
# Mechanical properties :
#
#
# Convention : Reuss Voigt Hill
#
# Bulk Modulus (GPa) = 85.83929 85.83930 85.83930
# Shear Modulus (GPa) = 23.79352 23.86607 23.82979
#
# Velocity S-wave (km/s) = 3.76052 3.76625 3.76339
# Velocity P-wave (km/s) = 8.35903 8.36247 8.36075
#
# Compressibility (1/GPa) = 0.01164968
#
# Stress axis : x y z
#
# Youngs Moduli (GPa) = 65.77788 65.77788 72.36334
#
# Poissons Ratio (x) = 0.41754 0.35963
# Poissons Ratio (y) = 0.41754 0.35963
# Poissons Ratio (z) = 0.32691 0.32691
#
# Static dielectric constant tensor:
#      x y z
#    x 3.023920 0.000000 0.000000 
#    y 0.000000 3.023920 0.000000 
#    z 0.000000 0.000000 3.463650 
# 
# 
# High freq. dielectric constant tensor:
#      x y z
#    x 1.643650 0.000000 0.000000 
#    y 0.000000 1.643650 0.000000 
#    z 0.000000 0.000000 1.664830 
# 
# From -- ./inp_files/1150.got.cif
#   From: 2010.03.12/outbox.cif.g09.slc.cpg/sg149_cif.got.tgz:1150.got - 2010.04.03 13:40:41.
