data_PCOD8321149
_publ_section_title
;
Structure prediction by ZEFSAII (Michael W. Deem and Ramdas Pophale) SiO2 
 PCOD8321149
Probable space group: I 41/A C D
;
_chemical_formula_sum "Si O2"
_cell_formula_units_Z 160
_cell_length_a 28.369455
_cell_length_b 28.369455
_cell_length_c 8.710195
_cell_angle_alpha 90.000000
_cell_angle_beta 90.000000
_cell_angle_gamma 90.000000
_cell_volume 7010.191201
_symmetry_space_group_name_H-M "I 41/A C D"
_symmetry_group_IT_number 142
_space_group.IT_coordinate_system_code '2'
_symmetry_cell_setting 'tetragonal'
loop_
_space_group_symop_operation_xyz
x,y,z
1/4-y,3/4+x,1/4+z
-x,1/2-y,z
1/4+y,1/4-x,3/4+z
x,-y,1/2-z
1/2-x,y,-z
3/4+y,1/4+x,1/4-z
1/4-y,1/4-x,1/4-z
-x,-y,-z
3/4+y,1/4-x,3/4-z
x,1/2+y,-z
3/4-y,3/4+x,1/4-z
-x,y,1/2+z
1/2+x,-y,z
1/4-y,3/4-x,3/4+z
3/4+y,3/4+x,3/4+z
1/2+x,1/2+y,1/2+z
3/4-y,1/4+x,3/4+z
1/2-x,-y,1/2+z
3/4+y,3/4-x,1/4+z
1/2+x,1/2-y,-z
-x,1/2+y,1/2-z
1/4+y,3/4+x,3/4-z
3/4-y,3/4-x,3/4-z
1/2-x,1/2-y,1/2-z
1/4+y,3/4-x,1/4-z
1/2+x,y,1/2-z
1/4-y,1/4+x,3/4-z
1/2-x,1/2+y,z
x,1/2-y,1/2+z
3/4-y,1/4-x,1/4+z
1/4+y,1/4+x,1/4+z
loop_
_atom_site_type_symbol
_atom_site_label
_atom_site_fract_x
_atom_site_fract_y
_atom_site_fract_z
Si Si1 0.547583 0.000000 0.750000
Si Si2 0.801206 0.206185 0.500970
Si Si3 0.031251 0.124984 0.495075
Si Si4 0.113800 0.812048 0.081318
Si Si5 0.805329 0.643570 0.229794
Si Si6 0.292234 0.042234 0.875000
O O1 0.512225 0.956201 0.708044
O O2 0.580435 0.988649 0.896598
O O3 0.750000 0.180743 0.500000
O O4 0.827413 0.201428 0.339548
O O5 0.826570 0.176209 0.633377
O O6 0.036564 0.119546 0.675973
O O7 0.061471 0.168378 0.431232
O O8 0.976804 0.135751 0.464221
O O9 0.150176 0.855622 0.112779
O O10 0.790190 0.591320 0.281025
O O11 0.288594 0.000000 0.750000
#
# Coordination Sequence:
#
# PCOD8321149 Si02
#       6
#    16  32  32  32  32  16
#     4  10  24  36  74 116 148 182 232 310 388 450
#     4  10  22  39  69 107 151 182 231 307 380 443
#     4  11  24  43  63 102 145 192 243 299 363 454
#     4  11  25  42  68  99 144 192 243 298 370 446
#     4  12  24  46  74 111 143 193 244 309 388 440
#     4  12  32  60  80 108 148 211 264 320 370 457
#
# _framework density 22.823913999999998
#
# number of rings (size 3 to 8) (size 9 to 14) (size 15 to 20)
#    0.600    0.400    2.000    3.600    4.200    2.800 
#    3.600    2.000    0.000    0.000    0.000    0.000 
#    0.000    0.000    0.000    0.000    0.000    0.000 
#
# Total GULP energy -991303.205004 kJ/mol
# GULP energy per Si atom -12391.290063 kJ/mol
# Density = 2.277197 g / cm^3
# Si number density = 22.823914 Si / 1000 Ang^3
#
#
#
# Elastic Constant Matrix: (Units=GPa)
#
#
# Indices 1 2 3 4 5 6 
#
# 1 130.0870 42.7439 49.9302 0.0000 0.0000 0.0000
# 2 42.7439 130.0870 49.9302 0.0000 0.0000 0.0000
# 3 49.9302 49.9302 97.6222 0.0000 0.0000 0.0000
# 4 0.0000 0.0000 0.0000 34.1919 0.0000 0.0000
# 5 0.0000 0.0000 0.0000 0.0000 34.1919 0.0000
# 6 0.0000 0.0000 0.0000 0.0000 0.0000-1275.2405
#
#
#
# Elastic Compliance Matrix: (Units=1/GPa)
#
#
# Indices 1 2 3 4 5 6 
#
# 1 0.009831 -0.001618 -0.004201 0.000000 0.000000 0.000000
# 2 -0.001618 0.009831 -0.004201 0.000000 0.000000 0.000000
# 3 -0.004201 -0.004201 0.014541 0.000000 0.000000 0.000000
# 4 0.000000 0.000000 0.000000 0.029247 0.000000 0.000000
# 5 0.000000 0.000000 0.000000 0.000000 0.029247 0.000000
# 6 0.000000 0.000000 0.000000 0.000000 0.000000 -0.000784
#
#
# Mechanical properties :
#
#
# Convention : Reuss Voigt Hill
#
# Bulk Modulus (GPa) = 70.60152 71.44499 71.02326
# Shear Modulus (GPa) = 42.85510 -227.02520 -92.08505
#
# Velocity S-wave (km/s) = 4.33788 -9.98419 -6.35873
# Velocity P-wave (km/s) = 7.48932 10.07678 4.76716
#
# Compressibility (1/GPa) = 0.01416400
#
# Stress axis : x y z
#
# Youngs Moduli (GPa) = 101.71778 101.71778 68.77287
#
# Poissons Ratio (x) = 0.16458 0.28890
# Poissons Ratio (y) = 0.16458 0.28890
# Poissons Ratio (z) = 0.42729 0.42729
#
# Static dielectric constant tensor:
#      x y z
#    x 4.060250 0.000000 0.000000 
#    y 0.000000 4.060250 0.000000 
#    z 0.000000 0.000000 4.190080 
# 
# 
# High freq. dielectric constant tensor:
#      x y z
#    x 1.897560 0.000000 0.000000 
#    y 0.000000 1.897560 0.000000 
#    z 0.000000 0.000000 1.908640 
# 
# From -- ./inp_files/2211.got.cif
#   From: 2010.03.12/outbox.cif.g09.slc.cpg/sg142_2_cif.got.tgz:2211.got - 2010.04.03 13:27:16.
