data_PCOD8321502
_publ_section_title
;
Structure prediction by ZEFSAII (Michael W. Deem and Ramdas Pophale) SiO2 
 PCOD8321502
Probable space group: R 3
;
_chemical_formula_sum "Si O2"
_cell_formula_units_Z 51
_cell_length_a 14.013102
_cell_length_b 14.013102
_cell_length_c 14.505971
_cell_angle_alpha 90.000000
_cell_angle_beta 90.000000
_cell_angle_gamma 120.000000
_cell_volume 2466.868520
_symmetry_space_group_name_H-M "R 3"
_symmetry_group_IT_number 146
_symmetry_cell_setting 'hexagonal'
loop_
_space_group_symop_operation_xyz
x,y,z
-y,x-y,z
-x+y,-x,z
2/3+x,1/3+y,1/3+z
2/3-y,1/3+x-y,1/3+z
2/3-x+y,1/3-x,1/3+z
1/3+x,2/3+y,2/3+z
1/3-y,2/3+x-y,2/3+z
1/3-x+y,2/3-x,2/3+z
loop_
_atom_site_type_symbol
_atom_site_label
_atom_site_fract_x
_atom_site_fract_y
_atom_site_fract_z
Si Si1 0.060673 0.817294 0.067280
Si Si2 0.333334 0.666667 0.759976
Si Si3 0.000000 0.000000 0.311639
Si Si4 0.437750 0.243816 0.869661
Si Si5 0.252263 0.289958 0.862525
Si Si6 0.192774 0.606784 0.398150
Si Si7 0.927867 0.127745 0.437535
O O1 0.185485 0.849557 0.090818
O O2 0.049421 0.925347 0.054332
O O3 0.976878 0.744426 0.149016
O O4 0.040892 0.749276 0.972794
O O5 0.333334 0.666667 0.869251
O O6 0.916395 0.874221 0.344652
O O7 0.325878 0.235849 0.834711
O O8 0.542730 0.359531 0.841514
O O9 0.441745 0.144728 0.818361
O O10 0.442261 0.235229 0.979572
O O11 0.129134 0.215304 0.822792
O O12 0.260845 0.541815 0.397615
#
# Coordination Sequence:
#
# PCOD8321502 Si02
#       7
#     9   3   3   9   9   9   9
#     4  11  25  42  64  85 130 165 214 249 315 363
#     4  12  27  45  57  88 128 184 201 252 312 379
#     4   9  18  39  69  91 125 157 201 258 321 364
#     4  10  17  36  65  97 119 150 203 256 313 353
#     4  11  23  41  62  92 122 167 201 260 303 375
#     4  10  20  36  63  89 125 155 193 249 313 367
#     4   9  18  37  66  96 119 154 205 262 305 367
#
# _framework density 20.673983
#
# number of rings (size 3 to 8) (size 9 to 14) (size 15 to 20)
#    0.353    1.412    3.529    1.412    2.471    0.000 
#    3.176    1.765    0.000    0.000    0.000    0.000 
#    0.000    0.000    0.000    0.000    0.000    0.000 
#
# Total GULP energy -210723.928598 kJ/mol
# GULP energy per Si atom -12395.525212 kJ/mol
# Density = 2.062693 g / cm^3
# Si number density = 20.673983 Si / 1000 Ang^3
#
#
#
# Elastic Constant Matrix: (Units=GPa)
#
#
# Indices 1 2 3 4 5 6 
#
# 1 88.1433 41.6495 14.6139 3.1225 0.4947 -0.0002
# 2 41.6495 88.1434 14.6139 -3.1225 -0.4948 0.0000
# 3 14.6139 14.6139 92.9429 0.0000 0.0001 -0.0001
# 4 3.1225 -3.1225 0.0000 25.8762 0.0000 -0.4948
# 5 0.4947 -0.4948 0.0001 0.0000 25.8764 3.1224
# 6 -0.0002 0.0000 -0.0001 -0.4948 3.1224 23.2469
#
#
#
# Elastic Compliance Matrix: (Units=1/GPa)
#
#
# Indices 1 2 3 4 5 6 
#
# 1 0.014930 -0.006942 -0.001256 -0.002639 -0.000418 0.000000
# 2 -0.006942 0.014930 -0.001256 0.002639 0.000418 0.000000
# 3 -0.001256 -0.001256 0.011154 0.000000 0.000000 0.000000
# 4 -0.002639 0.002639 0.000000 0.039298 0.000000 0.000836
# 5 -0.000418 0.000418 0.000000 0.000000 0.039298 -0.005278
# 6 0.000000 0.000000 0.000000 0.000836 -0.005278 0.043743
#
#
# Mechanical properties :
#
#
# Convention : Reuss Voigt Hill
#
# Bulk Modulus (GPa) = 45.23777 45.66494 45.45135
# Shear Modulus (GPa) = 26.36720 28.22338 27.29529
#
# Velocity S-wave (km/s) = 3.57512 3.69882 3.63750
# Velocity P-wave (km/s) = 6.24268 6.35435 6.29876
#
# Compressibility (1/GPa) = 0.02210542
#
# Stress axis : x y z
#
# Youngs Moduli (GPa) = 66.98136 66.98143 89.65199
#
# Poissons Ratio (x) = 0.46499 0.11259
# Poissons Ratio (y) = 0.46499 0.11259
# Poissons Ratio (z) = 0.08412 0.08412
#
# Static dielectric constant tensor:
#      x y z
#    x 3.550650 0.000000 0.000000 
#    y 0.000000 3.550640 0.000000 
#    z 0.000000 0.000000 3.604220 
# 
# 
# High freq. dielectric constant tensor:
#      x y z
#    x 1.792820 0.000000 0.000000 
#    y 0.000000 1.792820 0.000000 
#    z 0.000000 0.000000 1.810150 
# 
# From -- ./inp_files/1523.got.cif
#   From: 2010.06.25/outbox.cif.g09.slc.cpg/sg146_cif.got.tgz:1523.got - 2010.06.28 11:17:22.
