data_PCOD8321488
_publ_section_title
;
Structure prediction by ZEFSAII (Michael W. Deem and Ramdas Pophale) SiO2 
 PCOD8321488
Probable space group: P 32
;
_chemical_formula_sum "Si O2"
_cell_formula_units_Z 24
_cell_length_a 14.391562
_cell_length_b 14.391562
_cell_length_c 5.696681
_cell_angle_alpha 90.000000
_cell_angle_beta 90.000000
_cell_angle_gamma 120.000000
_cell_volume 1021.805882
_symmetry_space_group_name_H-M "P 32"
_symmetry_group_IT_number 145
_symmetry_cell_setting 'hexagonal'
loop_
_space_group_symop_operation_xyz
x,y,z
-y,x-y,2/3+z
-x+y,-x,1/3+z
loop_
_atom_site_type_symbol
_atom_site_label
_atom_site_fract_x
_atom_site_fract_y
_atom_site_fract_z
Si Si1 0.901777 0.095045 0.056310
Si Si2 0.637493 0.904805 0.681406
Si Si3 0.269063 0.711630 0.083697
Si Si4 0.362507 0.095195 0.681406
Si Si5 0.256790 0.866474 0.767451
Si Si6 0.098223 0.904955 0.056310
Si Si7 0.730937 0.288370 0.083697
Si Si8 0.390316 0.256790 0.100784
O O1 0.947965 0.189441 0.249315
O O2 0.870672 0.983186 0.180158
O O3 0.797294 0.095723 0.964174
O O4 0.983186 0.112514 0.846825
O O5 0.541217 0.843100 0.499354
O O6 0.758524 0.947965 0.582649
O O7 0.640787 0.018703 0.701245
O O8 0.620359 0.829889 0.906421
O O9 0.350454 0.749167 0.303206
O O10 0.311111 0.801362 0.878683
O O11 0.458783 0.156900 0.499354
O O12 0.359213 0.981297 0.701245
O O13 0.379641 0.170111 0.906421
O O14 0.202706 0.904277 0.964174
O O15 0.749167 0.398713 0.969873
O O16 0.688890 0.198638 0.878683
#
# Coordination Sequence:
#
# PCOD8321488 Si02
#       8
#     3   3   3   3   3   3   3   3
#     4  11  22  40  70 106 153 198 243 285 354 430
#     4  11  23  44  75 104 145 190 239 296 362 436
#     4  11  26  50  72 100 142 184 244 315 368 436
#     4  11  23  44  75 104 145 190 239 296 362 436
#     4  11  23  44  75 104 145 190 239 296 362 436
#     4  11  22  40  70 106 153 198 243 285 354 430
#     4  11  26  50  72 100 142 184 244 315 368 436
#     4  11  23  44  75 104 145 190 239 296 362 436
#
# _framework density 23.487828
#
# number of rings (size 3 to 8) (size 9 to 14) (size 15 to 20)
#    0.000    1.000    5.000    1.500    0.000    0.000 
#    0.000   27.500    0.000    0.000    0.000    0.000 
#    0.000    0.000    0.000    0.000    0.000    0.000 
#
# Total GULP energy -297465.183345 kJ/mol
# GULP energy per Si atom -12394.382639 kJ/mol
# Density = 2.343437 g / cm^3
# Si number density = 23.487828 Si / 1000 Ang^3
#
#
#
# Elastic Constant Matrix: (Units=GPa)
#
#
# Indices 1 2 3 4 5 6 
#
# 1 87.6425 25.3445 12.3211 0.0000 0.0000 0.0000
# 2 25.3445 87.6425 12.3211 0.0000 0.0000 0.0000
# 3 12.3211 12.3211 74.7619 0.0000 0.0000 0.0000
# 4 0.0000 0.0000 0.0000 44.4520 0.0000 0.0000
# 5 0.0000 0.0000 0.0000 0.0000 44.4520 0.0000
# 6 0.0000 0.0000 0.0000 0.0000 0.0000 31.1490
#
#
#
# Elastic Compliance Matrix: (Units=1/GPa)
#
#
# Indices 1 2 3 4 5 6 
#
# 1 0.012616 -0.003436 -0.001513 0.000000 0.000000 0.000000
# 2 -0.003436 0.012616 -0.001513 0.000000 0.000000 0.000000
# 3 -0.001513 -0.001513 0.013875 0.000000 0.000000 0.000000
# 4 0.000000 0.000000 0.000000 0.022496 0.000000 0.000000
# 5 0.000000 0.000000 0.000000 0.000000 0.022496 0.000000
# 6 0.000000 0.000000 0.000000 0.000000 0.000000 0.032104
#
#
# Mechanical properties :
#
#
# Convention : Reuss Voigt Hill
#
# Bulk Modulus (GPa) = 38.19181 38.89114 38.54148
# Shear Modulus (GPa) = 36.27018 37.34793 36.80906
#
# Velocity S-wave (km/s) = 3.93391 3.99193 3.96302
# Velocity P-wave (km/s) = 6.07698 6.15153 6.11437
#
# Compressibility (1/GPa) = 0.02618362
#
# Stress axis : x y z
#
# Youngs Moduli (GPa) = 79.26299 79.26299 72.07466
#
# Poissons Ratio (x) = 0.27232 0.10905
# Poissons Ratio (y) = 0.27232 0.10905
# Poissons Ratio (z) = 0.11992 0.11992
#
# Static dielectric constant tensor:
#      x y z
#    x 4.290980 0.000000 0.000000 
#    y 0.000000 4.290980 0.000000 
#    z 0.000000 0.000000 4.477580 
# 
# 
# High freq. dielectric constant tensor:
#      x y z
#    x 1.925570 0.000000 0.000000 
#    y 0.000000 1.925570 0.000000 
#    z 0.000000 0.000000 1.942050 
# 
# From -- ./inp_files/143.got.cif
#   From: 2010.03.12/outbox.cif.g09.slc.cpg/sg145_cif.got.tgz:143.got - 2010.04.03 13:35:35.
