data_PCOD8321109
_publ_section_title
;
Structure prediction by ZEFSAII (Michael W. Deem and Ramdas Pophale) SiO2 
 PCOD8321109
Probable space group: I 41/A C D
;
_chemical_formula_sum "Si O2"
_cell_formula_units_Z 120
_cell_length_a 20.975380
_cell_length_b 20.975380
_cell_length_c 13.159808
_cell_angle_alpha 90.000000
_cell_angle_beta 90.000000
_cell_angle_gamma 90.000000
_cell_volume 5789.875537
_symmetry_space_group_name_H-M "I 41/A C D"
_symmetry_group_IT_number 142
_space_group.IT_coordinate_system_code '2'
_symmetry_cell_setting 'tetragonal'
loop_
_space_group_symop_operation_xyz
x,y,z
1/4-y,3/4+x,1/4+z
-x,1/2-y,z
1/4+y,1/4-x,3/4+z
x,-y,1/2-z
1/2-x,y,-z
3/4+y,1/4+x,1/4-z
1/4-y,1/4-x,1/4-z
-x,-y,-z
3/4+y,1/4-x,3/4-z
x,1/2+y,-z
3/4-y,3/4+x,1/4-z
-x,y,1/2+z
1/2+x,-y,z
1/4-y,3/4-x,3/4+z
3/4+y,3/4+x,3/4+z
1/2+x,1/2+y,1/2+z
3/4-y,1/4+x,3/4+z
1/2-x,-y,1/2+z
3/4+y,3/4-x,1/4+z
1/2+x,1/2-y,-z
-x,1/2+y,1/2-z
1/4+y,3/4+x,3/4-z
3/4-y,3/4-x,3/4-z
1/2-x,1/2-y,1/2-z
1/4+y,3/4-x,1/4-z
1/2+x,y,1/2-z
1/4-y,1/4+x,3/4-z
1/2-x,1/2+y,z
x,1/2-y,1/2+z
3/4-y,1/4-x,1/4+z
1/4+y,1/4+x,1/4+z
loop_
_atom_site_type_symbol
_atom_site_label
_atom_site_fract_x
_atom_site_fract_y
_atom_site_fract_z
Si Si1 0.405335 0.353476 0.573031
Si Si2 0.455190 0.484331 0.635603
Si Si3 0.000000 0.750000 0.625000
Si Si4 0.842396 0.092396 0.625000
Si Si5 0.722354 0.841141 0.815819
O O1 0.451418 0.409403 0.611159
O O2 0.448715 0.290081 0.558349
O O3 0.369279 0.368018 0.469387
O O4 0.351562 0.347577 0.659400
O O5 0.433682 0.500000 0.750000
O O6 0.410335 0.522847 0.557081
O O7 0.528175 0.504172 0.615976
O O8 0.766367 0.101836 0.639887
#
# Coordination Sequence:
#
# PCOD8321109 Si02
#       5
#    32  32   8  16  32
#     4  11  22  40  60  92 127 157 207 252 305 372
#     4  10  21  38  60  85 120 161 198 250 310 360
#     4  12  24  38  56  96 128 166 200 254 300 376
#     4  10  22  39  66  88 114 168 210 253 302 360
#     4  10  21  39  61  87 119 160 206 252 303 366
#
# _framework density 20.725835
#
# number of rings (size 3 to 8) (size 9 to 14) (size 15 to 20)
#    0.000    1.600    2.667    2.400    0.000    1.600 
#    0.000    8.000    0.000    0.000    0.000    0.000 
#    0.000    0.000    0.000    0.000    0.000    0.000 
#
# Total GULP energy -743876.689411 kJ/mol
# GULP energy per Si atom -12397.944824 kJ/mol
# Density = 2.067866 g / cm^3
# Si number density = 20.725835 Si / 1000 Ang^3
#
#
#
# Elastic Constant Matrix: (Units=GPa)
#
#
# Indices 1 2 3 4 5 6 
#
# 1 91.4510 34.3486 30.1884 0.0000 0.0000 0.0000
# 2 34.3486 91.4510 30.1884 0.0000 0.0000 0.0000
# 3 30.1884 30.1884 141.7685 0.0000 0.0000 0.0000
# 4 0.0000 0.0000 0.0000 19.5796 0.0000 0.0000
# 5 0.0000 0.0000 0.0000 0.0000 19.5796 0.0000
# 6 0.0000 0.0000 0.0000 0.0000 0.0000 35.3446
#
#
#
# Elastic Compliance Matrix: (Units=1/GPa)
#
#
# Indices 1 2 3 4 5 6 
#
# 1 0.013183 -0.004329 -0.001885 0.000000 0.000000 0.000000
# 2 -0.004329 0.013183 -0.001885 0.000000 0.000000 0.000000
# 3 -0.001885 -0.001885 0.007857 0.000000 0.000000 0.000000
# 4 0.000000 0.000000 0.000000 0.051074 0.000000 0.000000
# 5 0.000000 0.000000 0.000000 0.000000 0.051074 0.000000
# 6 0.000000 0.000000 0.000000 0.000000 0.000000 0.028293
#
#
# Mechanical properties :
#
#
# Convention : Reuss Voigt Hill
#
# Bulk Modulus (GPa) = 55.48400 57.12457 56.30428
# Shear Modulus (GPa) = 26.75643 30.23043 28.49343
#
# Velocity S-wave (km/s) = 3.59690 3.82329 3.71182
# Velocity P-wave (km/s) = 6.63919 6.86381 6.75244
#
# Compressibility (1/GPa) = 0.01802322
#
# Stress axis : x y z
#
# Youngs Moduli (GPa) = 75.85406 75.85406 127.27972
#
# Poissons Ratio (x) = 0.32839 0.23997
# Poissons Ratio (y) = 0.32839 0.23997
# Poissons Ratio (z) = 0.14301 0.14301
#
# Static dielectric constant tensor:
#      x y z
#    x 3.705720 0.000000 0.000000 
#    y 0.000000 3.705720 0.000000 
#    z 0.000000 0.000000 3.737440 
# 
# 
# High freq. dielectric constant tensor:
#      x y z
#    x 1.807490 0.000000 0.000000 
#    y 0.000000 1.807490 0.000000 
#    z 0.000000 0.000000 1.804850 
# 
# From -- ./inp_files/3515.got.cif
#   From: 2010.03.12/outbox.cif.g09.slc.cpg/sg142_2_cif.got.tgz:3515.got - 2010.04.03 13:27:16.
