data_PCOD8321081
_publ_section_title
;
Structure prediction by ZEFSAII (Michael W. Deem and Ramdas Pophale) SiO2 
 PCOD8321081
Probable space group: I 41/A C D
;
_chemical_formula_sum "Si O2"
_cell_formula_units_Z 144
_cell_length_a 17.578215
_cell_length_b 17.578215
_cell_length_c 21.610862
_cell_angle_alpha 90.000000
_cell_angle_beta 90.000000
_cell_angle_gamma 90.000000
_cell_volume 6677.618969
_symmetry_space_group_name_H-M "I 41/A C D"
_symmetry_group_IT_number 142
_space_group.IT_coordinate_system_code '2'
_symmetry_cell_setting 'tetragonal'
loop_
_space_group_symop_operation_xyz
x,y,z
1/4-y,3/4+x,1/4+z
-x,1/2-y,z
1/4+y,1/4-x,3/4+z
x,-y,1/2-z
1/2-x,y,-z
3/4+y,1/4+x,1/4-z
1/4-y,1/4-x,1/4-z
-x,-y,-z
3/4+y,1/4-x,3/4-z
x,1/2+y,-z
3/4-y,3/4+x,1/4-z
-x,y,1/2+z
1/2+x,-y,z
1/4-y,3/4-x,3/4+z
3/4+y,3/4+x,3/4+z
1/2+x,1/2+y,1/2+z
3/4-y,1/4+x,3/4+z
1/2-x,-y,1/2+z
3/4+y,3/4-x,1/4+z
1/2+x,1/2-y,-z
-x,1/2+y,1/2-z
1/4+y,3/4+x,3/4-z
3/4-y,3/4-x,3/4-z
1/2-x,1/2-y,1/2-z
1/4+y,3/4-x,1/4-z
1/2+x,y,1/2-z
1/4-y,1/4+x,3/4-z
1/2-x,1/2+y,z
x,1/2-y,1/2+z
3/4-y,1/4-x,1/4+z
1/4+y,1/4+x,1/4+z
loop_
_atom_site_type_symbol
_atom_site_label
_atom_site_fract_x
_atom_site_fract_y
_atom_site_fract_z
Si Si1 0.182567 0.500000 0.750000
Si Si2 0.941296 0.985315 0.319397
Si Si3 0.220259 0.470259 0.125000
Si Si4 0.000000 0.750000 0.763057
Si Si5 0.012840 0.146062 0.843252
Si Si6 0.581979 0.381579 0.813973
O O1 0.232009 0.491029 0.812867
O O2 0.126716 0.573079 0.759776
O O3 0.868816 0.980192 0.363158
O O4 0.997665 0.914759 0.325459
O O5 0.912361 0.000000 0.250000
O O6 0.991073 0.056338 0.342939
O O7 0.962185 0.681672 0.722737
O O8 0.932120 0.791406 0.800876
O O9 0.072811 0.177550 0.893667
O O10 0.634541 0.384541 0.875000
#
# Coordination Sequence:
#
# PCOD8321081 Si02
#       6
#    16  32  16  16  32  32
#     4  12  26  52  72 106 148 196 246 298 378 434
#     4  12  25  45  69 101 146 192 233 303 371 424
#     4  12  30  48  71 105 150 198 242 298 366 458
#     4  10  20  40  64 100 136 170 236 282 358 419
#     4   9  21  38  68  99 129 186 233 294 346 437
#     4  12  26  43  74 103 141 192 241 308 360 434
#
# _framework density 21.564571999999998
#
# number of rings (size 3 to 8) (size 9 to 14) (size 15 to 20)
#    0.000    1.111    5.556    0.333   12.444    0.000 
#    0.000    1.111    0.000    0.000    0.000    0.000 
#    0.000    0.000    0.000    0.000    0.000    0.000 
#
# Total GULP energy -892164.029447 kJ/mol
# GULP energy per Si atom -12391.167076 kJ/mol
# Density = 2.151549 g / cm^3
# Si number density = 21.564572 Si / 1000 Ang^3
#
#
#
# Elastic Constant Matrix: (Units=GPa)
#
#
# Indices 1 2 3 4 5 6 
#
# 1 88.8844 27.3803 40.9190 0.0000 0.0000 0.0000
# 2 27.3803 88.8844 40.9190 0.0000 0.0000 0.0000
# 3 40.9190 40.9190 121.5208 0.0000 0.0000 0.0000
# 4 0.0000 0.0000 0.0000 32.1401 0.0000 0.0000
# 5 0.0000 0.0000 0.0000 0.0000 32.1401 0.0000
# 6 0.0000 0.0000 0.0000 0.0000 0.0000 22.5206
#
#
#
# Elastic Compliance Matrix: (Units=1/GPa)
#
#
# Indices 1 2 3 4 5 6 
#
# 1 0.013766 -0.002493 -0.003796 0.000000 0.000000 0.000000
# 2 -0.002493 0.013766 -0.003796 0.000000 0.000000 0.000000
# 3 -0.003796 -0.003796 0.010785 0.000000 0.000000 0.000000
# 4 0.000000 0.000000 0.000000 0.031114 0.000000 0.000000
# 5 0.000000 0.000000 0.000000 0.000000 0.031114 0.000000
# 6 0.000000 0.000000 0.000000 0.000000 0.000000 0.044404
#
#
# Mechanical properties :
#
#
# Convention : Reuss Voigt Hill
#
# Bulk Modulus (GPa) = 55.10317 57.52514 56.31416
# Shear Modulus (GPa) = 29.21116 30.03161 29.62138
#
# Velocity S-wave (km/s) = 3.68447 3.73585 3.71025
# Velocity P-wave (km/s) = 6.61124 6.73368 6.67274
#
# Compressibility (1/GPa) = 0.01814778
#
# Stress axis : x y z
#
# Youngs Moduli (GPa) = 72.64269 72.64269 92.71821
#
# Poissons Ratio (x) = 0.18110 0.35195
# Poissons Ratio (y) = 0.18110 0.35195
# Poissons Ratio (z) = 0.27574 0.27574
#
# Static dielectric constant tensor:
#      x y z
#    x 3.856820 0.000000 0.000000 
#    y 0.000000 3.856820 0.000000 
#    z 0.000000 0.000000 4.311030 
# 
# 
# High freq. dielectric constant tensor:
#      x y z
#    x 1.840810 0.000000 0.000000 
#    y 0.000000 1.840810 0.000000 
#    z 0.000000 0.000000 1.856270 
# 
# From -- ./inp_files/10159.got.cif
#   From: 2010.03.12/outbox.cif.g09.slc.cpg/sg142_6_cif.got.tgz:10159.got - 2010.04.03 13:27:16.
