data_PCOD8321898
_publ_section_title
;
Structure prediction by ZEFSAII (Michael W. Deem and Ramdas Pophale) SiO2 
 PCOD8321898
Probable space group: P 3 2 1
;
_chemical_formula_sum "Si O2"
_cell_formula_units_Z 39
_cell_length_a 17.711164
_cell_length_b 17.711164
_cell_length_c 7.404092
_cell_angle_alpha 90.000000
_cell_angle_beta 90.000000
_cell_angle_gamma 120.000000
_cell_volume 2011.391670
_symmetry_space_group_name_H-M "P 3 2 1"
_symmetry_group_IT_number 150
_symmetry_cell_setting 'hexagonal'
loop_
_space_group_symop_operation_xyz
x,y,z
-y,x-y,z
-x+y,-x,z
x-y,-y,-z
-x,-x+y,-z
y,x,-z
loop_
_atom_site_type_symbol
_atom_site_label
_atom_site_fract_x
_atom_site_fract_y
_atom_site_fract_z
Si Si1 0.879763 0.832262 0.315582
Si Si2 0.511471 0.511471 0.000000
Si Si3 0.950571 0.827671 0.815543
Si Si4 0.387000 0.385145 0.287643
Si Si5 0.835811 0.639570 0.292545
Si Si6 0.099094 0.394698 0.005595
Si Si7 0.209337 0.363725 0.297184
O O1 0.833057 0.833057 0.500000
O O2 0.845401 0.870442 0.156293
O O3 0.857936 0.737188 0.256860
O O4 0.984642 0.887412 0.323116
O O5 0.470865 0.454364 0.178563
O O6 0.607419 0.521341 0.975334
O O7 0.915874 0.738106 0.709430
O O8 0.000000 0.831098 0.000000
O O9 0.403116 0.403116 0.500000
O O10 0.368806 0.288331 0.234612
O O11 0.309363 0.404434 0.232364
O O12 0.750536 0.587872 0.166454
O O13 0.810830 0.609038 0.498825
O O14 0.151381 0.389759 0.177342
O O15 0.000000 0.309139 0.000000
#
# Coordination Sequence:
#
# PCOD8321898 Si02
#       7
#     6   3   6   6   6   6   6
#     4  12  23  35  51  76 127 178 224 264 300 337
#     4  10  24  42  64  94 124 158 208 280 346 398
#     4  12  24  36  50  76 123 182 232 263 299 342
#     4  10  22  41  70  96 124 165 216 266 328 399
#     4  11  22  41  64  91 128 171 219 263 316 383
#     4  10  24  38  60  96 125 160 206 261 335 385
#     4  11  22  40  64  92 123 171 216 265 311 390
#
# _framework density 19.389561
#
# number of rings (size 3 to 8) (size 9 to 14) (size 15 to 20)
#    0.462    0.615    3.077    4.000    1.077    1.231 
#    0.000    0.000    0.000    4.923    0.000    0.000 
#    0.000    0.000    0.000    0.000    0.000    0.000 
#
# Total GULP energy -483154.073333 kJ/mol
# GULP energy per Si atom -12388.565983 kJ/mol
# Density = 1.934543 g / cm^3
# Si number density = 19.389561 Si / 1000 Ang^3
#
#
#
# Elastic Constant Matrix: (Units=GPa)
#
#
# Indices 1 2 3 4 5 6 
#
# 1 87.1167 34.5642 28.7304 3.3671 0.0000 0.0000
# 2 34.5642 87.1167 28.7304 -3.3671 0.0000 0.0000
# 3 28.7304 28.7304 82.5814 0.0000 0.0000 0.0000
# 4 3.3671 -3.3671 0.0000 29.8012 0.0000 0.0000
# 5 0.0000 0.0000 0.0000 0.0000 29.8012 3.3671
# 6 0.0000 0.0000 0.0000 0.0000 3.3671 26.2763
#
#
#
# Elastic Compliance Matrix: (Units=1/GPa)
#
#
# Indices 1 2 3 4 5 6 
#
# 1 0.014571 -0.004737 -0.003421 -0.002182 0.000000 0.000000
# 2 -0.004737 0.014571 -0.003421 0.002182 0.000000 0.000000
# 3 -0.003421 -0.003421 0.014490 0.000000 0.000000 0.000000
# 4 -0.002182 0.002182 0.000000 0.034049 0.000000 0.000000
# 5 0.000000 0.000000 0.000000 0.000000 0.034049 -0.004363
# 6 0.000000 0.000000 0.000000 0.000000 -0.004363 0.038616
#
#
# Mechanical properties :
#
#
# Convention : Reuss Voigt Hill
#
# Bulk Modulus (GPa) = 48.84601 48.98498 48.91550
# Shear Modulus (GPa) = 27.72714 28.16172 27.94443
#
# Velocity S-wave (km/s) = 3.78564 3.81519 3.80045
# Velocity P-wave (km/s) = 6.65993 6.68775 6.67386
#
# Compressibility (1/GPa) = 0.02047250
#
# Stress axis : x y z
#
# Youngs Moduli (GPa) = 68.62964 68.62964 69.01422
#
# Poissons Ratio (x) = 0.32511 0.23611
# Poissons Ratio (y) = 0.32511 0.23611
# Poissons Ratio (z) = 0.23480 0.23480
#
# Static dielectric constant tensor:
#      x y z
#    x 3.486410 0.000000 0.000000 
#    y 0.000000 3.486410 0.000000 
#    z 0.000000 0.000000 3.513180 
# 
# 
# High freq. dielectric constant tensor:
#      x y z
#    x 1.733260 0.000000 0.000000 
#    y 0.000000 1.733260 0.000000 
#    z 0.000000 0.000000 1.769330 
# 
# From -- ./inp_files/733.got.cif
#   From: 2010.03.12/outbox.cif.g09.slc.cpg/sg150_cif.got.tgz:733.got - 2010.04.03 13:41:37.
