data_PCOD8321664
_publ_section_title
;
Structure prediction by ZEFSAII (Michael W. Deem and Ramdas Pophale) SiO2 
 PCOD8321664
Probable space group: P -3
;
_chemical_formula_sum "Si O2"
_cell_formula_units_Z 18
_cell_length_a 11.544396
_cell_length_b 11.544396
_cell_length_c 7.712606
_cell_angle_alpha 90.000000
_cell_angle_beta 90.000000
_cell_angle_gamma 120.000000
_cell_volume 890.172573
_symmetry_space_group_name_H-M "P -3"
_symmetry_group_IT_number 147
_symmetry_cell_setting 'hexagonal'
loop_
_space_group_symop_operation_xyz
x,y,z
-y,x-y,z
-x+y,-x,z
-x,-y,-z
y,-x+y,-z
x-y,x,-z
loop_
_atom_site_type_symbol
_atom_site_label
_atom_site_fract_x
_atom_site_fract_y
_atom_site_fract_z
Si Si1 0.796221 0.301297 0.805863
Si Si2 0.494924 0.796221 0.805859
Si Si3 0.784487 0.694077 0.500001
O O1 0.809727 0.447891 0.780332
O O2 0.888104 0.281591 0.670282
O O3 0.842285 0.289738 0.000002
O O4 0.361835 0.809726 0.780327
O O5 0.606510 0.888104 0.670277
O O6 0.756011 0.814360 0.500002
#
# Coordination Sequence:
#
# PCOD8321664 Si02
#       3
#     6   6   6
#     4   8  18  39  63  91 113 132 179 246 306 342
#     4   8  18  39  63  91 113 132 179 246 306 342
#     4  12  25  38  54  80 119 164 198 222 260 330
#
# _framework density 20.220799
#
# number of rings (size 3 to 8) (size 9 to 14) (size 15 to 20)
#    1.333    1.333    0.000    2.333    0.000    8.000 
#    0.000    6.667    0.000    4.000    0.000    0.000 
#    0.000    0.000    0.000    0.000    0.000    0.000 
#
# Total GULP energy -223050.982189 kJ/mol
# GULP energy per Si atom -12391.721233 kJ/mol
# Density = 2.017478 g / cm^3
# Si number density = 20.220799 Si / 1000 Ang^3
#
#
#
# Elastic Constant Matrix: (Units=GPa)
#
#
# Indices 1 2 3 4 5 6 
#
# 1 47.2057 -8.7705 23.1804 0.0002 0.0001 0.0000
# 2 -8.7705 47.2057 23.1804 -0.0002 -0.0001 0.0000
# 3 23.1804 23.1804 133.6684 0.0000 0.0000 0.0000
# 4 0.0002 -0.0002 0.0000 -2.3742 0.0000 -0.0001
# 5 0.0001 -0.0001 0.0000 0.0000 -2.3742 0.0002
# 6 0.0000 0.0000 0.0000 -0.0001 0.0002 27.9881
#
#
#
# Elastic Compliance Matrix: (Units=1/GPa)
#
#
# Indices 1 2 3 4 5 6 
#
# 1 0.025382 0.007517 -0.005705 0.000002 0.000001 0.000000
# 2 0.007517 0.025382 -0.005705 -0.000002 -0.000001 0.000000
# 3 -0.005705 -0.005705 0.009460 0.000000 0.000000 0.000000
# 4 0.000002 -0.000002 0.000000 -0.421194 0.000000 -0.000002
# 5 0.000001 -0.000001 0.000000 0.000000 -0.421194 0.000004
# 6 0.000000 0.000000 0.000000 -0.000002 0.000004 0.035729
#
#
# Mechanical properties :
#
#
# Convention : Reuss Voigt Hill
#
# Bulk Modulus (GPa) = 19.07017 33.69557 26.38287
# Shear Modulus (GPa) = -6.93320 17.34725 5.20703
#
# Velocity S-wave (km/s) = -1.85370 2.93216 1.60645
# Velocity P-wave (km/s) = 2.20677 5.30692 4.06406
#
# Compressibility (1/GPa) = 0.05243793
#
# Stress axis : x y z
#
# Youngs Moduli (GPa) = 39.39769 39.39769 105.70807
#
# Poissons Ratio (x) = -0.29617 0.60310
# Poissons Ratio (y) = -0.29617 0.60310
# Poissons Ratio (z) = 0.22478 0.22478
#
# Static dielectric constant tensor:
#      x y z
#    x 3.341860 0.000000 0.000000 
#    y 0.000000 3.341860 0.000000 
#    z 0.000000 0.000000 3.636970 
# 
# 
# High freq. dielectric constant tensor:
#      x y z
#    x 1.765350 0.000000 0.000000 
#    y 0.000000 1.765350 0.000000 
#    z 0.000000 0.000000 1.803410 
# 
# From -- ./inp_files/352.got.cif
#   From: 2010.03.12/outbox.cif.g09.slc.cpg/sg147_cif.got.tgz:352.got - 2010.04.03 13:37:56.
