data_PCOD8321041
_publ_section_title
;
Structure prediction by ZEFSAII (Michael W. Deem and Ramdas Pophale) SiO2 
 PCOD8321041
Probable space group: I 41/A C D
;
_chemical_formula_sum "Si O2"
_cell_formula_units_Z 160
_cell_length_a 25.202747
_cell_length_b 25.202747
_cell_length_c 13.126344
_cell_angle_alpha 90.000000
_cell_angle_beta 90.000000
_cell_angle_gamma 90.000000
_cell_volume 8337.570919
_symmetry_space_group_name_H-M "I 41/A C D"
_symmetry_group_IT_number 142
_space_group.IT_coordinate_system_code '2'
_symmetry_cell_setting 'tetragonal'
loop_
_space_group_symop_operation_xyz
x,y,z
1/4-y,3/4+x,1/4+z
-x,1/2-y,z
1/4+y,1/4-x,3/4+z
x,-y,1/2-z
1/2-x,y,-z
3/4+y,1/4+x,1/4-z
1/4-y,1/4-x,1/4-z
-x,-y,-z
3/4+y,1/4-x,3/4-z
x,1/2+y,-z
3/4-y,3/4+x,1/4-z
-x,y,1/2+z
1/2+x,-y,z
1/4-y,3/4-x,3/4+z
3/4+y,3/4+x,3/4+z
1/2+x,1/2+y,1/2+z
3/4-y,1/4+x,3/4+z
1/2-x,-y,1/2+z
3/4+y,3/4-x,1/4+z
1/2+x,1/2-y,-z
-x,1/2+y,1/2-z
1/4+y,3/4+x,3/4-z
3/4-y,3/4-x,3/4-z
1/2-x,1/2-y,1/2-z
1/4+y,3/4-x,1/4-z
1/2+x,y,1/2-z
1/4-y,1/4+x,3/4-z
1/2-x,1/2+y,z
x,1/2-y,1/2+z
3/4-y,1/4-x,1/4+z
1/4+y,1/4+x,1/4+z
loop_
_atom_site_type_symbol
_atom_site_label
_atom_site_fract_x
_atom_site_fract_y
_atom_site_fract_z
Si Si1 0.530894 0.800332 0.506361
Si Si2 0.128976 0.460300 0.159869
Si Si3 0.449643 0.969628 0.455664
Si Si4 0.146832 0.790756 0.014462
Si Si5 0.457496 0.121533 0.905910
O O1 0.500000 0.750000 0.459531
O O2 0.541412 0.791412 0.625000
O O3 0.586895 0.804013 0.446027
O O4 0.496318 0.854230 0.505275
O O5 0.143923 0.500000 0.250000
O O6 0.184077 0.434077 0.125000
O O7 0.099247 0.491228 0.068068
O O8 0.090519 0.413806 0.196783
O O9 0.468043 0.938723 0.354197
O O10 0.429308 0.928741 0.541808
O O11 0.500000 0.000000 0.500000
O O12 0.146828 0.738021 0.945528
O O13 0.414321 0.164321 0.875000
#
# Coordination Sequence:
#
# PCOD8321041 Si02
#       5
#    32  32  32  32  32
#     4   9  15  31  54  84 122 165 185 217 291 374
#     4  10  21  42  66  87 112 160 220 265 309 366
#     4  11  24  38  59  88 119 162 212 255 305 366
#     4  10  20  36  61  87 124 166 204 239 300 374
#     4  11  20  36  58  89 136 160 193 248 304 372
#
# _framework density 19.190242999999999
#
# number of rings (size 3 to 8) (size 9 to 14) (size 15 to 20)
#    0.000    1.800    6.000    1.800    0.000    1.600 
#    3.600    1.000    0.000    0.000    0.000    0.000 
#    0.000    0.000    0.000    0.000    0.000    0.000 
#
# Total GULP energy -991708.183257 kJ/mol
# GULP energy per Si atom -12396.352291 kJ/mol
# Density = 1.914656 g / cm^3
# Si number density = 19.190243 Si / 1000 Ang^3
#
#
#
# Elastic Constant Matrix: (Units=GPa)
#
#
# Indices 1 2 3 4 5 6 
#
# 1 121.7825 64.0395 43.4787 0.0000 0.0000 0.0000
# 2 64.0395 121.7825 43.4787 0.0000 0.0000 0.0000
# 3 43.4787 43.4787 67.6177 0.0000 0.0000 0.0000
# 4 0.0000 0.0000 0.0000 25.4589 0.0000 0.0000
# 5 0.0000 0.0000 0.0000 0.0000 25.4589 0.0000
# 6 0.0000 0.0000 0.0000 0.0000 0.0000 39.1022
#
#
#
# Elastic Compliance Matrix: (Units=1/GPa)
#
#
# Indices 1 2 3 4 5 6 
#
# 1 0.012508 -0.004810 -0.004950 0.000000 0.000000 0.000000
# 2 -0.004810 0.012508 -0.004950 0.000000 0.000000 0.000000
# 3 -0.004950 -0.004950 0.021154 0.000000 0.000000 0.000000
# 4 0.000000 0.000000 0.000000 0.039279 0.000000 0.000000
# 5 0.000000 0.000000 0.000000 0.000000 0.039279 0.000000
# 6 0.000000 0.000000 0.000000 0.000000 0.000000 0.025574
#
#
# Mechanical properties :
#
#
# Convention : Reuss Voigt Hill
#
# Bulk Modulus (GPa) = 59.69765 68.13075 63.91420
# Shear Modulus (GPa) = 26.98250 28.68305 27.83278
#
# Velocity S-wave (km/s) = 3.75381 3.87029 3.81249
# Velocity P-wave (km/s) = 7.06852 7.45333 7.26347
#
# Compressibility (1/GPa) = 0.01675108
#
# Stress axis : x y z
#
# Youngs Moduli (GPa) = 79.94916 79.94916 47.27139
#
# Poissons Ratio (x) = 0.38457 0.23398
# Poissons Ratio (y) = 0.38457 0.23398
# Poissons Ratio (z) = 0.39573 0.39573
#
# Static dielectric constant tensor:
#      x y z
#    x 3.923820 0.000000 0.000000 
#    y 0.000000 3.923820 0.000000 
#    z 0.000000 0.000000 2.652640 
# 
# 
# High freq. dielectric constant tensor:
#      x y z
#    x 1.739100 0.000000 0.000000 
#    y 0.000000 1.739100 0.000000 
#    z 0.000000 0.000000 1.744340 
# 
# From -- ./inp_files/5380.got.cif
#   From: 2010.03.12/outbox.cif.g09.slc.cpg/sg142_3_cif.got.tgz:5380.got - 2010.04.03 13:27:16.
