data_PCOD8321793
_publ_section_title
;
Structure prediction by ZEFSAII (Michael W. Deem and Ramdas Pophale) SiO2 
 PCOD8321793
Probable space group: R -3
;
_chemical_formula_sum "Si O2"
_cell_formula_units_Z 126
_cell_length_a 18.098660
_cell_length_b 18.098660
_cell_length_c 21.509323
_cell_angle_alpha 90.000000
_cell_angle_beta 90.000000
_cell_angle_gamma 120.000000
_cell_volume 6101.691078
_symmetry_space_group_name_H-M "R -3"
_symmetry_group_IT_number 148
_symmetry_cell_setting 'hexagonal'
loop_
_space_group_symop_operation_xyz
x,y,z
-y,x-y,z
-x+y,-x,z
-x,-y,-z
y,-x+y,-z
x-y,x,-z
2/3+x,1/3+y,1/3+z
2/3-y,1/3+x-y,1/3+z
2/3-x+y,1/3-x,1/3+z
2/3-x,1/3-y,1/3-z
2/3+y,1/3-x+y,1/3-z
2/3+x-y,1/3+x,1/3-z
1/3+x,2/3+y,2/3+z
1/3-y,2/3+x-y,2/3+z
1/3-x+y,2/3-x,2/3+z
1/3-x,2/3-y,2/3-z
1/3+y,2/3-x+y,2/3-z
1/3+x-y,2/3+x,2/3-z
loop_
_atom_site_type_symbol
_atom_site_label
_atom_site_fract_x
_atom_site_fract_y
_atom_site_fract_z
Si Si1 0.108467 0.391422 0.393287
Si Si2 0.724755 0.775134 0.273380
Si Si3 0.397199 0.333333 0.833333
Si Si4 0.431774 0.863548 0.596798
Si Si5 0.145051 0.572525 0.744750
Si Si6 0.472272 0.527728 0.384301
Si Si7 0.624363 0.812182 0.093045
O O1 0.055924 0.333333 0.333333
O O2 0.204851 0.409701 0.390995
O O3 0.110435 0.481501 0.396101
O O4 0.063033 0.348268 0.457559
O O5 0.681602 0.729700 0.209107
O O6 0.814834 0.777102 0.270565
O O7 0.424764 0.282725 0.880234
O O8 0.475372 0.383941 0.786432
O O9 0.429465 0.858929 0.670651
O O10 0.476168 0.813688 0.567257
O O11 0.337521 0.813688 0.567257
O O12 0.482238 0.964477 0.578334
O O13 0.056142 0.528071 0.781417
O O14 0.482460 0.517540 0.312676
#
# Coordination Sequence:
#
# PCOD8321793 Si02
#       7
#    18  18  18  18  18  18  18
#     4  11  24  42  67  99 131 172 224 276 332 397
#     4  11  24  42  67  99 131 172 224 276 332 397
#     4  12  22  41  68  97 130 168 220 270 328 391
#     4   9  17  28  54  86 124 167 207 250 316 389
#     4   9  17  30  49  85 126 162 203 256 310 379
#     4  11  22  40  66  96 129 175 220 271 335 407
#     4  11  22  37  64  92 128 169 214 272 327 383
#
# _framework density 20.650013000000001
#
# number of rings (size 3 to 8) (size 9 to 14) (size 15 to 20)
#    0.000    1.429    4.286    2.000    4.000    1.714 
#    0.857    1.429    0.000    0.286    0.000    0.000 
#    0.000    0.000    0.000    0.000    0.000    0.000 
#
# Total GULP energy -520475.845402 kJ/mol
# GULP energy per Si atom -12392.282033 kJ/mol
# Density = 2.060301 g / cm^3
# Si number density = 20.650013 Si / 1000 Ang^3
#
#
#
# Elastic Constant Matrix: (Units=GPa)
#
#
# Indices 1 2 3 4 5 6 
#
# 1 117.2885 77.5894 17.9113 -5.3793 0.0000 0.0000
# 2 77.5894 117.2885 17.9113 5.3793 0.0000 0.0000
# 3 17.9113 17.9113 49.0405 0.0000 0.0000 0.0000
# 4 -5.3793 5.3793 0.0000 27.6321 0.0000 0.0000
# 5 0.0000 0.0000 0.0000 0.0000 27.6321 -5.3793
# 6 0.0000 0.0000 0.0000 0.0000 -5.3793 19.8496
#
#
#
# Elastic Compliance Matrix: (Units=1/GPa)
#
#
# Indices 1 2 3 4 5 6 
#
# 1 0.016047 -0.010546 -0.002009 0.005177 0.000000 0.000000
# 2 -0.010546 0.016047 -0.002009 -0.005177 0.000000 0.000000
# 3 -0.002009 -0.002009 0.021859 0.000000 0.000000 0.000000
# 4 0.005177 -0.005177 0.000000 0.038205 0.000000 0.000000
# 5 0.000000 0.000000 0.000000 0.000000 0.038205 0.010354
# 6 0.000000 0.000000 0.000000 0.000000 0.010354 0.053185
#
#
# Mechanical properties :
#
#
# Convention : Reuss Voigt Hill
#
# Bulk Modulus (GPa) = 40.28343 56.71572 48.49958
# Shear Modulus (GPa) = 22.62951 26.36979 24.49965
#
# Velocity S-wave (km/s) = 3.31397 3.57737 3.44819
# Velocity P-wave (km/s) = 5.84750 6.67745 6.27621
#
# Compressibility (1/GPa) = 0.02482410
#
# Stress axis : x y z
#
# Youngs Moduli (GPa) = 62.31859 62.31859 45.74799
#
# Poissons Ratio (x) = 0.65720 0.09191
# Poissons Ratio (y) = 0.65720 0.09191
# Poissons Ratio (z) = 0.12520 0.12520
#
# Static dielectric constant tensor:
#      x y z
#    x 1.509590 0.000000 0.000000 
#    y 0.000000 1.509590 0.000000 
#    z 0.000000 0.000000 3.667680 
# 
# 
# High freq. dielectric constant tensor:
#      x y z
#    x 1.801500 0.000000 0.000000 
#    y 0.000000 1.801500 0.000000 
#    z 0.000000 0.000000 1.802820 
# 
# From -- ./inp_files/3444.got.cif
#   From: 2010.03.12/outbox.cif.g09.slc.cpg/sg148_2_cif.got.tgz:3444.got - 2010.04.03 13:38:46.
