data_PCOD8321108
_publ_section_title
;
Structure prediction by ZEFSAII (Michael W. Deem and Ramdas Pophale) SiO2 
 PCOD8321108
Probable space group: I 41/A C D
;
_chemical_formula_sum "Si O2"
_cell_formula_units_Z 160
_cell_length_a 23.402724
_cell_length_b 23.402724
_cell_length_c 14.102881
_cell_angle_alpha 90.000000
_cell_angle_beta 90.000000
_cell_angle_gamma 90.000000
_cell_volume 7723.971505
_symmetry_space_group_name_H-M "I 41/A C D"
_symmetry_group_IT_number 142
_space_group.IT_coordinate_system_code '2'
_symmetry_cell_setting 'tetragonal'
loop_
_space_group_symop_operation_xyz
x,y,z
1/4-y,3/4+x,1/4+z
-x,1/2-y,z
1/4+y,1/4-x,3/4+z
x,-y,1/2-z
1/2-x,y,-z
3/4+y,1/4+x,1/4-z
1/4-y,1/4-x,1/4-z
-x,-y,-z
3/4+y,1/4-x,3/4-z
x,1/2+y,-z
3/4-y,3/4+x,1/4-z
-x,y,1/2+z
1/2+x,-y,z
1/4-y,3/4-x,3/4+z
3/4+y,3/4+x,3/4+z
1/2+x,1/2+y,1/2+z
3/4-y,1/4+x,3/4+z
1/2-x,-y,1/2+z
3/4+y,3/4-x,1/4+z
1/2+x,1/2-y,-z
-x,1/2+y,1/2-z
1/4+y,3/4+x,3/4-z
3/4-y,3/4-x,3/4-z
1/2-x,1/2-y,1/2-z
1/4+y,3/4-x,1/4-z
1/2+x,y,1/2-z
1/4-y,1/4+x,3/4-z
1/2-x,1/2+y,z
x,1/2-y,1/2+z
3/4-y,1/4-x,1/4+z
1/4+y,1/4+x,1/4+z
loop_
_atom_site_type_symbol
_atom_site_label
_atom_site_fract_x
_atom_site_fract_y
_atom_site_fract_z
Si Si1 0.250000 0.059679 0.000000
Si Si2 0.294045 0.711206 0.304710
Si Si3 0.359214 0.997389 0.954060
Si Si4 0.250000 0.829342 0.000000
Si Si5 0.470551 0.164401 0.128085
Si Si6 0.868695 0.627828 0.979114
O O1 0.247050 0.101399 0.090880
O O2 0.198238 0.015194 0.992476
O O3 0.250000 0.750000 0.250000
O O4 0.294354 0.652264 0.246675
O O5 0.270211 0.709173 0.411891
O O6 0.360898 0.731528 0.306050
O O7 0.383916 0.934476 0.979085
O O8 0.300421 0.871568 0.029424
O O9 0.531552 0.186928 0.169040
O O10 0.430103 0.142437 0.210983
O O11 0.891570 0.641570 0.875000
#
# Coordination Sequence:
#
# PCOD8321108 Si02
#       6
#    16  32  32  16  32  32
#     4  10  23  37  60  96 138 173 203 270 348 428
#     4  11  23  40  66  94 130 167 215 271 332 405
#     4  11  22  38  62  94 132 167 214 267 341 408
#     4  10  21  37  58 100 126 165 209 270 334 384
#     4  10  23  44  67  89 130 176 222 277 331 390
#     4  11  21  37  68  95 127 166 224 278 327 407
#
# _framework density 20.714731
#
# number of rings (size 3 to 8) (size 9 to 14) (size 15 to 20)
#    0.000    1.400    2.000    4.200    2.800    0.800 
#    0.000    8.000    4.400    0.000    0.000    0.000 
#    0.000    0.000    0.000    0.000    0.000    0.000 
#
# Total GULP energy -991260.923059 kJ/mol
# GULP energy per Si atom -12390.761538 kJ/mol
# Density = 2.066758 g / cm^3
# Si number density = 20.714731 Si / 1000 Ang^3
#
#
#
# Elastic Constant Matrix: (Units=GPa)
#
#
# Indices 1 2 3 4 5 6 
#
# 1 116.3418 63.8164 35.6137 0.0000 0.0000 0.0000
# 2 63.8164 116.3418 35.6137 0.0000 0.0000 0.0000
# 3 35.6137 35.6137 112.6147 0.0000 0.0000 0.0000
# 4 0.0000 0.0000 0.0000 24.1895 0.0000 0.0000
# 5 0.0000 0.0000 0.0000 0.0000 24.1895 0.0000
# 6 0.0000 0.0000 0.0000 0.0000 0.0000 40.6959
#
#
#
# Elastic Compliance Matrix: (Units=1/GPa)
#
#
# Indices 1 2 3 4 5 6 
#
# 1 0.012691 -0.006347 -0.002006 0.000000 0.000000 0.000000
# 2 -0.006347 0.012691 -0.002006 0.000000 0.000000 0.000000
# 3 -0.002006 -0.002006 0.010149 0.000000 0.000000 0.000000
# 4 0.000000 0.000000 0.000000 0.041340 0.000000 0.000000
# 5 0.000000 0.000000 0.000000 0.000000 0.041340 0.000000
# 6 0.000000 0.000000 0.000000 0.000000 0.000000 0.024572
#
#
# Mechanical properties :
#
#
# Convention : Reuss Voigt Hill
#
# Bulk Modulus (GPa) = 67.51457 68.37623 67.94540
# Shear Modulus (GPa) = 29.68404 31.83193 30.75799
#
# Velocity S-wave (km/s) = 3.78959 3.92430 3.85754
# Velocity P-wave (km/s) = 7.19801 7.32214 7.26034
#
# Compressibility (1/GPa) = 0.01481162
#
# Stress axis : x y z
#
# Youngs Moduli (GPa) = 78.79516 78.79516 98.53441
#
# Poissons Ratio (x) = 0.50014 0.19768
# Poissons Ratio (y) = 0.50014 0.19768
# Poissons Ratio (z) = 0.15808 0.15808
#
# Static dielectric constant tensor:
#      x y z
#    x 3.773420 0.000000 0.000000 
#    y 0.000000 3.773420 0.000000 
#    z 0.000000 0.000000 2.231820 
# 
# 
# High freq. dielectric constant tensor:
#      x y z
#    x 1.817590 0.000000 0.000000 
#    y 0.000000 1.817590 0.000000 
#    z 0.000000 0.000000 1.798960 
# 
# From -- ./inp_files/5499.got.cif
#   From: 2010.03.12/outbox.cif.g09.slc.cpg/sg142_3_cif.got.tgz:5499.got - 2010.04.03 13:27:16.
