data_PCOD8321213
_publ_section_title
;
Structure prediction by ZEFSAII (Michael W. Deem and Ramdas Pophale) SiO2 
 PCOD8321213
Probable space group: I 41/A C D
;
_chemical_formula_sum "Si O2"
_cell_formula_units_Z 144
_cell_length_a 20.225117
_cell_length_b 20.225117
_cell_length_c 17.045968
_cell_angle_alpha 90.000000
_cell_angle_beta 90.000000
_cell_angle_gamma 90.000000
_cell_volume 6972.744537
_symmetry_space_group_name_H-M "I 41/A C D"
_symmetry_group_IT_number 142
_space_group.IT_coordinate_system_code '2'
_symmetry_cell_setting 'tetragonal'
loop_
_space_group_symop_operation_xyz
x,y,z
1/4-y,3/4+x,1/4+z
-x,1/2-y,z
1/4+y,1/4-x,3/4+z
x,-y,1/2-z
1/2-x,y,-z
3/4+y,1/4+x,1/4-z
1/4-y,1/4-x,1/4-z
-x,-y,-z
3/4+y,1/4-x,3/4-z
x,1/2+y,-z
3/4-y,3/4+x,1/4-z
-x,y,1/2+z
1/2+x,-y,z
1/4-y,3/4-x,3/4+z
3/4+y,3/4+x,3/4+z
1/2+x,1/2+y,1/2+z
3/4-y,1/4+x,3/4+z
1/2-x,-y,1/2+z
3/4+y,3/4-x,1/4+z
1/2+x,1/2-y,-z
-x,1/2+y,1/2-z
1/4+y,3/4+x,3/4-z
3/4-y,3/4-x,3/4-z
1/2-x,1/2-y,1/2-z
1/4+y,3/4-x,1/4-z
1/2+x,y,1/2-z
1/4-y,1/4+x,3/4-z
1/2-x,1/2+y,z
x,1/2-y,1/2+z
3/4-y,1/4-x,1/4+z
1/4+y,1/4+x,1/4+z
loop_
_atom_site_type_symbol
_atom_site_label
_atom_site_fract_x
_atom_site_fract_y
_atom_site_fract_z
Si Si1 0.416028 0.833973 0.625000
Si Si2 0.495320 0.325739 0.223204
Si Si3 0.691842 0.018521 0.060136
Si Si4 0.877768 0.354982 0.378606
Si Si5 0.203037 0.686709 0.757923
O O1 0.475739 0.829074 0.686311
O O2 0.429634 0.904789 0.583716
O O3 0.500000 0.250000 0.194851
O O4 0.567654 0.358502 0.210989
O O5 0.446048 0.368556 0.167965
O O6 0.665758 0.080751 0.108494
O O7 0.715239 0.965239 0.125000
O O8 0.630987 0.994066 0.007690
O O9 0.750000 0.037930 0.000000
O O10 0.838580 0.306310 0.320807
O O11 0.250000 0.750000 0.750000
#
# Coordination Sequence:
#
# PCOD8321213 Si02
#       5
#    16  32  32  32  32
#     4  10  25  40  66 106 138 174 232 300 353 426
#     4  11  21  43  67 103 136 175 225 289 364 415
#     4  12  25  46  66  96 141 186 234 287 353 419
#     4  11  22  41  70  96 132 182 228 288 348 427
#     4  11  24  43  69 100 135 183 240 288 358 432
#
# _framework density 20.65184
#
# number of rings (size 3 to 8) (size 9 to 14) (size 15 to 20)
#    0.000    0.889    5.556    1.667    3.111    1.778 
#    0.000    2.222    0.000    0.000    0.000    0.000 
#    0.000    0.000    0.000    0.000    0.000    0.000 
#
# Total GULP energy -892200.460457 kJ/mol
# GULP energy per Si atom -12391.673062 kJ/mol
# Density = 2.060484 g / cm^3
# Si number density = 20.651840 Si / 1000 Ang^3
#
#
#
# Elastic Constant Matrix: (Units=GPa)
#
#
# Indices 1 2 3 4 5 6 
#
# 1 109.5748 57.7058 43.7974 0.0000 0.0000 0.0000
# 2 57.7058 109.5747 43.7977 0.0000 0.0000 0.0000
# 3 43.7974 43.7977 115.3825 0.0000 0.0000 0.0000
# 4 0.0000 0.0000 0.0000 38.3678 0.0000 0.0000
# 5 0.0000 0.0000 0.0000 0.0000 38.3680 0.0000
# 6 0.0000 0.0000 0.0000 0.0000 0.0000 46.0447
#
#
#
# Elastic Compliance Matrix: (Units=1/GPa)
#
#
# Indices 1 2 3 4 5 6 
#
# 1 0.013370 -0.005909 -0.002832 0.000000 0.000000 0.000000
# 2 -0.005909 0.013370 -0.002832 0.000000 0.000000 0.000000
# 3 -0.002832 -0.002832 0.010817 0.000000 0.000000 0.000000
# 4 0.000000 0.000000 0.000000 0.026064 0.000000 0.000000
# 5 0.000000 0.000000 0.000000 0.000000 0.026063 0.000000
# 6 0.000000 0.000000 0.000000 0.000000 0.000000 0.021718
#
#
# Mechanical properties :
#
#
# Convention : Reuss Voigt Hill
#
# Bulk Modulus (GPa) = 69.39389 69.45932 69.42660
# Shear Modulus (GPa) = 35.88026 37.17150 36.52588
#
# Velocity S-wave (km/s) = 4.17272 4.24714 4.21009
# Velocity P-wave (km/s) = 7.54256 7.59983 7.57125
#
# Compressibility (1/GPa) = 0.01441049
#
# Stress axis : x y z
#
# Youngs Moduli (GPa) = 74.79348 74.79319 92.44822
#
# Poissons Ratio (x) = 0.44197 0.26182
# Poissons Ratio (y) = 0.44197 0.26182
# Poissons Ratio (z) = 0.21182 0.21182
#
# Static dielectric constant tensor:
#      x y z
#    x 3.871870 0.000000 0.000000 
#    y 0.000000 3.871850 0.000000 
#    z 0.000000 0.000000 3.741770 
# 
# 
# High freq. dielectric constant tensor:
#      x y z
#    x 1.809140 0.000000 0.000000 
#    y 0.000000 1.809130 0.000000 
#    z 0.000000 0.000000 1.813160 
# 
# From -- ./inp_files/7271.got.cif
#   From: 2010.03.12/outbox.cif.g09.slc.cpg/sg142_4_cif.got.tgz:7271.got - 2010.04.03 13:27:16.
