data_PCOD8321879
_publ_section_title
;
Structure prediction by ZEFSAII (Michael W. Deem and Ramdas Pophale) SiO2 
 PCOD8321879
Probable space group: P 3 2 1
;
_chemical_formula_sum "Si O2"
_cell_formula_units_Z 32
_cell_length_a 14.255707
_cell_length_b 14.255707
_cell_length_c 9.049968
_cell_angle_alpha 90.000000
_cell_angle_beta 90.000000
_cell_angle_gamma 120.000000
_cell_volume 1592.777810
_symmetry_space_group_name_H-M "P 3 2 1"
_symmetry_group_IT_number 150
_symmetry_cell_setting 'hexagonal'
loop_
_space_group_symop_operation_xyz
x,y,z
-y,x-y,z
-x+y,-x,z
x-y,-y,-z
-x,-x+y,-z
y,x,-z
loop_
_atom_site_type_symbol
_atom_site_label
_atom_site_fract_x
_atom_site_fract_y
_atom_site_fract_z
Si Si1 0.226692 0.789096 0.811566
Si Si2 0.530439 0.288460 0.499921
Si Si3 0.048297 0.671357 0.339796
Si Si4 0.000000 0.000000 0.675965
Si Si5 0.558089 0.079232 0.133886
Si Si6 0.791032 0.955977 0.838771
O O1 0.197222 0.739765 0.646313
O O2 0.352787 0.864684 0.831173
O O3 0.172572 0.680152 0.912617
O O4 0.166827 0.857141 0.846036
O O5 0.584718 0.212468 0.502090
O O6 0.456218 0.277818 0.640622
O O7 0.000000 0.669174 0.500000
O O8 0.991723 0.550462 0.272429
O O9 0.034393 0.751327 0.229220
O O10 0.072699 0.121391 0.734409
O O11 0.000000 0.000000 0.500000
O O12 0.501379 0.000000 0.000000
O O13 0.841114 0.000000 0.000000
#
# Coordination Sequence:
#
# PCOD8321879 Si02
#       6
#     6   6   6   2   6   6
#     4  11  19  41  67  91 131 184 215 267 343 400
#     4  10  19  37  63  94 131 175 209 268 338 392
#     4  11  19  39  66  94 128 168 221 277 326 400
#     4  12  28  50  70 102 118 164 229 282 334 395
#     4  11  23  39  63  96 131 175 231 273 337 420
#     4  11  25  45  71  89 133 176 217 280 336 390
#
# _framework density 20.090686999999999
#
# number of rings (size 3 to 8) (size 9 to 14) (size 15 to 20)
#    0.375    0.750    5.625    3.750    0.000    1.500 
#   10.125    0.938    0.000    0.000    0.000    0.000 
#    0.000    0.000    0.000    0.000    0.000    0.000 
#
# Total GULP energy -396616.178781 kJ/mol
# GULP energy per Si atom -12394.255587 kJ/mol
# Density = 2.004496 g / cm^3
# Si number density = 20.090687 Si / 1000 Ang^3
#
#
#
# Elastic Constant Matrix: (Units=GPa)
#
#
# Indices 1 2 3 4 5 6 
#
# 1 99.0810 57.7258 39.5703 -1.3344 0.0000 0.0000
# 2 57.7258 99.0810 39.5703 1.3344 0.0000 0.0000
# 3 39.5703 39.5703 100.2880 0.0000 0.0000 0.0000
# 4 -1.3344 1.3344 0.0000 30.7186 0.0000 0.0000
# 5 0.0000 0.0000 0.0000 0.0000 30.7186 -1.3344
# 6 0.0000 0.0000 0.0000 0.0000 -1.3344 20.6776
#
#
#
# Elastic Compliance Matrix: (Units=1/GPa)
#
#
# Indices 1 2 3 4 5 6 
#
# 1 0.016106 -0.008143 -0.003142 0.001053 0.000000 0.000000
# 2 -0.008143 0.016106 -0.003142 -0.001053 0.000000 0.000000
# 3 -0.003142 -0.003142 0.012451 0.000000 0.000000 0.000000
# 4 0.001053 -0.001053 0.000000 0.032645 0.000000 0.000000
# 5 0.000000 0.000000 0.000000 0.000000 0.032645 0.002107
# 6 0.000000 0.000000 0.000000 0.000000 0.002107 0.048497
#
#
# Mechanical properties :
#
#
# Convention : Reuss Voigt Hill
#
# Bulk Modulus (GPa) = 63.25526 63.57587 63.41556
# Shear Modulus (GPa) = 25.96418 27.19523 26.57970
#
# Velocity S-wave (km/s) = 3.59883 3.68315 3.64123
# Velocity P-wave (km/s) = 6.98727 7.05696 7.02220
#
# Compressibility (1/GPa) = 0.01580896
#
# Stress axis : x y z
#
# Youngs Moduli (GPa) = 62.08922 62.08922 80.31688
#
# Poissons Ratio (x) = 0.50558 0.25235
# Poissons Ratio (y) = 0.50558 0.25235
# Poissons Ratio (z) = 0.19508 0.19508
#
# Static dielectric constant tensor:
#      x y z
#    x 3.674820 0.000000 0.000000 
#    y 0.000000 3.674820 0.000000 
#    z 0.000000 0.000000 3.607450 
# 
# 
# High freq. dielectric constant tensor:
#      x y z
#    x 1.783100 0.000000 0.000000 
#    y 0.000000 1.783100 0.000000 
#    z 0.000000 0.000000 1.776270 
# 
# From -- ./inp_files/645.got.cif
#   From: 2010.03.12/outbox.cif.g09.slc.cpg/sg150_cif.got.tgz:645.got - 2010.04.03 13:41:37.
