data_PCOD8321259
_publ_section_title
;
Structure prediction by ZEFSAII (Michael W. Deem and Ramdas Pophale) SiO2 
 PCOD8321259
Probable space group: I 41/A C D
;
_chemical_formula_sum "Si O2"
_cell_formula_units_Z 160
_cell_length_a 19.146602
_cell_length_b 19.146602
_cell_length_c 19.235154
_cell_angle_alpha 90.000000
_cell_angle_beta 90.000000
_cell_angle_gamma 90.000000
_cell_volume 7051.460657
_symmetry_space_group_name_H-M "I 41/A C D"
_symmetry_group_IT_number 142
_space_group.IT_coordinate_system_code '2'
_symmetry_cell_setting 'tetragonal'
loop_
_space_group_symop_operation_xyz
x,y,z
1/4-y,3/4+x,1/4+z
-x,1/2-y,z
1/4+y,1/4-x,3/4+z
x,-y,1/2-z
1/2-x,y,-z
3/4+y,1/4+x,1/4-z
1/4-y,1/4-x,1/4-z
-x,-y,-z
3/4+y,1/4-x,3/4-z
x,1/2+y,-z
3/4-y,3/4+x,1/4-z
-x,y,1/2+z
1/2+x,-y,z
1/4-y,3/4-x,3/4+z
3/4+y,3/4+x,3/4+z
1/2+x,1/2+y,1/2+z
3/4-y,1/4+x,3/4+z
1/2-x,-y,1/2+z
3/4+y,3/4-x,1/4+z
1/2+x,1/2-y,-z
-x,1/2+y,1/2-z
1/4+y,3/4+x,3/4-z
3/4-y,3/4-x,3/4-z
1/2-x,1/2-y,1/2-z
1/4+y,3/4-x,1/4-z
1/2+x,y,1/2-z
1/4-y,1/4+x,3/4-z
1/2-x,1/2+y,z
x,1/2-y,1/2+z
3/4-y,1/4-x,1/4+z
1/4+y,1/4+x,1/4+z
loop_
_atom_site_type_symbol
_atom_site_label
_atom_site_fract_x
_atom_site_fract_y
_atom_site_fract_z
Si Si1 0.605876 0.230988 0.517357
Si Si2 0.766582 0.081467 0.919953
Si Si3 0.488382 0.640248 0.522563
Si Si4 0.699739 0.270276 0.400320
Si Si5 0.568609 0.431479 0.600623
O O1 0.557307 0.298140 0.510685
O O2 0.569149 0.163909 0.481462
O O3 0.677101 0.251699 0.478448
O O4 0.623373 0.212215 0.596655
O O5 0.744928 0.159514 0.898550
O O6 0.848372 0.073768 0.905134
O O7 0.724731 0.025270 0.875000
O O8 0.750000 0.066360 0.000000
O O9 0.470028 0.619185 0.601639
O O10 0.470041 0.575264 0.473414
O O11 0.741490 0.202575 0.374675
#
# Coordination Sequence:
#
# PCOD8321259 Si02
#       5
#    32  32  32  32  32
#     4  11  23  41  67  98 131 170 225 289 351 419
#     4  12  27  47  71 101 142 191 239 293 363 444
#     4  11  23  41  67  97 130 172 223 285 353 423
#     4  12  24  43  68  97 136 181 231 289 357 429
#     4  12  25  42  67  97 134 179 230 289 351 423
#
# _framework density 22.690334
#
# number of rings (size 3 to 8) (size 9 to 14) (size 15 to 20)
#    0.000    0.400    0.000   10.800    0.000    8.000 
#    0.000    0.000    0.000    0.000    0.000    0.000 
#    0.000    0.000    0.000    0.000    0.000    0.000 
#
# Total GULP energy -992178.328697 kJ/mol
# GULP energy per Si atom -12402.229109 kJ/mol
# Density = 2.263869 g / cm^3
# Si number density = 22.690334 Si / 1000 Ang^3
#
#
#
# Elastic Constant Matrix: (Units=GPa)
#
#
# Indices 1 2 3 4 5 6 
#
# 1 104.4098 41.6842 23.8308 0.0000 0.0000 0.0000
# 2 41.6842 104.4132 23.8316 0.0000 0.0000 0.0000
# 3 23.8308 23.8316 98.8294 0.0000 0.0000 0.0000
# 4 0.0000 0.0000 0.0000 37.0632 0.0000 0.0000
# 5 0.0000 0.0000 0.0000 0.0000 37.0639 0.0000
# 6 0.0000 0.0000 0.0000 0.0000 0.0000 46.0813
#
#
#
# Elastic Compliance Matrix: (Units=1/GPa)
#
#
# Indices 1 2 3 4 5 6 
#
# 1 0.011686 -0.004256 -0.001791 0.000000 0.000000 0.000000
# 2 -0.004256 0.011685 -0.001791 0.000000 0.000000 0.000000
# 3 -0.001791 -0.001791 0.010982 0.000000 0.000000 0.000000
# 4 0.000000 0.000000 0.000000 0.026981 0.000000 0.000000
# 5 0.000000 0.000000 0.000000 0.000000 0.026980 0.000000
# 6 0.000000 0.000000 0.000000 0.000000 0.000000 0.021701
#
#
# Mechanical properties :
#
#
# Convention : Reuss Voigt Hill
#
# Bulk Modulus (GPa) = 53.54716 54.03843 53.79280
# Shear Modulus (GPa) = 37.90192 38.59541 38.24866
#
# Velocity S-wave (km/s) = 4.09149 4.12875 4.11016
# Velocity P-wave (km/s) = 6.78017 6.82613 6.80319
#
# Compressibility (1/GPa) = 0.01867513
#
# Stress axis : x y z
#
# Youngs Moduli (GPa) = 85.57377 85.57637 91.05472
#
# Poissons Ratio (x) = 0.36425 0.16312
# Poissons Ratio (y) = 0.36423 0.16312
# Poissons Ratio (z) = 0.15330 0.15331
#
# Static dielectric constant tensor:
#      x y z
#    x 4.254170 0.000000 0.000000 
#    y 0.000000 4.254170 0.000000 
#    z 0.000000 0.000000 4.228720 
# 
# 
# High freq. dielectric constant tensor:
#      x y z
#    x 1.900050 0.000000 0.000000 
#    y 0.000000 1.900050 0.000000 
#    z 0.000000 0.000000 1.909720 
# 
# From -- ./inp_files/7379.got.cif
#   From: 2010.03.12/outbox.cif.g09.slc.cpg/sg142_4_cif.got.tgz:7379.got - 2010.04.03 13:27:16.
