data_PCOD8321674
_publ_section_title
;
Structure prediction by ZEFSAII (Michael W. Deem and Ramdas Pophale) SiO2 
 PCOD8321674
Probable space group: R -3
;
_chemical_formula_sum "Si O2"
_cell_formula_units_Z 126
_cell_length_a 21.127059
_cell_length_b 21.127059
_cell_length_c 19.564829
_cell_angle_alpha 90.000000
_cell_angle_beta 90.000000
_cell_angle_gamma 120.000000
_cell_volume 7562.837665
_symmetry_space_group_name_H-M "R -3"
_symmetry_group_IT_number 148
_symmetry_cell_setting 'hexagonal'
loop_
_space_group_symop_operation_xyz
x,y,z
-y,x-y,z
-x+y,-x,z
-x,-y,-z
y,-x+y,-z
x-y,x,-z
2/3+x,1/3+y,1/3+z
2/3-y,1/3+x-y,1/3+z
2/3-x+y,1/3-x,1/3+z
2/3-x,1/3-y,1/3-z
2/3+y,1/3-x+y,1/3-z
2/3+x-y,1/3+x,1/3-z
1/3+x,2/3+y,2/3+z
1/3-y,2/3+x-y,2/3+z
1/3-x+y,2/3-x,2/3+z
1/3-x,2/3-y,2/3-z
1/3+y,2/3-x+y,2/3-z
1/3+x-y,2/3+x,2/3-z
loop_
_atom_site_type_symbol
_atom_site_label
_atom_site_fract_x
_atom_site_fract_y
_atom_site_fract_z
Si Si1 0.908928 0.277810 0.031753
Si Si2 0.534391 0.817090 0.733924
Si Si3 0.354495 0.984966 0.918632
Si Si4 0.598888 0.696685 0.495875
Si Si5 0.972278 0.437918 0.664166
Si Si6 0.638225 0.854974 0.523069
Si Si7 0.813582 0.801829 0.067157
O O1 0.914241 0.338189 0.084704
O O2 0.822966 0.217219 0.023291
O O3 0.957872 0.241682 0.051322
O O4 0.941946 0.323042 0.962599
O O5 0.521383 0.857709 0.796061
O O6 0.613610 0.859131 0.698568
O O7 0.520029 0.741498 0.767020
O O8 0.487412 0.816487 0.668925
O O9 0.310333 0.909186 0.963618
O O10 0.424658 0.990160 0.881354
O O11 0.304807 0.987259 0.857936
O O12 0.644520 0.783912 0.505010
O O13 0.973578 0.434050 0.747285
O O14 0.556553 0.834297 0.546948
#
# Coordination Sequence:
#
# PCOD8321674 Si02
#       7
#    18  18  18  18  18  18  18
#     4  11  19  31  49  74 101 132 171 202 249 311
#     4   9  17  28  48  72  99 129 166 200 238 297
#     4  11  19  32  52  75 101 134 170 203 258 309
#     4  11  20  32  49  73 102 136 168 208 255 301
#     4   9  18  31  48  73 103 136 162 207 248 305
#     4  11  20  33  50  72 105 134 165 217 255 293
#     4  10  17  29  49  73 100 128 167 200 240 295
#
# _framework density 16.660412999999998
#
# number of rings (size 3 to 8) (size 9 to 14) (size 15 to 20)
#    0.000    1.714    7.143    1.714    2.000    2.286 
#    0.000    0.000    0.000    5.143    0.000    0.000 
#    0.000    0.000    0.000    1.714    0.000    0.000 
#
# Total GULP energy -520317.247696 kJ/mol
# GULP energy per Si atom -12388.505898 kJ/mol
# Density = 1.662249 g / cm^3
# Si number density = 16.660413 Si / 1000 Ang^3
#
#
#
# Elastic Constant Matrix: (Units=GPa)
#
#
# Indices 1 2 3 4 5 6 
#
# 1 44.7911 20.7854 28.3425 0.2986 1.0721 0.0000
# 2 20.7854 44.7911 28.3425 -0.2986 -1.0721 0.0000
# 3 28.3425 28.3425 86.0759 0.0000 0.0000 0.0000
# 4 0.2986 -0.2986 0.0000 25.4574 0.0000 -1.0721
# 5 1.0721 -1.0721 0.0000 0.0000 25.4574 0.2986
# 6 0.0000 0.0000 0.0000 -1.0721 0.2986 12.0028
#
#
#
# Elastic Compliance Matrix: (Units=1/GPa)
#
#
# Indices 1 2 3 4 5 6 
#
# 1 0.031572 -0.010255 -0.007019 -0.000491 -0.001761 0.000000
# 2 -0.010255 0.031572 -0.007019 0.000491 0.001761 0.000000
# 3 -0.007019 -0.007019 0.016240 0.000000 0.000000 0.000000
# 4 -0.000491 0.000491 0.000000 0.039441 0.000000 0.003523
# 5 -0.001761 0.001761 0.000000 0.000000 0.039441 -0.000981
# 6 0.000000 0.000000 0.000000 0.003523 -0.000981 0.083653
#
#
# Mechanical properties :
#
#
# Convention : Reuss Voigt Hill
#
# Bulk Modulus (GPa) = 32.47039 36.73321 34.60180
# Shear Modulus (GPa) = 16.62403 19.12939 17.87671
#
# Velocity S-wave (km/s) = 3.16225 3.39218 3.27923
# Velocity P-wave (km/s) = 5.73280 6.11871 5.92889
#
# Compressibility (1/GPa) = 0.03079729
#
# Stress axis : x y z
#
# Youngs Moduli (GPa) = 31.67414 31.67414 61.57635
#
# Poissons Ratio (x) = 0.32481 0.43220
# Poissons Ratio (y) = 0.32481 0.43220
# Poissons Ratio (z) = 0.22232 0.22232
#
# Static dielectric constant tensor:
#      x y z
#    x 2.987030 0.000000 0.000000 
#    y 0.000000 2.987030 0.000000 
#    z 0.000000 0.000000 3.205030 
# 
# 
# High freq. dielectric constant tensor:
#      x y z
#    x 1.609310 0.000000 0.000000 
#    y 0.000000 1.609310 0.000000 
#    z 0.000000 0.000000 1.642150 
# 
# From -- ./inp_files/2800.got.cif
#   From: 2010.03.12/outbox.cif.g09.slc.cpg/sg148_2_cif.got.tgz:2800.got - 2010.04.03 13:38:46.
