data_PCOD8321470
_publ_section_title
;
Structure prediction by ZEFSAII (Michael W. Deem and Ramdas Pophale) SiO2 
 PCOD8321470
Probable space group: P 32
;
_chemical_formula_sum "Si O2"
_cell_formula_units_Z 18
_cell_length_a 8.445251
_cell_length_b 8.445251
_cell_length_c 13.596864
_cell_angle_alpha 90.000000
_cell_angle_beta 90.000000
_cell_angle_gamma 120.000000
_cell_volume 839.836042
_symmetry_space_group_name_H-M "P 32"
_symmetry_group_IT_number 145
_symmetry_cell_setting 'hexagonal'
loop_
_space_group_symop_operation_xyz
x,y,z
-y,x-y,2/3+z
-x+y,-x,1/3+z
loop_
_atom_site_type_symbol
_atom_site_label
_atom_site_fract_x
_atom_site_fract_y
_atom_site_fract_z
Si Si1 0.679648 0.215343 0.516920
Si Si2 0.157183 0.000013 0.918645
Si Si3 0.464340 0.784702 0.320425
Si Si4 0.509038 0.160955 0.315791
Si Si5 0.855763 0.855801 0.751976
Si Si6 0.348121 0.838993 0.521554
O O1 0.851514 0.192391 0.535179
O O2 0.663421 0.225154 0.399807
O O3 0.713118 0.406478 0.561922
O O4 0.496072 0.041472 0.560509
O O5 0.191676 0.851118 0.968856
O O6 0.100757 0.091122 0.004145
O O7 0.009806 0.909320 0.833047
O O8 0.438247 0.774728 0.437538
O O9 0.306860 0.593519 0.275365
O O10 0.454264 0.958394 0.276882
O O11 0.328071 0.151044 0.362655
O O12 0.671919 0.822849 0.808048
#
# Coordination Sequence:
#
# PCOD8321470 Si02
#       6
#     3   3   3   3   3   3
#     4  10  22  39  63  92 122 161 206 257 315 373
#     4  12  24  38  60  92 126 166 208 258 312 370
#     4  10  22  39  63  92 122 161 206 257 315 373
#     4  10  22  42  64  89 123 164 207 259 312 370
#     4  10  24  42  62  88 128 170 210 258 306 364
#     4  10  22  42  64  89 123 164 207 259 312 370
#
# _framework density 21.432752000000001
#
# number of rings (size 3 to 8) (size 9 to 14) (size 15 to 20)
#    0.000    2.000    0.000    6.000    0.000    9.333 
#    0.000    0.000    0.000    0.000    0.000    0.000 
#    0.000    0.000    0.000    0.000    0.000    0.000 
#
# Total GULP energy -223200.077271 kJ/mol
# GULP energy per Si atom -12400.004293 kJ/mol
# Density = 2.138397 g / cm^3
# Si number density = 21.432752 Si / 1000 Ang^3
#
#
#
# Elastic Constant Matrix: (Units=GPa)
#
#
# Indices 1 2 3 4 5 6 
#
# 1 87.9431 36.9477 19.9811 -0.4756 -0.0472 0.0000
# 2 36.9477 87.9431 19.9811 0.4756 0.0472 0.0000
# 3 19.9811 19.9811 34.0784 0.0000 0.0000 0.0000
# 4 -0.4756 0.4756 0.0000 32.2095 0.0000 0.0472
# 5 -0.0472 0.0472 0.0000 0.0000 32.2095 -0.4756
# 6 0.0000 0.0000 0.0000 0.0472 -0.4756 25.4977
#
#
#
# Elastic Compliance Matrix: (Units=1/GPa)
#
#
# Indices 1 2 3 4 5 6 
#
# 1 0.014736 -0.004879 -0.005779 0.000290 0.000029 0.000000
# 2 -0.004879 0.014736 -0.005779 -0.000290 -0.000029 0.000000
# 3 -0.005779 -0.005779 0.036121 0.000000 0.000000 0.000000
# 4 0.000290 -0.000290 0.000000 0.031055 0.000000 -0.000057
# 5 0.000029 -0.000029 0.000000 0.000000 0.031055 0.000579
# 6 0.000000 0.000000 0.000000 -0.000057 0.000579 0.039230
#
#
# Mechanical properties :
#
#
# Convention : Reuss Voigt Hill
#
# Bulk Modulus (GPa) = 30.56480 40.42048 35.49264
# Shear Modulus (GPa) = 23.72893 26.85365 25.29129
#
# Velocity S-wave (km/s) = 3.33097 3.54351 3.43888
# Velocity P-wave (km/s) = 5.39311 5.97010 5.68892
#
# Compressibility (1/GPa) = 0.03271737
#
# Stress axis : x y z
#
# Youngs Moduli (GPa) = 67.86294 67.86294 27.68487
#
# Poissons Ratio (x) = 0.33113 0.15999
# Poissons Ratio (y) = 0.33113 0.15999
# Poissons Ratio (z) = 0.39217 0.39217
#
# Static dielectric constant tensor:
#      x y z
#    x 3.902850 0.000000 0.000000 
#    y 0.000000 3.902850 0.000000 
#    z 0.000000 0.000000 3.949110 
# 
# 
# High freq. dielectric constant tensor:
#      x y z
#    x 1.843180 0.000000 0.000000 
#    y 0.000000 1.843180 0.000000 
#    z 0.000000 0.000000 1.839010 
# 
# From -- ./inp_files/606.got.cif
#   From: 2010.03.12/outbox.cif.g09.slc.cpg/sg145_cif.got.tgz:606.got - 2010.04.03 13:35:35.
