data_PCOD8321101
_publ_section_title
;
Structure prediction by ZEFSAII (Michael W. Deem and Ramdas Pophale) SiO2 
 PCOD8321101
Probable space group: I 41/A C D
;
_chemical_formula_sum "Si O2"
_cell_formula_units_Z 192
_cell_length_a 19.492868
_cell_length_b 19.492868
_cell_length_c 24.475679
_cell_angle_alpha 90.000000
_cell_angle_beta 90.000000
_cell_angle_gamma 90.000000
_cell_volume 9300.070324
_symmetry_space_group_name_H-M "I 41/A C D"
_symmetry_group_IT_number 142
_space_group.IT_coordinate_system_code '2'
_symmetry_cell_setting 'tetragonal'
loop_
_space_group_symop_operation_xyz
x,y,z
1/4-y,3/4+x,1/4+z
-x,1/2-y,z
1/4+y,1/4-x,3/4+z
x,-y,1/2-z
1/2-x,y,-z
3/4+y,1/4+x,1/4-z
1/4-y,1/4-x,1/4-z
-x,-y,-z
3/4+y,1/4-x,3/4-z
x,1/2+y,-z
3/4-y,3/4+x,1/4-z
-x,y,1/2+z
1/2+x,-y,z
1/4-y,3/4-x,3/4+z
3/4+y,3/4+x,3/4+z
1/2+x,1/2+y,1/2+z
3/4-y,1/4+x,3/4+z
1/2-x,-y,1/2+z
3/4+y,3/4-x,1/4+z
1/2+x,1/2-y,-z
-x,1/2+y,1/2-z
1/4+y,3/4+x,3/4-z
3/4-y,3/4-x,3/4-z
1/2-x,1/2-y,1/2-z
1/4+y,3/4-x,1/4-z
1/2+x,y,1/2-z
1/4-y,1/4+x,3/4-z
1/2-x,1/2+y,z
x,1/2-y,1/2+z
3/4-y,1/4-x,1/4+z
1/4+y,1/4+x,1/4+z
loop_
_atom_site_type_symbol
_atom_site_label
_atom_site_fract_x
_atom_site_fract_y
_atom_site_fract_z
Si Si1 0.503550 0.145037 0.360604
Si Si2 0.550949 0.979128 0.577620
Si Si3 0.086939 0.909405 0.655374
Si Si4 0.316900 0.313730 0.711731
Si Si5 0.827692 0.273375 0.994260
Si Si6 0.539291 0.178735 0.560538
O O1 0.463111 0.213111 0.375000
O O2 0.583117 0.166883 0.375000
O O3 0.463742 0.094382 0.399764
O O4 0.500083 0.112205 0.300660
O O5 0.585409 0.970469 0.517998
O O6 0.600929 0.026191 0.615114
O O7 0.475896 0.013830 0.576709
O O8 0.158586 0.880813 0.678797
O O9 0.046256 0.848311 0.623239
O O10 0.043069 0.933955 0.706851
O O11 0.378331 0.259644 0.724475
O O12 0.750000 0.306096 0.000000
O O13 0.883753 0.322784 0.965145
O O14 0.500000 0.250000 0.558043
#
# Coordination Sequence:
#
# PCOD8321101 Si02
#       6
#    32  32  32  32  32  32
#     4  11  24  40  61  92 130 168 209 266 338 391
#     4  10  21  40  57  96 135 171 208 270 328 403
#     4  11  22  37  63  95 131 172 214 268 330 399
#     4  10  21  35  65  96 128 172 217 265 336 388
#     4  12  24  37  57  95 136 167 207 262 336 398
#     4  11  22  35  64 101 130 158 215 283 336 390
#
# _framework density 20.645005999999999
#
# number of rings (size 3 to 8) (size 9 to 14) (size 15 to 20)
#    0.000    1.167    3.333    4.000    4.667    0.000 
#    0.000    0.000    0.000    1.000   21.667    0.000 
#    0.000    0.000    0.000    0.000    0.000    0.000 
#
# Total GULP energy -1189379.768913 kJ/mol
# GULP energy per Si atom -12389.372593 kJ/mol
# Density = 2.059802 g / cm^3
# Si number density = 20.645006 Si / 1000 Ang^3
#
#
#
# Elastic Constant Matrix: (Units=GPa)
#
#
# Indices 1 2 3 4 5 6 
#
# 1 87.7359 35.1695 33.5640 0.0000 0.0000 0.0000
# 2 35.1695 87.7381 33.5637 0.0000 0.0000 0.0000
# 3 33.5640 33.5637 100.8239 0.0000 0.0000 0.0000
# 4 0.0000 0.0000 0.0000 44.5986 0.0000 0.0000
# 5 0.0000 0.0000 0.0000 0.0000 44.5982 0.0000
# 6 0.0000 0.0000 0.0000 0.0000 0.0000 27.6809
#
#
#
# Elastic Compliance Matrix: (Units=1/GPa)
#
#
# Indices 1 2 3 4 5 6 
#
# 1 0.014484 -0.004539 -0.003311 0.000000 0.000000 0.000000
# 2 -0.004539 0.014484 -0.003310 0.000000 0.000000 0.000000
# 3 -0.003311 -0.003310 0.012122 0.000000 0.000000 0.000000
# 4 0.000000 0.000000 0.000000 0.022422 0.000000 0.000000
# 5 0.000000 0.000000 0.000000 0.000000 0.022422 0.000000
# 6 0.000000 0.000000 0.000000 0.000000 0.000000 0.036126
#
#
# Mechanical properties :
#
#
# Convention : Reuss Voigt Hill
#
# Bulk Modulus (GPa) = 53.27856 53.43249 53.35552
# Shear Modulus (GPa) = 33.19229 34.97559 34.08394
#
# Velocity S-wave (km/s) = 4.01404 4.12046 4.06760
# Velocity P-wave (km/s) = 6.88087 6.96960 6.92538
#
# Compressibility (1/GPa) = 0.01876928
#
# Stress axis : x y z
#
# Youngs Moduli (GPa) = 69.04184 69.04401 82.49230
#
# Poissons Ratio (x) = 0.31342 0.27309
# Poissons Ratio (y) = 0.31341 0.27308
# Poissons Ratio (z) = 0.22856 0.22856
#
# Static dielectric constant tensor:
#      x y z
#    x 3.821630 0.000000 0.000000 
#    y 0.000000 3.821620 0.000000 
#    z 0.000000 0.000000 4.015340 
# 
# 
# High freq. dielectric constant tensor:
#      x y z
#    x 1.787780 0.000000 0.000000 
#    y 0.000000 1.787780 0.000000 
#    z 0.000000 0.000000 1.824350 
# 
# From -- ./inp_files/11612.got.cif
#   From: 2010.03.12/outbox.cif.g09.slc.cpg/sg142_6_cif.got.tgz:11612.got - 2010.04.03 13:27:16.
