data_PCOD8321496
_publ_section_title
;
Structure prediction by ZEFSAII (Michael W. Deem and Ramdas Pophale) SiO2 
 PCOD8321496
Probable space group: P 32
;
_chemical_formula_sum "Si O2"
_cell_formula_units_Z 21
_cell_length_a 9.784382
_cell_length_b 9.784382
_cell_length_c 10.560621
_cell_angle_alpha 90.000000
_cell_angle_beta 90.000000
_cell_angle_gamma 120.000000
_cell_volume 875.561968
_symmetry_space_group_name_H-M "P 32"
_symmetry_group_IT_number 145
_symmetry_cell_setting 'hexagonal'
loop_
_space_group_symop_operation_xyz
x,y,z
-y,x-y,2/3+z
-x+y,-x,1/3+z
loop_
_atom_site_type_symbol
_atom_site_label
_atom_site_fract_x
_atom_site_fract_y
_atom_site_fract_z
Si Si1 0.143537 0.099742 0.644150
Si Si2 0.598582 0.931917 0.159116
Si Si3 0.796771 0.972692 0.589284
Si Si4 0.523130 0.289538 0.340749
Si Si5 0.363918 0.921919 0.352918
Si Si6 0.302741 0.891331 0.631978
Si Si7 0.869895 0.509244 0.395615
O O1 0.188413 0.233906 0.537943
O O2 0.206551 0.188104 0.776345
O O3 0.218261 0.993063 0.609032
O O4 0.955346 0.986741 0.646741
O O5 0.472744 0.872319 0.273306
O O6 0.538986 0.806083 0.044924
O O7 0.621173 0.099431 0.113624
O O8 0.654968 0.796742 0.608676
O O9 0.765864 0.099203 0.659115
O O10 0.711320 0.364716 0.338162
O O11 0.460123 0.314898 0.208555
O O12 0.448393 0.108132 0.375863
O O13 0.333330 0.842616 0.492448
O O14 0.463401 0.988301 0.709554
#
# Coordination Sequence:
#
# PCOD8321496 Si02
#       7
#     3   3   3   3   3   3   3
#     4  12  23  46  75 111 147 195 259 318 375 465
#     4  12  26  46  78 116 152 200 256 318 396 456
#     4  12  26  46  74 107 147 199 256 313 381 458
#     4  12  23  46  75 111 147 195 259 318 375 465
#     4  12  25  49  75 110 157 201 251 321 390 465
#     4  12  25  49  75 110 157 201 251 321 390 465
#     4  12  26  46  74 107 147 199 256 313 381 458
#
# _framework density 23.984596
#
# number of rings (size 3 to 8) (size 9 to 14) (size 15 to 20)
#    0.000    0.000    4.286    6.857    0.000    0.000 
#    7.714    0.000    0.000    0.000    0.000    0.000 
#    0.000    0.000    0.000    0.000    0.000    0.000 
#
# Total GULP energy -260630.031665 kJ/mol
# GULP energy per Si atom -12410.953889 kJ/mol
# Density = 2.393001 g / cm^3
# Si number density = 23.984596 Si / 1000 Ang^3
#
#
#
# Elastic Constant Matrix: (Units=GPa)
#
#
# Indices 1 2 3 4 5 6 
#
# 1 72.2197 44.4402 37.1383 1.1354 0.0000 0.0000
# 2 44.4402 72.2197 37.1383 -1.1354 0.0000 0.0000
# 3 37.1383 37.1383 129.2332 0.0000 0.0000 0.0000
# 4 1.1354 -1.1354 0.0000 41.7825 0.0000 0.0000
# 5 0.0000 0.0000 0.0000 0.0000 41.7825 1.1354
# 6 0.0000 0.0000 0.0000 0.0000 1.1354 13.8897
#
#
#
# Elastic Compliance Matrix: (Units=1/GPa)
#
#
# Indices 1 2 3 4 5 6 
#
# 1 0.023285 -0.012793 -0.003015 -0.000980 0.000000 0.000000
# 2 -0.012793 0.023285 -0.003015 0.000980 0.000000 0.000000
# 3 -0.003015 -0.003015 0.009471 0.000000 0.000000 0.000000
# 4 -0.000980 0.000980 0.000000 0.023987 0.000000 0.000000
# 5 0.000000 0.000000 0.000000 0.000000 0.023987 -0.001961
# 6 0.000000 0.000000 0.000000 0.000000 -0.001961 0.072156
#
#
# Mechanical properties :
#
#
# Convention : Reuss Voigt Hill
#
# Bulk Modulus (GPa) = 54.36579 56.78957 55.57768
# Shear Modulus (GPa) = 22.73272 29.82135 26.27704
#
# Velocity S-wave (km/s) = 3.08198 3.52995 3.31355
# Velocity P-wave (km/s) = 5.94819 6.35161 6.15321
#
# Compressibility (1/GPa) = 0.01839392
#
# Stress axis : x y z
#
# Youngs Moduli (GPa) = 42.94659 42.94659 105.58754
#
# Poissons Ratio (x) = 0.54942 0.31835
# Poissons Ratio (y) = 0.54942 0.31835
# Poissons Ratio (z) = 0.12948 0.12948
#
# Static dielectric constant tensor:
#      x y z
#    x 4.334140 0.000000 0.000000 
#    y 0.000000 4.334140 0.000000 
#    z 0.000000 0.000000 4.536970 
# 
# 
# High freq. dielectric constant tensor:
#      x y z
#    x 1.953400 0.000000 0.000000 
#    y 0.000000 1.953400 0.000000 
#    z 0.000000 0.000000 1.971100 
# 
# From -- ./inp_files/613.got.cif
#   From: 2010.03.12/outbox.cif.g09.slc.cpg/sg145_cif.got.tgz:613.got - 2010.04.03 13:35:35.
