data_PCOD8321548
_publ_section_title
;
Structure prediction by ZEFSAII (Michael W. Deem and Ramdas Pophale) SiO2 
 PCOD8321548
Probable space group: R 3
;
_chemical_formula_sum "Si O2"
_cell_formula_units_Z 51
_cell_length_a 12.268810
_cell_length_b 12.268810
_cell_length_c 17.801507
_cell_angle_alpha 90.000000
_cell_angle_beta 90.000000
_cell_angle_gamma 120.000000
_cell_volume 2320.557226
_symmetry_space_group_name_H-M "R 3"
_symmetry_group_IT_number 146
_symmetry_cell_setting 'hexagonal'
loop_
_space_group_symop_operation_xyz
x,y,z
-y,x-y,z
-x+y,-x,z
2/3+x,1/3+y,1/3+z
2/3-y,1/3+x-y,1/3+z
2/3-x+y,1/3-x,1/3+z
1/3+x,2/3+y,2/3+z
1/3-y,2/3+x-y,2/3+z
1/3-x+y,2/3-x,2/3+z
loop_
_atom_site_type_symbol
_atom_site_label
_atom_site_fract_x
_atom_site_fract_y
_atom_site_fract_z
Si Si1 0.745580 0.728398 0.915230
Si Si2 0.442014 0.490624 0.132135
Si Si3 0.970546 0.553798 0.524723
Si Si4 0.401826 0.187744 0.624298
Si Si5 0.333335 0.666668 0.145132
Si Si6 0.907149 0.840418 0.055003
Si Si7 0.333334 0.666668 0.969567
O O1 0.798382 0.706072 0.838843
O O2 0.726950 0.849698 0.904993
O O3 0.618941 0.594788 0.930406
O O4 0.841351 0.749377 0.983830
O O5 0.371654 0.340492 0.137272
O O6 0.370711 0.560871 0.169613
O O7 0.468297 0.521237 0.045293
O O8 0.901491 0.602212 0.581302
O O9 0.894360 0.434924 0.468913
O O10 0.542331 0.208817 0.607517
O O11 0.333334 0.666667 0.057321
O O12 0.856474 0.940237 0.051445
#
# Coordination Sequence:
#
# PCOD8321548 Si02
#       7
#     9   9   9   9   3   9   3
#     4  12  24  44  69 102 144 181 230 291 360 422
#     4  11  26  43  69 104 137 186 229 295 353 420
#     4  12  25  43  73 100 136 183 239 288 350 415
#     4  11  23  41  68  99 133 173 232 287 340 412
#     4   9  21  45  66  99 141 177 235 287 358 417
#     4  10  25  42  70 101 139 181 238 287 349 419
#     4   9  18  36  63  99 120 159 223 287 334 381
#
# _framework density 21.977478999999999
#
# number of rings (size 3 to 8) (size 9 to 14) (size 15 to 20)
#    0.353    0.706    1.765    4.235    4.941    0.000 
#    1.059    0.000    0.000    0.000    0.000    0.000 
#    0.000    0.000    0.000    0.000    0.000    0.000 
#
# Total GULP energy -210606.308277 kJ/mol
# GULP energy per Si atom -12388.606369 kJ/mol
# Density = 2.192746 g / cm^3
# Si number density = 21.977479 Si / 1000 Ang^3
#
#
#
# Elastic Constant Matrix: (Units=GPa)
#
#
# Indices 1 2 3 4 5 6 
#
# 1 81.7722 33.6766 40.6099 2.8169 -5.4387 0.0000
# 2 33.6766 81.7731 40.6098 -2.8169 5.4385 -0.0001
# 3 40.6099 40.6098 137.2065 -0.0002 0.0002 0.0000
# 4 2.8169 -2.8169 -0.0002 29.9797 0.0005 5.4391
# 5 -5.4387 5.4385 0.0002 0.0005 29.9812 2.8169
# 6 0.0000 -0.0001 0.0000 5.4391 2.8169 24.0478
#
#
#
# Elastic Compliance Matrix: (Units=1/GPa)
#
#
# Indices 1 2 3 4 5 6 
#
# 1 0.016436 -0.005497 -0.003238 -0.002061 0.003979 0.000000
# 2 -0.005497 0.016436 -0.003238 0.002061 -0.003979 0.000000
# 3 -0.003238 -0.003238 0.009205 0.000000 0.000000 0.000000
# 4 -0.002061 0.002061 0.000000 0.035187 -0.000001 -0.007958
# 5 0.003979 -0.003979 0.000000 -0.000001 0.035185 -0.004121
# 6 0.000000 0.000000 0.000000 -0.007958 -0.004121 0.043867
#
#
# Mechanical properties :
#
#
# Convention : Reuss Voigt Hill
#
# Bulk Modulus (GPa) = 55.14869 58.94939 57.04904
# Shear Modulus (GPa) = 26.83769 29.19212 28.01491
#
# Velocity S-wave (km/s) = 3.49828 3.64850 3.57418
# Velocity P-wave (km/s) = 6.43933 6.68054 6.56105
#
# Compressibility (1/GPa) = 0.01813280
#
# Stress axis : x y z
#
# Youngs Moduli (GPa) = 60.84042 60.84134 108.63701
#
# Poissons Ratio (x) = 0.33442 0.35176
# Poissons Ratio (y) = 0.33442 0.35175
# Poissons Ratio (z) = 0.19700 0.19699
#
# Static dielectric constant tensor:
#      x y z
#    x 4.176060 0.000000 0.000000 
#    y 0.000000 4.176040 0.000000 
#    z 0.000000 0.000000 3.817310 
# 
# 
# High freq. dielectric constant tensor:
#      x y z
#    x 1.859250 0.000000 0.000000 
#    y 0.000000 1.859250 0.000000 
#    z 0.000000 0.000000 1.870440 
# 
# From -- ./inp_files/1991.got.cif
#   From: 2010.06.25/outbox.cif.g09.slc.cpg/sg146_cif.got.tgz:1991.got - 2010.06.28 11:17:22.
