data_PCOD8321667
_publ_section_title
;
Structure prediction by ZEFSAII (Michael W. Deem and Ramdas Pophale) SiO2 
 PCOD8321667
Probable space group: P -3
;
_chemical_formula_sum "Si O2"
_cell_formula_units_Z 36
_cell_length_a 17.300859
_cell_length_b 17.300859
_cell_length_c 9.149186
_cell_angle_alpha 90.000000
_cell_angle_beta 90.000000
_cell_angle_gamma 120.000000
_cell_volume 2371.638118
_symmetry_space_group_name_H-M "P -3"
_symmetry_group_IT_number 147
_symmetry_cell_setting 'hexagonal'
loop_
_space_group_symop_operation_xyz
x,y,z
-y,x-y,z
-x+y,-x,z
-x,-y,-z
y,-x+y,-z
x-y,x,-z
loop_
_atom_site_type_symbol
_atom_site_label
_atom_site_fract_x
_atom_site_fract_y
_atom_site_fract_z
Si Si1 0.407624 0.417609 0.166343
Si Si2 0.333365 0.495714 0.650253
Si Si3 0.333365 0.837651 0.650253
Si Si4 0.265107 0.913416 0.410658
Si Si5 0.417609 0.407624 0.833657
Si Si6 0.734893 0.648308 0.589342
O O1 0.460287 0.370667 0.224926
O O2 0.474015 0.525985 0.178762
O O3 0.314125 0.378595 0.253298
O O4 0.385526 0.385526 1.000000
O O5 0.243606 0.487212 0.714222
O O6 0.402445 0.597555 0.610542
O O7 0.370667 0.460287 0.775074
O O8 0.316586 0.442078 0.501151
O O9 0.316586 0.874508 0.501151
O O10 0.314125 0.935530 0.253298
O O11 0.159760 0.840240 0.392138
O O12 0.275522 0.000000 0.500000
#
# Coordination Sequence:
#
# PCOD8321667 Si02
#       6
#     6   6   6   6   6   6
#     4   9  17  28  41  59  85 114 140 167 201 240
#     4   9  16  26  41  60  82 108 138 170 202 237
#     4   9  16  26  41  60  82 108 138 170 202 237
#     4   9  17  29  45  63  82 106 137 172 207 244
#     4   9  17  28  41  59  85 114 140 167 201 240
#     4   9  17  29  45  63  82 106 137 172 207 244
#
# _framework density 15.179380999999999
#
# number of rings (size 3 to 8) (size 9 to 14) (size 15 to 20)
#    0.000    3.000    0.000    1.333    0.000    5.333 
#    0.000    0.000    0.000    1.000    0.000    0.000 
#    0.000    1.333    0.000    0.000    0.000    0.000 
#
# Total GULP energy -446105.481711 kJ/mol
# GULP energy per Si atom -12391.818936 kJ/mol
# Density = 1.514483 g / cm^3
# Si number density = 15.179381 Si / 1000 Ang^3
#
#
#
# Elastic Constant Matrix: (Units=GPa)
#
#
# Indices 1 2 3 4 5 6 
#
# 1 81.4367 42.9491 40.5195 2.0074 0.0000 0.0000
# 2 42.9491 81.4367 40.5195 -2.0074 0.0000 0.0000
# 3 40.5195 40.5195 104.2559 0.0000 0.0000 0.0000
# 4 2.0074 -2.0074 0.0000 13.6170 0.0000 0.0000
# 5 0.0000 0.0000 0.0000 0.0000 13.6170 2.0074
# 6 0.0000 0.0000 0.0000 0.0000 2.0074 19.2438
#
#
#
# Elastic Compliance Matrix: (Units=1/GPa)
#
#
# Indices 1 2 3 4 5 6 
#
# 1 0.018577 -0.007811 -0.004184 -0.003890 0.000000 0.000000
# 2 -0.007811 0.018577 -0.004184 0.003890 0.000000 0.000000
# 3 -0.004184 -0.004184 0.012844 0.000000 0.000000 0.000000
# 4 -0.003890 0.003890 0.000000 0.074584 0.000000 0.000000
# 5 0.000000 0.000000 0.000000 0.000000 0.074584 -0.007780
# 6 0.000000 0.000000 0.000000 0.000000 -0.007780 0.052776
#
#
# Mechanical properties :
#
#
# Convention : Reuss Voigt Hill
#
# Bulk Modulus (GPa) = 56.69309 57.23393 56.96351
# Shear Modulus (GPa) = 17.23059 18.83831 18.03445
#
# Velocity S-wave (km/s) = 3.37283 3.52667 3.45061
# Velocity P-wave (km/s) = 7.25243 7.37361 7.31327
#
# Compressibility (1/GPa) = 0.01763883
#
# Stress axis : x y z
#
# Youngs Moduli (GPa) = 53.83047 53.83047 77.85683
#
# Poissons Ratio (x) = 0.42049 0.32576
# Poissons Ratio (y) = 0.42049 0.32576
# Poissons Ratio (z) = 0.22523 0.22523
#
# Static dielectric constant tensor:
#      x y z
#    x 3.023400 0.000000 0.000000 
#    y 0.000000 3.023400 0.000000 
#    z 0.000000 0.000000 2.816040 
# 
# 
# High freq. dielectric constant tensor:
#      x y z
#    x 1.569380 0.000000 0.000000 
#    y 0.000000 1.569380 0.000000 
#    z 0.000000 0.000000 1.578740 
# 
# From -- ./inp_files/588.got.cif
#   From: 2010.03.12/outbox.cif.g09.slc.cpg/sg147_cif.got.tgz:588.got - 2010.04.03 13:37:56.
