data_PCOD8321710
_publ_section_title
;
Structure prediction by ZEFSAII (Michael W. Deem and Ramdas Pophale) SiO2 
 PCOD8321710
Probable space group: R -3
;
_chemical_formula_sum "Si O2"
_cell_formula_units_Z 132
_cell_length_a 22.707614
_cell_length_b 22.707614
_cell_length_c 14.951737
_cell_angle_alpha 90.000000
_cell_angle_beta 90.000000
_cell_angle_gamma 120.000000
_cell_volume 6676.752647
_symmetry_space_group_name_H-M "R -3"
_symmetry_group_IT_number 148
_symmetry_cell_setting 'hexagonal'
loop_
_space_group_symop_operation_xyz
x,y,z
-y,x-y,z
-x+y,-x,z
-x,-y,-z
y,-x+y,-z
x-y,x,-z
2/3+x,1/3+y,1/3+z
2/3-y,1/3+x-y,1/3+z
2/3-x+y,1/3-x,1/3+z
2/3-x,1/3-y,1/3-z
2/3+y,1/3-x+y,1/3-z
2/3+x-y,1/3+x,1/3-z
1/3+x,2/3+y,2/3+z
1/3-y,2/3+x-y,2/3+z
1/3-x+y,2/3-x,2/3+z
1/3-x,2/3-y,2/3-z
1/3+y,2/3-x+y,2/3-z
1/3+x-y,2/3+x,2/3-z
loop_
_atom_site_type_symbol
_atom_site_label
_atom_site_fract_x
_atom_site_fract_y
_atom_site_fract_z
Si Si1 0.333333 0.666667 0.773295
Si Si2 0.861752 0.282888 0.919889
Si Si3 0.408214 0.228083 0.777766
Si Si4 0.219601 0.343019 0.911449
Si Si5 0.402443 0.200483 0.582869
Si Si6 0.070779 0.381548 0.508413
Si Si7 0.122568 0.628265 0.673518
Si Si8 0.814955 0.436240 0.210106
O O1 0.333335 0.666668 0.666667
O O2 0.265073 0.602089 0.812151
O O3 0.797062 0.233903 0.858584
O O4 0.875153 0.359095 0.908354
O O5 0.933263 0.291513 0.886817
O O6 0.842184 0.251751 0.021811
O O7 0.406115 0.187719 0.687612
O O8 0.327305 0.201029 0.795570
O O9 0.166667 0.333334 0.833334
O O10 0.286161 0.344591 0.868272
O O11 0.177685 0.281440 0.979371
O O12 0.391432 0.264754 0.565485
O O13 0.475336 0.218757 0.545116
O O14 0.104143 0.440209 0.584764
O O15 0.174800 0.607946 0.714609
O O16 0.155160 0.667777 0.582909
#
# Coordination Sequence:
#
# PCOD8321710 Si02
#       8
#     6  18  18  18  18  18  18  18
#     4  12  21  36  57  81 129 172 206 250 309 402
#     4  10  22  40  64  89 122 162 214 258 325 388
#     4  10  20  42  62  88 116 164 207 267 316 386
#     4  11  22  38  55  91 126 160 198 264 324 373
#     4   9  20  37  63  79 120 159 210 252 318 377
#     4   9  19  36  56  85 120 164 191 257 312 376
#     4  10  20  33  56  80 119 153 197 244 304 370
#     4  11  20  37  55  88 113 167 204 248 307 380
#
# _framework density 19.770088999999999
#
# number of rings (size 3 to 8) (size 9 to 14) (size 15 to 20)
#    0.000    1.909    2.727    1.636    1.909    1.091 
#    4.909    0.000    0.000    0.273    0.000    0.000 
#    0.000    0.000    0.000    0.000    0.000    0.000 
#
# Total GULP energy -545139.437973 kJ/mol
# GULP energy per Si atom -12389.532681 kJ/mol
# Density = 1.972509 g / cm^3
# Si number density = 19.770089 Si / 1000 Ang^3
#
#
#
# Elastic Constant Matrix: (Units=GPa)
#
#
# Indices 1 2 3 4 5 6 
#
# 1 73.6694 16.4448 31.0358 -3.1861 0.1676 0.0000
# 2 16.4448 73.6694 31.0358 3.1861 -0.1676 0.0000
# 3 31.0358 31.0358 93.5621 0.0000 0.0000 0.0000
# 4 -3.1861 3.1861 0.0000 26.9200 0.0000 -0.1676
# 5 0.1676 -0.1676 0.0000 0.0000 26.9200 -3.1861
# 6 0.0000 0.0000 0.0000 -0.1676 -3.1861 28.6123
#
#
#
# Elastic Compliance Matrix: (Units=1/GPa)
#
#
# Indices 1 2 3 4 5 6 
#
# 1 0.016046 -0.001663 -0.004771 0.002096 -0.000110 0.000000
# 2 -0.001663 0.016046 -0.004771 -0.002096 0.000110 0.000000
# 3 -0.004771 -0.004771 0.013853 0.000000 0.000000 0.000000
# 4 0.002096 -0.002096 0.000000 0.037645 0.000000 0.000221
# 5 -0.000110 0.000110 0.000000 0.000000 0.037645 0.004192
# 6 0.000000 0.000000 0.000000 0.000221 0.004192 0.035418
#
#
# Mechanical properties :
#
#
# Convention : Reuss Voigt Hill
#
# Bulk Modulus (GPa) = 42.48877 44.21483 43.35180
# Shear Modulus (GPa) = 26.75100 27.31608 27.03354
#
# Velocity S-wave (km/s) = 3.68245 3.72114 3.70184
# Velocity P-wave (km/s) = 6.29434 6.39340 6.34406
#
# Compressibility (1/GPa) = 0.02353563
#
# Stress axis : x y z
#
# Youngs Moduli (GPa) = 62.31981 62.31983 72.18435
#
# Poissons Ratio (x) = 0.10362 0.34441
# Poissons Ratio (y) = 0.10362 0.34441
# Poissons Ratio (z) = 0.29734 0.29734
#
# Static dielectric constant tensor:
#      x y z
#    x 3.494140 0.000000 0.000000 
#    y 0.000000 3.494140 0.000000 
#    z 0.000000 0.000000 3.647930 
# 
# 
# High freq. dielectric constant tensor:
#      x y z
#    x 1.752880 0.000000 0.000000 
#    y 0.000000 1.752880 0.000000 
#    z 0.000000 0.000000 1.773060 
# 
# From -- ./inp_files/2258.got.cif
#   From: 2010.03.12/outbox.cif.g09.slc.cpg/sg148_2_cif.got.tgz:2258.got - 2010.04.03 13:38:46.
