data_PCOD8321525
_publ_section_title
;
Structure prediction by ZEFSAII (Michael W. Deem and Ramdas Pophale) SiO2 
 PCOD8321525
Probable space group: R 3
;
_chemical_formula_sum "Si O2"
_cell_formula_units_Z 42
_cell_length_a 10.790401
_cell_length_b 10.790401
_cell_length_c 19.717114
_cell_angle_alpha 90.000000
_cell_angle_beta 90.000000
_cell_angle_gamma 120.000000
_cell_volume 1988.150003
_symmetry_space_group_name_H-M "R 3"
_symmetry_group_IT_number 146
_symmetry_cell_setting 'hexagonal'
loop_
_space_group_symop_operation_xyz
x,y,z
-y,x-y,z
-x+y,-x,z
2/3+x,1/3+y,1/3+z
2/3-y,1/3+x-y,1/3+z
2/3-x+y,1/3-x,1/3+z
1/3+x,2/3+y,2/3+z
1/3-y,2/3+x-y,2/3+z
1/3-x+y,2/3-x,2/3+z
loop_
_atom_site_type_symbol
_atom_site_label
_atom_site_fract_x
_atom_site_fract_y
_atom_site_fract_z
Si Si1 0.578834 0.874540 0.951870
Si Si2 0.000000 0.000000 0.032634
Si Si3 0.538857 0.471853 0.274860
Si Si4 0.707567 0.637183 0.679264
Si Si5 0.333334 0.666668 0.860440
Si Si6 0.190815 0.500211 0.463769
O O1 0.478934 0.911603 0.996279
O O2 0.630700 0.789206 0.001675
O O3 0.492967 0.776694 0.887589
O O4 0.709145 0.023212 0.924123
O O5 0.000000 0.000000 0.113490
O O6 0.914264 0.838654 0.005808
O O7 0.562562 0.627063 0.298110
O O8 0.641887 0.503537 0.210531
O O9 0.740711 0.695466 0.756391
O O10 0.355497 0.538268 0.447766
#
# Coordination Sequence:
#
# PCOD8321525 Si02
#       6
#     9   3   9   9   3   9
#     4  10  23  44  63  99 135 172 220 278 324 408
#     4  12  21  42  69 105 120 178 224 277 333 393
#     4  12  22  44  67  96 136 167 230 279 322 400
#     4  11  23  41  69  93 136 178 216 276 336 388
#     4   9  24  42  69  93 138 175 224 265 351 384
#     4  10  21  41  67  96 131 172 220 271 328 385
#
# _framework density 21.125167999999999
#
# number of rings (size 3 to 8) (size 9 to 14) (size 15 to 20)
#    0.429    0.857    4.286    1.714    0.000    6.857 
#    5.143    0.000    0.000    0.000    0.000    0.000 
#    0.000    0.000    0.000    0.000    0.000    0.000 
#
# Total GULP energy -173512.665592 kJ/mol
# GULP energy per Si atom -12393.761828 kJ/mol
# Density = 2.107709 g / cm^3
# Si number density = 21.125168 Si / 1000 Ang^3
#
#
#
# Elastic Constant Matrix: (Units=GPa)
#
#
# Indices 1 2 3 4 5 6 
#
# 1 90.6810 26.9680 40.2712 -6.8345 2.4672 -0.0001
# 2 26.9680 90.6806 40.2708 6.8347 -2.4671 0.0001
# 3 40.2712 40.2708 140.6473 0.0001 0.0000 0.0000
# 4 -6.8345 6.8347 0.0001 27.3923 0.0001 -2.4672
# 5 2.4672 -2.4671 0.0000 0.0001 27.3923 -6.8345
# 6 -0.0001 0.0001 0.0000 -2.4672 -6.8345 31.8563
#
#
#
# Elastic Compliance Matrix: (Units=1/GPa)
#
#
# Indices 1 2 3 4 5 6 
#
# 1 0.013639 -0.003067 -0.003027 0.004168 -0.001505 0.000000
# 2 -0.003067 0.013639 -0.003027 -0.004168 0.001505 0.000000
# 3 -0.003027 -0.003027 0.008843 0.000000 0.000000 0.000000
# 4 0.004168 -0.004168 0.000000 0.038858 0.000000 0.003009
# 5 -0.001505 0.001505 0.000000 0.000000 0.038858 0.008336
# 6 0.000000 0.000000 0.000000 0.003009 0.008336 0.033413
#
#
# Mechanical properties :
#
#
# Convention : Reuss Voigt Hill
#
# Bulk Modulus (GPa) = 55.93003 59.66989 57.79996
# Shear Modulus (GPa) = 29.16267 31.62811 30.39539
#
# Velocity S-wave (km/s) = 3.71950 3.87353 3.79730
# Velocity P-wave (km/s) = 6.70666 6.95075 6.82979
#
# Compressibility (1/GPa) = 0.01787948
#
# Stress axis : x y z
#
# Youngs Moduli (GPa) = 73.31799 73.31781 113.07789
#
# Poissons Ratio (x) = 0.22487 0.34230
# Poissons Ratio (y) = 0.22487 0.34230
# Poissons Ratio (z) = 0.22194 0.22194
#
# Static dielectric constant tensor:
#      x y z
#    x 3.987310 0.000000 0.000000 
#    y 0.000000 3.987320 0.000000 
#    z 0.000000 0.000000 3.481380 
# 
# 
# High freq. dielectric constant tensor:
#      x y z
#    x 1.828390 0.000000 0.000000 
#    y 0.000000 1.828390 0.000000 
#    z 0.000000 0.000000 1.808450 
# 
# From -- ./inp_files/1661.got.cif
#   From: 2010.06.25/outbox.cif.g09.slc.cpg/sg146_cif.got.tgz:1661.got - 2010.06.28 11:17:22.
