data_PCOD8321668
_publ_section_title
;
Structure prediction by ZEFSAII (Michael W. Deem and Ramdas Pophale) SiO2 
 PCOD8321668
Probable space group: P -3
;
_chemical_formula_sum "Si O2"
_cell_formula_units_Z 40
_cell_length_a 14.573604
_cell_length_b 14.573604
_cell_length_c 12.071670
_cell_angle_alpha 90.000000
_cell_angle_beta 90.000000
_cell_angle_gamma 120.000000
_cell_volume 2220.403563
_symmetry_space_group_name_H-M "P -3"
_symmetry_group_IT_number 147
_symmetry_cell_setting 'hexagonal'
loop_
_space_group_symop_operation_xyz
x,y,z
-y,x-y,z
-x+y,-x,z
-x,-y,-z
y,-x+y,-z
x-y,x,-z
loop_
_atom_site_type_symbol
_atom_site_label
_atom_site_fract_x
_atom_site_fract_y
_atom_site_fract_z
Si Si1 0.730171 0.564469 0.522657
Si Si2 0.436102 0.198995 0.272938
Si Si3 0.775416 0.856757 0.519312
Si Si4 0.677716 0.683234 0.685910
Si Si5 0.174692 0.236453 0.873492
Si Si6 0.333334 0.666667 0.482747
Si Si7 0.333334 0.666667 0.746817
Si Si8 0.234608 0.061347 0.873854
O O1 0.708847 0.564168 0.390848
O O2 0.849576 0.662419 0.543590
O O3 0.651697 0.588598 0.598056
O O4 0.717053 0.453220 0.562347
O O5 0.425015 0.304736 0.290711
O O6 0.343319 0.110635 0.198852
O O7 0.549609 0.245039 0.212131
O O8 0.851225 0.831014 0.444565
O O9 0.763056 0.796945 0.634286
O O10 0.734271 0.673954 0.797219
O O11 0.218929 0.159173 0.839096
O O12 0.048237 0.172667 0.858717
O O13 0.202612 0.274188 0.000454
O O14 0.333334 0.666667 0.614105
#
# Coordination Sequence:
#
# PCOD8321668 Si02
#       8
#     6   6   6   6   6   2   2   6
#     4   9  18  32  48  69  94 122 158 194 234 283
#     4   9  18  32  50  69  93 125 159 202 237 270
#     4   9  17  28  41  64  98 128 155 188 230 282
#     4   9  18  30  45  70 101 125 153 193 236 283
#     4   9  17  30  47  70  97 130 162 187 230 278
#     4   9  18  36  54  67  92 127 159 201 241 275
#     4   9  18  36  54  70  89 118 171 210 235 272
#     4   9  17  28  46  69 100 130 157 191 226 284
#
# _framework density 18.014741999999998
#
# number of rings (size 3 to 8) (size 9 to 14) (size 15 to 20)
#    0.000    3.000    0.000    0.450    0.000   12.000 
#    0.000   23.250    0.000    9.900    0.000    0.000 
#    0.000    0.000    0.000    0.000    0.000    0.000 
#
# Total GULP energy -495552.626747 kJ/mol
# GULP energy per Si atom -12388.815669 kJ/mol
# Density = 1.797374 g / cm^3
# Si number density = 18.014742 Si / 1000 Ang^3
#
#
#
# Elastic Constant Matrix: (Units=GPa)
#
#
# Indices 1 2 3 4 5 6 
#
# 1 65.5515 20.6014 16.4821 1.4100 -0.2062 0.0006
# 2 20.6014 65.5577 16.4831 -1.4103 0.2057 0.0001
# 3 16.4821 16.4831 59.4582 0.0000 -0.0001 0.0001
# 4 1.4100 -1.4103 0.0000 15.1605 -0.0003 0.2058
# 5 -0.2062 0.2057 -0.0001 -0.0003 15.1602 1.4101
# 6 0.0006 0.0001 0.0001 0.2058 1.4101 22.4771
#
#
#
# Elastic Compliance Matrix: (Units=1/GPa)
#
#
# Indices 1 2 3 4 5 6 
#
# 1 0.017682 -0.004697 -0.003599 -0.002082 0.000304 0.000000
# 2 -0.004697 0.017681 -0.003599 0.002082 -0.000304 0.000000
# 3 -0.003599 -0.003599 0.018814 0.000000 0.000000 0.000000
# 4 -0.002082 0.002082 0.000000 0.066356 0.000001 -0.000608
# 5 0.000304 -0.000304 0.000000 0.000001 0.066357 -0.004163
# 6 0.000000 0.000000 0.000000 -0.000608 -0.004163 0.044756
#
#
# Mechanical properties :
#
#
# Convention : Reuss Voigt Hill
#
# Bulk Modulus (GPa) = 32.91120 33.07785 32.99453
# Shear Modulus (GPa) = 18.82761 19.69297 19.26029
#
# Velocity S-wave (km/s) = 3.23634 3.30988 3.27332
# Velocity P-wave (km/s) = 5.68101 5.74530 5.71325
#
# Compressibility (1/GPa) = 0.03038479
#
# Stress axis : x y z
#
# Youngs Moduli (GPa) = 56.55408 56.55925 53.15158
#
# Poissons Ratio (x) = 0.26568 0.19131
# Poissons Ratio (y) = 0.26565 0.19131
# Poissons Ratio (z) = 0.20356 0.20358
#
# Static dielectric constant tensor:
#      x y z
#    x 3.328410 -0.000010 0.000000 
#    y -0.000010 3.328410 0.000000 
#    z 0.000000 0.000000 3.356930 
# 
# 
# High freq. dielectric constant tensor:
#      x y z
#    x 1.678950 0.000000 0.000000 
#    y 0.000000 1.678950 0.000000 
#    z 0.000000 0.000000 1.676770 
# 
# From -- ./inp_files/832.got.cif
#   From: 2010.03.12/outbox.cif.g09.slc.cpg/sg147_cif.got.tgz:832.got - 2010.04.03 13:37:56.
