data_PCOD8321818
_publ_section_title
;
Structure prediction by ZEFSAII (Michael W. Deem and Ramdas Pophale) SiO2 
 PCOD8321818
Probable space group: R -3
;
_chemical_formula_sum "Si O2"
_cell_formula_units_Z 72
_cell_length_a 20.173566
_cell_length_b 20.173566
_cell_length_c 9.286074
_cell_angle_alpha 90.000000
_cell_angle_beta 90.000000
_cell_angle_gamma 120.000000
_cell_volume 3272.865204
_symmetry_space_group_name_H-M "R -3"
_symmetry_group_IT_number 148
_symmetry_cell_setting 'hexagonal'
loop_
_space_group_symop_operation_xyz
x,y,z
-y,x-y,z
-x+y,-x,z
-x,-y,-z
y,-x+y,-z
x-y,x,-z
2/3+x,1/3+y,1/3+z
2/3-y,1/3+x-y,1/3+z
2/3-x+y,1/3-x,1/3+z
2/3-x,1/3-y,1/3-z
2/3+y,1/3-x+y,1/3-z
2/3+x-y,1/3+x,1/3-z
1/3+x,2/3+y,2/3+z
1/3-y,2/3+x-y,2/3+z
1/3-x+y,2/3-x,2/3+z
1/3-x,2/3-y,2/3-z
1/3+y,2/3-x+y,2/3-z
1/3+x-y,2/3+x,2/3-z
loop_
_atom_site_type_symbol
_atom_site_label
_atom_site_fract_x
_atom_site_fract_y
_atom_site_fract_z
Si Si1 0.274808 0.079482 0.426966
Si Si2 0.901117 0.533832 0.650975
Si Si3 0.316005 0.918698 0.794701
Si Si4 0.201075 0.517857 0.615486
O O1 0.266181 0.153435 0.404791
O O2 0.244581 0.027439 0.285940
O O3 0.363313 0.103698 0.442875
O O4 0.230393 0.034484 0.568945
O O5 0.833401 0.479885 0.540526
O O6 0.971840 0.604153 0.565200
O O7 0.283281 0.850007 0.680913
O O8 0.200723 0.580091 0.725439
#
# Coordination Sequence:
#
# PCOD8321818 Si02
#       4
#    18  18  18  18
#     4  12  25  42  68 101 140 171 220 276 335 394
#     4  12  26  44  68 105 135 173 223 277 339 395
#     4  12  23  45  68 102 134 173 222 280 337 397
#     4  12  26  46  70  93 134 182 229 270 325 401
#
# _framework density 21.999075000000001
#
# number of rings (size 3 to 8) (size 9 to 14) (size 15 to 20)
#    0.000    0.000    7.500    2.500    3.500    1.000 
#    0.000    0.000    0.000    2.000    0.000    0.000 
#    0.000    0.000    0.000    0.000    0.000    0.000 
#
# Total GULP energy -297635.638346 kJ/mol
# GULP energy per Si atom -12401.484931 kJ/mol
# Density = 2.194900 g / cm^3
# Si number density = 21.999075 Si / 1000 Ang^3
#
#
#
# Elastic Constant Matrix: (Units=GPa)
#
#
# Indices 1 2 3 4 5 6 
#
# 1 74.5450 14.7911 24.4922 -0.3922 6.6674 -0.0008
# 2 14.7911 74.5460 24.4949 0.3899 -6.6702 -0.0001
# 3 24.4922 24.4949 97.9155 -0.0053 -0.0063 -0.0028
# 4 -0.3922 0.3899 -0.0053 28.1607 -0.0030 -6.6707
# 5 6.6674 -6.6702 -0.0063 -0.0030 28.1589 -0.3917
# 6 -0.0008 -0.0001 -0.0028 -6.6707 -0.3917 29.8769
#
#
#
# Elastic Compliance Matrix: (Units=1/GPa)
#
#
# Indices 1 2 3 4 5 6 
#
# 1 0.015323 -0.002350 -0.003245 0.000245 -0.004185 0.000000
# 2 -0.002350 0.015323 -0.003245 -0.000245 0.004185 0.000000
# 3 -0.003245 -0.003245 0.011836 0.000002 0.000002 0.000002
# 4 0.000245 -0.000245 0.000002 0.037501 0.000004 0.008373
# 5 -0.004185 0.004185 0.000002 0.000004 0.037502 0.000493
# 6 0.000000 0.000000 0.000002 0.008373 0.000493 0.035347
#
#
# Mechanical properties :
#
#
# Convention : Reuss Voigt Hill
#
# Bulk Modulus (GPa) = 40.31964 41.61811 40.96887
# Shear Modulus (GPa) = 27.96750 29.45453 28.71101
#
# Velocity S-wave (km/s) = 3.56940 3.66307 3.61654
# Velocity P-wave (km/s) = 5.94602 6.07041 6.00854
#
# Compressibility (1/GPa) = 0.02480181
#
# Stress axis : x y z
#
# Youngs Moduli (GPa) = 65.26213 65.26193 84.48461
#
# Poissons Ratio (x) = 0.15335 0.27417
# Poissons Ratio (y) = 0.15335 0.27417
# Poissons Ratio (z) = 0.21179 0.21179
#
# Static dielectric constant tensor:
#      x y z
#    x 3.826190 0.000000 0.000000 
#    y 0.000000 3.826190 0.000000 
#    z 0.000000 0.000000 4.066610 
# 
# 
# High freq. dielectric constant tensor:
#      x y z
#    x 1.860900 0.000000 0.000000 
#    y 0.000000 1.860900 0.000000 
#    z 0.000000 0.000000 1.872570 
# 
# From -- ./inp_files/796.got.cif
#   From: 2010.03.12/outbox.cif.g09.slc.cpg/sg148_1_cif.got.tgz:796.got - 2010.04.03 13:38:46.
