data_PCOD8321739
_publ_section_title
;
Structure prediction by ZEFSAII (Michael W. Deem and Ramdas Pophale) SiO2 
 PCOD8321739
Probable space group: R -3
;
_chemical_formula_sum "Si O2"
_cell_formula_units_Z 108
_cell_length_a 21.465211
_cell_length_b 21.465211
_cell_length_c 12.491704
_cell_angle_alpha 90.000000
_cell_angle_beta 90.000000
_cell_angle_gamma 120.000000
_cell_volume 4984.511935
_symmetry_space_group_name_H-M "R -3"
_symmetry_group_IT_number 148
_symmetry_cell_setting 'hexagonal'
loop_
_space_group_symop_operation_xyz
x,y,z
-y,x-y,z
-x+y,-x,z
-x,-y,-z
y,-x+y,-z
x-y,x,-z
2/3+x,1/3+y,1/3+z
2/3-y,1/3+x-y,1/3+z
2/3-x+y,1/3-x,1/3+z
2/3-x,1/3-y,1/3-z
2/3+y,1/3-x+y,1/3-z
2/3+x-y,1/3+x,1/3-z
1/3+x,2/3+y,2/3+z
1/3-y,2/3+x-y,2/3+z
1/3-x+y,2/3-x,2/3+z
1/3-x,2/3-y,2/3-z
1/3+y,2/3-x+y,2/3-z
1/3+x-y,2/3+x,2/3-z
loop_
_atom_site_type_symbol
_atom_site_label
_atom_site_fract_x
_atom_site_fract_y
_atom_site_fract_z
Si Si1 0.021218 0.694060 0.966015
Si Si2 0.102665 0.213825 0.234740
Si Si3 0.716629 0.493406 0.351364
Si Si4 0.761234 0.491303 0.793733
Si Si5 0.903285 0.551663 0.471445
Si Si6 0.230312 0.311393 0.466574
O O1 0.944289 0.663288 0.907562
O O2 0.084049 0.726308 0.875646
O O3 0.032687 0.756608 0.047446
O O4 0.028210 0.633320 0.030655
O O5 0.068586 0.166932 0.341889
O O6 0.171529 0.205418 0.213258
O O7 0.125252 0.297331 0.238939
O O8 0.044461 0.182697 0.138759
O O9 0.767821 0.461144 0.355327
O O10 0.742351 0.556997 0.262077
O O11 0.793221 0.436670 0.798009
O O12 0.824014 0.570738 0.827481
#
# Coordination Sequence:
#
# PCOD8321739 Si02
#       6
#    18  18  18  18  18  18
#     4  10  21  38  65  97 134 169 214 274 343 407
#     4  11  23  42  68  96 135 172 223 278 334 404
#     4  10  22  42  65  93 128 177 222 273 327 394
#     4  12  28  46  68  97 135 181 233 277 332 396
#     4  10  21  39  63  95 133 171 218 275 335 401
#     4  11  22  41  68 101 134 177 217 278 343 405
#
# _framework density 21.667114999999999
#
# number of rings (size 3 to 8) (size 9 to 14) (size 15 to 20)
#    0.000    1.333    3.333    1.833    4.667    2.667 
#    0.000    5.000    0.000    0.000    0.000    0.000 
#    0.000    0.000    0.000    0.000    0.000    0.000 
#
# Total GULP energy -446058.176969 kJ/mol
# GULP energy per Si atom -12390.504916 kJ/mol
# Density = 2.161780 g / cm^3
# Si number density = 21.667115 Si / 1000 Ang^3
#
#
#
# Elastic Constant Matrix: (Units=GPa)
#
#
# Indices 1 2 3 4 5 6 
#
# 1 63.3879 25.4633 19.9136 -3.6607 1.7877 0.0000
# 2 25.4633 63.3879 19.9136 3.6607 -1.7877 0.0000
# 3 19.9136 19.9136 83.6221 0.0000 0.0000 0.0000
# 4 -3.6607 3.6607 0.0000 34.6937 0.0000 -1.7877
# 5 1.7877 -1.7877 0.0000 0.0000 34.6937 -3.6607
# 6 0.0000 0.0000 0.0000 -1.7877 -3.6607 18.9623
#
#
#
# Elastic Compliance Matrix: (Units=1/GPa)
#
#
# Indices 1 2 3 4 5 6 
#
# 1 0.019825 -0.007225 -0.003000 0.002854 -0.001394 0.000000
# 2 -0.007225 0.019825 -0.003000 -0.002854 0.001394 0.000000
# 3 -0.003000 -0.003000 0.013388 0.000000 0.000000 0.000000
# 4 0.002854 -0.002854 0.000000 0.029570 0.000000 0.002788
# 5 -0.001394 0.001394 0.000000 0.000000 0.029570 0.005708
# 6 0.000000 0.000000 0.000000 0.002788 0.005708 0.054101
#
#
# Mechanical properties :
#
#
# Convention : Reuss Voigt Hill
#
# Bulk Modulus (GPa) = 37.61497 37.88656 37.75076
# Shear Modulus (GPa) = 24.80250 27.34376 26.07313
#
# Velocity S-wave (km/s) = 3.38702 3.55631 3.47270
# Velocity P-wave (km/s) = 5.71787 5.86403 5.79141
#
# Compressibility (1/GPa) = 0.02658516
#
# Stress axis : x y z
#
# Youngs Moduli (GPa) = 50.44107 50.44107 74.69583
#
# Poissons Ratio (x) = 0.36446 0.22412
# Poissons Ratio (y) = 0.36446 0.22412
# Poissons Ratio (z) = 0.15135 0.15135
#
# Static dielectric constant tensor:
#      x y z
#    x 3.817030 0.000000 0.000000 
#    y 0.000000 3.817030 0.000000 
#    z 0.000000 0.000000 4.962100 
# 
# 
# High freq. dielectric constant tensor:
#      x y z
#    x 1.839970 0.000000 0.000000 
#    y 0.000000 1.839970 0.000000 
#    z 0.000000 0.000000 1.870120 
# 
# From -- ./inp_files/1542.got.cif
#   From: 2010.03.12/outbox.cif.g09.slc.cpg/sg148_1_cif.got.tgz:1542.got - 2010.04.03 13:38:46.
