data_PCOD8321841
_publ_section_title
;
Structure prediction by ZEFSAII (Michael W. Deem and Ramdas Pophale) SiO2 
 PCOD8321841
Probable space group: P 3 1 2
;
_chemical_formula_sum "Si O2"
_cell_formula_units_Z 42
_cell_length_a 13.168588
_cell_length_b 13.168588
_cell_length_c 17.481068
_cell_angle_alpha 90.000000
_cell_angle_beta 90.000000
_cell_angle_gamma 120.000000
_cell_volume 2625.288369
_symmetry_space_group_name_H-M "P 3 1 2"
_symmetry_group_IT_number 149
_symmetry_cell_setting 'hexagonal'
loop_
_space_group_symop_operation_xyz
x,y,z
-y,x-y,z
-x+y,-x,z
-y,-x,-z
-x+y,y,-z
x,x-y,-z
loop_
_atom_site_type_symbol
_atom_site_label
_atom_site_fract_x
_atom_site_fract_y
_atom_site_fract_z
Si Si1 0.333157 0.901724 0.586756
Si Si2 0.094253 0.668452 0.000000
Si Si3 0.766210 0.765687 0.700728
Si Si4 0.234679 0.235026 0.123919
Si Si5 0.568567 0.901724 0.586756
Si Si6 0.766210 0.000522 0.700728
Si Si7 0.000347 0.235025 0.123919
O O1 0.451931 0.903862 0.604798
O O2 0.229368 0.770632 0.601924
O O3 0.329205 0.941310 0.500000
O O4 0.326240 0.991557 0.645275
O O5 0.027515 0.679233 0.925845
O O6 0.230533 0.769468 0.000000
O O7 0.085525 0.542763 0.000000
O O8 0.027516 0.679233 0.074156
O O9 0.729329 0.728563 0.788347
O O10 0.881776 0.763551 0.678669
O O11 0.791649 0.895824 0.684816
O O12 0.247511 0.123755 0.100097
O O13 0.099820 0.199640 0.109803
O O14 0.665317 0.991557 0.645275
O O15 0.729330 0.000767 0.788348
#
# Coordination Sequence:
#
# PCOD8321841 Si02
#       7
#     6   6   6   6   6   6   6
#     4   9  17  29  45  65  89 118 152 188 223 259
#     4  10  20  32  46  66  94 124 150 178 216 262
#     4   9  17  29  46  69  95 119 143 176 222 272
#     4   9  17  30  49  71  92 115 145 183 224 264
#     4   9  17  29  45  65  89 118 152 188 223 259
#     4   9  17  29  46  69  95 119 143 176 222 272
#     4   9  17  30  49  71  92 115 145 183 224 264
#
# _framework density 15.998243
#
# number of rings (size 3 to 8) (size 9 to 14) (size 15 to 20)
#    0.000    2.857    0.000    1.429    0.000    5.143 
#    0.000    1.429    0.000    8.000    0.000    0.000 
#    0.000    0.000    0.000    0.000    0.000    0.000 
#
# Total GULP energy -520781.103383 kJ/mol
# GULP energy per Si atom -12399.550081 kJ/mol
# Density = 1.596183 g / cm^3
# Si number density = 15.998243 Si / 1000 Ang^3
#
#
#
# Elastic Constant Matrix: (Units=GPa)
#
#
# Indices 1 2 3 4 5 6 
#
# 1 105.9162 56.3734 66.6781 0.0000 0.0000 0.0000
# 2 56.3734 105.9162 66.6781 0.0000 0.0000 0.0000
# 3 66.6781 66.6781 104.3771 0.0000 0.0000 0.0000
# 4 0.0000 0.0000 0.0000 27.8412 0.0000 0.0000
# 5 0.0000 0.0000 0.0000 0.0000 27.8412 0.0000
# 6 0.0000 0.0000 0.0000 0.0000 0.0000 24.7714
#
#
#
# Elastic Compliance Matrix: (Units=1/GPa)
#
#
# Indices 1 2 3 4 5 6 
#
# 1 0.016577 -0.003607 -0.008286 0.000000 0.000000 0.000000
# 2 -0.003607 0.016577 -0.008286 0.000000 0.000000 0.000000
# 3 -0.008286 -0.008286 0.020167 0.000000 0.000000 0.000000
# 4 0.000000 0.000000 0.000000 0.035918 0.000000 0.000000
# 5 0.000000 0.000000 0.000000 0.000000 0.035918 0.000000
# 6 0.000000 0.000000 0.000000 0.000000 0.000000 0.040369
#
#
# Mechanical properties :
#
#
# Convention : Reuss Voigt Hill
#
# Bulk Modulus (GPa) = 77.13289 77.29655 77.21472
# Shear Modulus (GPa) = 23.78626 24.52275 24.15450
#
# Velocity S-wave (km/s) = 3.86009 3.91940 3.88986
# Velocity P-wave (km/s) = 8.25743 8.30077 8.27913
#
# Compressibility (1/GPa) = 0.01296464
#
# Stress axis : x y z
#
# Youngs Moduli (GPa) = 60.32287 60.32287 49.58651
#
# Poissons Ratio (x) = 0.21759 0.41086
# Poissons Ratio (y) = 0.21759 0.41086
# Poissons Ratio (z) = 0.49982 0.49982
#
# Static dielectric constant tensor:
#      x y z
#    x 2.908520 0.000000 0.000000 
#    y 0.000000 2.908520 0.000000 
#    z 0.000000 0.000000 3.255070 
# 
# 
# High freq. dielectric constant tensor:
#      x y z
#    x 1.599790 0.000000 0.000000 
#    y 0.000000 1.599790 0.000000 
#    z 0.000000 0.000000 1.627860 
# 
# From -- ./inp_files/1089.got.cif
#   From: 2010.03.12/outbox.cif.g09.slc.cpg/sg149_cif.got.tgz:1089.got - 2010.04.03 13:40:41.
