data_PCOD8321266
_publ_section_title
;
Structure prediction by ZEFSAII (Michael W. Deem and Ramdas Pophale) SiO2 
 PCOD8321266
Probable space group: I 41/A C D
;
_chemical_formula_sum "Si O2"
_cell_formula_units_Z 136
_cell_length_a 16.703073
_cell_length_b 16.703073
_cell_length_c 21.894408
_cell_angle_alpha 90.000000
_cell_angle_beta 90.000000
_cell_angle_gamma 90.000000
_cell_volume 6108.378857
_symmetry_space_group_name_H-M "I 41/A C D"
_symmetry_group_IT_number 142
_space_group.IT_coordinate_system_code '2'
_symmetry_cell_setting 'tetragonal'
loop_
_space_group_symop_operation_xyz
x,y,z
1/4-y,3/4+x,1/4+z
-x,1/2-y,z
1/4+y,1/4-x,3/4+z
x,-y,1/2-z
1/2-x,y,-z
3/4+y,1/4+x,1/4-z
1/4-y,1/4-x,1/4-z
-x,-y,-z
3/4+y,1/4-x,3/4-z
x,1/2+y,-z
3/4-y,3/4+x,1/4-z
-x,y,1/2+z
1/2+x,-y,z
1/4-y,3/4-x,3/4+z
3/4+y,3/4+x,3/4+z
1/2+x,1/2+y,1/2+z
3/4-y,1/4+x,3/4+z
1/2-x,-y,1/2+z
3/4+y,3/4-x,1/4+z
1/2+x,1/2-y,-z
-x,1/2+y,1/2-z
1/4+y,3/4+x,3/4-z
3/4-y,3/4-x,3/4-z
1/2-x,1/2-y,1/2-z
1/4+y,3/4-x,1/4-z
1/2+x,y,1/2-z
1/4-y,1/4+x,3/4-z
1/2-x,1/2+y,z
x,1/2-y,1/2+z
3/4-y,1/4-x,1/4+z
1/4+y,1/4+x,1/4+z
loop_
_atom_site_type_symbol
_atom_site_label
_atom_site_fract_x
_atom_site_fract_y
_atom_site_fract_z
Si Si1 0.061339 0.584927 0.225984
Si Si2 0.366982 0.486060 0.612262
Si Si3 0.000000 0.750000 0.625000
Si Si4 0.397444 0.175391 0.715960
Si Si5 0.044129 0.368321 0.072017
O O1 0.034732 0.500000 0.250000
O O2 0.118253 0.574680 0.167536
O O3 0.112812 0.631049 0.276315
O O4 0.979071 0.627490 0.211204
O O5 0.283367 0.533367 0.625000
O O6 0.370056 0.428869 0.551711
O O7 0.442547 0.546478 0.605257
O O8 0.996639 0.668198 0.582874
O O9 0.385884 0.211017 0.784564
O O10 0.049640 0.299640 0.125000
#
# Coordination Sequence:
#
# PCOD8321266 Si02
#       5
#    32  32   8  32  32
#     4  12  23  44  66  94 141 176 227 304 349 413
#     4  11  24  45  70  98 139 190 233 286 369 433
#     4  12  20  40  74 100 124 176 228 302 340 420
#     4  12  23  42  71 104 134 179 244 287 354 430
#     4  11  23  43  73 103 143 185 233 294 357 427
#
# _framework density 22.264499000000001
#
# number of rings (size 3 to 8) (size 9 to 14) (size 15 to 20)
#    0.000    0.471    9.412    0.706    0.000    1.882 
#    4.235    0.000    0.000    0.000    0.000    0.000 
#    0.000    0.000    0.000    0.000    0.000    0.000 
#
# Total GULP energy -842576.677403 kJ/mol
# GULP energy per Si atom -12390.833491 kJ/mol
# Density = 2.221382 g / cm^3
# Si number density = 22.264499 Si / 1000 Ang^3
#
#
#
# Elastic Constant Matrix: (Units=GPa)
#
#
# Indices 1 2 3 4 5 6 
#
# 1 80.8735 36.2234 34.0491 0.0000 0.0000 0.0000
# 2 36.2234 80.8735 34.0491 0.0000 0.0000 0.0000
# 3 34.0491 34.0491 130.7547 0.0000 0.0000 0.0000
# 4 0.0000 0.0000 0.0000 33.1095 0.0000 0.0000
# 5 0.0000 0.0000 0.0000 0.0000 33.1095 0.0000
# 6 0.0000 0.0000 0.0000 0.0000 0.0000 42.3382
#
#
#
# Elastic Compliance Matrix: (Units=1/GPa)
#
#
# Indices 1 2 3 4 5 6 
#
# 1 0.016230 -0.006166 -0.002621 0.000000 0.000000 0.000000
# 2 -0.006166 0.016230 -0.002621 0.000000 0.000000 0.000000
# 3 -0.002621 -0.002621 0.009013 0.000000 0.000000 0.000000
# 4 0.000000 0.000000 0.000000 0.030203 0.000000 0.000000
# 5 0.000000 0.000000 0.000000 0.000000 0.030203 0.000000
# 6 0.000000 0.000000 0.000000 0.000000 0.000000 0.023619
#
#
# Mechanical properties :
#
#
# Convention : Reuss Voigt Hill
#
# Bulk Modulus (GPa) = 53.59634 55.68276 54.63955
# Shear Modulus (GPa) = 32.35564 34.25681 33.30622
#
# Velocity S-wave (km/s) = 3.81627 3.92679 3.87193
# Velocity P-wave (km/s) = 6.59874 6.75452 6.67709
#
# Compressibility (1/GPa) = 0.01865799
#
# Stress axis : x y z
#
# Youngs Moduli (GPa) = 61.61356 61.61356 110.95333
#
# Poissons Ratio (x) = 0.37992 0.29078
# Poissons Ratio (y) = 0.37992 0.29078
# Poissons Ratio (z) = 0.16147 0.16147
#
# Static dielectric constant tensor:
#      x y z
#    x 3.988490 0.000000 0.000000 
#    y 0.000000 3.988490 0.000000 
#    z 0.000000 0.000000 4.539070 
# 
# 
# High freq. dielectric constant tensor:
#      x y z
#    x 1.858880 0.000000 0.000000 
#    y 0.000000 1.858880 0.000000 
#    z 0.000000 0.000000 1.899480 
# 
# From -- ./inp_files/8803.got.cif
#   From: 2010.03.12/outbox.cif.g09.slc.cpg/sg142_5_cif.got.tgz:8803.got - 2010.04.03 13:27:16.
