data_PCOD8321994
_publ_section_title
;
Structure prediction by ZEFSAII (Michael W. Deem and Ramdas Pophale) SiO2 
 PCOD8321994
Probable space group: P 31 1 2
;
_chemical_formula_sum "Si O2"
_cell_formula_units_Z 33
_cell_length_a 11.643210
_cell_length_b 11.643210
_cell_length_c 14.759996
_cell_angle_alpha 90.000000
_cell_angle_beta 90.000000
_cell_angle_gamma 120.000000
_cell_volume 1732.855434
_symmetry_space_group_name_H-M "P 31 1 2"
_symmetry_group_IT_number 151
_symmetry_cell_setting 'hexagonal'
loop_
_space_group_symop_operation_xyz
x,y,z
-y,x-y,1/3+z
-x+y,-x,2/3+z
-y,-x,2/3-z
-x+y,y,1/3-z
x,x-y,-z
loop_
_atom_site_type_symbol
_atom_site_label
_atom_site_fract_x
_atom_site_fract_y
_atom_site_fract_z
Si Si1 0.771333 0.263049 0.050999
Si Si2 0.482261 0.015147 0.835364
Si Si3 0.315556 0.242978 0.570612
Si Si4 0.412520 0.825039 0.666667
Si Si5 0.192173 0.384346 0.666667
Si Si6 0.120765 0.515448 0.355753
Si Si7 0.935699 0.467850 0.500000
O O1 0.871996 0.322800 0.135434
O O2 0.632656 0.154125 0.090343
O O3 0.762068 0.381034 0.000000
O O4 0.812789 0.179124 0.985792
O O5 0.637944 0.080954 0.854528
O O6 0.434046 0.909942 0.755144
O O7 0.401600 0.946627 0.926121
O O8 0.243443 0.121722 0.500000
O O9 0.209345 0.288340 0.596042
O O10 0.481240 0.739714 0.690694
O O11 0.337458 0.478927 0.708896
O O12 0.029043 0.428514 0.439858
#
# Coordination Sequence:
#
# PCOD8321994 Si02
#       7
#     6   6   6   3   3   6   3
#     4  12  22  37  59  93 123 162 203 248 312 372
#     4  11  21  39  59  92 123 163 200 252 316 365
#     4  11  20  37  59  87 119 155 207 251 297 372
#     4  11  22  38  66  86 132 157 208 254 308 381
#     4   9  20  38  56  86 114 155 208 242 304 365
#     4  10  24  37  59  94 122 161 203 256 316 362
#     4  12  24  36  58  88 130 158 196 264 310 364
#
# _framework density 19.043711999999999
#
# number of rings (size 3 to 8) (size 9 to 14) (size 15 to 20)
#    0.000    1.091    6.364    1.636    7.636    0.000 
#    0.000    0.000    0.000    4.364    2.364    0.000 
#    0.000    0.000    0.000    0.000    0.000    0.000 
#
# Total GULP energy -408987.211024 kJ/mol
# GULP energy per Si atom -12393.551849 kJ/mol
# Density = 1.900037 g / cm^3
# Si number density = 19.043712 Si / 1000 Ang^3
#
#
#
# Elastic Constant Matrix: (Units=GPa)
#
#
# Indices 1 2 3 4 5 6 
#
# 1 60.6334 14.8165 17.4175 0.0003 -14.0614 0.0000
# 2 14.8165 60.6334 17.4175 -0.0003 14.0614 0.0000
# 3 17.4175 17.4175 96.2820 0.0000 0.0000 0.0000
# 4 0.0003 -0.0003 0.0000 19.3220 0.0000 14.0614
# 5 -14.0614 14.0614 0.0000 0.0000 19.3220 0.0003
# 6 0.0000 0.0000 0.0000 14.0614 0.0003 22.9084
#
#
#
# Elastic Compliance Matrix: (Units=1/GPa)
#
#
# Indices 1 2 3 4 5 6 
#
# 1 0.026954 -0.012492 -0.002616 -0.000001 0.028707 0.000000
# 2 -0.012492 0.026954 -0.002616 0.000001 -0.028707 0.000000
# 3 -0.002616 -0.002616 0.011333 0.000000 0.000000 0.000000
# 4 -0.000001 0.000001 0.000000 0.093536 0.000000 -0.057413
# 5 0.028707 -0.028707 0.000000 0.000000 0.093536 -0.000001
# 6 0.000000 0.000000 0.000000 -0.057413 -0.000001 0.078893
#
#
# Mechanical properties :
#
#
# Convention : Reuss Voigt Hill
#
# Bulk Modulus (GPa) = 33.56655 35.20572 34.38614
# Shear Modulus (GPa) = 13.27716 23.50365 18.39041
#
# Velocity S-wave (km/s) = 2.64331 3.51692 3.11093
# Velocity P-wave (km/s) = 5.19427 5.91765 5.56772
#
# Compressibility (1/GPa) = 0.02979156
#
# Stress axis : x y z
#
# Youngs Moduli (GPa) = 37.10014 37.10014 88.24045
#
# Poissons Ratio (x) = 0.46347 0.23085
# Poissons Ratio (y) = 0.46347 0.23085
# Poissons Ratio (z) = 0.09706 0.09706
#
# Static dielectric constant tensor:
#      x y z
#    x 3.545340 0.000000 0.000000 
#    y 0.000000 3.545340 0.000000 
#    z 0.000000 0.000000 3.845860 
# 
# 
# High freq. dielectric constant tensor:
#      x y z
#    x 1.722420 0.000000 0.000000 
#    y 0.000000 1.722420 0.000000 
#    z 0.000000 0.000000 1.762700 
# 
# From -- ./inp_files/2990.got.cif
#   From: 2010.03.12/outbox.cif.g09.slc.cpg/sg151_2_cif.got.tgz:2990.got - 2010.04.03 13:42:29.
