data_PCOD8321918
_publ_section_title
;
Structure prediction by ZEFSAII (Michael W. Deem and Ramdas Pophale) SiO2 
 PCOD8321918
Probable space group: P 3 2 1
;
_chemical_formula_sum "Si O2"
_cell_formula_units_Z 48
_cell_length_a 13.547924
_cell_length_b 13.547924
_cell_length_c 19.350383
_cell_angle_alpha 90.000000
_cell_angle_beta 90.000000
_cell_angle_gamma 120.000000
_cell_volume 3075.853882
_symmetry_space_group_name_H-M "P 3 2 1"
_symmetry_group_IT_number 150
_symmetry_cell_setting 'hexagonal'
loop_
_space_group_symop_operation_xyz
x,y,z
-y,x-y,z
-x+y,-x,z
x-y,-y,-z
-x,-x+y,-z
y,x,-z
loop_
_atom_site_type_symbol
_atom_site_label
_atom_site_fract_x
_atom_site_fract_y
_atom_site_fract_z
Si Si1 0.333730 0.439622 0.829992
Si Si2 0.227488 0.000318 0.920142
Si Si3 0.000318 0.772830 0.079858
Si Si4 0.560378 0.894108 0.670008
Si Si5 0.227488 0.227170 0.579858
Si Si6 0.105892 0.439622 0.670008
Si Si7 0.894108 0.333730 0.170008
Si Si8 0.000318 0.227488 0.420142
O O1 0.317551 0.333022 0.874751
O O2 0.334655 0.409485 0.750000
O O3 0.451499 0.548501 0.852468
O O4 0.233773 0.467546 0.845572
O O5 0.237167 0.118583 0.898127
O O6 0.317551 0.984529 0.874751
O O7 0.099077 0.900923 0.904895
O O8 0.258767 0.000000 0.000000
O O9 0.000000 0.741233 0.000000
O O10 0.666978 0.984529 0.625249
O O11 0.532454 0.766227 0.654428
O O12 0.451499 0.902997 0.647532
O O13 0.258767 0.258767 0.500000
O O14 0.237166 0.118583 0.601873
O O15 0.099077 0.198154 0.595105
O O16 0.074829 0.409485 0.750000
O O17 0.015471 0.333022 0.625249
O O18 0.000000 0.258767 0.500000
#
# Coordination Sequence:
#
# PCOD8321918 Si02
#       8
#     6   6   6   6   6   6   6   6
#     4   9  17  29  45  64  85 110 141 178 218 256
#     4   9  17  29  45  65  89 116 144 175 213 256
#     4   9  17  29  45  65  89 116 144 175 213 256
#     4   9  17  29  45  64  85 110 141 178 218 256
#     4   9  17  29  45  65  89 116 144 175 213 256
#     4   9  17  29  45  64  85 110 141 178 218 256
#     4   9  17  29  45  64  85 110 141 178 218 256
#     4   9  17  29  45  65  89 116 144 175 213 256
#
# _framework density 15.605421
#
# number of rings (size 3 to 8) (size 9 to 14) (size 15 to 20)
#    0.000    3.000    0.000    1.000    0.000    6.000 
#    0.000    0.000    0.000    4.000    0.000    0.000 
#    0.000    0.000    0.000    0.000    0.000    0.000 
#
# Total GULP energy -595280.099582 kJ/mol
# GULP energy per Si atom -12401.668741 kJ/mol
# Density = 1.556990 g / cm^3
# Si number density = 15.605421 Si / 1000 Ang^3
#
#
#
# Elastic Constant Matrix: (Units=GPa)
#
#
# Indices 1 2 3 4 5 6 
#
# 1 120.2154 70.3231 62.0552 0.0000 0.0000 0.0000
# 2 70.3231 120.2154 62.0552 0.0000 0.0000 0.0000
# 3 62.0552 62.0552 65.7023 0.0000 0.0000 0.0000
# 4 0.0000 0.0000 0.0000 28.7561 0.0000 0.0000
# 5 0.0000 0.0000 0.0000 0.0000 28.7561 0.0000
# 6 0.0000 0.0000 0.0000 0.0000 0.0000 24.9462
#
#
#
# Elastic Compliance Matrix: (Units=1/GPa)
#
#
# Indices 1 2 3 4 5 6 
#
# 1 0.016841 -0.003202 -0.012882 0.000000 0.000000 0.000000
# 2 -0.003202 0.016841 -0.012882 0.000000 0.000000 0.000000
# 3 -0.012882 -0.012882 0.039554 0.000000 0.000000 0.000000
# 4 0.000000 0.000000 0.000000 0.034775 0.000000 0.000000
# 5 0.000000 0.000000 0.000000 0.000000 0.034775 0.000000
# 6 0.000000 0.000000 0.000000 0.000000 0.000000 0.040086
#
#
# Mechanical properties :
#
#
# Convention : Reuss Voigt Hill
#
# Bulk Modulus (GPa) = 65.34147 77.22223 71.28185
# Shear Modulus (GPa) = 20.33282 23.93832 22.13557
#
# Velocity S-wave (km/s) = 3.61353 3.92085 3.77032
# Velocity P-wave (km/s) = 7.70533 8.37192 8.04553
#
# Compressibility (1/GPa) = 0.01530422
#
# Stress axis : x y z
#
# Youngs Moduli (GPa) = 59.37801 59.37801 25.28162
#
# Poissons Ratio (x) = 0.19012 0.32568
# Poissons Ratio (y) = 0.19012 0.32568
# Poissons Ratio (z) = 0.76492 0.76492
#
# Static dielectric constant tensor:
#      x y z
#    x 2.935780 0.000000 0.000000 
#    y 0.000000 2.935780 0.000000 
#    z 0.000000 0.000000 2.974720 
# 
# 
# High freq. dielectric constant tensor:
#      x y z
#    x 1.591660 0.000000 0.000000 
#    y 0.000000 1.591660 0.000000 
#    z 0.000000 0.000000 1.597220 
# 
# From -- ./inp_files/1152.got.cif
#   From: 2010.03.12/outbox.cif.g09.slc.cpg/sg150_cif.got.tgz:1152.got - 2010.04.03 13:41:37.
