data_PCOD8321552
_publ_section_title
;
Structure prediction by ZEFSAII (Michael W. Deem and Ramdas Pophale) SiO2 
 PCOD8321552
Probable space group: R 3
;
_chemical_formula_sum "Si O2"
_cell_formula_units_Z 54
_cell_length_a 13.255391
_cell_length_b 13.255391
_cell_length_c 13.971984
_cell_angle_alpha 90.000000
_cell_angle_beta 90.000000
_cell_angle_gamma 120.000000
_cell_volume 2126.051581
_symmetry_space_group_name_H-M "R 3"
_symmetry_group_IT_number 146
_symmetry_cell_setting 'hexagonal'
loop_
_space_group_symop_operation_xyz
x,y,z
-y,x-y,z
-x+y,-x,z
2/3+x,1/3+y,1/3+z
2/3-y,1/3+x-y,1/3+z
2/3-x+y,1/3-x,1/3+z
1/3+x,2/3+y,2/3+z
1/3-y,2/3+x-y,2/3+z
1/3-x+y,2/3-x,2/3+z
loop_
_atom_site_type_symbol
_atom_site_label
_atom_site_fract_x
_atom_site_fract_y
_atom_site_fract_z
Si Si1 0.252676 0.905753 0.194520
Si Si2 0.571295 0.906685 0.641001
Si Si3 0.085372 0.936876 0.827025
Si Si4 0.093314 0.664610 0.141001
Si Si5 0.919343 0.239087 0.027853
Si Si6 0.518171 0.247962 0.660358
O O1 0.215711 0.770619 0.181591
O O2 0.366593 0.975819 0.258329
O O3 0.139513 0.903573 0.239667
O O4 0.275893 0.966740 0.091663
O O5 0.447830 0.885116 0.594974
O O6 0.554907 0.784288 0.681591
O O7 0.666639 0.946784 0.557224
O O8 0.613477 0.000027 0.723891
O O9 0.139513 0.903573 0.739667
O O10 0.942346 0.867021 0.821635
O O11 0.114884 0.562715 0.094974
O O12 0.609012 0.200354 0.654969
#
# Coordination Sequence:
#
# PCOD8321552 Si02
#       6
#     9   9   9   9   9   9
#     4  12  29  48  77 108 152 196 251 308 369 442
#     4  12  27  48  74 108 149 198 247 306 376 436
#     4  10  26  46  73 104 147 192 248 298 365 438
#     4  12  27  48  74 108 149 198 247 306 376 436
#     4  12  29  48  77 108 152 196 251 308 369 442
#     4  10  26  46  73 104 147 192 248 298 365 438
#
# _framework density 25.399197999999998
#
# number of rings (size 3 to 8) (size 9 to 14) (size 15 to 20)
#    0.667    0.000    3.333    2.000   18.667    0.000 
#    0.000    3.333    0.000    0.000    0.000    0.000 
#    0.000    0.000    0.000    0.000    0.000    0.000 
#
# Total GULP energy -223103.428636 kJ/mol
# GULP energy per Si atom -12394.634924 kJ/mol
# Density = 2.534139 g / cm^3
# Si number density = 25.399198 Si / 1000 Ang^3
#
#
#
# Elastic Constant Matrix: (Units=GPa)
#
#
# Indices 1 2 3 4 5 6 
#
# 1 61.6267 -22.1759 -4.5678 -1.0544 -1.2357 0.0000
# 2 -22.1759 61.6267 -4.5678 1.0544 1.2357 0.0000
# 3 -4.5678 -4.5678 86.2910 0.0000 0.0000 0.0000
# 4 -1.0544 1.0544 0.0000 35.3706 0.0000 1.2357
# 5 -1.2357 1.2357 0.0000 0.0000 35.3706 -1.0544
# 6 0.0000 0.0000 0.0000 1.2357 -1.0544 41.9013
#
#
#
# Elastic Compliance Matrix: (Units=1/GPa)
#
#
# Indices 1 2 3 4 5 6 
#
# 1 0.018808 0.006854 0.001358 0.000356 0.000418 0.000000
# 2 0.006854 0.018808 0.001358 -0.000356 -0.000418 0.000000
# 3 0.001358 0.001358 0.011733 0.000000 0.000000 0.000000
# 4 0.000356 -0.000356 0.000000 0.028323 0.000000 -0.000835
# 5 0.000418 -0.000418 0.000000 0.000000 0.028323 0.000713
# 6 0.000000 0.000000 0.000000 -0.000835 0.000713 0.023908
#
#
# Mechanical properties :
#
#
# Convention : Reuss Voigt Hill
#
# Bulk Modulus (GPa) = 14.60033 16.32458 15.46245
# Shear Modulus (GPa) = 37.42778 38.58555 38.00667
#
# Velocity S-wave (km/s) = 3.84289 3.90187 3.87249
# Velocity P-wave (km/s) = 5.04492 5.17114 5.10842
#
# Compressibility (1/GPa) = 0.06849159
#
# Stress axis : x y z
#
# Youngs Moduli (GPa) = 53.16786 53.16786 85.23322
#
# Poissons Ratio (x) = -0.36443 -0.11579
# Poissons Ratio (y) = -0.36443 -0.11579
# Poissons Ratio (z) = -0.07223 -0.07223
#
# Static dielectric constant tensor:
#      x y z
#    x 4.658710 0.000000 0.000000 
#    y 0.000000 4.658710 0.000000 
#    z 0.000000 0.000000 4.550980 
# 
# 
# High freq. dielectric constant tensor:
#      x y z
#    x 2.019010 0.000000 0.000000 
#    y 0.000000 2.019010 0.000000 
#    z 0.000000 0.000000 2.017900 
# 
# From -- ./inp_files/1509.got.cif
#   From: 2010.06.25/outbox.cif.g09.slc.cpg/sg146_cif.got.tgz:1509.got - 2010.06.28 11:17:22.
