data_PCOD8321062
_publ_section_title
;
Structure prediction by ZEFSAII (Michael W. Deem and Ramdas Pophale) SiO2 
 PCOD8321062
Probable space group: I 41/A C D
;
_chemical_formula_sum "Si O2"
_cell_formula_units_Z 192
_cell_length_a 17.972285
_cell_length_b 17.972285
_cell_length_c 30.264719
_cell_angle_alpha 90.000000
_cell_angle_beta 90.000000
_cell_angle_gamma 90.000000
_cell_volume 9775.595882
_symmetry_space_group_name_H-M "I 41/A C D"
_symmetry_group_IT_number 142
_space_group.IT_coordinate_system_code '2'
_symmetry_cell_setting 'tetragonal'
loop_
_space_group_symop_operation_xyz
x,y,z
1/4-y,3/4+x,1/4+z
-x,1/2-y,z
1/4+y,1/4-x,3/4+z
x,-y,1/2-z
1/2-x,y,-z
3/4+y,1/4+x,1/4-z
1/4-y,1/4-x,1/4-z
-x,-y,-z
3/4+y,1/4-x,3/4-z
x,1/2+y,-z
3/4-y,3/4+x,1/4-z
-x,y,1/2+z
1/2+x,-y,z
1/4-y,3/4-x,3/4+z
3/4+y,3/4+x,3/4+z
1/2+x,1/2+y,1/2+z
3/4-y,1/4+x,3/4+z
1/2-x,-y,1/2+z
3/4+y,3/4-x,1/4+z
1/2+x,1/2-y,-z
-x,1/2+y,1/2-z
1/4+y,3/4+x,3/4-z
3/4-y,3/4-x,3/4-z
1/2-x,1/2-y,1/2-z
1/4+y,3/4-x,1/4-z
1/2+x,y,1/2-z
1/4-y,1/4+x,3/4-z
1/2-x,1/2+y,z
x,1/2-y,1/2+z
3/4-y,1/4-x,1/4+z
1/4+y,1/4+x,1/4+z
loop_
_atom_site_type_symbol
_atom_site_label
_atom_site_fract_x
_atom_site_fract_y
_atom_site_fract_z
Si Si1 0.359975 0.717998 0.205455
Si Si2 0.973142 0.055580 0.920180
Si Si3 0.377596 0.932885 0.465429
Si Si4 0.537919 0.000000 0.750000
Si Si5 0.384285 0.900498 0.999810
Si Si6 0.389038 0.860963 0.625000
Si Si7 0.422610 0.014938 0.671371
O O1 0.276277 0.722298 0.189497
O O2 0.364801 0.651899 0.241578
O O3 0.385843 0.796693 0.223990
O O4 0.408099 0.699251 0.162439
O O5 0.955567 0.065413 0.868432
O O6 0.057493 0.081585 0.929409
O O7 0.909364 0.097213 0.948544
O O8 0.302579 0.898070 0.445444
O O9 0.362955 0.019102 0.478901
O O10 0.592077 0.069418 0.754754
O O11 0.488114 0.002237 0.706252
O O12 0.309272 0.856738 0.601616
#
# Coordination Sequence:
#
# PCOD8321062 Si02
#       7
#    32  32  32  16  32  16  32
#     4   8  16  36  61  84 114 160 199 240 302 362
#     4   8  18  37  61  83 118 156 203 245 298 367
#     4   9  18  38  64  85 116 162 208 239 304 374
#     4  12  26  38  58  94 134 144 202 278 312 338
#     4   9  20  40  63  85 114 164 200 251 307 367
#     4  10  20  38  61  86 122 160 200 245 296 370
#     4  11  23  37  58  93 125 157 200 260 301 358
#
# _framework density 19.640746
#
# number of rings (size 3 to 8) (size 9 to 14) (size 15 to 20)
#    0.000    2.667    0.000    3.000    2.333    4.667 
#    0.000   15.000    0.000    0.000    0.000    0.000 
#    0.000    0.000    0.000    0.000    0.000    0.000 
#
# Total GULP energy -1189483.957363 kJ/mol
# GULP energy per Si atom -12390.457889 kJ/mol
# Density = 1.959604 g / cm^3
# Si number density = 19.640746 Si / 1000 Ang^3
#
#
#
# Elastic Constant Matrix: (Units=GPa)
#
#
# Indices 1 2 3 4 5 6 
#
# 1 82.9516 54.0999 63.6471 0.0000 0.0000 0.0000
# 2 54.0999 82.9533 63.6477 0.0000 0.0000 0.0000
# 3 63.6471 63.6477 166.4245 0.0000 0.0000 0.0000
# 4 0.0000 0.0000 0.0000 29.7427 0.0000 0.0000
# 5 0.0000 0.0000 0.0000 0.0000 29.7424 0.0000
# 6 0.0000 0.0000 0.0000 0.0000 0.0000 3.0705
#
#
#
# Elastic Compliance Matrix: (Units=1/GPa)
#
#
# Indices 1 2 3 4 5 6 
#
# 1 0.022988 -0.011671 -0.004328 0.000000 0.000000 0.000000
# 2 -0.011671 0.022987 -0.004328 0.000000 0.000000 0.000000
# 3 -0.004328 -0.004328 0.009319 0.000000 0.000000 0.000000
# 4 0.000000 0.000000 0.000000 0.033622 0.000000 0.000000
# 5 0.000000 0.000000 0.000000 0.000000 0.033622 0.000000
# 6 0.000000 0.000000 0.000000 0.000000 0.000000 0.325684
#
#
# Mechanical properties :
#
#
# Convention : Reuss Voigt Hill
#
# Bulk Modulus (GPa) = 68.30507 77.23541 72.77024
# Shear Modulus (GPa) = 10.12646 22.57343 16.34995
#
# Velocity S-wave (km/s) = 2.27311 3.39383 2.88835
# Velocity P-wave (km/s) = 6.46081 7.40047 6.94655
#
# Compressibility (1/GPa) = 0.01464020
#
# Stress axis : x y z
#
# Youngs Moduli (GPa) = 43.50141 43.50238 107.30852
#
# Poissons Ratio (x) = 0.50773 0.46441
# Poissons Ratio (y) = 0.50772 0.46440
# Poissons Ratio (z) = 0.18826 0.18826
#
# Static dielectric constant tensor:
#      x y z
#    x 3.731760 0.000000 0.000000 
#    y 0.000000 3.731750 0.000000 
#    z 0.000000 0.000000 5.185190 
# 
# 
# High freq. dielectric constant tensor:
#      x y z
#    x 1.751860 0.000000 0.000000 
#    y 0.000000 1.751860 0.000000 
#    z 0.000000 0.000000 1.782230 
# 
# From -- ./inp_files/12613.got.cif
#   From: 2010.03.12/outbox.cif.g09.slc.cpg/sg142_7_cif.got.tgz:12613.got - 2010.04.03 13:27:16.
