data_PCOD8321555
_publ_section_title
;
Structure prediction by ZEFSAII (Michael W. Deem and Ramdas Pophale) SiO2 
 PCOD8321555
Probable space group: R 3
;
_chemical_formula_sum "Si O2"
_cell_formula_units_Z 36
_cell_length_a 12.469336
_cell_length_b 12.469336
_cell_length_c 16.356618
_cell_angle_alpha 90.000000
_cell_angle_beta 90.000000
_cell_angle_gamma 120.000000
_cell_volume 2202.474039
_symmetry_space_group_name_H-M "R 3"
_symmetry_group_IT_number 146
_symmetry_cell_setting 'hexagonal'
loop_
_space_group_symop_operation_xyz
x,y,z
-y,x-y,z
-x+y,-x,z
2/3+x,1/3+y,1/3+z
2/3-y,1/3+x-y,1/3+z
2/3-x+y,1/3-x,1/3+z
1/3+x,2/3+y,2/3+z
1/3-y,2/3+x-y,2/3+z
1/3-x+y,2/3-x,2/3+z
loop_
_atom_site_type_symbol
_atom_site_label
_atom_site_fract_x
_atom_site_fract_y
_atom_site_fract_z
Si Si1 0.510791 0.238939 0.501300
Si Si2 0.780876 0.196157 0.680741
Si Si3 0.605186 0.177458 0.948666
Si Si4 0.196157 0.415282 0.102557
O O1 0.611202 0.193276 0.488635
O O2 0.460015 0.202622 0.592730
O O3 0.400007 0.173141 0.436233
O O4 0.839806 0.106466 0.680399
O O5 0.636993 0.116576 0.703310
O O6 0.853752 0.303659 0.746655
O O7 0.751260 0.277870 0.961331
O O8 0.590728 0.126684 0.857235
#
# Coordination Sequence:
#
# PCOD8321555 Si02
#       4
#     9   9   9   9
#     4   9  19  34  48  73  98 125 167 197 234 291
#     4  11  18  31  54  72  96 128 160 204 240 278
#     4   9  19  34  48  73  98 125 167 197 234 291
#     4  11  18  31  54  72  96 128 160 204 240 278
#
# _framework density 16.345254000000001
#
# number of rings (size 3 to 8) (size 9 to 14) (size 15 to 20)
#    1.000    1.000    5.000    0.500    0.000    2.000 
#    0.000    0.000    0.000    0.000    0.000    7.000 
#    0.000    0.000    0.000    0.000    0.000    0.000 
#
# Total GULP energy -148715.550267 kJ/mol
# GULP energy per Si atom -12392.962522 kJ/mol
# Density = 1.630805 g / cm^3
# Si number density = 16.345254 Si / 1000 Ang^3
#
#
#
# Elastic Constant Matrix: (Units=GPa)
#
#
# Indices 1 2 3 4 5 6 
#
# 1 78.1709 15.1697 10.9769 11.8974 -0.5594 0.0000
# 2 15.1697 78.1709 10.9769 -11.8974 0.5594 0.0000
# 3 10.9769 10.9769 35.1895 0.0000 0.0000 0.0000
# 4 11.8974 -11.8974 0.0000 11.3525 0.0000 0.5594
# 5 -0.5594 0.5594 0.0000 0.0000 11.3525 11.8974
# 6 0.0000 0.0000 0.0000 0.5594 11.8974 31.5006
#
#
#
# Elastic Compliance Matrix: (Units=1/GPa)
#
#
# Indices 1 2 3 4 5 6 
#
# 1 0.018936 -0.007374 -0.003607 -0.027572 0.001297 0.000000
# 2 -0.007374 0.018936 -0.003607 0.027572 -0.001297 0.000000
# 3 -0.003607 -0.003607 0.030668 0.000000 0.000000 0.000000
# 4 -0.027572 0.027572 0.000000 0.146005 0.000000 -0.002593
# 5 0.001297 -0.001297 0.000000 0.000000 0.146005 -0.055144
# 6 0.000000 0.000000 0.000000 -0.002593 -0.055144 0.052619
#
#
# Mechanical properties :
#
#
# Convention : Reuss Voigt Hill
#
# Bulk Modulus (GPa) = 25.40334 29.53093 27.46714
# Shear Modulus (GPa) = 10.97784 21.13497 16.05641
#
# Velocity S-wave (km/s) = 2.59438 3.59978 3.13761
# Velocity P-wave (km/s) = 4.95478 5.94845 5.47421
#
# Compressibility (1/GPa) = 0.03936490
#
# Stress axis : x y z
#
# Youngs Moduli (GPa) = 52.81080 52.81080 32.60767
#
# Poissons Ratio (x) = 0.38942 0.11760
# Poissons Ratio (y) = 0.38942 0.11760
# Poissons Ratio (z) = 0.19046 0.19046
#
# Static dielectric constant tensor:
#      x y z
#    x 3.137510 0.000000 0.000000 
#    y 0.000000 3.137510 0.000000 
#    z 0.000000 0.000000 2.864950 
# 
# 
# High freq. dielectric constant tensor:
#      x y z
#    x 1.624430 0.000000 0.000000 
#    y 0.000000 1.624430 0.000000 
#    z 0.000000 0.000000 1.606980 
# 
# From -- ./inp_files/1388.got.cif
#   From: 2010.06.25/outbox.cif.g09.slc.cpg/sg146_cif.got.tgz:1388.got - 2010.06.28 11:17:22.
