data_PCOD8321077
_publ_section_title
;
Structure prediction by ZEFSAII (Michael W. Deem and Ramdas Pophale) SiO2 
 PCOD8321077
Probable space group: I 41/A C D
;
_chemical_formula_sum "Si O2"
_cell_formula_units_Z 192
_cell_length_a 18.670624
_cell_length_b 18.670624
_cell_length_c 29.374925
_cell_angle_alpha 90.000000
_cell_angle_beta 90.000000
_cell_angle_gamma 90.000000
_cell_volume 10239.869747
_symmetry_space_group_name_H-M "I 41/A C D"
_symmetry_group_IT_number 142
_space_group.IT_coordinate_system_code '2'
_symmetry_cell_setting 'tetragonal'
loop_
_space_group_symop_operation_xyz
x,y,z
1/4-y,3/4+x,1/4+z
-x,1/2-y,z
1/4+y,1/4-x,3/4+z
x,-y,1/2-z
1/2-x,y,-z
3/4+y,1/4+x,1/4-z
1/4-y,1/4-x,1/4-z
-x,-y,-z
3/4+y,1/4-x,3/4-z
x,1/2+y,-z
3/4-y,3/4+x,1/4-z
-x,y,1/2+z
1/2+x,-y,z
1/4-y,3/4-x,3/4+z
3/4+y,3/4+x,3/4+z
1/2+x,1/2+y,1/2+z
3/4-y,1/4+x,3/4+z
1/2-x,-y,1/2+z
3/4+y,3/4-x,1/4+z
1/2+x,1/2-y,-z
-x,1/2+y,1/2-z
1/4+y,3/4+x,3/4-z
3/4-y,3/4-x,3/4-z
1/2-x,1/2-y,1/2-z
1/4+y,3/4-x,1/4-z
1/2+x,y,1/2-z
1/4-y,1/4+x,3/4-z
1/2-x,1/2+y,z
x,1/2-y,1/2+z
3/4-y,1/4-x,1/4+z
1/4+y,1/4+x,1/4+z
loop_
_atom_site_type_symbol
_atom_site_label
_atom_site_fract_x
_atom_site_fract_y
_atom_site_fract_z
Si Si1 0.835825 0.084121 0.699379
Si Si2 0.583120 0.166881 0.875000
Si Si3 0.904348 0.184475 0.374476
Si Si4 0.660429 0.078663 0.197055
Si Si5 0.067752 0.459058 0.950316
Si Si6 0.418748 0.831253 0.625000
Si Si7 0.206510 0.822669 0.803922
O O1 0.865303 0.085402 0.750809
O O2 0.753828 0.109097 0.698413
O O3 0.878903 0.141340 0.669744
O O4 0.839444 0.003622 0.679834
O O5 0.500852 0.154269 0.861676
O O6 0.596481 0.112943 0.917098
O O7 0.904260 0.267758 0.386184
O O8 0.872059 0.146428 0.418227
O O9 0.860642 0.168430 0.329165
O O10 0.739533 0.110878 0.191484
O O11 0.000283 0.503861 0.929734
O O12 0.055360 0.433059 0.002107
#
# Coordination Sequence:
#
# PCOD8321077 Si02
#       7
#    32  16  32  32  32  16  32
#     4  10  21  39  62  85 117 160 201 242 305 363
#     4  11  24  35  56  92 118 155 204 249 306 364
#     4  11  23  37  59  90 119 154 200 246 303 367
#     4  10  22  39  61  90 116 153 205 251 293 362
#     4  10  20  40  63  82 117 166 198 244 315 369
#     4  11  22  37  56  86 126 159 196 249 308 372
#     4  10  21  40  61  85 119 157 203 253 305 366
#
# _framework density 18.750238
#
# number of rings (size 3 to 8) (size 9 to 14) (size 15 to 20)
#    0.000    1.667    3.333    1.000    0.000    3.333 
#    0.000    3.333    0.000    2.000    0.000    0.000 
#    0.000    0.000    0.000    0.000    0.000    0.000 
#
# Total GULP energy -1190266.699950 kJ/mol
# GULP energy per Si atom -12398.611458 kJ/mol
# Density = 1.870756 g / cm^3
# Si number density = 18.750238 Si / 1000 Ang^3
#
#
#
# Elastic Constant Matrix: (Units=GPa)
#
#
# Indices 1 2 3 4 5 6 
#
# 1 101.5482 55.0946 55.8627 0.0000 0.0000 0.0000
# 2 55.0946 101.5484 55.8624 0.0000 0.0000 0.0000
# 3 55.8627 55.8624 98.5930 0.0000 0.0000 0.0000
# 4 0.0000 0.0000 0.0000 31.5514 0.0000 0.0000
# 5 0.0000 0.0000 0.0000 0.0000 31.5518 0.0000
# 6 0.0000 0.0000 0.0000 0.0000 0.0000 28.3206
#
#
#
# Elastic Compliance Matrix: (Units=1/GPa)
#
#
# Indices 1 2 3 4 5 6 
#
# 1 0.016120 -0.005407 -0.006070 0.000000 0.000000 0.000000
# 2 -0.005407 0.016120 -0.006070 0.000000 0.000000 0.000000
# 3 -0.006070 -0.006070 0.017022 0.000000 0.000000 0.000000
# 4 0.000000 0.000000 0.000000 0.031694 0.000000 0.000000
# 5 0.000000 0.000000 0.000000 0.000000 0.031694 0.000000
# 6 0.000000 0.000000 0.000000 0.000000 0.000000 0.035310
#
#
# Mechanical properties :
#
#
# Convention : Reuss Voigt Hill
#
# Bulk Modulus (GPa) = 70.58394 70.59210 70.58802
# Shear Modulus (GPa) = 26.62734 27.27609 26.95172
#
# Velocity S-wave (km/s) = 3.77252 3.81820 3.79543
# Velocity P-wave (km/s) = 7.53006 7.56099 7.54554
#
# Compressibility (1/GPa) = 0.01416753
#
# Stress axis : x y z
#
# Youngs Moduli (GPa) = 62.03384 62.03429 58.74919
#
# Poissons Ratio (x) = 0.33540 0.35663
# Poissons Ratio (y) = 0.33539 0.35662
# Poissons Ratio (z) = 0.37657 0.37656
#
# Static dielectric constant tensor:
#      x y z
#    x 3.515190 0.000000 0.000000 
#    y 0.000000 3.515190 0.000000 
#    z 0.000000 0.000000 3.424760 
# 
# 
# High freq. dielectric constant tensor:
#      x y z
#    x 1.730980 0.000000 0.000000 
#    y 0.000000 1.730980 0.000000 
#    z 0.000000 0.000000 1.728020 
# 
# From -- ./inp_files/12609.got.cif
#   From: 2010.03.12/outbox.cif.g09.slc.cpg/sg142_7_cif.got.tgz:12609.got - 2010.04.03 13:27:16.
