data_PCOD8321922
_publ_section_title
;
Structure prediction by ZEFSAII (Michael W. Deem and Ramdas Pophale) SiO2 
 PCOD8321922
Probable space group: P 31 1 2
;
_chemical_formula_sum "Si O2"
_cell_formula_units_Z 42
_cell_length_a 11.097730
_cell_length_b 11.097730
_cell_length_c 21.869989
_cell_angle_alpha 90.000000
_cell_angle_beta 90.000000
_cell_angle_gamma 120.000000
_cell_volume 2332.638855
_symmetry_space_group_name_H-M "P 31 1 2"
_symmetry_group_IT_number 151
_symmetry_cell_setting 'hexagonal'
loop_
_space_group_symop_operation_xyz
x,y,z
-y,x-y,1/3+z
-x+y,-x,2/3+z
-y,-x,2/3-z
-x+y,y,1/3-z
x,x-y,-z
loop_
_atom_site_type_symbol
_atom_site_label
_atom_site_fract_x
_atom_site_fract_y
_atom_site_fract_z
Si Si1 0.568071 0.900870 0.800757
Si Si2 0.444504 0.327845 0.370237
Si Si3 0.696108 0.313265 0.234711
Si Si4 0.507624 0.999999 0.416667
Si Si5 0.327846 0.444502 0.796431
Si Si6 0.431930 0.332800 0.699242
Si Si7 0.303894 0.617161 0.265289
O O1 0.626799 0.799602 0.821885
O O2 0.406280 0.810093 0.779876
O O3 0.665456 0.994588 0.745413
O O4 0.574206 0.997411 0.856309
O O5 0.527881 0.472120 0.333334
O O6 0.545568 0.300421 0.412978
O O7 0.373202 0.200398 0.321886
O O8 0.635778 0.271556 0.166667
O O9 0.855840 0.343182 0.242486
O O10 0.593723 0.189908 0.279877
O O11 0.425795 0.002588 0.356308
O O12 0.512654 0.855837 0.409154
O O13 0.472123 0.527878 0.833334
O O14 0.334546 0.329132 0.754587
O O15 0.300426 0.545568 0.753691
O O16 0.364221 0.635780 0.333334
#
# Coordination Sequence:
#
# PCOD8321922 Si02
#       7
#     6   6   6   6   6   6   6
#     4  10  19  30  50  73 109 142 169 215 265 318
#     4   9  18  31  47  73 104 141 172 210 263 314
#     4  10  18  31  49  72 106 141 171 217 255 317
#     4  10  18  30  46  70 106 136 176 208 262 312
#     4   9  18  31  47  73 104 141 172 210 263 314
#     4  10  19  30  50  73 109 142 169 215 265 318
#     4  10  18  31  49  72 106 141 171 217 255 317
#
# _framework density 18.005358000000001
#
# number of rings (size 3 to 8) (size 9 to 14) (size 15 to 20)
#    0.000    2.286    2.857    3.429    0.000    0.000 
#    0.000    0.000    0.000    0.000    0.000    0.000 
#    0.000  274.286    0.000    0.000    0.000    0.000 
#
# Total GULP energy -520439.997305 kJ/mol
# GULP energy per Si atom -12391.428507 kJ/mol
# Density = 1.796438 g / cm^3
# Si number density = 18.005358 Si / 1000 Ang^3
#
#
#
# Elastic Constant Matrix: (Units=GPa)
#
#
# Indices 1 2 3 4 5 6 
#
# 1 70.4679 40.7046 45.3070 0.0001 0.0001 0.0000
# 2 40.7046 70.4679 45.3070 -0.0001 -0.0001 0.0000
# 3 45.3070 45.3070 115.1658 0.0000 0.0000 0.0000
# 4 0.0001 -0.0001 0.0000 35.3572 0.0000 -0.0001
# 5 0.0001 -0.0001 0.0000 0.0000 35.3572 0.0001
# 6 0.0000 0.0000 0.0000 -0.0001 0.0001 14.8817
#
#
#
# Elastic Compliance Matrix: (Units=1/GPa)
#
#
# Indices 1 2 3 4 5 6 
#
# 1 0.023420 -0.010179 -0.005209 0.000000 0.000000 0.000000
# 2 -0.010179 0.023420 -0.005209 0.000000 0.000000 0.000000
# 3 -0.005209 -0.005209 0.012782 0.000000 0.000000 0.000000
# 4 0.000000 0.000000 0.000000 0.028283 0.000000 0.000000
# 5 0.000000 0.000000 0.000000 0.000000 0.028283 0.000000
# 6 0.000000 0.000000 0.000000 0.000000 0.000000 0.067197
#
#
# Mechanical properties :
#
#
# Convention : Reuss Voigt Hill
#
# Bulk Modulus (GPa) = 54.26774 57.63765 55.95269
# Shear Modulus (GPa) = 21.67138 25.43808 23.55473
#
# Velocity S-wave (km/s) = 3.47307 3.76281 3.62084
# Velocity P-wave (km/s) = 6.80354 7.13857 6.97307
#
# Compressibility (1/GPa) = 0.01842715
#
# Stress axis : x y z
#
# Youngs Moduli (GPa) = 42.69935 42.69935 78.23714
#
# Poissons Ratio (x) = 0.43463 0.40754
# Poissons Ratio (y) = 0.43463 0.40754
# Poissons Ratio (z) = 0.22242 0.22242
#
# Static dielectric constant tensor:
#      x y z
#    x 3.173240 0.000000 0.000000 
#    y 0.000000 3.173240 0.000000 
#    z 0.000000 0.000000 3.693490 
# 
# 
# High freq. dielectric constant tensor:
#      x y z
#    x 1.657190 0.000000 0.000000 
#    y 0.000000 1.657190 0.000000 
#    z 0.000000 0.000000 1.729040 
# 
# From -- ./inp_files/4329.got.cif
#   From: 2010.03.12/outbox.cif.g09.slc.cpg/sg151_3_cif.got.tgz:4329.got - 2010.04.03 13:42:29.
