data_PCOD8321656
_publ_section_title
;
Structure prediction by ZEFSAII (Michael W. Deem and Ramdas Pophale) SiO2 
 PCOD8321656
Probable space group: P -3
;
_chemical_formula_sum "Si O2"
_cell_formula_units_Z 34
_cell_length_a 15.824948
_cell_length_b 15.824948
_cell_length_c 10.939194
_cell_angle_alpha 90.000000
_cell_angle_beta 90.000000
_cell_angle_gamma 120.000000
_cell_volume 2372.468961
_symmetry_space_group_name_H-M "P -3"
_symmetry_group_IT_number 147
_symmetry_cell_setting 'hexagonal'
loop_
_space_group_symop_operation_xyz
x,y,z
-y,x-y,z
-x+y,-x,z
-x,-y,-z
y,-x+y,-z
x-y,x,-z
loop_
_atom_site_type_symbol
_atom_site_label
_atom_site_fract_x
_atom_site_fract_y
_atom_site_fract_z
Si Si1 0.020935 0.590196 0.828868
Si Si2 0.958843 0.586027 0.094277
Si Si3 0.534554 0.779658 0.855505
Si Si4 0.666668 0.333334 0.270498
Si Si5 0.176329 0.692608 0.129797
Si Si6 0.523144 0.350394 0.728731
Si Si7 0.333335 0.666668 0.441004
O O1 0.065939 0.520721 0.858405
O O2 0.110677 0.698629 0.798276
O O3 0.944497 0.549974 0.714233
O O4 0.960006 0.590360 0.947115
O O5 0.872747 0.605252 0.141874
O O6 0.064398 0.668104 0.144441
O O7 0.442800 0.709044 0.774202
O O8 0.502264 0.786597 0.991985
O O9 0.666668 0.333334 0.415795
O O10 0.239839 0.780590 0.222511
O O11 0.187718 0.600415 0.165712
O O12 0.581064 0.354204 0.605631
#
# Coordination Sequence:
#
# PCOD8321656 Si02
#       7
#     6   6   6   2   6   6   2
#     4   9  16  25  40  62  80 106 134 165 202 248
#     4   9  16  24  35  65  89  96 128 159 208 250
#     4  11  17  26  41  60  89 104 126 172 206 245
#     4  12  21  28  38  58  84 117 142 164 214 234
#     4   9  16  24  44  63  79 106 127 170 205 240
#     4   9  15  30  44  55  77 103 146 170 193 230
#     4   9  21  31  41  55  78 114 151 173 190 246
#
# _framework density 14.331063
#
# number of rings (size 3 to 8) (size 9 to 14) (size 15 to 20)
#    0.000    2.471    3.529    2.471    0.000    0.000 
#    0.000    0.882    0.000    0.000    0.000    0.000 
#    1.765    3.176    0.000    0.000    0.000    1.765 
#
# Total GULP energy -421281.710436 kJ/mol
# GULP energy per Si atom -12390.638542 kJ/mol
# Density = 1.429844 g / cm^3
# Si number density = 14.331063 Si / 1000 Ang^3
#
#
#
# Elastic Constant Matrix: (Units=GPa)
#
#
# Indices 1 2 3 4 5 6 
#
# 1 79.8269 36.9620 23.6170 0.7460 -2.7189 -0.0001
# 2 36.9620 79.8274 23.6173 -0.7454 2.7186 -0.0001
# 3 23.6170 23.6173 52.6597 0.0001 -0.0003 -0.0001
# 4 0.7460 -0.7454 0.0001 7.1569 -0.0001 2.7188
# 5 -2.7189 2.7186 -0.0003 -0.0001 7.1571 0.7458
# 6 -0.0001 -0.0001 -0.0001 2.7188 0.7458 21.4325
#
#
#
# Elastic Compliance Matrix: (Units=1/GPa)
#
#
# Indices 1 2 3 4 5 6 
#
# 1 0.017532 -0.007072 -0.004691 -0.002564 0.009346 0.000000
# 2 -0.007072 0.017532 -0.004691 0.002563 -0.009346 0.000000
# 3 -0.004691 -0.004691 0.023198 0.000000 0.000001 0.000000
# 4 -0.002564 0.002563 0.000000 0.147361 0.000002 -0.018693
# 5 0.009346 -0.009346 0.000001 0.000002 0.147357 -0.005128
# 6 0.000000 0.000000 0.000000 -0.018693 -0.005128 0.049208
#
#
# Mechanical properties :
#
#
# Convention : Reuss Voigt Hill
#
# Bulk Modulus (GPa) = 39.44332 42.30073 40.87202
# Shear Modulus (GPa) = 11.27277 15.69046 13.48162
#
# Velocity S-wave (km/s) = 2.80768 3.31245 3.07045
# Velocity P-wave (km/s) = 6.17199 6.64911 6.41499
#
# Compressibility (1/GPa) = 0.02535284
#
# Stress axis : x y z
#
# Youngs Moduli (GPa) = 57.03929 57.03968 43.10797
#
# Poissons Ratio (x) = 0.40339 0.20222
# Poissons Ratio (y) = 0.40338 0.20222
# Poissons Ratio (z) = 0.26757 0.26758
#
# Static dielectric constant tensor:
#      x y z
#    x 2.858890 0.000010 0.000000 
#    y 0.000010 2.858880 0.000010 
#    z 0.000000 0.000010 2.441530 
# 
# 
# High freq. dielectric constant tensor:
#      x y z
#    x 1.531440 0.000000 0.000000 
#    y 0.000000 1.531440 0.000000 
#    z 0.000000 0.000000 1.507460 
# 
# From -- ./inp_files/807.got.cif
#   From: 2010.03.12/outbox.cif.g09.slc.cpg/sg147_cif.got.tgz:807.got - 2010.04.03 13:37:56.
