data_PCOD8321520
_publ_section_title
;
Structure prediction by ZEFSAII (Michael W. Deem and Ramdas Pophale) SiO2 
 PCOD8321520
Probable space group: R 3
;
_chemical_formula_sum "Si O2"
_cell_formula_units_Z 42
_cell_length_a 13.910264
_cell_length_b 13.910264
_cell_length_c 12.134752
_cell_angle_alpha 90.000000
_cell_angle_beta 90.000000
_cell_angle_gamma 120.000000
_cell_volume 2033.444304
_symmetry_space_group_name_H-M "R 3"
_symmetry_group_IT_number 146
_symmetry_cell_setting 'hexagonal'
loop_
_space_group_symop_operation_xyz
x,y,z
-y,x-y,z
-x+y,-x,z
2/3+x,1/3+y,1/3+z
2/3-y,1/3+x-y,1/3+z
2/3-x+y,1/3-x,1/3+z
1/3+x,2/3+y,2/3+z
1/3-y,2/3+x-y,2/3+z
1/3-x+y,2/3-x,2/3+z
loop_
_atom_site_type_symbol
_atom_site_label
_atom_site_fract_x
_atom_site_fract_y
_atom_site_fract_z
Si Si1 0.571990 0.739254 0.109360
Si Si2 0.227084 0.808558 0.649134
Si Si3 0.000000 0.000000 0.692057
Si Si4 0.798050 0.945106 0.549701
Si Si5 0.308614 0.054110 0.208661
Si Si6 0.000000 0.000000 0.950781
O O1 0.464908 0.624403 0.140852
O O2 0.562786 0.845848 0.143108
O O3 0.677728 0.752582 0.175536
O O4 0.580762 0.738927 0.977718
O O5 0.114088 0.783412 0.587047
O O6 0.214374 0.850396 0.769001
O O7 0.245557 0.703158 0.660994
O O8 0.329436 0.897894 0.575777
O O9 0.102470 0.117873 0.653213
O O10 0.000000 0.000000 0.821253
#
# Coordination Sequence:
#
# PCOD8321520 Si02
#       6
#     9   9   3   9   9   3
#     4   9  18  34  59  85 111 145 186 232 279 329
#     4  10  21  38  57  80 114 153 189 231 281 334
#     4   9  18  36  58  83 109 144 189 231 280 341
#     4   9  18  34  60  86 109 144 190 232 276 336
#     4   9  19  38  57  79 114 151 184 229 283 331
#     4  12  24  36  55  83 115 153 192 237 283 329
#
# _framework density 20.654610999999999
#
# number of rings (size 3 to 8) (size 9 to 14) (size 15 to 20)
#    0.000    2.571    0.000    1.714    0.000    6.857 
#    0.000   12.857    0.000    2.571    0.000    0.000 
#    0.000    0.000    0.000    0.000    0.000    0.000 
#
# Total GULP energy -173580.827405 kJ/mol
# GULP energy per Si atom -12398.630529 kJ/mol
# Density = 2.060760 g / cm^3
# Si number density = 20.654611 Si / 1000 Ang^3
#
#
#
# Elastic Constant Matrix: (Units=GPa)
#
#
# Indices 1 2 3 4 5 6 
#
# 1 93.4260 37.7119 35.7929 7.7081 -0.8809 0.0000
# 2 37.7119 93.4260 35.7929 -7.7081 0.8809 0.0000
# 3 35.7929 35.7929 128.6116 0.0000 0.0000 0.0000
# 4 7.7081 -7.7081 0.0000 26.9160 0.0000 0.8809
# 5 -0.8809 0.8809 0.0000 0.0000 26.9160 7.7081
# 6 0.0000 0.0000 0.0000 0.8809 7.7081 27.8570
#
#
#
# Elastic Compliance Matrix: (Units=1/GPa)
#
#
# Indices 1 2 3 4 5 6 
#
# 1 0.014253 -0.005262 -0.002502 -0.005589 0.000639 0.000000
# 2 -0.005262 0.014253 -0.002502 0.005589 -0.000639 0.000000
# 3 -0.002502 -0.002502 0.009168 0.000000 0.000000 0.000000
# 4 -0.005589 0.005589 0.000000 0.040395 0.000000 -0.001277
# 5 0.000639 -0.000639 0.000000 0.000000 0.040395 -0.011178
# 6 0.000000 0.000000 0.000000 -0.001277 -0.011178 0.039031
#
#
# Mechanical properties :
#
#
# Convention : Reuss Voigt Hill
#
# Bulk Modulus (GPa) = 58.33687 59.33987 58.83837
# Shear Modulus (GPa) = 27.21175 30.08219 28.64697
#
# Velocity S-wave (km/s) = 3.63363 3.82047 3.72822
# Velocity P-wave (km/s) = 6.77567 6.94646 6.86160
#
# Compressibility (1/GPa) = 0.01714182
#
# Stress axis : x y z
#
# Youngs Moduli (GPa) = 70.15828 70.15828 109.07291
#
# Poissons Ratio (x) = 0.36917 0.27294
# Poissons Ratio (y) = 0.36917 0.27294
# Poissons Ratio (z) = 0.17556 0.17556
#
# Static dielectric constant tensor:
#      x y z
#    x 3.719720 0.000000 0.000000 
#    y 0.000000 3.719720 0.000000 
#    z 0.000000 0.000000 3.736330 
# 
# 
# High freq. dielectric constant tensor:
#      x y z
#    x 1.794630 0.000000 0.000000 
#    y 0.000000 1.794630 0.000000 
#    z 0.000000 0.000000 1.811790 
# 
# From -- ./inp_files/1051.got.cif
#   From: 2010.06.25/outbox.cif.g09.slc.cpg/sg146_cif.got.tgz:1051.got - 2010.06.28 11:17:22.
