data_PCOD8321682
_publ_section_title
;
Structure prediction by ZEFSAII (Michael W. Deem and Ramdas Pophale) SiO2 
 PCOD8321682
Probable space group: R -3
;
_chemical_formula_sum "Si O2"
_cell_formula_units_Z 108
_cell_length_a 23.385354
_cell_length_b 23.385354
_cell_length_c 12.246886
_cell_angle_alpha 90.000000
_cell_angle_beta 90.000000
_cell_angle_gamma 120.000000
_cell_volume 5800.216494
_symmetry_space_group_name_H-M "R -3"
_symmetry_group_IT_number 148
_symmetry_cell_setting 'hexagonal'
loop_
_space_group_symop_operation_xyz
x,y,z
-y,x-y,z
-x+y,-x,z
-x,-y,-z
y,-x+y,-z
x-y,x,-z
2/3+x,1/3+y,1/3+z
2/3-y,1/3+x-y,1/3+z
2/3-x+y,1/3-x,1/3+z
2/3-x,1/3-y,1/3-z
2/3+y,1/3-x+y,1/3-z
2/3+x-y,1/3+x,1/3-z
1/3+x,2/3+y,2/3+z
1/3-y,2/3+x-y,2/3+z
1/3-x+y,2/3-x,2/3+z
1/3-x,2/3-y,2/3-z
1/3+y,2/3-x+y,2/3-z
1/3+x-y,2/3+x,2/3-z
loop_
_atom_site_type_symbol
_atom_site_label
_atom_site_fract_x
_atom_site_fract_y
_atom_site_fract_z
Si Si1 0.514914 0.285801 0.352416
Si Si2 0.786824 0.598093 0.786791
Si Si3 0.417461 0.319944 0.842066
Si Si4 0.350926 0.361560 0.388834
Si Si5 0.867608 0.118478 0.797596
Si Si6 0.678209 0.102770 0.239448
O O1 0.573620 0.362427 0.356428
O O2 0.475321 0.262201 0.468022
O O3 0.462137 0.281144 0.261445
O O4 0.830855 0.574102 0.848561
O O5 0.716974 0.562148 0.848373
O O6 0.816112 0.676903 0.804157
O O7 0.775568 0.569146 0.663856
O O8 0.366704 0.312676 0.748446
O O9 0.394522 0.331183 0.958564
O O10 0.401616 0.336771 0.355392
O O11 0.383532 0.411951 0.491805
O O12 0.801722 0.058250 0.846758
#
# Coordination Sequence:
#
# PCOD8321682 Si02
#       6
#    18  18  18  18  18  18
#     4  10  22  40  61  85 121 162 201 243 288 354
#     4  11  20  37  59  85 115 155 194 242 292 359
#     4  11  21  35  60  84 120 153 199 234 298 354
#     4  10  18  35  57  84 113 159 186 243 299 351
#     4  10  19  37  58  82 112 155 196 237 296 340
#     4  10  19  35  58  84 123 149 195 247 296 342
#
# _framework density 18.619996
#
# number of rings (size 3 to 8) (size 9 to 14) (size 15 to 20)
#    0.000    1.667    5.000    2.167    0.000    1.333 
#    3.000    3.333    0.000    0.333    0.000    0.000 
#    0.000    0.000    0.000    0.000    0.000    0.000 
#
# Total GULP energy -446108.058780 kJ/mol
# GULP energy per Si atom -12391.890522 kJ/mol
# Density = 1.857762 g / cm^3
# Si number density = 18.619996 Si / 1000 Ang^3
#
#
#
# Elastic Constant Matrix: (Units=GPa)
#
#
# Indices 1 2 3 4 5 6 
#
# 1 118.9446 57.7831 48.5832 1.0587 2.3015 0.0000
# 2 57.7831 118.9445 48.5830 -1.0587 -2.3014 0.0000
# 3 48.5832 48.5830 93.9517 0.0001 0.0002 0.0001
# 4 1.0587 -1.0587 0.0001 18.2255 0.0000 -2.3014
# 5 2.3015 -2.3014 0.0002 0.0000 18.2254 1.0587
# 6 0.0000 0.0000 0.0001 -2.3014 1.0587 30.5807
#
#
#
# Elastic Compliance Matrix: (Units=1/GPa)
#
#
# Indices 1 2 3 4 5 6 
#
# 1 0.012223 -0.004317 -0.004088 -0.000961 -0.002089 0.000000
# 2 -0.004317 0.012223 -0.004088 0.000961 0.002089 0.000000
# 3 -0.004088 -0.004088 0.014872 0.000000 0.000000 0.000000
# 4 -0.000961 0.000961 0.000000 0.055507 0.000000 0.004177
# 5 -0.002089 0.002089 0.000000 0.000000 0.055507 -0.001922
# 6 0.000000 0.000000 0.000000 0.004177 -0.001922 0.033081
#
#
# Mechanical properties :
#
#
# Convention : Reuss Voigt Hill
#
# Bulk Modulus (GPa) = 69.77874 71.30436 70.54155
# Shear Modulus (GPa) = 23.45437 25.19910 24.32674
#
# Velocity S-wave (km/s) = 3.55298 3.68276 3.61845
# Velocity P-wave (km/s) = 7.37483 7.51407 7.44478
#
# Compressibility (1/GPa) = 0.01433101
#
# Stress axis : x y z
#
# Youngs Moduli (GPa) = 81.81009 81.81015 67.24031
#
# Poissons Ratio (x) = 0.35319 0.27490
# Poissons Ratio (y) = 0.35319 0.27490
# Poissons Ratio (z) = 0.33447 0.33447
#
# Static dielectric constant tensor:
#      x y z
#    x 3.465830 0.000000 0.000000 
#    y 0.000000 3.465830 0.000000 
#    z 0.000000 0.000000 3.474940 
# 
# 
# High freq. dielectric constant tensor:
#      x y z
#    x 1.714320 0.000000 0.000000 
#    y 0.000000 1.714320 0.000000 
#    z 0.000000 0.000000 1.717990 
# 
# From -- ./inp_files/1581.got.cif
#   From: 2010.03.12/outbox.cif.g09.slc.cpg/sg148_1_cif.got.tgz:1581.got - 2010.04.03 13:38:46.
