data_PCOD8321929
_publ_section_title
;
Structure prediction by ZEFSAII (Michael W. Deem and Ramdas Pophale) SiO2 
 PCOD8321929
Probable space group: P 31 1 2
;
_chemical_formula_sum "Si O2"
_cell_formula_units_Z 36
_cell_length_a 16.574850
_cell_length_b 16.574850
_cell_length_c 9.490204
_cell_angle_alpha 90.000000
_cell_angle_beta 90.000000
_cell_angle_gamma 120.000000
_cell_volume 2257.903586
_symmetry_space_group_name_H-M "P 31 1 2"
_symmetry_group_IT_number 151
_symmetry_cell_setting 'hexagonal'
loop_
_space_group_symop_operation_xyz
x,y,z
-y,x-y,1/3+z
-x+y,-x,2/3+z
-y,-x,2/3-z
-x+y,y,1/3-z
x,x-y,-z
loop_
_atom_site_type_symbol
_atom_site_label
_atom_site_fract_x
_atom_site_fract_y
_atom_site_fract_z
Si Si1 0.805088 0.676513 0.009778
Si Si2 0.549713 0.174913 0.811823
Si Si3 0.658234 0.177137 0.065166
Si Si4 0.880101 0.009992 0.108699
Si Si5 0.032976 0.194467 0.266218
Si Si6 0.743710 0.639523 0.567718
O O1 0.833283 0.666565 0.166667
O O2 0.702436 0.592423 0.960123
O O3 0.811871 0.775657 0.978399
O O4 0.882796 0.669324 0.920265
O O5 0.569129 0.138257 0.666667
O O6 0.539415 0.265382 0.797978
O O7 0.452965 0.095137 0.884277
O O8 0.635625 0.200222 0.912123
O O9 0.566363 0.132725 0.166667
O O10 0.965923 0.101931 0.175054
O O11 0.827966 0.944113 0.244016
O O12 0.913265 0.956633 0.000000
O O13 0.124231 0.248461 0.166667
O O14 0.988478 0.260459 0.295093
O O15 0.808370 0.616739 0.666667
#
# Coordination Sequence:
#
# PCOD8321929 Si02
#       6
#     6   6   6   6   6   6
#     4  10  20  32  45  65  94 122 153 192 242 279
#     4  11  20  29  44  67  91 120 161 198 225 261
#     4  11  20  29  46  65  90 124 163 198 226 262
#     4  10  22  33  48  67  89 117 151 194 236 273
#     4  10  21  34  48  67  87 116 157 190 229 283
#     4  10  18  34  47  60  91 128 151 189 241 283
#
# _framework density 15.943994
#
# number of rings (size 3 to 8) (size 9 to 14) (size 15 to 20)
#    0.000    1.667    3.333    6.000    7.000    0.000 
#    0.000    0.000    0.000    0.000    0.000    0.000 
#    0.000    0.000    0.000    3.000    0.333    0.167 
#
# Total GULP energy -445974.513598 kJ/mol
# GULP energy per Si atom -12388.180933 kJ/mol
# Density = 1.590770 g / cm^3
# Si number density = 15.943994 Si / 1000 Ang^3
#
#
#
# Elastic Constant Matrix: (Units=GPa)
#
#
# Indices 1 2 3 4 5 6 
#
# 1 54.9198 26.1932 21.5491 0.0001 -3.7114 0.0000
# 2 26.1932 54.9198 21.5491 -0.0001 3.7114 0.0000
# 3 21.5491 21.5491 101.0242 0.0000 0.0000 0.0000
# 4 0.0001 -0.0001 0.0000 23.0144 0.0000 3.7114
# 5 -3.7114 3.7114 0.0000 0.0000 23.0144 0.0001
# 6 0.0000 0.0000 0.0000 3.7114 0.0001 14.3633
#
#
#
# Elastic Compliance Matrix: (Units=1/GPa)
#
#
# Indices 1 2 3 4 5 6 
#
# 1 0.025115 -0.011210 -0.002966 0.000000 0.005858 0.000000
# 2 -0.011210 0.025115 -0.002966 0.000000 -0.005858 0.000000
# 3 -0.002966 -0.002966 0.011164 0.000000 0.000000 0.000000
# 4 0.000000 0.000000 0.000000 0.045340 0.000000 -0.011716
# 5 0.005858 -0.005858 0.000000 0.000000 0.045340 0.000000
# 6 0.000000 0.000000 0.000000 -0.011716 0.000000 0.072649
#
#
# Mechanical properties :
#
#
# Convention : Reuss Voigt Hill
#
# Bulk Modulus (GPa) = 36.88803 38.82741 37.85772
# Shear Modulus (GPa) = 18.65369 21.51654 20.08512
#
# Velocity S-wave (km/s) = 3.42417 3.67755 3.55312
# Velocity P-wave (km/s) = 6.23052 6.51443 6.37406
#
# Compressibility (1/GPa) = 0.02710907
#
# Stress axis : x y z
#
# Youngs Moduli (GPa) = 39.81760 39.81760 89.57437
#
# Poissons Ratio (x) = 0.44636 0.26567
# Poissons Ratio (y) = 0.44636 0.26567
# Poissons Ratio (z) = 0.11809 0.11809
#
# Static dielectric constant tensor:
#      x y z
#    x 3.116570 0.000000 0.000000 
#    y 0.000000 3.116570 0.000000 
#    z 0.000000 0.000000 3.406710 
# 
# 
# High freq. dielectric constant tensor:
#      x y z
#    x 1.570440 0.000000 0.000000 
#    y 0.000000 1.570440 0.000000 
#    z 0.000000 0.000000 1.647690 
# 
# From -- ./inp_files/1805.got.cif
#   From: 2010.03.12/outbox.cif.g09.slc.cpg/sg151_1_cif.got.tgz:1805.got - 2010.04.03 13:42:29.
