data_PCOD8321419
_publ_section_title
;
Structure prediction by ZEFSAII (Michael W. Deem and Ramdas Pophale) SiO2 
 PCOD8321419
Probable space group: P 31
;
_chemical_formula_sum "Si O2"
_cell_formula_units_Z 18
_cell_length_a 12.718408
_cell_length_b 12.718408
_cell_length_c 5.282286
_cell_angle_alpha 90.000000
_cell_angle_beta 90.000000
_cell_angle_gamma 120.000000
_cell_volume 739.976707
_symmetry_space_group_name_H-M "P 31"
_symmetry_group_IT_number 144
_symmetry_cell_setting 'hexagonal'
loop_
_space_group_symop_operation_xyz
x,y,z
-y,x-y,1/3+z
-x+y,-x,2/3+z
loop_
_atom_site_type_symbol
_atom_site_label
_atom_site_fract_x
_atom_site_fract_y
_atom_site_fract_z
Si Si1 0.781779 0.343356 0.558180
Si Si2 0.435388 0.657221 0.523204
Si Si3 0.243132 0.913732 0.598516
Si Si4 0.811472 0.156592 0.863746
Si Si5 0.706132 0.009628 0.363779
Si Si6 0.048360 0.505080 0.589513
O O1 0.739522 0.435169 0.666529
O O2 0.776798 0.258602 0.791954
O O3 0.918996 0.416895 0.452292
O O4 0.405289 0.762456 0.605114
O O5 0.580359 0.711460 0.506526
O O6 0.399583 0.553694 0.735815
O O7 0.324305 0.903297 0.376473
O O8 0.099282 0.823346 0.589793
O O9 0.263855 0.048016 0.611836
O O10 0.786819 0.070731 0.615247
O O11 0.737870 0.093814 0.115825
O O12 0.567288 0.971205 0.441418
#
# Coordination Sequence:
#
# PCOD8321419 Si02
#       6
#     3   3   3   3   3   3
#     4  11  23  43  69 104 150 199 247 309 380 465
#     4  12  25  45  72 114 149 199 256 317 403 461
#     4  11  28  48  77 105 153 199 260 324 379 472
#     4  11  29  47  75 112 148 203 259 311 388 453
#     4  12  26  51  75 111 152 201 253 321 386 453
#     4  11  25  42  76 108 152 197 251 318 386 466
#
# _framework density 24.325088999999998
#
# number of rings (size 3 to 8) (size 9 to 14) (size 15 to 20)
#    0.000    0.667    1.667    5.000   11.667    1.333 
#    3.000    0.000    0.000    0.000    0.000    0.000 
#    0.000    0.000    0.000    0.000    0.000    0.000 
#
# Total GULP energy -223073.857811 kJ/mol
# GULP energy per Si atom -12392.992101 kJ/mol
# Density = 2.426972 g / cm^3
# Si number density = 24.325089 Si / 1000 Ang^3
#
#
#
# Elastic Constant Matrix: (Units=GPa)
#
#
# Indices 1 2 3 4 5 6 
#
# 1 119.4466 50.3647 28.7896 2.6008 2.0895 0.0000
# 2 50.3647 119.4466 28.7896 -2.6008 -2.0895 0.0000
# 3 28.7896 28.7896 100.3876 0.0000 0.0000 0.0000
# 4 2.6008 -2.6008 0.0000 36.5216 0.0000 -2.0895
# 5 2.0895 -2.0895 0.0000 0.0000 36.5216 2.6008
# 6 0.0000 0.0000 0.0000 -2.0895 2.6008 34.5409
#
#
#
# Elastic Compliance Matrix: (Units=1/GPa)
#
#
# Indices 1 2 3 4 5 6 
#
# 1 0.010564 -0.004041 -0.001871 -0.001040 -0.000836 0.000000
# 2 -0.004041 0.010564 -0.001871 0.001040 0.000836 0.000000
# 3 -0.001871 -0.001871 0.011034 0.000000 0.000000 0.000000
# 4 -0.001040 0.001040 0.000000 0.027625 0.000000 0.001671
# 5 -0.000836 0.000836 0.000000 0.000000 0.027625 -0.002080
# 6 0.000000 0.000000 0.000000 0.001671 -0.002080 0.029209
#
#
# Mechanical properties :
#
#
# Convention : Reuss Voigt Hill
#
# Bulk Modulus (GPa) = 60.24892 61.68541 60.96716
# Shear Modulus (GPa) = 36.30623 36.93928 36.62275
#
# Velocity S-wave (km/s) = 3.86754 3.90111 3.88436
# Velocity P-wave (km/s) = 6.69072 6.76057 6.72574
#
# Compressibility (1/GPa) = 0.01659781
#
# Stress axis : x y z
#
# Youngs Moduli (GPa) = 94.66261 94.66261 90.62566
#
# Poissons Ratio (x) = 0.38249 0.16954
# Poissons Ratio (y) = 0.38249 0.16954
# Poissons Ratio (z) = 0.17709 0.17709
#
# Static dielectric constant tensor:
#      x y z
#    x 4.598500 0.000000 0.000000 
#    y 0.000000 4.598500 0.000000 
#    z 0.000000 0.000000 4.037450 
# 
# 
# High freq. dielectric constant tensor:
#      x y z
#    x 1.973820 0.000000 0.000000 
#    y 0.000000 1.973820 0.000000 
#    z 0.000000 0.000000 1.953670 
# 
# From -- ./inp_files/108.got.cif
#   From: 2010.03.12/outbox.cif.g09.slc.cpg/sg144_cif.got.tgz:108.got - 2010.04.03 13:34:42.
