data_PCOD8321653
_publ_section_title
;
Structure prediction by ZEFSAII (Michael W. Deem and Ramdas Pophale) SiO2 
 PCOD8321653
Probable space group: P -3
;
_chemical_formula_sum "Si O2"
_cell_formula_units_Z 40
_cell_length_a 10.246021
_cell_length_b 10.246021
_cell_length_c 17.413613
_cell_angle_alpha 90.000000
_cell_angle_beta 90.000000
_cell_angle_gamma 120.000000
_cell_volume 1583.178938
_symmetry_space_group_name_H-M "P -3"
_symmetry_group_IT_number 147
_symmetry_cell_setting 'hexagonal'
loop_
_space_group_symop_operation_xyz
x,y,z
-y,x-y,z
-x+y,-x,z
-x,-y,-z
y,-x+y,-z
x-y,x,-z
loop_
_atom_site_type_symbol
_atom_site_label
_atom_site_fract_x
_atom_site_fract_y
_atom_site_fract_z
Si Si1 0.803581 0.125968 0.532203
Si Si2 0.286660 0.315976 0.094236
Si Si3 0.558466 0.999355 0.249262
Si Si4 0.978234 0.236345 0.145243
Si Si5 0.333335 0.666668 0.511775
Si Si6 0.226385 0.888481 0.295512
Si Si7 0.639864 0.486100 0.050188
Si Si8 0.666668 0.333334 0.306706
O O1 0.713261 0.214434 0.518881
O O2 0.765271 0.054970 0.617940
O O3 0.982332 0.237739 0.523472
O O4 0.408737 0.403555 0.159758
O O5 0.138733 0.327398 0.104576
O O6 0.222148 0.135028 0.097266
O O7 0.370078 0.412237 0.017825
O O8 0.632047 0.169674 0.279518
O O9 0.381369 0.898527 0.267817
O O10 0.634368 0.914045 0.292033
O O11 0.998107 0.206670 0.235119
O O12 0.913685 0.351811 0.133605
O O13 0.333334 0.666667 0.602262
O O14 0.803522 0.492005 0.046004
#
# Coordination Sequence:
#
# PCOD8321653 Si02
#       8
#     6   6   6   6   2   6   6   2
#     4  12  26  47  77 115 156 208 256 322 393 476
#     4  11  25  44  73 106 149 198 254 311 386 452
#     4  11  25  43  73 108 158 205 256 317 387 459
#     4  11  25  44  70 104 144 199 244 316 375 456
#     4  12  24  45  84 114 160 203 268 318 399 468
#     4  11  25  46  73 109 155 202 259 311 386 470
#     4  10  26  45  72 106 147 192 253 319 380 452
#     4  12  24  48  75 126 157 203 262 339 384 468
#
# _framework density 25.265619999999998
#
# number of rings (size 3 to 8) (size 9 to 14) (size 15 to 20)
#    0.300    0.600    0.000    5.700    6.300    3.600 
#    2.700    1.500    0.000    0.600    0.000    0.000 
#    0.000    0.000    0.000    0.000    0.000    0.000 
#
# Total GULP energy -495774.182144 kJ/mol
# GULP energy per Si atom -12394.354554 kJ/mol
# Density = 2.520811 g / cm^3
# Si number density = 25.265620 Si / 1000 Ang^3
#
#
#
# Elastic Constant Matrix: (Units=GPa)
#
#
# Indices 1 2 3 4 5 6 
#
# 1 140.4355 51.5445 77.8055 -5.1048 -2.4329 -0.0001
# 2 51.5445 140.4364 77.8042 5.1041 2.4306 -0.0005
# 3 77.8055 77.8042 103.8182 0.0003 0.0010 0.0005
# 4 -5.1048 5.1041 0.0003 29.1206 0.0017 2.4328
# 5 -2.4329 2.4306 0.0010 0.0017 29.1257 -5.1038
# 6 -0.0001 -0.0005 0.0005 2.4328 -5.1038 44.4459
#
#
#
# Elastic Compliance Matrix: (Units=1/GPa)
#
#
# Indices 1 2 3 4 5 6 
#
# 1 0.012402 0.000867 -0.009945 0.002022 0.000964 0.000000
# 2 0.000867 0.012402 -0.009944 -0.002022 -0.000962 0.000000
# 3 -0.009945 -0.009944 0.024538 -0.000001 -0.000002 -0.000001
# 4 0.002022 -0.002022 -0.000001 0.035210 -0.000002 -0.001928
# 5 0.000964 -0.000962 -0.000002 -0.000002 0.035203 0.004043
# 6 0.000000 0.000000 -0.000001 -0.001928 0.004043 0.023069
#
#
# Mechanical properties :
#
#
# Convention : Reuss Voigt Hill
#
# Bulk Modulus (GPa) = 88.50790 88.77758 88.64274
# Shear Modulus (GPa) = 27.08075 32.37417 29.72746
#
# Velocity S-wave (km/s) = 3.27745 3.58348 3.43388
# Velocity P-wave (km/s) = 7.03059 7.23435 7.13320
#
# Compressibility (1/GPa) = 0.01129843
#
# Stress axis : x y z
#
# Youngs Moduli (GPa) = 80.63037 80.63418 40.75351
#
# Poissons Ratio (x) = -0.06994 0.40529
# Poissons Ratio (y) = -0.06994 0.40526
# Poissons Ratio (z) = 0.80186 0.80184
#
# Static dielectric constant tensor:
#      x y z
#    x 4.833610 -0.000010 0.000010 
#    y -0.000010 4.833620 0.000000 
#    z 0.000010 0.000000 4.653450 
# 
# 
# High freq. dielectric constant tensor:
#      x y z
#    x 2.032870 0.000000 0.000000 
#    y 0.000000 2.032870 0.000000 
#    z 0.000000 0.000000 2.008430 
# 
# From -- ./inp_files/1057.got.cif
#   From: 2010.03.12/outbox.cif.g09.slc.cpg/sg147_cif.got.tgz:1057.got - 2010.04.03 13:37:56.
