data_PCOD8321097
_publ_section_title
;
Structure prediction by ZEFSAII (Michael W. Deem and Ramdas Pophale) SiO2 
 PCOD8321097
Probable space group: I 41/A C D
;
_chemical_formula_sum "Si O2"
_cell_formula_units_Z 176
_cell_length_a 30.655182
_cell_length_b 30.655182
_cell_length_c 10.370042
_cell_angle_alpha 90.000000
_cell_angle_beta 90.000000
_cell_angle_gamma 90.000000
_cell_volume 9745.145171
_symmetry_space_group_name_H-M "I 41/A C D"
_symmetry_group_IT_number 142
_space_group.IT_coordinate_system_code '2'
_symmetry_cell_setting 'tetragonal'
loop_
_space_group_symop_operation_xyz
x,y,z
1/4-y,3/4+x,1/4+z
-x,1/2-y,z
1/4+y,1/4-x,3/4+z
x,-y,1/2-z
1/2-x,y,-z
3/4+y,1/4+x,1/4-z
1/4-y,1/4-x,1/4-z
-x,-y,-z
3/4+y,1/4-x,3/4-z
x,1/2+y,-z
3/4-y,3/4+x,1/4-z
-x,y,1/2+z
1/2+x,-y,z
1/4-y,3/4-x,3/4+z
3/4+y,3/4+x,3/4+z
1/2+x,1/2+y,1/2+z
3/4-y,1/4+x,3/4+z
1/2-x,-y,1/2+z
3/4+y,3/4-x,1/4+z
1/2+x,1/2-y,-z
-x,1/2+y,1/2-z
1/4+y,3/4+x,3/4-z
3/4-y,3/4-x,3/4-z
1/2-x,1/2-y,1/2-z
1/4+y,3/4-x,1/4-z
1/2+x,y,1/2-z
1/4-y,1/4+x,3/4-z
1/2-x,1/2+y,z
x,1/2-y,1/2+z
3/4-y,1/4-x,1/4+z
1/4+y,1/4+x,1/4+z
loop_
_atom_site_type_symbol
_atom_site_label
_atom_site_fract_x
_atom_site_fract_y
_atom_site_fract_z
Si Si1 0.209963 0.108381 0.149380
Si Si2 0.750000 0.042060 0.000000
Si Si3 0.484745 0.451721 0.022748
Si Si4 0.389319 0.447119 0.131550
Si Si5 0.041797 0.947831 0.752194
Si Si6 0.364176 0.430707 0.676311
O O1 0.190399 0.059602 0.125000
O O2 0.262442 0.106904 0.153257
O O3 0.193113 0.128741 0.282050
O O4 0.193103 0.140611 0.036868
O O5 0.762108 0.012108 0.125000
O O6 0.710172 0.074284 0.028311
O O7 0.437292 0.454972 0.083812
O O8 0.517476 0.428237 0.124897
O O9 0.500000 0.500000 0.000000
O O10 0.481534 0.428727 0.881877
O O11 0.368970 0.403503 0.068746
O O12 0.092547 0.934264 0.762492
O O13 0.038591 0.000000 0.750000
#
# Coordination Sequence:
#
# PCOD8321097 Si02
#       6
#    32  16  32  32  32  32
#     4   9  19  33  50  77 105 149 187 234 276 323
#     4  12  28  40  56  74 112 154 204 250 280 326
#     4  10  22  34  53  79 101 140 181 231 283 340
#     4  10  21  33  56  75 113 143 191 234 280 333
#     4  10  21  35  55  76 105 136 181 230 288 334
#     4  11  22  37  55  77 108 146 191 238 286 329
#
# _framework density 18.060274
#
# number of rings (size 3 to 8) (size 9 to 14) (size 15 to 20)
#    0.000    1.818    0.909    3.273   12.727    5.818 
#    0.000    0.000    0.000    0.000    0.000    0.000 
#    0.000    0.727    0.000    3.273    0.000    0.000 
#
# Total GULP energy -1090475.900810 kJ/mol
# GULP energy per Si atom -12391.771600 kJ/mol
# Density = 1.801917 g / cm^3
# Si number density = 18.060274 Si / 1000 Ang^3
#
#
#
# Elastic Constant Matrix: (Units=GPa)
#
#
# Indices 1 2 3 4 5 6 
#
# 1 67.1823 29.7143 39.5415 0.0000 0.0000 0.0000
# 2 29.7143 67.1824 39.5427 0.0000 0.0000 0.0000
# 3 39.5415 39.5427 122.4742 0.0000 0.0000 0.0000
# 4 0.0000 0.0000 0.0000 24.0799 0.0000 0.0000
# 5 0.0000 0.0000 0.0000 0.0000 24.0793 0.0000
# 6 0.0000 0.0000 0.0000 0.0000 0.0000 12.5618
#
#
#
# Elastic Compliance Matrix: (Units=1/GPa)
#
#
# Indices 1 2 3 4 5 6 
#
# 1 0.020351 -0.006338 -0.004524 0.000000 0.000000 0.000000
# 2 -0.006338 0.020351 -0.004524 0.000000 0.000000 0.000000
# 3 -0.004524 -0.004524 0.011086 0.000000 0.000000 0.000000
# 4 0.000000 0.000000 0.000000 0.041528 0.000000 0.000000
# 5 0.000000 0.000000 0.000000 0.000000 0.041529 0.000000
# 6 0.000000 0.000000 0.000000 0.000000 0.000000 0.079606
#
#
# Mechanical properties :
#
#
# Convention : Reuss Voigt Hill
#
# Bulk Modulus (GPa) = 47.58460 52.71508 50.14984
# Shear Modulus (GPa) = 19.82308 22.01355 20.91832
#
# Velocity S-wave (km/s) = 3.31661 3.49505 3.40700
# Velocity P-wave (km/s) = 6.40870 6.74826 6.58067
#
# Compressibility (1/GPa) = 0.02101520
#
# Stress axis : x y z
#
# Youngs Moduli (GPa) = 49.13775 49.13714 90.20108
#
# Poissons Ratio (x) = 0.31145 0.40807
# Poissons Ratio (y) = 0.31145 0.40810
# Poissons Ratio (z) = 0.22230 0.22231
#
# Static dielectric constant tensor:
#      x y z
#    x 3.099230 0.000000 0.000000 
#    y 0.000000 3.099230 0.000000 
#    z 0.000000 0.000000 4.182440 
# 
# 
# High freq. dielectric constant tensor:
#      x y z
#    x 1.658300 0.000000 0.000000 
#    y 0.000000 1.658300 0.000000 
#    z 0.000000 0.000000 1.733360 
# 
# From -- ./inp_files/4126.got.cif
#   From: 2010.03.12/outbox.cif.g09.slc.cpg/sg142_3_cif.got.tgz:4126.got - 2010.04.03 13:27:16.
