data_PCOD8321171
_publ_section_title
;
Structure prediction by ZEFSAII (Michael W. Deem and Ramdas Pophale) SiO2 
 PCOD8321171
Probable space group: I 41/A C D
;
_chemical_formula_sum "Si O2"
_cell_formula_units_Z 136
_cell_length_a 23.396090
_cell_length_b 23.396090
_cell_length_c 11.215982
_cell_angle_alpha 90.000000
_cell_angle_beta 90.000000
_cell_angle_gamma 90.000000
_cell_volume 6139.370885
_symmetry_space_group_name_H-M "I 41/A C D"
_symmetry_group_IT_number 142
_space_group.IT_coordinate_system_code '2'
_symmetry_cell_setting 'tetragonal'
loop_
_space_group_symop_operation_xyz
x,y,z
1/4-y,3/4+x,1/4+z
-x,1/2-y,z
1/4+y,1/4-x,3/4+z
x,-y,1/2-z
1/2-x,y,-z
3/4+y,1/4+x,1/4-z
1/4-y,1/4-x,1/4-z
-x,-y,-z
3/4+y,1/4-x,3/4-z
x,1/2+y,-z
3/4-y,3/4+x,1/4-z
-x,y,1/2+z
1/2+x,-y,z
1/4-y,3/4-x,3/4+z
3/4+y,3/4+x,3/4+z
1/2+x,1/2+y,1/2+z
3/4-y,1/4+x,3/4+z
1/2-x,-y,1/2+z
3/4+y,3/4-x,1/4+z
1/2+x,1/2-y,-z
-x,1/2+y,1/2-z
1/4+y,3/4+x,3/4-z
3/4-y,3/4-x,3/4-z
1/2-x,1/2-y,1/2-z
1/4+y,3/4-x,1/4-z
1/2+x,y,1/2-z
1/4-y,1/4+x,3/4-z
1/2-x,1/2+y,z
x,1/2-y,1/2+z
3/4-y,1/4-x,1/4+z
1/4+y,1/4+x,1/4+z
loop_
_atom_site_type_symbol
_atom_site_label
_atom_site_fract_x
_atom_site_fract_y
_atom_site_fract_z
Si Si1 0.750000 0.543815 0.500000
Si Si2 0.848935 0.897725 0.111497
Si Si3 0.000000 0.250000 0.375000
Si Si4 0.750000 0.139351 0.000000
Si Si5 0.956444 0.855078 0.980459
Si Si6 0.160915 0.821081 0.821956
O O1 0.742355 0.507646 0.625000
O O2 0.695519 0.586542 0.492262
O O3 0.827089 0.843138 0.187426
O O4 0.847851 0.952534 0.196748
O O5 0.913798 0.888245 0.068118
O O6 0.009400 0.305091 0.454877
O O7 0.780907 0.176889 0.101697
O O8 0.918412 0.831589 0.875000
O O9 0.004055 0.897082 0.928528
O O10 0.108323 0.858323 0.875000
#
# Coordination Sequence:
#
# PCOD8321171 Si02
#       6
#    16  32   8  16  32  32
#     4  12  25  46  75 100 138 190 246 304 364 440
#     4  11  24  44  68 103 137 182 239 299 356 428
#     4  12  22  44  72  98 136 188 230 288 356 434
#     4  10  23  42  69  96 136 190 234 292 364 428
#     4  12  25  41  70 103 137 180 234 293 356 435
#     4  10  22  43  67  98 140 183 237 292 357 429
#
# _framework density 22.152107000000001
#
# number of rings (size 3 to 8) (size 9 to 14) (size 15 to 20)
#    0.000    0.941    2.353    4.588    3.294    2.824 
#    0.000    5.882    0.000    0.000    0.000    0.000 
#    0.000    0.000    0.000    0.000    0.000    0.000 
#
# Total GULP energy -843119.170581 kJ/mol
# GULP energy per Si atom -12398.811332 kJ/mol
# Density = 2.210169 g / cm^3
# Si number density = 22.152107 Si / 1000 Ang^3
#
#
#
# Elastic Constant Matrix: (Units=GPa)
#
#
# Indices 1 2 3 4 5 6 
#
# 1 76.4534 52.0362 28.8695 0.0000 0.0000 0.0000
# 2 52.0362 76.4559 28.8772 0.0000 0.0000 0.0000
# 3 28.8695 28.8772 101.0997 0.0000 0.0000 0.0000
# 4 0.0000 0.0000 0.0000 35.1961 0.0000 0.0000
# 5 0.0000 0.0000 0.0000 0.0000 35.1966 0.0000
# 6 0.0000 0.0000 0.0000 0.0000 0.0000 26.0824
#
#
#
# Elastic Compliance Matrix: (Units=1/GPa)
#
#
# Indices 1 2 3 4 5 6 
#
# 1 0.024940 -0.016012 -0.002548 0.000000 0.000000 0.000000
# 2 -0.016012 0.024941 -0.002552 0.000000 0.000000 0.000000
# 3 -0.002548 -0.002552 0.011348 0.000000 0.000000 0.000000
# 4 0.000000 0.000000 0.000000 0.028412 0.000000 0.000000
# 5 0.000000 0.000000 0.000000 0.000000 0.028412 0.000000
# 6 0.000000 0.000000 0.000000 0.000000 0.000000 0.038340
#
#
# Mechanical properties :
#
#
# Convention : Reuss Voigt Hill
#
# Bulk Modulus (GPa) = 52.61718 52.61945 52.61831
# Shear Modulus (GPa) = 24.39595 28.91009 26.65302
#
# Velocity S-wave (km/s) = 3.32217 3.61650 3.47245
# Velocity P-wave (km/s) = 6.20645 6.42215 6.31522
#
# Compressibility (1/GPa) = 0.01900520
#
# Stress axis : x y z
#
# Youngs Moduli (GPa) = 40.09573 40.09461 88.12336
#
# Poissons Ratio (x) = 0.64199 0.22457
# Poissons Ratio (y) = 0.64201 0.22486
# Poissons Ratio (z) = 0.10218 0.10231
#
# Static dielectric constant tensor:
#      x y z
#    x 3.706400 0.000000 0.000000 
#    y 0.000000 3.706360 0.000000 
#    z 0.000000 0.000000 3.563320 
# 
# 
# High freq. dielectric constant tensor:
#      x y z
#    x 1.869170 0.000000 0.000000 
#    y 0.000000 1.869170 0.000000 
#    z 0.000000 0.000000 1.881100 
# 
# From -- ./inp_files/3621.got.cif
#   From: 2010.03.12/outbox.cif.g09.slc.cpg/sg142_2_cif.got.tgz:3621.got - 2010.04.03 13:27:16.
