data_PCOD8321643
_publ_section_title
;
Structure prediction by ZEFSAII (Michael W. Deem and Ramdas Pophale) SiO2 
 PCOD8321643
Probable space group: P -3
;
_chemical_formula_sum "Si O2"
_cell_formula_units_Z 48
_cell_length_a 17.870585
_cell_length_b 17.870585
_cell_length_c 8.526310
_cell_angle_alpha 90.000000
_cell_angle_beta 90.000000
_cell_angle_gamma 120.000000
_cell_volume 2358.138395
_symmetry_space_group_name_H-M "P -3"
_symmetry_group_IT_number 147
_symmetry_cell_setting 'hexagonal'
loop_
_space_group_symop_operation_xyz
x,y,z
-y,x-y,z
-x+y,-x,z
-x,-y,-z
y,-x+y,-z
x-y,x,-z
loop_
_atom_site_type_symbol
_atom_site_label
_atom_site_fract_x
_atom_site_fract_y
_atom_site_fract_z
Si Si1 0.299714 0.441995 0.570870
Si Si2 0.133192 0.372490 0.406947
Si Si3 0.336719 0.246097 0.938071
Si Si4 0.595649 0.224110 0.224139
Si Si5 0.488411 0.414887 0.077810
Si Si6 0.707736 0.907006 0.821157
Si Si7 0.106037 0.916811 0.547818
Si Si8 0.588281 0.018012 0.428739
O O1 0.222124 0.443794 0.483755
O O2 0.372122 0.538967 0.627922
O O3 0.265273 0.374904 0.717257
O O4 0.340037 0.412251 0.432186
O O5 0.142365 0.360583 0.224003
O O6 0.097141 0.278634 0.481316
O O7 0.074451 0.413598 0.445011
O O8 0.255067 0.260993 0.921568
O O9 0.422389 0.334361 0.978555
O O10 0.317892 0.173373 0.065291
O O11 0.700774 0.270497 0.222791
O O12 0.572477 0.157974 0.078859
O O13 0.451822 0.396400 0.254834
O O14 0.500000 0.500000 0.000000
O O15 0.789162 0.920114 0.716491
O O16 0.020049 0.875648 0.438439
O O17 0.500000 0.000000 0.500000
#
# Coordination Sequence:
#
# PCOD8321643 Si02
#       8
#     6   6   6   6   6   6   6   6
#     4  11  22  43  67  95 129 179 233 285 337 405
#     4  11  23  43  66  98 131 180 235 284 338 411
#     4  12  25  42  65  99 140 179 225 282 357 415
#     4  10  22  42  67  92 131 176 221 273 342 407
#     4  12  25  43  69 101 139 183 225 283 349 412
#     4  11  25  41  66  97 140 178 232 286 346 415
#     4  11  22  42  68  95 131 180 234 287 344 413
#     4  12  23  43  70  98 132 176 237 286 334 408
#
# _framework density 20.355039999999999
#
# number of rings (size 3 to 8) (size 9 to 14) (size 15 to 20)
#    0.250    0.500    3.750    5.375    3.500    0.000 
#    0.000    0.000    0.000    2.500    0.000    0.000 
#    0.000    0.000    0.000    0.000    0.000    0.000 
#
# Total GULP energy -594692.298209 kJ/mol
# GULP energy per Si atom -12389.422879 kJ/mol
# Density = 2.030871 g / cm^3
# Si number density = 20.355040 Si / 1000 Ang^3
#
#
#
# Elastic Constant Matrix: (Units=GPa)
#
#
# Indices 1 2 3 4 5 6 
#
# 1 107.4743 40.0283 26.1943 1.0964 -3.4413 0.0000
# 2 40.0283 107.4743 26.1943 -1.0964 3.4413 0.0000
# 3 26.1943 26.1943 60.8258 0.0000 0.0000 0.0000
# 4 1.0964 -1.0964 0.0000 36.5542 0.0000 3.4413
# 5 -3.4413 3.4413 0.0000 0.0000 36.5542 1.0964
# 6 0.0000 0.0000 0.0000 3.4413 1.0964 33.7230
#
#
#
# Elastic Compliance Matrix: (Units=1/GPa)
#
#
# Indices 1 2 3 4 5 6 
#
# 1 0.011494 -0.003491 -0.003447 -0.000449 0.001411 0.000000
# 2 -0.003491 0.011494 -0.003447 0.000449 -0.001411 0.000000
# 3 -0.003447 -0.003447 0.019409 0.000000 0.000000 0.000000
# 4 -0.000449 0.000449 0.000000 0.027649 0.000000 -0.002821
# 5 0.001411 -0.001411 0.000000 0.000000 0.027649 -0.000899
# 6 0.000000 0.000000 0.000000 -0.002821 -0.000899 0.029970
#
#
# Mechanical properties :
#
#
# Convention : Reuss Voigt Hill
#
# Bulk Modulus (GPa) = 46.23328 51.17872 48.70600
# Shear Modulus (GPa) = 32.12432 33.59012 32.85722
#
# Velocity S-wave (km/s) = 3.97697 4.06669 4.02208
# Velocity P-wave (km/s) = 6.62201 6.87373 6.74905
#
# Compressibility (1/GPa) = 0.02162944
#
# Stress axis : x y z
#
# Youngs Moduli (GPa) = 86.99823 86.99823 51.52236
#
# Poissons Ratio (x) = 0.30369 0.17759
# Poissons Ratio (y) = 0.30369 0.17759
# Poissons Ratio (z) = 0.29986 0.29986
#
# Static dielectric constant tensor:
#      x y z
#    x 4.080780 0.000000 0.000000 
#    y 0.000000 4.080780 0.000000 
#    z 0.000000 0.000000 3.867650 
# 
# 
# High freq. dielectric constant tensor:
#      x y z
#    x 1.811910 0.000000 0.000000 
#    y 0.000000 1.811910 0.000000 
#    z 0.000000 0.000000 1.777060 
# 
# From -- ./inp_files/688.got.cif
#   From: 2010.03.12/outbox.cif.g09.slc.cpg/sg147_cif.got.tgz:688.got - 2010.04.03 13:37:56.
