data_PCOD8321345
_publ_section_title
;
Structure prediction by ZEFSAII (Michael W. Deem and Ramdas Pophale) SiO2 
 PCOD8321345
Probable space group: P 31
;
_chemical_formula_sum "Si O2"
_cell_formula_units_Z 21
_cell_length_a 8.689798
_cell_length_b 8.689798
_cell_length_c 15.715911
_cell_angle_alpha 90.000000
_cell_angle_beta 90.000000
_cell_angle_gamma 120.000000
_cell_volume 1027.754897
_symmetry_space_group_name_H-M "P 31"
_symmetry_group_IT_number 144
_symmetry_cell_setting 'hexagonal'
loop_
_space_group_symop_operation_xyz
x,y,z
-y,x-y,1/3+z
-x+y,-x,2/3+z
loop_
_atom_site_type_symbol
_atom_site_label
_atom_site_fract_x
_atom_site_fract_y
_atom_site_fract_z
Si Si1 0.287437 0.703714 0.410850
Si Si2 0.276006 0.324840 0.617347
Si Si3 0.632255 0.944867 0.697905
Si Si4 0.918649 0.410452 0.163239
Si Si5 0.106218 0.740778 0.835276
Si Si6 0.057683 0.972452 0.142492
Si Si7 0.742802 0.028995 0.132778
O O1 0.235572 0.743671 0.317636
O O2 0.282898 0.518387 0.407986
O O3 0.473937 0.872200 0.441731
O O4 0.134635 0.677872 0.478969
O O5 0.467568 0.391640 0.574156
O O6 0.269212 0.206991 0.698154
O O7 0.114001 0.219164 0.553962
O O8 0.616105 0.952556 0.597023
O O9 0.824347 0.968820 0.724062
O O10 0.596704 0.092977 0.742045
O O11 0.753795 0.208482 0.170244
O O12 0.086141 0.382592 0.169721
O O13 0.959138 0.783244 0.795884
O O14 0.880752 0.975146 0.171525
#
# Coordination Sequence:
#
# PCOD8321345 Si02
#       7
#     3   3   3   3   3   3   3
#     4   9  20  36  58  79 120 152 198 245 300 356
#     4   9  18  36  57  82 125 153 190 258 306 356
#     4  10  19  35  59  81 113 155 195 242 298 362
#     4   9  18  34  58  82 111 160 191 234 307 347
#     4  10  18  35  59  85 109 152 204 239 289 369
#     4  10  20  33  60  85 115 149 195 248 304 357
#     4   9  19  35  55  86 113 147 203 236 296 361
#
# _framework density 20.432888999999999
#
# number of rings (size 3 to 8) (size 9 to 14) (size 15 to 20)
#    0.857    1.714    1.429    0.857    0.000    1.143 
#    0.000    8.571    0.000    1.714    0.000    0.000 
#    0.000    0.000    0.000    0.000    0.000    0.000 
#
# Total GULP energy -260149.960116 kJ/mol
# GULP energy per Si atom -12388.093339 kJ/mol
# Density = 2.038638 g / cm^3
# Si number density = 20.432889 Si / 1000 Ang^3
#
#
#
# Elastic Constant Matrix: (Units=GPa)
#
#
# Indices 1 2 3 4 5 6 
#
# 1 83.9755 24.4436 -4.6820 0.7530 2.8106 0.0000
# 2 24.4436 83.9755 -4.6820 -0.7530 -2.8106 0.0000
# 3 -4.6820 -4.6820 35.0307 0.0000 0.0000 0.0000
# 4 0.7530 -0.7530 0.0000 24.9955 0.0000 -2.8106
# 5 2.8106 -2.8106 0.0000 0.0000 24.9955 0.7530
# 6 0.0000 0.0000 0.0000 -2.8106 0.7530 29.7660
#
#
#
# Elastic Compliance Matrix: (Units=1/GPa)
#
#
# Indices 1 2 3 4 5 6 
#
# 1 0.013161 -0.003830 0.001247 -0.000512 -0.001911 0.000000
# 2 -0.003830 0.013161 0.001247 0.000512 0.001911 0.000000
# 3 0.001247 0.001247 0.028880 0.000000 0.000000 0.000000
# 4 -0.000512 0.000512 0.000000 0.040468 0.000000 0.003821
# 5 -0.001911 0.001911 0.000000 0.000000 0.040468 -0.001024
# 6 0.000000 0.000000 0.000000 0.003821 -0.001024 0.033982
#
#
# Mechanical properties :
#
#
# Convention : Reuss Voigt Hill
#
# Bulk Modulus (GPa) = 19.03648 25.90455 22.47052
# Shear Modulus (GPa) = 26.27416 28.47820 27.37618
#
# Velocity S-wave (km/s) = 3.58980 3.73734 3.66431
# Velocity P-wave (km/s) = 5.14966 5.59723 5.37810
#
# Compressibility (1/GPa) = 0.05253072
#
# Stress axis : x y z
#
# Youngs Moduli (GPa) = 75.98136 75.98136 34.62630
#
# Poissons Ratio (x) = 0.29100 -0.04318
# Poissons Ratio (y) = 0.29100 -0.04318
# Poissons Ratio (z) = -0.09476 -0.09476
#
# Static dielectric constant tensor:
#      x y z
#    x 3.768760 0.000000 0.000000 
#    y 0.000000 3.768760 0.000000 
#    z 0.000000 0.000000 3.543210 
# 
# 
# High freq. dielectric constant tensor:
#      x y z
#    x 1.786110 0.000000 0.000000 
#    y 0.000000 1.786110 0.000000 
#    z 0.000000 0.000000 1.784780 
# 
# From -- ./inp_files/796.got.cif
#   From: 2010.03.12/outbox.cif.g09.slc.cpg/sg144_cif.got.tgz:796.got - 2010.04.03 13:34:42.
