data_PCOD8321322
_publ_section_title
;
Structure prediction by ZEFSAII (Michael W. Deem and Ramdas Pophale) SiO2 
 PCOD8321322
Probable space group: I 41/A C D
;
_chemical_formula_sum "Si O2"
_cell_formula_units_Z 96
_cell_length_a 18.290682
_cell_length_b 18.290682
_cell_length_c 12.014144
_cell_angle_alpha 90.000000
_cell_angle_beta 90.000000
_cell_angle_gamma 90.000000
_cell_volume 4019.320438
_symmetry_space_group_name_H-M "I 41/A C D"
_symmetry_group_IT_number 142
_space_group.IT_coordinate_system_code '2'
_symmetry_cell_setting 'tetragonal'
loop_
_space_group_symop_operation_xyz
x,y,z
1/4-y,3/4+x,1/4+z
-x,1/2-y,z
1/4+y,1/4-x,3/4+z
x,-y,1/2-z
1/2-x,y,-z
3/4+y,1/4+x,1/4-z
1/4-y,1/4-x,1/4-z
-x,-y,-z
3/4+y,1/4-x,3/4-z
x,1/2+y,-z
3/4-y,3/4+x,1/4-z
-x,y,1/2+z
1/2+x,-y,z
1/4-y,3/4-x,3/4+z
3/4+y,3/4+x,3/4+z
1/2+x,1/2+y,1/2+z
3/4-y,1/4+x,3/4+z
1/2-x,-y,1/2+z
3/4+y,3/4-x,1/4+z
1/2+x,1/2-y,-z
-x,1/2+y,1/2-z
1/4+y,3/4+x,3/4-z
3/4-y,3/4-x,3/4-z
1/2-x,1/2-y,1/2-z
1/4+y,3/4-x,1/4-z
1/2+x,y,1/2-z
1/4-y,1/4+x,3/4-z
1/2-x,1/2+y,z
x,1/2-y,1/2+z
3/4-y,1/4-x,1/4+z
1/4+y,1/4+x,1/4+z
loop_
_atom_site_type_symbol
_atom_site_label
_atom_site_fract_x
_atom_site_fract_y
_atom_site_fract_z
Si Si1 0.480475 0.855644 0.717505
Si Si2 0.884301 0.126060 0.341329
Si Si3 0.436563 0.526478 0.577103
O O1 0.452480 0.797521 0.625000
O O2 0.545170 0.825855 0.798437
O O3 0.413138 0.886482 0.790431
O O4 0.524510 0.923206 0.666823
O O5 0.897463 0.040709 0.362621
O O6 0.820569 0.128733 0.249089
O O7 0.500000 0.500000 0.500000
#
# Coordination Sequence:
#
# PCOD8321322 Si02
#       3
#    32  32  32
#     4  12  25  46  80 115 153 198 262 326 389 460
#     4  12  27  47  82 115 159 205 261 327 395 468
#     4  12  26  49  80 113 158 202 265 325 389 474
#
# _framework density 23.884634999999999
#
# number of rings (size 3 to 8) (size 9 to 14) (size 15 to 20)
#    0.000    0.000    6.667    2.000    0.000    8.667 
#    0.000    0.000   51.333    0.000    0.000    0.000 
#    0.000    0.000    0.000    0.000    0.000    0.000 
#
# Total GULP energy -594888.337228 kJ/mol
# GULP energy per Si atom -12393.507026 kJ/mol
# Density = 2.383027 g / cm^3
# Si number density = 23.884635 Si / 1000 Ang^3
#
#
#
# Elastic Constant Matrix: (Units=GPa)
#
#
# Indices 1 2 3 4 5 6 
#
# 1 131.8875 104.7381 80.0423 0.0000 0.0000 0.0000
# 2 104.7381 131.8903 80.0437 0.0000 0.0000 0.0000
# 3 80.0423 80.0437 150.2178 0.0000 0.0000 0.0000
# 4 0.0000 0.0000 0.0000 45.7940 0.0000 0.0000
# 5 0.0000 0.0000 0.0000 0.0000 45.7944 0.0000
# 6 0.0000 0.0000 0.0000 0.0000 0.0000 32.5144
#
#
#
# Elastic Compliance Matrix: (Units=1/GPa)
#
#
# Indices 1 2 3 4 5 6 
#
# 1 0.021720 -0.015112 -0.003521 0.000000 0.000000 0.000000
# 2 -0.015112 0.021720 -0.003521 0.000000 0.000000 0.000000
# 3 -0.003521 -0.003521 0.010409 0.000000 0.000000 0.000000
# 4 0.000000 0.000000 0.000000 0.021837 0.000000 0.000000
# 5 0.000000 0.000000 0.000000 0.000000 0.021837 0.000000
# 6 0.000000 0.000000 0.000000 0.000000 0.000000 0.030756
#
#
# Mechanical properties :
#
#
# Convention : Reuss Voigt Hill
#
# Bulk Modulus (GPa) = 104.80778 104.84931 104.82855
# Shear Modulus (GPa) = 28.44681 34.76534 31.60607
#
# Velocity S-wave (km/s) = 3.45484 3.81931 3.64164
# Velocity P-wave (km/s) = 7.73891 7.96511 7.85282
#
# Compressibility (1/GPa) = 0.00954128
#
# Stress axis : x y z
#
# Youngs Moduli (GPa) = 46.04058 46.04126 96.06610
#
# Poissons Ratio (x) = 0.69575 0.33826
# Poissons Ratio (y) = 0.69574 0.33828
# Poissons Ratio (z) = 0.16211 0.16212
#
# Static dielectric constant tensor:
#      x y z
#    x -2.358740 0.000000 0.000000 
#    y 0.000000 -2.360410 0.000000 
#    z 0.000000 0.000000 4.331960 
# 
# 
# High freq. dielectric constant tensor:
#      x y z
#    x 1.939800 0.000000 0.000000 
#    y 0.000000 1.939800 0.000000 
#    z 0.000000 0.000000 1.988430 
# 
# From -- ./inp_files/3131.got.cif
#   From: 2010.03.12/outbox.cif.g09.slc.cpg/sg142_2_cif.got.tgz:3131.got - 2010.04.03 13:27:16.
