data_PCOD8321090
_publ_section_title
;
Structure prediction by ZEFSAII (Michael W. Deem and Ramdas Pophale) SiO2 
 PCOD8321090
Probable space group: I 41/A C D
;
_chemical_formula_sum "Si O2"
_cell_formula_units_Z 160
_cell_length_a 20.791107
_cell_length_b 20.791107
_cell_length_c 17.897636
_cell_angle_alpha 90.000000
_cell_angle_beta 90.000000
_cell_angle_gamma 90.000000
_cell_volume 7736.613446
_symmetry_space_group_name_H-M "I 41/A C D"
_symmetry_group_IT_number 142
_space_group.IT_coordinate_system_code '2'
_symmetry_cell_setting 'tetragonal'
loop_
_space_group_symop_operation_xyz
x,y,z
1/4-y,3/4+x,1/4+z
-x,1/2-y,z
1/4+y,1/4-x,3/4+z
x,-y,1/2-z
1/2-x,y,-z
3/4+y,1/4+x,1/4-z
1/4-y,1/4-x,1/4-z
-x,-y,-z
3/4+y,1/4-x,3/4-z
x,1/2+y,-z
3/4-y,3/4+x,1/4-z
-x,y,1/2+z
1/2+x,-y,z
1/4-y,3/4-x,3/4+z
3/4+y,3/4+x,3/4+z
1/2+x,1/2+y,1/2+z
3/4-y,1/4+x,3/4+z
1/2-x,-y,1/2+z
3/4+y,3/4-x,1/4+z
1/2+x,1/2-y,-z
-x,1/2+y,1/2-z
1/4+y,3/4+x,3/4-z
3/4-y,3/4-x,3/4-z
1/2-x,1/2-y,1/2-z
1/4+y,3/4-x,1/4-z
1/2+x,y,1/2-z
1/4-y,1/4+x,3/4-z
1/2-x,1/2+y,z
x,1/2-y,1/2+z
3/4-y,1/4-x,1/4+z
1/4+y,1/4+x,1/4+z
loop_
_atom_site_type_symbol
_atom_site_label
_atom_site_fract_x
_atom_site_fract_y
_atom_site_fract_z
Si Si1 0.595173 0.068016 0.918282
Si Si2 0.766104 0.392716 0.084898
Si Si3 0.908935 0.100080 0.914073
Si Si4 0.830076 0.194253 0.822627
Si Si5 0.543660 0.610509 0.601217
O O1 0.659174 0.090827 0.875000
O O2 0.531785 0.102062 0.883478
O O3 0.587233 0.990680 0.916294
O O4 0.605529 0.098834 0.998946
O O5 0.796903 0.453098 0.125000
O O6 0.699103 0.387208 0.124590
O O7 0.810620 0.330000 0.094525
O O8 0.750000 0.407807 0.000000
O O9 0.886799 0.166251 0.874956
O O10 0.982320 0.079458 0.900791
O O11 0.846767 0.187957 0.735119
O O12 0.567864 0.682137 0.625000
#
# Coordination Sequence:
#
# PCOD8321090 Si02
#       5
#    32  32  32  32  32
#     4  11  24  43  63  93 138 168 204 268 328 372
#     4  11  22  38  65  95 124 167 222 255 307 380
#     4  11  23  43  66  90 129 169 210 269 320 372
#     4  11  23  45  65  92 131 166 214 265 320 380
#     4  10  20  42  69  91 124 172 217 262 310 379
#
# _framework density 20.680883000000001
#
# number of rings (size 3 to 8) (size 9 to 14) (size 15 to 20)
#    0.000    1.200    4.000    3.600    0.000    5.600 
#    0.000    4.000    0.000    0.000    0.000    0.000 
#    0.000    0.000    0.000    0.000    0.000    0.000 
#
# Total GULP energy -991576.852406 kJ/mol
# GULP energy per Si atom -12394.710655 kJ/mol
# Density = 2.063381 g / cm^3
# Si number density = 20.680883 Si / 1000 Ang^3
#
#
#
# Elastic Constant Matrix: (Units=GPa)
#
#
# Indices 1 2 3 4 5 6 
#
# 1 89.8336 53.9040 61.2251 0.0000 0.0000 0.0000
# 2 53.9040 89.8355 61.2266 0.0000 0.0000 0.0000
# 3 61.2251 61.2266 93.9789 0.0000 0.0000 0.0000
# 4 0.0000 0.0000 0.0000 41.9893 0.0000 0.0000
# 5 0.0000 0.0000 0.0000 0.0000 41.9892 0.0000
# 6 0.0000 0.0000 0.0000 0.0000 0.0000 39.9269
#
#
#
# Elastic Compliance Matrix: (Units=1/GPa)
#
#
# Indices 1 2 3 4 5 6 
#
# 1 0.021733 -0.006099 -0.010185 0.000000 0.000000 0.000000
# 2 -0.006099 0.021733 -0.010186 0.000000 0.000000 0.000000
# 3 -0.010185 -0.010186 0.023912 0.000000 0.000000 0.000000
# 4 0.000000 0.000000 0.000000 0.023816 0.000000 0.000000
# 5 0.000000 0.000000 0.000000 0.000000 0.023816 0.000000
# 6 0.000000 0.000000 0.000000 0.000000 0.000000 0.025046
#
#
# Mechanical properties :
#
#
# Convention : Reuss Voigt Hill
#
# Bulk Modulus (GPa) = 69.25886 69.59548 69.42717
# Shear Modulus (GPa) = 25.27729 31.26724 28.27226
#
# Velocity S-wave (km/s) = 3.49987 3.89252 3.70141
# Velocity P-wave (km/s) = 7.06358 7.34353 7.20491
#
# Compressibility (1/GPa) = 0.01443859
#
# Stress axis : x y z
#
# Youngs Moduli (GPa) = 46.01350 46.01350 41.82025
#
# Poissons Ratio (x) = 0.28062 0.42594
# Poissons Ratio (y) = 0.28062 0.42596
# Poissons Ratio (z) = 0.46865 0.46867
#
# Static dielectric constant tensor:
#      x y z
#    x 4.737480 0.000000 0.000000 
#    y 0.000000 4.735060 0.000000 
#    z 0.000000 0.000000 3.752320 
# 
# 
# High freq. dielectric constant tensor:
#      x y z
#    x 1.810620 0.000000 0.000000 
#    y 0.000000 1.810620 0.000000 
#    z 0.000000 0.000000 1.812710 
# 
# From -- ./inp_files/7386.got.cif
#   From: 2010.03.12/outbox.cif.g09.slc.cpg/sg142_4_cif.got.tgz:7386.got - 2010.04.03 13:27:16.
