data_PCOD8321292
_publ_section_title
;
Structure prediction by ZEFSAII (Michael W. Deem and Ramdas Pophale) SiO2 
 PCOD8321292
Probable space group: I 41/A C D
;
_chemical_formula_sum "Si O2"
_cell_formula_units_Z 96
_cell_length_a 13.033868
_cell_length_b 13.033868
_cell_length_c 27.846175
_cell_angle_alpha 90.000000
_cell_angle_beta 90.000000
_cell_angle_gamma 90.000000
_cell_volume 4730.555966
_symmetry_space_group_name_H-M "I 41/A C D"
_symmetry_group_IT_number 142
_space_group.IT_coordinate_system_code '2'
_symmetry_cell_setting 'tetragonal'
loop_
_space_group_symop_operation_xyz
x,y,z
1/4-y,3/4+x,1/4+z
-x,1/2-y,z
1/4+y,1/4-x,3/4+z
x,-y,1/2-z
1/2-x,y,-z
3/4+y,1/4+x,1/4-z
1/4-y,1/4-x,1/4-z
-x,-y,-z
3/4+y,1/4-x,3/4-z
x,1/2+y,-z
3/4-y,3/4+x,1/4-z
-x,y,1/2+z
1/2+x,-y,z
1/4-y,3/4-x,3/4+z
3/4+y,3/4+x,3/4+z
1/2+x,1/2+y,1/2+z
3/4-y,1/4+x,3/4+z
1/2-x,-y,1/2+z
3/4+y,3/4-x,1/4+z
1/2+x,1/2-y,-z
-x,1/2+y,1/2-z
1/4+y,3/4+x,3/4-z
3/4-y,3/4-x,3/4-z
1/2-x,1/2-y,1/2-z
1/4+y,3/4-x,1/4-z
1/2+x,y,1/2-z
1/4-y,1/4+x,3/4-z
1/2-x,1/2+y,z
x,1/2-y,1/2+z
3/4-y,1/4-x,1/4+z
1/4+y,1/4+x,1/4+z
loop_
_atom_site_type_symbol
_atom_site_label
_atom_site_fract_x
_atom_site_fract_y
_atom_site_fract_z
Si Si1 0.750000 0.750281 0.000000
Si Si2 0.500000 0.750000 0.375000
Si Si3 0.000000 0.750000 0.875000
Si Si4 0.926340 0.618732 0.957281
Si Si5 0.366233 0.830574 0.794157
O O1 0.677819 0.682698 0.034735
O O2 0.815498 0.821443 0.035390
O O3 0.528617 0.651857 0.406739
O O4 0.992000 0.651663 0.910247
O O5 0.891161 0.502371 0.951161
O O6 0.999759 0.636764 0.002188
#
# Coordination Sequence:
#
# PCOD8321292 Si02
#       5
#    16   8   8  32  32
#     4  12  20  48  64 100 132 180 218 278 334 402
#     4  12  22  44  64  98 128 180 230 288 324 394
#     4  12  22  44  64  98 128 172 228 286 320 394
#     4  11  25  43  66  95 134 177 218 273 338 397
#     4  11  25  43  67  93 136 178 217 274 340 396
#
# _framework density 20.293596999999998
#
# number of rings (size 3 to 8) (size 9 to 14) (size 15 to 20)
#    0.000    0.667    6.667    1.000    4.667    0.000 
#    0.000    1.667    0.000    0.000    0.000    0.000 
#    0.000    0.000    0.000    0.000    0.000    0.000 
#
# Total GULP energy -595305.838777 kJ/mol
# GULP energy per Si atom -12402.204975 kJ/mol
# Density = 2.024741 g / cm^3
# Si number density = 20.293597 Si / 1000 Ang^3
#
#
#
# Elastic Constant Matrix: (Units=GPa)
#
#
# Indices 1 2 3 4 5 6 
#
# 1 145.3873 85.4038 61.9215 0.0000 0.0000 0.0000
# 2 85.4038 145.3873 61.9215 0.0000 0.0000 0.0000
# 3 61.9215 61.9215 148.8806 0.0000 0.0000 0.0000
# 4 0.0000 0.0000 0.0000 124.8436 0.0000 0.0000
# 5 0.0000 0.0000 0.0000 0.0000 124.8436 0.0000
# 6 0.0000 0.0000 0.0000 0.0000 0.0000 42.7411
#
#
#
# Elastic Compliance Matrix: (Units=1/GPa)
#
#
# Indices 1 2 3 4 5 6 
#
# 1 0.011125 -0.005547 -0.002320 0.000000 0.000000 0.000000
# 2 -0.005547 0.011125 -0.002320 0.000000 0.000000 0.000000
# 3 -0.002320 -0.002320 0.008647 0.000000 0.000000 0.000000
# 4 0.000000 0.000000 0.000000 0.008010 0.000000 0.000000
# 5 0.000000 0.000000 0.000000 0.000000 0.008010 0.000000
# 6 0.000000 0.000000 0.000000 0.000000 0.000000 0.023397
#
#
# Mechanical properties :
#
#
# Convention : Reuss Voigt Hill
#
# Bulk Modulus (GPa) = 95.03372 95.34986 95.19179
# Shear Modulus (GPa) = 53.08263 73.84622 63.46443
#
# Velocity S-wave (km/s) = 5.11997 6.03887 5.59831
# Velocity P-wave (km/s) = 9.04894 9.78320 9.42322
#
# Compressibility (1/GPa) = 0.01052258
#
# Stress axis : x y z
#
# Youngs Moduli (GPa) = 89.89160 89.89160 115.65344
#
# Poissons Ratio (x) = 0.49861 0.26830
# Poissons Ratio (y) = 0.49861 0.26830
# Poissons Ratio (z) = 0.20854 0.20854
#
# Static dielectric constant tensor:
#      x y z
#    x 3.802620 0.000000 0.000000 
#    y 0.000000 3.802620 0.000000 
#    z 0.000000 0.000000 3.730150 
# 
# 
# High freq. dielectric constant tensor:
#      x y z
#    x 1.800490 0.000000 0.000000 
#    y 0.000000 1.800490 0.000000 
#    z 0.000000 0.000000 1.795110 
# 
# From -- ./inp_files/9699.got.cif
#   From: 2010.03.12/outbox.cif.g09.slc.cpg/sg142_5_cif.got.tgz:9699.got - 2010.04.03 13:27:16.
