data_PCOD8321947
_publ_section_title
;
Structure prediction by ZEFSAII (Michael W. Deem and Ramdas Pophale) SiO2 
 PCOD8321947
Probable space group: P 31 1 2
;
_chemical_formula_sum "Si O2"
_cell_formula_units_Z 36
_cell_length_a 21.773631
_cell_length_b 21.773631
_cell_length_c 5.158161
_cell_angle_alpha 90.000000
_cell_angle_beta 90.000000
_cell_angle_gamma 120.000000
_cell_volume 2117.811208
_symmetry_space_group_name_H-M "P 31 1 2"
_symmetry_group_IT_number 151
_symmetry_cell_setting 'hexagonal'
loop_
_space_group_symop_operation_xyz
x,y,z
-y,x-y,1/3+z
-x+y,-x,2/3+z
-y,-x,2/3-z
-x+y,y,1/3-z
x,x-y,-z
loop_
_atom_site_type_symbol
_atom_site_label
_atom_site_fract_x
_atom_site_fract_y
_atom_site_fract_z
Si Si1 0.583288 0.964415 0.256569
Si Si2 0.960698 0.544405 0.085231
Si Si3 0.088416 0.839778 0.585087
Si Si4 0.297741 0.249942 0.910110
Si Si5 0.244904 0.418001 0.914908
Si Si6 0.877739 0.627370 0.081396
O O1 0.550007 0.879844 0.230679
O O2 0.562322 0.978467 0.537954
O O3 0.666674 0.999433 0.250123
O O4 0.559204 0.998764 0.027456
O O5 0.901152 0.567821 0.083269
O O6 0.922666 0.461333 0.000000
O O7 0.110116 0.889885 0.333334
O O8 0.128636 0.795316 0.583320
O O9 0.003484 0.786833 0.602633
O O10 0.109830 0.890171 0.833334
O O11 0.332083 0.225836 0.139190
O O12 0.311803 0.229013 0.628674
O O13 0.223492 0.446983 0.666667
O O14 0.223202 0.446404 0.166667
O O15 0.794671 0.589341 0.166667
#
# Coordination Sequence:
#
# PCOD8321947 Si02
#       6
#     6   6   6   6   6   6
#     4   9  17  28  42  62  88 116 147 178 216 271
#     4  10  19  31  46  64  86 117 155 196 242 294
#     4   9  15  23  37  58  85 117 144 162 187 233
#     4   9  17  28  42  62  88 116 147 178 216 271
#     4   9  15  23  37  58  85 117 144 162 187 233
#     4  10  19  31  46  64  86 117 155 196 242 294
#
# _framework density 16.998683
#
# number of rings (size 3 to 8) (size 9 to 14) (size 15 to 20)
#    0.000    2.667    0.000    3.000    0.000    8.000 
#    0.000    0.000    0.000    0.000    0.000    7.000 
#    0.000    0.000    0.000  126.000    0.000   84.000 
#
# Total GULP energy -446111.399913 kJ/mol
# GULP energy per Si atom -12391.983331 kJ/mol
# Density = 1.695999 g / cm^3
# Si number density = 16.998683 Si / 1000 Ang^3
#
#
#
# Elastic Constant Matrix: (Units=GPa)
#
#
# Indices 1 2 3 4 5 6 
#
# 1 52.3182 50.6925 30.4208 -0.0028 0.0215 0.0000
# 2 50.6925 52.3182 30.4208 0.0028 -0.0215 0.0000
# 3 30.4208 30.4208 131.2940 0.0000 0.0000 0.0000
# 4 -0.0028 0.0028 0.0000 11.3937 0.0000 -0.0215
# 5 0.0215 -0.0215 0.0000 0.0000 11.3937 -0.0028
# 6 0.0000 0.0000 0.0000 -0.0215 -0.0028 0.8129
#
#
#
# Elastic Compliance Matrix: (Units=1/GPa)
#
#
# Indices 1 2 3 4 5 6 
#
# 1 0.313198 -0.301951 -0.002606 0.000151 -0.001160 0.000000
# 2 -0.301951 0.313198 -0.002606 -0.000151 0.001160 0.000000
# 3 -0.002606 -0.002606 0.008824 0.000000 0.000000 0.000000
# 4 0.000151 -0.000151 0.000000 0.087772 0.000000 0.002321
# 5 -0.001160 0.001160 0.000000 0.000000 0.087772 0.000302
# 6 0.000000 0.000000 0.000000 0.002321 0.000302 1.230298
#
#
# Mechanical properties :
#
#
# Convention : Reuss Voigt Hill
#
# Bulk Modulus (GPa) = 47.86017 50.99983 49.43000
# Shear Modulus (GPa) = 1.87804 13.01315 7.44560
#
# Velocity S-wave (km/s) = 1.05224 2.76984 2.09514
# Velocity P-wave (km/s) = 5.44909 6.34797 5.91563
#
# Compressibility (1/GPa) = 0.02089420
#
# Stress axis : x y z
#
# Youngs Moduli (GPa) = 3.19287 3.19287 113.32642
#
# Poissons Ratio (x) = 0.96409 0.29532
# Poissons Ratio (y) = 0.96409 0.29532
# Poissons Ratio (z) = 0.00832 0.00832
#
# Static dielectric constant tensor:
#      x y z
#    x 3.337720 0.000000 0.000000 
#    y 0.000000 3.337720 0.000000 
#    z 0.000000 0.000000 3.966050 
# 
# 
# High freq. dielectric constant tensor:
#      x y z
#    x 1.616790 0.000000 0.000000 
#    y 0.000000 1.616790 0.000000 
#    z 0.000000 0.000000 1.681900 
# 
# From -- ./inp_files/722.got.cif
#   From: 2010.03.12/outbox.cif.g09.slc.cpg/sg151_1_cif.got.tgz:722.got - 2010.04.03 13:42:29.
