data_PCOD8321760
_publ_section_title
;
Structure prediction by ZEFSAII (Michael W. Deem and Ramdas Pophale) SiO2 
 PCOD8321760
Probable space group: R -3
;
_chemical_formula_sum "Si O2"
_cell_formula_units_Z 54
_cell_length_a 11.592561
_cell_length_b 11.592561
_cell_length_c 20.164466
_cell_angle_alpha 90.000000
_cell_angle_beta 90.000000
_cell_angle_gamma 120.000000
_cell_volume 2346.800309
_symmetry_space_group_name_H-M "R -3"
_symmetry_group_IT_number 148
_symmetry_cell_setting 'hexagonal'
loop_
_space_group_symop_operation_xyz
x,y,z
-y,x-y,z
-x+y,-x,z
-x,-y,-z
y,-x+y,-z
x-y,x,-z
2/3+x,1/3+y,1/3+z
2/3-y,1/3+x-y,1/3+z
2/3-x+y,1/3-x,1/3+z
2/3-x,1/3-y,1/3-z
2/3+y,1/3-x+y,1/3-z
2/3+x-y,1/3+x,1/3-z
1/3+x,2/3+y,2/3+z
1/3-y,2/3+x-y,2/3+z
1/3-x+y,2/3-x,2/3+z
1/3-x,2/3-y,2/3-z
1/3+y,2/3-x+y,2/3-z
1/3+x-y,2/3+x,2/3-z
loop_
_atom_site_type_symbol
_atom_site_label
_atom_site_fract_x
_atom_site_fract_y
_atom_site_fract_z
Si Si1 0.321195 0.512386 0.283709
Si Si2 0.119163 0.409808 0.909781
Si Si3 0.889979 0.605870 0.524982
O O1 0.458411 0.655433 0.282334
O O2 0.316422 0.430631 0.349698
O O3 0.306624 0.423114 0.220359
O O4 0.120395 0.519101 0.859161
O O5 0.255900 0.409095 0.904319
O O6 0.997120 0.268149 0.884503
#
# Coordination Sequence:
#
# PCOD8321760 Si02
#       3
#    18  18  18
#     4  10  22  42  71 100 138 178 238 292 349 415
#     4  11  23  41  62  99 137 185 227 281 354 409
#     4  11  24  39  67  96 139 181 228 288 341 423
#
# _framework density 23.010052999999999
#
# number of rings (size 3 to 8) (size 9 to 14) (size 15 to 20)
#    0.667    0.667    3.333    1.667    4.667    0.000 
#    0.000    1.667    0.000    0.000    0.000   11.667 
#    0.000    0.000    0.000    0.000    0.000    0.000 
#
# Total GULP energy -223110.518655 kJ/mol
# GULP energy per Si atom -12395.028814 kJ/mol
# Density = 2.295768 g / cm^3
# Si number density = 23.010053 Si / 1000 Ang^3
#
#
#
# Elastic Constant Matrix: (Units=GPa)
#
#
# Indices 1 2 3 4 5 6 
#
# 1 91.2524 22.8561 37.3149 -2.7462 0.7102 0.0000
# 2 22.8561 91.2524 37.3149 2.7462 -0.7102 0.0000
# 3 37.3149 37.3149 63.5337 0.0000 0.0000 0.0000
# 4 -2.7462 2.7462 0.0000 26.3733 0.0000 -0.7102
# 5 0.7102 -0.7102 0.0000 0.0000 26.3733 -2.7462
# 6 0.0000 0.0000 0.0000 -0.7102 -2.7462 34.1982
#
#
#
# Elastic Compliance Matrix: (Units=1/GPa)
#
#
# Indices 1 2 3 4 5 6 
#
# 1 0.014491 -0.000261 -0.008357 0.001536 -0.000397 0.000000
# 2 -0.000261 0.014491 -0.008357 -0.001536 0.000397 0.000000
# 3 -0.008357 -0.008357 0.025557 0.000000 0.000000 0.000000
# 4 0.001536 -0.001536 0.000000 0.038258 0.000000 0.000794
# 5 -0.000397 0.000397 0.000000 0.000000 0.038258 0.003072
# 6 0.000000 0.000000 0.000000 0.000794 0.003072 0.029505
#
#
# Mechanical properties :
#
#
# Convention : Reuss Voigt Hill
#
# Bulk Modulus (GPa) = 48.57608 49.00116 48.78862
# Shear Modulus (GPa) = 24.82943 27.29247 26.06095
#
# Velocity S-wave (km/s) = 3.28848 3.44773 3.36905
# Velocity P-wave (km/s) = 5.96452 6.09844 6.03185
#
# Compressibility (1/GPa) = 0.02058626
#
# Stress axis : x y z
#
# Youngs Moduli (GPa) = 69.00891 69.00891 39.12881
#
# Poissons Ratio (x) = 0.01804 0.32701
# Poissons Ratio (y) = 0.01804 0.32701
# Poissons Ratio (z) = 0.57673 0.57673
#
# Static dielectric constant tensor:
#      x y z
#    x 4.178010 0.000000 0.000000 
#    y 0.000000 4.178010 0.000000 
#    z 0.000000 0.000000 3.774670 
# 
# 
# High freq. dielectric constant tensor:
#      x y z
#    x 1.910590 0.000000 0.000000 
#    y 0.000000 1.910590 0.000000 
#    z 0.000000 0.000000 1.886640 
# 
# From -- ./inp_files/2938.got.cif
#   From: 2010.03.12/outbox.cif.g09.slc.cpg/sg148_2_cif.got.tgz:2938.got - 2010.04.03 13:38:46.
