data_PCOD8321737
_publ_section_title
;
Structure prediction by ZEFSAII (Michael W. Deem and Ramdas Pophale) SiO2 
 PCOD8321737
Probable space group: R -3
;
_chemical_formula_sum "Si O2"
_cell_formula_units_Z 108
_cell_length_a 21.120330
_cell_length_b 21.120330
_cell_length_c 12.733332
_cell_angle_alpha 90.000000
_cell_angle_beta 90.000000
_cell_angle_gamma 120.000000
_cell_volume 4918.969092
_symmetry_space_group_name_H-M "R -3"
_symmetry_group_IT_number 148
_symmetry_cell_setting 'hexagonal'
loop_
_space_group_symop_operation_xyz
x,y,z
-y,x-y,z
-x+y,-x,z
-x,-y,-z
y,-x+y,-z
x-y,x,-z
2/3+x,1/3+y,1/3+z
2/3-y,1/3+x-y,1/3+z
2/3-x+y,1/3-x,1/3+z
2/3-x,1/3-y,1/3-z
2/3+y,1/3-x+y,1/3-z
2/3+x-y,1/3+x,1/3-z
1/3+x,2/3+y,2/3+z
1/3-y,2/3+x-y,2/3+z
1/3-x+y,2/3-x,2/3+z
1/3-x,2/3-y,2/3-z
1/3+y,2/3-x+y,2/3-z
1/3+x-y,2/3+x,2/3-z
loop_
_atom_site_type_symbol
_atom_site_label
_atom_site_fract_x
_atom_site_fract_y
_atom_site_fract_z
Si Si1 0.926492 0.401966 0.639968
Si Si2 0.605242 0.052075 0.695485
Si Si3 0.486831 0.672734 0.166116
Si Si4 0.852701 0.986243 0.112739
Si Si5 0.345831 0.951639 0.517598
Si Si6 0.797906 0.478856 0.206967
O O1 0.960917 0.486418 0.669432
O O2 0.874281 0.352274 0.734619
O O3 0.881164 0.381272 0.533709
O O4 0.994990 0.391598 0.610654
O O5 0.659890 0.136600 0.729885
O O6 0.631542 0.018933 0.600891
O O7 0.598154 0.001912 0.795259
O O8 0.408142 0.599868 0.146338
O O9 0.839855 0.909568 0.157813
O O10 0.805052 0.015951 0.167972
O O11 0.938146 0.043163 0.132468
O O12 0.827163 0.979135 0.992283
#
# Coordination Sequence:
#
# PCOD8321737 Si02
#       6
#    18  18  18  18  18  18
#     4  11  24  43  67  94 133 172 228 274 328 404
#     4  11  25  44  64  98 130 174 226 275 334 405
#     4  10  24  46  70 100 136 175 229 284 339 397
#     4  10  22  37  63  97 135 167 219 271 343 390
#     4  12  24  42  64  94 132 179 220 277 335 402
#     4  10  21  38  61  98 130 171 212 277 329 402
#
# _framework density 21.955821
#
# number of rings (size 3 to 8) (size 9 to 14) (size 15 to 20)
#    0.000    1.333    1.667    3.000    7.000    1.333 
#    3.000    4.167    0.000    0.000    0.000    0.000 
#    0.000    0.000    0.000    0.000    0.000    0.000 
#
# Total GULP energy -446173.428308 kJ/mol
# GULP energy per Si atom -12393.706342 kJ/mol
# Density = 2.190585 g / cm^3
# Si number density = 21.955821 Si / 1000 Ang^3
#
#
#
# Elastic Constant Matrix: (Units=GPa)
#
#
# Indices 1 2 3 4 5 6 
#
# 1 108.0684 47.1007 41.1995 -0.6937 -4.4473 0.0000
# 2 47.1007 108.0684 41.1995 0.6937 4.4473 0.0000
# 3 41.1995 41.1995 69.9080 0.0000 0.0000 0.0000
# 4 -0.6937 0.6937 0.0000 32.3684 0.0000 4.4473
# 5 -4.4473 4.4473 0.0000 0.0000 32.3684 -0.6937
# 6 0.0000 0.0000 0.0000 4.4473 -0.6937 30.4839
#
#
#
# Elastic Compliance Matrix: (Units=1/GPa)
#
#
# Indices 1 2 3 4 5 6 
#
# 1 0.013063 -0.003683 -0.005528 0.000359 0.002301 0.000000
# 2 -0.003683 0.013063 -0.005528 -0.000359 -0.002301 0.000000
# 3 -0.005528 -0.005528 0.020820 0.000000 0.000000 0.000000
# 4 0.000359 -0.000359 0.000000 0.031542 0.000000 -0.004602
# 5 0.002301 -0.002301 0.000000 0.000000 0.031542 0.000718
# 6 0.000000 0.000000 0.000000 -0.004602 0.000718 0.033492
#
#
# Mechanical properties :
#
#
# Convention : Reuss Voigt Hill
#
# Bulk Modulus (GPa) = 57.24658 60.56048 58.90353
# Shear Modulus (GPa) = 27.96055 29.48046 28.72051
#
# Velocity S-wave (km/s) = 3.57247 3.66829 3.62070
# Velocity P-wave (km/s) = 6.56863 6.75163 6.66076
#
# Compressibility (1/GPa) = 0.01746829
#
# Stress axis : x y z
#
# Youngs Moduli (GPa) = 76.55176 76.55175 48.02991
#
# Poissons Ratio (x) = 0.28193 0.26551
# Poissons Ratio (y) = 0.28193 0.26551
# Poissons Ratio (z) = 0.42319 0.42319
#
# Static dielectric constant tensor:
#      x y z
#    x 3.900270 0.000000 0.000000 
#    y 0.000000 3.900270 0.000000 
#    z 0.000000 0.000000 3.969670 
# 
# 
# High freq. dielectric constant tensor:
#      x y z
#    x 1.864130 0.000000 0.000000 
#    y 0.000000 1.864130 0.000000 
#    z 0.000000 0.000000 1.864700 
# 
# From -- ./inp_files/2076.got.cif
#   From: 2010.03.12/outbox.cif.g09.slc.cpg/sg148_2_cif.got.tgz:2076.got - 2010.04.03 13:38:46.
