data_PCOD8321564
_publ_section_title
;
Structure prediction by ZEFSAII (Michael W. Deem and Ramdas Pophale) SiO2 
 PCOD8321564
Probable space group: R 3
;
_chemical_formula_sum "Si O2"
_cell_formula_units_Z 60
_cell_length_a 15.826347
_cell_length_b 15.826347
_cell_length_c 12.698505
_cell_angle_alpha 90.000000
_cell_angle_beta 90.000000
_cell_angle_gamma 120.000000
_cell_volume 2754.511521
_symmetry_space_group_name_H-M "R 3"
_symmetry_group_IT_number 146
_symmetry_cell_setting 'hexagonal'
loop_
_space_group_symop_operation_xyz
x,y,z
-y,x-y,z
-x+y,-x,z
2/3+x,1/3+y,1/3+z
2/3-y,1/3+x-y,1/3+z
2/3-x+y,1/3-x,1/3+z
1/3+x,2/3+y,2/3+z
1/3-y,2/3+x-y,2/3+z
1/3-x+y,2/3-x,2/3+z
loop_
_atom_site_type_symbol
_atom_site_label
_atom_site_fract_x
_atom_site_fract_y
_atom_site_fract_z
Si Si1 0.033998 0.563249 0.096050
Si Si2 0.333335 0.666668 0.770754
Si Si3 0.883224 0.220282 0.066535
Si Si4 0.328931 0.485117 0.741083
Si Si5 0.018267 0.826586 0.843580
Si Si6 0.461066 0.427799 0.859533
Si Si7 0.938947 0.326382 0.845323
Si Si8 0.666668 0.333334 0.185377
O O1 0.124207 0.665265 0.140724
O O2 0.063569 0.479102 0.098966
O O3 0.948472 0.542099 0.177499
O O4 0.987782 0.563791 0.982813
O O5 0.352888 0.581057 0.809519
O O6 0.333334 0.666667 0.644299
O O7 0.886050 0.120872 0.052704
O O8 0.773311 0.182579 0.101190
O O9 0.960372 0.289620 0.153974
O O10 0.907056 0.283614 0.961422
O O11 0.388068 0.514808 0.631043
O O12 0.367979 0.426640 0.806940
O O13 0.976840 0.896189 0.806670
O O14 0.567177 0.517742 0.833023
#
# Coordination Sequence:
#
# PCOD8321564 Si02
#       8
#     9   3   9   9   9   9   9   3
#     4  12  24  48  69 101 140 188 244 289 370 444
#     4   9  21  39  63  99 130 158 232 288 357 417
#     4  12  25  43  73 102 142 186 239 301 361 437
#     4  11  23  42  71 103 136 183 230 304 366 428
#     4  11  22  41  69 101 135 171 233 297 356 423
#     4  12  27  46  71 101 144 192 243 299 368 448
#     4  12  27  46  70 104 145 192 240 303 370 439
#     4   9  21  33  66  99 124 158 211 297 354 396
#
# _framework density 21.782444999999999
#
# number of rings (size 3 to 8) (size 9 to 14) (size 15 to 20)
#    0.000    0.600    4.500    3.600    6.300    0.000 
#    3.600    0.000    0.000    0.000    0.000    0.000 
#    0.000    0.000    0.000    0.000    0.000    0.000 
#
# Total GULP energy -247917.007971 kJ/mol
# GULP energy per Si atom -12395.850399 kJ/mol
# Density = 2.173287 g / cm^3
# Si number density = 21.782445 Si / 1000 Ang^3
#
#
#
# Elastic Constant Matrix: (Units=GPa)
#
#
# Indices 1 2 3 4 5 6 
#
# 1 114.7421 34.9496 19.0612 -3.9783 -4.3810 -0.0004
# 2 34.9496 114.7441 19.0608 3.9778 4.3807 0.0005
# 3 19.0612 19.0608 72.3502 0.0000 -0.0001 0.0002
# 4 -3.9783 3.9778 0.0000 29.9354 -0.0001 4.3808
# 5 -4.3810 4.3807 -0.0001 -0.0001 29.9361 -3.9781
# 6 -0.0004 0.0005 0.0002 4.3808 -3.9781 39.8972
#
#
#
# Elastic Compliance Matrix: (Units=1/GPa)
#
#
# Indices 1 2 3 4 5 6 
#
# 1 0.010036 -0.002875 -0.001887 0.001716 0.001889 0.000000
# 2 -0.002875 0.010036 -0.001886 -0.001716 -0.001889 0.000000
# 3 -0.001887 -0.001886 0.014816 0.000000 0.000000 0.000000
# 4 0.001716 -0.001716 0.000000 0.034414 0.000000 -0.003779
# 5 0.001889 -0.001889 0.000000 0.000000 0.034413 0.003431
# 6 0.000000 0.000000 0.000000 -0.003779 0.003431 0.025821
#
#
# Mechanical properties :
#
#
# Convention : Reuss Voigt Hill
#
# Bulk Modulus (GPa) = 46.31536 49.77552 48.04544
# Shear Modulus (GPa) = 33.32672 35.20474 34.26573
#
# Velocity S-wave (km/s) = 3.91574 4.02456 3.97052
# Velocity P-wave (km/s) = 6.46165 6.67060 6.56695
#
# Compressibility (1/GPa) = 0.02159111
#
# Stress axis : x y z
#
# Youngs Moduli (GPa) = 99.64176 99.64405 67.49597
#
# Poissons Ratio (x) = 0.28648 0.12734
# Poissons Ratio (y) = 0.28647 0.12733
# Poissons Ratio (z) = 0.18799 0.18798
#
# Static dielectric constant tensor:
#      x y z
#    x 4.108410 -0.000010 0.000000 
#    y -0.000010 4.108400 0.000000 
#    z 0.000000 0.000000 3.791750 
# 
# 
# High freq. dielectric constant tensor:
#      x y z
#    x 1.863850 0.000000 0.000000 
#    y 0.000000 1.863850 0.000000 
#    z 0.000000 0.000000 1.844260 
# 
# From -- ./inp_files/1271.got.cif
#   From: 2010.06.25/outbox.cif.g09.slc.cpg/sg146_cif.got.tgz:1271.got - 2010.06.28 11:17:22.
