data_PCOD8321475
_publ_section_title
;
Structure prediction by ZEFSAII (Michael W. Deem and Ramdas Pophale) SiO2 
 PCOD8321475
Probable space group: P 32
;
_chemical_formula_sum "Si O2"
_cell_formula_units_Z 24
_cell_length_a 8.986851
_cell_length_b 8.986851
_cell_length_c 15.545559
_cell_angle_alpha 90.000000
_cell_angle_beta 90.000000
_cell_angle_gamma 120.000000
_cell_volume 1087.306683
_symmetry_space_group_name_H-M "P 32"
_symmetry_group_IT_number 145
_symmetry_cell_setting 'hexagonal'
loop_
_space_group_symop_operation_xyz
x,y,z
-y,x-y,2/3+z
-x+y,-x,1/3+z
loop_
_atom_site_type_symbol
_atom_site_label
_atom_site_fract_x
_atom_site_fract_y
_atom_site_fract_z
Si Si1 0.135067 0.981268 0.067890
Si Si2 0.372190 0.667344 0.827247
Si Si3 0.982672 0.678301 0.504022
Si Si4 0.042706 0.729180 0.222143
Si Si5 0.697024 0.424686 0.213880
Si Si6 0.837799 0.396215 0.030483
Si Si7 0.869535 0.809382 0.656051
Si Si8 0.276546 0.480463 0.657719
O O1 0.200542 0.902903 0.992594
O O2 0.057725 0.834420 0.138005
O O3 0.295079 0.167229 0.096021
O O4 0.968881 0.998559 0.045983
O O5 0.563574 0.823344 0.809101
O O6 0.391945 0.516181 0.871991
O O7 0.273791 0.604664 0.734740
O O8 0.266353 0.714888 0.895094
O O9 0.901512 0.481611 0.532523
O O10 0.985136 0.799317 0.580455
O O11 0.843866 0.609605 0.249435
O O12 0.146925 0.868534 0.294951
O O13 0.758890 0.398345 0.121487
O O14 0.668636 0.281782 0.284222
O O15 0.018051 0.563429 0.011679
O O16 0.855781 0.226937 0.037745
#
# Coordination Sequence:
#
# PCOD8321475 Si02
#       8
#     3   3   3   3   3   3   3   3
#     4  10  22  42  68  90 143 181 230 286 356 421
#     4  11  23  45  72 101 138 183 237 287 360 429
#     4  10  25  42  64 102 136 181 232 290 354 422
#     4  10  22  43  67  98 138 181 227 294 349 428
#     4  11  25  42  69 104 142 180 241 290 358 424
#     4  11  23  46  70 103 138 190 236 295 360 421
#     4  10  22  43  67  94 138 183 227 289 360 414
#     4  11  24  45  71 104 139 187 234 295 361 421
#
# _framework density 22.072890999999998
#
# number of rings (size 3 to 8) (size 9 to 14) (size 15 to 20)
#    0.000    1.500    3.750    0.750    5.250    2.000 
#    4.500    0.000    0.000    0.000    0.000    0.000 
#    0.000    0.000    0.000    0.000    0.000    0.000 
#
# Total GULP energy -297436.014737 kJ/mol
# GULP energy per Si atom -12393.167281 kJ/mol
# Density = 2.202265 g / cm^3
# Si number density = 22.072891 Si / 1000 Ang^3
#
#
#
# Elastic Constant Matrix: (Units=GPa)
#
#
# Indices 1 2 3 4 5 6 
#
# 1 107.1321 35.5383 16.1465 -3.1027 2.5041 0.0000
# 2 35.5383 107.1321 16.1465 3.1027 -2.5041 0.0000
# 3 16.1465 16.1465 82.8504 0.0000 0.0000 0.0000
# 4 -3.1027 3.1027 0.0000 24.8814 0.0000 -2.5041
# 5 2.5041 -2.5041 0.0000 0.0000 24.8814 -3.1027
# 6 0.0000 0.0000 0.0000 -2.5041 -3.1027 35.7969
#
#
#
# Elastic Compliance Matrix: (Units=1/GPa)
#
#
# Indices 1 2 3 4 5 6 
#
# 1 0.010777 -0.003444 -0.001429 0.001773 -0.001431 0.000000
# 2 -0.003444 0.010777 -0.001429 -0.001773 0.001431 0.000000
# 3 -0.001429 -0.001429 0.012627 0.000000 0.000000 0.000000
# 4 0.001773 -0.001773 0.000000 0.040921 0.000000 0.002863
# 5 -0.001431 0.001431 0.000000 0.000000 0.040921 0.003547
# 6 0.000000 0.000000 0.000000 0.002863 0.003547 0.028443
#
#
# Mechanical properties :
#
#
# Convention : Reuss Voigt Hill
#
# Bulk Modulus (GPa) = 46.34771 48.08637 47.21704
# Shear Modulus (GPa) = 30.43891 32.39747 31.41819
#
# Velocity S-wave (km/s) = 3.71754 3.83528 3.77687
# Velocity P-wave (km/s) = 6.28251 6.43778 6.36062
#
# Compressibility (1/GPa) = 0.02157604
#
# Stress axis : x y z
#
# Youngs Moduli (GPa) = 92.78958 92.78958 79.19571
#
# Poissons Ratio (x) = 0.31961 0.11317
# Poissons Ratio (y) = 0.31961 0.11317
# Poissons Ratio (z) = 0.13260 0.13260
#
# Static dielectric constant tensor:
#      x y z
#    x 4.197830 0.000000 0.000000 
#    y 0.000000 4.197830 0.000000 
#    z 0.000000 0.000000 4.259210 
# 
# 
# High freq. dielectric constant tensor:
#      x y z
#    x 1.867280 0.000000 0.000000 
#    y 0.000000 1.867280 0.000000 
#    z 0.000000 0.000000 1.874750 
# 
# From -- ./inp_files/851.got.cif
#   From: 2010.03.12/outbox.cif.g09.slc.cpg/sg145_cif.got.tgz:851.got - 2010.04.03 13:35:35.
