data_PCOD8321486
_publ_section_title
;
Structure prediction by ZEFSAII (Michael W. Deem and Ramdas Pophale) SiO2 
 PCOD8321486
Probable space group: P 32
;
_chemical_formula_sum "Si O2"
_cell_formula_units_Z 21
_cell_length_a 9.914095
_cell_length_b 9.914095
_cell_length_c 11.419951
_cell_angle_alpha 90.000000
_cell_angle_beta 90.000000
_cell_angle_gamma 120.000000
_cell_volume 972.077799
_symmetry_space_group_name_H-M "P 32"
_symmetry_group_IT_number 145
_symmetry_cell_setting 'hexagonal'
loop_
_space_group_symop_operation_xyz
x,y,z
-y,x-y,2/3+z
-x+y,-x,1/3+z
loop_
_atom_site_type_symbol
_atom_site_label
_atom_site_fract_x
_atom_site_fract_y
_atom_site_fract_z
Si Si1 0.690949 0.196390 0.213940
Si Si2 0.882508 0.550250 0.139259
Si Si3 0.212989 0.724558 0.238270
Si Si4 0.328565 0.057054 0.195695
Si Si5 0.374300 0.039637 0.935235
Si Si6 0.670084 0.030912 0.990813
Si Si7 0.287567 0.764840 0.762536
O O1 0.804298 0.373373 0.179642
O O2 0.732775 0.163218 0.341756
O O3 0.512577 0.152846 0.216001
O O4 0.723086 0.092165 0.122738
O O5 0.823520 0.642661 0.219265
O O6 0.067733 0.630771 0.152128
O O7 0.180454 0.628532 0.359225
O O8 0.368673 0.756428 0.171146
O O9 0.242684 0.896856 0.270375
O O10 0.272734 0.177673 0.240010
O O11 0.288465 0.003708 0.060691
O O12 0.556592 0.093162 0.945533
O O13 0.292346 0.892267 0.850192
O O14 0.571852 0.843000 0.996146
#
# Coordination Sequence:
#
# PCOD8321486 Si02
#       7
#     3   3   3   3   3   3   3
#     4  11  20  38  65  97 130 171 238 276 339 414
#     4  12  24  39  68 102 133 182 231 295 344 422
#     4  12  25  40  70 106 143 182 235 293 365 415
#     4  11  22  44  67 101 138 186 229 297 349 423
#     4  11  24  42  69  99 140 182 239 292 348 419
#     4  11  23  40  72  96 136 185 237 286 348 421
#     4  12  24  43  69 107 140 192 235 299 353 432
#
# _framework density 21.603207999999999
#
# number of rings (size 3 to 8) (size 9 to 14) (size 15 to 20)
#    0.000    0.571    7.143    2.571    4.000    0.000 
#    0.000    1.429    3.143    0.000    0.000    0.000 
#    0.000    0.000    0.000    0.000    0.000    0.000 
#
# Total GULP energy -260441.386163 kJ/mol
# GULP energy per Si atom -12401.970770 kJ/mol
# Density = 2.155404 g / cm^3
# Si number density = 21.603208 Si / 1000 Ang^3
#
#
#
# Elastic Constant Matrix: (Units=GPa)
#
#
# Indices 1 2 3 4 5 6 
#
# 1 81.6599 24.5131 20.3685 -1.3560 5.3178 0.0000
# 2 24.5131 81.6599 20.3685 1.3560 -5.3178 0.0000
# 3 20.3685 20.3685 91.6130 0.0000 0.0000 0.0000
# 4 -1.3560 1.3560 0.0000 26.3968 0.0000 -5.3178
# 5 5.3178 -5.3178 0.0000 0.0000 26.3968 -1.3560
# 6 0.0000 0.0000 0.0000 -5.3178 -1.3560 28.5734
#
#
#
# Elastic Compliance Matrix: (Units=1/GPa)
#
#
# Indices 1 2 3 4 5 6 
#
# 1 0.014262 -0.003965 -0.002289 0.000936 -0.003672 0.000000
# 2 -0.003965 0.014262 -0.002289 -0.000936 0.003672 0.000000
# 3 -0.002289 -0.002289 0.011933 0.000000 0.000000 0.000000
# 4 0.000936 -0.000936 0.000000 0.039459 0.000000 0.007344
# 5 -0.003672 0.003672 0.000000 0.000000 0.039459 0.001873
# 6 0.000000 0.000000 0.000000 0.007344 0.001873 0.036453
#
#
# Mechanical properties :
#
#
# Convention : Reuss Voigt Hill
#
# Bulk Modulus (GPa) = 42.78983 42.82589 42.80786
# Shear Modulus (GPa) = 27.66936 28.91892 28.29414
#
# Velocity S-wave (km/s) = 3.58271 3.66271 3.62293
# Velocity P-wave (km/s) = 6.07985 6.14444 6.11223
#
# Compressibility (1/GPa) = 0.02337004
#
# Stress axis : x y z
#
# Youngs Moduli (GPa) = 70.11741 70.11741 83.79792
#
# Poissons Ratio (x) = 0.27800 0.19184
# Poissons Ratio (y) = 0.27800 0.19184
# Poissons Ratio (z) = 0.16052 0.16052
#
# Static dielectric constant tensor:
#      x y z
#    x 3.793640 0.000000 0.000000 
#    y 0.000000 3.793640 0.000000 
#    z 0.000000 0.000000 4.096080 
# 
# 
# High freq. dielectric constant tensor:
#      x y z
#    x 1.833120 0.000000 0.000000 
#    y 0.000000 1.833120 0.000000 
#    z 0.000000 0.000000 1.857020 
# 
# From -- ./inp_files/623.got.cif
#   From: 2010.03.12/outbox.cif.g09.slc.cpg/sg145_cif.got.tgz:623.got - 2010.04.03 13:35:35.
