data_PCOD8321054
_publ_section_title
;
Structure prediction by ZEFSAII (Michael W. Deem and Ramdas Pophale) SiO2 
 PCOD8321054
Probable space group: I 41/A C D
;
_chemical_formula_sum "Si O2"
_cell_formula_units_Z 144
_cell_length_a 18.118273
_cell_length_b 18.118273
_cell_length_c 21.306067
_cell_angle_alpha 90.000000
_cell_angle_beta 90.000000
_cell_angle_gamma 90.000000
_cell_volume 6994.181317
_symmetry_space_group_name_H-M "I 41/A C D"
_symmetry_group_IT_number 142
_space_group.IT_coordinate_system_code '2'
_symmetry_cell_setting 'tetragonal'
loop_
_space_group_symop_operation_xyz
x,y,z
1/4-y,3/4+x,1/4+z
-x,1/2-y,z
1/4+y,1/4-x,3/4+z
x,-y,1/2-z
1/2-x,y,-z
3/4+y,1/4+x,1/4-z
1/4-y,1/4-x,1/4-z
-x,-y,-z
3/4+y,1/4-x,3/4-z
x,1/2+y,-z
3/4-y,3/4+x,1/4-z
-x,y,1/2+z
1/2+x,-y,z
1/4-y,3/4-x,3/4+z
3/4+y,3/4+x,3/4+z
1/2+x,1/2+y,1/2+z
3/4-y,1/4+x,3/4+z
1/2-x,-y,1/2+z
3/4+y,3/4-x,1/4+z
1/2+x,1/2-y,-z
-x,1/2+y,1/2-z
1/4+y,3/4+x,3/4-z
3/4-y,3/4-x,3/4-z
1/2-x,1/2-y,1/2-z
1/4+y,3/4-x,1/4-z
1/2+x,y,1/2-z
1/4-y,1/4+x,3/4-z
1/2-x,1/2+y,z
x,1/2-y,1/2+z
3/4-y,1/4-x,1/4+z
1/4+y,1/4+x,1/4+z
loop_
_atom_site_type_symbol
_atom_site_label
_atom_site_fract_x
_atom_site_fract_y
_atom_site_fract_z
Si Si1 0.012959 0.667523 0.281046
Si Si2 0.165801 0.520853 0.485261
Si Si3 0.393440 0.871131 0.451825
Si Si4 0.639746 0.687907 0.316470
Si Si5 0.626041 0.123960 0.875000
O O1 0.065981 0.666151 0.220537
O O2 0.048130 0.619177 0.337384
O O3 0.000000 0.750000 0.305896
O O4 0.935105 0.634769 0.259798
O O5 0.250000 0.545298 0.500000
O O6 0.163921 0.434508 0.470338
O O7 0.112458 0.542010 0.543022
O O8 0.131762 0.557985 0.423527
O O9 0.370855 0.828365 0.389297
O O10 0.475535 0.905334 0.444754
#
# Coordination Sequence:
#
# PCOD8321054 Si02
#       5
#    32  32  32  32  16
#     4   9  19  35  66  97 125 155 216 272 321 375
#     4  11  24  41  59  90 136 178 214 260 322 392
#     4  11  20  39  65  98 127 163 218 269 324 380
#     4  10  20  37  66  94 123 172 213 266 325 390
#     4  10  21  42  64  88 128 178 209 258 318 384
#
# _framework density 20.588543000000001
#
# number of rings (size 3 to 8) (size 9 to 14) (size 15 to 20)
#    0.000    1.778    2.222    2.333    0.000    0.000 
#    4.000    1.111   19.556    0.000    0.000    0.000 
#    0.000    0.000    0.000    0.000    0.000    0.000 
#
# Total GULP energy -892743.003609 kJ/mol
# GULP energy per Si atom -12399.208383 kJ/mol
# Density = 2.054168 g / cm^3
# Si number density = 20.588543 Si / 1000 Ang^3
#
#
#
# Elastic Constant Matrix: (Units=GPa)
#
#
# Indices 1 2 3 4 5 6 
#
# 1 93.1338 32.2786 46.8704 0.0000 0.0000 0.0000
# 2 32.2786 93.1332 46.8703 0.0000 0.0000 0.0000
# 3 46.8704 46.8703 108.2625 0.0000 0.0000 0.0000
# 4 0.0000 0.0000 0.0000 21.4737 0.0000 0.0000
# 5 0.0000 0.0000 0.0000 0.0000 21.4741 0.0000
# 6 0.0000 0.0000 0.0000 0.0000 0.0000 30.5417
#
#
#
# Elastic Compliance Matrix: (Units=1/GPa)
#
#
# Indices 1 2 3 4 5 6 
#
# 1 0.014110 -0.002322 -0.005104 0.000000 0.000000 0.000000
# 2 -0.002322 0.014111 -0.005104 0.000000 0.000000 0.000000
# 3 -0.005104 -0.005104 0.013656 0.000000 0.000000 0.000000
# 4 0.000000 0.000000 0.000000 0.046569 0.000000 0.000000
# 5 0.000000 0.000000 0.000000 0.000000 0.046568 0.000000
# 6 0.000000 0.000000 0.000000 0.000000 0.000000 0.032742
#
#
# Mechanical properties :
#
#
# Convention : Reuss Voigt Hill
#
# Bulk Modulus (GPa) = 59.45891 60.72978 60.09435
# Shear Modulus (GPa) = 25.19907 25.93190 25.56548
#
# Velocity S-wave (km/s) = 3.50228 3.55284 3.52765
# Velocity P-wave (km/s) = 6.73030 6.81110 6.77082
#
# Compressibility (1/GPa) = 0.01681834
#
# Stress axis : x y z
#
# Youngs Moduli (GPa) = 70.86946 70.86903 73.22873
#
# Poissons Ratio (x) = 0.16456 0.37373
# Poissons Ratio (y) = 0.16456 0.37373
# Poissons Ratio (z) = 0.36169 0.36169
#
# Static dielectric constant tensor:
#      x y z
#    x 3.632420 0.000000 0.000000 
#    y 0.000000 3.632410 0.000000 
#    z 0.000000 0.000000 3.802540 
# 
# 
# High freq. dielectric constant tensor:
#      x y z
#    x 1.794240 0.000000 0.000000 
#    y 0.000000 1.794240 0.000000 
#    z 0.000000 0.000000 1.812630 
# 
# From -- ./inp_files/10101.got.cif
#   From: 2010.03.12/outbox.cif.g09.slc.cpg/sg142_6_cif.got.tgz:10101.got - 2010.04.03 13:27:16.
