data_PCOD8321713
_publ_section_title
;
Structure prediction by ZEFSAII (Michael W. Deem and Ramdas Pophale) SiO2 
 PCOD8321713
Probable space group: R -3
;
_chemical_formula_sum "Si O2"
_cell_formula_units_Z 144
_cell_length_a 29.625078
_cell_length_b 29.625078
_cell_length_c 9.452615
_cell_angle_alpha 90.000000
_cell_angle_beta 90.000000
_cell_angle_gamma 120.000000
_cell_volume 7184.583661
_symmetry_space_group_name_H-M "R -3"
_symmetry_group_IT_number 148
_symmetry_cell_setting 'hexagonal'
loop_
_space_group_symop_operation_xyz
x,y,z
-y,x-y,z
-x+y,-x,z
-x,-y,-z
y,-x+y,-z
x-y,x,-z
2/3+x,1/3+y,1/3+z
2/3-y,1/3+x-y,1/3+z
2/3-x+y,1/3-x,1/3+z
2/3-x,1/3-y,1/3-z
2/3+y,1/3-x+y,1/3-z
2/3+x-y,1/3+x,1/3-z
1/3+x,2/3+y,2/3+z
1/3-y,2/3+x-y,2/3+z
1/3-x+y,2/3-x,2/3+z
1/3-x,2/3-y,2/3-z
1/3+y,2/3-x+y,2/3-z
1/3+x-y,2/3+x,2/3-z
loop_
_atom_site_type_symbol
_atom_site_label
_atom_site_fract_x
_atom_site_fract_y
_atom_site_fract_z
Si Si1 0.632137 0.513614 0.983356
Si Si2 0.260801 0.918424 0.452948
Si Si3 0.269679 0.188910 0.314714
Si Si4 0.849369 0.778537 0.339007
Si Si5 0.253034 0.552772 0.338326
Si Si6 0.967741 0.076915 0.334634
Si Si7 0.587684 0.661377 0.907627
Si Si8 0.032711 0.298449 0.931316
O O1 0.693630 0.554662 0.956241
O O2 0.601075 0.494698 0.838309
O O3 0.627501 0.462503 0.060596
O O4 0.601527 0.536783 0.071377
O O5 0.219761 0.900714 0.580906
O O6 0.317425 0.961597 0.509875
O O7 0.241410 0.942324 0.327686
O O8 0.261996 0.131061 0.299152
O O9 0.280890 0.213795 0.159031
O O10 0.897088 0.832011 0.283880
O O11 0.801590 0.780762 0.264997
O O12 0.307009 0.558890 0.394332
O O13 0.251415 0.603387 0.393578
O O14 0.252339 0.556333 0.169989
O O15 0.641446 0.708376 0.967251
O O16 0.583987 0.651407 0.741125
#
# Coordination Sequence:
#
# PCOD8321713 Si02
#       8
#    18  18  18  18  18  18  18  18
#     4  10  20  35  58  90 121 161 204 256 306 367
#     4  11  21  39  64  89 117 161 216 255 302 365
#     4  11  22  41  61  87 125 166 204 258 313 372
#     4  11  23  35  58  88 130 160 200 255 322 369
#     4   9  16  29  53  80 121 153 196 243 304 364
#     4   9  17  30  50  84 115 158 193 242 303 367
#     4  12  21  38  64  91 119 162 209 258 307 373
#     4  11  22  39  64  87 116 160 211 253 304 371
#
# _framework density 20.042916000000002
#
# number of rings (size 3 to 8) (size 9 to 14) (size 15 to 20)
#    0.000    1.500    5.000    1.750    1.750    2.000 
#    0.000    1.250    5.500    0.000    0.000    0.000 
#    0.000    1.000    0.000    0.000    0.000    0.000 
#
# Total GULP energy -594756.120953 kJ/mol
# GULP energy per Si atom -12390.752520 kJ/mol
# Density = 1.999730 g / cm^3
# Si number density = 20.042916 Si / 1000 Ang^3
#
#
#
# Elastic Constant Matrix: (Units=GPa)
#
#
# Indices 1 2 3 4 5 6 
#
# 1 105.1009 36.5514 27.3733 3.8405 1.4300 -0.0029
# 2 36.5514 105.1057 27.3744 -3.8536 -1.4653 -0.0120
# 3 27.3733 27.3744 68.3744 0.0013 0.0310 -0.0307
# 4 3.8405 -3.8536 0.0013 14.3607 -0.0010 -1.4474
# 5 1.4300 -1.4653 0.0310 -0.0010 14.3378 3.8330
# 6 -0.0029 -0.0120 -0.0307 -1.4474 3.8330 34.2764
#
#
#
# Elastic Compliance Matrix: (Units=1/GPa)
#
#
# Indices 1 2 3 4 5 6 
#
# 1 0.011728 -0.003377 -0.003342 -0.004043 -0.001506 -0.000005
# 2 -0.003377 0.011730 -0.003345 0.004051 0.001543 -0.000001
# 3 -0.003342 -0.003345 0.017303 -0.000003 -0.000051 0.000020
# 4 -0.004043 0.004051 -0.000003 0.072110 0.000008 0.003045
# 5 -0.001506 0.001543 -0.000051 0.000008 0.072213 -0.008075
# 6 -0.000005 -0.000001 0.000020 0.003045 -0.008075 0.030206
#
#
# Mechanical properties :
#
#
# Convention : Reuss Voigt Hill
#
# Bulk Modulus (GPa) = 48.46952 51.24212 49.85582
# Shear Modulus (GPa) = 20.63599 25.08045 22.85822
#
# Velocity S-wave (km/s) = 3.21220 3.54126 3.38074
# Velocity P-wave (km/s) = 6.16385 6.50711 6.33780
#
# Compressibility (1/GPa) = 0.02063152
#
# Stress axis : x y z
#
# Youngs Moduli (GPa) = 85.26667 85.25228 57.79463
#
# Poissons Ratio (x) = 0.28791 0.19317
# Poissons Ratio (y) = 0.28796 0.19332
# Poissons Ratio (z) = 0.28499 0.28516
#
# Static dielectric constant tensor:
#      x y z
#    x 3.733210 0.000000 -0.000260 
#    y 0.000000 3.733380 -0.000020 
#    z -0.000260 -0.000020 3.243810 
# 
# 
# High freq. dielectric constant tensor:
#      x y z
#    x 1.786040 0.000000 -0.000020 
#    y 0.000000 1.786050 0.000000 
#    z -0.000020 0.000000 1.738500 
# 
# From -- ./inp_files/1143.got.cif
#   From: 2010.03.12/outbox.cif.g09.slc.cpg/sg148_1_cif.got.tgz:1143.got - 2010.04.03 13:38:46.
