data_PCOD8321087
_publ_section_title
;
Structure prediction by ZEFSAII (Michael W. Deem and Ramdas Pophale) SiO2 
 PCOD8321087
Probable space group: I 41/A C D
;
_chemical_formula_sum "Si O2"
_cell_formula_units_Z 128
_cell_length_a 22.563424
_cell_length_b 22.563424
_cell_length_c 11.206921
_cell_angle_alpha 90.000000
_cell_angle_beta 90.000000
_cell_angle_gamma 90.000000
_cell_volume 5705.534286
_symmetry_space_group_name_H-M "I 41/A C D"
_symmetry_group_IT_number 142
_space_group.IT_coordinate_system_code '2'
_symmetry_cell_setting 'tetragonal'
loop_
_space_group_symop_operation_xyz
x,y,z
1/4-y,3/4+x,1/4+z
-x,1/2-y,z
1/4+y,1/4-x,3/4+z
x,-y,1/2-z
1/2-x,y,-z
3/4+y,1/4+x,1/4-z
1/4-y,1/4-x,1/4-z
-x,-y,-z
3/4+y,1/4-x,3/4-z
x,1/2+y,-z
3/4-y,3/4+x,1/4-z
-x,y,1/2+z
1/2+x,-y,z
1/4-y,3/4-x,3/4+z
3/4+y,3/4+x,3/4+z
1/2+x,1/2+y,1/2+z
3/4-y,1/4+x,3/4+z
1/2-x,-y,1/2+z
3/4+y,3/4-x,1/4+z
1/2+x,1/2-y,-z
-x,1/2+y,1/2-z
1/4+y,3/4+x,3/4-z
3/4-y,3/4-x,3/4-z
1/2-x,1/2-y,1/2-z
1/4+y,3/4-x,1/4-z
1/2+x,y,1/2-z
1/4-y,1/4+x,3/4-z
1/2-x,1/2+y,z
x,1/2-y,1/2+z
3/4-y,1/4-x,1/4+z
1/4+y,1/4+x,1/4+z
loop_
_atom_site_type_symbol
_atom_site_label
_atom_site_fract_x
_atom_site_fract_y
_atom_site_fract_z
Si Si1 0.005757 0.500000 0.750000
Si Si2 0.123457 0.818880 0.759266
Si Si3 0.447919 0.902857 0.391383
Si Si4 0.226442 0.476442 0.625000
Si Si5 0.748844 0.649848 0.699788
O O1 0.042435 0.490305 0.630624
O O2 0.969361 0.439250 0.773109
O O3 0.088749 0.845367 0.645864
O O4 0.130961 0.749227 0.731782
O O5 0.188367 0.848792 0.768622
O O6 0.083583 0.833583 0.875000
O O7 0.401166 0.946335 0.454879
O O8 0.255280 0.500000 0.750000
O O9 0.157352 0.491572 0.632290
#
# Coordination Sequence:
#
# PCOD8321087 Si02
#       5
#    16  32  32  16  32
#     4  10  20  42  64  92 130 178 230 266 334 416
#     4  11  24  44  66  98 132 175 230 282 339 405
#     4  11  23  41  69  97 131 179 224 284 336 409
#     4  12  26  44  66 104 145 178 222 285 358 418
#     4  11  23  42  67  97 134 181 224 276 345 417
#
# _framework density 22.434359000000001
#
# number of rings (size 3 to 8) (size 9 to 14) (size 15 to 20)
#    0.000    1.000    1.250    7.500    5.250    0.500 
#    4.500    1.250    0.000    0.000    0.000    0.000 
#    0.000    0.000    0.000    0.000    0.000    0.000 
#
# Total GULP energy -793529.086998 kJ/mol
# GULP energy per Si atom -12398.891984 kJ/mol
# Density = 2.238330 g / cm^3
# Si number density = 22.434359 Si / 1000 Ang^3
#
#
#
# Elastic Constant Matrix: (Units=GPa)
#
#
# Indices 1 2 3 4 5 6 
#
# 1 65.8510 44.5874 28.5011 0.0000 0.0000 0.0000
# 2 44.5874 65.8510 28.5011 0.0000 0.0000 0.0000
# 3 28.5011 28.5011 114.3391 0.0000 0.0000 0.0000
# 4 0.0000 0.0000 0.0000 29.7681 0.0000 0.0000
# 5 0.0000 0.0000 0.0000 0.0000 29.7681 0.0000
# 6 0.0000 0.0000 0.0000 0.0000 0.0000 35.8929
#
#
#
# Elastic Compliance Matrix: (Units=1/GPa)
#
#
# Indices 1 2 3 4 5 6 
#
# 1 0.028710 -0.018318 -0.002590 0.000000 0.000000 0.000000
# 2 -0.018318 0.028710 -0.002590 0.000000 0.000000 0.000000
# 3 -0.002590 -0.002590 0.010037 0.000000 0.000000 0.000000
# 4 0.000000 0.000000 0.000000 0.033593 0.000000 0.000000
# 5 0.000000 0.000000 0.000000 0.000000 0.033593 0.000000
# 6 0.000000 0.000000 0.000000 0.000000 0.000000 0.027861
#
#
# Mechanical properties :
#
#
# Convention : Reuss Voigt Hill
#
# Bulk Modulus (GPa) = 48.87697 49.91337 49.39517
# Shear Modulus (GPa) = 23.11363 28.71592 25.91477
#
# Velocity S-wave (km/s) = 3.21328 3.58159 3.40242
# Velocity P-wave (km/s) = 5.96664 6.27699 6.12378
#
# Compressibility (1/GPa) = 0.02045953
#
# Stress axis : x y z
#
# Youngs Moduli (GPa) = 34.83077 34.83077 99.62844
#
# Poissons Ratio (x) = 0.63805 0.25807
# Poissons Ratio (y) = 0.63805 0.25807
# Poissons Ratio (z) = 0.09022 0.09022
#
# Static dielectric constant tensor:
#      x y z
#    x 4.025960 0.000000 0.000000 
#    y 0.000000 4.025960 0.000000 
#    z 0.000000 0.000000 3.961130 
# 
# 
# High freq. dielectric constant tensor:
#      x y z
#    x 1.880020 0.000000 0.000000 
#    y 0.000000 1.880020 0.000000 
#    z 0.000000 0.000000 1.891910 
# 
# From -- ./inp_files/3503.got.cif
#   From: 2010.03.12/outbox.cif.g09.slc.cpg/sg142_2_cif.got.tgz:3503.got - 2010.04.03 13:27:16.
