data_PCOD8321261
_publ_section_title
;
Structure prediction by ZEFSAII (Michael W. Deem and Ramdas Pophale) SiO2 
 PCOD8321261
Probable space group: I 41/A C D
;
_chemical_formula_sum "Si O2"
_cell_formula_units_Z 160
_cell_length_a 22.464702
_cell_length_b 22.464702
_cell_length_c 13.005418
_cell_angle_alpha 90.000000
_cell_angle_beta 90.000000
_cell_angle_gamma 90.000000
_cell_volume 6563.351131
_symmetry_space_group_name_H-M "I 41/A C D"
_symmetry_group_IT_number 142
_space_group.IT_coordinate_system_code '2'
_symmetry_cell_setting 'tetragonal'
loop_
_space_group_symop_operation_xyz
x,y,z
1/4-y,3/4+x,1/4+z
-x,1/2-y,z
1/4+y,1/4-x,3/4+z
x,-y,1/2-z
1/2-x,y,-z
3/4+y,1/4+x,1/4-z
1/4-y,1/4-x,1/4-z
-x,-y,-z
3/4+y,1/4-x,3/4-z
x,1/2+y,-z
3/4-y,3/4+x,1/4-z
-x,y,1/2+z
1/2+x,-y,z
1/4-y,3/4-x,3/4+z
3/4+y,3/4+x,3/4+z
1/2+x,1/2+y,1/2+z
3/4-y,1/4+x,3/4+z
1/2-x,-y,1/2+z
3/4+y,3/4-x,1/4+z
1/2+x,1/2-y,-z
-x,1/2+y,1/2-z
1/4+y,3/4+x,3/4-z
3/4-y,3/4-x,3/4-z
1/2-x,1/2-y,1/2-z
1/4+y,3/4-x,1/4-z
1/2+x,y,1/2-z
1/4-y,1/4+x,3/4-z
1/2-x,1/2+y,z
x,1/2-y,1/2+z
3/4-y,1/4-x,1/4+z
1/4+y,1/4+x,1/4+z
loop_
_atom_site_type_symbol
_atom_site_label
_atom_site_fract_x
_atom_site_fract_y
_atom_site_fract_z
Si Si1 0.787779 0.447058 0.905062
Si Si2 0.536422 0.066437 0.292258
Si Si3 0.657993 0.321304 0.332919
Si Si4 0.105364 0.979665 0.481991
Si Si5 0.539951 0.840108 0.381649
O O1 0.763053 0.513053 0.875000
O O2 0.776796 0.403419 0.811272
O O3 0.750000 0.420279 0.000000
O O4 0.857559 0.442447 0.933014
O O5 0.473735 0.095658 0.321735
O O6 0.561193 0.110848 0.203928
O O7 0.529581 0.000000 0.250000
O O8 0.576907 0.063388 0.396489
O O9 0.636207 0.386207 0.375000
O O10 0.726430 0.312268 0.294203
O O11 0.614183 0.300986 0.244466
O O12 0.577915 0.780506 0.369196
#
# Coordination Sequence:
#
# PCOD8321261 Si02
#       5
#    32  32  32  32  32
#     4   9  20  40  62  98 141 187 238 285 350 441
#     4  12  26  47  71 109 146 183 240 303 367 433
#     4  12  26  46  73 108 144 192 241 294 373 438
#     4  11  23  41  71 105 146 187 237 298 360 441
#     4  11  26  52  78 105 145 192 247 308 364 437
#
# _framework density 24.377790999999998
#
# number of rings (size 3 to 8) (size 9 to 14) (size 15 to 20)
#    0.000    1.000    4.000    1.800    0.000    4.000 
#   10.800    0.000    0.000    0.000    0.000    0.000 
#    0.000    0.000    0.000    0.000    0.000    0.000 
#
# Total GULP energy -991472.628325 kJ/mol
# GULP energy per Si atom -12393.407854 kJ/mol
# Density = 2.432231 g / cm^3
# Si number density = 24.377791 Si / 1000 Ang^3
#
#
#
# Elastic Constant Matrix: (Units=GPa)
#
#
# Indices 1 2 3 4 5 6 
#
# 1 74.5203 23.8205 18.8801 0.0000 0.0000 0.0000
# 2 23.8205 74.5203 18.8801 0.0000 0.0000 0.0000
# 3 18.8801 18.8801 78.1198 0.0000 0.0000 0.0000
# 4 0.0000 0.0000 0.0000 36.6140 0.0000 0.0000
# 5 0.0000 0.0000 0.0000 0.0000 36.6140 0.0000
# 6 0.0000 0.0000 0.0000 0.0000 0.0000 23.6797
#
#
#
# Elastic Compliance Matrix: (Units=1/GPa)
#
#
# Indices 1 2 3 4 5 6 
#
# 1 0.015466 -0.004258 -0.002709 0.000000 0.000000 0.000000
# 2 -0.004258 0.015466 -0.002709 0.000000 0.000000 0.000000
# 3 -0.002709 -0.002709 0.014110 0.000000 0.000000 0.000000
# 4 0.000000 0.000000 0.000000 0.027312 0.000000 0.000000
# 5 0.000000 0.000000 0.000000 0.000000 0.027312 0.000000
# 6 0.000000 0.000000 0.000000 0.000000 0.000000 0.042230
#
#
# Mechanical properties :
#
#
# Convention : Reuss Voigt Hill
#
# Bulk Modulus (GPa) = 38.92245 38.92468 38.92356
# Shear Modulus (GPa) = 29.44427 30.42018 29.93223
#
# Velocity S-wave (km/s) = 3.47916 3.53634 3.50787
# Velocity P-wave (km/s) = 5.66925 5.71631 5.69283
#
# Compressibility (1/GPa) = 0.02569212
#
# Stress axis : x y z
#
# Youngs Moduli (GPa) = 64.65622 64.65622 70.87030
#
# Poissons Ratio (x) = 0.27528 0.19199
# Poissons Ratio (y) = 0.27528 0.19199
# Poissons Ratio (z) = 0.17515 0.17515
#
# Static dielectric constant tensor:
#      x y z
#    x 4.410200 0.000000 0.000000 
#    y 0.000000 4.410200 0.000000 
#    z 0.000000 0.000000 4.610190 
# 
# 
# High freq. dielectric constant tensor:
#      x y z
#    x 1.962650 0.000000 0.000000 
#    y 0.000000 1.962650 0.000000 
#    z 0.000000 0.000000 1.983410 
# 
# From -- ./inp_files/5458.got.cif
#   From: 2010.03.12/outbox.cif.g09.slc.cpg/sg142_3_cif.got.tgz:5458.got - 2010.04.03 13:27:16.
