data_PCOD8321443
_publ_section_title
;
Structure prediction by ZEFSAII (Michael W. Deem and Ramdas Pophale) SiO2 
 PCOD8321443
Probable space group: P 31
;
_chemical_formula_sum "Si O2"
_cell_formula_units_Z 18
_cell_length_a 9.501520
_cell_length_b 9.501520
_cell_length_c 9.108029
_cell_angle_alpha 90.000000
_cell_angle_beta 90.000000
_cell_angle_gamma 120.000000
_cell_volume 712.100368
_symmetry_space_group_name_H-M "P 31"
_symmetry_group_IT_number 144
_symmetry_cell_setting 'hexagonal'
loop_
_space_group_symop_operation_xyz
x,y,z
-y,x-y,1/3+z
-x+y,-x,2/3+z
loop_
_atom_site_type_symbol
_atom_site_label
_atom_site_fract_x
_atom_site_fract_y
_atom_site_fract_z
Si Si1 0.042972 0.864582 0.753320
Si Si2 0.587094 0.580483 0.084189
Si Si3 0.957030 0.821612 0.070916
Si Si4 0.127604 0.709325 0.284131
Si Si5 0.006610 0.419518 0.073379
Si Si6 0.418281 0.290676 0.873438
O O1 0.025801 0.025800 0.745451
O O2 0.916340 0.741200 0.634726
O O3 0.221636 0.907090 0.710758
O O4 0.000002 0.781955 0.912119
O O5 0.511103 0.511102 0.245451
O O6 0.778365 0.685456 0.113478
O O7 0.516801 0.690917 0.014356
O O8 0.550783 0.430498 0.978659
O O9 0.083660 0.824863 0.189512
O O10 0.120284 0.569504 0.178908
O O11 1.000000 0.619297 0.412118
O O12 0.825884 0.309084 0.143213
#
# Coordination Sequence:
#
# PCOD8321443 Si02
#       6
#     3   3   3   3   3   3
#     4  12  24  47  84 113 145 201 272 314 375 465
#     4  12  27  52  77 113 159 206 254 323 394 462
#     4  12  24  47  84 113 145 201 272 314 375 465
#     4  12  28  49  78 116 154 207 260 322 391 466
#     4  12  27  52  77 113 159 206 254 323 394 462
#     4  12  28  49  78 116 154 207 260 322 391 466
#
# _framework density 25.277335999999998
#
# number of rings (size 3 to 8) (size 9 to 14) (size 15 to 20)
#    0.000    0.000    6.667    3.000    4.667    2.667 
#    0.000    0.000    0.000    0.000    0.000    0.000 
#    0.000    0.000    0.000    0.000    0.000    0.000 
#
# Total GULP energy -223270.053651 kJ/mol
# GULP energy per Si atom -12403.891869 kJ/mol
# Density = 2.521980 g / cm^3
# Si number density = 25.277336 Si / 1000 Ang^3
#
#
#
# Elastic Constant Matrix: (Units=GPa)
#
#
# Indices 1 2 3 4 5 6 
#
# 1 107.4383 37.4414 37.4834 -12.3532 0.0002 0.0000
# 2 37.4414 107.4383 37.4834 12.3532 -0.0002 0.0000
# 3 37.4834 37.4834 191.4207 0.0000 0.0000 0.0000
# 4 -12.3532 12.3532 0.0000 44.2363 0.0000 -0.0002
# 5 0.0002 -0.0002 0.0000 0.0000 44.2363 -12.3532
# 6 0.0000 0.0000 0.0000 -0.0002 -12.3532 34.9985
#
#
#
# Elastic Compliance Matrix: (Units=1/GPa)
#
#
# Indices 1 2 3 4 5 6 
#
# 1 0.011764 -0.004084 -0.001504 0.004426 0.000000 0.000000
# 2 -0.004084 0.011764 -0.001504 -0.004426 0.000000 0.000000
# 3 -0.001504 -0.001504 0.005813 0.000000 0.000000 0.000000
# 4 0.004426 -0.004426 0.000000 0.025078 0.000000 0.000000
# 5 0.000000 0.000000 0.000000 0.000000 0.025078 0.008852
# 6 0.000000 0.000000 0.000000 0.000000 0.008852 0.031697
#
#
# Mechanical properties :
#
#
# Convention : Reuss Voigt Hill
#
# Bulk Modulus (GPa) = 65.97085 70.12374 68.04730
# Shear Modulus (GPa) = 38.33445 44.28681 41.31063
#
# Velocity S-wave (km/s) = 3.89852 4.19027 4.04703
# Velocity P-wave (km/s) = 6.81323 7.15634 6.98689
#
# Compressibility (1/GPa) = 0.01515821
#
# Stress axis : x y z
#
# Youngs Moduli (GPa) = 85.00164 85.00164 172.02525
#
# Poissons Ratio (x) = 0.34715 0.25872
# Poissons Ratio (y) = 0.34715 0.25872
# Poissons Ratio (z) = 0.12784 0.12784
#
# Static dielectric constant tensor:
#      x y z
#    x 4.370820 0.000000 0.000000 
#    y 0.000000 4.370820 0.000000 
#    z 0.000000 0.000000 5.292590 
# 
# 
# High freq. dielectric constant tensor:
#      x y z
#    x 1.997060 0.000000 0.000000 
#    y 0.000000 1.997060 0.000000 
#    z 0.000000 0.000000 2.047550 
# 
# From -- ./inp_files/261.got.cif
#   From: 2010.03.12/outbox.cif.g09.slc.cpg/sg144_cif.got.tgz:261.got - 2010.04.03 13:34:42.
