data_PCOD8321323
_publ_section_title
;
Structure prediction by ZEFSAII (Michael W. Deem and Ramdas Pophale) SiO2 
 PCOD8321323
Probable space group: I 41/A C D
;
_chemical_formula_sum "Si O2"
_cell_formula_units_Z 72
_cell_length_a 14.448000
_cell_length_b 14.448000
_cell_length_c 14.197894
_cell_angle_alpha 90.000000
_cell_angle_beta 90.000000
_cell_angle_gamma 90.000000
_cell_volume 2963.735180
_symmetry_space_group_name_H-M "I 41/A C D"
_symmetry_group_IT_number 142
_space_group.IT_coordinate_system_code '2'
_symmetry_cell_setting 'tetragonal'
loop_
_space_group_symop_operation_xyz
x,y,z
1/4-y,3/4+x,1/4+z
-x,1/2-y,z
1/4+y,1/4-x,3/4+z
x,-y,1/2-z
1/2-x,y,-z
3/4+y,1/4+x,1/4-z
1/4-y,1/4-x,1/4-z
-x,-y,-z
3/4+y,1/4-x,3/4-z
x,1/2+y,-z
3/4-y,3/4+x,1/4-z
-x,y,1/2+z
1/2+x,-y,z
1/4-y,3/4-x,3/4+z
3/4+y,3/4+x,3/4+z
1/2+x,1/2+y,1/2+z
3/4-y,1/4+x,3/4+z
1/2-x,-y,1/2+z
3/4+y,3/4-x,1/4+z
1/2+x,1/2-y,-z
-x,1/2+y,1/2-z
1/4+y,3/4+x,3/4-z
3/4-y,3/4-x,3/4-z
1/2-x,1/2-y,1/2-z
1/4+y,3/4-x,1/4-z
1/2+x,y,1/2-z
1/4-y,1/4+x,3/4-z
1/2-x,1/2+y,z
x,1/2-y,1/2+z
3/4-y,1/4-x,1/4+z
1/4+y,1/4+x,1/4+z
loop_
_atom_site_type_symbol
_atom_site_label
_atom_site_fract_x
_atom_site_fract_y
_atom_site_fract_z
Si Si1 0.330676 0.419325 0.375000
Si Si2 0.524967 0.125563 0.799929
Si Si3 0.000000 0.250000 0.875000
Si Si4 0.750000 0.070795 0.000000
O O1 0.324382 0.322181 0.430027
O O2 0.243505 0.426445 0.304773
O O3 0.541753 0.208248 0.875000
O O4 0.525307 0.163818 0.692691
O O5 0.608997 0.054628 0.817680
#
# Coordination Sequence:
#
# PCOD8321323 Si02
#       4
#    16  32   8  16
#     4  12  27  54  76 119 160 204 272 322 396 475
#     4  12  27  52  78 116 158 211 269 326 399 469
#     4  12  26  48  84 110 156 220 266 324 396 470
#     4  12  30  46  78 118 160 212 254 336 400 472
#
# _framework density 24.293669000000001
#
# number of rings (size 3 to 8) (size 9 to 14) (size 15 to 20)
#    0.000    0.000    6.667    1.333   12.444    1.778 
#    0.000    0.000    0.000    0.000    0.000    0.000 
#    0.000    0.000    0.000    0.000    0.000    0.000 
#
# Total GULP energy -446112.675825 kJ/mol
# GULP energy per Si atom -12392.018773 kJ/mol
# Density = 2.423838 g / cm^3
# Si number density = 24.293669 Si / 1000 Ang^3
#
#
#
# Elastic Constant Matrix: (Units=GPa)
#
#
# Indices 1 2 3 4 5 6 
#
# 1 183.0365 85.9876 58.8536 0.0000 0.0000 0.0000
# 2 85.9876 183.0372 58.8530 0.0000 0.0000 0.0000
# 3 58.8536 58.8530 153.1294 0.0000 0.0000 0.0000
# 4 0.0000 0.0000 0.0000 24.6470 0.0000 0.0000
# 5 0.0000 0.0000 0.0000 0.0000 24.6484 0.0000
# 6 0.0000 0.0000 0.0000 0.0000 0.0000 65.9807
#
#
#
# Elastic Compliance Matrix: (Units=1/GPa)
#
#
# Indices 1 2 3 4 5 6 
#
# 1 0.007386 -0.002918 -0.001717 0.000000 0.000000 0.000000
# 2 -0.002918 0.007386 -0.001717 0.000000 0.000000 0.000000
# 3 -0.001717 -0.001717 0.007851 0.000000 0.000000 0.000000
# 4 0.000000 0.000000 0.000000 0.040573 0.000000 0.000000
# 5 0.000000 0.000000 0.000000 0.000000 0.040571 0.000000
# 6 0.000000 0.000000 0.000000 0.000000 0.000000 0.015156
#
#
# Mechanical properties :
#
#
# Convention : Reuss Voigt Hill
#
# Bulk Modulus (GPa) = 100.82716 102.95461 101.89089
# Shear Modulus (GPa) = 37.05519 44.08913 40.57216
#
# Velocity S-wave (km/s) = 3.90975 4.26472 4.09108
# Velocity P-wave (km/s) = 7.87243 8.16833 8.02174
#
# Compressibility (1/GPa) = 0.00991796
#
# Stress axis : x y z
#
# Youngs Moduli (GPa) = 135.38517 135.38611 127.37917
#
# Poissons Ratio (x) = 0.39502 0.21877
# Poissons Ratio (y) = 0.39502 0.21876
# Poissons Ratio (z) = 0.23252 0.23251
#
# Static dielectric constant tensor:
#      x y z
#    x 4.447720 0.000000 0.000000 
#    y 0.000000 4.447740 0.000000 
#    z 0.000000 0.000000 4.314190 
# 
# 
# High freq. dielectric constant tensor:
#      x y z
#    x 1.982750 0.000000 0.000000 
#    y 0.000000 1.982760 0.000000 
#    z 0.000000 0.000000 1.959750 
# 
# From -- ./inp_files/6413.got.cif
#   From: 2010.03.12/outbox.cif.g09.slc.cpg/sg142_4_cif.got.tgz:6413.got - 2010.04.03 13:27:16.
