data_PCOD8321967
_publ_section_title
;
Structure prediction by ZEFSAII (Michael W. Deem and Ramdas Pophale) SiO2 
 PCOD8321967
Probable space group: P 31 1 2
;
_chemical_formula_sum "Si O2"
_cell_formula_units_Z 36
_cell_length_a 8.866469
_cell_length_b 8.866469
_cell_length_c 26.206407
_cell_angle_alpha 90.000000
_cell_angle_beta 90.000000
_cell_angle_gamma 120.000000
_cell_volume 1784.183477
_symmetry_space_group_name_H-M "P 31 1 2"
_symmetry_group_IT_number 151
_symmetry_cell_setting 'hexagonal'
loop_
_space_group_symop_operation_xyz
x,y,z
-y,x-y,1/3+z
-x+y,-x,2/3+z
-y,-x,2/3-z
-x+y,y,1/3-z
x,x-y,-z
loop_
_atom_site_type_symbol
_atom_site_label
_atom_site_fract_x
_atom_site_fract_y
_atom_site_fract_z
Si Si1 0.246655 0.739329 0.593909
Si Si2 0.267909 0.203149 0.446081
Si Si3 0.004881 0.109485 0.111626
Si Si4 0.646423 0.690059 0.928709
Si Si5 0.153116 0.739733 0.707904
Si Si6 0.963102 0.608517 0.293777
O O1 0.101907 0.546568 0.573242
O O2 0.182201 0.776690 0.647566
O O3 0.430288 0.751113 0.599692
O O4 0.279369 0.889089 0.553261
O O5 0.324211 0.162106 0.500000
O O6 0.400016 0.197729 0.404244
O O7 0.068924 0.069110 0.433098
O O8 0.092554 0.185108 0.166667
O O9 0.117670 0.235762 0.066516
O O10 0.804135 0.070839 0.110661
O O11 0.644801 0.863450 0.943734
O O12 0.683638 0.611122 0.979509
O O13 0.988977 0.545714 0.717621
#
# Coordination Sequence:
#
# PCOD8321967 Si02
#       6
#     6   6   6   6   6   6
#     4   9  18  34  56  79 100 134 183 224 265 320
#     4  10  20  33  50  77 108 139 178 218 265 330
#     4  10  20  33  49  76 110 140 173 216 273 332
#     4   8  15  31  53  73  98 134 175 219 261 313
#     4   9  18  33  55  80 103 132 175 224 273 323
#     4   8  15  30  52  75  98 131 175 217 260 314
#
# _framework density 20.177296999999999
#
# number of rings (size 3 to 8) (size 9 to 14) (size 15 to 20)
#    0.000    3.000    0.000    3.000    0.000    3.333 
#    0.000   14.167    0.000    2.000    0.000    0.000 
#    0.000    0.000    0.000    0.000    0.000    0.000 
#
# Total GULP energy -446125.009707 kJ/mol
# GULP energy per Si atom -12392.361381 kJ/mol
# Density = 2.013137 g / cm^3
# Si number density = 20.177297 Si / 1000 Ang^3
#
#
#
# Elastic Constant Matrix: (Units=GPa)
#
#
# Indices 1 2 3 4 5 6 
#
# 1 72.3280 19.8404 32.4311 -0.0001 -4.3576 0.0000
# 2 19.8404 72.3280 32.4311 0.0001 4.3576 0.0000
# 3 32.4311 32.4311 67.6223 0.0000 0.0000 0.0000
# 4 -0.0001 0.0001 0.0000 27.0267 0.0000 4.3576
# 5 -4.3576 4.3576 0.0000 0.0000 27.0267 -0.0001
# 6 0.0000 0.0000 0.0000 4.3576 -0.0001 26.2438
#
#
#
# Elastic Compliance Matrix: (Units=1/GPa)
#
#
# Indices 1 2 3 4 5 6 
#
# 1 0.017977 -0.001600 -0.007854 0.000000 0.003156 0.000000
# 2 -0.001600 0.017977 -0.007854 0.000000 -0.003156 0.000000
# 3 -0.007854 -0.007854 0.022322 0.000000 0.000000 0.000000
# 4 0.000000 0.000000 0.000000 0.038018 0.000000 -0.006313
# 5 0.003156 -0.003156 0.000000 0.000000 0.038018 0.000000
# 6 0.000000 0.000000 0.000000 -0.006313 0.000000 0.039152
#
#
# Mechanical properties :
#
#
# Convention : Reuss Voigt Hill
#
# Bulk Modulus (GPa) = 42.26786 42.40929 42.33858
# Shear Modulus (GPa) = 23.15172 24.56448 23.85810
#
# Velocity S-wave (km/s) = 3.39103 3.49296 3.44237
# Velocity P-wave (km/s) = 6.02709 6.10996 6.06867
#
# Compressibility (1/GPa) = 0.02365864
#
# Stress axis : x y z
#
# Youngs Moduli (GPa) = 55.62774 55.62774 44.79935
#
# Poissons Ratio (x) = 0.08898 0.35187
# Poissons Ratio (y) = 0.08898 0.35187
# Poissons Ratio (z) = 0.43692 0.43692
#
# Static dielectric constant tensor:
#      x y z
#    x 3.642320 0.000000 0.000000 
#    y 0.000000 3.642320 0.000000 
#    z 0.000000 0.000000 3.587530 
# 
# 
# High freq. dielectric constant tensor:
#      x y z
#    x 1.771820 0.000000 0.000000 
#    y 0.000000 1.771820 0.000000 
#    z 0.000000 0.000000 1.771690 
# 
# From -- ./inp_files/4872.got.cif
#   From: 2010.03.12/outbox.cif.g09.slc.cpg/sg151_3_cif.got.tgz:4872.got - 2010.04.03 13:42:29.
