data_PCOD8321675
_publ_section_title
;
Structure prediction by ZEFSAII (Michael W. Deem and Ramdas Pophale) SiO2 
 PCOD8321675
Probable space group: R -3
;
_chemical_formula_sum "Si O2"
_cell_formula_units_Z 90
_cell_length_a 17.563018
_cell_length_b 17.563018
_cell_length_c 18.617939
_cell_angle_alpha 90.000000
_cell_angle_beta 90.000000
_cell_angle_gamma 120.000000
_cell_volume 4973.481738
_symmetry_space_group_name_H-M "R -3"
_symmetry_group_IT_number 148
_symmetry_cell_setting 'hexagonal'
loop_
_space_group_symop_operation_xyz
x,y,z
-y,x-y,z
-x+y,-x,z
-x,-y,-z
y,-x+y,-z
x-y,x,-z
2/3+x,1/3+y,1/3+z
2/3-y,1/3+x-y,1/3+z
2/3-x+y,1/3-x,1/3+z
2/3-x,1/3-y,1/3-z
2/3+y,1/3-x+y,1/3-z
2/3+x-y,1/3+x,1/3-z
1/3+x,2/3+y,2/3+z
1/3-y,2/3+x-y,2/3+z
1/3-x+y,2/3-x,2/3+z
1/3-x,2/3-y,2/3-z
1/3+y,2/3-x+y,2/3-z
1/3+x-y,2/3+x,2/3-z
loop_
_atom_site_type_symbol
_atom_site_label
_atom_site_fract_x
_atom_site_fract_y
_atom_site_fract_z
Si Si1 0.322573 0.485822 0.386720
Si Si2 0.793714 0.762543 0.134213
Si Si3 0.352911 0.018544 0.333881
Si Si4 0.328466 0.489270 0.947574
Si Si5 0.754980 0.800137 0.871786
O O1 0.301562 0.466892 0.472530
O O2 0.330488 0.409967 0.345061
O O3 0.240319 0.491604 0.354908
O O4 0.410288 0.578332 0.374241
O O5 0.721927 0.743697 0.073258
O O6 0.889449 0.789741 0.100355
O O7 0.770205 0.679438 0.184034
O O8 0.354894 0.928824 0.340751
O O9 0.422597 0.074399 0.271009
O O10 0.343708 0.477633 0.863337
#
# Coordination Sequence:
#
# PCOD8321675 Si02
#       5
#    18  18  18  18  18
#     4  10  20  33  49  71 100 132 163 197 241 292
#     4   8  16  30  47  69  95 121 152 195 243 284
#     4  10  17  30  52  76  97 120 162 208 245 280
#     4  10  20  33  49  71 100 132 163 197 241 292
#     4   8  16  30  47  69  95 121 152 195 243 284
#
# _framework density 18.095973999999998
#
# number of rings (size 3 to 8) (size 9 to 14) (size 15 to 20)
#    0.000    2.800    0.000    4.600    0.000    3.200 
#    0.000    0.000    0.000    0.000    0.000    7.000 
#    0.000   32.000    0.000    0.000    0.000    0.000 
#
# Total GULP energy -371684.125931 kJ/mol
# GULP energy per Si atom -12389.470864 kJ/mol
# Density = 1.805479 g / cm^3
# Si number density = 18.095974 Si / 1000 Ang^3
#
#
#
# Elastic Constant Matrix: (Units=GPa)
#
#
# Indices 1 2 3 4 5 6 
#
# 1 75.8631 40.1408 34.5468 1.7010 1.0218 0.0000
# 2 40.1408 75.8631 34.5468 -1.7010 -1.0218 0.0000
# 3 34.5468 34.5468 76.0859 0.0000 0.0000 0.0000
# 4 1.7010 -1.7010 0.0000 23.0572 0.0000 -1.0218
# 5 1.0218 -1.0218 0.0000 0.0000 23.0572 1.7010
# 6 0.0000 0.0000 0.0000 -1.0218 1.7010 17.8612
#
#
#
# Elastic Compliance Matrix: (Units=1/GPa)
#
#
# Indices 1 2 3 4 5 6 
#
# 1 0.020040 -0.008224 -0.005365 -0.002085 -0.001252 0.000000
# 2 -0.008224 0.020040 -0.005365 0.002085 0.001252 0.000000
# 3 -0.005365 -0.005365 0.018015 0.000000 0.000000 0.000000
# 4 -0.002085 0.002085 0.000000 0.043789 0.000000 0.002505
# 5 -0.001252 0.001252 0.000000 0.000000 0.043789 -0.004170
# 6 0.000000 0.000000 0.000000 0.002505 -0.004170 0.056528
#
#
# Mechanical properties :
#
#
# Convention : Reuss Voigt Hill
#
# Bulk Modulus (GPa) = 49.53745 49.58677 49.56211
# Shear Modulus (GPa) = 20.25622 20.70029 20.47825
#
# Velocity S-wave (km/s) = 3.34934 3.38585 3.36765
# Velocity P-wave (km/s) = 6.51089 6.53811 6.52452
#
# Compressibility (1/GPa) = 0.02018675
#
# Stress axis : x y z
#
# Youngs Moduli (GPa) = 49.90042 49.90042 55.50930
#
# Poissons Ratio (x) = 0.41038 0.29781
# Poissons Ratio (y) = 0.41038 0.29781
# Poissons Ratio (z) = 0.26772 0.26772
#
# Static dielectric constant tensor:
#      x y z
#    x 3.282370 0.000000 0.000000 
#    y 0.000000 3.282370 0.000000 
#    z 0.000000 0.000000 3.328610 
# 
# 
# High freq. dielectric constant tensor:
#      x y z
#    x 1.694270 0.000000 0.000000 
#    y 0.000000 1.694270 0.000000 
#    z 0.000000 0.000000 1.681560 
# 
# From -- ./inp_files/2690.got.cif
#   From: 2010.03.12/outbox.cif.g09.slc.cpg/sg148_2_cif.got.tgz:2690.got - 2010.04.03 13:38:46.
