data_PCOD8321367
_publ_section_title
;
Structure prediction by ZEFSAII (Michael W. Deem and Ramdas Pophale) SiO2 
 PCOD8321367
Probable space group: P 31
;
_chemical_formula_sum "Si O2"
_cell_formula_units_Z 18
_cell_length_a 5.292237
_cell_length_b 5.292237
_cell_length_c 26.563317
_cell_angle_alpha 90.000000
_cell_angle_beta 90.000000
_cell_angle_gamma 120.000000
_cell_volume 644.305007
_symmetry_space_group_name_H-M "P 31"
_symmetry_group_IT_number 144
_symmetry_cell_setting 'hexagonal'
loop_
_space_group_symop_operation_xyz
x,y,z
-y,x-y,1/3+z
-x+y,-x,2/3+z
loop_
_atom_site_type_symbol
_atom_site_label
_atom_site_fract_x
_atom_site_fract_y
_atom_site_fract_z
Si Si1 0.870798 0.647896 0.529380
Si Si2 0.795861 0.110427 0.647092
Si Si3 0.582236 0.503919 0.628438
Si Si4 0.202838 0.868687 0.404773
Si Si5 0.084424 0.255012 0.548033
Si Si6 0.463822 0.999167 0.771699
O O1 0.074179 0.992116 0.514737
O O2 0.862618 0.625922 0.590172
O O3 0.035867 0.472830 0.511235
O O4 0.550568 0.515834 0.500327
O O5 0.592481 0.251269 0.661734
O O6 0.116092 0.298594 0.676145
O O7 0.804043 0.096634 0.586300
O O8 0.630790 0.770292 0.665237
O O9 0.333332 0.408378 0.588235
O O10 0.351731 0.216233 0.415461
O O11 0.411780 0.745122 0.421570
O O12 0.882890 0.685073 0.427677
#
# Coordination Sequence:
#
# PCOD8321367 Si02
#       6
#     3   3   3   3   3   3
#     4  10  23  39  61  97 127 170 227 276 343 410
#     4  10  23  39  61  97 127 170 227 276 343 410
#     4  10  21  38  66  92 127 167 217 288 346 393
#     4  12  28  47  73 102 142 192 235 286 345 418
#     4  10  21  38  66  92 127 167 217 288 346 393
#     4  12  28  47  73 102 142 192 235 286 345 418
#
# _framework density 27.937078
#
# number of rings (size 3 to 8) (size 9 to 14) (size 15 to 20)
#    0.000    1.333    0.000    4.000    9.333    0.000 
#    0.000    0.000    0.000    0.000    0.000    0.000 
#    0.000    0.000    0.000    0.000    0.000    0.000 
#
# Total GULP energy -223024.142728 kJ/mol
# GULP energy per Si atom -12390.230152 kJ/mol
# Density = 2.787349 g / cm^3
# Si number density = 27.937078 Si / 1000 Ang^3
#
#
#
# Elastic Constant Matrix: (Units=GPa)
#
#
# Indices 1 2 3 4 5 6 
#
# 1 155.6544 37.7881 -23.2129 -20.1961 0.0005 0.0000
# 2 37.7881 155.6544 -23.2129 20.1961 -0.0005 0.0000
# 3 -23.2129 -23.2129 65.9428 0.0000 0.0000 0.0000
# 4 -20.1961 20.1961 0.0000 23.0436 0.0000 -0.0005
# 5 0.0005 -0.0005 0.0000 0.0000 23.0436 -20.1961
# 6 0.0000 0.0000 0.0000 -0.0005 -20.1961 58.9331
#
#
#
# Elastic Compliance Matrix: (Units=1/GPa)
#
#
# Indices 1 2 3 4 5 6 
#
# 1 0.008886 -0.003240 0.001988 0.010628 0.000000 0.000000
# 2 -0.003240 0.008886 0.001988 -0.010628 0.000000 0.000000
# 3 0.001988 0.001988 0.016564 0.000000 0.000000 0.000000
# 4 0.010628 -0.010628 0.000000 0.062025 0.000000 0.000001
# 5 0.000000 0.000000 0.000000 0.000000 0.062025 0.021256
# 6 0.000000 0.000000 0.000000 0.000001 0.021256 0.024253
#
#
# Mechanical properties :
#
#
# Convention : Reuss Voigt Hill
#
# Bulk Modulus (GPa) = 27.92691 39.99738 33.96214
# Shear Modulus (GPa) = 25.89271 46.73002 36.31136
#
# Velocity S-wave (km/s) = 3.04768 4.09429 3.60912
# Velocity P-wave (km/s) = 4.73313 6.05797 5.43606
#
# Compressibility (1/GPa) = 0.03580775
#
# Stress axis : x y z
#
# Youngs Moduli (GPa) = 112.53139 112.53139 60.37175
#
# Poissons Ratio (x) = 0.36459 -0.12000
# Poissons Ratio (y) = 0.36459 -0.12000
# Poissons Ratio (z) = -0.22367 -0.22367
#
# Static dielectric constant tensor:
#      x y z
#    x 5.698080 0.000000 0.000000 
#    y 0.000000 5.698080 0.000000 
#    z 0.000000 0.000000 8.286380 
# 
# 
# High freq. dielectric constant tensor:
#      x y z
#    x 2.141050 0.000000 0.000000 
#    y 0.000000 2.141050 0.000000 
#    z 0.000000 0.000000 2.149250 
# 
# From -- ./inp_files/1030.got.cif
#   From: 2010.03.12/outbox.cif.g09.slc.cpg/sg144_cif.got.tgz:1030.got - 2010.04.03 13:34:42.
