data_PCOD8321493
_publ_section_title
;
Structure prediction by ZEFSAII (Michael W. Deem and Ramdas Pophale) SiO2 
 PCOD8321493
Probable space group: P 32
;
_chemical_formula_sum "Si O2"
_cell_formula_units_Z 12
_cell_length_a 7.232856
_cell_length_b 7.232856
_cell_length_c 8.341711
_cell_angle_alpha 90.000000
_cell_angle_beta 90.000000
_cell_angle_gamma 120.000000
_cell_volume 377.924815
_symmetry_space_group_name_H-M "P 32"
_symmetry_group_IT_number 145
_symmetry_cell_setting 'hexagonal'
loop_
_space_group_symop_operation_xyz
x,y,z
-y,x-y,2/3+z
-x+y,-x,1/3+z
loop_
_atom_site_type_symbol
_atom_site_label
_atom_site_fract_x
_atom_site_fract_y
_atom_site_fract_z
Si Si1 0.496177 0.793914 0.262260
Si Si2 0.791926 0.656484 0.403885
Si Si3 0.793909 0.496172 0.074588
Si Si4 0.656477 0.791922 0.932960
O O1 0.602415 0.714842 0.402819
O O2 0.278561 0.587857 0.196831
O O3 0.486555 1.000000 0.335092
O O4 0.659521 0.872015 0.113600
O O5 0.690701 0.412148 0.473347
O O6 0.000006 0.825961 0.501753
O O7 0.872005 0.659530 0.223238
O O8 0.714824 0.602402 0.934031
#
# Coordination Sequence:
#
# PCOD8321493 Si02
#       4
#     3   3   3   3
#     4  11  28  48  78 115 159 216 263 344 406 482
#     4  11  25  49  76 116 157 206 278 323 410 485
#     4  11  28  48  78 115 159 216 263 344 406 482
#     4  11  25  49  76 116 157 206 278 323 410 485
#
# _framework density 31.752345999999999
#
# number of rings (size 3 to 8) (size 9 to 14) (size 15 to 20)
#    0.000    1.000    5.000    0.000   14.000    0.000 
#    0.000    2.500    0.000    0.000    0.000    0.000 
#    0.000    0.000    0.000    0.000    0.000    0.000 
#
# Total GULP energy -148816.284738 kJ/mol
# GULP energy per Si atom -12401.357061 kJ/mol
# Density = 3.168008 g / cm^3
# Si number density = 31.752346 Si / 1000 Ang^3
#
#
#
# Elastic Constant Matrix: (Units=GPa)
#
#
# Indices 1 2 3 4 5 6 
#
# 1 140.9996 42.0684 13.6877 21.5870 -0.0007 0.0000
# 2 42.0684 140.9996 13.6877 -21.5870 0.0007 0.0000
# 3 13.6877 13.6877 57.2289 0.0000 0.0000 0.0000
# 4 21.5870 -21.5870 0.0000 59.3272 0.0000 0.0007
# 5 -0.0007 0.0007 0.0000 0.0000 59.3272 21.5870
# 6 0.0000 0.0000 0.0000 0.0007 21.5870 49.4656
#
#
#
# Elastic Compliance Matrix: (Units=1/GPa)
#
#
# Indices 1 2 3 4 5 6 
#
# 1 0.008841 -0.003176 -0.001355 -0.004372 0.000000 0.000000
# 2 -0.003176 0.008841 -0.001355 0.004372 0.000000 0.000000
# 3 -0.001355 -0.001355 0.018122 0.000000 0.000000 0.000000
# 4 -0.004372 0.004372 0.000000 0.020037 0.000000 0.000000
# 5 0.000000 0.000000 0.000000 0.000000 0.020037 -0.008744
# 6 0.000000 0.000000 0.000000 0.000000 -0.008744 0.024032
#
#
# Mechanical properties :
#
#
# Convention : Reuss Voigt Hill
#
# Bulk Modulus (GPa) = 41.61087 53.12398 47.36742
# Shear Modulus (GPa) = 41.77405 51.60961 46.69183
#
# Velocity S-wave (km/s) = 3.63108 4.03597 3.83887
# Velocity P-wave (km/s) = 5.54193 6.20369 5.88212
#
# Compressibility (1/GPa) = 0.02403218
#
# Stress axis : x y z
#
# Youngs Moduli (GPa) = 113.11483 113.11484 55.18213
#
# Poissons Ratio (x) = 0.35920 0.07477
# Poissons Ratio (y) = 0.35920 0.07477
# Poissons Ratio (z) = 0.15326 0.15326
#
# Static dielectric constant tensor:
#      x y z
#    x 5.798190 0.000000 0.000000 
#    y 0.000000 5.798190 0.000000 
#    z 0.000000 0.000000 6.840630 
# 
# 
# High freq. dielectric constant tensor:
#      x y z
#    x 2.306130 0.000000 0.000000 
#    y 0.000000 2.306130 0.000000 
#    z 0.000000 0.000000 2.371480 
# 
# From -- ./inp_files/254.got.cif
#   From: 2010.03.12/outbox.cif.g09.slc.cpg/sg145_cif.got.tgz:254.got - 2010.04.03 13:35:35.
