data_PCOD8321765
_publ_section_title
;
Structure prediction by ZEFSAII (Michael W. Deem and Ramdas Pophale) SiO2 
 PCOD8321765
Probable space group: R -3
;
_chemical_formula_sum "Si O2"
_cell_formula_units_Z 72
_cell_length_a 13.248795
_cell_length_b 13.248795
_cell_length_c 19.479464
_cell_angle_alpha 90.000000
_cell_angle_beta 90.000000
_cell_angle_gamma 120.000000
_cell_volume 2961.149913
_symmetry_space_group_name_H-M "R -3"
_symmetry_group_IT_number 148
_symmetry_cell_setting 'hexagonal'
loop_
_space_group_symop_operation_xyz
x,y,z
-y,x-y,z
-x+y,-x,z
-x,-y,-z
y,-x+y,-z
x-y,x,-z
2/3+x,1/3+y,1/3+z
2/3-y,1/3+x-y,1/3+z
2/3-x+y,1/3-x,1/3+z
2/3-x,1/3-y,1/3-z
2/3+y,1/3-x+y,1/3-z
2/3+x-y,1/3+x,1/3-z
1/3+x,2/3+y,2/3+z
1/3-y,2/3+x-y,2/3+z
1/3-x+y,2/3-x,2/3+z
1/3-x,2/3-y,2/3-z
1/3+y,2/3-x+y,2/3-z
1/3+x-y,2/3+x,2/3-z
loop_
_atom_site_type_symbol
_atom_site_label
_atom_site_fract_x
_atom_site_fract_y
_atom_site_fract_z
Si Si1 0.560423 0.552169 0.106074
Si Si2 0.851962 0.914610 0.334401
Si Si3 0.809231 0.741739 0.067656
Si Si4 0.267187 0.844641 0.583836
O O1 0.470714 0.584332 0.071165
O O2 0.694262 0.654024 0.108372
O O3 0.531334 0.528040 0.186927
O O4 0.540608 0.435588 0.066802
O O5 0.943682 0.867424 0.332898
O O6 0.927253 0.752648 0.097975
O O7 0.835855 0.874983 0.071307
O O8 0.776697 0.689702 0.989720
#
# Coordination Sequence:
#
# PCOD8321765 Si02
#       4
#    18  18  18  18
#     4  11  23  42  73  99 133 195 226 276 354 410
#     4   9  24  43  67 100 142 174 232 290 330 410
#     4  10  23  42  66 100 144 167 232 291 331 422
#     4  10  23  39  66 101 134 176 224 281 354 397
#
# _framework density 24.314879999999999
#
# number of rings (size 3 to 8) (size 9 to 14) (size 15 to 20)
#    0.500    1.500    0.000    1.250   10.500    6.000 
#    0.000    0.000    0.000    6.000    0.000    0.000 
#    0.000    0.000    0.000    0.000    0.000    0.000 
#
# Total GULP energy -297318.867674 kJ/mol
# GULP energy per Si atom -12388.286153 kJ/mol
# Density = 2.425954 g / cm^3
# Si number density = 24.314880 Si / 1000 Ang^3
#
#
#
# Elastic Constant Matrix: (Units=GPa)
#
#
# Indices 1 2 3 4 5 6 
#
# 1 70.8121 13.4950 23.3125 -4.8143 4.3272 0.0000
# 2 13.4950 70.8121 23.3125 4.8143 -4.3272 0.0000
# 3 23.3125 23.3125 150.9065 0.0000 0.0000 0.0000
# 4 -4.8143 4.8143 0.0000 28.7601 0.0000 -4.3272
# 5 4.3272 -4.3272 0.0000 0.0000 28.7601 -4.8143
# 6 0.0000 0.0000 0.0000 -4.3272 -4.8143 28.6586
#
#
#
# Elastic Compliance Matrix: (Units=1/GPa)
#
#
# Indices 1 2 3 4 5 6 
#
# 1 0.015675 -0.002706 -0.002004 0.003077 -0.002766 0.000000
# 2 -0.002706 0.015675 -0.002004 -0.003077 0.002766 0.000000
# 3 -0.002004 -0.002004 0.007246 0.000000 0.000000 0.000000
# 4 0.003077 -0.003077 0.000000 0.036633 0.000000 0.005531
# 5 -0.002766 0.002766 0.000000 0.000000 0.036633 0.006154
# 6 0.000000 0.000000 0.000000 0.005531 0.006154 0.036762
#
#
# Mechanical properties :
#
#
# Convention : Reuss Voigt Hill
#
# Bulk Modulus (GPa) = 39.72940 45.86344 42.79642
# Shear Modulus (GPa) = 29.33579 32.72981 31.03280
#
# Velocity S-wave (km/s) = 3.47723 3.67288 3.57639
# Velocity P-wave (km/s) = 5.70057 6.07371 5.89010
#
# Compressibility (1/GPa) = 0.02517028
#
# Stress axis : x y z
#
# Youngs Moduli (GPa) = 63.79447 63.79447 138.01377
#
# Poissons Ratio (x) = 0.17262 0.27652
# Poissons Ratio (y) = 0.17262 0.27652
# Poissons Ratio (z) = 0.12782 0.12782
#
# Static dielectric constant tensor:
#      x y z
#    x 4.182760 0.000000 0.000000 
#    y 0.000000 4.182760 0.000000 
#    z 0.000000 0.000000 4.230100 
# 
# 
# High freq. dielectric constant tensor:
#      x y z
#    x 1.959090 0.000000 0.000000 
#    y 0.000000 1.959090 0.000000 
#    z 0.000000 0.000000 1.963580 
# 
# From -- ./inp_files/2558.got.cif
#   From: 2010.03.12/outbox.cif.g09.slc.cpg/sg148_2_cif.got.tgz:2558.got - 2010.04.03 13:38:46.
