data_PCOD8321608
_publ_section_title
;
Structure prediction by ZEFSAII (Michael W. Deem and Ramdas Pophale) SiO2 
 PCOD8321608
Probable space group: P -3
;
_chemical_formula_sum "Si O2"
_cell_formula_units_Z 48
_cell_length_a 12.778547
_cell_length_b 12.778547
_cell_length_c 20.191606
_cell_angle_alpha 90.000000
_cell_angle_beta 90.000000
_cell_angle_gamma 120.000000
_cell_volume 2855.383491
_symmetry_space_group_name_H-M "P -3"
_symmetry_group_IT_number 147
_symmetry_cell_setting 'hexagonal'
loop_
_space_group_symop_operation_xyz
x,y,z
-y,x-y,z
-x+y,-x,z
-x,-y,-z
y,-x+y,-z
x-y,x,-z
loop_
_atom_site_type_symbol
_atom_site_label
_atom_site_fract_x
_atom_site_fract_y
_atom_site_fract_z
Si Si1 0.665999 0.574322 0.703460
Si Si2 0.756624 0.000438 0.181431
Si Si3 0.756624 0.756186 0.181431
Si Si4 0.422528 0.333327 0.060672
Si Si5 0.425678 0.334001 0.703460
Si Si6 0.333826 0.425648 0.445483
Si Si7 0.333327 0.422528 0.939328
Si Si8 0.333826 0.908178 0.445483
O O1 0.698395 0.687157 0.750423
O O2 0.540214 0.459785 0.726228
O O3 0.767471 0.534943 0.707108
O O4 0.656706 0.615373 0.629007
O O5 0.756326 0.878163 0.163161
O O6 0.893778 0.106222 0.189865
O O7 0.688247 0.028731 0.124362
O O8 0.687157 0.698395 0.249577
O O9 0.688247 0.659515 0.124363
O O10 0.554618 0.445382 0.075031
O O11 0.434891 0.217445 0.043561
O O12 0.358710 0.358710 1.000000
O O13 0.384627 0.343294 0.629007
O O14 0.210779 0.421559 0.457561
O O15 0.438874 0.561126 0.458627
O O16 0.336266 0.336266 0.500000
#
# Coordination Sequence:
#
# PCOD8321608 Si02
#       8
#     6   6   6   6   6   6   6   6
#     4   9  17  30  48  69  91 117 151 191 233 273
#     4  10  20  33  49  69  94 124 156 189 226 270
#     4  10  20  33  49  69  94 124 156 189 226 270
#     4  10  20  34  52  73  97 124 154 189 228 270
#     4   9  17  30  48  69  91 117 151 191 233 273
#     4   9  17  29  46  67  91 119 151 188 229 273
#     4  10  20  34  52  73  97 124 154 189 228 270
#     4   9  17  29  46  67  91 119 151 188 229 273
#
# _framework density 16.810351000000001
#
# number of rings (size 3 to 8) (size 9 to 14) (size 15 to 20)
#    0.000    2.500    0.000    2.500    0.000    3.000 
#    0.000    0.000    0.000   12.750    0.000    0.000 
#    0.000    0.000    0.000    0.000    0.000    0.000 
#
# Total GULP energy -595223.869488 kJ/mol
# GULP energy per Si atom -12400.497281 kJ/mol
# Density = 1.677209 g / cm^3
# Si number density = 16.810351 Si / 1000 Ang^3
#
#
#
# Elastic Constant Matrix: (Units=GPa)
#
#
# Indices 1 2 3 4 5 6 
#
# 1 117.9709 46.7058 63.2584 -7.2663 0.0000 0.0000
# 2 46.7058 117.9709 63.2584 7.2663 0.0000 0.0000
# 3 63.2584 63.2584 105.3635 0.0000 0.0000 0.0000
# 4 -7.2663 7.2663 0.0000 33.4433 0.0000 0.0000
# 5 0.0000 0.0000 0.0000 0.0000 33.4433 -7.2663
# 6 0.0000 0.0000 0.0000 0.0000 -7.2663 35.6326
#
#
#
# Elastic Compliance Matrix: (Units=1/GPa)
#
#
# Indices 1 2 3 4 5 6 
#
# 1 0.012977 -0.001706 -0.006767 0.003190 0.000000 0.000000
# 2 -0.001706 0.012977 -0.006767 -0.003190 0.000000 0.000000
# 3 -0.006767 -0.006767 0.017617 0.000000 0.000000 0.000000
# 4 0.003190 -0.003190 0.000000 0.031288 0.000000 0.000000
# 5 0.000000 0.000000 0.000000 0.000000 0.031288 0.006380
# 6 0.000000 0.000000 0.000000 0.000000 0.006380 0.029365
#
#
# Mechanical properties :
#
#
# Convention : Reuss Voigt Hill
#
# Bulk Modulus (GPa) = 76.38844 76.41671 76.40258
# Shear Modulus (GPa) = 29.35039 31.70937 30.52988
#
# Velocity S-wave (km/s) = 4.18302 4.34787 4.26624
# Velocity P-wave (km/s) = 8.29880 8.41202 8.35560
#
# Compressibility (1/GPa) = 0.01309099
#
# Stress axis : x y z
#
# Youngs Moduli (GPa) = 77.05855 77.05855 56.76379
#
# Poissons Ratio (x) = 0.13142 0.38414
# Poissons Ratio (y) = 0.13142 0.38414
# Poissons Ratio (z) = 0.52148 0.52148
#
# Static dielectric constant tensor:
#      x y z
#    x 3.125800 0.000000 0.000000 
#    y 0.000000 3.125800 0.000000 
#    z 0.000000 0.000000 3.323120 
# 
# 
# High freq. dielectric constant tensor:
#      x y z
#    x 1.648150 0.000000 0.000000 
#    y 0.000000 1.648150 0.000000 
#    z 0.000000 0.000000 1.657920 
# 
# From -- ./inp_files/1087.got.cif
#   From: 2010.03.12/outbox.cif.g09.slc.cpg/sg147_cif.got.tgz:1087.got - 2010.04.03 13:37:56.
