data_PCOD8321621
_publ_section_title
;
Structure prediction by ZEFSAII (Michael W. Deem and Ramdas Pophale) SiO2 
 PCOD8321621
Probable space group: P -3
;
_chemical_formula_sum "Si O2"
_cell_formula_units_Z 34
_cell_length_a 15.651166
_cell_length_b 15.651166
_cell_length_c 9.001940
_cell_angle_alpha 90.000000
_cell_angle_beta 90.000000
_cell_angle_gamma 120.000000
_cell_volume 1909.677983
_symmetry_space_group_name_H-M "P -3"
_symmetry_group_IT_number 147
_symmetry_cell_setting 'hexagonal'
loop_
_space_group_symop_operation_xyz
x,y,z
-y,x-y,z
-x+y,-x,z
-x,-y,-z
y,-x+y,-z
x-y,x,-z
loop_
_atom_site_type_symbol
_atom_site_label
_atom_site_fract_x
_atom_site_fract_y
_atom_site_fract_z
Si Si1 0.376431 0.091889 0.631243
Si Si2 0.636008 0.510485 0.913768
Si Si3 0.439286 0.863921 0.554536
Si Si4 0.333334 0.666668 0.055906
Si Si5 0.007793 0.575212 0.802596
Si Si6 0.333334 0.666668 0.708503
Si Si7 0.909602 0.626798 0.567023
O O1 0.392837 0.088182 0.808628
O O2 0.484639 0.126629 0.569811
O O3 0.339813 0.168709 0.589262
O O4 0.294680 0.986762 0.562877
O O5 0.681238 0.438389 0.890962
O O6 0.519232 0.442150 0.885701
O O7 0.645770 0.551536 0.082355
O O8 0.418017 0.770445 0.650843
O O9 0.342869 0.854649 0.478348
O O10 0.487956 0.956082 0.667618
O O11 0.333334 0.666667 0.881717
O O12 0.965869 0.640181 0.724399
#
# Coordination Sequence:
#
# PCOD8321621 Si02
#       7
#     6   6   6   2   6   2   6
#     4  11  22  36  58  81 109 143 189 231 280 330
#     4  11  21  33  51  75 110 152 184 232 263 321
#     4  11  19  35  53  76 108 149 183 227 268 324
#     4  12  24  31  47  79 114 148 203 220 276 325
#     4  10  20  35  49  70 112 147 185 225 271 313
#     4  12  21  31  50  82 108 154 191 220 267 322
#     4  11  21  38  55  82 108 145 189 231 281 329
#
# _framework density 17.80405
#
# number of rings (size 3 to 8) (size 9 to 14) (size 15 to 20)
#    0.000    1.059    7.059    2.118    0.000    0.000 
#    0.000    1.765    0.000    0.353    0.000    0.000 
#    0.000    1.412    0.000    0.000    0.000    0.000 
#
# Total GULP energy -421549.576316 kJ/mol
# GULP energy per Si atom -12398.516950 kJ/mol
# Density = 1.776353 g / cm^3
# Si number density = 17.804050 Si / 1000 Ang^3
#
#
#
# Elastic Constant Matrix: (Units=GPa)
#
#
# Indices 1 2 3 4 5 6 
#
# 1 68.1675 18.7845 19.4920 -3.1847 -0.6986 0.0003
# 2 18.7845 68.1671 19.4926 3.1841 0.6984 0.0001
# 3 19.4920 19.4926 90.3784 0.0001 0.0001 0.0001
# 4 -3.1847 3.1841 0.0001 21.5876 0.0000 0.6988
# 5 -0.6986 0.6984 0.0001 0.0000 21.5879 -3.1849
# 6 0.0003 0.0001 0.0001 0.6988 -3.1849 24.6918
#
#
#
# Elastic Compliance Matrix: (Units=1/GPa)
#
#
# Indices 1 2 3 4 5 6 
#
# 1 0.016697 -0.003965 -0.002746 0.003048 0.000669 0.000000
# 2 -0.003965 0.016697 -0.002746 -0.003048 -0.000668 0.000000
# 3 -0.002746 -0.002746 0.012249 0.000000 0.000000 0.000000
# 4 0.003048 -0.003048 0.000000 0.047265 0.000000 -0.001338
# 5 0.000669 -0.000668 0.000000 0.000000 0.047265 0.006096
# 6 0.000000 0.000000 0.000000 -0.001338 0.006096 0.041323
#
#
# Mechanical properties :
#
#
# Convention : Reuss Voigt Hill
#
# Bulk Modulus (GPa) = 37.41270 38.02790 37.72030
# Shear Modulus (GPa) = 23.88690 24.83641 24.36165
#
# Velocity S-wave (km/s) = 3.66684 3.73900 3.70310
# Velocity P-wave (km/s) = 6.24394 6.32817 6.28619
#
# Compressibility (1/GPa) = 0.02672889
#
# Stress axis : x y z
#
# Youngs Moduli (GPa) = 59.89171 59.89138 81.63916
#
# Poissons Ratio (x) = 0.23748 0.22417
# Poissons Ratio (y) = 0.23748 0.22418
# Poissons Ratio (z) = 0.16445 0.16446
#
# Static dielectric constant tensor:
#      x y z
#    x 2.998060 -0.000010 -0.000010 
#    y -0.000010 2.998180 0.000020 
#    z -0.000010 0.000020 3.528080 
# 
# 
# High freq. dielectric constant tensor:
#      x y z
#    x 1.658550 0.000000 0.000000 
#    y 0.000000 1.658550 0.000000 
#    z 0.000000 0.000000 1.706060 
# 
# From -- ./inp_files/567.got.cif
#   From: 2010.03.12/outbox.cif.g09.slc.cpg/sg147_cif.got.tgz:567.got - 2010.04.03 13:37:56.
