data_PCOD8321908
_publ_section_title
;
Structure prediction by ZEFSAII (Michael W. Deem and Ramdas Pophale) SiO2 
 PCOD8321908
Probable space group: P 3 2 1
;
_chemical_formula_sum "Si O2"
_cell_formula_units_Z 32
_cell_length_a 14.480011
_cell_length_b 14.480011
_cell_length_c 8.587339
_cell_angle_alpha 90.000000
_cell_angle_beta 90.000000
_cell_angle_gamma 120.000000
_cell_volume 1559.290464
_symmetry_space_group_name_H-M "P 3 2 1"
_symmetry_group_IT_number 150
_symmetry_cell_setting 'hexagonal'
loop_
_space_group_symop_operation_xyz
x,y,z
-y,x-y,z
-x+y,-x,z
x-y,-y,-z
-x,-x+y,-z
y,x,-z
loop_
_atom_site_type_symbol
_atom_site_label
_atom_site_fract_x
_atom_site_fract_y
_atom_site_fract_z
Si Si1 0.731927 0.560491 0.681065
Si Si2 0.000000 0.000000 0.313174
Si Si3 0.439509 0.171436 0.318935
Si Si4 0.607277 0.121324 0.823556
Si Si5 0.000000 0.208041 0.683606
Si Si6 0.607277 0.121324 0.176444
O O1 0.701765 0.551211 0.500000
O O2 0.809495 0.513395 0.708243
O O3 0.624932 0.494626 0.778097
O O4 0.788829 0.683403 0.737637
O O5 0.895288 0.895288 0.245474
O O6 0.000000 0.000000 0.500000
O O7 0.505374 0.130306 0.221903
O O8 0.486605 0.296100 0.291757
O O9 0.316597 0.105426 0.262363
O O10 0.579173 1.000000 0.807893
O O11 0.640526 0.162493 1.000000
O O12 0.000000 0.197874 0.500000
#
# Coordination Sequence:
#
# PCOD8321908 Si02
#       6
#     6   2   6   6   6   6
#     4  11  22  39  63  93 124 157 202 257 307 365
#     4   9  18  36  57  87 124 158 193 243 304 365
#     4  11  22  39  63  93 124 157 202 257 307 365
#     4  11  24  41  61  88 123 165 204 246 306 374
#     4   9  20  36  60  91 124 156 195 247 308 359
#     4  11  24  41  61  88 123 165 204 246 306 374
#
# _framework density 20.522155999999999
#
# number of rings (size 3 to 8) (size 9 to 14) (size 15 to 20)
#    0.000    1.500    1.875    3.000    2.625    2.250 
#    0.000    0.000    0.000    0.000    0.000    0.000 
#    0.000    0.000    0.000    0.000    0.000    0.000 
#
# Total GULP energy -396912.898788 kJ/mol
# GULP energy per Si atom -12403.528087 kJ/mol
# Density = 2.047545 g / cm^3
# Si number density = 20.522156 Si / 1000 Ang^3
#
#
#
# Elastic Constant Matrix: (Units=GPa)
#
#
# Indices 1 2 3 4 5 6 
#
# 1 123.4910 44.7756 12.8679 0.0000 0.0000 0.0000
# 2 44.7756 123.4910 12.8679 0.0000 0.0000 0.0000
# 3 12.8679 12.8679 44.9984 0.0000 0.0000 0.0000
# 4 0.0000 0.0000 0.0000 13.3450 0.0000 0.0000
# 5 0.0000 0.0000 0.0000 0.0000 13.3450 0.0000
# 6 0.0000 0.0000 0.0000 0.0000 0.0000 39.3577
#
#
#
# Elastic Compliance Matrix: (Units=1/GPa)
#
#
# Indices 1 2 3 4 5 6 
#
# 1 0.009459 -0.003245 -0.001777 0.000000 0.000000 0.000000
# 2 -0.003245 0.009459 -0.001777 0.000000 0.000000 0.000000
# 3 -0.001777 -0.001777 0.023239 0.000000 0.000000 0.000000
# 4 0.000000 0.000000 0.000000 0.074934 0.000000 0.000000
# 5 0.000000 0.000000 0.000000 0.000000 0.074934 0.000000
# 6 0.000000 0.000000 0.000000 0.000000 0.000000 0.025408
#
#
# Mechanical properties :
#
#
# Convention : Reuss Voigt Hill
#
# Bulk Modulus (GPa) = 35.01379 48.11146 41.56263
# Shear Modulus (GPa) = 20.78544 27.97415 24.37980
#
# Velocity S-wave (km/s) = 3.18595 3.69605 3.45044
# Velocity P-wave (km/s) = 5.53464 6.45825 6.01420
#
# Compressibility (1/GPa) = 0.02856017
#
# Stress axis : x y z
#
# Youngs Moduli (GPa) = 105.71520 105.71520 43.03035
#
# Poissons Ratio (x) = 0.34300 0.07647
# Poissons Ratio (y) = 0.34300 0.07647
# Poissons Ratio (z) = 0.18788 0.18788
#
# Static dielectric constant tensor:
#      x y z
#    x 3.842470 0.000000 0.000000 
#    y 0.000000 3.842470 0.000000 
#    z 0.000000 0.000000 3.499630 
# 
# 
# High freq. dielectric constant tensor:
#      x y z
#    x 1.811900 0.000000 0.000000 
#    y 0.000000 1.811900 0.000000 
#    z 0.000000 0.000000 1.782950 
# 
# From -- ./inp_files/642.got.cif
#   From: 2010.03.12/outbox.cif.g09.slc.cpg/sg150_cif.got.tgz:642.got - 2010.04.03 13:41:37.
