data_PCOD8321933
_publ_section_title
;
Structure prediction by ZEFSAII (Michael W. Deem and Ramdas Pophale) SiO2 
 PCOD8321933
Probable space group: P 31 1 2
;
_chemical_formula_sum "Si O2"
_cell_formula_units_Z 24
_cell_length_a 16.699789
_cell_length_b 16.699789
_cell_length_c 5.181091
_cell_angle_alpha 90.000000
_cell_angle_beta 90.000000
_cell_angle_gamma 120.000000
_cell_volume 1251.335656
_symmetry_space_group_name_H-M "P 31 1 2"
_symmetry_group_IT_number 151
_symmetry_cell_setting 'hexagonal'
loop_
_space_group_symop_operation_xyz
x,y,z
-y,x-y,1/3+z
-x+y,-x,2/3+z
-y,-x,2/3-z
-x+y,y,1/3-z
x,x-y,-z
loop_
_atom_site_type_symbol
_atom_site_label
_atom_site_fract_x
_atom_site_fract_y
_atom_site_fract_z
Si Si1 0.996179 0.173583 0.699277
Si Si2 0.347290 0.085321 0.057631
Si Si3 0.007959 0.343784 0.887868
Si Si4 0.488799 0.692984 0.258411
O O1 0.964418 0.199356 0.429261
O O2 0.070121 0.140241 0.666667
O O3 0.039756 0.266165 0.876844
O O4 0.906091 0.093910 0.833334
O O5 0.376742 0.042487 0.824754
O O6 0.388294 0.194147 0.000000
O O7 0.388424 0.065547 0.320358
O O8 0.096341 0.444750 0.865525
O O9 0.388589 0.611412 0.333334
O O10 0.528229 0.764115 0.500000
O O11 0.480492 0.740246 0.000000
#
# Coordination Sequence:
#
# PCOD8321933 Si02
#       4
#     6   6   6   6
#     4  10  21  33  47  73 108 143 191 224 268 310
#     4  10  18  36  52  74 106 142 183 225 264 311
#     4  10  21  35  56  75 102 143 187 227 279 340
#     4  12  25  42  61  83 109 144 192 253 314 364
#
# _framework density 19.179504999999999
#
# number of rings (size 3 to 8) (size 9 to 14) (size 15 to 20)
#    1.500    0.000    2.500    4.500    3.500    1.000 
#    0.000    0.000    0.000    0.000    0.000    0.000 
#    0.000    0.000    0.000   22.500    0.000    0.250 
#
# Total GULP energy -297342.614563 kJ/mol
# GULP energy per Si atom -12389.275607 kJ/mol
# Density = 1.913585 g / cm^3
# Si number density = 19.179505 Si / 1000 Ang^3
#
#
#
# Elastic Constant Matrix: (Units=GPa)
#
#
# Indices 1 2 3 4 5 6 
#
# 1 46.3512 11.1219 28.1784 0.0002 -1.3573 0.0000
# 2 11.1219 46.3512 28.1784 -0.0002 1.3573 0.0000
# 3 28.1784 28.1784 157.7570 0.0000 0.0000 0.0000
# 4 0.0002 -0.0002 0.0000 20.8674 0.0000 1.3573
# 5 -1.3573 1.3573 0.0000 0.0000 20.8674 0.0002
# 6 0.0000 0.0000 0.0000 1.3573 0.0002 17.6147
#
#
#
# Elastic Compliance Matrix: (Units=1/GPa)
#
#
# Indices 1 2 3 4 5 6 
#
# 1 0.024811 -0.003717 -0.003768 0.000000 0.001856 0.000000
# 2 -0.003717 0.024811 -0.003768 0.000000 -0.001856 0.000000
# 3 -0.003768 -0.003768 0.007685 0.000000 0.000000 0.000000
# 4 0.000000 0.000000 0.000000 0.048163 0.000000 -0.003711
# 5 0.001856 -0.001856 0.000000 0.000000 0.048163 0.000000
# 6 0.000000 0.000000 0.000000 -0.003711 0.000000 0.057057
#
#
# Mechanical properties :
#
#
# Convention : Reuss Voigt Hill
#
# Bulk Modulus (GPa) = 28.73412 42.82408 35.77910
# Shear Modulus (GPa) = 20.42511 24.06859 22.24685
#
# Velocity S-wave (km/s) = 3.26689 3.54632 3.40947
# Velocity P-wave (km/s) = 5.40780 6.25660 5.84762
#
# Compressibility (1/GPa) = 0.03480183
#
# Stress axis : x y z
#
# Youngs Moduli (GPa) = 40.30426 40.30426 130.12589
#
# Poissons Ratio (x) = 0.14982 0.49029
# Poissons Ratio (y) = 0.14982 0.49029
# Poissons Ratio (z) = 0.15186 0.15186
#
# Static dielectric constant tensor:
#      x y z
#    x 3.172210 0.000000 0.000000 
#    y 0.000000 3.172210 0.000000 
#    z 0.000000 0.000000 3.654130 
# 
# 
# High freq. dielectric constant tensor:
#      x y z
#    x 1.711790 0.000000 0.000000 
#    y 0.000000 1.711790 0.000000 
#    z 0.000000 0.000000 1.763490 
# 
# From -- ./inp_files/345.got.cif
#   From: 2010.03.12/outbox.cif.g09.slc.cpg/sg151_1_cif.got.tgz:345.got - 2010.04.03 13:42:29.
