data_PCOD8321995
_publ_section_title
;
Structure prediction by ZEFSAII (Michael W. Deem and Ramdas Pophale) SiO2 
 PCOD8321995
Probable space group: P 31 1 2
;
_chemical_formula_sum "Si O2"
_cell_formula_units_Z 12
_cell_length_a 7.949648
_cell_length_b 7.949648
_cell_length_c 7.942927
_cell_angle_alpha 90.000000
_cell_angle_beta 90.000000
_cell_angle_gamma 120.000000
_cell_volume 434.717377
_symmetry_space_group_name_H-M "P 31 1 2"
_symmetry_group_IT_number 151
_symmetry_cell_setting 'hexagonal'
loop_
_space_group_symop_operation_xyz
x,y,z
-y,x-y,1/3+z
-x+y,-x,2/3+z
-y,-x,2/3-z
-x+y,y,1/3-z
x,x-y,-z
loop_
_atom_site_type_symbol
_atom_site_label
_atom_site_fract_x
_atom_site_fract_y
_atom_site_fract_z
Si Si1 0.895916 0.281961 0.577214
Si Si2 0.104084 0.718039 0.077214
O O1 0.789238 0.394619 0.500000
O O2 0.055729 0.308684 0.437696
O O3 1.000000 0.383153 0.750000
O O4 0.747045 0.055729 0.604362
O O5 0.210761 0.605381 0.000000
#
# Coordination Sequence:
#
# PCOD8321995 Si02
#       2
#     6   6
#     4  10  24  46  78 111 149 193 245 302 368 436
#     4  10  24  46  78 111 149 193 245 302 368 436
#
# _framework density 27.604142
#
# number of rings (size 3 to 8) (size 9 to 14) (size 15 to 20)
#    0.000    2.000    0.000    0.000   14.000    0.000 
#    0.000   35.000    0.000    0.000    0.000    0.000 
#    0.000    0.000    0.000    0.000    0.000    0.000 
#
# Total GULP energy -148807.853997 kJ/mol
# GULP energy per Si atom -12400.654500 kJ/mol
# Density = 2.754131 g / cm^3
# Si number density = 27.604142 Si / 1000 Ang^3
#
#
#
# Elastic Constant Matrix: (Units=GPa)
#
#
# Indices 1 2 3 4 5 6 
#
# 1 120.6115 52.6964 39.0300 0.0000 0.0000 0.0000
# 2 52.6964 120.6115 39.0300 0.0000 0.0000 0.0000
# 3 39.0300 39.0300 90.3079 0.0000 0.0000 0.0000
# 4 0.0000 0.0000 0.0000 54.4710 0.0000 0.0000
# 5 0.0000 0.0000 0.0000 0.0000 54.4710 0.0000
# 6 0.0000 0.0000 0.0000 0.0000 0.0000 33.9576
#
#
#
# Elastic Compliance Matrix: (Units=1/GPa)
#
#
# Indices 1 2 3 4 5 6 
#
# 1 0.010945 -0.003780 -0.003097 0.000000 0.000000 0.000000
# 2 -0.003780 0.010945 -0.003097 0.000000 0.000000 0.000000
# 3 -0.003097 -0.003097 0.013750 0.000000 0.000000 0.000000
# 4 0.000000 0.000000 0.000000 0.018358 0.000000 0.000000
# 5 0.000000 0.000000 0.000000 0.000000 0.018358 0.000000
# 6 0.000000 0.000000 0.000000 0.000000 0.000000 0.029448
#
#
# Mechanical properties :
#
#
# Convention : Reuss Voigt Hill
#
# Bulk Modulus (GPa) = 63.72170 65.89373 64.80771
# Shear Modulus (GPa) = 39.37603 41.96491 40.67047
#
# Velocity S-wave (km/s) = 3.78094 3.90325 3.84258
# Velocity P-wave (km/s) = 6.49576 6.65106 6.57387
#
# Compressibility (1/GPa) = 0.01569324
#
# Stress axis : x y z
#
# Youngs Moduli (GPa) = 91.36992 91.36992 72.72831
#
# Poissons Ratio (x) = 0.34535 0.22521
# Poissons Ratio (y) = 0.34535 0.22521
# Poissons Ratio (z) = 0.28293 0.28293
#
# Static dielectric constant tensor:
#      x y z
#    x 4.959270 0.000000 0.000000 
#    y 0.000000 4.959270 0.000000 
#    z 0.000000 0.000000 5.270800 
# 
# 
# High freq. dielectric constant tensor:
#      x y z
#    x 2.104080 0.000000 0.000000 
#    y 0.000000 2.104080 0.000000 
#    z 0.000000 0.000000 2.137440 
# 
# From -- ./inp_files/916.got.cif
#   From: 2010.03.12/outbox.cif.g09.slc.cpg/sg151_1_cif.got.tgz:916.got - 2010.04.03 13:42:29.
