data_PCOD8321157
_publ_section_title
;
Structure prediction by ZEFSAII (Michael W. Deem and Ramdas Pophale) SiO2 
 PCOD8321157
Probable space group: I 41/A C D
;
_chemical_formula_sum "Si O2"
_cell_formula_units_Z 136
_cell_length_a 20.903004
_cell_length_b 20.903004
_cell_length_c 14.405028
_cell_angle_alpha 90.000000
_cell_angle_beta 90.000000
_cell_angle_gamma 90.000000
_cell_volume 6294.069210
_symmetry_space_group_name_H-M "I 41/A C D"
_symmetry_group_IT_number 142
_space_group.IT_coordinate_system_code '2'
_symmetry_cell_setting 'tetragonal'
loop_
_space_group_symop_operation_xyz
x,y,z
1/4-y,3/4+x,1/4+z
-x,1/2-y,z
1/4+y,1/4-x,3/4+z
x,-y,1/2-z
1/2-x,y,-z
3/4+y,1/4+x,1/4-z
1/4-y,1/4-x,1/4-z
-x,-y,-z
3/4+y,1/4-x,3/4-z
x,1/2+y,-z
3/4-y,3/4+x,1/4-z
-x,y,1/2+z
1/2+x,-y,z
1/4-y,3/4-x,3/4+z
3/4+y,3/4+x,3/4+z
1/2+x,1/2+y,1/2+z
3/4-y,1/4+x,3/4+z
1/2-x,-y,1/2+z
3/4+y,3/4-x,1/4+z
1/2+x,1/2-y,-z
-x,1/2+y,1/2-z
1/4+y,3/4+x,3/4-z
3/4-y,3/4-x,3/4-z
1/2-x,1/2-y,1/2-z
1/4+y,3/4-x,1/4-z
1/2+x,y,1/2-z
1/4-y,1/4+x,3/4-z
1/2-x,1/2+y,z
x,1/2-y,1/2+z
3/4-y,1/4-x,1/4+z
1/4+y,1/4+x,1/4+z
loop_
_atom_site_type_symbol
_atom_site_label
_atom_site_fract_x
_atom_site_fract_y
_atom_site_fract_z
Si Si1 0.408226 0.451573 0.508621
Si Si2 0.676773 0.934552 0.521582
Si Si3 0.500000 0.750000 0.875000
Si Si4 0.388553 0.661180 0.863205
Si Si5 0.013271 0.010729 0.358400
O O1 0.342351 0.491464 0.500828
O O2 0.400217 0.377497 0.539308
O O3 0.446774 0.491719 0.586782
O O4 0.441643 0.456754 0.406749
O O5 0.750000 0.929393 0.500000
O O6 0.663002 0.913002 0.625000
O O7 0.640616 0.881295 0.461938
O O8 0.451549 0.699653 0.824526
O O9 0.332104 0.710864 0.878170
O O10 0.003481 0.000000 0.250000
#
# Coordination Sequence:
#
# PCOD8321157 Si02
#       5
#    32  32   8  32  32
#     4  10  22  41  64  97 133 172 230 275 341 410
#     4  11  23  41  68 102 136 175 227 287 352 416
#     4  12  24  44  66  92 136 180 238 280 344 402
#     4  11  23  42  67  96 135 181 225 289 337 414
#     4  10  23  41  67  95 132 182 222 279 345 406
#
# _framework density 21.607641999999998
#
# number of rings (size 3 to 8) (size 9 to 14) (size 15 to 20)
#    0.000    1.412    4.706    0.000    3.294    1.882 
#    0.000    0.588    5.176    0.000    0.000    0.000 
#    0.000    0.000    0.000    0.000    0.000    0.000 
#
# Total GULP energy -842456.690744 kJ/mol
# GULP energy per Si atom -12389.068982 kJ/mol
# Density = 2.155846 g / cm^3
# Si number density = 21.607642 Si / 1000 Ang^3
#
#
#
# Elastic Constant Matrix: (Units=GPa)
#
#
# Indices 1 2 3 4 5 6 
#
# 1 99.8580 57.4648 19.5357 0.0000 0.0000 0.0000
# 2 57.4648 99.8580 19.5357 0.0000 0.0000 0.0000
# 3 19.5357 19.5357 117.2345 0.0000 0.0000 0.0000
# 4 0.0000 0.0000 0.0000 21.8864 0.0000 0.0000
# 5 0.0000 0.0000 0.0000 0.0000 21.8864 0.0000
# 6 0.0000 0.0000 0.0000 0.0000 0.0000 35.6582
#
#
#
# Elastic Compliance Matrix: (Units=1/GPa)
#
#
# Indices 1 2 3 4 5 6 
#
# 1 0.015110 -0.008479 -0.001105 0.000000 0.000000 0.000000
# 2 -0.008479 0.015110 -0.001105 0.000000 0.000000 0.000000
# 3 -0.001105 -0.001105 0.008898 0.000000 0.000000 0.000000
# 4 0.000000 0.000000 0.000000 0.045690 0.000000 0.000000
# 5 0.000000 0.000000 0.000000 0.000000 0.045690 0.000000
# 6 0.000000 0.000000 0.000000 0.000000 0.000000 0.028044
#
#
# Mechanical properties :
#
#
# Convention : Reuss Voigt Hill
#
# Bulk Modulus (GPa) = 56.36991 56.66919 56.51955
# Shear Modulus (GPa) = 26.90580 30.58050 28.74315
#
# Velocity S-wave (km/s) = 3.53257 3.76608 3.65119
# Velocity P-wave (km/s) = 6.54089 6.72269 6.63241
#
# Compressibility (1/GPa) = 0.01773996
#
# Stress axis : x y z
#
# Youngs Moduli (GPa) = 66.18254 66.18254 112.38275
#
# Poissons Ratio (x) = 0.56116 0.12418
# Poissons Ratio (y) = 0.56116 0.12418
# Poissons Ratio (z) = 0.07313 0.07313
#
# Static dielectric constant tensor:
#      x y z
#    x 4.043150 0.000000 0.000000 
#    y 0.000000 4.043150 0.000000 
#    z 0.000000 0.000000 3.265360 
# 
# 
# High freq. dielectric constant tensor:
#      x y z
#    x 1.857440 0.000000 0.000000 
#    y 0.000000 1.857440 0.000000 
#    z 0.000000 0.000000 1.824810 
# 
# From -- ./inp_files/5163.got.cif
#   From: 2010.03.12/outbox.cif.g09.slc.cpg/sg142_3_cif.got.tgz:5163.got - 2010.04.03 13:27:16.
