data_PCOD8321307
_publ_section_title
;
Structure prediction by ZEFSAII (Michael W. Deem and Ramdas Pophale) SiO2 
 PCOD8321307
Probable space group: I 41/A C D
;
_chemical_formula_sum "Si O2"
_cell_formula_units_Z 192
_cell_length_a 16.169909
_cell_length_b 16.169909
_cell_length_c 33.685196
_cell_angle_alpha 90.000000
_cell_angle_beta 90.000000
_cell_angle_gamma 90.000000
_cell_volume 8807.532011
_symmetry_space_group_name_H-M "I 41/A C D"
_symmetry_group_IT_number 142
_space_group.IT_coordinate_system_code '2'
_symmetry_cell_setting 'tetragonal'
loop_
_space_group_symop_operation_xyz
x,y,z
1/4-y,3/4+x,1/4+z
-x,1/2-y,z
1/4+y,1/4-x,3/4+z
x,-y,1/2-z
1/2-x,y,-z
3/4+y,1/4+x,1/4-z
1/4-y,1/4-x,1/4-z
-x,-y,-z
3/4+y,1/4-x,3/4-z
x,1/2+y,-z
3/4-y,3/4+x,1/4-z
-x,y,1/2+z
1/2+x,-y,z
1/4-y,3/4-x,3/4+z
3/4+y,3/4+x,3/4+z
1/2+x,1/2+y,1/2+z
3/4-y,1/4+x,3/4+z
1/2-x,-y,1/2+z
3/4+y,3/4-x,1/4+z
1/2+x,1/2-y,-z
-x,1/2+y,1/2-z
1/4+y,3/4+x,3/4-z
3/4-y,3/4-x,3/4-z
1/2-x,1/2-y,1/2-z
1/4+y,3/4-x,1/4-z
1/2+x,y,1/2-z
1/4-y,1/4+x,3/4-z
1/2-x,1/2+y,z
x,1/2-y,1/2+z
3/4-y,1/4-x,1/4+z
1/4+y,1/4+x,1/4+z
loop_
_atom_site_type_symbol
_atom_site_label
_atom_site_fract_x
_atom_site_fract_y
_atom_site_fract_z
Si Si1 0.352246 0.068794 0.962061
Si Si2 0.500000 0.250000 0.742822
Si Si3 0.780371 0.766395 0.327008
Si Si4 0.305091 0.500000 0.750000
Si Si5 0.764681 0.203560 0.586152
Si Si6 0.123965 0.858887 0.203198
Si Si7 0.630057 0.335399 0.454167
O O1 0.446669 0.037754 0.957193
O O2 0.328974 0.133180 0.927632
O O3 0.342594 0.104591 0.006564
O O4 0.284318 0.995756 0.961711
O O5 0.573920 0.275990 0.713810
O O6 0.480373 0.326800 0.771290
O O7 0.768931 0.713796 0.366836
O O8 0.704563 0.828912 0.320451
O O9 0.863953 0.821640 0.326404
O O10 0.354975 0.420410 0.763770
O O11 0.671218 0.181011 0.573470
O O12 0.794664 0.290545 0.568130
#
# Coordination Sequence:
#
# PCOD8321307 Si02
#       7
#    32  16  32  16  32  32  32
#     4  12  22  45  68 100 132 184 235 286 338 414
#     4  12  24  40  74  96 136 176 240 290 332 408
#     4  12  26  44  70 101 145 178 228 291 360 414
#     4  12  24  38  74  98 132 172 240 290 328 404
#     4  12  26  43  70 100 145 180 225 290 362 415
#     4  12  24  46  67  99 139 186 233 285 342 424
#     4  12  23  42  67 105 132 177 232 290 346 407
#
# _framework density 21.799523000000001
#
# number of rings (size 3 to 8) (size 9 to 14) (size 15 to 20)
#    0.000    0.000    6.667    3.500    0.000    2.667 
#    0.000    5.833    0.000    0.000    0.000    0.000 
#    0.000    0.000    0.000    0.000    0.000    0.000 
#
# Total GULP energy -1190679.266061 kJ/mol
# GULP energy per Si atom -12402.909021 kJ/mol
# Density = 2.174991 g / cm^3
# Si number density = 21.799523 Si / 1000 Ang^3
#
#
#
# Elastic Constant Matrix: (Units=GPa)
#
#
# Indices 1 2 3 4 5 6 
#
# 1 101.7827 38.7631 33.8307 0.0000 0.0000 0.0000
# 2 38.7631 101.7827 33.8307 0.0000 0.0000 0.0000
# 3 33.8307 33.8307 97.7756 0.0000 0.0000 0.0000
# 4 0.0000 0.0000 0.0000 31.0541 0.0000 0.0000
# 5 0.0000 0.0000 0.0000 0.0000 31.0541 0.0000
# 6 0.0000 0.0000 0.0000 0.0000 0.0000 62.6759
#
#
#
# Elastic Compliance Matrix: (Units=1/GPa)
#
#
# Indices 1 2 3 4 5 6 
#
# 1 0.012203 -0.003665 -0.002954 0.000000 0.000000 0.000000
# 2 -0.003665 0.012203 -0.002954 0.000000 0.000000 0.000000
# 3 -0.002954 -0.002954 0.012272 0.000000 0.000000 0.000000
# 4 0.000000 0.000000 0.000000 0.032202 0.000000 0.000000
# 5 0.000000 0.000000 0.000000 0.000000 0.032202 0.000000
# 6 0.000000 0.000000 0.000000 0.000000 0.000000 0.015955
#
#
# Mechanical properties :
#
#
# Convention : Reuss Voigt Hill
#
# Bulk Modulus (GPa) = 57.04377 57.13222 57.08800
# Shear Modulus (GPa) = 35.20489 37.95123 36.57806
#
# Velocity S-wave (km/s) = 4.02299 4.17696 4.10070
# Velocity P-wave (km/s) = 6.91401 7.03758 6.97607
#
# Compressibility (1/GPa) = 0.01753040
#
# Stress axis : x y z
#
# Youngs Moduli (GPa) = 81.94953 81.94953 81.48886
#
# Poissons Ratio (x) = 0.30038 0.24071
# Poissons Ratio (y) = 0.30038 0.24071
# Poissons Ratio (z) = 0.24207 0.24207
#
# Static dielectric constant tensor:
#      x y z
#    x 4.038620 0.000000 0.000000 
#    y 0.000000 4.038620 0.000000 
#    z 0.000000 0.000000 3.642860 
# 
# 
# High freq. dielectric constant tensor:
#      x y z
#    x 1.871550 0.000000 0.000000 
#    y 0.000000 1.871550 0.000000 
#    z 0.000000 0.000000 1.833540 
# 
# From -- ./inp_files/12610.got.cif
#   From: 2010.03.12/outbox.cif.g09.slc.cpg/sg142_7_cif.got.tgz:12610.got - 2010.04.03 13:27:16.
