data_PCOD8321542
_publ_section_title
;
Structure prediction by ZEFSAII (Michael W. Deem and Ramdas Pophale) SiO2 
 PCOD8321542
Probable space group: R 3
;
_chemical_formula_sum "Si O2"
_cell_formula_units_Z 45
_cell_length_a 18.444328
_cell_length_b 18.444328
_cell_length_c 6.663514
_cell_angle_alpha 90.000000
_cell_angle_beta 90.000000
_cell_angle_gamma 120.000000
_cell_volume 1963.177734
_symmetry_space_group_name_H-M "R 3"
_symmetry_group_IT_number 146
_symmetry_cell_setting 'hexagonal'
loop_
_space_group_symop_operation_xyz
x,y,z
-y,x-y,z
-x+y,-x,z
2/3+x,1/3+y,1/3+z
2/3-y,1/3+x-y,1/3+z
2/3-x+y,1/3-x,1/3+z
1/3+x,2/3+y,2/3+z
1/3-y,2/3+x-y,2/3+z
1/3-x+y,2/3-x,2/3+z
loop_
_atom_site_type_symbol
_atom_site_label
_atom_site_fract_x
_atom_site_fract_y
_atom_site_fract_z
Si Si1 0.202129 0.845247 0.084640
Si Si2 0.942560 0.605762 0.785917
Si Si3 0.759718 0.482610 0.825754
Si Si4 0.004026 0.173982 0.146755
Si Si5 0.171714 0.052034 0.717900
O O1 0.120235 0.759798 0.014564
O O2 0.182544 0.920005 0.074778
O O3 0.227960 0.828970 0.309130
O O4 0.277329 0.863744 0.936236
O O5 0.984569 0.695768 0.681936
O O6 0.843809 0.566608 0.769629
O O7 0.704189 0.456587 0.617913
O O8 0.781128 0.416002 0.929187
O O9 0.711725 0.508123 0.987708
O O10 0.949803 0.114814 0.959676
#
# Coordination Sequence:
#
# PCOD8321542 Si02
#       5
#     9   9   9   9   9
#     4  10  25  43  65 103 134 184 236 286 353 430
#     4  11  24  42  67  98 139 180 226 285 338 417
#     4  10  23  45  66 106 134 182 243 284 356 422
#     4  11  24  44  71  97 144 182 234 296 355 415
#     4  10  24  42  71 100 141 182 233 301 344 420
#
# _framework density 22.922021000000001
#
# number of rings (size 3 to 8) (size 9 to 14) (size 15 to 20)
#    0.000    1.600    2.000    0.400    5.600    9.600 
#    0.000    0.000    0.000    0.000    0.000    0.000 
#    0.000    0.000    0.000    0.000    0.000    0.000 
#
# Total GULP energy -185835.151385 kJ/mol
# GULP energy per Si atom -12389.010092 kJ/mol
# Density = 2.286985 g / cm^3
# Si number density = 22.922021 Si / 1000 Ang^3
#
#
#
# Elastic Constant Matrix: (Units=GPa)
#
#
# Indices 1 2 3 4 5 6 
#
# 1 80.5932 15.9425 33.5532 -0.2325 -3.5166 -0.0020
# 2 15.9425 80.6058 33.6028 0.2136 3.4651 -0.0034
# 3 33.5532 33.6028 139.6039 -0.0315 -0.0963 -0.0128
# 4 -0.2325 0.2136 -0.0315 30.9331 -0.0080 3.4857
# 5 -3.5166 3.4651 -0.0963 -0.0080 30.9079 -0.2220
# 6 -0.0020 -0.0034 -0.0128 3.4857 -0.2220 32.3301
#
#
#
# Elastic Compliance Matrix: (Units=1/GPa)
#
#
# Indices 1 2 3 4 5 6 
#
# 1 0.014048 -0.001609 -0.002988 0.000114 0.001769 -0.000001
# 2 -0.001609 0.014050 -0.002996 -0.000113 -0.001768 0.000000
# 3 -0.002988 -0.002996 0.008602 0.000007 0.000023 0.000002
# 4 0.000114 -0.000113 0.000007 0.032727 0.000009 -0.003528
# 5 0.001769 -0.001768 0.000023 0.000009 0.032755 0.000224
# 6 -0.000001 0.000000 0.000002 -0.003528 0.000224 0.031313
#
#
# Mechanical properties :
#
#
# Convention : Reuss Voigt Hill
#
# Bulk Modulus (GPa) = 46.48266 51.88891 49.18578
# Shear Modulus (GPa) = 32.08155 33.34783 32.71469
#
# Velocity S-wave (km/s) = 3.74518 3.81837 3.78195
# Velocity P-wave (km/s) = 6.24695 6.49047 6.36988
#
# Compressibility (1/GPa) = 0.02151340
#
# Stress axis : x y z
#
# Youngs Moduli (GPa) = 71.18583 71.17595 116.24630
#
# Poissons Ratio (x) = 0.11454 0.34731
# Poissons Ratio (y) = 0.11456 0.34830
# Poissons Ratio (z) = 0.21268 0.21326
#
# Static dielectric constant tensor:
#      x y z
#    x 4.116220 0.000010 -0.000030 
#    y 0.000010 4.116220 0.000010 
#    z -0.000030 0.000010 4.061650 
# 
# 
# High freq. dielectric constant tensor:
#      x y z
#    x 1.905960 0.000000 0.000000 
#    y 0.000000 1.905960 0.000000 
#    z 0.000000 0.000000 1.898830 
# 
# From -- ./inp_files/242.got.cif
#   From: 2010.06.25/outbox.cif.g09.slc.cpg/sg146_cif.got.tgz:242.got - 2010.06.28 11:17:22.
