data_PCOD8321274
_publ_section_title
;
Structure prediction by ZEFSAII (Michael W. Deem and Ramdas Pophale) SiO2 
 PCOD8321274
Probable space group: I 41/A C D
;
_chemical_formula_sum "Si O2"
_cell_formula_units_Z 112
_cell_length_a 12.986455
_cell_length_b 12.986455
_cell_length_c 30.608948
_cell_angle_alpha 90.000000
_cell_angle_beta 90.000000
_cell_angle_gamma 90.000000
_cell_volume 5162.138275
_symmetry_space_group_name_H-M "I 41/A C D"
_symmetry_group_IT_number 142
_space_group.IT_coordinate_system_code '2'
_symmetry_cell_setting 'tetragonal'
loop_
_space_group_symop_operation_xyz
x,y,z
1/4-y,3/4+x,1/4+z
-x,1/2-y,z
1/4+y,1/4-x,3/4+z
x,-y,1/2-z
1/2-x,y,-z
3/4+y,1/4+x,1/4-z
1/4-y,1/4-x,1/4-z
-x,-y,-z
3/4+y,1/4-x,3/4-z
x,1/2+y,-z
3/4-y,3/4+x,1/4-z
-x,y,1/2+z
1/2+x,-y,z
1/4-y,3/4-x,3/4+z
3/4+y,3/4+x,3/4+z
1/2+x,1/2+y,1/2+z
3/4-y,1/4+x,3/4+z
1/2-x,-y,1/2+z
3/4+y,3/4-x,1/4+z
1/2+x,1/2-y,-z
-x,1/2+y,1/2-z
1/4+y,3/4+x,3/4-z
3/4-y,3/4-x,3/4-z
1/2-x,1/2-y,1/2-z
1/4+y,3/4-x,1/4-z
1/2+x,y,1/2-z
1/4-y,1/4+x,3/4-z
1/2-x,1/2+y,z
x,1/2-y,1/2+z
3/4-y,1/4-x,1/4+z
1/4+y,1/4+x,1/4+z
loop_
_atom_site_type_symbol
_atom_site_label
_atom_site_fract_x
_atom_site_fract_y
_atom_site_fract_z
Si Si1 0.652874 0.380444 0.527881
Si Si2 0.181970 0.165812 0.164650
Si Si3 0.500000 0.750000 0.218811
Si Si4 0.024291 0.087253 0.864549
O O1 0.750000 0.410457 0.500000
O O2 0.618741 0.488161 0.548442
O O3 0.565517 0.326598 0.498954
O O4 0.688024 0.299687 0.564682
O O5 0.166454 0.083547 0.125000
O O6 0.231998 0.268946 0.142796
O O7 0.071734 0.182901 0.186946
O O8 0.911918 0.140415 0.864799
#
# Coordination Sequence:
#
# PCOD8321274 Si02
#       4
#    32  32  16  32
#     4  11  24  40  65  95 127 166 210 264 317 373
#     4  11  24  40  63  91 127 169 211 258 317 385
#     4  12  25  44  65  96 130 166 212 270 321 370
#     4   9  19  40  65  89 121 167 212 256 315 383
#
# _framework density 21.696435999999999
#
# number of rings (size 3 to 8) (size 9 to 14) (size 15 to 20)
#    0.000    1.429    0.000    6.429    0.000    8.000 
#    0.000    0.000    0.000    0.000    0.000    0.000 
#    0.000    0.000    0.000    0.000    0.000    0.000 
#
# Total GULP energy -694176.211211 kJ/mol
# GULP energy per Si atom -12396.003772 kJ/mol
# Density = 2.164705 g / cm^3
# Si number density = 21.696436 Si / 1000 Ang^3
#
#
#
# Elastic Constant Matrix: (Units=GPa)
#
#
# Indices 1 2 3 4 5 6 
#
# 1 109.7171 46.5411 63.7336 0.0000 0.0000 0.0000
# 2 46.5411 109.7179 63.7339 0.0000 0.0000 0.0000
# 3 63.7336 63.7339 140.7866 0.0000 0.0000 0.0000
# 4 0.0000 0.0000 0.0000 50.3418 0.0000 0.0000
# 5 0.0000 0.0000 0.0000 0.0000 50.3428 0.0000
# 6 0.0000 0.0000 0.0000 0.0000 0.0000 21.9524
#
#
#
# Elastic Compliance Matrix: (Units=1/GPa)
#
#
# Indices 1 2 3 4 5 6 
#
# 1 0.012988 -0.002841 -0.004593 0.000000 0.000000 0.000000
# 2 -0.002841 0.012988 -0.004593 0.000000 0.000000 0.000000
# 3 -0.004593 -0.004593 0.011262 0.000000 0.000000 0.000000
# 4 0.000000 0.000000 0.000000 0.019864 0.000000 0.000000
# 5 0.000000 0.000000 0.000000 0.000000 0.019864 0.000000
# 6 0.000000 0.000000 0.000000 0.000000 0.000000 0.045553
#
#
# Mechanical properties :
#
#
# Convention : Reuss Voigt Hill
#
# Bulk Modulus (GPa) = 75.86319 78.69319 77.27819
# Shear Modulus (GPa) = 33.11969 36.94161 35.03065
#
# Velocity S-wave (km/s) = 3.91129 4.13080 4.02254
# Velocity P-wave (km/s) = 7.44575 7.68767 7.56768
#
# Compressibility (1/GPa) = 0.01318162
#
# Stress axis : x y z
#
# Youngs Moduli (GPa) = 76.99576 76.99629 88.79594
#
# Poissons Ratio (x) = 0.21875 0.40787
# Poissons Ratio (y) = 0.21874 0.40787
# Poissons Ratio (z) = 0.35367 0.35367
#
# Static dielectric constant tensor:
#      x y z
#    x 3.807630 0.000000 0.000000 
#    y 0.000000 3.807620 0.000000 
#    z 0.000000 0.000000 4.286580 
# 
# 
# High freq. dielectric constant tensor:
#      x y z
#    x 1.848050 0.000000 0.000000 
#    y 0.000000 1.848050 0.000000 
#    z 0.000000 0.000000 1.873980 
# 
# From -- ./inp_files/11040.got.cif
#   From: 2010.03.12/outbox.cif.g09.slc.cpg/sg142_6_cif.got.tgz:11040.got - 2010.04.03 13:27:16.
