data_PCOD8321319
_publ_section_title
;
Structure prediction by ZEFSAII (Michael W. Deem and Ramdas Pophale) SiO2 
 PCOD8321319
Probable space group: I 41/A C D
;
_chemical_formula_sum "Si O2"
_cell_formula_units_Z 72
_cell_length_a 9.616890
_cell_length_b 9.616890
_cell_length_c 34.060712
_cell_angle_alpha 90.000000
_cell_angle_beta 90.000000
_cell_angle_gamma 90.000000
_cell_volume 3150.090415
_symmetry_space_group_name_H-M "I 41/A C D"
_symmetry_group_IT_number 142
_space_group.IT_coordinate_system_code '2'
_symmetry_cell_setting 'tetragonal'
loop_
_space_group_symop_operation_xyz
x,y,z
1/4-y,3/4+x,1/4+z
-x,1/2-y,z
1/4+y,1/4-x,3/4+z
x,-y,1/2-z
1/2-x,y,-z
3/4+y,1/4+x,1/4-z
1/4-y,1/4-x,1/4-z
-x,-y,-z
3/4+y,1/4-x,3/4-z
x,1/2+y,-z
3/4-y,3/4+x,1/4-z
-x,y,1/2+z
1/2+x,-y,z
1/4-y,3/4-x,3/4+z
3/4+y,3/4+x,3/4+z
1/2+x,1/2+y,1/2+z
3/4-y,1/4+x,3/4+z
1/2-x,-y,1/2+z
3/4+y,3/4-x,1/4+z
1/2+x,1/2-y,-z
-x,1/2+y,1/2-z
1/4+y,3/4+x,3/4-z
3/4-y,3/4-x,3/4-z
1/2-x,1/2-y,1/2-z
1/4+y,3/4-x,1/4-z
1/2+x,y,1/2-z
1/4-y,1/4+x,3/4-z
1/2-x,1/2+y,z
x,1/2-y,1/2+z
3/4-y,1/4-x,1/4+z
1/4+y,1/4+x,1/4+z
loop_
_atom_site_type_symbol
_atom_site_label
_atom_site_fract_x
_atom_site_fract_y
_atom_site_fract_z
Si Si1 0.000000 0.250000 0.875000
Si Si2 0.695981 0.439871 0.085018
Si Si3 0.028173 0.407420 0.537676
O O1 0.041678 0.375461 0.845598
O O2 0.759054 0.490947 0.125000
O O3 0.812503 0.422082 0.051716
O O4 0.577319 0.547709 0.071794
O O5 0.000000 0.250000 0.525400
O O6 0.000000 0.500000 0.500000
#
# Coordination Sequence:
#
# PCOD8321319 Si02
#       3
#     8  32  32
#     4  12  24  44  84 120 152 200 274 332 392 456
#     4  12  26  48  81 113 157 207 266 323 389 474
#     4  12  30  49  77 113 159 206 262 323 402 471
#
# _framework density 22.856487999999999
#
# number of rings (size 3 to 8) (size 9 to 14) (size 15 to 20)
#    0.000    0.000    4.444    4.000    3.111    3.556 
#    0.000    0.000    0.000    0.000    0.000    0.000 
#    0.000    0.000    0.000    0.000    0.000    0.000 
#
# Total GULP energy -446581.440407 kJ/mol
# GULP energy per Si atom -12405.040011 kJ/mol
# Density = 2.280447 g / cm^3
# Si number density = 22.856488 Si / 1000 Ang^3
#
#
#
# Elastic Constant Matrix: (Units=GPa)
#
#
# Indices 1 2 3 4 5 6 
#
# 1 152.5385 69.6539 57.5755 0.0000 0.0000 0.0000
# 2 69.6539 152.5395 57.5745 0.0000 0.0000 0.0000
# 3 57.5755 57.5745 125.7263 0.0000 0.0000 0.0000
# 4 0.0000 0.0000 0.0000 30.5148 0.0000 0.0000
# 5 0.0000 0.0000 0.0000 0.0000 30.5128 0.0000
# 6 0.0000 0.0000 0.0000 0.0000 0.0000 49.1713
#
#
#
# Elastic Compliance Matrix: (Units=1/GPa)
#
#
# Indices 1 2 3 4 5 6 
#
# 1 0.008983 -0.003082 -0.002702 0.000000 0.000000 0.000000
# 2 -0.003082 0.008983 -0.002702 0.000000 0.000000 0.000000
# 3 -0.002702 -0.002702 0.010429 0.000000 0.000000 0.000000
# 4 0.000000 0.000000 0.000000 0.032771 0.000000 0.000000
# 5 0.000000 0.000000 0.000000 0.000000 0.032773 0.000000
# 6 0.000000 0.000000 0.000000 0.000000 0.000000 0.020337
#
#
# Mechanical properties :
#
#
# Convention : Reuss Voigt Hill
#
# Bulk Modulus (GPa) = 87.55343 88.93469 88.24406
# Shear Modulus (GPa) = 37.02163 38.43982 37.73073
#
# Velocity S-wave (km/s) = 4.02897 4.10541 4.06737
# Velocity P-wave (km/s) = 7.74805 7.84009 7.79421
#
# Compressibility (1/GPa) = 0.01142160
#
# Stress axis : x y z
#
# Youngs Moduli (GPa) = 111.32089 111.32255 95.88843
#
# Poissons Ratio (x) = 0.34309 0.25913
# Poissons Ratio (y) = 0.34308 0.25911
# Poissons Ratio (z) = 0.30083 0.30082
#
# Static dielectric constant tensor:
#      x y z
#    x 4.700000 0.000000 0.000000 
#    y 0.000000 4.700070 0.000000 
#    z 0.000000 0.000000 4.226020 
# 
# 
# High freq. dielectric constant tensor:
#      x y z
#    x 1.917070 0.000000 0.000000 
#    y 0.000000 1.917070 0.000000 
#    z 0.000000 0.000000 1.909730 
# 
# From -- ./inp_files/11783.got.cif
#   From: 2010.03.12/outbox.cif.g09.slc.cpg/sg142_6_cif.got.tgz:11783.got - 2010.04.03 13:27:16.
