data_PCOD8321509
_publ_section_title
;
Structure prediction by ZEFSAII (Michael W. Deem and Ramdas Pophale) SiO2 
 PCOD8321509
Probable space group: R 3
;
_chemical_formula_sum "Si O2"
_cell_formula_units_Z 60
_cell_length_a 15.657793
_cell_length_b 15.657793
_cell_length_c 13.217968
_cell_angle_alpha 90.000000
_cell_angle_beta 90.000000
_cell_angle_gamma 120.000000
_cell_volume 2806.444269
_symmetry_space_group_name_H-M "R 3"
_symmetry_group_IT_number 146
_symmetry_cell_setting 'hexagonal'
loop_
_space_group_symop_operation_xyz
x,y,z
-y,x-y,z
-x+y,-x,z
2/3+x,1/3+y,1/3+z
2/3-y,1/3+x-y,1/3+z
2/3-x+y,1/3-x,1/3+z
1/3+x,2/3+y,2/3+z
1/3-y,2/3+x-y,2/3+z
1/3-x+y,2/3-x,2/3+z
loop_
_atom_site_type_symbol
_atom_site_label
_atom_site_fract_x
_atom_site_fract_y
_atom_site_fract_z
Si Si1 0.000000 0.000000 0.824156
Si Si2 0.276630 0.475320 0.143022
Si Si3 0.336189 0.279002 0.934591
Si Si4 0.000000 0.000000 0.584136
Si Si5 0.460685 0.873435 0.573304
Si Si6 0.068307 0.498377 0.781895
Si Si7 0.186851 0.197620 0.268479
Si Si8 0.537496 0.492241 0.449087
O O1 0.000000 0.000000 0.704328
O O2 0.893618 0.929912 0.869898
O O3 0.354905 0.450937 0.195888
O O4 0.267032 0.554762 0.211599
O O5 0.167261 0.383017 0.123707
O O6 0.321160 0.524438 0.033935
O O7 0.233135 0.219883 0.871434
O O8 0.341124 0.379615 0.974001
O O9 0.332135 0.205595 0.022168
O O10 0.467937 0.886694 0.694450
O O11 0.441643 0.955685 0.523903
O O12 0.110793 0.550084 0.890336
O O13 0.102496 0.420257 0.751918
O O14 0.206774 0.141401 0.177618
#
# Coordination Sequence:
#
# PCOD8321509 Si02
#       8
#     3   9   9   3   9   9   9   9
#     4  12  27  48  61 107 142 189 231 291 358 431
#     4  11  24  46  69  95 141 187 234 278 352 436
#     4  10  19  42  72  99 132 182 224 283 352 426
#     4  12  30  48  64  95 142 189 240 282 340 443
#     4  11  22  41  69  96 139 174 228 285 353 417
#     4  11  23  41  68 106 133 169 237 291 352 416
#     4  10  20  39  68 101 135 179 221 285 359 425
#     4  11  21  39  67 101 136 173 231 295 346 414
#
# _framework density 21.379367999999999
#
# number of rings (size 3 to 8) (size 9 to 14) (size 15 to 20)
#    0.000    1.200    4.500    3.600    2.100    1.200 
#    9.000    0.000    0.000    0.000    0.000    0.000 
#    0.000    0.000    0.000    0.000    0.000    0.000 
#
# Total GULP energy -247903.862368 kJ/mol
# GULP energy per Si atom -12395.193118 kJ/mol
# Density = 2.133071 g / cm^3
# Si number density = 21.379368 Si / 1000 Ang^3
#
#
#
# Elastic Constant Matrix: (Units=GPa)
#
#
# Indices 1 2 3 4 5 6 
#
# 1 83.9355 39.1166 38.7509 -13.9094 4.6513 0.0000
# 2 39.1166 83.9355 38.7509 13.9094 -4.6513 0.0000
# 3 38.7509 38.7509 106.1333 0.0000 0.0000 0.0000
# 4 -13.9094 13.9094 0.0000 14.6686 0.0000 -4.6513
# 5 4.6513 -4.6513 0.0000 0.0000 14.6686 -13.9094
# 6 0.0000 0.0000 0.0000 -4.6513 -13.9094 22.4095
#
#
#
# Elastic Compliance Matrix: (Units=1/GPa)
#
#
# Indices 1 2 3 4 5 6 
#
# 1 0.037555 -0.027002 -0.003853 0.061216 -0.020470 0.000000
# 2 -0.027002 0.037555 -0.003853 -0.061216 0.020470 0.000000
# 3 -0.003853 -0.003853 0.012236 0.000000 0.000000 0.000000
# 4 0.061216 -0.061216 0.000000 0.197250 0.000000 0.040941
# 5 -0.020470 0.020470 0.000000 0.000000 0.197249 0.122431
# 6 0.000000 0.000000 0.000000 0.040941 0.122431 0.129114
#
#
# Mechanical properties :
#
#
# Convention : Reuss Voigt Hill
#
# Bulk Modulus (GPa) = 55.77272 56.36013 56.06643
# Shear Modulus (GPa) = 7.28489 20.84172 14.06330
#
# Velocity S-wave (km/s) = 1.84793 3.12565 2.56754
# Velocity P-wave (km/s) = 5.54048 6.28056 5.92209
#
# Compressibility (1/GPa) = 0.01792991
#
# Stress axis : x y z
#
# Youngs Moduli (GPa) = 26.62747 26.62747 81.72683
#
# Poissons Ratio (x) = 0.71899 0.31491
# Poissons Ratio (y) = 0.71899 0.31491
# Poissons Ratio (z) = 0.10260 0.10260
#
# Static dielectric constant tensor:
#      x y z
#    x 3.707070 0.000000 0.000000 
#    y 0.000000 3.707070 0.000000 
#    z 0.000000 0.000000 3.919320 
# 
# 
# High freq. dielectric constant tensor:
#      x y z
#    x 1.825480 0.000000 0.000000 
#    y 0.000000 1.825480 0.000000 
#    z 0.000000 0.000000 1.845110 
# 
# From -- ./inp_files/1261.got.cif
#   From: 2010.06.25/outbox.cif.g09.slc.cpg/sg146_cif.got.tgz:1261.got - 2010.06.28 11:17:22.
