data_PCOD8321324
_publ_section_title
;
Structure prediction by ZEFSAII (Michael W. Deem and Ramdas Pophale) SiO2 
 PCOD8321324
Probable space group: I 41/A C D
;
_chemical_formula_sum "Si O2"
_cell_formula_units_Z 136
_cell_length_a 23.198214
_cell_length_b 23.198214
_cell_length_c 11.222495
_cell_angle_alpha 90.000000
_cell_angle_beta 90.000000
_cell_angle_gamma 90.000000
_cell_volume 6039.465732
_symmetry_space_group_name_H-M "I 41/A C D"
_symmetry_group_IT_number 142
_space_group.IT_coordinate_system_code '2'
_symmetry_cell_setting 'tetragonal'
loop_
_space_group_symop_operation_xyz
x,y,z
1/4-y,3/4+x,1/4+z
-x,1/2-y,z
1/4+y,1/4-x,3/4+z
x,-y,1/2-z
1/2-x,y,-z
3/4+y,1/4+x,1/4-z
1/4-y,1/4-x,1/4-z
-x,-y,-z
3/4+y,1/4-x,3/4-z
x,1/2+y,-z
3/4-y,3/4+x,1/4-z
-x,y,1/2+z
1/2+x,-y,z
1/4-y,3/4-x,3/4+z
3/4+y,3/4+x,3/4+z
1/2+x,1/2+y,1/2+z
3/4-y,1/4+x,3/4+z
1/2-x,-y,1/2+z
3/4+y,3/4-x,1/4+z
1/2+x,1/2-y,-z
-x,1/2+y,1/2-z
1/4+y,3/4+x,3/4-z
3/4-y,3/4-x,3/4-z
1/2-x,1/2-y,1/2-z
1/4+y,3/4-x,1/4-z
1/2+x,y,1/2-z
1/4-y,1/4+x,3/4-z
1/2-x,1/2+y,z
x,1/2-y,1/2+z
3/4-y,1/4-x,1/4+z
1/4+y,1/4+x,1/4+z
loop_
_atom_site_type_symbol
_atom_site_label
_atom_site_fract_x
_atom_site_fract_y
_atom_site_fract_z
Si Si1 0.750000 0.543680 0.500000
Si Si2 0.844685 0.893666 0.120786
Si Si3 0.000000 0.250000 0.375000
Si Si4 0.750000 0.134977 0.000000
Si Si5 0.952724 0.855176 0.983412
Si Si6 0.200256 0.792727 0.785384
O O1 0.742398 0.507603 0.625000
O O2 0.694840 0.585988 0.489148
O O3 0.844292 0.947489 0.211029
O O4 0.817226 0.837037 0.180772
O O5 0.910674 0.884353 0.080303
O O6 0.014232 0.302457 0.459643
O O7 0.777344 0.173964 0.101366
O O8 0.913101 0.836900 0.875000
O O9 0.002554 0.896220 0.932698
O O10 0.250000 0.750000 0.750000
#
# Coordination Sequence:
#
# PCOD8321324 Si02
#       6
#    16  32   8  16  32  32
#     4  12  27  49  80 112 162 212 264 328 398 490
#     4  12  27  50  75 114 153 204 260 322 400 472
#     4  12  26  52  72 110 144 200 254 312 392 454
#     4  12  27  49  78 112 156 200 256 332 398 478
#     4  12  28  47  76 109 150 199 256 325 390 470
#     4  12  28  48  78 112 154 206 262 326 395 480
#
# _framework density 22.518549
#
# number of rings (size 3 to 8) (size 9 to 14) (size 15 to 20)
#    0.000    0.000    4.706    3.882    9.882    1.882 
#    0.000    0.000    0.000    0.000    0.000    0.000 
#    0.000    0.000    0.000    0.000    0.000    0.000 
#
# Total GULP energy -843176.337295 kJ/mol
# GULP energy per Si atom -12399.652019 kJ/mol
# Density = 2.246730 g / cm^3
# Si number density = 22.518549 Si / 1000 Ang^3
#
#
#
# Elastic Constant Matrix: (Units=GPa)
#
#
# Indices 1 2 3 4 5 6 
#
# 1 119.6427 45.2860 24.4685 0.0000 0.0000 0.0000
# 2 45.2860 119.6435 24.4695 0.0000 0.0000 0.0000
# 3 24.4685 24.4695 88.5484 0.0000 0.0000 0.0000
# 4 0.0000 0.0000 0.0000 39.7406 0.0000 0.0000
# 5 0.0000 0.0000 0.0000 0.0000 39.7412 0.0000
# 6 0.0000 0.0000 0.0000 0.0000 0.0000 54.8378
#
#
#
# Elastic Compliance Matrix: (Units=1/GPa)
#
#
# Indices 1 2 3 4 5 6 
#
# 1 0.010027 -0.003422 -0.001825 0.000000 0.000000 0.000000
# 2 -0.003422 0.010027 -0.001825 0.000000 0.000000 0.000000
# 3 -0.001825 -0.001825 0.012302 0.000000 0.000000 0.000000
# 4 0.000000 0.000000 0.000000 0.025163 0.000000 0.000000
# 5 0.000000 0.000000 0.000000 0.000000 0.025163 0.000000
# 6 0.000000 0.000000 0.000000 0.000000 0.000000 0.018236
#
#
# Mechanical properties :
#
#
# Convention : Reuss Voigt Hill
#
# Bulk Modulus (GPa) = 54.91194 57.36473 56.13833
# Shear Modulus (GPa) = 41.27743 42.43796 41.85770
#
# Velocity S-wave (km/s) = 4.28605 4.34588 4.31607
# Velocity P-wave (km/s) = 6.99512 7.12124 7.05846
#
# Compressibility (1/GPa) = 0.01821098
#
# Stress axis : x y z
#
# Youngs Moduli (GPa) = 99.73373 99.73390 81.28798
#
# Poissons Ratio (x) = 0.34128 0.14835
# Poissons Ratio (y) = 0.34128 0.14837
# Poissons Ratio (z) = 0.18202 0.18203
#
# Static dielectric constant tensor:
#      x y z
#    x 3.907800 0.000000 0.000000 
#    y 0.000000 3.907700 0.000000 
#    z 0.000000 0.000000 4.130170 
# 
# 
# High freq. dielectric constant tensor:
#      x y z
#    x 1.910830 0.000000 0.000000 
#    y 0.000000 1.910830 0.000000 
#    z 0.000000 0.000000 1.885910 
# 
# From -- ./inp_files/3647.got.cif
#   From: 2010.03.12/outbox.cif.g09.slc.cpg/sg142_2_cif.got.tgz:3647.got - 2010.04.03 13:27:16.
