data_PCOD8321234
_publ_section_title
;
Structure prediction by ZEFSAII (Michael W. Deem and Ramdas Pophale) SiO2 
 PCOD8321234
Probable space group: I 41/A C D
;
_chemical_formula_sum "Si O2"
_cell_formula_units_Z 144
_cell_length_a 19.167251
_cell_length_b 19.167251
_cell_length_c 18.212600
_cell_angle_alpha 90.000000
_cell_angle_beta 90.000000
_cell_angle_gamma 90.000000
_cell_volume 6691.008931
_symmetry_space_group_name_H-M "I 41/A C D"
_symmetry_group_IT_number 142
_space_group.IT_coordinate_system_code '2'
_symmetry_cell_setting 'tetragonal'
loop_
_space_group_symop_operation_xyz
x,y,z
1/4-y,3/4+x,1/4+z
-x,1/2-y,z
1/4+y,1/4-x,3/4+z
x,-y,1/2-z
1/2-x,y,-z
3/4+y,1/4+x,1/4-z
1/4-y,1/4-x,1/4-z
-x,-y,-z
3/4+y,1/4-x,3/4-z
x,1/2+y,-z
3/4-y,3/4+x,1/4-z
-x,y,1/2+z
1/2+x,-y,z
1/4-y,3/4-x,3/4+z
3/4+y,3/4+x,3/4+z
1/2+x,1/2+y,1/2+z
3/4-y,1/4+x,3/4+z
1/2-x,-y,1/2+z
3/4+y,3/4-x,1/4+z
1/2+x,1/2-y,-z
-x,1/2+y,1/2-z
1/4+y,3/4+x,3/4-z
3/4-y,3/4-x,3/4-z
1/2-x,1/2-y,1/2-z
1/4+y,3/4-x,1/4-z
1/2+x,y,1/2-z
1/4-y,1/4+x,3/4-z
1/2-x,1/2+y,z
x,1/2-y,1/2+z
3/4-y,1/4-x,1/4+z
1/4+y,1/4+x,1/4+z
loop_
_atom_site_type_symbol
_atom_site_label
_atom_site_fract_x
_atom_site_fract_y
_atom_site_fract_z
Si Si1 0.548631 0.994361 0.570942
Si Si2 0.483257 0.637611 0.666747
Si Si3 0.742541 0.922747 0.774570
Si Si4 0.180088 0.835018 0.045824
Si Si5 0.367477 0.617477 0.125000
O O1 0.629614 0.990723 0.549938
O O2 0.542229 0.060146 0.627499
O O3 0.500000 0.000000 0.500000
O O4 0.537164 0.922675 0.611326
O O5 0.458828 0.708828 0.625000
O O6 0.447070 0.632754 0.747167
O O7 0.566359 0.627635 0.679520
O O8 0.666891 0.919320 0.813056
O O9 0.796642 0.883542 0.828308
O O10 0.766153 0.000000 0.750000
O O11 0.250000 0.825106 0.000000
#
# Coordination Sequence:
#
# PCOD8321234 Si02
#       5
#    32  32  32  32  16
#     4  11  21  41  64  94 129 170 219 269 331 398
#     4  11  22  42  64  89 129 176 219 263 326 410
#     4  11  22  40  66  99 129 162 218 279 330 387
#     4   9  21  38  66  91 123 172 217 263 331 399
#     4  12  25  38  62 102 130 164 210 277 334 388
#
# _framework density 21.521419000000002
#
# number of rings (size 3 to 8) (size 9 to 14) (size 15 to 20)
#    0.000    1.333    4.444    1.667    0.000    2.667 
#    4.000    0.000    0.000    0.000    5.778    0.000 
#    0.000    0.000    0.000    0.000    0.000    0.000 
#
# Total GULP energy -892061.601879 kJ/mol
# GULP energy per Si atom -12389.744471 kJ/mol
# Density = 2.147243 g / cm^3
# Si number density = 21.521419 Si / 1000 Ang^3
#
#
#
# Elastic Constant Matrix: (Units=GPa)
#
#
# Indices 1 2 3 4 5 6 
#
# 1 106.7569 28.2187 47.4552 0.0000 0.0000 0.0000
# 2 28.2187 106.7569 47.4552 0.0000 0.0000 0.0000
# 3 47.4552 47.4552 122.3551 0.0000 0.0000 0.0000
# 4 0.0000 0.0000 0.0000 28.1631 0.0000 0.0000
# 5 0.0000 0.0000 0.0000 0.0000 28.1631 0.0000
# 6 0.0000 0.0000 0.0000 0.0000 0.0000 27.3955
#
#
#
# Elastic Compliance Matrix: (Units=1/GPa)
#
#
# Indices 1 2 3 4 5 6 
#
# 1 0.011460 -0.001273 -0.003951 0.000000 0.000000 0.000000
# 2 -0.001273 0.011460 -0.003951 0.000000 0.000000 0.000000
# 3 -0.003951 -0.003951 0.011238 0.000000 0.000000 0.000000
# 4 0.000000 0.000000 0.000000 0.035507 0.000000 0.000000
# 5 0.000000 0.000000 0.000000 0.000000 0.035507 0.000000
# 6 0.000000 0.000000 0.000000 0.000000 0.000000 0.036502
#
#
# Mechanical properties :
#
#
# Convention : Reuss Voigt Hill
#
# Bulk Modulus (GPa) = 63.26053 64.68079 63.97066
# Shear Modulus (GPa) = 30.24925 30.92701 30.58813
#
# Velocity S-wave (km/s) = 3.75312 3.79494 3.77409
# Velocity P-wave (km/s) = 6.94545 7.02292 6.98429
#
# Compressibility (1/GPa) = 0.01580764
#
# Stress axis : x y z
#
# Youngs Moduli (GPa) = 87.26152 87.26152 88.98616
#
# Poissons Ratio (x) = 0.11107 0.35158
# Poissons Ratio (y) = 0.11107 0.35158
# Poissons Ratio (z) = 0.34477 0.34477
#
# Static dielectric constant tensor:
#      x y z
#    x 4.281710 0.000000 0.000000 
#    y 0.000000 4.281710 0.000000 
#    z 0.000000 0.000000 4.142060 
# 
# 
# High freq. dielectric constant tensor:
#      x y z
#    x 1.841810 0.000000 0.000000 
#    y 0.000000 1.841810 0.000000 
#    z 0.000000 0.000000 1.836360 
# 
# From -- ./inp_files/7305.got.cif
#   From: 2010.03.12/outbox.cif.g09.slc.cpg/sg142_4_cif.got.tgz:7305.got - 2010.04.03 13:27:16.
