data_PCOD8321810
_publ_section_title
;
Structure prediction by ZEFSAII (Michael W. Deem and Ramdas Pophale) SiO2 
 PCOD8321810
Probable space group: R -3
;
_chemical_formula_sum "Si O2"
_cell_formula_units_Z 54
_cell_length_a 13.343399
_cell_length_b 13.343399
_cell_length_c 14.201899
_cell_angle_alpha 90.000000
_cell_angle_beta 90.000000
_cell_angle_gamma 120.000000
_cell_volume 2189.827961
_symmetry_space_group_name_H-M "R -3"
_symmetry_group_IT_number 148
_symmetry_cell_setting 'hexagonal'
loop_
_space_group_symop_operation_xyz
x,y,z
-y,x-y,z
-x+y,-x,z
-x,-y,-z
y,-x+y,-z
x-y,x,-z
2/3+x,1/3+y,1/3+z
2/3-y,1/3+x-y,1/3+z
2/3-x+y,1/3-x,1/3+z
2/3-x,1/3-y,1/3-z
2/3+y,1/3-x+y,1/3-z
2/3+x-y,1/3+x,1/3-z
1/3+x,2/3+y,2/3+z
1/3-y,2/3+x-y,2/3+z
1/3-x+y,2/3-x,2/3+z
1/3-x,2/3-y,2/3-z
1/3+y,2/3-x+y,2/3-z
1/3+x-y,2/3+x,2/3-z
loop_
_atom_site_type_symbol
_atom_site_label
_atom_site_fract_x
_atom_site_fract_y
_atom_site_fract_z
Si Si1 0.006859 0.425312 0.875870
Si Si2 0.407510 0.594037 0.008549
Si Si3 0.551358 0.642219 0.671996
O O1 0.114481 0.546744 0.911962
O O2 0.012724 0.411251 0.765344
O O3 0.001412 0.315045 0.927073
O O4 0.895180 0.437885 0.900196
O O5 0.465875 0.733538 0.010375
O O6 0.425166 0.543860 0.638409
#
# Coordination Sequence:
#
# PCOD8321810 Si02
#       3
#    18  18  18
#     4  11  25  47  75 113 152 198 251 318 373 451
#     4   9  22  45  78 107 148 193 255 307 376 446
#     4  12  29  48  78 108 156 204 252 313 382 454
#
# _framework density 24.659472000000001
#
# number of rings (size 3 to 8) (size 9 to 14) (size 15 to 20)
#    0.667    0.667    0.000    3.333   14.000    0.000 
#    0.000    1.667    0.000    0.000    0.000    0.000 
#    0.000    0.000    0.000    0.000    0.000    0.000 
#
# Total GULP energy -223189.888147 kJ/mol
# GULP energy per Si atom -12399.438230 kJ/mol
# Density = 2.460335 g / cm^3
# Si number density = 24.659472 Si / 1000 Ang^3
#
#
#
# Elastic Constant Matrix: (Units=GPa)
#
#
# Indices 1 2 3 4 5 6 
#
# 1 125.4581 37.8473 -3.6072 -4.9630 -5.7677 0.0000
# 2 37.8473 125.4581 -3.6072 4.9630 5.7677 0.0000
# 3 -3.6072 -3.6072 63.5634 0.0000 0.0000 0.0000
# 4 -4.9630 4.9630 0.0000 25.6394 0.0000 5.7677
# 5 -5.7677 5.7677 0.0000 0.0000 25.6394 -4.9630
# 6 0.0000 0.0000 0.0000 5.7677 -4.9630 43.8054
#
#
#
# Elastic Compliance Matrix: (Units=1/GPa)
#
#
# Indices 1 2 3 4 5 6 
#
# 1 0.009087 -0.002948 0.000348 0.002330 0.002707 0.000000
# 2 -0.002948 0.009087 0.000348 -0.002330 -0.002707 0.000000
# 3 0.000348 0.000348 0.015772 0.000000 0.000000 0.000000
# 4 0.002330 -0.002330 0.000000 0.041122 0.000000 -0.005414
# 5 0.002707 -0.002707 0.000000 0.000000 0.041122 0.004659
# 6 0.000000 0.000000 0.000000 -0.005414 0.004659 0.024069
#
#
# Mechanical properties :
#
#
# Convention : Reuss Voigt Hill
#
# Bulk Modulus (GPa) = 33.96373 41.74948 37.85661
# Shear Modulus (GPa) = 32.34669 37.93996 35.14333
#
# Velocity S-wave (km/s) = 3.62572 3.92670 3.77920
# Velocity P-wave (km/s) = 5.59739 6.12583 5.86756
#
# Compressibility (1/GPa) = 0.02944317
#
# Stress axis : x y z
#
# Youngs Moduli (GPa) = 110.05101 110.05101 63.40402
#
# Poissons Ratio (x) = 0.32441 -0.02209
# Poissons Ratio (y) = 0.32441 -0.02209
# Poissons Ratio (z) = -0.03834 -0.03834
#
# Static dielectric constant tensor:
#      x y z
#    x 4.608550 0.000000 0.000000 
#    y 0.000000 4.608550 0.000000 
#    z 0.000000 0.000000 4.038330 
# 
# 
# High freq. dielectric constant tensor:
#      x y z
#    x 1.998630 0.000000 0.000000 
#    y 0.000000 1.998630 0.000000 
#    z 0.000000 0.000000 1.961600 
# 
# From -- ./inp_files/1782.got.cif
#   From: 2010.03.12/outbox.cif.g09.slc.cpg/sg148_1_cif.got.tgz:1782.got - 2010.04.03 13:38:46.
