data_PCOD8321393
_publ_section_title
;
Structure prediction by ZEFSAII (Michael W. Deem and Ramdas Pophale) SiO2 
 PCOD8321393
Probable space group: P 31
;
_chemical_formula_sum "Si O2"
_cell_formula_units_Z 24
_cell_length_a 8.425462
_cell_length_b 8.425462
_cell_length_c 18.242293
_cell_angle_alpha 90.000000
_cell_angle_beta 90.000000
_cell_angle_gamma 120.000000
_cell_volume 1121.495427
_symmetry_space_group_name_H-M "P 31"
_symmetry_group_IT_number 144
_symmetry_cell_setting 'hexagonal'
loop_
_space_group_symop_operation_xyz
x,y,z
-y,x-y,1/3+z
-x+y,-x,2/3+z
loop_
_atom_site_type_symbol
_atom_site_label
_atom_site_fract_x
_atom_site_fract_y
_atom_site_fract_z
Si Si1 0.044092 0.045806 0.922340
Si Si2 0.987894 0.675278 0.307010
Si Si3 0.392476 0.699604 0.619140
Si Si4 0.011550 0.645698 0.671707
Si Si5 0.515909 0.001849 0.497439
Si Si6 0.064010 0.195085 0.776796
Si Si7 0.714816 0.388090 0.955677
Si Si8 0.253737 0.266339 0.347043
O O1 0.182439 0.169189 0.986253
O O2 0.132666 0.115465 0.842402
O O3 0.859521 0.059377 0.922109
O O4 0.998530 0.838907 0.936864
O O5 0.809655 0.479154 0.317869
O O6 0.144186 0.647736 0.268131
O O7 0.058805 0.774008 0.384837
O O8 0.213251 0.696408 0.647825
O O9 0.474569 0.827697 0.547710
O O10 0.548336 0.789445 0.683518
O O11 0.985442 0.618149 0.759048
O O12 0.868732 0.470262 0.624270
O O13 0.324303 0.974132 0.471540
O O14 0.626839 0.193295 0.541732
O O15 0.875646 0.024929 0.745666
O O16 0.855310 0.534447 0.013734
#
# Coordination Sequence:
#
# PCOD8321393 Si02
#       8
#     3   3   3   3   3   3   3   3
#     4  11  23  43  67  97 133 171 218 275 324 390
#     4  11  23  41  67  97 134 172 218 273 322 389
#     4  11  23  42  66  96 134 173 219 271 321 388
#     4  12  23  43  69  96 134 172 217 273 323 389
#     4  11  23  45  67  97 132 173 218 268 332 382
#     4  11  21  44  69  96 131 172 218 270 336 382
#     4  11  23  42  66  95 135 170 217 271 321 388
#     4  10  23  42  65  94 133 171 217 273 321 388
#
# _framework density 21.399999999999999
#
# number of rings (size 3 to 8) (size 9 to 14) (size 15 to 20)
#    0.000    1.000    5.000    2.250    0.000    6.000 
#    0.000    0.000    0.000    0.000    0.000    0.000 
#    0.000    0.000    0.000    0.000    0.000    0.000 
#
# Total GULP energy -297593.427677 kJ/mol
# GULP energy per Si atom -12399.726153 kJ/mol
# Density = 2.135129 g / cm^3
# Si number density = 21.400000 Si / 1000 Ang^3
#
#
#
# Elastic Constant Matrix: (Units=GPa)
#
#
# Indices 1 2 3 4 5 6 
#
# 1 109.0384 20.5360 45.3357 1.7588 -11.2366 0.0000
# 2 20.5360 109.0384 45.3357 -1.7588 11.2366 0.0000
# 3 45.3357 45.3357 123.2529 0.0000 0.0000 0.0000
# 4 1.7588 -1.7588 0.0000 33.3702 0.0000 11.2366
# 5 -11.2366 11.2366 0.0000 0.0000 33.3702 1.7588
# 6 0.0000 0.0000 0.0000 11.2366 1.7588 44.2512
#
#
#
# Elastic Compliance Matrix: (Units=1/GPa)
#
#
# Indices 1 2 3 4 5 6 
#
# 1 0.011388 -0.000996 -0.003823 -0.000653 0.004170 0.000000
# 2 -0.000996 0.011388 -0.003823 0.000653 -0.004170 0.000000
# 3 -0.003823 -0.003823 0.010926 0.000000 0.000000 0.000000
# 4 -0.000653 0.000653 0.000000 0.032844 0.000000 -0.008340
# 5 0.004170 -0.004170 0.000000 0.000000 0.032844 -0.001305
# 6 0.000000 0.000000 0.000000 -0.008340 -0.001305 0.024768
#
#
# Mechanical properties :
#
#
# Convention : Reuss Voigt Hill
#
# Bulk Modulus (GPa) = 60.90135 62.63827 61.76981
# Shear Modulus (GPa) = 34.03371 37.53981 35.78676
#
# Velocity S-wave (km/s) = 3.99226 4.19286 4.09379
# Velocity P-wave (km/s) = 7.05487 7.26456 7.16048
#
# Compressibility (1/GPa) = 0.01642000
#
# Stress axis : x y z
#
# Youngs Moduli (GPa) = 87.80996 87.80996 91.52864
#
# Poissons Ratio (x) = 0.08743 0.34988
# Poissons Ratio (y) = 0.08743 0.34988
# Poissons Ratio (z) = 0.33567 0.33567
#
# Static dielectric constant tensor:
#      x y z
#    x 4.004530 0.000000 0.000000 
#    y 0.000000 4.004530 0.000000 
#    z 0.000000 0.000000 3.966910 
# 
# 
# High freq. dielectric constant tensor:
#      x y z
#    x 1.851410 0.000000 0.000000 
#    y 0.000000 1.851410 0.000000 
#    z 0.000000 0.000000 1.823930 
# 
# From -- ./inp_files/820.got.cif
#   From: 2010.03.12/outbox.cif.g09.slc.cpg/sg144_cif.got.tgz:820.got - 2010.04.03 13:34:42.
