data_PCOD8321625
_publ_section_title
;
Structure prediction by ZEFSAII (Michael W. Deem and Ramdas Pophale) SiO2 
 PCOD8321625
Probable space group: P -3
;
_chemical_formula_sum "Si O2"
_cell_formula_units_Z 36
_cell_length_a 8.827274
_cell_length_b 8.827274
_cell_length_c 27.792322
_cell_angle_alpha 90.000000
_cell_angle_beta 90.000000
_cell_angle_gamma 120.000000
_cell_volume 1875.463772
_symmetry_space_group_name_H-M "P -3"
_symmetry_group_IT_number 147
_symmetry_cell_setting 'hexagonal'
loop_
_space_group_symop_operation_xyz
x,y,z
-y,x-y,z
-x+y,-x,z
-x,-y,-z
y,-x+y,-z
x-y,x,-z
loop_
_atom_site_type_symbol
_atom_site_label
_atom_site_fract_x
_atom_site_fract_y
_atom_site_fract_z
Si Si1 0.328465 0.334870 0.519186
Si Si2 0.352853 0.999587 0.759117
Si Si3 0.540341 0.429449 0.047777
Si Si4 0.985824 0.187072 0.381763
Si Si5 0.515340 0.115563 0.858390
Si Si6 0.003284 0.680425 0.723936
O O1 0.500000 0.500000 0.500000
O O2 0.170141 0.331457 0.492053
O O3 0.305992 0.336679 0.576869
O O4 0.158869 0.838107 0.753205
O O5 0.416319 0.992459 0.813214
O O6 0.358509 0.180282 0.747627
O O7 0.487861 0.980734 0.724309
O O8 0.468122 0.220548 0.049071
O O9 0.444993 0.456242 0.092546
O O10 0.500000 0.500000 0.000000
O O11 0.983321 0.269179 0.331380
O O12 0.165436 0.177896 0.385880
O O13 0.725943 0.198018 0.856416
#
# Coordination Sequence:
#
# PCOD8321625 Si02
#       6
#     6   6   6   6   6   6
#     4  12  24  43  69 100 131 172 217 276 336 408
#     4  12  24  43  64 104 136 184 224 289 329 420
#     4  10  22  37  64  95 126 173 225 282 339 409
#     4  10  20  42  71  93 128 179 217 274 345 396
#     4  10  21  40  65  92 133 176 221 279 345 393
#     4  12  24  42  68  97 138 177 232 269 351 394
#
# _framework density 19.195253000000001
#
# number of rings (size 3 to 8) (size 9 to 14) (size 15 to 20)
#    1.000    0.000    5.000    2.500    2.333    2.667 
#    0.000    0.000    0.000    6.000    0.000    0.000 
#    0.000    0.000    0.000    0.000    0.000    0.000 
#
# Total GULP energy -446212.102148 kJ/mol
# GULP energy per Si atom -12394.780615 kJ/mol
# Density = 1.915156 g / cm^3
# Si number density = 19.195253 Si / 1000 Ang^3
#
#
#
# Elastic Constant Matrix: (Units=GPa)
#
#
# Indices 1 2 3 4 5 6 
#
# 1 102.6558 31.3423 51.8125 4.1916 -1.0666 0.0000
# 2 31.3423 102.6558 51.8125 -4.1916 1.0666 0.0000
# 3 51.8125 51.8125 183.9749 0.0000 0.0000 0.0000
# 4 4.1916 -4.1916 0.0000 40.3624 0.0000 1.0666
# 5 -1.0666 1.0666 0.0000 0.0000 40.3624 4.1916
# 6 0.0000 0.0000 0.0000 1.0666 4.1916 35.6568
#
#
#
# Elastic Compliance Matrix: (Units=1/GPa)
#
#
# Indices 1 2 3 4 5 6 
#
# 1 0.011874 -0.002333 -0.002687 -0.001475 0.000375 0.000000
# 2 -0.002333 0.011874 -0.002687 0.001475 -0.000375 0.000000
# 3 -0.002687 -0.002687 0.006949 0.000000 0.000000 0.000000
# 4 -0.001475 0.001475 0.000000 0.025102 0.000000 -0.000751
# 5 0.000375 -0.000375 0.000000 0.000000 0.025102 -0.002951
# 6 0.000000 0.000000 0.000000 -0.000751 -0.002951 0.028415
#
#
# Mechanical properties :
#
#
# Convention : Reuss Voigt Hill
#
# Bulk Modulus (GPa) = 65.43382 73.24676 69.34029
# Shear Modulus (GPa) = 38.51384 40.23094 39.37239
#
# Velocity S-wave (km/s) = 4.48417 4.58304 4.53388
# Velocity P-wave (km/s) = 7.80852 8.13925 7.97560
#
# Compressibility (1/GPa) = 0.01528262
#
# Stress axis : x y z
#
# Youngs Moduli (GPa) = 84.21786 84.21786 143.90665
#
# Poissons Ratio (x) = 0.19650 0.38667
# Poissons Ratio (y) = 0.19650 0.38667
# Poissons Ratio (z) = 0.22629 0.22629
#
# Static dielectric constant tensor:
#      x y z
#    x 3.417320 0.000000 0.000000 
#    y 0.000000 3.417320 0.000000 
#    z 0.000000 0.000000 3.250370 
# 
# 
# High freq. dielectric constant tensor:
#      x y z
#    x 1.742760 0.000000 0.000000 
#    y 0.000000 1.742760 0.000000 
#    z 0.000000 0.000000 1.760970 
# 
# From -- ./inp_files/1117.got.cif
#   From: 2010.03.12/outbox.cif.g09.slc.cpg/sg147_cif.got.tgz:1117.got - 2010.04.03 13:37:56.
