data_PCOD8321623
_publ_section_title
;
Structure prediction by ZEFSAII (Michael W. Deem and Ramdas Pophale) SiO2 
 PCOD8321623
Probable space group: P -3
;
_chemical_formula_sum "Si O2"
_cell_formula_units_Z 36
_cell_length_a 16.182069
_cell_length_b 16.182069
_cell_length_c 8.739045
_cell_angle_alpha 90.000000
_cell_angle_beta 90.000000
_cell_angle_gamma 120.000000
_cell_volume 1981.813145
_symmetry_space_group_name_H-M "P -3"
_symmetry_group_IT_number 147
_symmetry_cell_setting 'hexagonal'
loop_
_space_group_symop_operation_xyz
x,y,z
-y,x-y,z
-x+y,-x,z
-x,-y,-z
y,-x+y,-z
x-y,x,-z
loop_
_atom_site_type_symbol
_atom_site_label
_atom_site_fract_x
_atom_site_fract_y
_atom_site_fract_z
Si Si1 0.623172 0.903313 0.178518
Si Si2 0.563307 0.450823 0.332021
Si Si3 0.379661 0.270504 0.681033
Si Si4 0.270504 0.890843 0.681033
Si Si5 0.280140 0.376828 0.821482
Si Si6 0.436693 0.549177 0.332020
O O1 0.654412 0.828063 0.231218
O O2 0.510592 0.860433 0.216026
O O3 0.688849 0.000596 0.268324
O O4 0.640376 0.923189 1.000000
O O5 0.490934 0.343305 0.274073
O O6 0.650160 0.510592 0.216027
O O7 0.500000 0.500000 0.348139
O O8 0.605821 0.449953 0.500000
O O9 0.369345 0.253642 0.500000
O O10 0.311746 0.311151 0.731676
O O11 0.490934 0.343305 0.725927
O O12 0.171937 0.826348 0.768782
#
# Coordination Sequence:
#
# PCOD8321623 Si02
#       6
#     6   6   6   6   6   6
#     4  11  21  33  53  81 110 137 173 224 274 310
#     4   8  16  32  52  72  97 134 174 210 251 310
#     4  10  20  36  56  76 104 144 184 215 256 320
#     4  10  20  36  56  76 104 144 184 215 256 320
#     4  11  21  33  53  81 110 137 173 224 274 310
#     4   8  16  32  52  72  97 134 174 210 251 310
#
# _framework density 18.165184
#
# number of rings (size 3 to 8) (size 9 to 14) (size 15 to 20)
#    0.000    2.333    0.000    6.000    0.000    7.333 
#    2.000    0.000    0.000    0.667    0.000    4.667 
#    0.000    0.000    0.000    0.000    0.000    0.000 
#
# Total GULP energy -446247.176173 kJ/mol
# GULP energy per Si atom -12395.754894 kJ/mol
# Density = 1.812384 g / cm^3
# Si number density = 18.165184 Si / 1000 Ang^3
#
#
#
# Elastic Constant Matrix: (Units=GPa)
#
#
# Indices 1 2 3 4 5 6 
#
# 1 70.7670 25.9190 14.4863 0.0001 0.0000 0.0000
# 2 25.9190 70.7670 14.4863 -0.0001 0.0000 0.0000
# 3 14.4863 14.4863 65.4840 0.0000 0.0000 0.0000
# 4 0.0001 -0.0001 0.0000 15.2039 0.0000 0.0000
# 5 0.0000 0.0000 0.0000 0.0000 15.2039 0.0001
# 6 0.0000 0.0000 0.0000 0.0000 0.0001 22.4240
#
#
#
# Elastic Compliance Matrix: (Units=1/GPa)
#
#
# Indices 1 2 3 4 5 6 
#
# 1 0.016687 -0.005610 -0.002450 0.000000 0.000000 0.000000
# 2 -0.005610 0.016687 -0.002450 0.000000 0.000000 0.000000
# 3 -0.002450 -0.002450 0.016355 0.000000 0.000000 0.000000
# 4 0.000000 0.000000 0.000000 0.065773 0.000000 0.000000
# 5 0.000000 0.000000 0.000000 0.000000 0.065773 0.000000
# 6 0.000000 0.000000 0.000000 0.000000 0.000000 0.044595
#
#
# Mechanical properties :
#
#
# Convention : Reuss Voigt Hill
#
# Bulk Modulus (GPa) = 34.83425 35.20013 35.01719
# Shear Modulus (GPa) = 19.49611 20.70812 20.10211
#
# Velocity S-wave (km/s) = 3.27963 3.38004 3.33021
# Velocity P-wave (km/s) = 5.79304 5.88666 5.84004
#
# Compressibility (1/GPa) = 0.02870738
#
# Stress axis : x y z
#
# Youngs Moduli (GPa) = 59.92582 59.92582 61.14313
#
# Poissons Ratio (x) = 0.33620 0.14983
# Poissons Ratio (y) = 0.33620 0.14983
# Poissons Ratio (z) = 0.14684 0.14684
#
# Static dielectric constant tensor:
#      x y z
#    x 3.338090 0.000000 0.000000 
#    y 0.000000 3.338090 0.000000 
#    z 0.000000 0.000000 3.305160 
# 
# 
# High freq. dielectric constant tensor:
#      x y z
#    x 1.687000 0.000000 0.000000 
#    y 0.000000 1.687000 0.000000 
#    z 0.000000 0.000000 1.705880 
# 
# From -- ./inp_files/590.got.cif
#   From: 2010.03.12/outbox.cif.g09.slc.cpg/sg147_cif.got.tgz:590.got - 2010.04.03 13:37:56.
