data_PCOD8321372
_publ_section_title
;
Structure prediction by ZEFSAII (Michael W. Deem and Ramdas Pophale) SiO2 
 PCOD8321372
Probable space group: P 31
;
_chemical_formula_sum "Si O2"
_cell_formula_units_Z 24
_cell_length_a 9.154433
_cell_length_b 9.154433
_cell_length_c 14.877789
_cell_angle_alpha 90.000000
_cell_angle_beta 90.000000
_cell_angle_gamma 120.000000
_cell_volume 1079.771668
_symmetry_space_group_name_H-M "P 31"
_symmetry_group_IT_number 144
_symmetry_cell_setting 'hexagonal'
loop_
_space_group_symop_operation_xyz
x,y,z
-y,x-y,1/3+z
-x+y,-x,2/3+z
loop_
_atom_site_type_symbol
_atom_site_label
_atom_site_fract_x
_atom_site_fract_y
_atom_site_fract_z
Si Si1 0.342706 0.733422 0.930150
Si Si2 0.326996 0.305862 0.528534
Si Si3 0.607992 0.403604 0.395380
Si Si4 0.423766 0.159341 0.088017
Si Si5 0.254235 0.168225 0.721574
Si Si6 0.978268 0.666884 0.918783
Si Si7 0.068738 0.945301 0.048629
Si Si8 0.142211 0.619025 0.454252
O O1 0.328188 0.567833 0.882540
O O2 0.175421 0.737409 0.904652
O O3 0.501657 0.894503 0.887636
O O4 0.363192 0.735256 0.038635
O O5 0.480366 0.304243 0.476425
O O6 0.286881 0.191110 0.615248
O O7 0.159493 0.232023 0.468282
O O8 0.709754 0.305499 0.370446
O O9 0.736988 0.596219 0.426357
O O10 0.504780 0.403385 0.308890
O O11 0.371620 0.255167 0.159024
O O12 0.264951 0.067627 0.019611
O O13 0.452268 0.017899 0.134746
O O14 0.252019 0.327727 0.766106
O O15 0.071995 0.009045 0.741292
O O16 0.961910 0.815355 0.969387
#
# Coordination Sequence:
#
# PCOD8321372 Si02
#       8
#     3   3   3   3   3   3   3   3
#     4  11  21  43  69  97 131 186 228 274 338 419
#     4  10  21  41  66  91 140 174 218 284 334 410
#     4  10  23  43  65  96 136 179 222 276 350 411
#     4  11  22  44  64  99 133 176 224 283 342 406
#     4  10  23  39  66  99 132 170 224 285 339 400
#     4  11  24  40  68  93 133 180 223 276 346 409
#     4  11  22  42  65  98 130 174 225 279 345 399
#     4  10  22  42  69  97 135 177 228 281 346 408
#
# _framework density 22.22692
#
# number of rings (size 3 to 8) (size 9 to 14) (size 15 to 20)
#    0.000    1.500    2.500    2.250    3.500    3.000 
#    0.000    1.250    0.000    0.000    0.000    0.000 
#    0.000    0.000    0.000    0.000    0.000    0.000 
#
# Total GULP energy -297587.888536 kJ/mol
# GULP energy per Si atom -12399.495356 kJ/mol
# Density = 2.217633 g / cm^3
# Si number density = 22.226920 Si / 1000 Ang^3
#
#
#
# Elastic Constant Matrix: (Units=GPa)
#
#
# Indices 1 2 3 4 5 6 
#
# 1 112.0885 43.6056 17.5051 0.9970 4.0745 0.0000
# 2 43.6056 112.0885 17.5051 -0.9970 -4.0745 0.0000
# 3 17.5051 17.5051 52.5250 0.0000 0.0000 0.0000
# 4 0.9970 -0.9970 0.0000 26.4282 0.0000 -4.0745
# 5 4.0745 -4.0745 0.0000 0.0000 26.4282 0.9970
# 6 0.0000 0.0000 0.0000 -4.0745 0.9970 34.2414
#
#
#
# Elastic Compliance Matrix: (Units=1/GPa)
#
#
# Indices 1 2 3 4 5 6 
#
# 1 0.010917 -0.003974 -0.002314 -0.000562 -0.002296 0.000000
# 2 -0.003974 0.010917 -0.002314 0.000562 0.002296 0.000000
# 3 -0.002314 -0.002314 0.020581 0.000000 0.000000 0.000000
# 4 -0.000562 0.000562 0.000000 0.038589 0.000000 0.004592
# 5 -0.002296 0.002296 0.000000 0.000000 0.038589 -0.001124
# 6 0.000000 0.000000 0.000000 0.004592 -0.001124 0.029783
#
#
# Mechanical properties :
#
#
# Convention : Reuss Voigt Hill
#
# Bulk Modulus (GPa) = 39.66462 48.21487 43.93974
# Shear Modulus (GPa) = 28.57392 30.62533 29.59963
#
# Velocity S-wave (km/s) = 3.58935 3.71597 3.65321
# Velocity P-wave (km/s) = 5.92132 6.33643 6.13239
#
# Compressibility (1/GPa) = 0.02521139
#
# Stress axis : x y z
#
# Youngs Moduli (GPa) = 91.59641 91.59641 48.58874
#
# Poissons Ratio (x) = 0.36403 0.11243
# Poissons Ratio (y) = 0.36403 0.11243
# Poissons Ratio (z) = 0.21195 0.21195
#
# Static dielectric constant tensor:
#      x y z
#    x 4.079590 0.000000 0.000000 
#    y 0.000000 4.079590 0.000000 
#    z 0.000000 0.000000 3.893440 
# 
# 
# High freq. dielectric constant tensor:
#      x y z
#    x 1.880060 0.000000 0.000000 
#    y 0.000000 1.880060 0.000000 
#    z 0.000000 0.000000 1.855270 
# 
# From -- ./inp_files/845.got.cif
#   From: 2010.03.12/outbox.cif.g09.slc.cpg/sg144_cif.got.tgz:845.got - 2010.04.03 13:34:42.
