data_PCOD8321339
_publ_section_title
;
Structure prediction by ZEFSAII (Michael W. Deem and Ramdas Pophale) SiO2 
 PCOD8321339
Probable space group: P 3
;
_chemical_formula_sum "Si O2"
_cell_formula_units_Z 18
_cell_length_a 10.820589
_cell_length_b 10.820589
_cell_length_c 8.582285
_cell_angle_alpha 90.000000
_cell_angle_beta 90.000000
_cell_angle_gamma 120.000000
_cell_volume 870.232637
_symmetry_space_group_name_H-M "P 3"
_symmetry_group_IT_number 143
_symmetry_cell_setting 'hexagonal'
loop_
_space_group_symop_operation_xyz
x,y,z
-y,x-y,z
-x+y,-x,z
loop_
_atom_site_type_symbol
_atom_site_label
_atom_site_fract_x
_atom_site_fract_y
_atom_site_fract_z
Si Si1 0.370268 0.088860 0.167320
Si Si2 0.755526 0.703601 0.521344
Si Si3 0.722229 0.944324 0.649488
Si Si4 0.161804 0.359555 0.947902
Si Si5 0.944438 0.555429 0.039176
Si Si6 0.026219 0.495137 0.740761
O O1 0.333333 0.098585 0.344332
O O2 0.391767 0.227268 0.078565
O O3 0.510550 0.072693 0.165268
O O4 0.240776 0.956391 0.080244
O O5 0.739357 0.843882 0.523396
O O6 0.623059 0.574107 0.608419
O O7 0.893936 0.725104 0.610098
O O8 0.556528 0.907909 0.654438
O O9 0.758356 0.909485 0.822573
O O10 0.315286 0.425426 0.034225
O O11 0.141772 0.475106 0.844331
O O12 0.908309 0.484462 0.866091
#
# Coordination Sequence:
#
# PCOD8321339 Si02
#       6
#     3   3   3   3   3   3
#     4  11  25  43  69 104 139 183 223 282 353 402
#     4  11  25  43  69 104 139 183 223 282 353 402
#     4  10  23  45  68  96 142 173 233 281 328 414
#     4   9  22  44  68  97 129 183 234 276 330 405
#     4  10  23  45  68  96 142 173 233 281 328 414
#     4   9  22  44  68  97 129 183 234 276 330 405
#
# _framework density 20.684125000000002
#
# number of rings (size 3 to 8) (size 9 to 14) (size 15 to 20)
#    0.000    2.000    0.000    0.667   18.667    0.000 
#   54.000    0.000    0.000    0.000    0.000    0.000 
#    0.000    0.000    0.000    0.000    0.000    0.000 
#
# Total GULP energy -223056.319137 kJ/mol
# GULP energy per Si atom -12392.017730 kJ/mol
# Density = 2.063705 g / cm^3
# Si number density = 20.684125 Si / 1000 Ang^3
#
#
#
# Elastic Constant Matrix: (Units=GPa)
#
#
# Indices 1 2 3 4 5 6 
#
# 1 129.4002 58.1966 52.9328 8.6271 0.0000 0.0000
# 2 58.1966 129.4002 52.9328 -8.6271 0.0000 0.0000
# 3 52.9328 52.9328 104.7395 0.0000 0.0000 0.0000
# 4 8.6271 -8.6271 0.0000 31.3477 0.0000 0.0000
# 5 0.0000 0.0000 0.0000 0.0000 31.3477 8.6271
# 6 0.0000 0.0000 0.0000 0.0000 8.6271 35.6018
#
#
#
# Elastic Compliance Matrix: (Units=1/GPa)
#
#
# Indices 1 2 3 4 5 6 
#
# 1 0.011253 -0.003795 -0.003769 -0.004141 0.000000 0.000000
# 2 -0.003795 0.011253 -0.003769 0.004141 0.000000 0.000000
# 3 -0.003769 -0.003769 0.013357 0.000000 0.000000 0.000000
# 4 -0.004141 0.004141 0.000000 0.034180 0.000000 0.000000
# 5 0.000000 0.000000 0.000000 0.000000 0.034180 -0.008282
# 6 0.000000 0.000000 0.000000 0.000000 -0.008282 0.030095
#
#
# Mechanical properties :
#
#
# Convention : Reuss Voigt Hill
#
# Bulk Modulus (GPa) = 75.77793 76.85158 76.31476
# Shear Modulus (GPa) = 30.98258 32.95798 31.97028
#
# Velocity S-wave (km/s) = 3.87446 3.99607 3.93573
# Velocity P-wave (km/s) = 7.53197 7.65029 7.59136
#
# Compressibility (1/GPa) = 0.01319645
#
# Stress axis : x y z
#
# Youngs Moduli (GPa) = 88.86859 88.86859 74.86824
#
# Poissons Ratio (x) = 0.33727 0.28216
# Poissons Ratio (y) = 0.33727 0.28216
# Poissons Ratio (z) = 0.33493 0.33493
#
# Static dielectric constant tensor:
#      x y z
#    x 3.881700 0.000000 0.000000 
#    y 0.000000 3.881700 0.000000 
#    z 0.000000 0.000000 3.692730 
# 
# 
# High freq. dielectric constant tensor:
#      x y z
#    x 1.808720 0.000000 0.000000 
#    y 0.000000 1.808720 0.000000 
#    z 0.000000 0.000000 1.802940 
# 
# From -- ./inp_files/184.got.cif
#   From: 2010.03.12/outbox.cif.g09.slc.cpg/sg143_cif.got.tgz:184.got - 2010.04.03 13:34:35.
