data_PCOD8321971
_publ_section_title
;
Structure prediction by ZEFSAII (Michael W. Deem and Ramdas Pophale) SiO2 
 PCOD8321971
Probable space group: P 31 1 2
;
_chemical_formula_sum "Si O2"
_cell_formula_units_Z 30
_cell_length_a 11.304329
_cell_length_b 11.304329
_cell_length_c 12.261426
_cell_angle_alpha 90.000000
_cell_angle_beta 90.000000
_cell_angle_gamma 120.000000
_cell_volume 1356.941705
_symmetry_space_group_name_H-M "P 31 1 2"
_symmetry_group_IT_number 151
_symmetry_cell_setting 'hexagonal'
loop_
_space_group_symop_operation_xyz
x,y,z
-y,x-y,1/3+z
-x+y,-x,2/3+z
-y,-x,2/3-z
-x+y,y,1/3-z
x,x-y,-z
loop_
_atom_site_type_symbol
_atom_site_label
_atom_site_fract_x
_atom_site_fract_y
_atom_site_fract_z
Si Si1 0.246088 0.011397 0.826074
Si Si2 0.133238 0.466573 0.333335
Si Si3 0.901348 0.579418 0.492742
Si Si4 0.601859 0.954879 0.710181
Si Si5 0.621552 0.686355 0.043511
O O1 0.333337 0.166664 0.872032
O O2 0.281849 0.017171 0.698750
O O3 0.076814 0.923187 0.833334
O O4 0.299461 0.926954 0.893950
O O5 0.278729 0.487130 0.365965
O O6 0.153794 0.612067 0.300712
O O7 0.039162 0.406370 0.439380
O O8 0.820285 0.410143 0.500000
O O9 0.931339 0.615184 0.365419
O O10 0.508565 0.017129 0.666667
O O11 0.658471 0.991806 0.833335
O O12 0.683804 0.841902 0.000000
#
# Coordination Sequence:
#
# PCOD8321971 Si02
#       5
#     6   6   6   6   6
#     4  10  22  40  62  89 123 170 216 264 321 396
#     4  10  20  36  62  88 120 160 200 264 318 394
#     4  10  22  40  62  89 123 170 216 264 321 396
#     4  11  21  36  61  92 124 151 198 265 332 388
#     4  11  21  36  61  92 124 151 198 265 332 388
#
# _framework density 22.108540000000001
#
# number of rings (size 3 to 8) (size 9 to 14) (size 15 to 20)
#    0.000    1.600    4.000    1.200    0.000    2.400 
#    0.000    8.000    0.000    0.000    0.000    0.000 
#    0.000    0.000    0.000    0.000    0.000    0.000 
#
# Total GULP energy -371644.019813 kJ/mol
# GULP energy per Si atom -12388.133994 kJ/mol
# Density = 2.205822 g / cm^3
# Si number density = 22.108540 Si / 1000 Ang^3
#
#
#
# Elastic Constant Matrix: (Units=GPa)
#
#
# Indices 1 2 3 4 5 6 
#
# 1 80.6585 26.5651 10.0123 0.0000 -0.0003 0.0000
# 2 26.5651 80.6585 10.0123 0.0000 0.0003 0.0000
# 3 10.0123 10.0123 159.6651 0.0000 0.0000 0.0000
# 4 0.0000 0.0000 0.0000 15.9559 0.0000 0.0003
# 5 -0.0003 0.0003 0.0000 0.0000 15.9559 0.0000
# 6 0.0000 0.0000 0.0000 0.0003 0.0000 27.0467
#
#
#
# Elastic Compliance Matrix: (Units=1/GPa)
#
#
# Indices 1 2 3 4 5 6 
#
# 1 0.013962 -0.004525 -0.000592 0.000000 0.000000 0.000000
# 2 -0.004525 0.013962 -0.000592 0.000000 0.000000 0.000000
# 3 -0.000592 -0.000592 0.006337 0.000000 0.000000 0.000000
# 4 0.000000 0.000000 0.000000 0.062673 0.000000 -0.000001
# 5 0.000000 0.000000 0.000000 0.000000 0.062673 0.000000
# 6 0.000000 0.000000 0.000000 -0.000001 0.000000 0.036973
#
#
# Mechanical properties :
#
#
# Convention : Reuss Voigt Hill
#
# Bulk Modulus (GPa) = 43.77534 46.01794 44.89664
# Shear Modulus (GPa) = 23.18995 30.08452 26.63724
#
# Velocity S-wave (km/s) = 3.24221 3.69286 3.47485
# Velocity P-wave (km/s) = 5.81885 6.24841 6.03745
#
# Compressibility (1/GPa) = 0.02284391
#
# Stress axis : x y z
#
# Youngs Moduli (GPa) = 71.62459 71.62459 157.79521
#
# Poissons Ratio (x) = 0.32409 0.09338
# Poissons Ratio (y) = 0.32409 0.09338
# Poissons Ratio (z) = 0.04239 0.04239
#
# Static dielectric constant tensor:
#      x y z
#    x 3.820630 0.000000 0.000000 
#    y 0.000000 3.820630 0.000000 
#    z 0.000000 0.000000 4.197930 
# 
# 
# High freq. dielectric constant tensor:
#      x y z
#    x 1.841610 0.000000 0.000000 
#    y 0.000000 1.841610 0.000000 
#    z 0.000000 0.000000 1.892140 
# 
# From -- ./inp_files/2814.got.cif
#   From: 2010.03.12/outbox.cif.g09.slc.cpg/sg151_2_cif.got.tgz:2814.got - 2010.04.03 13:42:29.
