data_PCOD8321998
_publ_section_title
;
Structure prediction by ZEFSAII (Michael W. Deem and Ramdas Pophale) SiO2 
 PCOD8321998
Probable space group: P 31 1 2
;
_chemical_formula_sum "Si O2"
_cell_formula_units_Z 48
_cell_length_a 11.170952
_cell_length_b 11.170952
_cell_length_c 19.863852
_cell_angle_alpha 90.000000
_cell_angle_beta 90.000000
_cell_angle_gamma 120.000000
_cell_volume 2146.715410
_symmetry_space_group_name_H-M "P 31 1 2"
_symmetry_group_IT_number 151
_symmetry_cell_setting 'hexagonal'
loop_
_space_group_symop_operation_xyz
x,y,z
-y,x-y,1/3+z
-x+y,-x,2/3+z
-y,-x,2/3-z
-x+y,y,1/3-z
x,x-y,-z
loop_
_atom_site_type_symbol
_atom_site_label
_atom_site_fract_x
_atom_site_fract_y
_atom_site_fract_z
Si Si1 0.143180 0.740041 0.395406
Si Si2 0.214860 0.869983 0.763793
Si Si3 0.733914 0.005709 0.319228
Si Si4 0.462550 0.095683 0.492594
Si Si5 0.351831 0.648861 0.408373
Si Si6 0.518683 0.097270 0.333790
Si Si7 0.868167 0.524950 0.943861
Si Si8 0.636159 0.810572 0.200572
O O1 0.158387 0.841614 0.333334
O O2 0.297430 0.758730 0.406619
O O3 0.104671 0.788434 0.463679
O O4 0.032637 0.586960 0.375972
O O5 0.135130 0.864871 0.833334
O O6 0.307491 0.799868 0.781903
O O7 0.102766 0.766191 0.711953
O O8 0.309952 0.024830 0.732786
O O9 0.894416 0.105585 0.333334
O O10 0.660645 0.099907 0.314955
O O11 0.737142 0.921866 0.254047
O O12 0.421246 0.210623 0.500000
O O13 0.489812 0.078478 0.414094
O O14 0.599959 0.139679 0.536776
O O15 0.331940 0.967895 0.527485
O O16 0.382250 0.617751 0.333334
O O17 0.227933 0.517688 0.445013
O O18 0.512610 0.229008 0.304035
O O19 0.929211 0.464606 0.000000
#
# Coordination Sequence:
#
# PCOD8321998 Si02
#       8
#     6   6   6   6   6   6   6   6
#     4  11  22  40  67 106 142 181 233 301 367 426
#     4  12  24  44  74 107 143 186 245 308 366 433
#     4  12  28  47  69 103 155 198 242 300 370 452
#     4  12  26  45  76 107 144 192 247 305 375 437
#     4  11  20  36  68 108 140 168 226 297 360 415
#     4  12  26  48  69 111 154 194 244 309 373 449
#     4  12  25  45  73 108 144 194 251 303 371 445
#     4  12  23  43  73 105 137 190 243 299 371 435
#
# _framework density 22.359743000000002
#
# number of rings (size 3 to 8) (size 9 to 14) (size 15 to 20)
#    0.000    0.250    6.250    4.125    0.000    2.000 
#    0.000    2.500    0.000    0.000    0.000    0.000 
#    0.000    0.000    0.000    0.000    0.000    0.000 
#
# Total GULP energy -594814.930375 kJ/mol
# GULP energy per Si atom -12391.977716 kJ/mol
# Density = 2.230885 g / cm^3
# Si number density = 22.359743 Si / 1000 Ang^3
#
#
#
# Elastic Constant Matrix: (Units=GPa)
#
#
# Indices 1 2 3 4 5 6 
#
# 1 93.3779 37.9094 44.2644 0.0002 -8.3247 0.0000
# 2 37.9094 93.3779 44.2644 -0.0002 8.3247 0.0000
# 3 44.2644 44.2644 171.7349 0.0000 0.0000 0.0000
# 4 0.0002 -0.0002 0.0000 22.8826 0.0000 8.3247
# 5 -8.3247 8.3247 0.0000 0.0000 22.8826 0.0002
# 6 0.0000 0.0000 0.0000 8.3247 0.0002 27.7343
#
#
#
# Elastic Compliance Matrix: (Units=1/GPa)
#
#
# Indices 1 2 3 4 5 6 
#
# 1 0.014729 -0.005510 -0.002376 0.000000 0.007363 0.000000
# 2 -0.005510 0.014729 -0.002376 0.000000 -0.007363 0.000000
# 3 -0.002376 -0.002376 0.007048 0.000000 0.000000 0.000000
# 4 0.000000 0.000000 0.000000 0.049059 0.000000 -0.014725
# 5 0.007363 -0.007363 0.000000 0.000000 0.049059 0.000000
# 6 0.000000 0.000000 0.000000 -0.014725 0.000000 0.040476
#
#
# Mechanical properties :
#
#
# Convention : Reuss Voigt Hill
#
# Bulk Modulus (GPa) = 62.57293 67.92965 65.25129
# Shear Modulus (GPa) = 24.88183 30.17007 27.52595
#
# Velocity S-wave (km/s) = 3.33948 3.67727 3.51244
# Velocity P-wave (km/s) = 6.55095 6.96247 6.75984
#
# Compressibility (1/GPa) = 0.01598135
#
# Stress axis : x y z
#
# Youngs Moduli (GPa) = 67.89458 67.89458 141.88685
#
# Poissons Ratio (x) = 0.37407 0.33716
# Poissons Ratio (y) = 0.37407 0.33716
# Poissons Ratio (z) = 0.16133 0.16133
#
# Static dielectric constant tensor:
#      x y z
#    x 3.939220 0.000000 0.000000 
#    y 0.000000 3.939220 0.000000 
#    z 0.000000 0.000000 4.620640 
# 
# 
# High freq. dielectric constant tensor:
#      x y z
#    x 1.863250 0.000000 0.000000 
#    y 0.000000 1.863250 0.000000 
#    z 0.000000 0.000000 1.908120 
# 
# From -- ./inp_files/3971.got.cif
#   From: 2010.03.12/outbox.cif.g09.slc.cpg/sg151_2_cif.got.tgz:3971.got - 2010.04.03 13:42:29.
