data_PCOD8321605
_publ_section_title
;
Structure prediction by ZEFSAII (Michael W. Deem and Ramdas Pophale) SiO2 
 PCOD8321605
Probable space group: P -3
;
_chemical_formula_sum "Si O2"
_cell_formula_units_Z 42
_cell_length_a 13.240068
_cell_length_b 13.240068
_cell_length_c 17.311835
_cell_angle_alpha 90.000000
_cell_angle_beta 90.000000
_cell_angle_gamma 120.000000
_cell_volume 2628.174318
_symmetry_space_group_name_H-M "P -3"
_symmetry_group_IT_number 147
_symmetry_cell_setting 'hexagonal'
loop_
_space_group_symop_operation_xyz
x,y,z
-y,x-y,z
-x+y,-x,z
-x,-y,-z
y,-x+y,-z
x-y,x,-z
loop_
_atom_site_type_symbol
_atom_site_label
_atom_site_fract_x
_atom_site_fract_y
_atom_site_fract_z
Si Si1 0.333126 0.434184 0.622221
Si Si2 0.766218 0.999487 0.087767
Si Si3 0.899352 0.565263 0.200285
Si Si4 0.665911 0.565263 0.200285
Si Si5 0.333126 0.898942 0.622221
Si Si6 0.000513 0.233782 0.087767
Si Si7 0.761655 0.000000 0.500000
O O1 0.336084 0.400498 0.710939
O O2 0.236067 0.472134 0.609262
O O3 0.457378 0.542622 0.596561
O O4 0.302199 0.319147 0.573714
O O5 0.677753 0.009581 0.145829
O O6 0.897558 0.102442 0.100729
O O7 0.762346 0.881173 0.109194
O O8 0.725874 1.000000 0.000000
O O9 0.769438 0.538875 0.184555
O O10 0.903677 0.451838 0.176197
O O11 0.935586 0.599502 0.289061
O O12 0.677753 0.668172 0.145828
O O13 0.302199 0.983053 0.573714
O O14 0.776340 0.888170 0.485175
#
# Coordination Sequence:
#
# PCOD8321605 Si02
#       7
#     6   6   6   6   6   6   6
#     4   9  17  30  48  68  88 112 145 185 225 263
#     4   9  17  29  45  65  89 118 152 188 223 259
#     4   9  17  29  46  67  89 113 143 182 226 268
#     4   9  17  29  46  67  89 113 143 182 226 268
#     4   9  17  30  48  68  88 112 145 185 225 263
#     4   9  17  29  45  65  89 118 152 188 223 259
#     4  10  20  32  46  66  94 124 150 178 216 262
#
# _framework density 15.980674
#
# number of rings (size 3 to 8) (size 9 to 14) (size 15 to 20)
#    0.000    2.857    0.000    1.429    0.000    5.143 
#    0.000    0.000    0.000    4.571    0.000    0.000 
#    0.000    0.000    0.000    0.000    0.000    0.000 
#
# Total GULP energy -520808.606760 kJ/mol
# GULP energy per Si atom -12400.204923 kJ/mol
# Density = 1.594430 g / cm^3
# Si number density = 15.980674 Si / 1000 Ang^3
#
#
#
# Elastic Constant Matrix: (Units=GPa)
#
#
# Indices 1 2 3 4 5 6 
#
# 1 109.7867 62.9054 65.9295 1.5597 0.0000 0.0000
# 2 62.9054 109.7867 65.9295 -1.5597 0.0000 0.0000
# 3 65.9295 65.9295 90.3136 0.0000 0.0000 0.0000
# 4 1.5597 -1.5597 0.0000 27.9929 0.0000 0.0000
# 5 0.0000 0.0000 0.0000 0.0000 27.9929 1.5597
# 6 0.0000 0.0000 0.0000 0.0000 1.5597 23.4406
#
#
#
# Elastic Compliance Matrix: (Units=1/GPa)
#
#
# Indices 1 2 3 4 5 6 
#
# 1 0.017247 -0.004163 -0.009551 -0.001193 0.000000 0.000000
# 2 -0.004163 0.017247 -0.009551 0.001193 0.000000 0.000000
# 3 -0.009551 -0.009551 0.025017 0.000000 0.000000 0.000000
# 4 -0.001193 0.001193 0.000000 0.035856 0.000000 0.000000
# 5 0.000000 0.000000 0.000000 0.000000 0.035856 -0.002386
# 6 0.000000 0.000000 0.000000 0.000000 -0.002386 0.042820
#
#
# Mechanical properties :
#
#
# Convention : Reuss Voigt Hill
#
# Bulk Modulus (GPa) = 77.04182 77.71286 77.37734
# Shear Modulus (GPa) = 22.23225 23.56012 22.89618
#
# Velocity S-wave (km/s) = 3.73392 3.84381 3.78926
# Velocity P-wave (km/s) = 8.17946 8.27253 8.22613
#
# Compressibility (1/GPa) = 0.01297996
#
# Stress axis : x y z
#
# Youngs Moduli (GPa) = 57.98277 57.98277 39.97318
#
# Poissons Ratio (x) = 0.24140 0.38177
# Poissons Ratio (y) = 0.24140 0.38177
# Poissons Ratio (z) = 0.55378 0.55378
#
# Static dielectric constant tensor:
#      x y z
#    x 2.987360 0.000000 0.000000 
#    y 0.000000 2.987360 0.000000 
#    z 0.000000 0.000000 3.118640 
# 
# 
# High freq. dielectric constant tensor:
#      x y z
#    x 1.608730 0.000000 0.000000 
#    y 0.000000 1.608730 0.000000 
#    z 0.000000 0.000000 1.617410 
# 
# From -- ./inp_files/1023.got.cif
#   From: 2010.03.12/outbox.cif.g09.slc.cpg/sg147_cif.got.tgz:1023.got - 2010.04.03 13:37:56.
