data_PCOD8321537
_publ_section_title
;
Structure prediction by ZEFSAII (Michael W. Deem and Ramdas Pophale) SiO2 
 PCOD8321537
Probable space group: R 3
;
_chemical_formula_sum "Si O2"
_cell_formula_units_Z 45
_cell_length_a 12.805427
_cell_length_b 12.805427
_cell_length_c 14.033448
_cell_angle_alpha 90.000000
_cell_angle_beta 90.000000
_cell_angle_gamma 120.000000
_cell_volume 1992.889187
_symmetry_space_group_name_H-M "R 3"
_symmetry_group_IT_number 146
_symmetry_cell_setting 'hexagonal'
loop_
_space_group_symop_operation_xyz
x,y,z
-y,x-y,z
-x+y,-x,z
2/3+x,1/3+y,1/3+z
2/3-y,1/3+x-y,1/3+z
2/3-x+y,1/3-x,1/3+z
1/3+x,2/3+y,2/3+z
1/3-y,2/3+x-y,2/3+z
1/3-x+y,2/3-x,2/3+z
loop_
_atom_site_type_symbol
_atom_site_label
_atom_site_fract_x
_atom_site_fract_y
_atom_site_fract_z
Si Si1 0.725831 0.240025 0.639960
Si Si2 0.236977 0.231569 0.972441
Si Si3 0.233745 0.997104 0.959076
Si Si4 0.313674 0.240525 0.501418
Si Si5 0.085634 0.432114 0.123012
O O1 0.804478 0.387930 0.636090
O O2 0.754875 0.186214 0.548727
O O3 0.772845 0.216165 0.742424
O O4 0.205235 0.097780 0.000886
O O5 0.348976 0.287961 0.898208
O O6 0.119380 0.228020 0.927238
O O7 0.281933 0.320130 0.062563
O O8 0.317147 0.055250 0.868081
O O9 0.300639 0.966111 0.039311
O O10 0.218102 0.096879 0.497492
#
# Coordination Sequence:
#
# PCOD8321537 Si02
#       5
#     9   9   9   9   9
#     4  10  23  38  69  93 128 166 221 263 326 383
#     4  11  26  40  67  96 131 179 216 272 324 395
#     4  11  24  42  65  93 135 169 222 264 336 383
#     4  11  24  43  65  98 132 168 228 263 332 383
#     4  11  23  43  64  98 130 174 213 278 326 390
#
# _framework density 22.580282
#
# number of rings (size 3 to 8) (size 9 to 14) (size 15 to 20)
#    0.400    0.800    2.000    4.000   11.200    0.000 
#    0.000    0.000    0.000    0.000    0.000    0.000 
#    0.000    0.000    0.000    0.000    0.000    0.000 
#
# Total GULP energy -185948.442731 kJ/mol
# GULP energy per Si atom -12396.562849 kJ/mol
# Density = 2.252889 g / cm^3
# Si number density = 22.580282 Si / 1000 Ang^3
#
#
#
# Elastic Constant Matrix: (Units=GPa)
#
#
# Indices 1 2 3 4 5 6 
#
# 1 70.8700 -0.6382 1.4501 -4.7885 1.8626 0.0000
# 2 -0.6382 70.8700 1.4501 4.7885 -1.8626 0.0000
# 3 1.4501 1.4501 67.1597 0.0000 0.0000 0.0000
# 4 -4.7885 4.7885 0.0000 34.0436 0.0000 -1.8626
# 5 1.8626 -1.8626 0.0000 0.0000 34.0436 -4.7885
# 6 0.0000 0.0000 0.0000 -1.8626 -4.7885 35.7541
#
#
#
# Elastic Compliance Matrix: (Units=1/GPa)
#
#
# Indices 1 2 3 4 5 6 
#
# 1 0.014273 -0.000022 -0.000308 0.002011 -0.000782 0.000000
# 2 -0.000022 0.014273 -0.000308 -0.002011 0.000782 0.000000
# 3 -0.000308 -0.000308 0.014903 0.000000 0.000000 0.000000
# 4 0.002011 -0.002011 0.000000 0.030025 0.000000 0.001564
# 5 -0.000782 0.000782 0.000000 0.000000 0.030025 0.004021
# 6 0.000000 0.000000 0.000000 0.001564 0.004021 0.028589
#
#
# Mechanical properties :
#
#
# Convention : Reuss Voigt Hill
#
# Bulk Modulus (GPa) = 23.71082 23.71376 23.71229
# Shear Modulus (GPa) = 33.91653 34.54408 34.23030
#
# Velocity S-wave (km/s) = 3.87982 3.91555 3.89773
# Velocity P-wave (km/s) = 5.53120 5.56479 5.54802
#
# Compressibility (1/GPa) = 0.04217484
#
# Stress axis : x y z
#
# Youngs Moduli (GPa) = 70.06306 70.06306 67.09981
#
# Poissons Ratio (x) = 0.00151 0.02065
# Poissons Ratio (y) = 0.00151 0.02065
# Poissons Ratio (z) = 0.02156 0.02156
#
# Static dielectric constant tensor:
#      x y z
#    x 4.249980 0.000000 0.000000 
#    y 0.000000 4.249980 0.000000 
#    z 0.000000 0.000000 4.046400 
# 
# 
# High freq. dielectric constant tensor:
#      x y z
#    x 1.900640 0.000000 0.000000 
#    y 0.000000 1.900640 0.000000 
#    z 0.000000 0.000000 1.887970 
# 
# From -- ./inp_files/1069.got.cif
#   From: 2010.06.25/outbox.cif.g09.slc.cpg/sg146_cif.got.tgz:1069.got - 2010.06.28 11:17:22.
