data_PCOD8321784
_publ_section_title
;
Structure prediction by ZEFSAII (Michael W. Deem and Ramdas Pophale) SiO2 
 PCOD8321784
Probable space group: R -3
;
_chemical_formula_sum "Si O2"
_cell_formula_units_Z 120
_cell_length_a 16.514586
_cell_length_b 16.514586
_cell_length_c 28.896133
_cell_angle_alpha 90.000000
_cell_angle_beta 90.000000
_cell_angle_gamma 120.000000
_cell_volume 6825.048488
_symmetry_space_group_name_H-M "R -3"
_symmetry_group_IT_number 148
_symmetry_cell_setting 'hexagonal'
loop_
_space_group_symop_operation_xyz
x,y,z
-y,x-y,z
-x+y,-x,z
-x,-y,-z
y,-x+y,-z
x-y,x,-z
2/3+x,1/3+y,1/3+z
2/3-y,1/3+x-y,1/3+z
2/3-x+y,1/3-x,1/3+z
2/3-x,1/3-y,1/3-z
2/3+y,1/3-x+y,1/3-z
2/3+x-y,1/3+x,1/3-z
1/3+x,2/3+y,2/3+z
1/3-y,2/3+x-y,2/3+z
1/3-x+y,2/3-x,2/3+z
1/3-x,2/3-y,2/3-z
1/3+y,2/3-x+y,2/3-z
1/3+x-y,2/3+x,2/3-z
loop_
_atom_site_type_symbol
_atom_site_label
_atom_site_fract_x
_atom_site_fract_y
_atom_site_fract_z
Si Si1 0.875176 0.432278 0.050655
Si Si2 0.097054 0.714446 0.008431
Si Si3 0.774919 0.725153 0.337702
Si Si4 0.507766 0.014599 0.864930
Si Si5 0.666668 0.333334 0.607380
Si Si6 0.000000 0.000000 0.382523
Si Si7 0.283895 0.403692 0.117293
Si Si8 0.501046 0.319818 0.905842
O O1 0.891243 0.370782 0.012076
O O2 0.890965 0.527133 0.027151
O O3 0.773622 0.376823 0.075052
O O4 0.944077 0.453759 0.093704
O O5 0.180152 0.811827 0.987122
O O6 0.097542 0.716849 0.063705
O O7 0.995101 0.699204 0.996025
O O8 0.794048 0.751916 0.390949
O O9 0.427424 0.042604 0.862274
O O10 0.532301 0.985309 0.814689
O O11 0.606556 0.109141 0.870774
O O12 0.666668 0.333334 0.661942
O O13 0.895247 0.931245 0.399195
O O14 0.259642 0.487801 0.120902
#
# Coordination Sequence:
#
# PCOD8321784 Si02
#       8
#    18  18  18  18   6   6  18  18
#     4  12  21  36  59  85 117 153 192 239 285 343
#     4  11  22  37  59  86 119 151 193 244 289 340
#     4  11  21  34  56  86 117 148 192 240 284 330
#     4  12  22  33  51  76 119 157 193 225 280 349
#     4  12  21  36  57  85 112 144 192 244 295 324
#     4  12  18  27  49  82 111 147 186 216 268 355
#     4  11  22  33  49  78 118 162 186 223 285 351
#     4  11  20  29  48  77 115 154 183 218 269 341
#
# _framework density 17.582293
#
# number of rings (size 3 to 8) (size 9 to 14) (size 15 to 20)
#    0.000    0.600    9.000    2.250    0.000    0.000 
#    0.000    1.500    0.000    7.500    0.000    0.000 
#    0.000    0.000    0.000    0.000    0.000    0.000 
#
# Total GULP energy -495522.477650 kJ/mol
# GULP energy per Si atom -12388.061941 kJ/mol
# Density = 1.754228 g / cm^3
# Si number density = 17.582293 Si / 1000 Ang^3
#
#
#
# Elastic Constant Matrix: (Units=GPa)
#
#
# Indices 1 2 3 4 5 6 
#
# 1 90.9488 41.9405 31.9594 6.2352 -3.0746 -0.0003
# 2 41.9405 90.9492 31.9589 -6.2354 3.0747 0.0000
# 3 31.9594 31.9589 94.2350 0.0001 -0.0002 -0.0002
# 4 6.2352 -6.2354 0.0001 29.6656 0.0000 3.0744
# 5 -3.0746 3.0747 -0.0002 0.0000 29.6655 6.2354
# 6 -0.0003 0.0000 -0.0002 3.0744 6.2354 24.5041
#
#
#
# Elastic Compliance Matrix: (Units=1/GPa)
#
#
# Indices 1 2 3 4 5 6 
#
# 1 0.015425 -0.006433 -0.003050 -0.004594 0.002265 0.000000
# 2 -0.006433 0.015425 -0.003049 0.004594 -0.002265 0.000000
# 3 -0.003050 -0.003049 0.012680 0.000000 0.000000 0.000000
# 4 -0.004594 0.004594 0.000000 0.036110 0.000000 -0.004530
# 5 0.002265 -0.002265 0.000000 0.000000 0.036110 -0.009189
# 6 0.000000 0.000000 0.000000 -0.004530 -0.009189 0.043716
#
#
# Mechanical properties :
#
#
# Convention : Reuss Voigt Hill
#
# Bulk Modulus (GPa) = 54.15417 54.20565 54.17991
# Shear Modulus (GPa) = 26.22119 28.11865 27.16992
#
# Velocity S-wave (km/s) = 3.86598 4.00341 3.93530
# Velocity P-wave (km/s) = 7.12706 7.22955 7.17849
#
# Compressibility (1/GPa) = 0.01846580
#
# Stress axis : x y z
#
# Youngs Moduli (GPa) = 64.83015 64.83062 78.86304
#
# Poissons Ratio (x) = 0.41706 0.24050
# Poissons Ratio (y) = 0.41705 0.24049
# Poissons Ratio (z) = 0.19771 0.19770
#
# Static dielectric constant tensor:
#      x y z
#    x 3.228760 0.000000 0.000000 
#    y 0.000000 3.228750 0.000000 
#    z 0.000000 0.000000 3.359640 
# 
# 
# High freq. dielectric constant tensor:
#      x y z
#    x 1.657910 0.000000 0.000000 
#    y 0.000000 1.657910 0.000000 
#    z 0.000000 0.000000 1.680170 
# 
# From -- ./inp_files/3750.got.cif
#   From: 2010.03.12/outbox.cif.g09.slc.cpg/sg148_2_cif.got.tgz:3750.got - 2010.04.03 13:38:46.
