data_PCOD8321179
_publ_section_title
;
Structure prediction by ZEFSAII (Michael W. Deem and Ramdas Pophale) SiO2 
 PCOD8321179
Probable space group: I 41/A C D
;
_chemical_formula_sum "Si O2"
_cell_formula_units_Z 176
_cell_length_a 16.462824
_cell_length_b 16.462824
_cell_length_c 27.490116
_cell_angle_alpha 90.000000
_cell_angle_beta 90.000000
_cell_angle_gamma 90.000000
_cell_volume 7450.496980
_symmetry_space_group_name_H-M "I 41/A C D"
_symmetry_group_IT_number 142
_space_group.IT_coordinate_system_code '2'
_symmetry_cell_setting 'tetragonal'
loop_
_space_group_symop_operation_xyz
x,y,z
1/4-y,3/4+x,1/4+z
-x,1/2-y,z
1/4+y,1/4-x,3/4+z
x,-y,1/2-z
1/2-x,y,-z
3/4+y,1/4+x,1/4-z
1/4-y,1/4-x,1/4-z
-x,-y,-z
3/4+y,1/4-x,3/4-z
x,1/2+y,-z
3/4-y,3/4+x,1/4-z
-x,y,1/2+z
1/2+x,-y,z
1/4-y,3/4-x,3/4+z
3/4+y,3/4+x,3/4+z
1/2+x,1/2+y,1/2+z
3/4-y,1/4+x,3/4+z
1/2-x,-y,1/2+z
3/4+y,3/4-x,1/4+z
1/2+x,1/2-y,-z
-x,1/2+y,1/2-z
1/4+y,3/4+x,3/4-z
3/4-y,3/4-x,3/4-z
1/2-x,1/2-y,1/2-z
1/4+y,3/4-x,1/4-z
1/2+x,y,1/2-z
1/4-y,1/4+x,3/4-z
1/2-x,1/2+y,z
x,1/2-y,1/2+z
3/4-y,1/4-x,1/4+z
1/4+y,1/4+x,1/4+z
loop_
_atom_site_type_symbol
_atom_site_label
_atom_site_fract_x
_atom_site_fract_y
_atom_site_fract_z
Si Si1 0.051250 0.500000 0.750000
Si Si2 0.391003 0.311904 0.143032
Si Si3 0.138593 0.842044 0.982894
Si Si4 0.320340 0.412375 0.427728
Si Si5 0.341971 0.777948 0.747869
Si Si6 0.718891 0.407284 0.574046
O O1 0.103596 0.499901 0.800293
O O2 0.998233 0.417072 0.748502
O O3 0.391680 0.225749 0.115136
O O4 0.377485 0.297962 0.199672
O O5 0.316816 0.364720 0.121893
O O6 0.191579 0.870641 0.936341
O O7 0.042461 0.851213 0.973186
O O8 0.157818 0.898502 0.028886
O O9 0.359412 0.390589 0.375000
O O10 0.392035 0.406093 0.466048
O O11 0.274673 0.497028 0.419752
O O12 0.250000 0.750000 0.750000
#
# Coordination Sequence:
#
# PCOD8321179 Si02
#       6
#    16  32  32  32  32  32
#     4  10  26  46  78 102 152 202 256 308 368 470
#     4  11  24  41  75 112 148 199 265 322 374 447
#     4  10  23  46  74 104 151 199 251 309 379 456
#     4  12  28  47  75 111 156 199 253 312 395 459
#     4  12  26  47  76 111 157 197 252 321 385 460
#     4  10  22  45  73 105 144 194 258 304 376 452
#
# _framework density 23.622585999999998
#
# number of rings (size 3 to 8) (size 9 to 14) (size 15 to 20)
#    0.000    1.273    3.636    1.091    7.636    3.636 
#    0.000    3.636    0.000    0.000    0.000    0.000 
#    0.000    0.000    0.000    0.000    0.000    0.000 
#
# Total GULP energy -1090952.785426 kJ/mol
# GULP energy per Si atom -12397.190743 kJ/mol
# Density = 2.356882 g / cm^3
# Si number density = 23.622586 Si / 1000 Ang^3
#
#
#
# Elastic Constant Matrix: (Units=GPa)
#
#
# Indices 1 2 3 4 5 6 
#
# 1 136.8012 61.0619 61.3623 0.0000 0.0000 0.0000
# 2 61.0619 136.8013 61.3623 0.0000 0.0000 0.0000
# 3 61.3623 61.3623 130.3263 0.0000 0.0000 0.0000
# 4 0.0000 0.0000 0.0000 37.4602 0.0000 0.0000
# 5 0.0000 0.0000 0.0000 0.0000 37.4602 0.0000
# 6 0.0000 0.0000 0.0000 0.0000 0.0000 26.1164
#
#
#
# Elastic Compliance Matrix: (Units=1/GPa)
#
#
# Indices 1 2 3 4 5 6 
#
# 1 0.010171 -0.003032 -0.003361 0.000000 0.000000 0.000000
# 2 -0.003032 0.010171 -0.003361 0.000000 0.000000 0.000000
# 3 -0.003361 -0.003361 0.010838 0.000000 0.000000 0.000000
# 4 0.000000 0.000000 0.000000 0.026695 0.000000 0.000000
# 5 0.000000 0.000000 0.000000 0.000000 0.026695 0.000000
# 6 0.000000 0.000000 0.000000 0.000000 0.000000 0.038290
#
#
# Mechanical properties :
#
#
# Convention : Reuss Voigt Hill
#
# Bulk Modulus (GPa) = 85.68265 85.72242 85.70254
# Shear Modulus (GPa) = 34.18576 34.88352 34.53464
#
# Velocity S-wave (km/s) = 3.80829 3.84696 3.82767
# Velocity P-wave (km/s) = 7.46242 7.48994 7.47619
#
# Compressibility (1/GPa) = 0.01167097
#
# Stress axis : x y z
#
# Youngs Moduli (GPa) = 98.31898 98.31910 92.26638
#
# Poissons Ratio (x) = 0.29812 0.31013
# Poissons Ratio (y) = 0.29812 0.31012
# Poissons Ratio (z) = 0.33047 0.33047
#
# Static dielectric constant tensor:
#      x y z
#    x 4.753440 0.000000 0.000000 
#    y 0.000000 4.753460 0.000000 
#    z 0.000000 0.000000 4.573390 
# 
# 
# High freq. dielectric constant tensor:
#      x y z
#    x 1.939430 0.000000 0.000000 
#    y 0.000000 1.939430 0.000000 
#    z 0.000000 0.000000 1.931920 
# 
# From -- ./inp_files/11487.got.cif
#   From: 2010.03.12/outbox.cif.g09.slc.cpg/sg142_6_cif.got.tgz:11487.got - 2010.04.03 13:27:16.
