data_PCOD8321487
_publ_section_title
;
Structure prediction by ZEFSAII (Michael W. Deem and Ramdas Pophale) SiO2 
 PCOD8321487
Probable space group: P 32
;
_chemical_formula_sum "Si O2"
_cell_formula_units_Z 21
_cell_length_a 9.311105
_cell_length_b 9.311105
_cell_length_c 10.908205
_cell_angle_alpha 90.000000
_cell_angle_beta 90.000000
_cell_angle_gamma 120.000000
_cell_volume 819.004657
_symmetry_space_group_name_H-M "P 32"
_symmetry_group_IT_number 145
_symmetry_cell_setting 'hexagonal'
loop_
_space_group_symop_operation_xyz
x,y,z
-y,x-y,2/3+z
-x+y,-x,1/3+z
loop_
_atom_site_type_symbol
_atom_site_label
_atom_site_fract_x
_atom_site_fract_y
_atom_site_fract_z
Si Si1 0.356562 0.563042 0.057510
Si Si2 0.146503 0.846133 0.745091
Si Si3 0.556133 0.881964 0.461514
Si Si4 0.926052 0.454165 0.761006
Si Si5 0.118049 0.888950 0.479514
Si Si6 0.458021 0.124571 0.366960
Si Si7 0.017569 0.205059 0.666977
O O1 0.554424 0.660139 0.070350
O O2 0.277587 0.683669 0.059239
O O3 0.261831 0.421917 0.161320
O O4 0.292706 0.451104 0.936868
O O5 0.121965 0.944350 0.858975
O O6 0.049931 0.649913 0.766135
O O7 0.093055 0.912718 0.624601
O O8 0.731778 0.917967 0.410249
O O9 0.547666 0.047379 0.444826
O O10 0.921113 0.371903 0.891745
O O11 0.749418 0.429298 0.720565
O O12 0.973031 0.352828 0.665477
O O13 0.957704 0.830732 0.396357
O O14 0.270170 0.054160 0.419214
#
# Coordination Sequence:
#
# PCOD8321487 Si02
#       7
#     3   3   3   3   3   3   3
#     4  11  20  42  79 112 151 207 270 317 382 478
#     4  12  23  47  81 116 156 213 265 320 399 485
#     4  11  21  44  80 109 147 206 265 318 391 477
#     4  12  26  50  80 114 157 200 263 332 392 474
#     4  11  27  49  75 120 167 195 260 346 391 463
#     4  11  26  53  75 109 160 204 255 333 397 459
#     4  12  25  47  84 116 154 211 266 316 410 478
#
# _framework density 25.640879999999999
#
# number of rings (size 3 to 8) (size 9 to 14) (size 15 to 20)
#    0.000    0.571    5.714    4.286    0.000    1.143 
#   12.857    0.000    6.286    0.000    0.000    0.000 
#    0.000    0.000    0.000    0.000    0.000    0.000 
#
# Total GULP energy -260440.371151 kJ/mol
# GULP energy per Si atom -12401.922436 kJ/mol
# Density = 2.558252 g / cm^3
# Si number density = 25.640880 Si / 1000 Ang^3
#
#
#
# Elastic Constant Matrix: (Units=GPa)
#
#
# Indices 1 2 3 4 5 6 
#
# 1 85.9357 28.3979 25.6673 -0.7324 0.3382 0.0000
# 2 28.3979 85.9357 25.6673 0.7324 -0.3382 0.0000
# 3 25.6673 25.6673 162.3946 0.0000 0.0000 0.0000
# 4 -0.7324 0.7324 0.0000 33.3009 0.0000 -0.3382
# 5 0.3382 -0.3382 0.0000 0.0000 33.3009 -0.7324
# 6 0.0000 0.0000 0.0000 -0.3382 -0.7324 28.7689
#
#
#
# Elastic Compliance Matrix: (Units=1/GPa)
#
#
# Indices 1 2 3 4 5 6 
#
# 1 0.013403 -0.003989 -0.001488 0.000383 -0.000177 0.000000
# 2 -0.003989 0.013403 -0.001488 -0.000383 0.000177 0.000000
# 3 -0.001488 -0.001488 0.006628 0.000000 0.000000 0.000000
# 4 0.000383 -0.000383 0.000000 0.030050 0.000000 0.000353
# 5 -0.000177 0.000177 0.000000 0.000000 0.030050 0.000765
# 6 0.000000 0.000000 0.000000 0.000353 0.000765 0.034783
#
#
# Mechanical properties :
#
#
# Convention : Reuss Voigt Hill
#
# Bulk Modulus (GPa) = 51.26869 54.85900 53.06385
# Shear Modulus (GPa) = 33.61389 36.04301 34.82845
#
# Velocity S-wave (km/s) = 3.62463 3.75331 3.68953
# Velocity P-wave (km/s) = 6.12826 6.34230 6.23620
#
# Compressibility (1/GPa) = 0.01950508
#
# Stress axis : x y z
#
# Youngs Moduli (GPa) = 74.60979 74.60979 150.87019
#
# Poissons Ratio (x) = 0.29759 0.22450
# Poissons Ratio (y) = 0.29759 0.22450
# Poissons Ratio (z) = 0.11102 0.11102
#
# Static dielectric constant tensor:
#      x y z
#    x 4.720420 0.000000 0.000000 
#    y 0.000000 4.720420 0.000000 
#    z 0.000000 0.000000 4.666880 
# 
# 
# High freq. dielectric constant tensor:
#      x y z
#    x 2.026590 0.000000 0.000000 
#    y 0.000000 2.026590 0.000000 
#    z 0.000000 0.000000 2.033360 
# 
# From -- ./inp_files/643.got.cif
#   From: 2010.03.12/outbox.cif.g09.slc.cpg/sg145_cif.got.tgz:643.got - 2010.04.03 13:35:35.
