data_PCOD8321269
_publ_section_title
;
Structure prediction by ZEFSAII (Michael W. Deem and Ramdas Pophale) SiO2 
 PCOD8321269
Probable space group: I 41/A C D
;
_chemical_formula_sum "Si O2"
_cell_formula_units_Z 136
_cell_length_a 15.205557
_cell_length_b 15.205557
_cell_length_c 25.696590
_cell_angle_alpha 90.000000
_cell_angle_beta 90.000000
_cell_angle_gamma 90.000000
_cell_volume 5941.281944
_symmetry_space_group_name_H-M "I 41/A C D"
_symmetry_group_IT_number 142
_space_group.IT_coordinate_system_code '2'
_symmetry_cell_setting 'tetragonal'
loop_
_space_group_symop_operation_xyz
x,y,z
1/4-y,3/4+x,1/4+z
-x,1/2-y,z
1/4+y,1/4-x,3/4+z
x,-y,1/2-z
1/2-x,y,-z
3/4+y,1/4+x,1/4-z
1/4-y,1/4-x,1/4-z
-x,-y,-z
3/4+y,1/4-x,3/4-z
x,1/2+y,-z
3/4-y,3/4+x,1/4-z
-x,y,1/2+z
1/2+x,-y,z
1/4-y,3/4-x,3/4+z
3/4+y,3/4+x,3/4+z
1/2+x,1/2+y,1/2+z
3/4-y,1/4+x,3/4+z
1/2-x,-y,1/2+z
3/4+y,3/4-x,1/4+z
1/2+x,1/2-y,-z
-x,1/2+y,1/2-z
1/4+y,3/4+x,3/4-z
3/4-y,3/4-x,3/4-z
1/2-x,1/2-y,1/2-z
1/4+y,3/4-x,1/4-z
1/2+x,y,1/2-z
1/4-y,1/4+x,3/4-z
1/2-x,1/2+y,z
x,1/2-y,1/2+z
3/4-y,1/4-x,1/4+z
1/4+y,1/4+x,1/4+z
loop_
_atom_site_type_symbol
_atom_site_label
_atom_site_fract_x
_atom_site_fract_y
_atom_site_fract_z
Si Si1 0.773670 0.624858 0.135598
Si Si2 0.921003 0.408697 0.774744
Si Si3 0.000000 0.750000 0.875000
Si Si4 0.154362 0.374631 0.481967
Si Si5 0.011040 0.093121 0.546135
O O1 0.695551 0.554450 0.125000
O O2 0.828219 0.655034 0.085585
O O3 0.850093 0.587958 0.171803
O O4 0.737422 0.708942 0.167585
O O5 0.891872 0.500000 0.750000
O O6 0.863480 0.332654 0.748585
O O7 0.021608 0.384554 0.762337
O O8 0.918120 0.752770 0.837665
O O9 0.250000 0.402407 0.500000
O O10 0.080390 0.427115 0.515791
#
# Coordination Sequence:
#
# PCOD8321269 Si02
#       5
#    32  32   8  32  32
#     4  12  27  44  74 103 145 196 234 305 375 428
#     4  11  23  47  72 104 142 189 249 298 361 437
#     4  12  20  44  80 106 132 196 244 272 354 444
#     4  11  28  46  69 109 144 187 246 305 358 444
#     4  12  24  48  75 105 147 192 242 303 365 440
#
# _framework density 22.890684
#
# number of rings (size 3 to 8) (size 9 to 14) (size 15 to 20)
#    0.000    0.471    5.882    0.706    9.882    1.882 
#    0.000    0.000    0.000    0.000    0.000    0.000 
#    0.000    0.000    0.000    0.000    0.000    0.000 
#
# Total GULP energy -842907.240340 kJ/mol
# GULP energy per Si atom -12395.694711 kJ/mol
# Density = 2.283858 g / cm^3
# Si number density = 22.890684 Si / 1000 Ang^3
#
#
#
# Elastic Constant Matrix: (Units=GPa)
#
#
# Indices 1 2 3 4 5 6 
#
# 1 81.7639 36.7573 54.5439 0.0000 0.0000 0.0000
# 2 36.7573 81.7643 54.5442 0.0000 0.0000 0.0000
# 3 54.5439 54.5442 195.9750 0.0000 0.0000 0.0000
# 4 0.0000 0.0000 0.0000 50.2341 0.0000 0.0000
# 5 0.0000 0.0000 0.0000 0.0000 50.2347 0.0000
# 6 0.0000 0.0000 0.0000 0.0000 0.0000 -11.3783
#
#
#
# Elastic Compliance Matrix: (Units=1/GPa)
#
#
# Indices 1 2 3 4 5 6 
#
# 1 0.016781 -0.005438 -0.003157 0.000000 0.000000 0.000000
# 2 -0.005438 0.016781 -0.003157 0.000000 0.000000 0.000000
# 3 -0.003157 -0.003157 0.006860 0.000000 0.000000 0.000000
# 4 0.000000 0.000000 0.000000 0.019907 0.000000 0.000000
# 5 0.000000 0.000000 0.000000 0.000000 0.019907 0.000000
# 6 0.000000 0.000000 0.000000 0.000000 0.000000 -0.087886
#
#
# Mechanical properties :
#
#
# Convention : Reuss Voigt Hill
#
# Bulk Modulus (GPa) = 59.10847 72.35488 65.73167
# Shear Modulus (GPa) = 232.64240 32.06194 132.35217
#
# Velocity S-wave (km/s) = 10.09220 3.74659 7.61214
# Velocity P-wave (km/s) = 12.71540 7.09883 10.29745
#
# Compressibility (1/GPa) = 0.01691805
#
# Stress axis : x y z
#
# Youngs Moduli (GPa) = 59.59125 59.59151 145.77220
#
# Poissons Ratio (x) = 0.32405 0.46020
# Poissons Ratio (y) = 0.32405 0.46021
# Poissons Ratio (z) = 0.18813 0.18813
#
# Static dielectric constant tensor:
#      x y z
#    x 4.091590 0.000000 0.000000 
#    y 0.000000 4.091590 0.000000 
#    z 0.000000 0.000000 4.481710 
# 
# 
# High freq. dielectric constant tensor:
#      x y z
#    x 1.906290 0.000000 0.000000 
#    y 0.000000 1.906290 0.000000 
#    z 0.000000 0.000000 1.929510 
# 
# From -- ./inp_files/8770.got.cif
#   From: 2010.03.12/outbox.cif.g09.slc.cpg/sg142_5_cif.got.tgz:8770.got - 2010.04.03 13:27:16.
