data_PCOD8321553
_publ_section_title
;
Structure prediction by ZEFSAII (Michael W. Deem and Ramdas Pophale) SiO2 
 PCOD8321553
Probable space group: R 3
;
_chemical_formula_sum "Si O2"
_cell_formula_units_Z 54
_cell_length_a 10.649244
_cell_length_b 10.649244
_cell_length_c 21.025740
_cell_angle_alpha 90.000000
_cell_angle_beta 90.000000
_cell_angle_gamma 120.000000
_cell_volume 2064.997248
_symmetry_space_group_name_H-M "R 3"
_symmetry_group_IT_number 146
_symmetry_cell_setting 'hexagonal'
loop_
_space_group_symop_operation_xyz
x,y,z
-y,x-y,z
-x+y,-x,z
2/3+x,1/3+y,1/3+z
2/3-y,1/3+x-y,1/3+z
2/3-x+y,1/3-x,1/3+z
1/3+x,2/3+y,2/3+z
1/3-y,2/3+x-y,2/3+z
1/3-x+y,2/3-x,2/3+z
loop_
_atom_site_type_symbol
_atom_site_label
_atom_site_fract_x
_atom_site_fract_y
_atom_site_fract_z
Si Si1 0.227199 0.328129 0.582840
Si Si2 0.899070 0.227199 0.585296
Si Si3 0.951523 0.818126 0.785336
Si Si4 0.484792 0.199937 0.716133
Si Si5 0.924966 0.596486 0.384143
Si Si6 0.408367 0.070180 0.450660
O O1 0.257561 0.198527 0.568693
O O2 0.279586 0.436430 0.524156
O O3 0.317062 0.423737 0.643315
O O4 0.059034 0.257562 0.599443
O O5 0.843155 0.279584 0.643979
O O6 0.893324 0.317061 0.524821
O O7 0.934471 0.693485 0.732075
O O8 0.841882 0.882695 0.775667
O O9 0.625853 0.175215 0.725802
O O10 0.360152 0.092347 0.769395
O O11 0.934871 0.483824 0.431321
O O12 0.784378 0.601533 0.403482
#
# Coordination Sequence:
#
# PCOD8321553 Si02
#       6
#     9   9   9   9   9   9
#     4  12  27  46  74 106 144 183 237 291 349 416
#     4  12  27  46  74 106 144 183 237 291 349 416
#     4  10  26  48  74  98 146 188 230 282 362 416
#     4  10  26  48  74  98 146 188 230 282 362 416
#     4  12  27  46  74 106 144 183 237 291 349 416
#     4  12  27  46  74 106 144 183 237 291 349 416
#
# _framework density 26.150157
#
# number of rings (size 3 to 8) (size 9 to 14) (size 15 to 20)
#    0.667    0.000    3.333    2.667    9.333    5.333 
#    0.000    0.000    0.000    0.000    0.000    0.000 
#    0.000    0.000    0.000    0.000    0.000    0.000 
#
# Total GULP energy -223300.597343 kJ/mol
# GULP energy per Si atom -12405.588741 kJ/mol
# Density = 2.609064 g / cm^3
# Si number density = 26.150157 Si / 1000 Ang^3
#
#
#
# Elastic Constant Matrix: (Units=GPa)
#
#
# Indices 1 2 3 4 5 6 
#
# 1 76.4922 34.3193 3.3744 -0.3833 0.3951 0.0000
# 2 34.3193 76.4922 3.3744 0.3833 -0.3951 0.0000
# 3 3.3744 3.3744 147.5870 0.0000 0.0000 0.0000
# 4 -0.3833 0.3833 0.0000 49.1491 0.0000 -0.3951
# 5 0.3951 -0.3951 0.0000 0.0000 49.1491 -0.3833
# 6 0.0000 0.0000 0.0000 -0.3951 -0.3833 21.0864
#
#
#
# Elastic Compliance Matrix: (Units=1/GPa)
#
#
# Indices 1 2 3 4 5 6 
#
# 1 0.016378 -0.007341 -0.000207 0.000185 -0.000191 0.000000
# 2 -0.007341 0.016378 -0.000207 -0.000185 0.000191 0.000000
# 3 -0.000207 -0.000207 0.006785 0.000000 0.000000 0.000000
# 4 0.000185 -0.000185 0.000000 0.020352 0.000000 0.000381
# 5 -0.000191 0.000191 0.000000 0.000000 0.020352 0.000370
# 6 0.000000 0.000000 0.000000 0.000381 0.000370 0.047438
#
#
# Mechanical properties :
#
#
# Convention : Reuss Voigt Hill
#
# Bulk Modulus (GPa) = 41.61035 42.52305 42.06670
# Shear Modulus (GPa) = 33.06827 41.17712 37.12269
#
# Velocity S-wave (km/s) = 3.55991 3.97248 3.77184
# Velocity P-wave (km/s) = 5.73096 6.11042 5.92373
#
# Compressibility (1/GPa) = 0.02403248
#
# Stress axis : x y z
#
# Youngs Moduli (GPa) = 61.05789 61.05789 147.38148
#
# Poissons Ratio (x) = 0.44822 0.03045
# Poissons Ratio (y) = 0.44822 0.03045
# Poissons Ratio (z) = 0.01262 0.01262
#
# Static dielectric constant tensor:
#      x y z
#    x 5.460960 0.000000 0.000000 
#    y 0.000000 5.460960 0.000000 
#    z 0.000000 0.000000 4.447640 
# 
# 
# High freq. dielectric constant tensor:
#      x y z
#    x 2.105290 0.000000 0.000000 
#    y 0.000000 2.105290 0.000000 
#    z 0.000000 0.000000 2.041220 
# 
# From -- ./inp_files/1977.got.cif
#   From: 2010.06.25/outbox.cif.g09.slc.cpg/sg146_cif.got.tgz:1977.got - 2010.06.28 11:17:22.
