data_PCOD8321692
_publ_section_title
;
Structure prediction by ZEFSAII (Michael W. Deem and Ramdas Pophale) SiO2 
 PCOD8321692
Probable space group: R -3
;
_chemical_formula_sum "Si O2"
_cell_formula_units_Z 108
_cell_length_a 17.372350
_cell_length_b 17.372350
_cell_length_c 22.223468
_cell_angle_alpha 90.000000
_cell_angle_beta 90.000000
_cell_angle_gamma 120.000000
_cell_volume 5808.441300
_symmetry_space_group_name_H-M "R -3"
_symmetry_group_IT_number 148
_symmetry_cell_setting 'hexagonal'
loop_
_space_group_symop_operation_xyz
x,y,z
-y,x-y,z
-x+y,-x,z
-x,-y,-z
y,-x+y,-z
x-y,x,-z
2/3+x,1/3+y,1/3+z
2/3-y,1/3+x-y,1/3+z
2/3-x+y,1/3-x,1/3+z
2/3-x,1/3-y,1/3-z
2/3+y,1/3-x+y,1/3-z
2/3+x-y,1/3+x,1/3-z
1/3+x,2/3+y,2/3+z
1/3-y,2/3+x-y,2/3+z
1/3-x+y,2/3-x,2/3+z
1/3-x,2/3-y,2/3-z
1/3+y,2/3-x+y,2/3-z
1/3+x-y,2/3+x,2/3-z
loop_
_atom_site_type_symbol
_atom_site_label
_atom_site_fract_x
_atom_site_fract_y
_atom_site_fract_z
Si Si1 0.387028 0.979365 0.104404
Si Si2 0.487665 0.172109 0.560449
Si Si3 0.449185 0.972120 0.305472
Si Si4 0.683913 0.509098 0.071671
Si Si5 0.721695 0.685435 0.315000
Si Si6 0.204119 0.869759 0.154966
O O1 0.418765 0.084305 0.104673
O O2 0.310206 0.930170 0.154193
O O3 0.469507 0.964802 0.121122
O O4 0.350221 0.938597 0.039291
O O5 0.576545 0.165838 0.554194
O O6 0.513491 0.260932 0.598661
O O7 0.409962 0.084130 0.592541
O O8 0.440343 0.171775 0.496753
O O9 0.385090 0.874945 0.336312
O O10 0.540062 0.014318 0.344359
O O11 0.473204 0.970571 0.236329
O O12 0.404148 0.032538 0.309608
#
# Coordination Sequence:
#
# PCOD8321692 Si02
#       6
#    18  18  18  18  18  18
#     4   9  19  32  49  75 101 130 166 203 246 293
#     4  10  19  32  52  74  99 131 165 205 250 292
#     4   9  18  33  50  72  99 129 166 203 243 294
#     4   9  19  33  50  73 101 131 166 203 246 296
#     4   9  18  33  52  73  98 132 167 201 245 298
#     4  10  19  31  49  74 100 128 164 205 248 288
#
# _framework density 18.593629
#
# number of rings (size 3 to 8) (size 9 to 14) (size 15 to 20)
#    0.000    2.667    0.000    1.333    0.000    8.000 
#    0.000    8.333    0.000    0.667    0.000    0.000 
#    0.000    0.000    0.000    0.000    0.000    0.000 
#
# Total GULP energy -445990.464030 kJ/mol
# GULP energy per Si atom -12388.624001 kJ/mol
# Density = 1.855131 g / cm^3
# Si number density = 18.593629 Si / 1000 Ang^3
#
#
#
# Elastic Constant Matrix: (Units=GPa)
#
#
# Indices 1 2 3 4 5 6 
#
# 1 109.8758 51.6616 28.9727 -5.8338 4.3106 0.0000
# 2 51.6616 109.8758 28.9727 5.8338 -4.3106 0.0000
# 3 28.9727 28.9727 56.6800 0.0000 0.0000 0.0000
# 4 -5.8338 5.8338 0.0000 22.3227 0.0000 -4.3106
# 5 4.3106 -4.3106 0.0000 0.0000 22.3227 -5.8338
# 6 0.0000 0.0000 0.0000 -4.3106 -5.8338 29.1071
#
#
#
# Elastic Compliance Matrix: (Units=1/GPa)
#
#
# Indices 1 2 3 4 5 6 
#
# 1 0.013136 -0.005556 -0.003875 0.004885 -0.003609 0.000000
# 2 -0.005556 0.013136 -0.003875 -0.004885 0.003609 0.000000
# 3 -0.003875 -0.003875 0.021604 0.000000 0.000000 0.000000
# 4 0.004885 -0.004885 0.000000 0.048745 0.000000 0.007219
# 5 -0.003609 0.003609 0.000000 0.000000 0.048745 0.009770
# 6 0.000000 0.000000 0.000000 0.007219 0.009770 0.037383
#
#
# Mechanical properties :
#
#
# Convention : Reuss Voigt Hill
#
# Bulk Modulus (GPa) = 47.02386 55.07172 51.04779
# Shear Modulus (GPa) = 23.10031 25.87218 24.48624
#
# Velocity S-wave (km/s) = 3.52856 3.73427 3.63287
# Velocity P-wave (km/s) = 6.47659 6.94809 6.71648
#
# Compressibility (1/GPa) = 0.02126580
#
# Stress axis : x y z
#
# Youngs Moduli (GPa) = 76.12678 76.12678 46.28719
#
# Poissons Ratio (x) = 0.42292 0.17936
# Poissons Ratio (y) = 0.42292 0.17936
# Poissons Ratio (z) = 0.29498 0.29498
#
# Static dielectric constant tensor:
#      x y z
#    x 3.534150 0.000000 0.000000 
#    y 0.000000 3.534150 0.000000 
#    z 0.000000 0.000000 3.345420 
# 
# 
# High freq. dielectric constant tensor:
#      x y z
#    x 1.720920 0.000000 0.000000 
#    y 0.000000 1.720920 0.000000 
#    z 0.000000 0.000000 1.701980 
# 
# From -- ./inp_files/3097.got.cif
#   From: 2010.03.12/outbox.cif.g09.slc.cpg/sg148_2_cif.got.tgz:3097.got - 2010.04.03 13:38:46.
