data_PCOD8321843
_publ_section_title
;
Structure prediction by ZEFSAII (Michael W. Deem and Ramdas Pophale) SiO2 
 PCOD8321843
Probable space group: P 3 1 2
;
_chemical_formula_sum "Si O2"
_cell_formula_units_Z 48
_cell_length_a 12.516372
_cell_length_b 12.516372
_cell_length_c 20.723906
_cell_angle_alpha 90.000000
_cell_angle_beta 90.000000
_cell_angle_gamma 120.000000
_cell_volume 2811.636484
_symmetry_space_group_name_H-M "P 3 1 2"
_symmetry_group_IT_number 149
_symmetry_cell_setting 'hexagonal'
loop_
_space_group_symop_operation_xyz
x,y,z
-y,x-y,z
-x+y,-x,z
-y,-x,-z
-x+y,y,-z
x,x-y,-z
loop_
_atom_site_type_symbol
_atom_site_label
_atom_site_fract_x
_atom_site_fract_y
_atom_site_fract_z
Si Si1 0.418674 0.334076 0.242936
Si Si2 0.247954 0.997674 0.360355
Si Si3 0.665366 0.082320 1.000000
Si Si4 0.001610 0.241327 0.500000
Si Si5 0.581829 0.665021 0.121569
Si Si6 0.334979 0.916808 0.878431
Si Si7 0.002326 0.250281 0.639645
Si Si8 0.418674 0.334077 0.757063
O O1 0.344335 0.358539 0.187955
O O2 0.357165 0.332061 0.311244
O O3 0.560587 0.439412 0.245006
O O4 0.412398 0.206199 0.227495
O O5 0.124260 0.875740 0.337671
O O6 0.291172 0.976865 0.431971
O O7 0.219145 0.109573 0.362305
O O8 0.357166 0.025105 0.311244
O O9 0.657675 0.004999 0.062895
O O10 0.794358 0.205643 0.000000
O O11 0.559151 0.118301 0.000000
O O12 0.657676 0.005000 0.937104
O O13 0.861779 0.138222 0.500000
O O14 0.091679 0.183357 0.500000
O O15 0.023135 0.314307 0.568029
O O16 0.592905 0.796452 0.117533
O O17 0.438783 0.561217 0.117048
O O18 0.641460 0.655665 0.187956
#
# Coordination Sequence:
#
# PCOD8321843 Si02
#       8
#     6   6   6   6   6   6   6   6
#     4  10  20  33  49  68  93 126 162 199 236 279
#     4   9  16  27  45  69  95 121 151 190 237 286
#     4  10  20  34  54  78 104 134 166 198 228 266
#     4   8  13  22  39  64  92 120 150 186 230 280
#     4  10  20  34  53  75  98 124 156 197 242 285
#     4  10  20  34  53  75  98 124 156 197 242 285
#     4   9  16  27  45  69  95 121 151 190 237 286
#     4  10  20  33  49  68  93 126 162 199 236 279
#
# _framework density 17.071909000000002
#
# number of rings (size 3 to 8) (size 9 to 14) (size 15 to 20)
#    0.000    2.500    0.000    2.875    0.000    2.000 
#    0.000    4.375    0.000    9.000    0.000    1.750 
#    0.000    0.000    0.000    0.000    0.000    0.000 
#
# Total GULP energy -594956.214700 kJ/mol
# GULP energy per Si atom -12394.921140 kJ/mol
# Density = 1.703305 g / cm^3
# Si number density = 17.071909 Si / 1000 Ang^3
#
#
#
# Elastic Constant Matrix: (Units=GPa)
#
#
# Indices 1 2 3 4 5 6 
#
# 1 93.4491 55.8345 53.7624 0.0000 -0.0005 0.0000
# 2 55.8345 93.4491 53.7624 0.0000 0.0005 0.0000
# 3 53.7624 53.7624 134.3237 0.0000 0.0000 0.0000
# 4 0.0000 0.0000 0.0000 32.2425 0.0000 0.0005
# 5 -0.0005 0.0005 0.0000 0.0000 32.2425 0.0000
# 6 0.0000 0.0000 0.0000 0.0005 0.0000 18.8073
#
#
#
# Elastic Compliance Matrix: (Units=1/GPa)
#
#
# Indices 1 2 3 4 5 6 
#
# 1 0.017999 -0.008587 -0.003767 0.000000 0.000000 0.000000
# 2 -0.008587 0.017999 -0.003767 0.000000 0.000000 0.000000
# 3 -0.003767 -0.003767 0.010460 0.000000 0.000000 0.000000
# 4 0.000000 0.000000 0.000000 0.031015 0.000000 -0.000001
# 5 0.000000 0.000000 0.000000 0.000000 0.031015 0.000000
# 6 0.000000 0.000000 0.000000 -0.000001 0.000000 0.053171
#
#
# Mechanical properties :
#
#
# Convention : Reuss Voigt Hill
#
# Bulk Modulus (GPa) = 70.34425 71.99341 71.16883
# Shear Modulus (GPa) = 25.17132 27.18265 26.17698
#
# Velocity S-wave (km/s) = 3.84399 3.99462 3.92003
# Velocity P-wave (km/s) = 7.80998 7.97109 7.89095
#
# Compressibility (1/GPa) = 0.01421580
#
# Stress axis : x y z
#
# Youngs Moduli (GPa) = 55.55953 55.55953 95.60020
#
# Poissons Ratio (x) = 0.47707 0.36014
# Poissons Ratio (y) = 0.47707 0.36014
# Poissons Ratio (z) = 0.20930 0.20930
#
# Static dielectric constant tensor:
#      x y z
#    x 2.982100 0.000000 0.000000 
#    y 0.000000 2.982100 0.000000 
#    z 0.000000 0.000000 3.648270 
# 
# 
# High freq. dielectric constant tensor:
#      x y z
#    x 1.642170 0.000000 0.000000 
#    y 0.000000 1.642170 0.000000 
#    z 0.000000 0.000000 1.684450 
# 
# From -- ./inp_files/1146.got.cif
#   From: 2010.03.12/outbox.cif.g09.slc.cpg/sg149_cif.got.tgz:1146.got - 2010.04.03 13:40:41.
