data_PCOD8321392
_publ_section_title
;
Structure prediction by ZEFSAII (Michael W. Deem and Ramdas Pophale) SiO2 
 PCOD8321392
Probable space group: P 31
;
_chemical_formula_sum "Si O2"
_cell_formula_units_Z 18
_cell_length_a 6.949869
_cell_length_b 6.949869
_cell_length_c 20.240410
_cell_angle_alpha 90.000000
_cell_angle_beta 90.000000
_cell_angle_gamma 120.000000
_cell_volume 846.648560
_symmetry_space_group_name_H-M "P 31"
_symmetry_group_IT_number 144
_symmetry_cell_setting 'hexagonal'
loop_
_space_group_symop_operation_xyz
x,y,z
-y,x-y,1/3+z
-x+y,-x,2/3+z
loop_
_atom_site_type_symbol
_atom_site_label
_atom_site_fract_x
_atom_site_fract_y
_atom_site_fract_z
Si Si1 0.779879 0.720495 0.758190
Si Si2 0.720491 0.779871 0.506688
Si Si3 0.381735 0.621581 0.615116
Si Si4 0.760152 0.378419 0.316430
Si Si5 0.522847 0.947407 0.727980
Si Si6 0.477158 0.424565 0.870233
O O1 0.791608 0.605439 0.690175
O O2 0.741766 0.928124 0.742874
O O3 0.581384 0.526797 0.799927
O O4 0.000007 0.805183 0.799104
O O5 0.605441 0.791607 0.574704
O O6 0.526788 0.581373 0.464953
O O7 0.928121 0.741759 0.522004
O O8 0.402357 0.402356 0.632439
O O9 0.364849 0.736036 0.682327
O O10 0.167854 0.565954 0.573282
O O11 0.601900 0.434048 0.358265
O O12 0.628808 0.263963 0.249220
#
# Coordination Sequence:
#
# PCOD8321392 Si02
#       6
#     3   3   3   3   3   3
#     4  11  23  40  64  94 127 166 216 262 317 384
#     4  11  23  40  64  94 127 166 216 262 317 384
#     4  10  23  40  63  92 131 166 213 266 317 382
#     4  10  23  40  63  92 131 166 213 266 317 382
#     4  11  22  42  63  95 129 167 215 264 319 380
#     4  11  22  42  63  95 129 167 215 264 319 380
#
# _framework density 21.260299
#
# number of rings (size 3 to 8) (size 9 to 14) (size 15 to 20)
#    0.000    1.333    3.333    2.000    0.000    4.000 
#    0.000    0.000    0.000    0.000    0.000    0.000 
#    0.000    0.000    0.000    0.000    0.000    0.000 
#
# Total GULP energy -223127.572866 kJ/mol
# GULP energy per Si atom -12395.976270 kJ/mol
# Density = 2.121191 g / cm^3
# Si number density = 21.260299 Si / 1000 Ang^3
#
#
#
# Elastic Constant Matrix: (Units=GPa)
#
#
# Indices 1 2 3 4 5 6 
#
# 1 73.7156 35.0800 11.3681 3.9771 0.0005 0.0000
# 2 35.0800 73.7156 11.3681 -3.9771 -0.0005 0.0000
# 3 11.3681 11.3681 79.3825 0.0000 0.0000 0.0000
# 4 3.9771 -3.9771 0.0000 42.5149 0.0000 -0.0005
# 5 0.0005 -0.0005 0.0000 0.0000 42.5149 3.9771
# 6 0.0000 0.0000 0.0000 -0.0005 3.9771 19.3178
#
#
#
# Elastic Compliance Matrix: (Units=1/GPa)
#
#
# Indices 1 2 3 4 5 6 
#
# 1 0.017933 -0.008458 -0.001357 -0.002469 0.000000 0.000000
# 2 -0.008458 0.017933 -0.001357 0.002469 0.000000 0.000000
# 3 -0.001357 -0.001357 0.012986 0.000000 0.000000 0.000000
# 4 -0.002469 0.002469 0.000000 0.023983 0.000000 0.000001
# 5 0.000000 0.000000 0.000000 0.000000 0.023983 -0.004938
# 6 0.000000 0.000000 0.000000 0.000001 -0.004938 0.052782
#
#
# Mechanical properties :
#
#
# Convention : Reuss Voigt Hill
#
# Bulk Modulus (GPa) = 37.72376 38.04958 37.88667
# Shear Modulus (GPa) = 27.65787 32.13600 29.89694
#
# Velocity S-wave (km/s) = 3.61073 3.89208 3.75405
# Velocity P-wave (km/s) = 5.93005 6.17524 6.05389
#
# Compressibility (1/GPa) = 0.02650849
#
# Stress axis : x y z
#
# Youngs Moduli (GPa) = 55.76271 55.76271 77.00675
#
# Poissons Ratio (x) = 0.47164 0.10449
# Poissons Ratio (y) = 0.47164 0.10449
# Poissons Ratio (z) = 0.07566 0.07566
#
# Static dielectric constant tensor:
#      x y z
#    x 3.879860 0.000000 0.000000 
#    y 0.000000 3.879860 0.000000 
#    z 0.000000 0.000000 4.324660 
# 
# 
# High freq. dielectric constant tensor:
#      x y z
#    x 1.819810 0.000000 0.000000 
#    y 0.000000 1.819810 0.000000 
#    z 0.000000 0.000000 1.865610 
# 
# From -- ./inp_files/999.got.cif
#   From: 2010.03.12/outbox.cif.g09.slc.cpg/sg144_cif.got.tgz:999.got - 2010.04.03 13:34:42.
