data_PCOD8321255
_publ_section_title
;
Structure prediction by ZEFSAII (Michael W. Deem and Ramdas Pophale) SiO2 
 PCOD8321255
Probable space group: I 41/A C D
;
_chemical_formula_sum "Si O2"
_cell_formula_units_Z 64
_cell_length_a 9.520044
_cell_length_b 9.520044
_cell_length_c 31.735533
_cell_angle_alpha 90.000000
_cell_angle_beta 90.000000
_cell_angle_gamma 90.000000
_cell_volume 2876.230637
_symmetry_space_group_name_H-M "I 41/A C D"
_symmetry_group_IT_number 142
_space_group.IT_coordinate_system_code '2'
_symmetry_cell_setting 'tetragonal'
loop_
_space_group_symop_operation_xyz
x,y,z
1/4-y,3/4+x,1/4+z
-x,1/2-y,z
1/4+y,1/4-x,3/4+z
x,-y,1/2-z
1/2-x,y,-z
3/4+y,1/4+x,1/4-z
1/4-y,1/4-x,1/4-z
-x,-y,-z
3/4+y,1/4-x,3/4-z
x,1/2+y,-z
3/4-y,3/4+x,1/4-z
-x,y,1/2+z
1/2+x,-y,z
1/4-y,3/4-x,3/4+z
3/4+y,3/4+x,3/4+z
1/2+x,1/2+y,1/2+z
3/4-y,1/4+x,3/4+z
1/2-x,-y,1/2+z
3/4+y,3/4-x,1/4+z
1/2+x,1/2-y,-z
-x,1/2+y,1/2-z
1/4+y,3/4+x,3/4-z
3/4-y,3/4-x,3/4-z
1/2-x,1/2-y,1/2-z
1/4+y,3/4-x,1/4-z
1/2+x,y,1/2-z
1/4-y,1/4+x,3/4-z
1/2-x,1/2+y,z
x,1/2-y,1/2+z
3/4-y,1/4-x,1/4+z
1/4+y,1/4+x,1/4+z
loop_
_atom_site_type_symbol
_atom_site_label
_atom_site_fract_x
_atom_site_fract_y
_atom_site_fract_z
Si Si1 0.619019 0.051378 0.296393
Si Si2 0.161461 0.141414 0.671930
O O1 0.451190 0.049897 0.301476
O O2 0.678867 0.205664 0.307248
O O3 0.661176 0.000000 0.250000
O O4 0.690001 0.938675 0.327947
O O5 0.098794 0.151207 0.625000
#
# Coordination Sequence:
#
# PCOD8321255 Si02
#       2
#    32  32
#     4  11  23  40  62  90 123 161 205 255 308 367
#     4  11  23  42  63  90 124 163 206 257 309 367
#
# _framework density 22.251346000000002
#
# number of rings (size 3 to 8) (size 9 to 14) (size 15 to 20)
#    0.000    1.000    0.000    9.000    0.000    6.000 
#    0.000    5.000    0.000    0.000    0.000    0.000 
#    0.000    0.000    0.000    0.000    0.000    0.000 
#
# Total GULP energy -396806.585077 kJ/mol
# GULP energy per Si atom -12400.205784 kJ/mol
# Density = 2.220070 g / cm^3
# Si number density = 22.251346 Si / 1000 Ang^3
#
#
#
# Elastic Constant Matrix: (Units=GPa)
#
#
# Indices 1 2 3 4 5 6 
#
# 1 89.2831 64.9419 43.5498 0.0000 0.0000 0.0000
# 2 64.9419 89.2824 43.5498 0.0000 0.0000 0.0000
# 3 43.5498 43.5498 130.4753 0.0000 0.0000 0.0000
# 4 0.0000 0.0000 0.0000 27.2950 0.0000 0.0000
# 5 0.0000 0.0000 0.0000 0.0000 27.2951 0.0000
# 6 0.0000 0.0000 0.0000 0.0000 0.0000 57.7906
#
#
#
# Elastic Compliance Matrix: (Units=1/GPa)
#
#
# Indices 1 2 3 4 5 6 
#
# 1 0.024537 -0.016546 -0.002667 0.000000 0.000000 0.000000
# 2 -0.016546 0.024537 -0.002667 0.000000 0.000000 0.000000
# 3 -0.002667 -0.002667 0.009445 0.000000 0.000000 0.000000
# 4 0.000000 0.000000 0.000000 0.036637 0.000000 0.000000
# 5 0.000000 0.000000 0.000000 0.000000 0.036637 0.000000
# 6 0.000000 0.000000 0.000000 0.000000 0.000000 0.017304
#
#
# Mechanical properties :
#
#
# Convention : Reuss Voigt Hill
#
# Bulk Modulus (GPa) = 67.76332 68.12487 67.94409
# Shear Modulus (GPa) = 25.28125 32.94277 29.11201
#
# Velocity S-wave (km/s) = 3.37436 3.85188 3.62100
# Velocity P-wave (km/s) = 6.76029 7.10388 6.93421
#
# Compressibility (1/GPa) = 0.01475725
#
# Stress axis : x y z
#
# Youngs Moduli (GPa) = 40.75548 40.75508 105.88017
#
# Poissons Ratio (x) = 0.67435 0.28237
# Poissons Ratio (y) = 0.67436 0.28238
# Poissons Ratio (z) = 0.10869 0.10869
#
# Static dielectric constant tensor:
#      x y z
#    x 3.887660 0.000000 0.000000 
#    y 0.000000 3.887660 0.000000 
#    z 0.000000 0.000000 3.905620 
# 
# 
# High freq. dielectric constant tensor:
#      x y z
#    x 1.877950 0.000000 0.000000 
#    y 0.000000 1.877950 0.000000 
#    z 0.000000 0.000000 1.880910 
# 
# From -- ./inp_files/10668.got.cif
#   From: 2010.03.12/outbox.cif.g09.slc.cpg/sg142_6_cif.got.tgz:10668.got - 2010.04.03 13:27:16.
