data_PCOD8321855
_publ_section_title
;
Structure prediction by ZEFSAII (Michael W. Deem and Ramdas Pophale) SiO2 
 PCOD8321855
Probable space group: P 3 1 2
;
_chemical_formula_sum "Si O2"
_cell_formula_units_Z 41
_cell_length_a 8.515173
_cell_length_b 8.515173
_cell_length_c 30.290824
_cell_angle_alpha 90.000000
_cell_angle_beta 90.000000
_cell_angle_gamma 120.000000
_cell_volume 1902.079526
_symmetry_space_group_name_H-M "P 3 1 2"
_symmetry_group_IT_number 149
_symmetry_cell_setting 'hexagonal'
loop_
_space_group_symop_operation_xyz
x,y,z
-y,x-y,z
-x+y,-x,z
-y,-x,-z
-x+y,y,-z
x,x-y,-z
loop_
_atom_site_type_symbol
_atom_site_label
_atom_site_fract_x
_atom_site_fract_y
_atom_site_fract_z
Si Si1 0.328912 0.316547 0.378835
Si Si2 0.641509 0.643349 0.411763
Si Si3 0.327707 0.016371 0.722172
Si Si4 0.653164 0.981853 0.756712
Si Si5 0.449074 0.550927 0.500000
Si Si6 0.036283 0.335961 0.143047
Si Si7 0.366206 0.040539 0.889431
Si Si8 0.666668 0.333334 0.051986
O O1 0.529895 0.489617 0.375777
O O2 0.303621 0.153617 0.410611
O O3 0.305191 0.251312 0.328726
O O4 0.195251 0.379713 0.399803
O O5 0.543970 0.528809 0.456628
O O6 0.126694 0.856059 0.730470
O O7 0.466552 0.947349 0.735013
O O8 0.387300 0.194596 0.751946
O O9 0.632463 0.903269 0.806339
O O10 0.540655 0.770328 0.500000
O O11 0.196034 0.363952 0.108085
O O12 0.967333 0.477069 0.136495
O O13 0.862234 0.137538 0.137206
O O14 0.469827 0.161131 0.933113
O O15 0.666668 0.333334 0.000000
#
# Coordination Sequence:
#
# PCOD8321855 Si02
#       8
#     6   6   6   6   3   6   6   2
#     4  12  24  44  67  95 133 174 214 254 317 381
#     4  12  25  45  73  99 130 167 203 260 316 386
#     4  12  25  40  59  92 127 176 223 267 311 378
#     4  12  24  39  61  88 131 174 224 276 316 366
#     4  10  20  48  72 100 120 146 192 252 318 382
#     4  11  20  38  58  91 124 173 221 275 332 377
#     4  10  22  37  63  91 128 168 221 274 333 402
#     4   9  21  45  69  96 129 168 213 276 345 411
#
# _framework density 21.555354000000001
#
# number of rings (size 3 to 8) (size 9 to 14) (size 15 to 20)
#    0.146    0.585    1.463    7.902    0.000    0.585 
#    0.000    2.927    0.000    0.000    0.000    0.000 
#    0.000    0.000    0.000    0.000    0.000    0.000 
#
# Total GULP energy -507950.520414 kJ/mol
# GULP energy per Si atom -12389.037083 kJ/mol
# Density = 2.150629 g / cm^3
# Si number density = 21.555354 Si / 1000 Ang^3
#
#
#
# Elastic Constant Matrix: (Units=GPa)
#
#
# Indices 1 2 3 4 5 6 
#
# 1 99.7097 17.6529 39.3887 0.0001 -6.4730 0.0000
# 2 17.6529 99.7098 39.3887 0.0001 6.4731 0.0000
# 3 39.3887 39.3887 124.5040 0.0002 0.0001 0.0000
# 4 0.0001 0.0001 0.0002 25.8454 0.0000 6.4731
# 5 -6.4730 6.4731 0.0001 0.0000 25.8454 0.0000
# 6 0.0000 0.0000 0.0000 6.4731 0.0000 41.0284
#
#
#
# Elastic Compliance Matrix: (Units=1/GPa)
#
#
# Indices 1 2 3 4 5 6 
#
# 1 0.011753 -0.000935 -0.003422 0.000000 0.003178 0.000000
# 2 -0.000935 0.011753 -0.003422 0.000000 -0.003178 0.000000
# 3 -0.003422 -0.003422 0.010197 0.000000 0.000000 0.000000
# 4 0.000000 0.000000 0.000000 0.040283 0.000000 -0.006356
# 5 0.003178 -0.003178 0.000000 0.000000 0.040283 0.000000
# 6 0.000000 0.000000 0.000000 -0.006356 0.000000 0.025376
#
#
# Mechanical properties :
#
#
# Convention : Reuss Voigt Hill
#
# Bulk Modulus (GPa) = 55.11641 57.42045 56.26843
# Shear Modulus (GPa) = 31.00710 33.71007 32.35858
#
# Velocity S-wave (km/s) = 3.79685 3.95889 3.87872
# Velocity P-wave (km/s) = 6.69677 6.89880 6.79854
#
# Compressibility (1/GPa) = 0.01814342
#
# Stress axis : x y z
#
# Youngs Moduli (GPa) = 85.08525 85.08529 98.06514
#
# Poissons Ratio (x) = 0.07956 0.33562
# Poissons Ratio (y) = 0.07956 0.33562
# Poissons Ratio (z) = 0.29119 0.29119
#
# Static dielectric constant tensor:
#      x y z
#    x 3.991380 0.000000 0.000000 
#    y 0.000000 3.991380 0.000000 
#    z 0.000000 0.000000 3.668010 
# 
# 
# High freq. dielectric constant tensor:
#      x y z
#    x 1.856390 0.000000 0.000000 
#    y 0.000000 1.856390 0.000000 
#    z 0.000000 0.000000 1.819320 
# 
# From -- ./inp_files/1178.got.cif
#   From: 2010.03.12/outbox.cif.g09.slc.cpg/sg149_cif.got.tgz:1178.got - 2010.04.03 13:40:41.
