data_PCOD8321085
_publ_section_title
;
Structure prediction by ZEFSAII (Michael W. Deem and Ramdas Pophale) SiO2 
 PCOD8321085
Probable space group: I 41/A C D
;
_chemical_formula_sum "Si O2"
_cell_formula_units_Z 144
_cell_length_a 16.903683
_cell_length_b 16.903683
_cell_length_c 23.487078
_cell_angle_alpha 90.000000
_cell_angle_beta 90.000000
_cell_angle_gamma 90.000000
_cell_volume 6711.068464
_symmetry_space_group_name_H-M "I 41/A C D"
_symmetry_group_IT_number 142
_space_group.IT_coordinate_system_code '2'
_symmetry_cell_setting 'tetragonal'
loop_
_space_group_symop_operation_xyz
x,y,z
1/4-y,3/4+x,1/4+z
-x,1/2-y,z
1/4+y,1/4-x,3/4+z
x,-y,1/2-z
1/2-x,y,-z
3/4+y,1/4+x,1/4-z
1/4-y,1/4-x,1/4-z
-x,-y,-z
3/4+y,1/4-x,3/4-z
x,1/2+y,-z
3/4-y,3/4+x,1/4-z
-x,y,1/2+z
1/2+x,-y,z
1/4-y,3/4-x,3/4+z
3/4+y,3/4+x,3/4+z
1/2+x,1/2+y,1/2+z
3/4-y,1/4+x,3/4+z
1/2-x,-y,1/2+z
3/4+y,3/4-x,1/4+z
1/2+x,1/2-y,-z
-x,1/2+y,1/2-z
1/4+y,3/4+x,3/4-z
3/4-y,3/4-x,3/4-z
1/2-x,1/2-y,1/2-z
1/4+y,3/4-x,1/4-z
1/2+x,y,1/2-z
1/4-y,1/4+x,3/4-z
1/2-x,1/2+y,z
x,1/2-y,1/2+z
3/4-y,1/4-x,1/4+z
1/4+y,1/4+x,1/4+z
loop_
_atom_site_type_symbol
_atom_site_label
_atom_site_fract_x
_atom_site_fract_y
_atom_site_fract_z
Si Si1 0.750000 0.935284 0.000000
Si Si2 0.989998 0.862369 0.154841
Si Si3 0.226556 0.808512 0.402963
Si Si4 0.580041 0.542388 0.522669
Si Si5 0.419730 0.222113 0.972555
O O1 0.752349 0.879597 0.055788
O O2 0.667440 0.987171 0.999337
O O3 0.074653 0.829999 0.132050
O O4 0.975033 0.841737 0.220869
O O5 0.991051 0.956533 0.148361
O O6 0.209438 0.840297 0.340413
O O7 0.149709 0.764364 0.427443
O O8 0.500000 0.500000 0.500000
O O9 0.573600 0.632982 0.504579
O O10 0.500000 0.250000 0.941870
#
# Coordination Sequence:
#
# PCOD8321085 Si02
#       5
#    16  32  32  32  32
#     4  10  20  42  62  92 132 182 222 270 350 412
#     4  11  20  35  64  97 128 173 226 274 324 400
#     4  11  22  39  67  95 132 176 219 279 349 406
#     4  11  24  41  66  97 132 177 227 281 344 414
#     4  11  21  41  65  94 127 170 222 273 335 406
#
# _framework density 21.457089
#
# number of rings (size 3 to 8) (size 9 to 14) (size 15 to 20)
#    0.000    1.111    6.667    4.000    0.000    1.778 
#    0.000    2.222    4.889    0.000    0.000    0.000 
#    0.000    0.000    0.000    0.000    0.000    0.000 
#
# Total GULP energy -892178.871847 kJ/mol
# GULP energy per Si atom -12391.373220 kJ/mol
# Density = 2.140825 g / cm^3
# Si number density = 21.457089 Si / 1000 Ang^3
#
#
#
# Elastic Constant Matrix: (Units=GPa)
#
#
# Indices 1 2 3 4 5 6 
#
# 1 135.8520 35.0114 29.7850 0.0000 0.0000 0.0000
# 2 35.0114 135.8520 29.7850 0.0000 0.0000 0.0000
# 3 29.7850 29.7850 141.7113 0.0000 0.0000 0.0000
# 4 0.0000 0.0000 0.0000 22.1794 0.0000 0.0000
# 5 0.0000 0.0000 0.0000 0.0000 22.1794 0.0000
# 6 0.0000 0.0000 0.0000 0.0000 0.0000 33.5387
#
#
#
# Elastic Compliance Matrix: (Units=1/GPa)
#
#
# Indices 1 2 3 4 5 6 
#
# 1 0.008116 -0.001801 -0.001327 0.000000 0.000000 0.000000
# 2 -0.001801 0.008116 -0.001327 0.000000 0.000000 0.000000
# 3 -0.001327 -0.001327 0.007615 0.000000 0.000000 0.000000
# 4 0.000000 0.000000 0.000000 0.045087 0.000000 0.000000
# 5 0.000000 0.000000 0.000000 0.000000 0.045087 0.000000
# 6 0.000000 0.000000 0.000000 0.000000 0.000000 0.029816
#
#
# Mechanical properties :
#
#
# Convention : Reuss Voigt Hill
#
# Bulk Modulus (GPa) = 66.95285 66.95312 66.95298
# Shear Modulus (GPa) = 31.70050 36.83507 34.26779
#
# Velocity S-wave (km/s) = 3.84785 4.14778 4.00063
# Velocity P-wave (km/s) = 7.14228 7.36273 7.25334
#
# Compressibility (1/GPa) = 0.01493588
#
# Stress axis : x y z
#
# Youngs Moduli (GPa) = 123.21299 123.21298 131.32699
#
# Poissons Ratio (x) = 0.22186 0.17432
# Poissons Ratio (y) = 0.22186 0.17432
# Poissons Ratio (z) = 0.16355 0.16355
#
# Static dielectric constant tensor:
#      x y z
#    x 3.995460 0.000000 0.000000 
#    y 0.000000 3.995460 0.000000 
#    z 0.000000 0.000000 3.930570 
# 
# 
# High freq. dielectric constant tensor:
#      x y z
#    x 1.825370 0.000000 0.000000 
#    y 0.000000 1.825370 0.000000 
#    z 0.000000 0.000000 1.858060 
# 
# From -- ./inp_files/10143.got.cif
#   From: 2010.03.12/outbox.cif.g09.slc.cpg/sg142_6_cif.got.tgz:10143.got - 2010.04.03 13:27:16.
