data_PCOD8321413
_publ_section_title
;
Structure prediction by ZEFSAII (Michael W. Deem and Ramdas Pophale) SiO2 
 PCOD8321413
Probable space group: P 31
;
_chemical_formula_sum "Si O2"
_cell_formula_units_Z 21
_cell_length_a 9.828824
_cell_length_b 9.828824
_cell_length_c 10.472607
_cell_angle_alpha 90.000000
_cell_angle_beta 90.000000
_cell_angle_gamma 120.000000
_cell_volume 876.170355
_symmetry_space_group_name_H-M "P 31"
_symmetry_group_IT_number 144
_symmetry_cell_setting 'hexagonal'
loop_
_space_group_symop_operation_xyz
x,y,z
-y,x-y,1/3+z
-x+y,-x,2/3+z
loop_
_atom_site_type_symbol
_atom_site_label
_atom_site_fract_x
_atom_site_fract_y
_atom_site_fract_z
Si Si1 0.110154 0.965639 0.028980
Si Si2 0.112143 0.526333 0.982810
Si Si3 0.263711 0.705306 0.230287
Si Si4 0.431962 0.370299 0.672339
Si Si5 0.942005 0.343246 0.529634
Si Si6 0.815206 0.793976 0.414388
Si Si7 0.722590 0.117652 0.722742
O O1 0.245269 0.046273 0.135137
O O2 0.025186 0.067731 0.013214
O O3 0.186313 0.963688 0.893715
O O4 0.984514 0.792393 0.074995
O O5 0.167181 0.647592 0.101392
O O6 0.071576 0.349792 0.007270
O O7 0.954737 0.533014 0.952228
O O8 0.254442 0.614196 0.885137
O O9 0.128402 0.637579 0.339624
O O10 0.367625 0.890389 0.245777
O O11 0.588673 0.457237 0.759408
O O12 0.313364 0.208105 0.741229
O O13 0.473303 0.334716 0.530106
O O14 0.840325 0.284875 0.659229
#
# Coordination Sequence:
#
# PCOD8321413 Si02
#       7
#     3   3   3   3   3   3   3
#     4  12  22  45  73 109 148 201 258 310 377 475
#     4  11  24  44  70 107 143 191 246 315 368 453
#     4  11  22  44  77 104 144 191 258 309 374 455
#     4  11  24  47  69 112 157 197 250 331 381 465
#     4  12  24  45  80 112 149 206 255 315 402 455
#     4  12  27  42  72 108 153 194 255 317 389 455
#     4  11  23  49  75 106 154 206 252 319 391 454
#
# _framework density 23.967941
#
# number of rings (size 3 to 8) (size 9 to 14) (size 15 to 20)
#    0.000    0.571    5.714    4.286    2.000    1.143 
#    7.714    0.000    0.000    0.000    0.000    0.000 
#    0.000    0.000    0.000    0.000    0.000    0.000 
#
# Total GULP energy -260368.160095 kJ/mol
# GULP energy per Si atom -12398.483814 kJ/mol
# Density = 2.391339 g / cm^3
# Si number density = 23.967941 Si / 1000 Ang^3
#
#
#
# Elastic Constant Matrix: (Units=GPa)
#
#
# Indices 1 2 3 4 5 6 
#
# 1 103.1186 33.2979 20.9552 2.0238 2.1977 0.0000
# 2 33.2979 103.1186 20.9552 -2.0238 -2.1977 0.0000
# 3 20.9552 20.9552 71.2615 0.0000 0.0000 0.0000
# 4 2.0238 -2.0238 0.0000 29.2889 0.0000 -2.1977
# 5 2.1977 -2.1977 0.0000 0.0000 29.2889 2.0238
# 6 0.0000 0.0000 0.0000 -2.1977 2.0238 34.9103
#
#
#
# Elastic Compliance Matrix: (Units=1/GPa)
#
#
# Indices 1 2 3 4 5 6 
#
# 1 0.011254 -0.003195 -0.002370 -0.000998 -0.001084 0.000000
# 2 -0.003195 0.011254 -0.002370 0.000998 0.001084 0.000000
# 3 -0.002370 -0.002370 0.015426 0.000000 0.000000 0.000000
# 4 -0.000998 0.000998 0.000000 0.034443 0.000000 0.002168
# 5 -0.001084 0.001084 0.000000 0.000000 0.034443 -0.001997
# 6 0.000000 0.000000 0.000000 0.002168 -0.001997 0.028897
#
#
# Mechanical properties :
#
#
# Convention : Reuss Voigt Hill
#
# Bulk Modulus (GPa) = 45.32113 47.54613 46.43363
# Shear Modulus (GPa) = 31.45826 32.18367 31.82097
#
# Velocity S-wave (km/s) = 3.62679 3.66837 3.64764
# Velocity P-wave (km/s) = 6.04055 6.15004 6.09555
#
# Compressibility (1/GPa) = 0.02206476
#
# Stress axis : x y z
#
# Youngs Moduli (GPa) = 88.86107 88.86107 64.82362
#
# Poissons Ratio (x) = 0.28391 0.15361
# Poissons Ratio (y) = 0.28391 0.15361
# Poissons Ratio (z) = 0.21057 0.21057
#
# Static dielectric constant tensor:
#      x y z
#    x 4.477590 0.000000 0.000000 
#    y 0.000000 4.477590 0.000000 
#    z 0.000000 0.000000 4.128290 
# 
# 
# High freq. dielectric constant tensor:
#      x y z
#    x 1.956300 0.000000 0.000000 
#    y 0.000000 1.956300 0.000000 
#    z 0.000000 0.000000 1.938560 
# 
# From -- ./inp_files/608.got.cif
#   From: 2010.03.12/outbox.cif.g09.slc.cpg/sg144_cif.got.tgz:608.got - 2010.04.03 13:34:42.
