data_PCOD8321321
_publ_section_title
;
Structure prediction by ZEFSAII (Michael W. Deem and Ramdas Pophale) SiO2 
 PCOD8321321
Probable space group: I 41/A C D
;
_chemical_formula_sum "Si O2"
_cell_formula_units_Z 112
_cell_length_a 29.434299
_cell_length_b 29.434299
_cell_length_c 5.207001
_cell_angle_alpha 90.000000
_cell_angle_beta 90.000000
_cell_angle_gamma 90.000000
_cell_volume 4511.230892
_symmetry_space_group_name_H-M "I 41/A C D"
_symmetry_group_IT_number 142
_space_group.IT_coordinate_system_code '2'
_symmetry_cell_setting 'tetragonal'
loop_
_space_group_symop_operation_xyz
x,y,z
1/4-y,3/4+x,1/4+z
-x,1/2-y,z
1/4+y,1/4-x,3/4+z
x,-y,1/2-z
1/2-x,y,-z
3/4+y,1/4+x,1/4-z
1/4-y,1/4-x,1/4-z
-x,-y,-z
3/4+y,1/4-x,3/4-z
x,1/2+y,-z
3/4-y,3/4+x,1/4-z
-x,y,1/2+z
1/2+x,-y,z
1/4-y,3/4-x,3/4+z
3/4+y,3/4+x,3/4+z
1/2+x,1/2+y,1/2+z
3/4-y,1/4+x,3/4+z
1/2-x,-y,1/2+z
3/4+y,3/4-x,1/4+z
1/2+x,1/2-y,-z
-x,1/2+y,1/2-z
1/4+y,3/4+x,3/4-z
3/4-y,3/4-x,3/4-z
1/2-x,1/2-y,1/2-z
1/4+y,3/4-x,1/4-z
1/2+x,y,1/2-z
1/4-y,1/4+x,3/4-z
1/2-x,1/2+y,z
x,1/2-y,1/2+z
3/4-y,1/4-x,1/4+z
1/4+y,1/4+x,1/4+z
loop_
_atom_site_type_symbol
_atom_site_label
_atom_site_fract_x
_atom_site_fract_y
_atom_site_fract_z
Si Si1 0.600955 0.779367 0.124097
Si Si2 0.643829 0.000000 0.250000
Si Si3 0.320691 0.343931 0.206033
Si Si4 0.250000 0.719439 0.500000
Si Si5 0.319798 0.069798 0.375000
O O1 0.550258 0.800258 0.125000
O O2 0.608224 0.741650 0.342827
O O3 0.635519 0.820294 0.174295
O O4 0.607090 0.038092 0.313046
O O5 0.675191 0.980216 0.485688
O O6 0.295363 0.311307 0.001445
O O7 0.331111 0.392573 0.085086
O O8 0.250000 0.750000 0.250000
#
# Coordination Sequence:
#
# PCOD8321321 Si02
#       5
#    32  16  32  16  16
#     4  12  29  51  81 120 162 214 269 332 412 495
#     4  12  25  50  80 119 156 218 274 335 414 487
#     4  12  27  48  82 113 162 211 269 334 411 491
#     4  12  25  46  78 121 160 200 262 339 400 475
#     4  12  26  48  84 110 165 218 268 346 410 506
#
# _framework density 24.826929
#
# number of rings (size 3 to 8) (size 9 to 14) (size 15 to 20)
#    0.000    0.000    2.857    6.000    8.000    1.714 
#    0.000    0.000   44.000    0.000    0.000    0.000 
#    0.000    0.000    0.000    0.000    0.000    0.000 
#
# Total GULP energy -694243.090618 kJ/mol
# GULP energy per Si atom -12397.198047 kJ/mol
# Density = 2.477042 g / cm^3
# Si number density = 24.826929 Si / 1000 Ang^3
#
#
#
# Elastic Constant Matrix: (Units=GPa)
#
#
# Indices 1 2 3 4 5 6 
#
# 1 76.1716 59.3796 26.5648 0.0000 0.0000 0.0000
# 2 59.3796 76.1716 26.5648 0.0000 0.0000 0.0000
# 3 26.5648 26.5648 113.4060 0.0000 0.0000 0.0000
# 4 0.0000 0.0000 0.0000 120.7646 0.0000 0.0000
# 5 0.0000 0.0000 0.0000 0.0000 120.7646 0.0000
# 6 0.0000 0.0000 0.0000 0.0000 0.0000 53.8233
#
#
#
# Elastic Compliance Matrix: (Units=1/GPa)
#
#
# Indices 1 2 3 4 5 6 
#
# 1 0.033838 -0.025715 -0.001903 0.000000 0.000000 0.000000
# 2 -0.025715 0.033838 -0.001903 0.000000 0.000000 0.000000
# 3 -0.001903 -0.001903 0.009709 0.000000 0.000000 0.000000
# 4 0.000000 0.000000 0.000000 0.008281 0.000000 0.000000
# 5 0.000000 0.000000 0.000000 0.000000 0.008281 0.000000
# 6 0.000000 0.000000 0.000000 0.000000 0.000000 0.018579
#
#
# Mechanical properties :
#
#
# Convention : Reuss Voigt Hill
#
# Bulk Modulus (GPa) = 54.51279 54.52974 54.52127
# Shear Modulus (GPa) = 28.14044 69.28649 48.71347
#
# Velocity S-wave (km/s) = 3.37035 5.28851 4.43439
# Velocity P-wave (km/s) = 6.09512 7.70083 6.94454
#
# Compressibility (1/GPa) = 0.01834432
#
# Stress axis : x y z
#
# Youngs Moduli (GPa) = 29.55286 29.55286 102.99386
#
# Poissons Ratio (x) = 0.75994 0.19598
# Poissons Ratio (y) = 0.75994 0.19598
# Poissons Ratio (z) = 0.05623 0.05623
#
# Static dielectric constant tensor:
#      x y z
#    x 0.515610 0.000000 0.000000 
#    y 0.000000 0.515610 0.000000 
#    z 0.000000 0.000000 4.243750 
# 
# 
# High freq. dielectric constant tensor:
#      x y z
#    x 1.998610 0.000000 0.000000 
#    y 0.000000 1.998610 0.000000 
#    z 0.000000 0.000000 1.999240 
# 
# From -- ./inp_files/753.got.cif
#   From: 2010.03.12/outbox.cif.g09.slc.cpg/sg142_1_cif.got.tgz:753.got - 2010.04.03 13:27:16.
