data_PCOD8321248
_publ_section_title
;
Structure prediction by ZEFSAII (Michael W. Deem and Ramdas Pophale) SiO2 
 PCOD8321248
Probable space group: I 41/A C D
;
_chemical_formula_sum "Si O2"
_cell_formula_units_Z 160
_cell_length_a 29.358138
_cell_length_b 29.358138
_cell_length_c 9.447156
_cell_angle_alpha 90.000000
_cell_angle_beta 90.000000
_cell_angle_gamma 90.000000
_cell_volume 8142.506277
_symmetry_space_group_name_H-M "I 41/A C D"
_symmetry_group_IT_number 142
_space_group.IT_coordinate_system_code '2'
_symmetry_cell_setting 'tetragonal'
loop_
_space_group_symop_operation_xyz
x,y,z
1/4-y,3/4+x,1/4+z
-x,1/2-y,z
1/4+y,1/4-x,3/4+z
x,-y,1/2-z
1/2-x,y,-z
3/4+y,1/4+x,1/4-z
1/4-y,1/4-x,1/4-z
-x,-y,-z
3/4+y,1/4-x,3/4-z
x,1/2+y,-z
3/4-y,3/4+x,1/4-z
-x,y,1/2+z
1/2+x,-y,z
1/4-y,3/4-x,3/4+z
3/4+y,3/4+x,3/4+z
1/2+x,1/2+y,1/2+z
3/4-y,1/4+x,3/4+z
1/2-x,-y,1/2+z
3/4+y,3/4-x,1/4+z
1/2+x,1/2-y,-z
-x,1/2+y,1/2-z
1/4+y,3/4+x,3/4-z
3/4-y,3/4-x,3/4-z
1/2-x,1/2-y,1/2-z
1/4+y,3/4-x,1/4-z
1/2+x,y,1/2-z
1/4-y,1/4+x,3/4-z
1/2-x,1/2+y,z
x,1/2-y,1/2+z
3/4-y,1/4-x,1/4+z
1/4+y,1/4+x,1/4+z
loop_
_atom_site_type_symbol
_atom_site_label
_atom_site_fract_x
_atom_site_fract_y
_atom_site_fract_z
Si Si1 0.071599 0.753847 0.921746
Si Si2 0.621974 0.282936 0.690156
Si Si3 0.613872 0.969367 0.120165
Si Si4 0.773430 0.787617 0.652324
Si Si5 0.884183 0.134183 0.625000
Si Si6 0.218186 0.031815 0.125000
O O1 0.052060 0.802060 0.875000
O O2 0.118553 0.745341 0.836802
O O3 0.036209 0.713792 0.875000
O O4 0.084897 0.759532 0.085950
O O5 0.672771 0.278535 0.629812
O O6 0.606416 0.334648 0.735067
O O7 0.606309 0.917613 0.171394
O O8 0.666244 0.977760 0.081435
O O9 0.596862 0.000000 0.250000
O O10 0.585952 0.982205 0.980104
O O11 0.750000 0.789448 0.500000
O O12 0.750000 0.750000 0.750000
O O13 0.233925 0.000000 0.250000
#
# Coordination Sequence:
#
# PCOD8321248 Si02
#       6
#    32  32  32  32  16  16
#     4  11  23  39  60  85 114 149 194 241 304 351
#     4  11  22  41  61  84 119 154 193 246 290 358
#     4   9  19  38  62  84 120 158 194 247 294 355
#     4  11  23  40  59  88 118 158 204 240 296 354
#     4   9  20  38  61  88 115 150 202 234 300 348
#     4   9  18  34  60  92 121 158 197 240 308 361
#
# _framework density 19.649968999999999
#
# number of rings (size 3 to 8) (size 9 to 14) (size 15 to 20)
#    0.000    1.800    1.000    3.000    0.000    4.000 
#    3.600    0.000    0.000    0.000    0.000    0.000 
#    0.000    0.000    0.000    0.000    0.000    0.000 
#
# Total GULP energy -991305.307606 kJ/mol
# GULP energy per Si atom -12391.316345 kJ/mol
# Density = 1.960525 g / cm^3
# Si number density = 19.649969 Si / 1000 Ang^3
#
#
#
# Elastic Constant Matrix: (Units=GPa)
#
#
# Indices 1 2 3 4 5 6 
#
# 1 89.8067 65.5111 72.1025 0.0000 0.0000 0.0000
# 2 65.5111 89.8082 72.1017 0.0000 0.0000 0.0000
# 3 72.1025 72.1017 151.4541 0.0000 0.0000 0.0000
# 4 0.0000 0.0000 0.0000 40.7916 0.0000 0.0000
# 5 0.0000 0.0000 0.0000 0.0000 40.7922 0.0000
# 6 0.0000 0.0000 0.0000 0.0000 0.0000 31.2052
#
#
#
# Elastic Compliance Matrix: (Units=1/GPa)
#
#
# Indices 1 2 3 4 5 6 
#
# 1 0.026349 -0.014810 -0.005493 0.000000 0.000000 0.000000
# 2 -0.014810 0.026348 -0.005493 0.000000 0.000000 0.000000
# 3 -0.005493 -0.005493 0.011833 0.000000 0.000000 0.000000
# 4 0.000000 0.000000 0.000000 0.024515 0.000000 0.000000
# 5 0.000000 0.000000 0.000000 0.000000 0.024514 0.000000
# 6 0.000000 0.000000 0.000000 0.000000 0.000000 0.032046
#
#
# Mechanical properties :
#
#
# Convention : Reuss Voigt Hill
#
# Bulk Modulus (GPa) = 77.29557 83.38885 80.34221
# Shear Modulus (GPa) = 24.81276 30.64804 27.73040
#
# Velocity S-wave (km/s) = 3.55736 3.95359 3.76069
# Velocity P-wave (km/s) = 7.50298 7.96055 7.73515
#
# Compressibility (1/GPa) = 0.01293735
#
# Stress axis : x y z
#
# Youngs Moduli (GPa) = 37.95225 37.95383 84.51148
#
# Poissons Ratio (x) = 0.56210 0.46425
# Poissons Ratio (y) = 0.56207 0.46419
# Poissons Ratio (z) = 0.20849 0.20847
#
# Static dielectric constant tensor:
#      x y z
#    x 3.780860 0.000000 0.000000 
#    y 0.000000 3.780810 0.000000 
#    z 0.000000 0.000000 3.357750 
# 
# 
# High freq. dielectric constant tensor:
#      x y z
#    x 1.772180 0.000000 0.000000 
#    y 0.000000 1.772180 0.000000 
#    z 0.000000 0.000000 1.758720 
# 
# From -- ./inp_files/2241.got.cif
#   From: 2010.03.12/outbox.cif.g09.slc.cpg/sg142_2_cif.got.tgz:2241.got - 2010.04.03 13:27:16.
