data_PCOD8321391
_publ_section_title
;
Structure prediction by ZEFSAII (Michael W. Deem and Ramdas Pophale) SiO2 
 PCOD8321391
Probable space group: P 31
;
_chemical_formula_sum "Si O2"
_cell_formula_units_Z 24
_cell_length_a 12.379542
_cell_length_b 12.379542
_cell_length_c 9.307212
_cell_angle_alpha 90.000000
_cell_angle_beta 90.000000
_cell_angle_gamma 120.000000
_cell_volume 1235.262887
_symmetry_space_group_name_H-M "P 31"
_symmetry_group_IT_number 144
_symmetry_cell_setting 'hexagonal'
loop_
_space_group_symop_operation_xyz
x,y,z
-y,x-y,1/3+z
-x+y,-x,2/3+z
loop_
_atom_site_type_symbol
_atom_site_label
_atom_site_fract_x
_atom_site_fract_y
_atom_site_fract_z
Si Si1 0.657347 0.515756 0.394430
Si Si2 0.405393 0.099604 0.405655
Si Si3 0.544552 0.679609 0.439090
Si Si4 0.283154 0.826088 0.318410
Si Si5 0.320391 0.455448 0.904622
Si Si6 0.900396 0.594607 0.938056
Si Si7 0.283154 0.457065 0.358635
Si Si8 0.858409 0.515756 0.615948
O O1 0.710015 0.560589 0.234787
O O2 0.635919 0.623686 0.461291
O O3 0.526822 0.388220 0.372463
O O4 0.747269 0.494537 0.505189
O O5 0.336573 0.168287 0.338522
O O6 0.526822 0.138602 0.304582
O O7 0.306870 0.953087 0.394900
O O8 0.606054 0.803027 0.338522
O O9 0.416180 0.580191 0.366001
O O10 0.513046 0.708844 0.594559
O O11 0.416180 0.835989 0.311044
O O12 0.195799 0.708844 0.415820
O O13 0.204743 0.795257 0.171856
O O14 0.376314 0.364081 0.882421
O O15 0.850574 0.560589 0.775591
O O16 0.046913 0.693130 0.948812
#
# Coordination Sequence:
#
# PCOD8321391 Si02
#       8
#     3   3   3   3   3   3   3   3
#     4  10  23  39  61  86 115 159 199 244 296 348
#     4  10  23  40  58  86 121 152 199 249 292 347
#     4  11  20  38  60  88 122 152 192 239 297 353
#     4  11  22  36  60  91 121 156 190 239 295 356
#     4  11  20  38  60  88 122 152 192 239 297 353
#     4  10  23  40  58  86 121 152 199 249 292 347
#     4  11  22  36  60  91 121 156 190 239 295 356
#     4  10  23  39  61  86 115 159 199 244 296 348
#
# _framework density 19.42906
#
# number of rings (size 3 to 8) (size 9 to 14) (size 15 to 20)
#    0.000    1.500    2.500    3.000    7.000    0.000 
#    0.000    0.000    0.000    3.000    0.000    0.000 
#    0.000    0.000    0.000    0.000    0.000    0.000 
#
# Total GULP energy -297449.362717 kJ/mol
# GULP energy per Si atom -12393.723447 kJ/mol
# Density = 1.938484 g / cm^3
# Si number density = 19.429060 Si / 1000 Ang^3
#
#
#
# Elastic Constant Matrix: (Units=GPa)
#
#
# Indices 1 2 3 4 5 6 
#
# 1 82.0847 29.5639 33.1472 0.0000 6.5158 0.0000
# 2 29.5639 82.0847 33.1472 0.0000 -6.5158 0.0000
# 3 33.1472 33.1472 104.3898 0.0000 0.0000 0.0000
# 4 0.0000 0.0000 0.0000 32.7178 0.0000 -6.5158
# 5 6.5158 -6.5158 0.0000 0.0000 32.7178 0.0000
# 6 0.0000 0.0000 0.0000 -6.5158 0.0000 26.2604
#
#
#
# Elastic Compliance Matrix: (Units=1/GPa)
#
#
# Indices 1 2 3 4 5 6 
#
# 1 0.015534 -0.004496 -0.003505 0.000000 -0.003989 0.000000
# 2 -0.004496 0.015534 -0.003505 0.000000 0.003989 0.000000
# 3 -0.003505 -0.003505 0.011805 0.000000 0.000000 0.000000
# 4 0.000000 0.000000 0.000000 0.032153 0.000000 0.007978
# 5 -0.003989 0.003989 0.000000 0.000000 0.032153 0.000000
# 6 0.000000 0.000000 0.000000 0.007978 0.000000 0.040060
#
#
# Mechanical properties :
#
#
# Convention : Reuss Voigt Hill
#
# Bulk Modulus (GPa) = 50.34887 51.14175 50.74531
# Shear Modulus (GPa) = 28.26921 29.85260 29.06091
#
# Velocity S-wave (km/s) = 3.81858 3.92406 3.87168
# Velocity P-wave (km/s) = 6.73888 6.84912 6.79423
#
# Compressibility (1/GPa) = 0.01986142
#
# Stress axis : x y z
#
# Youngs Moduli (GPa) = 64.37574 64.37574 84.70772
#
# Poissons Ratio (x) = 0.28943 0.29689
# Poissons Ratio (y) = 0.28943 0.29689
# Poissons Ratio (z) = 0.22563 0.22563
#
# Static dielectric constant tensor:
#      x y z
#    x 3.520490 0.000000 0.000000 
#    y 0.000000 3.520490 0.000000 
#    z 0.000000 0.000000 3.651120 
# 
# 
# High freq. dielectric constant tensor:
#      x y z
#    x 1.738090 0.000000 0.000000 
#    y 0.000000 1.738090 0.000000 
#    z 0.000000 0.000000 1.774740 
# 
# From -- ./inp_files/423.got.cif
#   From: 2010.03.12/outbox.cif.g09.slc.cpg/sg144_cif.got.tgz:423.got - 2010.04.03 13:34:42.
