data_PCOD8321687
_publ_section_title
;
Structure prediction by ZEFSAII (Michael W. Deem and Ramdas Pophale) SiO2 
 PCOD8321687
Probable space group: R -3
;
_chemical_formula_sum "Si O2"
_cell_formula_units_Z 126
_cell_length_a 16.937028
_cell_length_b 16.937028
_cell_length_c 34.328562
_cell_angle_alpha 90.000000
_cell_angle_beta 90.000000
_cell_angle_gamma 120.000000
_cell_volume 8528.264360
_symmetry_space_group_name_H-M "R -3"
_symmetry_group_IT_number 148
_symmetry_cell_setting 'hexagonal'
loop_
_space_group_symop_operation_xyz
x,y,z
-y,x-y,z
-x+y,-x,z
-x,-y,-z
y,-x+y,-z
x-y,x,-z
2/3+x,1/3+y,1/3+z
2/3-y,1/3+x-y,1/3+z
2/3-x+y,1/3-x,1/3+z
2/3-x,1/3-y,1/3-z
2/3+y,1/3-x+y,1/3-z
2/3+x-y,1/3+x,1/3-z
1/3+x,2/3+y,2/3+z
1/3-y,2/3+x-y,2/3+z
1/3-x+y,2/3-x,2/3+z
1/3-x,2/3-y,2/3-z
1/3+y,2/3-x+y,2/3-z
1/3+x-y,2/3+x,2/3-z
loop_
_atom_site_type_symbol
_atom_site_label
_atom_site_fract_x
_atom_site_fract_y
_atom_site_fract_z
Si Si1 0.038815 0.430814 0.320314
Si Si2 0.612661 0.042817 0.911413
Si Si3 0.623850 0.720672 0.244746
Si Si4 0.332625 0.846773 0.938216
Si Si5 0.705482 0.941335 0.653648
Si Si6 0.000000 0.813751 0.500000
Si Si7 0.153227 0.667375 0.938216
O O1 0.073828 0.428970 0.277316
O O2 0.000536 0.500268 0.320999
O O3 0.122715 0.461751 0.350164
O O4 0.955642 0.333333 0.333333
O O5 0.529613 0.059226 0.921237
O O6 0.688475 0.095636 0.943983
O O7 0.656507 0.084085 0.869948
O O8 0.577088 0.934546 0.911349
O O9 0.732121 0.756245 0.244682
O O10 0.582581 0.676826 0.203282
O O11 0.236587 0.763413 0.923548
O O12 0.408611 0.817223 0.934904
O O13 0.327631 0.871583 0.983170
O O14 0.912969 0.825937 0.494301
#
# Coordination Sequence:
#
# PCOD8321687 Si02
#       7
#    18  18  18  18  18  18  18
#     4   9  16  26  41  60  81 104 130 160 195 234
#     4   9  17  28  41  58  81 107 132 159 192 229
#     4   9  17  28  41  58  81 107 132 159 192 229
#     4   9  16  26  41  61  83 105 129 158 193 232
#     4   9  16  26  41  60  81 104 130 160 195 234
#     4  10  19  30  43  58  78 104 134 164 193 228
#     4   9  16  26  41  61  83 105 129 158 193 232
#
# _framework density 14.774402
#
# number of rings (size 3 to 8) (size 9 to 14) (size 15 to 20)
#    0.000    2.857    0.000    2.143    0.000    3.429 
#    0.000    0.714    0.000    9.429    0.000    0.000 
#    0.000    0.000    0.000    0.000    0.000    0.000 
#
# Total GULP energy -520755.459246 kJ/mol
# GULP energy per Si atom -12398.939506 kJ/mol
# Density = 1.474078 g / cm^3
# Si number density = 14.774402 Si / 1000 Ang^3
#
#
#
# Elastic Constant Matrix: (Units=GPa)
#
#
# Indices 1 2 3 4 5 6 
#
# 1 98.3609 54.2848 55.5021 0.3727 0.0000 0.0000
# 2 54.2848 98.3609 55.5021 -0.3727 0.0000 0.0000
# 3 55.5021 55.5021 103.6847 0.0000 0.0000 0.0000
# 4 0.3727 -0.3727 0.0000 19.0589 0.0000 0.0000
# 5 0.0000 0.0000 0.0000 0.0000 19.0589 0.3727
# 6 0.0000 0.0000 0.0000 0.0000 0.3727 22.0381
#
#
#
# Elastic Compliance Matrix: (Units=1/GPa)
#
#
# Indices 1 2 3 4 5 6 
#
# 1 0.016711 -0.005984 -0.005742 -0.000444 0.000000 0.000000
# 2 -0.005984 0.016711 -0.005742 0.000444 0.000000 0.000000
# 3 -0.005742 -0.005742 0.015792 0.000000 0.000000 0.000000
# 4 -0.000444 0.000444 0.000000 0.052486 0.000000 0.000000
# 5 0.000000 0.000000 0.000000 0.000000 0.052486 -0.000888
# 6 0.000000 0.000000 0.000000 0.000000 -0.000888 0.045391
#
#
# Mechanical properties :
#
#
# Convention : Reuss Voigt Hill
#
# Bulk Modulus (GPa) = 70.04049 70.10939 70.07494
# Shear Modulus (GPa) = 20.89659 21.03902 20.96780
#
# Velocity S-wave (km/s) = 3.76490 3.77771 3.77131
# Velocity P-wave (km/s) = 8.14916 8.15993 8.15455
#
# Compressibility (1/GPa) = 0.01427745
#
# Stress axis : x y z
#
# Youngs Moduli (GPa) = 59.84047 59.84047 63.32355
#
# Poissons Ratio (x) = 0.35811 0.36360
# Poissons Ratio (y) = 0.35811 0.36360
# Poissons Ratio (z) = 0.34360 0.34360
#
# Static dielectric constant tensor:
#      x y z
#    x 2.862010 0.000000 0.000000 
#    y 0.000000 2.862010 0.000000 
#    z 0.000000 0.000000 2.782500 
# 
# 
# High freq. dielectric constant tensor:
#      x y z
#    x 1.560700 0.000000 0.000000 
#    y 0.000000 1.560700 0.000000 
#    z 0.000000 0.000000 1.553880 
# 
# From -- ./inp_files/3709.got.cif
#   From: 2010.03.12/outbox.cif.g09.slc.cpg/sg148_2_cif.got.tgz:3709.got - 2010.04.03 13:38:46.
