data_PCOD8321735
_publ_section_title
;
Structure prediction by ZEFSAII (Michael W. Deem and Ramdas Pophale) SiO2 
 PCOD8321735
Probable space group: R -3
;
_chemical_formula_sum "Si O2"
_cell_formula_units_Z 84
_cell_length_a 15.816985
_cell_length_b 15.816985
_cell_length_c 20.364833
_cell_angle_alpha 90.000000
_cell_angle_beta 90.000000
_cell_angle_gamma 120.000000
_cell_volume 4412.237590
_symmetry_space_group_name_H-M "R -3"
_symmetry_group_IT_number 148
_symmetry_cell_setting 'hexagonal'
loop_
_space_group_symop_operation_xyz
x,y,z
-y,x-y,z
-x+y,-x,z
-x,-y,-z
y,-x+y,-z
x-y,x,-z
2/3+x,1/3+y,1/3+z
2/3-y,1/3+x-y,1/3+z
2/3-x+y,1/3-x,1/3+z
2/3-x,1/3-y,1/3-z
2/3+y,1/3-x+y,1/3-z
2/3+x-y,1/3+x,1/3-z
1/3+x,2/3+y,2/3+z
1/3-y,2/3+x-y,2/3+z
1/3-x+y,2/3-x,2/3+z
1/3-x,2/3-y,2/3-z
1/3+y,2/3-x+y,2/3-z
1/3+x-y,2/3+x,2/3-z
loop_
_atom_site_type_symbol
_atom_site_label
_atom_site_fract_x
_atom_site_fract_y
_atom_site_fract_z
Si Si1 0.003244 0.404540 0.200907
Si Si2 0.956176 0.686379 0.687512
Si Si3 0.399390 0.510696 0.917997
Si Si4 0.666668 0.333334 0.067546
Si Si5 0.000000 0.000000 0.582592
Si Si6 0.217371 0.049316 0.429622
O O1 0.973899 0.324292 0.259124
O O2 0.093318 0.419121 0.157254
O O3 0.036998 0.504262 0.239394
O O4 0.911081 0.371584 0.153501
O O5 0.900034 0.584417 0.645185
O O6 0.884245 0.704102 0.734373
O O7 0.009475 0.779642 0.640452
O O8 0.365892 0.590154 0.910319
O O9 0.666668 0.333334 0.991656
O O10 0.082341 0.106427 0.558118
#
# Coordination Sequence:
#
# PCOD8321735 Si02
#       6
#    18  18  18   6   6  18
#     4  11  21  39  57  85 122 156 195 240 293 349
#     4  10  21  38  54  88 124 154 188 240 301 349
#     4  10  22  38  60  86 121 156 195 250 289 351
#     4  12  21  39  61  82 112 157 204 241 296 340
#     4  12  21  31  58  90 117 154 184 235 305 370
#     4  11  22  34  58  87 121 154 191 237 297 358
#
# _framework density 19.037958
#
# number of rings (size 3 to 8) (size 9 to 14) (size 15 to 20)
#    0.000    1.286    4.286    2.571    3.000    0.857 
#    0.000    3.214    0.000    0.000    0.000    1.500 
#    0.000    0.000    0.000    0.000    0.000    0.000 
#
# Total GULP energy -346916.109693 kJ/mol
# GULP energy per Si atom -12389.861060 kJ/mol
# Density = 1.899463 g / cm^3
# Si number density = 19.037958 Si / 1000 Ang^3
#
#
#
# Elastic Constant Matrix: (Units=GPa)
#
#
# Indices 1 2 3 4 5 6 
#
# 1 71.5007 41.1970 50.2550 -11.2445 0.9663 -0.0001
# 2 41.1970 71.5002 50.2551 11.2448 -0.9661 -0.0001
# 3 50.2550 50.2551 120.6788 0.0001 0.0000 0.0000
# 4 -11.2445 11.2448 0.0001 19.8218 -0.0001 -0.9660
# 5 0.9663 -0.9661 0.0000 -0.0001 19.8216 -11.2445
# 6 -0.0001 -0.0001 0.0000 -0.9660 -11.2445 15.1521
#
#
#
# Elastic Compliance Matrix: (Units=1/GPa)
#
#
# Indices 1 2 3 4 5 6 
#
# 1 0.035709 -0.021593 -0.005878 0.032506 -0.002793 0.000000
# 2 -0.021593 0.035709 -0.005879 -0.032507 0.002793 0.000001
# 3 -0.005878 -0.005879 0.013182 0.000000 0.000000 0.000000
# 4 0.032506 -0.032507 0.000000 0.087603 -0.000001 0.005585
# 5 -0.002793 0.002793 0.000000 -0.000001 0.087602 0.065010
# 6 0.000000 0.000001 0.000000 0.005585 0.065010 0.114598
#
#
# Mechanical properties :
#
#
# Convention : Reuss Voigt Hill
#
# Bulk Modulus (GPa) = 55.86343 60.78821 58.32582
# Shear Modulus (GPa) = 11.18395 19.09060 15.13728
#
# Velocity S-wave (km/s) = 2.42638 3.17008 2.82283
# Velocity P-wave (km/s) = 6.10382 6.73784 6.42865
#
# Compressibility (1/GPa) = 0.01790080
#
# Stress axis : x y z
#
# Youngs Moduli (GPa) = 28.00444 28.00388 75.85845
#
# Poissons Ratio (x) = 0.60469 0.44592
# Poissons Ratio (y) = 0.60470 0.44594
# Poissons Ratio (z) = 0.16462 0.16462
#
# Static dielectric constant tensor:
#      x y z
#    x 3.164510 0.000000 0.000000 
#    y 0.000000 3.164510 -0.000010 
#    z 0.000000 -0.000010 3.586950 
# 
# 
# High freq. dielectric constant tensor:
#      x y z
#    x 1.720150 0.000000 0.000000 
#    y 0.000000 1.720150 0.000000 
#    z 0.000000 0.000000 1.754160 
# 
# From -- ./inp_files/3346.got.cif
#   From: 2010.03.12/outbox.cif.g09.slc.cpg/sg148_2_cif.got.tgz:3346.got - 2010.04.03 13:38:46.
