data_PCOD8321573
_publ_section_title
;
Structure prediction by ZEFSAII (Michael W. Deem and Ramdas Pophale) SiO2 
 PCOD8321573
Probable space group: R 3
;
_chemical_formula_sum "Si O2"
_cell_formula_units_Z 30
_cell_length_a 9.457660
_cell_length_b 9.457660
_cell_length_c 15.312392
_cell_angle_alpha 90.000000
_cell_angle_beta 90.000000
_cell_angle_gamma 120.000000
_cell_volume 1186.153964
_symmetry_space_group_name_H-M "R 3"
_symmetry_group_IT_number 146
_symmetry_cell_setting 'hexagonal'
loop_
_space_group_symop_operation_xyz
x,y,z
-y,x-y,z
-x+y,-x,z
2/3+x,1/3+y,1/3+z
2/3-y,1/3+x-y,1/3+z
2/3-x+y,1/3-x,1/3+z
1/3+x,2/3+y,2/3+z
1/3-y,2/3+x-y,2/3+z
1/3-x+y,2/3-x,2/3+z
loop_
_atom_site_type_symbol
_atom_site_label
_atom_site_fract_x
_atom_site_fract_y
_atom_site_fract_z
Si Si1 0.666668 0.333334 0.032866
Si Si2 0.000000 0.000000 0.466079
Si Si3 0.000000 0.000000 0.906755
Si Si4 0.509244 0.969615 0.807940
Si Si5 0.333335 0.666668 0.925523
Si Si6 0.824089 0.697053 0.024339
O O1 0.666668 0.333334 0.137066
O O2 0.717506 0.510675 0.994113
O O3 0.949167 0.822660 0.504832
O O4 0.000000 0.000000 0.361878
O O5 0.904850 0.091431 0.940968
O O6 0.424761 0.853249 0.891311
O O7 0.624985 0.916202 0.759455
O O8 0.375449 0.958323 0.739491
#
# Coordination Sequence:
#
# PCOD8321573 Si02
#       6
#     3   3   3   9   3   9
#     4  12  21  37  67  88 112 160 200 241 297 342
#     4  12  21  37  67  88 112 160 200 241 297 342
#     4   9  22  43  60  81 124 164 185 238 312 346
#     4   9  20  39  59  87 122 151 197 247 285 357
#     4   9  22  43  60  81 124 164 185 238 312 346
#     4   9  20  39  59  87 122 151 197 247 285 357
#
# _framework density 25.291826
#
# number of rings (size 3 to 8) (size 9 to 14) (size 15 to 20)
#    0.000    2.400    0.000    4.200    0.000    9.600 
#    0.000   12.000    0.000    7.200    0.000    0.000 
#    0.000    0.000    0.000    0.000    0.000    0.000 
#
# Total GULP energy -124038.247002 kJ/mol
# GULP energy per Si atom -12403.824700 kJ/mol
# Density = 2.523426 g / cm^3
# Si number density = 25.291826 Si / 1000 Ang^3
#
#
#
# Elastic Constant Matrix: (Units=GPa)
#
#
# Indices 1 2 3 4 5 6 
#
# 1 81.4392 12.0547 7.4782 6.4731 -7.3430 -0.0006
# 2 12.0547 81.4341 7.4784 -6.4743 7.3430 0.0000
# 3 7.4782 7.4784 134.1501 -0.0002 0.0000 -0.0004
# 4 6.4731 -6.4743 -0.0002 6.6476 -0.0001 7.3427
# 5 -7.3430 7.3430 0.0000 -0.0001 6.6475 6.4735
# 6 -0.0006 0.0000 -0.0004 7.3427 6.4735 34.6909
#
#
#
# Elastic Compliance Matrix: (Units=1/GPa)
#
#
# Indices 1 2 3 4 5 6 
#
# 1 0.017725 -0.006934 -0.000602 -0.024013 0.027239 0.000000
# 2 -0.006934 0.017727 -0.000602 0.024017 -0.027241 0.000000
# 3 -0.000602 -0.000602 0.007521 0.000000 0.000000 0.000000
# 4 -0.024013 0.024017 0.000000 0.257374 -0.000002 -0.054476
# 5 0.027239 -0.027241 0.000000 -0.000002 0.257382 -0.048028
# 6 0.000000 0.000000 0.000000 -0.054476 -0.048028 0.049319
#
#
# Mechanical properties :
#
#
# Convention : Reuss Voigt Hill
#
# Bulk Modulus (GPa) = 37.45357 39.00513 38.22935
# Shear Modulus (GPa) = 7.90859 27.59802 17.75331
#
# Velocity S-wave (km/s) = 1.77023 3.30689 2.65229
# Velocity P-wave (km/s) = 4.36108 5.48053 4.95254
#
# Compressibility (1/GPa) = 0.02669972
#
# Stress axis : x y z
#
# Youngs Moduli (GPa) = 56.41632 56.40997 132.95377
#
# Poissons Ratio (x) = 0.39114 0.07998
# Poissons Ratio (y) = 0.39119 0.08000
# Poissons Ratio (z) = 0.03394 0.03394
#
# Static dielectric constant tensor:
#      x y z
#    x 4.627940 0.000020 0.000010 
#    y 0.000020 4.627930 0.000010 
#    z 0.000010 0.000010 4.141990 
# 
# 
# High freq. dielectric constant tensor:
#      x y z
#    x 2.014090 0.000000 0.000000 
#    y 0.000000 2.014090 0.000000 
#    z 0.000000 0.000000 2.001890 
# 
# From -- ./inp_files/1362.got.cif
#   From: 2010.06.25/outbox.cif.g09.slc.cpg/sg146_cif.got.tgz:1362.got - 2010.06.28 11:17:22.
