data_PCOD8322718
_publ_section_title
;
Structure prediction by ZEFSAII (Michael W. Deem and Ramdas Pophale) SiO2 
 PCOD8322718
Probable space group: P 3 1 M
;
_chemical_formula_sum "Si O2"
_cell_formula_units_Z 48
_cell_length_a 14.968522
_cell_length_b 14.968522
_cell_length_c 14.336996
_cell_angle_alpha 90.000000
_cell_angle_beta 90.000000
_cell_angle_gamma 120.000000
_cell_volume 2781.932805
_symmetry_space_group_name_H-M "P 3 1 M"
_symmetry_group_IT_number 157
_symmetry_cell_setting 'hexagonal'
loop_
_space_group_symop_operation_xyz
x,y,z
-y,x-y,z
-x+y,-x,z
y,x,z
x-y,-y,z
-x,-x+y,z
loop_
_atom_site_type_symbol
_atom_site_label
_atom_site_fract_x
_atom_site_fract_y
_atom_site_fract_z
Si Si1 0.573445 0.119903 0.534010
Si Si2 0.878702 0.600777 0.677380
Si Si3 0.122611 0.374638 0.034010
Si Si4 0.426555 0.546458 0.034009
Si Si5 0.374638 0.122611 0.534010
Si Si6 0.399224 0.277926 0.177381
Si Si7 0.399224 0.277925 0.390639
Si Si8 0.600777 0.878701 0.890639
O O1 0.643905 0.150901 0.626686
O O2 0.498906 0.168220 0.534010
O O3 0.643906 0.150903 0.441335
O O4 0.495921 0.000000 0.534009
O O5 0.818484 0.651510 0.626536
O O6 0.842768 0.576606 0.784010
O O7 0.000000 0.681034 0.668373
O O8 0.168220 0.498906 0.034009
O O9 0.166975 0.348491 0.126536
O O10 0.000000 0.304684 0.034012
O O11 0.166973 0.348489 0.941483
O O12 0.504081 0.504081 0.034005
O O13 0.356097 0.506996 0.126686
O O14 0.356093 0.506995 0.941335
O O15 0.348490 0.166974 0.441483
O O16 0.304684 0.000000 0.534010
O O17 0.318965 0.318965 0.168373
O O18 0.423395 0.266163 0.284010
O O19 0.318968 0.318968 0.399647
O O20 0.681034 0.000000 0.899647
#
# Coordination Sequence:
#
# PCOD8322718 Si02
#       8
#     6   6   6   6   6   6   6   6
#     4   8  16  31  48  67  94 125 158 198 241 284
#     4   9  18  34  53  70  96 135 168 195 238 294
#     4  10  19  31  51  77 101 125 161 208 246 282
#     4   8  16  31  48  67  94 125 158 198 241 284
#     4  10  19  31  51  77 101 125 161 208 246 282
#     4   9  18  34  53  70  96 135 168 195 238 294
#     4   9  18  34  53  70  96 135 168 195 238 294
#     4   9  18  34  53  70  96 135 168 195 238 294
#
# _framework density 17.254192
#
# number of rings (size 3 to 8) (size 9 to 14) (size 15 to 20)
#    0.000    3.000    0.000    2.250    0.000    3.000 
#   12.000    5.000    0.000    4.000    0.000    0.000 
#    0.000    0.000    0.000    0.000    0.000    0.000 
#
# Total GULP energy -594892.308464 kJ/mol
# GULP energy per Si atom -12393.589760 kJ/mol
# Density = 1.721492 g / cm^3
# Si number density = 17.254192 Si / 1000 Ang^3
#
#
#
# Elastic Constant Matrix: (Units=GPa)
#
#
# Indices 1 2 3 4 5 6 
#
# 1 80.1872 33.6913 54.1513 0.0000 0.0001 0.0000
# 2 33.6913 80.1872 54.1513 0.0000 -0.0001 0.0000
# 3 54.1513 54.1513 186.0495 0.0000 0.0000 0.0000
# 4 0.0000 0.0000 0.0000 15.9990 0.0000 -0.0001
# 5 0.0001 -0.0001 0.0000 0.0000 15.9990 0.0000
# 6 0.0000 0.0000 0.0000 -0.0001 0.0000 23.2479
#
#
#
# Elastic Compliance Matrix: (Units=1/GPa)
#
#
# Indices 1 2 3 4 5 6 
#
# 1 0.016825 -0.004682 -0.003534 0.000000 0.000000 0.000000
# 2 -0.004682 0.016825 -0.003534 0.000000 0.000000 0.000000
# 3 -0.003534 -0.003534 0.007432 0.000000 0.000000 0.000000
# 4 0.000000 0.000000 0.000000 0.062504 0.000000 0.000000
# 5 0.000000 0.000000 0.000000 0.000000 0.062504 0.000000
# 6 0.000000 0.000000 0.000000 0.000000 0.000000 0.043015
#
#
# Mechanical properties :
#
#
# Convention : Reuss Voigt Hill
#
# Bulk Modulus (GPa) = 56.88156 70.04575 63.46365
# Shear Modulus (GPa) = 20.96740 24.67788 22.82264
#
# Velocity S-wave (km/s) = 3.48976 3.78597 3.64088
# Velocity P-wave (km/s) = 7.01971 7.73278 7.38486
#
# Compressibility (1/GPa) = 0.01758039
#
# Stress axis : x y z
#
# Youngs Moduli (GPa) = 59.43597 59.43597 134.54976
#
# Poissons Ratio (x) = 0.27831 0.47552
# Poissons Ratio (y) = 0.27831 0.47552
# Poissons Ratio (z) = 0.21006 0.21006
#
# Static dielectric constant tensor:
#      x y z
#    x 3.168540 0.000000 0.000000 
#    y 0.000000 3.168540 0.000000 
#    z 0.000000 0.000000 3.482800 
# 
# 
# High freq. dielectric constant tensor:
#      x y z
#    x 1.654160 0.000000 0.000000 
#    y 0.000000 1.654160 0.000000 
#    z 0.000000 0.000000 1.671110 
# 
# From -- ./inp_files/669.got.cif
#   From: 2010.03.12/outbox.cif.g09.slc.cpg/sg157_cif.got.tgz:669.got - 2010.04.03 13:59:21.
