data_PCOD8322335
_publ_section_title
;
Structure prediction by ZEFSAII (Michael W. Deem and Ramdas Pophale) SiO2 
 PCOD8322335
Probable space group: P 32 2 1
;
_chemical_formula_sum "Si O2"
_cell_formula_units_Z 42
_cell_length_a 13.906702
_cell_length_b 13.906702
_cell_length_c 12.595708
_cell_angle_alpha 90.000000
_cell_angle_beta 90.000000
_cell_angle_gamma 120.000000
_cell_volume 2109.606781
_symmetry_space_group_name_H-M "P 32 2 1"
_symmetry_group_IT_number 154
_symmetry_cell_setting 'hexagonal'
loop_
_space_group_symop_operation_xyz
x,y,z
-y,x-y,2/3+z
-x+y,-x,1/3+z
x-y,-y,1/3-z
-x,-x+y,2/3-z
y,x,-z
loop_
_atom_site_type_symbol
_atom_site_label
_atom_site_fract_x
_atom_site_fract_y
_atom_site_fract_z
Si Si1 0.887919 0.144360 0.299967
Si Si2 0.268608 0.778495 0.791097
Si Si3 0.956737 0.513581 0.221890
Si Si4 0.000000 0.855449 0.333334
Si Si5 0.669456 0.350077 0.697900
Si Si6 0.366673 0.834079 0.466321
Si Si7 0.859355 0.663620 0.185476
Si Si8 0.031585 0.031585 0.500000
O O1 0.810499 0.172343 0.224509
O O2 0.827610 0.089445 0.412163
O O3 0.930002 0.069610 0.240211
O O4 0.000000 0.257766 0.333334
O O5 0.243701 0.670224 0.720960
O O6 0.283469 0.754674 0.913974
O O7 0.384352 0.880169 0.751442
O O8 0.053581 0.537556 0.138739
O O9 0.000000 0.573875 0.333334
O O10 0.886786 0.564928 0.172914
O O11 0.899979 0.734778 0.295122
O O12 0.012278 0.930810 0.232650
O O13 0.616270 0.250656 0.780951
O O14 0.775696 0.349906 0.647482
O O15 0.274345 0.871154 0.483335
#
# Coordination Sequence:
#
# PCOD8322335 Si02
#       8
#     6   6   6   3   6   6   6   3
#     4  12  23  41  66  91 119 170 225 269 325 390
#     4  11  20  37  62  92 127 169 212 264 321 399
#     4  12  20  34  61  95 125 161 215 262 316 390
#     4  12  24  44  66  90 130 160 222 278 338 374
#     4  10  20  36  58  89 134 165 200 260 333 376
#     4  11  21  38  61  93 131 167 209 262 324 386
#     4  12  22  38  67  98 122 168 218 267 320 405
#     4  12  26  46  66  88 128 172 220 288 332 380
#
# _framework density 19.908923999999999
#
# number of rings (size 3 to 8) (size 9 to 14) (size 15 to 20)
#    0.000    0.571    8.571    1.286    0.000    1.143 
#    0.000    0.000    0.000    2.571    0.000    0.000 
#    0.000    0.000    0.000    0.000    0.000    0.000 
#
# Total GULP energy -520318.578843 kJ/mol
# GULP energy per Si atom -12388.537592 kJ/mol
# Density = 1.986361 g / cm^3
# Si number density = 19.908924 Si / 1000 Ang^3
#
#
#
# Elastic Constant Matrix: (Units=GPa)
#
#
# Indices 1 2 3 4 5 6 
#
# 1 84.1487 31.1373 37.5818 -6.7782 0.0001 0.0000
# 2 31.1373 84.1487 37.5818 6.7782 -0.0001 0.0000
# 3 37.5818 37.5818 91.2624 0.0000 0.0000 0.0000
# 4 -6.7782 6.7782 0.0000 39.9886 0.0000 -0.0001
# 5 0.0001 -0.0001 0.0000 0.0000 39.9886 -6.7782
# 6 0.0000 0.0000 0.0000 -0.0001 -6.7782 26.5057
#
#
#
# Elastic Compliance Matrix: (Units=1/GPa)
#
#
# Indices 1 2 3 4 5 6 
#
# 1 0.015788 -0.003930 -0.004883 0.003342 0.000000 0.000000
# 2 -0.003930 0.015788 -0.004883 -0.003342 0.000000 0.000000
# 3 -0.004883 -0.004883 0.014979 0.000000 0.000000 0.000000
# 4 0.003342 -0.003342 0.000000 0.026140 0.000000 0.000000
# 5 0.000000 0.000000 0.000000 0.000000 0.026140 0.006685
# 6 0.000000 0.000000 0.000000 0.000000 0.006685 0.039437
#
#
# Mechanical properties :
#
#
# Convention : Reuss Voigt Hill
#
# Bulk Modulus (GPa) = 52.18544 52.46243 52.32394
# Shear Modulus (GPa) = 29.06078 31.51385 30.28732
#
# Velocity S-wave (km/s) = 3.82473 3.98288 3.90461
# Velocity P-wave (km/s) = 6.76563 6.89635 6.83130
#
# Compressibility (1/GPa) = 0.01916243
#
# Stress axis : x y z
#
# Youngs Moduli (GPa) = 63.33873 63.33873 66.76000
#
# Poissons Ratio (x) = 0.24895 0.32599
# Poissons Ratio (y) = 0.24895 0.32599
# Poissons Ratio (z) = 0.30928 0.30928
#
# Static dielectric constant tensor:
#      x y z
#    x 3.634650 0.000000 0.000000 
#    y 0.000000 3.634650 0.000000 
#    z 0.000000 0.000000 3.890500 
# 
# 
# High freq. dielectric constant tensor:
#      x y z
#    x 1.769340 0.000000 0.000000 
#    y 0.000000 1.769340 0.000000 
#    z 0.000000 0.000000 1.776780 
# 
# From -- ./inp_files/1773.got.cif
#   From: 2010.03.12/outbox.cif.g09.slc.cpg/sg154_1_cif.got.tgz:1773.got - 2010.04.03 13:51:21.
