data_PCOD8322275
_publ_section_title
;
Structure prediction by ZEFSAII (Michael W. Deem and Ramdas Pophale) SiO2 
 PCOD8322275
Probable space group: P 32 1 2
;
_chemical_formula_sum "Si O2"
_cell_formula_units_Z 42
_cell_length_a 9.030134
_cell_length_b 9.030134
_cell_length_c 28.125829
_cell_angle_alpha 90.000000
_cell_angle_beta 90.000000
_cell_angle_gamma 120.000000
_cell_volume 1986.206293
_symmetry_space_group_name_H-M "P 32 1 2"
_symmetry_group_IT_number 153
_symmetry_cell_setting 'hexagonal'
loop_
_space_group_symop_operation_xyz
x,y,z
-y,x-y,2/3+z
-x+y,-x,1/3+z
-y,-x,1/3-z
-x+y,y,2/3-z
x,x-y,-z
loop_
_atom_site_type_symbol
_atom_site_label
_atom_site_fract_x
_atom_site_fract_y
_atom_site_fract_z
Si Si1 0.772989 0.378322 0.950053
Si Si2 0.980157 0.134643 0.219332
Si Si3 0.265176 0.349815 0.603582
Si Si4 0.795426 0.761480 0.583193
Si Si5 0.268842 0.971322 0.017607
Si Si6 0.946331 0.499049 0.762123
Si Si7 0.469171 0.877740 0.477513
O O1 0.810613 0.228696 0.935478
O O2 0.662409 0.402852 0.909460
O O3 0.947379 0.556552 0.960830
O O4 0.669919 0.334960 0.000000
O O5 0.898926 0.101075 0.166667
O O6 0.025554 0.321245 0.239214
O O7 0.150290 0.119836 0.219459
O O8 0.847843 0.995151 0.256167
O O9 0.152723 0.397091 0.639032
O O10 0.316101 0.453072 0.554241
O O11 0.804916 0.886152 0.625283
O O12 0.633920 0.725381 0.551648
O O13 0.409544 0.973430 0.053905
O O14 0.324167 0.162084 0.000000
O O15 0.977149 0.456425 0.815242
O O16 0.381681 0.690841 0.500000
#
# Coordination Sequence:
#
# PCOD8322275 Si02
#       7
#     6   6   6   6   6   6   6
#     4  10  21  41  66  99 135 179 223 272 356 407
#     4  11  22  43  71 100 131 182 233 280 344 413
#     4  10  22  39  71  93 135 182 226 271 339 420
#     4  11  23  38  75  96 130 177 234 280 331 418
#     4  12  23  42  69 105 133 178 232 285 342 402
#     4  11  25  43  69  98 140 181 224 289 349 415
#     4  11  22  43  67 100 136 181 231 276 350 412
#
# _framework density 21.145838000000001
#
# number of rings (size 3 to 8) (size 9 to 14) (size 15 to 20)
#    0.000    1.143    5.714    0.857    0.000    0.000 
#    0.000    4.286    0.000    0.000    0.000    0.000 
#    0.000    0.000    0.000    0.000    0.000    0.000 
#
# Total GULP energy -520578.357270 kJ/mol
# GULP energy per Si atom -12394.722792 kJ/mol
# Density = 2.109771 g / cm^3
# Si number density = 21.145838 Si / 1000 Ang^3
#
#
#
# Elastic Constant Matrix: (Units=GPa)
#
#
# Indices 1 2 3 4 5 6 
#
# 1 93.8459 43.3313 45.3418 -0.0001 7.2754 0.0000
# 2 43.3313 93.8459 45.3418 0.0001 -7.2754 0.0000
# 3 45.3418 45.3418 134.7752 0.0000 0.0000 0.0000
# 4 -0.0001 0.0001 0.0000 40.3007 0.0000 -7.2754
# 5 7.2754 -7.2754 0.0000 0.0000 40.3007 -0.0001
# 6 0.0000 0.0000 0.0000 -7.2754 -0.0001 25.2573
#
#
#
# Elastic Compliance Matrix: (Units=1/GPa)
#
#
# Indices 1 2 3 4 5 6 
#
# 1 0.015128 -0.005754 -0.003154 0.000000 -0.003770 0.000000
# 2 -0.005754 0.015128 -0.003154 0.000000 0.003770 0.000000
# 3 -0.003154 -0.003154 0.009542 0.000000 0.000000 0.000000
# 4 0.000000 0.000000 0.000000 0.026175 0.000000 0.007540
# 5 -0.003770 0.003770 0.000000 0.000000 0.026175 0.000000
# 6 0.000000 0.000000 0.000000 0.007540 0.000000 0.041764
#
#
# Mechanical properties :
#
#
# Convention : Reuss Voigt Hill
#
# Bulk Modulus (GPa) = 63.79261 65.61076 64.70169
# Shear Modulus (GPa) = 30.62587 33.73520 32.18053
#
# Velocity S-wave (km/s) = 3.80980 3.99853 3.90531
# Velocity P-wave (km/s) = 7.04175 7.23966 7.14139
#
# Compressibility (1/GPa) = 0.01567580
#
# Stress axis : x y z
#
# Youngs Moduli (GPa) = 66.10048 66.10048 104.80114
#
# Poissons Ratio (x) = 0.38032 0.33053
# Poissons Ratio (y) = 0.38032 0.33053
# Poissons Ratio (z) = 0.20848 0.20848
#
# Static dielectric constant tensor:
#      x y z
#    x 3.687110 0.000000 0.000000 
#    y 0.000000 3.687110 0.000000 
#    z 0.000000 0.000000 3.976590 
# 
# 
# High freq. dielectric constant tensor:
#      x y z
#    x 1.816610 0.000000 0.000000 
#    y 0.000000 1.816610 0.000000 
#    z 0.000000 0.000000 1.843880 
# 
# From -- ./inp_files/5191.got.cif
#   From: 2010.03.12/outbox.cif.g09.slc.cpg/sg153_3_cif.got.tgz:5191.got - 2010.04.03 13:48:33.
