data_PCOD8322708
_publ_section_title
;
Structure prediction by ZEFSAII (Michael W. Deem and Ramdas Pophale) SiO2 
 PCOD8322708
Probable space group: P 3 M 1
;
_chemical_formula_sum "Si O2"
_cell_formula_units_Z 42
_cell_length_a 12.323444
_cell_length_b 12.323444
_cell_length_c 17.825498
_cell_angle_alpha 90.000000
_cell_angle_beta 90.000000
_cell_angle_gamma 120.000000
_cell_volume 2344.425818
_symmetry_space_group_name_H-M "P 3 M 1"
_symmetry_group_IT_number 156
_symmetry_cell_setting 'hexagonal'
loop_
_space_group_symop_operation_xyz
x,y,z
-y,x-y,z
-x+y,-x,z
-x+y,y,z
x,x-y,z
-y,-x,z
loop_
_atom_site_type_symbol
_atom_site_label
_atom_site_fract_x
_atom_site_fract_y
_atom_site_fract_z
Si Si1 0.333119 0.917957 0.973300
Si Si2 0.332275 0.414608 0.258340
Si Si3 0.918170 0.586005 0.544856
Si Si4 0.001222 0.252595 0.116249
Si Si5 0.998935 0.250917 0.686978
Si Si6 0.999985 0.748404 0.401871
Si Si7 0.666717 0.584958 0.830675
O O1 0.462695 0.925390 0.994078
O O2 0.226499 0.773502 0.971816
O O3 0.337681 0.977978 0.893032
O O4 0.304646 0.994494 0.035161
O O5 0.228609 0.457217 0.260358
O O6 0.465944 0.534057 0.273014
O O7 0.332759 0.355262 0.178506
O O8 0.306389 0.312577 0.321781
O O9 0.772774 0.545548 0.552404
O O10 0.931771 0.465886 0.557335
O O11 0.999475 0.688234 0.607321
O O12 0.972100 0.643794 0.463897
O O13 0.867281 0.132720 0.128757
O O14 0.105854 0.211708 0.124033
O O15 0.132546 0.265092 0.701586
O O16 0.973087 0.326426 0.750776
O O17 0.895392 0.104609 0.688665
O O18 0.128326 0.871675 0.423055
O O19 0.892431 0.784861 0.399525
O O20 0.794439 0.588877 0.851898
O O21 0.558459 0.441542 0.827389
#
# Coordination Sequence:
#
# PCOD8322708 Si02
#       7
#     6   6   6   6   6   6   6
#     4  10  20  34  53  76 103 135 170 208 250 298
#     4  10  20  34  53  76 103 135 170 208 250 298
#     4  10  20  34  53  76 103 135 170 208 250 298
#     4  10  20  34  53  76 102 132 167 209 255 301
#     4  10  20  34  53  76 102 132 167 209 255 301
#     4  10  20  34  54  78 104 134 168 208 252 298
#     4  10  20  34  53  76 103 135 170 208 250 298
#
# _framework density 17.914833000000002
#
# number of rings (size 3 to 8) (size 9 to 14) (size 15 to 20)
#    0.000    2.000    0.000    4.000    0.000    0.000 
#    0.000    5.714    0.000   18.286    0.000    0.000 
#    0.000    0.000    0.000    0.000    0.000    0.000 
#
# Total GULP energy -521007.800672 kJ/mol
# GULP energy per Si atom -12404.947635 kJ/mol
# Density = 1.787406 g / cm^3
# Si number density = 17.914833 Si / 1000 Ang^3
#
#
#
# Elastic Constant Matrix: (Units=GPa)
#
#
# Indices 1 2 3 4 5 6 
#
# 1 78.9114 31.3188 14.1052 -1.6002 0.0002 0.0000
# 2 31.3188 78.9114 14.1052 1.6002 -0.0002 0.0000
# 3 14.1052 14.1052 78.7722 0.0000 0.0000 0.0000
# 4 -1.6002 1.6002 0.0000 24.0804 0.0000 -0.0002
# 5 0.0002 -0.0002 0.0000 0.0000 24.0804 -1.6002
# 6 0.0000 0.0000 0.0000 -0.0002 -1.6002 23.7963
#
#
#
# Elastic Compliance Matrix: (Units=1/GPa)
#
#
# Indices 1 2 3 4 5 6 
#
# 1 0.015307 -0.005799 -0.001702 0.001403 0.000000 0.000000
# 2 -0.005799 0.015307 -0.001702 -0.001403 0.000000 0.000000
# 3 -0.001702 -0.001702 0.013305 0.000000 0.000000 0.000000
# 4 0.001403 -0.001403 0.000000 0.041714 0.000000 0.000000
# 5 0.000000 0.000000 0.000000 0.000000 0.041714 0.002805
# 6 0.000000 0.000000 0.000000 0.000000 0.002805 0.042212
#
#
# Mechanical properties :
#
#
# Convention : Reuss Voigt Hill
#
# Bulk Modulus (GPa) = 39.20045 39.51705 39.35875
# Shear Modulus (GPa) = 25.44926 26.19582 25.82254
#
# Velocity S-wave (km/s) = 3.77313 3.82808 3.80070
# Velocity P-wave (km/s) = 6.39618 6.45330 6.42480
#
# Compressibility (1/GPa) = 0.02550991
#
# Stress axis : x y z
#
# Youngs Moduli (GPa) = 65.33041 65.33041 75.16239
#
# Poissons Ratio (x) = 0.37886 0.12796
# Poissons Ratio (y) = 0.37886 0.12796
# Poissons Ratio (z) = 0.11122 0.11122
#
# Static dielectric constant tensor:
#      x y z
#    x 3.216930 0.000000 0.000000 
#    y 0.000000 3.216930 0.000000 
#    z 0.000000 0.000000 3.464290 
# 
# 
# High freq. dielectric constant tensor:
#      x y z
#    x 1.693630 0.000000 0.000000 
#    y 0.000000 1.693630 0.000000 
#    z 0.000000 0.000000 1.710760 
# 
# From -- ./inp_files/953.got.cif
#   From: 2010.03.12/outbox.cif.g09.slc.cpg/sg156_cif.got.tgz:953.got - 2010.04.03 13:58:47.
