data_PCOD8322668
_publ_section_title
;
Structure prediction by ZEFSAII (Michael W. Deem and Ramdas Pophale) SiO2 
 PCOD8322668
Probable space group: P 3 M 1
;
_chemical_formula_sum "Si O2"
_cell_formula_units_Z 48
_cell_length_a 12.523286
_cell_length_b 12.523286
_cell_length_c 20.744761
_cell_angle_alpha 90.000000
_cell_angle_beta 90.000000
_cell_angle_gamma 120.000000
_cell_volume 2817.576167
_symmetry_space_group_name_H-M "P 3 M 1"
_symmetry_group_IT_number 156
_symmetry_cell_setting 'hexagonal'
loop_
_space_group_symop_operation_xyz
x,y,z
-y,x-y,z
-x+y,-x,z
-x+y,y,z
x,x-y,z
-y,-x,z
loop_
_atom_site_type_symbol
_atom_site_label
_atom_site_fract_x
_atom_site_fract_y
_atom_site_fract_z
Si Si1 0.583482 0.665786 0.192630
Si Si2 0.916949 0.582140 0.313506
Si Si3 0.667707 0.581806 0.678267
Si Si4 0.001970 0.242568 0.935262
Si Si5 0.999601 0.750649 0.556791
Si Si6 0.001927 0.251138 0.795570
Si Si7 0.083923 0.666487 0.435775
Si Si8 0.248558 0.251358 0.074851
O O1 0.579994 0.789997 0.200667
O O2 0.444656 0.555345 0.192171
O O3 0.659676 0.655733 0.251786
O O4 0.649136 0.662099 0.126587
O O5 0.795502 0.591004 0.314880
O O6 0.879641 0.439821 0.310195
O O7 0.993638 0.646449 0.377170
O O8 0.770352 0.540703 0.678100
O O9 0.536413 0.463588 0.666029
O O10 0.693846 0.680786 0.623157
O O11 0.665947 0.642507 0.746266
O O12 0.093590 0.187180 0.932514
O O13 0.017727 0.313426 0.867219
O O14 0.864539 0.135462 0.939201
O O15 0.023745 0.315547 0.003191
O O16 0.878639 0.757277 0.540109
O O17 0.020523 0.675843 0.500667
O O18 0.111688 0.888313 0.563554
O O19 0.125028 0.250056 0.774842
O O20 0.889761 0.110240 0.795203
O O21 0.111009 0.555505 0.443250
O O22 0.211475 0.788526 0.421507
O O23 0.257863 0.128932 0.081040
O O24 0.107395 0.214789 0.088101
#
# Coordination Sequence:
#
# PCOD8322668 Si02
#       8
#     6   6   6   6   6   6   6   6
#     4  10  20  33  49  68  92 124 161 199 236 278
#     4  10  20  34  52  73  96 122 154 194 240 285
#     4  10  20  33  48  66  90 122 159 196 234 278
#     4   8  13  22  39  65  94 121 149 184 231 284
#     4  10  20  34  53  76 101 127 156 195 243 290
#     4   9  16  27  46  71  96 120 149 190 239 288
#     4  10  20  34  53  76 103 135 168 198 226 264
#     4   9  16  27  45  69  96 123 152 190 237 287
#
# _framework density 17.035920000000001
#
# number of rings (size 3 to 8) (size 9 to 14) (size 15 to 20)
#    0.000    2.500    0.000    2.875    0.000    2.000 
#    0.000    3.125    0.000   10.500    0.000    0.000 
#    0.000    0.000    0.000    0.000    0.000    0.000 
#
# Total GULP energy -594942.944377 kJ/mol
# GULP energy per Si atom -12394.644675 kJ/mol
# Density = 1.699715 g / cm^3
# Si number density = 17.035920 Si / 1000 Ang^3
#
#
#
# Elastic Constant Matrix: (Units=GPa)
#
#
# Indices 1 2 3 4 5 6 
#
# 1 73.9289 38.6147 40.3399 -2.7069 0.0005 0.0000
# 2 38.6147 73.9289 40.3399 2.7069 -0.0005 0.0000
# 3 40.3399 40.3399 116.5543 0.0000 0.0000 0.0000
# 4 -2.7069 2.7069 0.0000 17.4960 0.0000 -0.0005
# 5 0.0005 -0.0005 0.0000 0.0000 17.4960 -2.7069
# 6 0.0000 0.0000 0.0000 -0.0005 -2.7069 17.6571
#
#
#
# Elastic Compliance Matrix: (Units=1/GPa)
#
#
# Indices 1 2 3 4 5 6 
#
# 1 0.020411 -0.008594 -0.004090 0.004488 -0.000001 0.000000
# 2 -0.008594 0.020411 -0.004090 -0.004488 0.000001 0.000000
# 3 -0.004090 -0.004090 0.011411 0.000000 0.000000 0.000000
# 4 0.004488 -0.004488 0.000000 0.058545 0.000000 0.000002
# 5 -0.000001 0.000001 0.000000 0.000000 0.058545 0.008975
# 6 0.000000 0.000000 0.000000 0.000002 0.008975 0.058010
#
#
# Mechanical properties :
#
#
# Convention : Reuss Voigt Hill
#
# Bulk Modulus (GPa) = 53.51724 55.88904 54.70314
# Shear Modulus (GPa) = 18.71888 20.20432 19.46160
#
# Velocity S-wave (km/s) = 3.31840 3.44755 3.38359
# Velocity P-wave (km/s) = 6.79447 6.98035 6.88804
#
# Compressibility (1/GPa) = 0.01868557
#
# Stress axis : x y z
#
# Youngs Moduli (GPa) = 48.99231 48.99231 87.63564
#
# Poissons Ratio (x) = 0.42103 0.35844
# Poissons Ratio (y) = 0.42103 0.35844
# Poissons Ratio (z) = 0.20038 0.20038
#
# Static dielectric constant tensor:
#      x y z
#    x 3.003850 0.000000 0.000000 
#    y 0.000000 3.003850 0.000000 
#    z 0.000000 0.000000 3.656610 
# 
# 
# High freq. dielectric constant tensor:
#      x y z
#    x 1.641990 0.000000 0.000000 
#    y 0.000000 1.641990 0.000000 
#    z 0.000000 0.000000 1.683030 
# 
# From -- ./inp_files/1090.got.cif
#   From: 2010.03.12/outbox.cif.g09.slc.cpg/sg156_cif.got.tgz:1090.got - 2010.04.03 13:58:47.
