data_PCOD8322791
_publ_section_title
;
Structure prediction by ZEFSAII (Michael W. Deem and Ramdas Pophale) SiO2 
 PCOD8322791
Probable space group: P 3 1 C
;
_chemical_formula_sum "Si O2"
_cell_formula_units_Z 36
_cell_length_a 21.823829
_cell_length_b 21.823829
_cell_length_c 5.171908
_cell_angle_alpha 90.000000
_cell_angle_beta 90.000000
_cell_angle_gamma 120.000000
_cell_volume 2133.257704
_symmetry_space_group_name_H-M "P 3 1 C"
_symmetry_group_IT_number 159
_symmetry_cell_setting 'hexagonal'
loop_
_space_group_symop_operation_xyz
x,y,z
-y,x-y,z
-x+y,-x,z
y,x,1/2+z
x-y,-y,1/2+z
-x,-x+y,1/2+z
loop_
_atom_site_type_symbol
_atom_site_label
_atom_site_fract_x
_atom_site_fract_y
_atom_site_fract_z
Si Si1 0.659745 0.628924 0.727210
Si Si2 0.179535 0.604616 0.457763
Si Si3 0.196300 0.688386 0.945371
Si Si4 0.555245 0.496117 0.269290
Si Si5 0.584417 0.962053 0.925216
Si Si6 0.171184 0.491719 0.122193
O O1 0.682506 0.675583 0.464648
O O2 0.574354 0.576315 0.663772
O O3 0.698668 0.583195 0.760325
O O4 0.217581 0.649120 0.721458
O O5 0.095828 0.554197 0.517518
O O6 0.207594 0.553179 0.342573
O O7 0.190262 0.658147 0.230661
O O8 0.120277 0.680424 0.878127
O O9 0.254749 0.770594 0.959264
O O10 0.485358 0.456974 0.448766
O O11 0.619188 0.493365 0.414630
O O12 0.635161 0.007077 0.688523
#
# Coordination Sequence:
#
# PCOD8322791 Si02
#       6
#     6   6   6   6   6   6
#     4  10  19  29  53  77  85 106 138 184 238 261
#     4  11  21  40  48  67  89 118 151 177 217 288
#     4  11  26  34  50  69  90 121 145 177 241 272
#     4  10  20  33  56  76  81 110 146 197 231 265
#     4  11  20  34  53  70  87 107 154 198 222 257
#     4  11  22  38  50  67  98 110 144 189 227 289
#
# _framework density 16.875599999999999
#
# number of rings (size 3 to 8) (size 9 to 14) (size 15 to 20)
#    0.000    1.333    5.000    4.000    4.667    0.000 
#    1.000    1.667    0.000    0.000    0.000    0.000 
#    0.000    0.000    0.000    0.000    0.000    0.000 
#
# Total GULP energy -446046.047723 kJ/mol
# GULP energy per Si atom -12390.167992 kJ/mol
# Density = 1.683719 g / cm^3
# Si number density = 16.875600 Si / 1000 Ang^3
#
#
#
# Elastic Constant Matrix: (Units=GPa)
#
#
# Indices 1 2 3 4 5 6 
#
# 1 63.7826 26.1060 26.4583 0.0000 -6.9269 0.0000
# 2 26.1060 63.7826 26.4583 0.0000 6.9269 0.0000
# 3 26.4583 26.4583 114.8645 0.0000 0.0000 0.0000
# 4 0.0000 0.0000 0.0000 19.6661 0.0000 6.9269
# 5 -6.9269 6.9269 0.0000 0.0000 19.6661 0.0000
# 6 0.0000 0.0000 0.0000 6.9269 0.0000 18.8383
#
#
#
# Elastic Compliance Matrix: (Units=1/GPa)
#
#
# Indices 1 2 3 4 5 6 
#
# 1 0.021680 -0.008810 -0.002965 0.000000 0.010740 0.000000
# 2 -0.008810 0.021680 -0.002965 0.000000 -0.010740 0.000000
# 3 -0.002965 -0.002965 0.010072 0.000000 0.000000 0.000000
# 4 0.000000 0.000000 0.000000 0.058415 0.000000 -0.021479
# 5 0.010740 -0.010740 0.000000 0.000000 0.058415 0.000000
# 6 0.000000 0.000000 0.000000 -0.021479 0.000000 0.060981
#
#
# Mechanical properties :
#
#
# Convention : Reuss Voigt Hill
#
# Bulk Modulus (GPa) = 41.74732 44.49721 43.12226
# Shear Modulus (GPa) = 18.60770 22.52789 20.56779
#
# Velocity S-wave (km/s) = 3.32420 3.65764 3.49490
# Velocity P-wave (km/s) = 6.28695 6.65303 6.47258
#
# Compressibility (1/GPa) = 0.02395363
#
# Stress axis : x y z
#
# Youngs Moduli (GPa) = 46.12470 46.12470 99.28869
#
# Poissons Ratio (x) = 0.40637 0.29435
# Poissons Ratio (y) = 0.40637 0.29435
# Poissons Ratio (z) = 0.13674 0.13674
#
# Static dielectric constant tensor:
#      x y z
#    x 2.909660 0.000000 0.000000 
#    y 0.000000 2.909660 0.000000 
#    z 0.000000 0.000000 3.683190 
# 
# 
# High freq. dielectric constant tensor:
#      x y z
#    x 1.594370 0.000000 0.000000 
#    y 0.000000 1.594370 0.000000 
#    z 0.000000 0.000000 1.695830 
# 
# From -- ./inp_files/111.got.cif
#   From: 2010.03.12/outbox.cif.g09.slc.cpg/sg159_cif.got.tgz:111.got - 2010.04.03 14:00:19.
