data_PCOD8322443
_publ_section_title
;
Structure prediction by ZEFSAII (Michael W. Deem and Ramdas Pophale) SiO2 
 PCOD8322443
Probable space group: P 32 2 1
;
_chemical_formula_sum "Si O2"
_cell_formula_units_Z 15
_cell_length_a 7.019313
_cell_length_b 7.019313
_cell_length_c 14.792050
_cell_angle_alpha 90.000000
_cell_angle_beta 90.000000
_cell_angle_gamma 120.000000
_cell_volume 631.172713
_symmetry_space_group_name_H-M "P 32 2 1"
_symmetry_group_IT_number 154
_symmetry_cell_setting 'hexagonal'
loop_
_space_group_symop_operation_xyz
x,y,z
-y,x-y,2/3+z
-x+y,-x,1/3+z
x-y,-y,1/3-z
-x,-x+y,2/3-z
y,x,-z
loop_
_atom_site_type_symbol
_atom_site_label
_atom_site_fract_x
_atom_site_fract_y
_atom_site_fract_z
Si Si1 0.262682 0.977547 0.064545
Si Si2 0.343766 0.242020 0.594121
Si Si3 0.454887 0.454887 0.000000
O O1 0.420598 0.221292 0.027308
O O2 0.193640 0.000000 0.166667
O O3 0.419744 0.876144 0.059404
O O4 0.039309 0.829793 0.007387
O O5 0.229313 0.229313 0.500000
O O6 0.420163 0.059449 0.588383
#
# Coordination Sequence:
#
# PCOD8322443 Si02
#       3
#     6   6   3
#     4  11  26  46  74 108 146 192 249 307 370 443
#     4  11  26  46  74 108 146 192 249 307 370 443
#     4  12  26  44  76 104 142 200 238 304 368 440
#
# _framework density 23.765287000000001
#
# number of rings (size 3 to 8) (size 9 to 14) (size 15 to 20)
#    0.000    0.800    4.000    1.200    5.600    6.400 
#    0.000    0.000    0.000    0.000    0.000    0.000 
#    0.000    0.000    0.000    0.000    0.000    0.000 
#
# Total GULP energy -185825.566693 kJ/mol
# GULP energy per Si atom -12388.371113 kJ/mol
# Density = 2.371120 g / cm^3
# Si number density = 23.765287 Si / 1000 Ang^3
#
#
#
# Elastic Constant Matrix: (Units=GPa)
#
#
# Indices 1 2 3 4 5 6 
#
# 1 93.9240 10.2668 9.3656 2.6479 0.0000 0.0000
# 2 10.2668 93.9240 9.3656 -2.6479 0.0000 0.0000
# 3 9.3656 9.3656 121.4313 0.0000 0.0000 0.0000
# 4 2.6479 -2.6479 0.0000 31.0803 0.0000 0.0000
# 5 0.0000 0.0000 0.0000 0.0000 31.0803 2.6479
# 6 0.0000 0.0000 0.0000 0.0000 2.6479 41.8286
#
#
#
# Elastic Compliance Matrix: (Units=1/GPa)
#
#
# Indices 1 2 3 4 5 6 
#
# 1 0.010876 -0.001143 -0.000751 -0.001024 0.000000 0.000000
# 2 -0.001143 0.010876 -0.000751 0.001024 0.000000 0.000000
# 3 -0.000751 -0.000751 0.008351 0.000000 0.000000 0.000000
# 4 -0.001024 0.001024 0.000000 0.032349 0.000000 0.000000
# 5 0.000000 0.000000 0.000000 0.000000 0.032349 -0.002048
# 6 0.000000 0.000000 0.000000 0.000000 -0.002048 0.024037
#
#
# Mechanical properties :
#
#
# Convention : Reuss Voigt Hill
#
# Bulk Modulus (GPa) = 40.30029 40.80840 40.55435
# Shear Modulus (GPa) = 37.76533 39.48326 38.62429
#
# Velocity S-wave (km/s) = 3.99067 4.08043 4.03580
# Velocity P-wave (km/s) = 6.18291 6.27763 6.23045
#
# Compressibility (1/GPa) = 0.02481372
#
# Stress axis : x y z
#
# Youngs Moduli (GPa) = 91.94943 91.94943 119.74758
#
# Poissons Ratio (x) = 0.10508 0.08989
# Poissons Ratio (y) = 0.10508 0.08989
# Poissons Ratio (z) = 0.06902 0.06902
#
# Static dielectric constant tensor:
#      x y z
#    x 4.405280 0.000000 0.000000 
#    y 0.000000 4.405280 0.000000 
#    z 0.000000 0.000000 4.265660 
# 
# 
# High freq. dielectric constant tensor:
#      x y z
#    x 1.965660 0.000000 0.000000 
#    y 0.000000 1.965660 0.000000 
#    z 0.000000 0.000000 1.920610 
# 
# From -- ./inp_files/2538.got.cif
#   From: 2010.03.12/outbox.cif.g09.slc.cpg/sg154_2_cif.got.tgz:2538.got - 2010.04.03 13:51:21.
