data_PCOD8322481
_publ_section_title
;
Structure prediction by ZEFSAII (Michael W. Deem and Ramdas Pophale) SiO2 
 PCOD8322481
Probable space group: R 3 2
;
_chemical_formula_sum "Si O2"
_cell_formula_units_Z 123
_cell_length_a 29.740021
_cell_length_b 29.740021
_cell_length_c 10.207871
_cell_angle_alpha 90.000000
_cell_angle_beta 90.000000
_cell_angle_gamma 120.000000
_cell_volume 7818.948390
_symmetry_space_group_name_H-M "R 3 2"
_symmetry_group_IT_number 155
_symmetry_cell_setting 'hexagonal'
loop_
_space_group_symop_operation_xyz
x,y,z
-y,x-y,z
-x+y,-x,z
x-y,-y,-z
-x,-x+y,-z
y,x,-z
2/3+x,1/3+y,1/3+z
2/3-y,1/3+x-y,1/3+z
2/3-x+y,1/3-x,1/3+z
2/3+x-y,1/3-y,1/3-z
2/3-x,1/3-x+y,1/3-z
2/3+y,1/3+x,1/3-z
1/3+x,2/3+y,2/3+z
1/3-y,2/3+x-y,2/3+z
1/3-x+y,2/3-x,2/3+z
1/3+x-y,2/3-y,2/3-z
1/3-x,2/3-x+y,2/3-z
1/3+y,2/3+x,2/3-z
loop_
_atom_site_type_symbol
_atom_site_label
_atom_site_fract_x
_atom_site_fract_y
_atom_site_fract_z
Si Si1 0.333334 0.026285 0.666667
Si Si2 0.157892 0.554479 0.915197
Si Si3 0.917429 0.251585 0.418848
Si Si4 0.161982 0.436594 0.169028
Si Si5 0.433097 0.769183 0.009341
Si Si6 0.666668 0.333334 0.679484
Si Si7 0.222861 0.498704 0.928165
Si Si8 0.164723 0.938986 0.991990
O O1 0.352106 0.068400 0.552343
O O2 0.282046 0.970013 0.664258
O O3 0.204431 0.541090 0.911819
O O4 0.131199 0.544693 0.773411
O O5 0.113225 0.518729 0.018696
O O6 0.179447 0.614303 0.953523
O O7 0.904258 0.193170 0.453933
O O8 0.867636 0.246586 0.342789
O O9 0.113408 0.446742 0.166667
O O10 0.206305 0.474502 0.071171
O O11 0.440005 0.773338 0.166667
O O12 0.378118 0.721888 0.963582
O O13 0.475606 0.760560 0.932805
O O14 0.666668 0.333334 0.833334
O O15 0.198728 0.455373 0.813531
O O16 0.202853 0.000000 0.000000
#
# Coordination Sequence:
#
# PCOD8322481 Si02
#       8
#     9  18  18  18  18   6  18  18
#     4  10  20  28  46  74  88 136 192 216 240 274
#     4  10  20  33  49  69  95 126 160 211 250 292
#     4  11  20  32  47  66  99 135 178 220 242 284
#     4  10  19  31  48  70  94 123 170 215 245 275
#     4  11  18  32  52  72  92 119 163 212 246 289
#     4   9  18  24  45  76  86 112 159 199 242 283
#     4  10  21  32  47  72  96 125 164 205 253 299
#     4  10  22  34  45  65 101 133 165 204 253 294
#
# _framework density 15.731016
#
# number of rings (size 3 to 8) (size 9 to 14) (size 15 to 20)
#    0.000    1.756    5.122    0.878    4.098    1.171 
#    0.000    0.000    0.000    0.000    0.000    0.000 
#    0.000    0.000    0.000   13.171    0.000    0.000 
#
# Total GULP energy -508140.461938 kJ/mol
# GULP energy per Si atom -12393.669803 kJ/mol
# Density = 1.569521 g / cm^3
# Si number density = 15.731016 Si / 1000 Ang^3
#
#
#
# Elastic Constant Matrix: (Units=GPa)
#
#
# Indices 1 2 3 4 5 6 
#
# 1 67.0808 25.9432 10.8093 -6.1495 -0.0685 -0.0031
# 2 25.9432 67.1752 10.9199 6.1322 -0.0208 -0.0087
# 3 10.8093 10.9199 59.9626 -0.0114 -0.1861 0.0036
# 4 -6.1495 6.1322 -0.0114 18.2106 -0.0059 0.0062
# 5 -0.0685 -0.0208 -0.1861 -0.0059 18.1226 -6.1528
# 6 -0.0031 -0.0087 0.0036 0.0062 -6.1528 20.6084
#
#
#
# Elastic Compliance Matrix: (Units=1/GPa)
#
#
# Indices 1 2 3 4 5 6 
#
# 1 0.019117 -0.007888 -0.002008 0.009111 0.000050 0.000012
# 2 -0.007888 0.019098 -0.002058 -0.009096 -0.000032 0.000001
# 3 -0.002008 -0.002058 0.017414 0.000026 0.000186 0.000051
# 4 0.009111 -0.009096 0.000026 0.061053 0.000041 -0.000009
# 5 0.000050 -0.000032 0.000186 0.000041 0.061406 0.018333
# 6 0.000012 0.000001 0.000051 -0.000009 0.018333 0.053998
#
#
# Mechanical properties :
#
#
# Convention : Reuss Voigt Hill
#
# Bulk Modulus (GPa) = 31.52441 32.17373 31.84907
# Shear Modulus (GPa) = 18.75702 21.15805 19.95753
#
# Velocity S-wave (km/s) = 3.45680 3.67139 3.56571
# Velocity P-wave (km/s) = 6.00132 6.20233 6.10265
#
# Compressibility (1/GPa) = 0.03172145
#
# Stress axis : x y z
#
# Youngs Moduli (GPa) = 52.30969 52.36211 57.42402
#
# Poissons Ratio (x) = 0.41305 0.11529
# Poissons Ratio (y) = 0.41263 0.11816
# Poissons Ratio (z) = 0.10502 0.10775
#
# Static dielectric constant tensor:
#      x y z
#    x 2.772530 0.000070 -0.000370 
#    y 0.000070 2.772650 -0.000070 
#    z -0.000370 -0.000070 2.961010 
# 
# 
# High freq. dielectric constant tensor:
#      x y z
#    x 1.573150 0.000000 -0.000010 
#    y 0.000000 1.573150 0.000000 
#    z -0.000010 0.000000 1.614540 
# 
# From -- ./inp_files/4283.got.cif
#   From: 2010.03.12/outbox.cif.g09.slc.cpg/sg155_3_cif.got.tgz:4283.got - 2010.04.03 13:54:13.
