data_PCOD8322387
_publ_section_title
;
Structure prediction by ZEFSAII (Michael W. Deem and Ramdas Pophale) SiO2 
 PCOD8322387
Probable space group: P 32 2 1
;
_chemical_formula_sum "Si O2"
_cell_formula_units_Z 36
_cell_length_a 12.033896
_cell_length_b 12.033896
_cell_length_c 14.383494
_cell_angle_alpha 90.000000
_cell_angle_beta 90.000000
_cell_angle_gamma 120.000000
_cell_volume 1803.879554
_symmetry_space_group_name_H-M "P 32 2 1"
_symmetry_group_IT_number 154
_symmetry_cell_setting 'hexagonal'
loop_
_space_group_symop_operation_xyz
x,y,z
-y,x-y,2/3+z
-x+y,-x,1/3+z
x-y,-y,1/3-z
-x,-x+y,2/3-z
y,x,-z
loop_
_atom_site_type_symbol
_atom_site_label
_atom_site_fract_x
_atom_site_fract_y
_atom_site_fract_z
Si Si1 0.380237 0.719921 0.221674
Si Si2 0.724569 0.226848 0.305065
Si Si3 0.892520 0.565851 0.460824
Si Si4 0.062864 0.687912 0.991452
Si Si5 0.562856 0.562856 0.000000
Si Si6 0.804357 0.000000 0.666667
Si Si7 0.116640 0.073807 0.394203
O O1 0.402282 0.704998 0.113873
O O2 0.346849 0.587491 0.271778
O O3 0.257918 0.739315 0.229752
O O4 0.505246 0.839336 0.263977
O O5 0.878324 0.296603 0.316821
O O6 0.669415 0.078102 0.286206
O O7 0.920183 0.582856 0.569215
O O8 0.972836 0.501822 0.421983
O O9 0.934834 0.700601 0.413480
O O10 0.085567 0.830021 0.980655
O O11 0.933949 0.104765 0.614063
O O12 0.108311 0.108311 0.500000
O O13 0.000000 0.070349 0.333334
#
# Coordination Sequence:
#
# PCOD8322387 Si02
#       7
#     6   6   6   6   3   3   6
#     4  11  23  43  64  93 132 165 219 271 315 395
#     4  11  23  42  65  94 129 169 215 267 328 383
#     4  10  21  44  66  94 126 174 218 264 324 388
#     4  12  24  40  66  95 133 168 215 268 331 384
#     4   9  22  41  66  92 128 165 222 261 320 388
#     4   9  22  41  68  92 130 169 216 263 324 388
#     4  10  22  40  61  94 132 164 210 260 318 387
#
# _framework density 19.956987999999999
#
# number of rings (size 3 to 8) (size 9 to 14) (size 15 to 20)
#    0.500    1.000    1.667    3.500    1.167    1.333 
#    6.000    0.000    0.000    0.000    0.000    0.000 
#    0.000    0.000    0.000    0.000    0.000    0.000 
#
# Total GULP energy -446432.680438 kJ/mol
# GULP energy per Si atom -12400.907790 kJ/mol
# Density = 1.991156 g / cm^3
# Si number density = 19.956988 Si / 1000 Ang^3
#
#
#
# Elastic Constant Matrix: (Units=GPa)
#
#
# Indices 1 2 3 4 5 6 
#
# 1 101.6747 42.8234 1.5038 1.4453 0.0000 0.0000
# 2 42.8234 101.6747 1.5038 -1.4453 0.0000 0.0000
# 3 1.5038 1.5038 72.6583 0.0000 0.0000 0.0000
# 4 1.4453 -1.4453 0.0000 26.0704 0.0000 0.0000
# 5 0.0000 0.0000 0.0000 0.0000 26.0704 1.4453
# 6 0.0000 0.0000 0.0000 0.0000 1.4453 29.4256
#
#
#
# Elastic Compliance Matrix: (Units=1/GPa)
#
#
# Indices 1 2 3 4 5 6 
#
# 1 0.011981 -0.005057 -0.000143 -0.000945 0.000000 0.000000
# 2 -0.005057 0.011981 -0.000143 0.000945 0.000000 0.000000
# 3 -0.000143 -0.000143 0.013769 0.000000 0.000000 0.000000
# 4 -0.000945 0.000945 0.000000 0.038462 0.000000 0.000000
# 5 0.000000 0.000000 0.000000 0.000000 0.038462 -0.001889
# 6 0.000000 0.000000 0.000000 0.000000 -0.001889 0.034077
#
#
# Mechanical properties :
#
#
# Convention : Reuss Voigt Hill
#
# Bulk Modulus (GPa) = 36.97843 40.85218 38.91531
# Shear Modulus (GPa) = 29.68510 31.65841 30.67175
#
# Velocity S-wave (km/s) = 3.86094 3.98720 3.92458
# Velocity P-wave (km/s) = 6.20041 6.45845 6.33074
#
# Compressibility (1/GPa) = 0.02704279
#
# Stress axis : x y z
#
# Youngs Moduli (GPa) = 83.46594 83.46594 72.62696
#
# Poissons Ratio (x) = 0.42212 0.01041
# Poissons Ratio (y) = 0.42212 0.01041
# Poissons Ratio (z) = 0.01196 0.01196
#
# Static dielectric constant tensor:
#      x y z
#    x 3.599350 0.000000 0.000000 
#    y 0.000000 3.599350 0.000000 
#    z 0.000000 0.000000 3.732090 
# 
# 
# High freq. dielectric constant tensor:
#      x y z
#    x 1.779970 0.000000 0.000000 
#    y 0.000000 1.779970 0.000000 
#    z 0.000000 0.000000 1.793110 
# 
# From -- ./inp_files/2029.got.cif
#   From: 2010.03.12/outbox.cif.g09.slc.cpg/sg154_2_cif.got.tgz:2029.got - 2010.04.03 13:51:21.
