data_PCOD8322086
_publ_section_title
;
Structure prediction by ZEFSAII (Michael W. Deem and Ramdas Pophale) SiO2 
 PCOD8322086
Probable space group: P 31 2 1
;
_chemical_formula_sum "Si O2"
_cell_formula_units_Z 36
_cell_length_a 9.064645
_cell_length_b 9.064645
_cell_length_c 25.314016
_cell_angle_alpha 90.000000
_cell_angle_beta 90.000000
_cell_angle_gamma 120.000000
_cell_volume 1801.330003
_symmetry_space_group_name_H-M "P 31 2 1"
_symmetry_group_IT_number 152
_symmetry_cell_setting 'hexagonal'
loop_
_space_group_symop_operation_xyz
x,y,z
-y,x-y,1/3+z
-x+y,-x,2/3+z
x-y,-y,2/3-z
-x,-x+y,1/3-z
y,x,-z
loop_
_atom_site_type_symbol
_atom_site_label
_atom_site_fract_x
_atom_site_fract_y
_atom_site_fract_z
Si Si1 0.689478 0.367208 0.975505
Si Si2 0.049383 0.049383 0.500000
Si Si3 0.458016 0.339061 0.210182
Si Si4 0.976590 0.324987 0.338674
Si Si5 0.295136 0.000000 0.333334
Si Si6 0.282158 0.944537 0.539073
Si Si7 0.872233 0.025297 0.067308
O O1 0.718620 0.414811 0.913123
O O2 0.854591 0.363721 0.997472
O O3 0.679822 0.516335 0.007867
O O4 0.516504 0.185195 0.981018
O O5 0.075666 0.234098 0.488176
O O6 0.943694 0.935996 0.450127
O O7 0.543568 0.527069 0.188690
O O8 0.404340 0.234790 0.156146
O O9 0.300376 0.318851 0.246135
O O10 0.021060 0.196320 0.307728
O O11 0.928979 0.253991 0.398048
O O12 0.193944 0.024603 0.284913
#
# Coordination Sequence:
#
# PCOD8322086 Si02
#       7
#     6   3   6   6   3   6   6
#     4  10  22  38  60  88 119 153 197 247 297 353
#     4  10  22  36  56  84 114 148 190 242 294 346
#     4   9  21  40  58  83 120 156 191 243 298 355
#     4  11  22  40  63  88 117 158 202 246 298 357
#     4  10  20  36  58  86 114 148 190 238 286 344
#     4  10  21  38  59  82 115 153 193 240 296 353
#     4  10  21  39  59  81 117 153 193 243 293 349
#
# _framework density 19.985232
#
# number of rings (size 3 to 8) (size 9 to 14) (size 15 to 20)
#    0.000    2.000    0.000    4.000    0.000   10.000 
#    0.000    3.333    0.000    1.000    0.000    0.000 
#    0.000    0.000    0.000    0.000    0.000    0.000 
#
# Total GULP energy -446083.104600 kJ/mol
# GULP energy per Si atom -12391.197350 kJ/mol
# Density = 1.993974 g / cm^3
# Si number density = 19.985232 Si / 1000 Ang^3
#
#
#
# Elastic Constant Matrix: (Units=GPa)
#
#
# Indices 1 2 3 4 5 6 
#
# 1 87.7799 29.2469 36.3779 5.1057 0.0000 0.0000
# 2 29.2469 87.7799 36.3779 -5.1057 0.0000 0.0000
# 3 36.3779 36.3779 105.7135 0.0000 0.0000 0.0000
# 4 5.1057 -5.1057 0.0000 28.1635 0.0000 0.0000
# 5 0.0000 0.0000 0.0000 0.0000 28.1635 5.1057
# 6 0.0000 0.0000 0.0000 0.0000 5.1057 29.2665
#
#
#
# Elastic Compliance Matrix: (Units=1/GPa)
#
#
# Indices 1 2 3 4 5 6 
#
# 1 0.014257 -0.003386 -0.003741 -0.003198 0.000000 0.000000
# 2 -0.003386 0.014257 -0.003741 0.003198 0.000000 0.000000
# 3 -0.003741 -0.003741 0.012034 0.000000 0.000000 0.000000
# 4 -0.003198 0.003198 0.000000 0.036667 0.000000 0.000000
# 5 0.000000 0.000000 0.000000 0.000000 0.036667 -0.006397
# 6 0.000000 0.000000 0.000000 0.000000 -0.006397 0.035285
#
#
# Mechanical properties :
#
#
# Convention : Reuss Voigt Hill
#
# Bulk Modulus (GPa) = 53.15673 53.91985 53.53829
# Shear Modulus (GPa) = 28.22141 29.07009 28.64575
#
# Velocity S-wave (km/s) = 3.76189 3.81803 3.79006
# Velocity P-wave (km/s) = 6.74721 6.81725 6.78232
#
# Compressibility (1/GPa) = 0.01881229
#
# Stress axis : x y z
#
# Youngs Moduli (GPa) = 70.14336 70.14336 83.09735
#
# Poissons Ratio (x) = 0.23749 0.31085
# Poissons Ratio (y) = 0.23749 0.31085
# Poissons Ratio (z) = 0.26239 0.26239
#
# Static dielectric constant tensor:
#      x y z
#    x 3.734910 0.000000 0.000000 
#    y 0.000000 3.734910 0.000000 
#    z 0.000000 0.000000 3.701940 
# 
# 
# High freq. dielectric constant tensor:
#      x y z
#    x 1.782100 0.000000 0.000000 
#    y 0.000000 1.782100 0.000000 
#    z 0.000000 0.000000 1.781170 
# 
# From -- ./inp_files/3426.got.cif
#   From: 2010.03.12/outbox.cif.g09.slc.cpg/sg152_2_cif.got.tgz:3426.got - 2010.04.03 13:45:27.
