data_PCOD8322070
_publ_section_title
;
Structure prediction by ZEFSAII (Michael W. Deem and Ramdas Pophale) SiO2 
 PCOD8322070
Probable space group: P 31 2 1
;
_chemical_formula_sum "Si O2"
_cell_formula_units_Z 30
_cell_length_a 8.996090
_cell_length_b 8.996090
_cell_length_c 20.423512
_cell_angle_alpha 90.000000
_cell_angle_beta 90.000000
_cell_angle_gamma 120.000000
_cell_volume 1431.425138
_symmetry_space_group_name_H-M "P 31 2 1"
_symmetry_group_IT_number 152
_symmetry_cell_setting 'hexagonal'
loop_
_space_group_symop_operation_xyz
x,y,z
-y,x-y,1/3+z
-x+y,-x,2/3+z
x-y,-y,2/3-z
-x,-x+y,1/3-z
y,x,-z
loop_
_atom_site_type_symbol
_atom_site_label
_atom_site_fract_x
_atom_site_fract_y
_atom_site_fract_z
Si Si1 0.558062 0.091834 0.955567
Si Si2 0.407806 0.598382 0.790964
Si Si3 0.718217 0.812544 0.564097
Si Si4 0.188017 0.317287 0.690870
Si Si5 0.571369 0.182965 0.099221
O O1 0.671117 0.209002 0.896047
O O2 0.360313 0.014034 0.938463
O O3 0.591815 0.207675 0.020907
O O4 0.609536 0.944454 0.967451
O O5 0.251222 0.463749 0.745856
O O6 0.580211 0.586418 0.783762
O O7 0.336399 0.558386 0.865794
O O8 0.828633 0.828633 0.500000
O O9 0.553943 0.818595 0.537290
O O10 0.830174 0.972688 0.611944
O O11 0.000000 0.273621 0.666667
#
# Coordination Sequence:
#
# PCOD8322070 Si02
#       5
#     6   6   6   6   6
#     4  10  20  40  63  83 112 161 197 230 292 358
#     4  10  21  38  59  83 118 152 193 242 285 346
#     4  10  19  39  61  83 115 155 195 233 286 356
#     4  10  22  40  57  85 122 148 189 249 294 334
#     4  10  20  36  58  86 117 148 194 242 284 340
#
# _framework density 20.958131999999999
#
# number of rings (size 3 to 8) (size 9 to 14) (size 15 to 20)
#    0.000    2.400    2.000    4.800    0.000    3.200 
#   14.400    1.000    0.000    0.000    0.000    0.000 
#    0.000    0.000    0.000    0.000    0.000    0.000 
#
# Total GULP energy -371840.461254 kJ/mol
# GULP energy per Si atom -12394.682042 kJ/mol
# Density = 2.091043 g / cm^3
# Si number density = 20.958132 Si / 1000 Ang^3
#
#
#
# Elastic Constant Matrix: (Units=GPa)
#
#
# Indices 1 2 3 4 5 6 
#
# 1 40.9853 -10.9694 5.3884 8.7408 0.0001 0.0000
# 2 -10.9694 40.9853 5.3884 -8.7408 -0.0001 0.0000
# 3 5.3884 5.3884 47.4911 0.0000 0.0000 0.0000
# 4 8.7408 -8.7408 0.0000 25.9755 0.0000 -0.0001
# 5 0.0001 -0.0001 0.0000 0.0000 25.9755 8.7408
# 6 0.0000 0.0000 0.0000 -0.0001 8.7408 25.9773
#
#
#
# Elastic Compliance Matrix: (Units=1/GPa)
#
#
# Indices 1 2 3 4 5 6 
#
# 1 0.028218 0.006513 -0.003941 -0.007304 0.000000 0.000000
# 2 0.006513 0.028218 -0.003941 0.007304 0.000000 0.000000
# 3 -0.003941 -0.003941 0.021951 0.000000 0.000000 0.000000
# 4 -0.007304 0.007304 0.000000 0.043413 0.000000 0.000000
# 5 0.000000 0.000000 0.000000 0.000000 0.043413 -0.014608
# 6 0.000000 0.000000 0.000000 0.000000 -0.014608 0.043410
#
#
# Mechanical properties :
#
#
# Convention : Reuss Voigt Hill
#
# Bulk Modulus (GPa) = 13.21889 14.34187 13.78038
# Shear Modulus (GPa) = 21.13480 24.22928 22.68204
#
# Velocity S-wave (km/s) = 3.17902 3.40381 3.29333
# Velocity P-wave (km/s) = 4.44926 4.72290 4.58812
#
# Compressibility (1/GPa) = 0.07564931
#
# Stress axis : x y z
#
# Youngs Moduli (GPa) = 35.43866 35.43866 45.55649
#
# Poissons Ratio (x) = -0.23080 0.17952
# Poissons Ratio (y) = -0.23080 0.17952
# Poissons Ratio (z) = 0.13965 0.13965
#
# Static dielectric constant tensor:
#      x y z
#    x 3.738780 0.000000 0.000000 
#    y 0.000000 3.738780 0.000000 
#    z 0.000000 0.000000 3.740880 
# 
# 
# High freq. dielectric constant tensor:
#      x y z
#    x 1.808090 0.000000 0.000000 
#    y 0.000000 1.808090 0.000000 
#    z 0.000000 0.000000 1.816480 
# 
# From -- ./inp_files/2990.got.cif
#   From: 2010.03.12/outbox.cif.g09.slc.cpg/sg152_2_cif.got.tgz:2990.got - 2010.04.03 13:45:27.
