data_PCOD8322706
_publ_section_title
;
Structure prediction by ZEFSAII (Michael W. Deem and Ramdas Pophale) SiO2 
 PCOD8322706
Probable space group: P 3 M 1
;
_chemical_formula_sum "Si O2"
_cell_formula_units_Z 48
_cell_length_a 12.302435
_cell_length_b 12.302435
_cell_length_c 20.394634
_cell_angle_alpha 90.000000
_cell_angle_beta 90.000000
_cell_angle_gamma 120.000000
_cell_volume 2673.183094
_symmetry_space_group_name_H-M "P 3 M 1"
_symmetry_group_IT_number 156
_symmetry_cell_setting 'hexagonal'
loop_
_space_group_symop_operation_xyz
x,y,z
-y,x-y,z
-x+y,-x,z
-x+y,y,z
x,x-y,z
-y,-x,z
loop_
_atom_site_type_symbol
_atom_site_label
_atom_site_fract_x
_atom_site_fract_y
_atom_site_fract_z
Si Si1 0.332182 0.414195 0.534550
Si Si2 0.252575 0.999958 0.159001
Si Si3 0.332225 0.918003 0.784345
Si Si4 0.000044 0.747959 0.909115
Si Si5 0.917841 0.332341 0.034501
Si Si6 0.585791 0.667666 0.284595
Si Si7 0.001096 0.252615 0.659505
Si Si8 0.251860 0.998898 0.409289
O O1 0.228575 0.457149 0.530041
O O2 0.466513 0.533488 0.522066
O O3 0.330507 0.356615 0.605138
O O4 0.306586 0.310325 0.480049
O O5 0.128226 0.871775 0.141584
O O6 0.307346 0.995675 0.229422
O O7 0.217859 0.108929 0.159127
O O8 0.356212 0.023849 0.104671
O O9 0.466659 0.933318 0.771894
O O10 0.228303 0.771698 0.778977
O O11 0.330100 0.972870 0.855168
O O12 0.307223 0.997330 0.730178
O O13 0.107730 0.892271 0.910004
O O14 0.871166 0.742332 0.890866
O O15 0.995070 0.688510 0.979488
O O16 0.932917 0.466459 0.021438
O O17 0.771467 0.228534 0.031703
O O18 0.543612 0.771806 0.281966
O O19 0.466035 0.533966 0.271784
O O20 0.644209 0.667511 0.354709
O O21 0.866978 0.133023 0.647007
O O22 0.105118 0.210236 0.654721
O O23 0.105956 0.894045 0.403474
O O24 0.265189 0.132595 0.397715
#
# Coordination Sequence:
#
# PCOD8322706 Si02
#       8
#     6   6   6   6   6   6   6   6
#     4  10  20  34  54  78 104 134 168 208 252 300
#     4  10  20  34  54  78 104 134 168 210 256 302
#     4  10  20  34  53  76 103 135 170 210 254 301
#     4  10  20  34  54  78 104 134 168 210 256 302
#     4  10  20  34  52  74 102 136 172 208 248 298
#     4  10  20  34  53  76 103 135 170 210 254 301
#     4  10  20  34  54  78 104 134 168 210 256 302
#     4  10  20  34  54  78 104 134 168 210 256 302
#
# _framework density 17.956121
#
# number of rings (size 3 to 8) (size 9 to 14) (size 15 to 20)
#    0.000    2.000    0.000    4.000    0.000    0.000 
#    0.000    7.500    0.000   17.000    0.000    0.000 
#    0.000    0.000    0.000    0.000    0.000    0.000 
#
# Total GULP energy -595438.323659 kJ/mol
# GULP energy per Si atom -12404.965076 kJ/mol
# Density = 1.791525 g / cm^3
# Si number density = 17.956121 Si / 1000 Ang^3
#
#
#
# Elastic Constant Matrix: (Units=GPa)
#
#
# Indices 1 2 3 4 5 6 
#
# 1 80.4931 37.8106 10.4327 -0.3226 -0.0002 0.0000
# 2 37.8106 80.4931 10.4327 0.3226 0.0002 0.0000
# 3 10.4327 10.4327 79.4827 0.0000 0.0000 0.0000
# 4 -0.3226 0.3226 0.0000 19.1365 0.0000 0.0002
# 5 -0.0002 0.0002 0.0000 0.0000 19.1365 -0.3226
# 6 0.0000 0.0000 0.0000 0.0002 -0.3226 21.3412
#
#
#
# Elastic Compliance Matrix: (Units=1/GPa)
#
#
# Indices 1 2 3 4 5 6 
#
# 1 0.016044 -0.007391 -0.001136 0.000395 0.000000 0.000000
# 2 -0.007391 0.016044 -0.001136 -0.000395 0.000000 0.000000
# 3 -0.001136 -0.001136 0.012880 0.000000 0.000000 0.000000
# 4 0.000395 -0.000395 0.000000 0.052270 0.000000 0.000000
# 5 0.000000 0.000000 0.000000 0.000000 0.052270 0.000790
# 6 0.000000 0.000000 0.000000 0.000000 0.000790 0.046870
#
#
# Mechanical properties :
#
#
# Convention : Reuss Voigt Hill
#
# Bulk Modulus (GPa) = 38.99757 39.75790 39.37773
# Shear Modulus (GPa) = 22.29670 24.04236 23.16953
#
# Velocity S-wave (km/s) = 3.52765 3.66314 3.59603
# Velocity P-wave (km/s) = 6.19337 6.33097 6.26255
#
# Compressibility (1/GPa) = 0.02564262
#
# Stress axis : x y z
#
# Youngs Moduli (GPa) = 62.32874 62.32874 77.64268
#
# Poissons Ratio (x) = 0.46066 0.08819
# Poissons Ratio (y) = 0.46066 0.08819
# Poissons Ratio (z) = 0.07079 0.07079
#
# Static dielectric constant tensor:
#      x y z
#    x 3.171170 0.000000 0.000000 
#    y 0.000000 3.171170 0.000000 
#    z 0.000000 0.000000 3.504250 
# 
# 
# High freq. dielectric constant tensor:
#      x y z
#    x 1.691290 0.000000 0.000000 
#    y 0.000000 1.691290 0.000000 
#    z 0.000000 0.000000 1.714550 
# 
# From -- ./inp_files/1089.got.cif
#   From: 2010.03.12/outbox.cif.g09.slc.cpg/sg156_cif.got.tgz:1089.got - 2010.04.03 13:58:47.
