data_PCOD8322633
_publ_section_title
;
Structure prediction by ZEFSAII (Michael W. Deem and Ramdas Pophale) SiO2 
 PCOD8322633
Probable space group: R 3 2
;
_chemical_formula_sum "Si O2"
_cell_formula_units_Z 84
_cell_length_a 17.242700
_cell_length_b 17.242700
_cell_length_c 15.086358
_cell_angle_alpha 90.000000
_cell_angle_beta 90.000000
_cell_angle_gamma 120.000000
_cell_volume 3884.414667
_symmetry_space_group_name_H-M "R 3 2"
_symmetry_group_IT_number 155
_symmetry_cell_setting 'hexagonal'
loop_
_space_group_symop_operation_xyz
x,y,z
-y,x-y,z
-x+y,-x,z
x-y,-y,-z
-x,-x+y,-z
y,x,-z
2/3+x,1/3+y,1/3+z
2/3-y,1/3+x-y,1/3+z
2/3-x+y,1/3-x,1/3+z
2/3+x-y,1/3-y,1/3-z
2/3-x,1/3-x+y,1/3-z
2/3+y,1/3+x,1/3-z
1/3+x,2/3+y,2/3+z
1/3-y,2/3+x-y,2/3+z
1/3-x+y,2/3-x,2/3+z
1/3+x-y,2/3-y,2/3-z
1/3-x,2/3-x+y,2/3-z
1/3+y,2/3+x,2/3-z
loop_
_atom_site_type_symbol
_atom_site_label
_atom_site_fract_x
_atom_site_fract_y
_atom_site_fract_z
Si Si1 0.219105 0.742841 0.737245
Si Si2 0.333333 0.666667 0.021863
Si Si3 0.000000 0.606000 0.500000
Si Si4 0.114229 0.190405 0.429425
Si Si5 0.333334 0.666667 0.521853
Si Si6 0.000000 0.605999 0.000000
Si Si7 0.666667 0.600885 0.333334
Si Si8 0.065780 0.399113 0.166667
O O1 0.162517 0.666667 0.666667
O O2 0.157009 0.735391 0.819787
O O3 0.302899 0.735105 0.774448
O O4 0.250558 0.838075 0.692022
O O5 0.363767 0.765540 0.058895
O O6 0.333334 0.666667 0.916672
O O7 0.986929 0.653596 0.583334
O O8 0.170824 0.170824 0.500000
O O9 0.176322 0.245049 0.346881
O O10 0.082778 0.254187 0.474649
O O11 0.640748 0.640748 0.250001
#
# Coordination Sequence:
#
# PCOD8322633 Si02
#       8
#    18   6   9  18   6   9   9   9
#     4  12  25  49  75 107 153 200 253 316 380 451
#     4  12  25  47  79 108 145 206 259 313 386 463
#     4  12  27  44  71 112 152 194 248 316 385 454
#     4  12  25  49  75 107 153 200 253 316 380 451
#     4  12  25  47  79 108 145 206 259 313 386 463
#     4  12  27  44  71 112 152 194 248 316 385 454
#     4  12  29  50  79 112 158 202 254 312 385 462
#     4  12  29  50  79 112 158 202 254 312 385 462
#
# _framework density 21.624879
#
# number of rings (size 3 to 8) (size 9 to 14) (size 15 to 20)
#    0.000    0.000    6.429    2.571    6.000    5.143 
#    0.000    0.000    0.000    0.000    0.000    0.000 
#    0.000    0.000    0.000    0.000    0.000    0.000 
#
# Total GULP energy -347375.267752 kJ/mol
# GULP energy per Si atom -12406.259563 kJ/mol
# Density = 2.157566 g / cm^3
# Si number density = 21.624879 Si / 1000 Ang^3
#
#
#
# Elastic Constant Matrix: (Units=GPa)
#
#
# Indices 1 2 3 4 5 6 
#
# 1 109.2434 73.2574 64.7902 -7.0127 0.0010 0.0000
# 2 73.2574 109.2437 64.7900 7.0131 -0.0010 0.0000
# 3 64.7902 64.7900 160.2224 -0.0001 0.0000 0.0000
# 4 -7.0127 7.0131 -0.0001 37.2033 0.0000 -0.0010
# 5 0.0010 -0.0010 0.0000 0.0000 37.2029 -7.0129
# 6 0.0000 0.0000 0.0000 -0.0010 -7.0129 17.9923
#
#
#
# Elastic Compliance Matrix: (Units=1/GPa)
#
#
# Indices 1 2 3 4 5 6 
#
# 1 0.018839 -0.011153 -0.003108 0.005653 -0.000001 0.000000
# 2 -0.011153 0.018839 -0.003108 -0.005654 0.000001 0.000000
# 3 -0.003108 -0.003108 0.008755 0.000000 0.000000 0.000000
# 4 0.005653 -0.005654 0.000000 0.029011 0.000000 0.000002
# 5 -0.000001 0.000001 0.000000 0.000000 0.029011 0.011308
# 6 0.000000 0.000000 0.000000 0.000002 0.011308 0.059987
#
#
# Mechanical properties :
#
#
# Convention : Reuss Voigt Hill
#
# Bulk Modulus (GPa) = 85.50647 87.15386 86.33016
# Shear Modulus (GPa) = 24.62099 30.20448 27.41273
#
# Velocity S-wave (km/s) = 3.37790 3.74136 3.56427
# Velocity P-wave (km/s) = 7.40542 7.68465 7.54632
#
# Compressibility (1/GPa) = 0.01169502
#
# Stress axis : x y z
#
# Youngs Moduli (GPa) = 53.08094 53.08114 114.21985
#
# Poissons Ratio (x) = 0.59200 0.35502
# Poissons Ratio (y) = 0.59200 0.35501
# Poissons Ratio (z) = 0.16498 0.16498
#
# Static dielectric constant tensor:
#      x y z
#    x 4.026740 0.000000 0.000000 
#    y 0.000000 4.026730 -0.000010 
#    z 0.000000 -0.000010 3.458850 
# 
# 
# High freq. dielectric constant tensor:
#      x y z
#    x 1.859270 0.000000 0.000000 
#    y 0.000000 1.859270 0.000000 
#    z 0.000000 0.000000 1.859030 
# 
# From -- ./inp_files/5036.got.cif
#   From: 2010.03.12/outbox.cif.g09.slc.cpg/sg155_3_cif.got.tgz:5036.got - 2010.04.03 13:54:13.
