data_PCOD8322276
_publ_section_title
;
Structure prediction by ZEFSAII (Michael W. Deem and Ramdas Pophale) SiO2 
 PCOD8322276
Probable space group: P 32 1 2
;
_chemical_formula_sum "Si O2"
_cell_formula_units_Z 42
_cell_length_a 11.682029
_cell_length_b 11.682029
_cell_length_c 16.587853
_cell_angle_alpha 90.000000
_cell_angle_beta 90.000000
_cell_angle_gamma 120.000000
_cell_volume 1960.457220
_symmetry_space_group_name_H-M "P 32 1 2"
_symmetry_group_IT_number 153
_symmetry_cell_setting 'hexagonal'
loop_
_space_group_symop_operation_xyz
x,y,z
-y,x-y,2/3+z
-x+y,-x,1/3+z
-y,-x,1/3-z
-x+y,y,2/3-z
x,x-y,-z
loop_
_atom_site_type_symbol
_atom_site_label
_atom_site_fract_x
_atom_site_fract_y
_atom_site_fract_z
Si Si1 0.099706 0.764761 0.526980
Si Si2 0.886877 0.119471 0.945730
Si Si3 0.948543 0.261405 0.221573
Si Si4 0.956765 0.913531 0.333334
Si Si5 0.085787 0.340487 0.644337
Si Si6 0.362488 0.942705 0.277804
Si Si7 0.492207 0.931509 0.568079
Si Si8 0.483600 0.741800 0.000000
O O1 0.099886 0.691687 0.443592
O O2 0.140315 0.712307 0.604880
O O3 0.952464 0.737354 0.540713
O O4 0.202442 0.920033 0.510668
O O5 0.932140 0.273127 0.936077
O O6 0.999874 0.077150 0.938020
O O7 0.817602 0.065716 0.031081
O O8 0.820379 0.179622 0.166667
O O9 0.964726 0.404881 0.236690
O O10 0.815780 0.822710 0.290260
O O11 0.230932 0.400996 0.681797
O O12 0.005208 0.375838 0.709697
O O13 0.489449 0.978897 0.333334
O O14 0.382920 0.899953 0.188935
O O15 0.389664 0.791318 0.612822
#
# Coordination Sequence:
#
# PCOD8322276 Si02
#       8
#     6   6   6   3   6   6   6   3
#     4  11  20  39  66 107 133 165 228 285 362 407
#     4  11  20  39  70 103 136 168 227 299 358 412
#     4  11  20  40  72 101 130 171 230 292 344 415
#     4  10  21  42  64 104 138 173 222 286 370 406
#     4  11  26  39  64  98 140 188 216 286 346 424
#     4  11  24  44  65  98 134 185 232 284 346 421
#     4  11  24  44  63  94 142 175 231 276 342 423
#     4  10  21  44  68  96 128 179 226 290 324 410
#
# _framework density 21.423573000000001
#
# number of rings (size 3 to 8) (size 9 to 14) (size 15 to 20)
#    0.000    1.143    4.286    4.714    3.000    0.571 
#    5.143    0.000    4.714    0.000    0.000    0.000 
#    0.000    0.000    0.000    0.000    0.000    0.000 
#
# Total GULP energy -520484.318780 kJ/mol
# GULP energy per Si atom -12392.483780 kJ/mol
# Density = 2.137481 g / cm^3
# Si number density = 21.423573 Si / 1000 Ang^3
#
#
#
# Elastic Constant Matrix: (Units=GPa)
#
#
# Indices 1 2 3 4 5 6 
#
# 1 99.1044 42.6433 44.9318 -0.0001 -2.0628 0.0000
# 2 42.6433 99.1044 44.9318 0.0001 2.0628 0.0000
# 3 44.9318 44.9318 173.1682 0.0000 0.0000 0.0000
# 4 -0.0001 0.0001 0.0000 29.6818 0.0000 2.0628
# 5 -2.0628 2.0628 0.0000 0.0000 29.6818 -0.0001
# 6 0.0000 0.0000 0.0000 2.0628 -0.0001 28.2305
#
#
#
# Elastic Compliance Matrix: (Units=1/GPa)
#
#
# Indices 1 2 3 4 5 6 
#
# 1 0.013123 -0.004679 -0.002191 0.000000 0.001237 0.000000
# 2 -0.004679 0.013123 -0.002191 0.000000 -0.001237 0.000000
# 3 -0.002191 -0.002191 0.006912 0.000000 0.000000 0.000000
# 4 0.000000 0.000000 0.000000 0.033863 0.000000 -0.002474
# 5 0.001237 -0.001237 0.000000 0.000000 0.033863 0.000000
# 6 0.000000 0.000000 0.000000 -0.002474 0.000000 0.035603
#
#
# Mechanical properties :
#
#
# Convention : Reuss Voigt Hill
#
# Bulk Modulus (GPa) = 66.50886 70.71011 68.60948
# Shear Modulus (GPa) = 31.32454 33.44349 32.38402
#
# Velocity S-wave (km/s) = 3.82796 3.95531 3.89216
# Velocity P-wave (km/s) = 7.11687 7.34416 7.23141
#
# Compressibility (1/GPa) = 0.01503559
#
# Stress axis : x y z
#
# Youngs Moduli (GPa) = 76.20364 76.20364 144.68283
#
# Poissons Ratio (x) = 0.35656 0.31698
# Poissons Ratio (y) = 0.35656 0.31698
# Poissons Ratio (z) = 0.16695 0.16695
#
# Static dielectric constant tensor:
#      x y z
#    x 3.936260 0.000000 0.000000 
#    y 0.000000 3.936260 0.000000 
#    z 0.000000 0.000000 4.007790 
# 
# 
# High freq. dielectric constant tensor:
#      x y z
#    x 1.825640 0.000000 0.000000 
#    y 0.000000 1.825640 0.000000 
#    z 0.000000 0.000000 1.855460 
# 
# From -- ./inp_files/3596.got.cif
#   From: 2010.03.12/outbox.cif.g09.slc.cpg/sg153_2_cif.got.tgz:3596.got - 2010.04.03 13:48:33.
