data_PCOD8322614
_publ_section_title
;
Structure prediction by ZEFSAII (Michael W. Deem and Ramdas Pophale) SiO2 
 PCOD8322614
Probable space group: R 3 2
;
_chemical_formula_sum "Si O2"
_cell_formula_units_Z 48
_cell_length_a 11.390783
_cell_length_b 11.390783
_cell_length_c 19.817917
_cell_angle_alpha 90.000000
_cell_angle_beta 90.000000
_cell_angle_gamma 120.000000
_cell_volume 2226.874764
_symmetry_space_group_name_H-M "R 3 2"
_symmetry_group_IT_number 155
_symmetry_cell_setting 'hexagonal'
loop_
_space_group_symop_operation_xyz
x,y,z
-y,x-y,z
-x+y,-x,z
x-y,-y,-z
-x,-x+y,-z
y,x,-z
2/3+x,1/3+y,1/3+z
2/3-y,1/3+x-y,1/3+z
2/3-x+y,1/3-x,1/3+z
2/3+x-y,1/3-y,1/3-z
2/3-x,1/3-x+y,1/3-z
2/3+y,1/3+x,1/3-z
1/3+x,2/3+y,2/3+z
1/3-y,2/3+x-y,2/3+z
1/3-x+y,2/3-x,2/3+z
1/3+x-y,2/3-y,2/3-z
1/3-x,2/3-x+y,2/3-z
1/3+y,2/3+x,2/3-z
loop_
_atom_site_type_symbol
_atom_site_label
_atom_site_fract_x
_atom_site_fract_y
_atom_site_fract_z
Si Si1 0.612798 0.843084 0.517316
Si Si2 0.333334 0.666668 0.085746
Si Si3 0.333334 0.666668 0.584593
Si Si4 0.436675 0.063019 0.930819
O O1 0.469367 0.791057 0.553802
O O2 0.608393 0.762702 0.448573
O O3 0.706608 0.815591 0.566906
O O4 0.672457 0.000000 0.500000
O O5 0.333334 0.666668 0.166667
O O6 0.414955 0.821512 0.058496
O O7 0.333334 0.666668 0.666667
O O8 0.360564 0.000000 0.000000
#
# Coordination Sequence:
#
# PCOD8322614 Si02
#       4
#    18   6   6  18
#     4  11  24  47  70 101 143 187 241 303 360 443
#     4  12  18  46  68 103 141 186 247 296 352 423
#     4  12  30  49  71 106 153 190 230 307 393 447
#     4  11  22  40  73 105 142 187 244 301 358 422
#
# _framework density 21.554872
#
# number of rings (size 3 to 8) (size 9 to 14) (size 15 to 20)
#    0.000    0.750    7.500    1.125    5.250    4.500 
#    0.000    0.000    0.000    0.000    0.000    0.000 
#    0.000    0.000    0.000    0.000    0.000    0.000 
#
# Total GULP energy -198292.809680 kJ/mol
# GULP energy per Si atom -12393.300605 kJ/mol
# Density = 2.150581 g / cm^3
# Si number density = 21.554872 Si / 1000 Ang^3
#
#
#
# Elastic Constant Matrix: (Units=GPa)
#
#
# Indices 1 2 3 4 5 6 
#
# 1 115.6701 41.5452 63.9533 -0.3082 -0.0001 0.0000
# 2 41.5452 115.6721 63.9532 0.3075 0.0001 0.0000
# 3 63.9533 63.9532 149.3131 -0.0002 -0.0001 0.0001
# 4 -0.3082 0.3075 -0.0002 27.0467 0.0001 0.0000
# 5 -0.0001 0.0001 -0.0001 0.0001 27.0463 -0.3080
# 6 0.0000 0.0000 0.0001 0.0000 -0.3080 37.0631
#
#
#
# Elastic Compliance Matrix: (Units=1/GPa)
#
#
# Indices 1 2 3 4 5 6 
#
# 1 0.011627 -0.001865 -0.004182 0.000154 0.000000 0.000000
# 2 -0.001865 0.011627 -0.004181 -0.000153 0.000000 0.000000
# 3 -0.004182 -0.004181 0.010279 0.000000 0.000000 0.000000
# 4 0.000154 -0.000153 0.000000 0.036977 0.000000 0.000000
# 5 0.000000 0.000000 0.000000 0.000000 0.036977 0.000307
# 6 0.000000 0.000000 0.000000 0.000000 0.000307 0.026984
#
#
# Mechanical properties :
#
#
# Convention : Reuss Voigt Hill
#
# Bulk Modulus (GPa) = 76.46081 79.95097 78.20589
# Shear Modulus (GPa) = 31.39014 32.31146 31.85080
#
# Velocity S-wave (km/s) = 3.82028 3.87593 3.84821
# Velocity P-wave (km/s) = 7.41680 7.56326 7.49039
#
# Compressibility (1/GPa) = 0.01307860
#
# Stress axis : x y z
#
# Youngs Moduli (GPa) = 86.00409 86.00612 97.28257
#
# Poissons Ratio (x) = 0.16037 0.40679
# Poissons Ratio (y) = 0.16037 0.40678
# Poissons Ratio (z) = 0.35963 0.35963
#
# Static dielectric constant tensor:
#      x y z
#    x 4.093870 0.000000 0.000000 
#    y 0.000000 4.093850 0.000030 
#    z 0.000000 0.000030 4.144990 
# 
# 
# High freq. dielectric constant tensor:
#      x y z
#    x 1.846090 0.000000 0.000000 
#    y 0.000000 1.846090 0.000000 
#    z 0.000000 0.000000 1.837310 
# 
# From -- ./inp_files/6561.got.cif
#   From: 2010.03.12/outbox.cif.g09.slc.cpg/sg155_4_cif.got.tgz:6561.got - 2010.04.03 13:54:13.
