data_PCOD8322763
_publ_section_title
;
Structure prediction by ZEFSAII (Michael W. Deem and Ramdas Pophale) SiO2 
 PCOD8322763
Probable space group: P 3 C 1
;
_chemical_formula_sum "Si O2"
_cell_formula_units_Z 34
_cell_length_a 10.760244
_cell_length_b 10.760244
_cell_length_c 18.645036
_cell_angle_alpha 90.000000
_cell_angle_beta 90.000000
_cell_angle_gamma 120.000000
_cell_volume 1869.554358
_symmetry_space_group_name_H-M "P 3 C 1"
_symmetry_group_IT_number 158
_symmetry_cell_setting 'hexagonal'
loop_
_space_group_symop_operation_xyz
x,y,z
-y,x-y,z
-x+y,-x,z
-x+y,y,1/2+z
x,x-y,1/2+z
-y,-x,1/2+z
loop_
_atom_site_type_symbol
_atom_site_label
_atom_site_fract_x
_atom_site_fract_y
_atom_site_fract_z
Si Si1 0.846868 0.143948 0.980560
Si Si2 0.000000 0.000000 0.908011
Si Si3 0.049861 0.687691 0.597906
Si Si4 0.830896 0.683828 0.703392
Si Si5 0.770610 0.514262 0.346173
Si Si6 0.000000 0.000000 0.737581
Si Si7 0.610917 0.966110 0.092254
O O1 0.819038 0.238621 0.924373
O O2 0.886483 0.041465 0.936857
O O3 0.973342 0.248924 0.033795
O O4 0.700041 0.039521 0.020974
O O5 0.000000 0.000000 0.822784
O O6 0.210253 0.818155 0.608784
O O7 0.061816 0.548204 0.580722
O O8 0.955186 0.659238 0.669730
O O9 0.799938 0.631670 0.784581
O O10 0.685113 0.606294 0.657396
O O11 0.880639 0.850859 0.704556
O O12 0.597070 0.426949 0.338703
#
# Coordination Sequence:
#
# PCOD8322763 Si02
#       7
#     6   2   6   6   6   2   6
#     4  11  22  39  62  89 118 157 203 247 300 364
#     4  12  21  37  68  94 111 154 200 265 300 346
#     4  11  23  38  60  86 123 159 202 244 302 357
#     4  11  22  39  62  89 118 157 203 247 300 364
#     4  10  22  38  60  88 122 154 194 242 308 352
#     4  12  21  37  68  94 111 154 200 265 300 346
#     4  11  23  38  60  86 123 159 202 244 302 357
#
# _framework density 18.186153000000001
#
# number of rings (size 3 to 8) (size 9 to 14) (size 15 to 20)
#    0.353    0.706    5.294    2.471    0.000    0.000 
#    8.471    0.000    0.000    0.000    0.000    0.000 
#    0.000    0.000    0.000    0.000    0.000    0.000 
#
# Total GULP energy -421621.815202 kJ/mol
# GULP energy per Si atom -12400.641624 kJ/mol
# Density = 1.814476 g / cm^3
# Si number density = 18.186153 Si / 1000 Ang^3
#
#
#
# Elastic Constant Matrix: (Units=GPa)
#
#
# Indices 1 2 3 4 5 6 
#
# 1 77.9285 13.4706 9.4905 2.1140 0.0000 0.0000
# 2 13.4706 77.9285 9.4905 -2.1140 0.0000 0.0000
# 3 9.4905 9.4905 66.5332 0.0000 0.0000 0.0000
# 4 2.1140 -2.1140 0.0000 9.4629 0.0000 0.0000
# 5 0.0000 0.0000 0.0000 0.0000 9.4629 2.1140
# 6 0.0000 0.0000 0.0000 0.0000 2.1140 32.2289
#
#
#
# Elastic Compliance Matrix: (Units=1/GPa)
#
#
# Indices 1 2 3 4 5 6 
#
# 1 0.013510 -0.002235 -0.001608 -0.003517 0.000000 0.000000
# 2 -0.002235 0.013510 -0.001608 0.003517 0.000000 0.000000
# 3 -0.001608 -0.001608 0.015489 0.000000 0.000000 0.000000
# 4 -0.003517 0.003517 0.000000 0.107248 0.000000 0.000000
# 5 0.000000 0.000000 0.000000 0.000000 0.107248 -0.007035
# 6 0.000000 0.000000 0.000000 0.000000 -0.007035 0.031489
#
#
# Mechanical properties :
#
#
# Convention : Reuss Voigt Hill
#
# Bulk Modulus (GPa) = 31.63982 31.92150 31.78066
# Shear Modulus (GPa) = 16.13256 22.89350 19.51303
#
# Velocity S-wave (km/s) = 2.98162 3.55187 3.27916
# Velocity P-wave (km/s) = 5.41192 5.86615 5.64361
#
# Compressibility (1/GPa) = 0.03160574
#
# Stress axis : x y z
#
# Youngs Moduli (GPa) = 74.01992 74.01992 64.56223
#
# Poissons Ratio (x) = 0.16542 0.10384
# Poissons Ratio (y) = 0.16542 0.10384
# Poissons Ratio (z) = 0.11905 0.11905
#
# Static dielectric constant tensor:
#      x y z
#    x 3.352580 0.000000 0.000000 
#    y 0.000000 3.352580 0.000000 
#    z 0.000000 0.000000 3.361210 
# 
# 
# High freq. dielectric constant tensor:
#      x y z
#    x 1.706000 0.000000 0.000000 
#    y 0.000000 1.706000 0.000000 
#    z 0.000000 0.000000 1.713360 
# 
# From -- ./inp_files/629.got.cif
#   From: 2010.03.12/outbox.cif.g09.slc.cpg/sg158_cif.got.tgz:629.got - 2010.04.03 13:59:47.
