data_PCOD8322954
_publ_section_title
;
Structure prediction by ZEFSAII (Michael W. Deem and Ramdas Pophale) SiO2 
 PCOD8322954
Probable space group: P -3 1 M 
;
_chemical_formula_sum "Si O2"
_cell_formula_units_Z 84
_cell_length_a 14.630083
_cell_length_b 14.630083
_cell_length_c 24.532339
_cell_angle_alpha 90.000000
_cell_angle_beta 90.000000
_cell_angle_gamma 120.000000
_cell_volume 4547.400121
_symmetry_space_group_name_H-M "P -3 1 M "
_symmetry_group_IT_number 162
_symmetry_cell_setting 'hexagonal'
loop_
_space_group_symop_operation_xyz
x,y,z
-y,x-y,z
-x+y,-x,z
-y,-x,-z
-x+y,y,-z
x,x-y,-z
-x,-y,-z
y,-x+y,-z
x-y,x,-z
y,x,z
x-y,-y,z
-x,-x+y,z
loop_
_atom_site_type_symbol
_atom_site_label
_atom_site_fract_x
_atom_site_fract_y
_atom_site_fract_z
Si Si1 0.421704 0.230284 0.644886
Si Si2 0.753205 0.876750 0.937000
Si Si3 0.880858 0.120299 0.438093
Si Si4 0.762246 0.642518 0.232968
Si Si5 0.269438 0.389680 0.147792
Si Si6 0.441161 0.877767 0.210870
Si Si7 0.877032 0.455961 0.331378
O O1 0.334249 0.202461 0.599448
O O2 0.372431 0.227368 0.703587
O O3 0.460971 0.145924 0.638287
O O4 0.521918 0.346279 0.635465
O O5 0.833431 0.833431 0.923968
O O6 0.642382 0.811827 0.903223
O O7 0.811098 0.000000 0.920685
O O8 0.720876 0.860438 0.000000
O O9 0.859247 0.140754 0.500000
O O10 0.000000 0.142815 0.433020
O O11 0.802504 0.000000 0.419598
O O12 0.735678 0.735678 0.225934
O O13 0.869314 0.670506 0.201379
O O14 0.674047 0.536695 0.201021
O O15 0.344847 0.344847 0.132353
O O16 0.344767 0.515680 0.163624
O O17 0.439634 0.828004 0.270245
O O18 0.528658 0.000000 0.214131
O O19 0.000000 0.495450 0.328429
#
# Coordination Sequence:
#
# PCOD8322954 Si02
#       7
#    12  12  12  12  12  12  12
#     4  11  20  34  54  77 105 138 175 214 261 313
#     4   9  17  29  47  71 100 135 174 214 254 300
#     4  10  21  38  59  81 105 137 178 220 261 309
#     4  10  19  31  49  73 104 134 165 206 256 309
#     4  10  18  30  48  71 100 131 169 211 253 307
#     4   8  16  30  44  65  96 128 161 202 247 298
#     4  10  19  32  50  75 105 134 168 212 260 311
#
# _framework density 18.472093999999998
#
# number of rings (size 3 to 8) (size 9 to 14) (size 15 to 20)
#    0.000    2.286    1.429    3.571    0.000    1.714 
#    0.857    0.714    0.000    3.714    0.000    5.000 
#    0.000    0.000    0.000    0.000    0.000    0.000 
#
# Total GULP energy -1040809.777656 kJ/mol
# GULP energy per Si atom -12390.592591 kJ/mol
# Density = 1.843005 g / cm^3
# Si number density = 18.472094 Si / 1000 Ang^3
#
#
#
# Elastic Constant Matrix: (Units=GPa)
#
#
# Indices 1 2 3 4 5 6 
#
# 1 61.2991 14.0174 34.4098 0.0000 -8.4998 0.0000
# 2 14.0174 61.2991 34.4098 0.0000 8.4998 0.0000
# 3 34.4098 34.4098 82.3923 0.0000 0.0000 0.0000
# 4 0.0000 0.0000 0.0000 29.6458 0.0000 8.4998
# 5 -8.4998 8.4998 0.0000 0.0000 29.6458 0.0000
# 6 0.0000 0.0000 0.0000 8.4998 0.0000 23.6409
#
#
#
# Elastic Compliance Matrix: (Units=1/GPa)
#
#
# Indices 1 2 3 4 5 6 
#
# 1 0.022526 -0.001055 -0.008967 0.000000 0.006761 0.000000
# 2 -0.001055 0.022526 -0.008967 0.000000 -0.006761 0.000000
# 3 -0.008967 -0.008967 0.019627 0.000000 0.000000 0.000000
# 4 0.000000 0.000000 0.000000 0.037608 0.000000 -0.013522
# 5 0.006761 -0.006761 0.000000 0.000000 0.037608 0.000000
# 6 0.000000 0.000000 0.000000 -0.013522 0.000000 0.047161
#
#
# Mechanical properties :
#
#
# Convention : Reuss Voigt Hill
#
# Bulk Modulus (GPa) = 37.45228 41.18496 39.31862
# Shear Modulus (GPa) = 21.37359 24.73009 23.05184
#
# Velocity S-wave (km/s) = 3.40527 3.66290 3.53643
# Velocity P-wave (km/s) = 5.98166 6.34298 6.16496
#
# Compressibility (1/GPa) = 0.02670064
#
# Stress axis : x y z
#
# Youngs Moduli (GPa) = 44.39388 44.39388 50.95077
#
# Poissons Ratio (x) = 0.04683 0.45687
# Poissons Ratio (y) = 0.04683 0.45687
# Poissons Ratio (z) = 0.39807 0.39807
#
# Static dielectric constant tensor:
#      x y z
#    x 3.429320 0.000000 0.000000 
#    y 0.000000 3.429320 0.000000 
#    z 0.000000 0.000000 3.266070 
# 
# 
# High freq. dielectric constant tensor:
#      x y z
#    x 1.712770 0.000000 0.000000 
#    y 0.000000 1.712770 0.000000 
#    z 0.000000 0.000000 1.686610 
# 
# From -- ./inp_files/4047.got.cif
#   From: 2010.03.12/outbox.cif.g09.slc.cpg/sg162_3_cif.got.tgz:4047.got - 2010.04.02 06:27:41.
