data_PCOD8322704
_publ_section_title
;
Structure prediction by ZEFSAII (Michael W. Deem and Ramdas Pophale) SiO2 
 PCOD8322704
Probable space group: P 3 M 1
;
_chemical_formula_sum "Si O2"
_cell_formula_units_Z 30
_cell_length_a 12.342519
_cell_length_b 12.342519
_cell_length_c 12.716154
_cell_angle_alpha 90.000000
_cell_angle_beta 90.000000
_cell_angle_gamma 120.000000
_cell_volume 1677.621639
_symmetry_space_group_name_H-M "P 3 M 1"
_symmetry_group_IT_number 156
_symmetry_cell_setting 'hexagonal'
loop_
_space_group_symop_operation_xyz
x,y,z
-y,x-y,z
-x+y,-x,z
-x+y,y,z
x,x-y,z
-y,-x,z
loop_
_atom_site_type_symbol
_atom_site_label
_atom_site_fract_x
_atom_site_fract_y
_atom_site_fract_z
Si Si1 0.666726 0.082086 0.332890
Si Si2 0.082315 0.666820 0.132961
Si Si3 0.998878 0.250660 0.534209
Si Si4 0.251091 0.000097 0.933152
Si Si5 0.414260 0.082205 0.733080
O O1 0.558349 0.116697 0.338714
O O2 0.793786 0.206215 0.303194
O O3 0.640363 0.979302 0.244846
O O4 0.674346 0.026703 0.444330
O O5 0.076377 0.538189 0.103726
O O6 0.225935 0.774066 0.137234
O O7 0.005850 0.694119 0.045523
O O8 0.132325 0.264650 0.514334
O O9 0.999206 0.311554 0.645500
O O10 0.895430 0.104571 0.532309
O O11 0.213875 0.106938 0.936235
O O12 0.356115 0.028891 0.846552
O O13 0.128721 0.871280 0.903329
O O14 0.534208 0.068415 0.716360
O O15 0.454867 0.227434 0.722025
#
# Coordination Sequence:
#
# PCOD8322704 Si02
#       5
#     6   6   6   6   6
#     4  10  20  34  53  76 102 132 167 208 253 299
#     4  10  20  34  52  74 102 136 172 208 248 296
#     4  10  20  34  53  76 102 132 166 205 249 297
#     4  10  20  34  53  76 102 132 167 208 253 299
#     4  10  20  34  53  76 102 132 166 205 249 297
#
# _framework density 17.882459000000001
#
# number of rings (size 3 to 8) (size 9 to 14) (size 15 to 20)
#    0.000    2.000    0.000    4.000    0.000    0.000 
#    0.000    4.000    0.000   22.400    0.000    0.000 
#    0.000    0.000    0.000    0.000    0.000    0.000 
#
# Total GULP energy -372148.311367 kJ/mol
# GULP energy per Si atom -12404.943712 kJ/mol
# Density = 1.784176 g / cm^3
# Si number density = 17.882459 Si / 1000 Ang^3
#
#
#
# Elastic Constant Matrix: (Units=GPa)
#
#
# Indices 1 2 3 4 5 6 
#
# 1 76.5782 27.6789 17.4330 2.3586 0.0002 0.0000
# 2 27.6789 76.5782 17.4330 -2.3586 -0.0002 0.0000
# 3 17.4330 17.4330 76.9115 0.0000 0.0000 0.0000
# 4 2.3586 -2.3586 0.0000 25.3680 0.0000 -0.0002
# 5 0.0002 -0.0002 0.0000 0.0000 25.3680 2.3586
# 6 0.0000 0.0000 0.0000 -0.0002 2.3586 24.4497
#
#
#
# Elastic Compliance Matrix: (Units=1/GPa)
#
#
# Indices 1 2 3 4 5 6 
#
# 1 0.015507 -0.005128 -0.002352 -0.001919 0.000000 0.000000
# 2 -0.005128 0.015507 -0.002352 0.001919 0.000000 0.000000
# 3 -0.002352 -0.002352 0.014068 0.000000 0.000000 0.000000
# 4 -0.001919 0.001919 0.000000 0.039777 0.000000 0.000000
# 5 0.000000 0.000000 0.000000 0.000000 0.039777 -0.003837
# 6 0.000000 0.000000 0.000000 0.000000 -0.003837 0.041270
#
#
# Mechanical properties :
#
#
# Convention : Reuss Voigt Hill
#
# Bulk Modulus (GPa) = 39.34601 39.46195 39.40398
# Shear Modulus (GPa) = 25.76738 26.20535 25.98637
#
# Velocity S-wave (km/s) = 3.80008 3.83224 3.81619
# Velocity P-wave (km/s) = 6.42685 6.45730 6.44209
#
# Compressibility (1/GPa) = 0.02541553
#
# Stress axis : x y z
#
# Youngs Moduli (GPa) = 64.48783 64.48783 71.08153
#
# Poissons Ratio (x) = 0.33072 0.16721
# Poissons Ratio (y) = 0.33072 0.16721
# Poissons Ratio (z) = 0.15170 0.15170
#
# Static dielectric constant tensor:
#      x y z
#    x 3.244550 0.000000 0.000000 
#    y 0.000000 3.244550 0.000000 
#    z 0.000000 0.000000 3.425340 
# 
# 
# High freq. dielectric constant tensor:
#      x y z
#    x 1.695160 0.000000 0.000000 
#    y 0.000000 1.695160 0.000000 
#    z 0.000000 0.000000 1.707550 
# 
# From -- ./inp_files/770.got.cif
#   From: 2010.03.12/outbox.cif.g09.slc.cpg/sg156_cif.got.tgz:770.got - 2010.04.03 13:58:47.
