data_PCOD8322917
_publ_section_title
;
Structure prediction by ZEFSAII (Michael W. Deem and Ramdas Pophale) SiO2 
 PCOD8322917
Probable space group: R 3 C
;
_chemical_formula_sum "Si O2"
_cell_formula_units_Z 66
_cell_length_a 15.111847
_cell_length_b 15.111847
_cell_length_c 13.526243
_cell_angle_alpha 90.000000
_cell_angle_beta 90.000000
_cell_angle_gamma 120.000000
_cell_volume 2675.117810
_symmetry_space_group_name_H-M "R 3 C"
_symmetry_group_IT_number 161
_symmetry_cell_setting 'hexagonal'
loop_
_space_group_symop_operation_xyz
x,y,z
-y,x-y,z
-x+y,-x,z
-x+y,y,1/2+z
x,x-y,1/2+z
-y,-x,1/2+z
2/3+x,1/3+y,1/3+z
2/3-y,1/3+x-y,1/3+z
2/3-x+y,1/3-x,1/3+z
2/3-x+y,1/3+y,5/6+z
2/3+x,1/3+x-y,5/6+z
2/3-y,1/3-x,5/6+z
1/3+x,2/3+y,2/3+z
1/3-y,2/3+x-y,2/3+z
1/3-x+y,2/3-x,2/3+z
1/3-x+y,2/3+y,1/6+z
1/3+x,2/3+x-y,1/6+z
1/3-y,2/3-x,1/6+z
loop_
_atom_site_type_symbol
_atom_site_label
_atom_site_fract_x
_atom_site_fract_y
_atom_site_fract_z
Si Si1 0.666667 0.333333 0.873142
Si Si2 0.552855 0.553757 0.812195
Si Si3 0.448374 0.279525 0.178229
Si Si4 0.666667 0.333334 0.105703
Si Si5 0.522868 0.668099 0.647332
O O1 0.599736 0.377364 0.824085
O O2 0.666668 0.333334 0.989063
O O3 0.658646 0.572584 0.763700
O O4 0.509588 0.613148 0.751105
O O5 0.466906 0.433936 0.801778
O O6 0.559403 0.591275 0.925529
O O7 0.566032 0.337810 0.140109
O O8 0.425009 0.170390 0.224131
#
# Coordination Sequence:
#
# PCOD8322917 Si02
#       5
#     6  18  18   6  18
#     4  12  22  50  82 115 152 226 265 326 421 511
#     4  12  30  47  81 122 160 214 271 351 402 491
#     4  12  27  52  80 118 165 215 277 334 418 494
#     4  12  22  53  85 106 158 229 271 323 415 520
#     4  12  27  50  78 117 163 210 274 334 416 486
#
# _framework density 24.671813
#
# number of rings (size 3 to 8) (size 9 to 14) (size 15 to 20)
#    0.000    0.000    8.182    0.000    7.636    0.000 
#    0.000    0.000    0.000    0.000    0.000    0.000 
#    0.000    0.000    0.000    0.000    0.000    0.000 
#
# Total GULP energy -272691.113862 kJ/mol
# GULP energy per Si atom -12395.050630 kJ/mol
# Density = 2.461566 g / cm^3
# Si number density = 24.671813 Si / 1000 Ang^3
#
#
#
# Elastic Constant Matrix: (Units=GPa)
#
#
# Indices 1 2 3 4 5 6 
#
# 1 96.1204 50.1095 49.6952 11.4950 0.0000 0.0000
# 2 50.1095 96.1205 49.6954 -11.4945 0.0000 0.0000
# 3 49.6952 49.6954 171.3915 0.0000 0.0000 0.0000
# 4 11.4950 -11.4945 0.0000 36.5042 0.0000 0.0000
# 5 0.0000 0.0000 0.0000 0.0000 36.5038 11.4952
# 6 0.0000 0.0000 0.0000 0.0000 11.4952 23.0056
#
#
#
# Elastic Compliance Matrix: (Units=1/GPa)
#
#
# Indices 1 2 3 4 5 6 
#
# 1 0.017155 -0.008637 -0.002470 -0.008122 0.000000 0.000000
# 2 -0.008637 0.017154 -0.002470 0.008121 0.000000 0.000000
# 3 -0.002470 -0.002470 0.007267 0.000000 0.000000 0.000000
# 4 -0.008122 0.008121 0.000000 0.032509 0.000000 0.000000
# 5 0.000000 0.000000 0.000000 0.000000 0.032510 -0.016244
# 6 0.000000 0.000000 0.000000 0.000000 -0.016244 0.051584
#
#
# Mechanical properties :
#
#
# Convention : Reuss Voigt Hill
#
# Bulk Modulus (GPa) = 69.33535 73.62583 71.48059
# Shear Modulus (GPa) = 26.29654 33.47823 29.88738
#
# Velocity S-wave (km/s) = 3.26828 3.68767 3.48429
# Velocity P-wave (km/s) = 6.51201 6.93100 6.72477
#
# Compressibility (1/GPa) = 0.01442266
#
# Stress axis : x y z
#
# Youngs Moduli (GPa) = 58.29361 58.29388 137.61428
#
# Poissons Ratio (x) = 0.50351 0.33984
# Poissons Ratio (y) = 0.50351 0.33984
# Poissons Ratio (z) = 0.14396 0.14396
#
# Static dielectric constant tensor:
#      x y z
#    x 4.384990 0.000000 0.000000 
#    y 0.000000 4.384990 0.000000 
#    z 0.000000 0.000000 4.651000 
# 
# 
# High freq. dielectric constant tensor:
#      x y z
#    x 1.977350 0.000000 0.000000 
#    y 0.000000 1.977350 0.000000 
#    z 0.000000 0.000000 2.000040 
# 
# From -- ./inp_files/812.got.cif
#   From: 2010.03.12/outbox.cif.g09.slc.cpg/sg161_cif.got.tgz:812.got - 2010.04.02 06:27:14.
