data_PCOD8322134
_publ_section_title
;
Structure prediction by ZEFSAII (Michael W. Deem and Ramdas Pophale) SiO2 
 PCOD8322134
Probable space group: P 31 2 1
;
_chemical_formula_sum "Si O2"
_cell_formula_units_Z 30
_cell_length_a 8.463382
_cell_length_b 8.463382
_cell_length_c 22.357750
_cell_angle_alpha 90.000000
_cell_angle_beta 90.000000
_cell_angle_gamma 120.000000
_cell_volume 1386.904682
_symmetry_space_group_name_H-M "P 31 2 1"
_symmetry_group_IT_number 152
_symmetry_cell_setting 'hexagonal'
loop_
_space_group_symop_operation_xyz
x,y,z
-y,x-y,1/3+z
-x+y,-x,2/3+z
x-y,-y,2/3-z
-x,-x+y,1/3-z
y,x,-z
loop_
_atom_site_type_symbol
_atom_site_label
_atom_site_fract_x
_atom_site_fract_y
_atom_site_fract_z
Si Si1 0.370177 0.238814 0.680224
Si Si2 0.251439 0.626914 0.873020
Si Si3 0.440951 0.000000 0.833334
Si Si4 0.757837 0.757837 0.000000
Si Si5 0.126172 0.437333 0.045042
Si Si6 0.517781 0.012522 0.244716
O O1 0.473076 0.325477 0.742689
O O2 0.506799 0.364373 0.627931
O O3 0.178721 0.229533 0.678076
O O4 0.325776 0.031413 0.667615
O O5 0.440060 0.814841 0.853713
O O6 0.308166 0.484631 0.898473
O O7 0.119785 0.540348 0.816649
O O8 0.299037 0.939709 0.778572
O O9 0.672700 0.638107 0.059156
O O10 0.324136 0.454615 0.039175
#
# Coordination Sequence:
#
# PCOD8322134 Si02
#       6
#     6   6   3   3   6   6
#     4  11  23  40  62  90 123 163 209 257 308 363
#     4  10  21  39  63  88 120 162 204 252 309 368
#     4   8  18  38  60  84 116 154 200 248 298 352
#     4  12  24  38  58  90 126 164 210 256 304 366
#     4  10  21  40  64  89 123 165 205 255 306 364
#     4  11  22  40  64  91 125 164 205 252 310 370
#
# _framework density 21.630901999999999
#
# number of rings (size 3 to 8) (size 9 to 14) (size 15 to 20)
#    0.000    1.600    0.000    6.000    0.000    4.000 
#    0.000    2.000    0.000    4.800    0.000    0.000 
#    0.000    0.000    0.000    0.000    0.000    0.000 
#
# Total GULP energy -371727.478580 kJ/mol
# GULP energy per Si atom -12390.915953 kJ/mol
# Density = 2.158167 g / cm^3
# Si number density = 21.630902 Si / 1000 Ang^3
#
#
#
# Elastic Constant Matrix: (Units=GPa)
#
#
# Indices 1 2 3 4 5 6 
#
# 1 150.8652 80.2924 43.1930 0.9777 0.0001 0.0000
# 2 80.2924 150.8652 43.1930 -0.9777 -0.0001 0.0000
# 3 43.1930 43.1930 70.1699 0.0000 0.0000 0.0000
# 4 0.9777 -0.9777 0.0000 29.6703 0.0000 -0.0001
# 5 0.0001 -0.0001 0.0000 0.0000 29.6703 0.9777
# 6 0.0000 0.0000 0.0000 -0.0001 0.9777 35.2864
#
#
#
# Elastic Compliance Matrix: (Units=1/GPa)
#
#
# Indices 1 2 3 4 5 6 
#
# 1 0.009901 -0.004282 -0.003458 -0.000467 0.000000 0.000000
# 2 -0.004282 0.009901 -0.003458 0.000467 0.000000 0.000000
# 3 -0.003458 -0.003458 0.018509 0.000000 0.000000 0.000000
# 4 -0.000467 0.000467 0.000000 0.033734 0.000000 0.000000
# 5 0.000000 0.000000 0.000000 0.000000 0.033734 -0.000935
# 6 0.000000 0.000000 0.000000 0.000000 -0.000935 0.028365
#
#
# Mechanical properties :
#
#
# Convention : Reuss Voigt Hill
#
# Bulk Modulus (GPa) = 62.84568 78.36190 70.60379
# Shear Modulus (GPa) = 30.89344 32.60687 31.75016
#
# Velocity S-wave (km/s) = 3.78326 3.88676 3.83536
# Velocity P-wave (km/s) = 6.94268 7.51319 7.23356
#
# Compressibility (1/GPa) = 0.01591199
#
# Stress axis : x y z
#
# Youngs Moduli (GPa) = 101.00377 101.00377 54.02820
#
# Poissons Ratio (x) = 0.43251 0.18686
# Poissons Ratio (y) = 0.43251 0.18686
# Poissons Ratio (z) = 0.34932 0.34932
#
# Static dielectric constant tensor:
#      x y z
#    x 3.996650 0.000000 0.000000 
#    y 0.000000 3.996650 0.000000 
#    z 0.000000 0.000000 4.091010 
# 
# 
# High freq. dielectric constant tensor:
#      x y z
#    x 1.844280 0.000000 0.000000 
#    y 0.000000 1.844280 0.000000 
#    z 0.000000 0.000000 1.861580 
# 
# From -- ./inp_files/3049.got.cif
#   From: 2010.03.12/outbox.cif.g09.slc.cpg/sg152_2_cif.got.tgz:3049.got - 2010.04.03 13:45:27.
