data_PCOD8322422
_publ_section_title
;
Structure prediction by ZEFSAII (Michael W. Deem and Ramdas Pophale) SiO2 
 PCOD8322422
Probable space group: P 32 2 1
;
_chemical_formula_sum "Si O2"
_cell_formula_units_Z 45
_cell_length_a 11.503532
_cell_length_b 11.503532
_cell_length_c 17.574231
_cell_angle_alpha 90.000000
_cell_angle_beta 90.000000
_cell_angle_gamma 120.000000
_cell_volume 2014.045938
_symmetry_space_group_name_H-M "P 32 2 1"
_symmetry_group_IT_number 154
_symmetry_cell_setting 'hexagonal'
loop_
_space_group_symop_operation_xyz
x,y,z
-y,x-y,2/3+z
-x+y,-x,1/3+z
x-y,-y,1/3-z
-x,-x+y,2/3-z
y,x,-z
loop_
_atom_site_type_symbol
_atom_site_label
_atom_site_fract_x
_atom_site_fract_y
_atom_site_fract_z
Si Si1 0.643337 0.294441 0.946476
Si Si2 0.869707 0.579641 0.384560
Si Si3 0.968787 0.135294 0.711503
Si Si4 0.018497 0.018497 0.500000
Si Si5 0.818961 0.587039 0.984376
Si Si6 0.866660 0.632279 0.686442
Si Si7 0.351800 0.855607 0.527847
Si Si8 0.775924 0.686519 0.830873
O O1 0.770853 0.442948 0.947224
O O2 0.573757 0.268409 0.863477
O O3 0.534301 0.274754 0.008396
O O4 0.702446 0.198766 0.966450
O O5 0.831878 0.689954 0.415116
O O6 0.902409 0.505712 0.451822
O O7 0.000000 0.645812 0.333334
O O8 0.079070 0.264205 0.666860
O O9 0.051356 0.095180 0.768763
O O10 0.876093 0.000000 0.666667
O O11 0.158571 0.032958 0.475242
O O12 0.783949 0.667075 0.921436
O O13 0.977104 0.668971 0.994504
O O14 0.745025 0.567264 0.065426
O O15 0.821611 0.601226 0.776067
O O16 0.351951 0.975593 0.480267
#
# Coordination Sequence:
#
# PCOD8322422 Si02
#       8
#     6   6   6   3   6   6   6   6
#     4  11  28  44  70 106 143 198 250 302 375 454
#     4  10  24  47  70 103 143 188 245 306 364 444
#     4  11  23  43  71 103 147 185 241 306 373 447
#     4  12  24  42  70 114 140 188 242 302 382 434
#     4  11  25  46  71 104 143 193 248 304 377 448
#     4  12  26  45  72 110 148 195 239 314 386 449
#     4  11  25  45  75 101 142 196 249 301 370 452
#     4  12  23  46  74 103 144 186 244 309 367 460
#
# _framework density 22.343086
#
# number of rings (size 3 to 8) (size 9 to 14) (size 15 to 20)
#    0.000    0.800    2.667    3.600   11.200    1.067 
#    0.000    0.000    0.000    0.000    0.000    0.000 
#    0.000    0.000    0.000    0.000    0.000    0.000 
#
# Total GULP energy -557709.035926 kJ/mol
# GULP energy per Si atom -12393.534132 kJ/mol
# Density = 2.229223 g / cm^3
# Si number density = 22.343086 Si / 1000 Ang^3
#
#
#
# Elastic Constant Matrix: (Units=GPa)
#
#
# Indices 1 2 3 4 5 6 
#
# 1 120.7795 60.2467 24.2660 -5.5125 0.0000 0.0000
# 2 60.2467 120.7795 24.2660 5.5125 0.0000 0.0000
# 3 24.2660 24.2660 87.6604 0.0000 0.0000 0.0000
# 4 -5.5125 5.5125 0.0000 36.9868 0.0000 0.0000
# 5 0.0000 0.0000 0.0000 0.0000 36.9868 -5.5125
# 6 0.0000 0.0000 0.0000 0.0000 -5.5125 30.2664
#
#
#
# Elastic Compliance Matrix: (Units=1/GPa)
#
#
# Indices 1 2 3 4 5 6 
#
# 1 0.011474 -0.005507 -0.001652 0.002531 0.000000 0.000000
# 2 -0.005507 0.011474 -0.001652 -0.002531 0.000000 0.000000
# 3 -0.001652 -0.001652 0.012322 0.000000 0.000000 0.000000
# 4 0.002531 -0.002531 0.000000 0.027791 0.000000 0.000000
# 5 0.000000 0.000000 0.000000 0.000000 0.027791 0.005062
# 6 0.000000 0.000000 0.000000 0.000000 0.005062 0.033962
#
#
# Mechanical properties :
#
#
# Convention : Reuss Voigt Hill
#
# Bulk Modulus (GPa) = 56.66070 60.75299 58.70684
# Shear Modulus (GPa) = 33.71137 35.54404 34.62770
#
# Velocity S-wave (km/s) = 3.88855 3.99285 3.94104
# Velocity P-wave (km/s) = 6.75096 6.96470 6.85867
#
# Compressibility (1/GPa) = 0.01764892
#
# Stress axis : x y z
#
# Youngs Moduli (GPa) = 87.15432 87.15432 81.15486
#
# Poissons Ratio (x) = 0.47996 0.13405
# Poissons Ratio (y) = 0.47996 0.13405
# Poissons Ratio (z) = 0.14396 0.14396
#
# Static dielectric constant tensor:
#      x y z
#    x 4.217380 0.000000 0.000000 
#    y 0.000000 4.217380 0.000000 
#    z 0.000000 0.000000 6.560190 
# 
# 
# High freq. dielectric constant tensor:
#      x y z
#    x 1.885080 0.000000 0.000000 
#    y 0.000000 1.885080 0.000000 
#    z 0.000000 0.000000 1.878160 
# 
# From -- ./inp_files/2490.got.cif
#   From: 2010.03.12/outbox.cif.g09.slc.cpg/sg154_2_cif.got.tgz:2490.got - 2010.04.03 13:51:21.
