data_PCOD8322299
_publ_section_title
;
Structure prediction by ZEFSAII (Michael W. Deem and Ramdas Pophale) SiO2 
 PCOD8322299
Probable space group: P 32 2 1
;
_chemical_formula_sum "Si O2"
_cell_formula_units_Z 48
_cell_length_a 11.087357
_cell_length_b 11.087357
_cell_length_c 24.813054
_cell_angle_alpha 90.000000
_cell_angle_beta 90.000000
_cell_angle_gamma 120.000000
_cell_volume 2641.599146
_symmetry_space_group_name_H-M "P 32 2 1"
_symmetry_group_IT_number 154
_symmetry_cell_setting 'hexagonal'
loop_
_space_group_symop_operation_xyz
x,y,z
-y,x-y,2/3+z
-x+y,-x,1/3+z
x-y,-y,1/3-z
-x,-x+y,2/3-z
y,x,-z
loop_
_atom_site_type_symbol
_atom_site_label
_atom_site_fract_x
_atom_site_fract_y
_atom_site_fract_z
Si Si1 0.958233 0.349377 0.773194
Si Si2 0.390168 0.843981 0.677356
Si Si3 0.634856 0.871181 0.405444
Si Si4 0.951050 0.381287 0.215061
Si Si5 0.370404 0.570261 0.640231
Si Si6 0.318290 0.488931 0.851479
Si Si7 0.359904 0.185525 0.742819
Si Si8 0.222570 0.589977 0.545390
O O1 0.925396 0.438917 0.729865
O O2 0.820986 0.196593 0.783089
O O3 0.000000 0.419801 0.833334
O O4 0.078459 0.330036 0.745466
O O5 0.349776 0.832881 0.740463
O O6 0.432221 0.728328 0.662631
O O7 0.253712 0.818500 0.645061
O O8 0.518345 0.000000 0.666667
O O9 0.539287 0.857419 0.354827
O O10 0.554155 0.880155 0.457590
O O11 0.780668 0.017015 0.398091
O O12 0.878242 0.335332 0.157421
O O13 0.063648 0.546581 0.218187
O O14 0.036119 0.300208 0.227052
O O15 0.236258 0.531083 0.602979
O O16 0.303723 0.626882 0.850738
O O17 0.467540 0.309678 0.781627
#
# Coordination Sequence:
#
# PCOD8322299 Si02
#       8
#     6   6   6   6   6   6   6   6
#     4   9  20  35  51  75 109 148 178 222 279 331
#     4   9  18  33  54  79 109 143 175 233 280 321
#     4  11  20  33  54  77 112 150 180 222 280 335
#     4  10  17  32  59  79 108 143 178 234 280 317
#     4  10  21  33  53  84 115 137 187 232 281 338
#     4   9  18  33  53  83 110 137 190 226 273 332
#     4   9  19  31  48  80 108 138 180 220 265 334
#     4   9  17  32  50  81 109 132 180 236 270 313
#
# _framework density 18.170812000000002
#
# number of rings (size 3 to 8) (size 9 to 14) (size 15 to 20)
#    0.000    2.500    1.250    3.000    3.500    0.000 
#    0.000    0.000    0.000    6.750   19.500    0.000 
#    0.000    0.000    0.000    0.000    0.000    0.000 
#
# Total GULP energy -594774.745898 kJ/mol
# GULP energy per Si atom -12391.140540 kJ/mol
# Density = 1.812945 g / cm^3
# Si number density = 18.170812 Si / 1000 Ang^3
#
#
#
# Elastic Constant Matrix: (Units=GPa)
#
#
# Indices 1 2 3 4 5 6 
#
# 1 86.0029 43.4036 42.9716 0.8120 0.0000 0.0000
# 2 43.4036 86.0029 42.9716 -0.8120 0.0000 0.0000
# 3 42.9716 42.9716 112.0177 0.0000 0.0000 0.0000
# 4 0.8120 -0.8120 0.0000 25.3565 0.0000 0.0000
# 5 0.0000 0.0000 0.0000 0.0000 25.3565 0.8120
# 6 0.0000 0.0000 0.0000 0.0000 0.8120 21.2997
#
#
#
# Elastic Compliance Matrix: (Units=1/GPa)
#
#
# Indices 1 2 3 4 5 6 
#
# 1 0.016936 -0.006567 -0.003978 -0.000753 0.000000 0.000000
# 2 -0.006567 0.016936 -0.003978 0.000753 0.000000 0.000000
# 3 -0.003978 -0.003978 0.011979 0.000000 0.000000 0.000000
# 4 -0.000753 0.000753 0.000000 0.039486 0.000000 0.000000
# 5 0.000000 0.000000 0.000000 0.000000 0.039486 -0.001505
# 6 0.000000 0.000000 0.000000 0.000000 -0.001505 0.047006
#
#
# Mechanical properties :
#
#
# Convention : Reuss Voigt Hill
#
# Bulk Modulus (GPa) = 59.50081 60.30188 59.90134
# Shear Modulus (GPa) = 24.21575 24.71433 24.46504
#
# Velocity S-wave (km/s) = 3.65454 3.69197 3.67330
# Velocity P-wave (km/s) = 7.11505 7.17164 7.14340
#
# Compressibility (1/GPa) = 0.01680649
#
# Stress axis : x y z
#
# Youngs Moduli (GPa) = 59.04470 59.04470 83.47886
#
# Poissons Ratio (x) = 0.38774 0.33207
# Poissons Ratio (y) = 0.38774 0.33207
# Poissons Ratio (z) = 0.23487 0.23487
#
# Static dielectric constant tensor:
#      x y z
#    x 3.282590 0.000000 0.000000 
#    y 0.000000 3.282590 0.000000 
#    z 0.000000 0.000000 3.498300 
# 
# 
# High freq. dielectric constant tensor:
#      x y z
#    x 1.680190 0.000000 0.000000 
#    y 0.000000 1.680190 0.000000 
#    z 0.000000 0.000000 1.717670 
# 
# From -- ./inp_files/3198.got.cif
#   From: 2010.03.12/outbox.cif.g09.slc.cpg/sg154_2_cif.got.tgz:3198.got - 2010.04.03 13:51:21.
