data_PCOD8322290
_publ_section_title
;
Structure prediction by ZEFSAII (Michael W. Deem and Ramdas Pophale) SiO2 
 PCOD8322290
Probable space group: P 32 1 2
;
_chemical_formula_sum "Si O2"
_cell_formula_units_Z 36
_cell_length_a 8.981383
_cell_length_b 8.981383
_cell_length_c 24.117048
_cell_angle_alpha 90.000000
_cell_angle_beta 90.000000
_cell_angle_gamma 120.000000
_cell_volume 1684.772298
_symmetry_space_group_name_H-M "P 32 1 2"
_symmetry_group_IT_number 153
_symmetry_cell_setting 'hexagonal'
loop_
_space_group_symop_operation_xyz
x,y,z
-y,x-y,2/3+z
-x+y,-x,1/3+z
-y,-x,1/3-z
-x+y,y,2/3-z
x,x-y,-z
loop_
_atom_site_type_symbol
_atom_site_label
_atom_site_fract_x
_atom_site_fract_y
_atom_site_fract_z
Si Si1 0.352213 0.471497 0.402884
Si Si2 0.836074 0.014316 0.726865
Si Si3 0.676177 0.984940 0.525412
Si Si4 0.465986 0.960110 0.720546
Si Si5 0.747222 0.293271 0.886761
Si Si6 0.858381 0.178567 0.101429
O O1 0.517651 0.540332 0.442174
O O2 0.204422 0.517922 0.420577
O O3 0.424648 0.528986 0.341911
O O4 0.265764 0.267505 0.405607
O O5 0.655988 0.004810 0.733953
O O6 0.781967 0.819840 0.742033
O O7 0.924323 0.075678 0.666667
O O8 0.962450 0.155959 0.770747
O O9 0.598275 0.799138 0.500000
O O10 0.719673 0.094891 0.469901
O O11 0.477732 0.142564 0.733684
O O12 0.625883 0.251766 0.833334
O O13 0.809119 0.482716 0.912837
O O14 0.851653 0.148348 0.166667
#
# Coordination Sequence:
#
# PCOD8322290 Si02
#       6
#     6   6   6   6   6   6
#     4  11  25  47  68 100 139 182 230 289 340 416
#     4  12  26  45  70  99 140 180 228 288 346 414
#     4  12  26  43  70 105 140 177 231 288 344 411
#     4  11  26  45  71  97 137 185 234 277 352 414
#     4  11  23  45  71 100 132 183 230 278 346 414
#     4  11  25  44  68 101 137 171 229 282 340 413
#
# _framework density 21.367871000000001
#
# number of rings (size 3 to 8) (size 9 to 14) (size 15 to 20)
#    0.000    0.667    6.667    0.500    9.333    0.667 
#    0.000    0.000    0.000    0.000    0.000    0.000 
#    0.000    0.000    0.000    0.000    0.000    0.000 
#
# Total GULP energy -446060.465495 kJ/mol
# GULP energy per Si atom -12390.568486 kJ/mol
# Density = 2.131924 g / cm^3
# Si number density = 21.367871 Si / 1000 Ang^3
#
#
#
# Elastic Constant Matrix: (Units=GPa)
#
#
# Indices 1 2 3 4 5 6 
#
# 1 118.9879 31.0682 33.3404 -0.0020 -6.1290 0.0000
# 2 31.0682 118.9879 33.3404 0.0020 6.1290 0.0000
# 3 33.3404 33.3404 44.3475 0.0000 0.0000 0.0000
# 4 -0.0020 0.0020 0.0000 23.0230 0.0000 6.1290
# 5 -6.1290 6.1290 0.0000 0.0000 23.0230 -0.0020
# 6 0.0000 0.0000 0.0000 6.1290 -0.0020 43.9599
#
#
#
# Elastic Compliance Matrix: (Units=1/GPa)
#
#
# Indices 1 2 3 4 5 6 
#
# 1 0.010910 -0.000902 -0.007524 0.000001 0.003145 0.000000
# 2 -0.000902 0.010910 -0.007524 -0.000001 -0.003145 0.000000
# 3 -0.007524 -0.007524 0.033862 0.000000 0.000000 0.000000
# 4 0.000001 -0.000001 0.000000 0.045109 0.000000 -0.006289
# 5 0.003145 -0.003145 0.000000 0.000000 0.045109 0.000002
# 6 0.000000 0.000000 0.000000 -0.006289 0.000002 0.023625
#
#
# Mechanical properties :
#
#
# Convention : Reuss Voigt Hill
#
# Bulk Modulus (GPa) = 42.04829 53.09125 47.56977
# Shear Modulus (GPa) = 23.88330 30.30613 27.09472
#
# Velocity S-wave (km/s) = 3.34686 3.77012 3.56478
# Velocity P-wave (km/s) = 5.88696 6.62208 6.26531
#
# Compressibility (1/GPa) = 0.02378218
#
# Stress axis : x y z
#
# Youngs Moduli (GPa) = 91.65942 91.65942 29.53189
#
# Poissons Ratio (x) = 0.08272 0.22219
# Poissons Ratio (y) = 0.08272 0.22219
# Poissons Ratio (z) = 0.68961 0.68961
#
# Static dielectric constant tensor:
#      x y z
#    x 4.099450 0.000000 0.000000 
#    y 0.000000 4.099450 0.000000 
#    z 0.000000 0.000000 3.717690 
# 
# 
# High freq. dielectric constant tensor:
#      x y z
#    x 1.851000 0.000000 0.000000 
#    y 0.000000 1.851000 0.000000 
#    z 0.000000 0.000000 1.829290 
# 
# From -- ./inp_files/4692.got.cif
#   From: 2010.03.12/outbox.cif.g09.slc.cpg/sg153_3_cif.got.tgz:4692.got - 2010.04.03 13:48:33.
