data_PCOD8322811
_publ_section_title
;
Structure prediction by ZEFSAII (Michael W. Deem and Ramdas Pophale) SiO2 
 PCOD8322811
Probable space group: P 3 1 C
;
_chemical_formula_sum "Si O2"
_cell_formula_units_Z 36
_cell_length_a 8.460425
_cell_length_b 8.460425
_cell_length_c 27.266938
_cell_angle_alpha 90.000000
_cell_angle_beta 90.000000
_cell_angle_gamma 120.000000
_cell_volume 1690.251625
_symmetry_space_group_name_H-M "P 3 1 C"
_symmetry_group_IT_number 159
_symmetry_cell_setting 'hexagonal'
loop_
_space_group_symop_operation_xyz
x,y,z
-y,x-y,z
-x+y,-x,z
y,x,1/2+z
x-y,-y,1/2+z
-x,-x+y,1/2+z
loop_
_atom_site_type_symbol
_atom_site_label
_atom_site_fract_x
_atom_site_fract_y
_atom_site_fract_z
Si Si1 0.667705 0.667740 0.924660
Si Si2 0.332260 0.999964 0.134230
Si Si3 0.795157 0.999999 0.779445
Si Si4 0.001978 0.205850 0.529445
Si Si5 0.668319 0.000894 0.384230
Si Si6 0.000893 0.668319 0.174660
O O1 0.594148 0.797108 0.904796
O O2 0.534844 0.464910 0.904378
O O3 0.870039 0.740401 0.904163
O O4 0.678058 0.675655 0.983475
O O5 0.324344 0.002401 0.075415
O O6 0.259599 0.129638 0.154727
O O7 0.202892 0.797039 0.154094
O O8 0.535090 0.069935 0.154511
O O9 0.677495 0.001332 0.733480
O O10 0.999999 0.179286 0.779445
O O11 0.676162 0.998666 0.825409
O O12 0.180113 0.178405 0.529445
#
# Coordination Sequence:
#
# PCOD8322811 Si02
#       6
#     6   6   6   6   6   6
#     4  12  24  43  69 106 140 185 240 292 349 421
#     4  12  24  43  69 106 140 185 240 292 349 421
#     4  10  20  42  76  94 138 200 236 272 366 428
#     4  10  20  42  76  94 138 200 236 272 366 428
#     4  12  24  43  69 106 140 185 240 292 349 421
#     4  12  24  43  69 106 140 185 240 292 349 421
#
# _framework density 21.298601999999999
#
# number of rings (size 3 to 8) (size 9 to 14) (size 15 to 20)
#    0.667    0.000    6.667    2.000    0.000    5.333 
#    0.000    0.000    0.000    0.000    0.000    0.000 
#    0.000    0.000    0.000    0.000    0.000    0.000 
#
# Total GULP energy -446492.649442 kJ/mol
# GULP energy per Si atom -12402.573596 kJ/mol
# Density = 2.125013 g / cm^3
# Si number density = 21.298602 Si / 1000 Ang^3
#
#
#
# Elastic Constant Matrix: (Units=GPa)
#
#
# Indices 1 2 3 4 5 6 
#
# 1 84.2026 21.0396 51.8811 0.0000 0.0001 0.0000
# 2 21.0396 84.2026 51.8811 0.0000 -0.0001 0.0000
# 3 51.8811 51.8811 237.1987 0.0000 0.0000 0.0000
# 4 0.0000 0.0000 0.0000 35.2780 0.0000 -0.0001
# 5 0.0001 -0.0001 0.0000 0.0000 35.2780 0.0000
# 6 0.0000 0.0000 0.0000 -0.0001 0.0000 31.5815
#
#
#
# Elastic Compliance Matrix: (Units=1/GPa)
#
#
# Indices 1 2 3 4 5 6 
#
# 1 0.013973 -0.001859 -0.002650 0.000000 0.000000 0.000000
# 2 -0.001859 0.013973 -0.002650 0.000000 0.000000 0.000000
# 3 -0.002650 -0.002650 0.005375 0.000000 0.000000 0.000000
# 4 0.000000 0.000000 0.000000 0.028346 0.000000 0.000000
# 5 0.000000 0.000000 0.000000 0.000000 0.028346 0.000000
# 6 0.000000 0.000000 0.000000 0.000000 0.000000 0.031664
#
#
# Mechanical properties :
#
#
# Convention : Reuss Voigt Hill
#
# Bulk Modulus (GPa) = 52.61815 72.80085 62.70950
# Shear Modulus (GPa) = 35.12977 39.14766 37.13872
#
# Velocity S-wave (km/s) = 4.06568 4.29189 4.18031
# Velocity P-wave (km/s) = 6.84093 7.66914 7.26684
#
# Compressibility (1/GPa) = 0.01900485
#
# Stress axis : x y z
#
# Youngs Moduli (GPa) = 71.56565 71.56565 186.04715
#
# Poissons Ratio (x) = 0.13303 0.49297
# Poissons Ratio (y) = 0.13303 0.49297
# Poissons Ratio (z) = 0.18963 0.18963
#
# Static dielectric constant tensor:
#      x y z
#    x 3.458280 0.000000 0.000000 
#    y 0.000000 3.458280 0.000000 
#    z 0.000000 0.000000 3.848030 
# 
# 
# High freq. dielectric constant tensor:
#      x y z
#    x 1.819470 0.000000 0.000000 
#    y 0.000000 1.819470 0.000000 
#    z 0.000000 0.000000 1.850440 
# 
# From -- ./inp_files/1273.got.cif
#   From: 2010.03.12/outbox.cif.g09.slc.cpg/sg159_cif.got.tgz:1273.got - 2010.04.03 14:00:19.
