data_PCOD8322493
_publ_section_title
;
Structure prediction by ZEFSAII (Michael W. Deem and Ramdas Pophale) SiO2 
 PCOD8322493
Probable space group: R 3 2
;
_chemical_formula_sum "Si O2"
_cell_formula_units_Z 84
_cell_length_a 14.185129
_cell_length_b 14.185129
_cell_length_c 26.283680
_cell_angle_alpha 90.000000
_cell_angle_beta 90.000000
_cell_angle_gamma 120.000000
_cell_volume 4580.188817
_symmetry_space_group_name_H-M "R 3 2"
_symmetry_group_IT_number 155
_symmetry_cell_setting 'hexagonal'
loop_
_space_group_symop_operation_xyz
x,y,z
-y,x-y,z
-x+y,-x,z
x-y,-y,-z
-x,-x+y,-z
y,x,-z
2/3+x,1/3+y,1/3+z
2/3-y,1/3+x-y,1/3+z
2/3-x+y,1/3-x,1/3+z
2/3+x-y,1/3-y,1/3-z
2/3-x,1/3-x+y,1/3-z
2/3+y,1/3+x,1/3-z
1/3+x,2/3+y,2/3+z
1/3-y,2/3+x-y,2/3+z
1/3-x+y,2/3-x,2/3+z
1/3+x-y,2/3-y,2/3-z
1/3-x,2/3-x+y,2/3-z
1/3+y,2/3+x,2/3-z
loop_
_atom_site_type_symbol
_atom_site_label
_atom_site_fract_x
_atom_site_fract_y
_atom_site_fract_z
Si Si1 0.333334 0.666667 0.053473
Si Si2 0.563055 0.997011 0.060346
Si Si3 0.455858 0.905000 0.398764
Si Si4 0.004689 0.357742 0.107738
Si Si5 0.786110 0.216181 0.945946
Si Si6 0.000000 0.000000 0.733405
O O1 0.450247 0.686739 0.070944
O O2 0.333334 0.666667 0.993376
O O3 0.464075 0.999759 0.088987
O O4 0.575470 0.893391 0.073902
O O5 0.678972 0.095153 0.079391
O O6 0.542307 0.000000 0.000000
O O7 0.422594 0.983696 0.428092
O O8 0.453176 0.923901 0.339008
O O9 0.363937 0.786086 0.418150
O O10 0.030208 0.363541 0.166667
O O11 0.101352 0.346773 0.080826
#
# Coordination Sequence:
#
# PCOD8322493 Si02
#       6
#     6  18  18  18  18   6
#     4   9  15  27  55  91 111 132 177 235 301 342
#     4  10  20  37  63  86 107 150 204 247 286 335
#     4  10  19  36  60  84 109 148 206 250 273 329
#     4  12  24  36  52  88 126 156 183 226 307 361
#     4  10  19  35  59  86 114 146 192 244 292 344
#     4   9  15  27  60  85 100 138 196 253 270 303
#
# _framework density 18.339856000000001
#
# number of rings (size 3 to 8) (size 9 to 14) (size 15 to 20)
#    0.000    1.714    4.286    1.929    0.000    0.857 
#    3.857    0.000    0.000    0.857    0.000    3.000 
#    0.000    0.000    0.000    0.000    0.000    0.000 
#
# Total GULP energy -346927.058710 kJ/mol
# GULP energy per Si atom -12390.252097 kJ/mol
# Density = 1.829811 g / cm^3
# Si number density = 18.339856 Si / 1000 Ang^3
#
#
#
# Elastic Constant Matrix: (Units=GPa)
#
#
# Indices 1 2 3 4 5 6 
#
# 1 86.8490 56.4922 41.1400 0.3206 0.0002 0.0000
# 2 56.4922 86.8470 41.1412 -0.3208 -0.0002 0.0000
# 3 41.1400 41.1412 63.9244 -0.0001 0.0000 0.0000
# 4 0.3206 -0.3208 -0.0001 16.2025 0.0000 -0.0002
# 5 0.0002 -0.0002 0.0000 0.0000 16.2021 0.3194
# 6 0.0000 0.0000 0.0000 -0.0002 0.3194 15.1743
#
#
#
# Elastic Compliance Matrix: (Units=1/GPa)
#
#
# Indices 1 2 3 4 5 6 
#
# 1 0.022009 -0.010946 -0.007120 -0.000652 0.000000 0.000000
# 2 -0.010946 0.022011 -0.007121 0.000652 0.000000 0.000000
# 3 -0.007120 -0.007121 0.024809 0.000000 0.000000 0.000000
# 4 -0.000652 0.000652 0.000000 0.061745 0.000000 0.000001
# 5 0.000000 0.000000 0.000000 0.000000 0.061746 -0.001300
# 6 0.000000 0.000000 0.000000 0.000001 -0.001300 0.065928
#
#
# Mechanical properties :
#
#
# Convention : Reuss Voigt Hill
#
# Bulk Modulus (GPa) = 54.18758 57.24079 55.71418
# Shear Modulus (GPa) = 15.88445 16.10560 15.99503
#
# Velocity S-wave (km/s) = 2.94618 2.96662 2.95642
# Velocity P-wave (km/s) = 6.41746 6.55845 6.48834
#
# Compressibility (1/GPa) = 0.01845441
#
# Stress axis : x y z
#
# Youngs Moduli (GPa) = 45.43505 45.43242 40.30865
#
# Poissons Ratio (x) = 0.49732 0.28698
# Poissons Ratio (y) = 0.49735 0.28704
# Poissons Ratio (z) = 0.32348 0.32353
#
# Static dielectric constant tensor:
#      x y z
#    x 3.917680 0.000000 0.000000 
#    y 0.000000 3.917610 0.000010 
#    z 0.000000 0.000010 2.995520 
# 
# 
# High freq. dielectric constant tensor:
#      x y z
#    x 1.713530 0.000000 0.000000 
#    y 0.000000 1.713530 0.000000 
#    z 0.000000 0.000000 1.670620 
# 
# From -- ./inp_files/7394.got.cif
#   From: 2010.03.12/outbox.cif.g09.slc.cpg/sg155_4_cif.got.tgz:7394.got - 2010.04.03 13:54:13.
