data_PCOD8322487
_publ_section_title
;
Structure prediction by ZEFSAII (Michael W. Deem and Ramdas Pophale) SiO2 
 PCOD8322487
Probable space group: R 3 2
;
_chemical_formula_sum "Si O2"
_cell_formula_units_Z 126
_cell_length_a 17.925668
_cell_length_b 17.925668
_cell_length_c 24.084820
_cell_angle_alpha 90.000000
_cell_angle_beta 90.000000
_cell_angle_gamma 120.000000
_cell_volume 6702.313435
_symmetry_space_group_name_H-M "R 3 2"
_symmetry_group_IT_number 155
_symmetry_cell_setting 'hexagonal'
loop_
_space_group_symop_operation_xyz
x,y,z
-y,x-y,z
-x+y,-x,z
x-y,-y,-z
-x,-x+y,-z
y,x,-z
2/3+x,1/3+y,1/3+z
2/3-y,1/3+x-y,1/3+z
2/3-x+y,1/3-x,1/3+z
2/3+x-y,1/3-y,1/3-z
2/3-x,1/3-x+y,1/3-z
2/3+y,1/3+x,1/3-z
1/3+x,2/3+y,2/3+z
1/3-y,2/3+x-y,2/3+z
1/3-x+y,2/3-x,2/3+z
1/3+x-y,2/3-y,2/3-z
1/3-x,2/3-x+y,2/3-z
1/3+y,2/3+x,2/3-z
loop_
_atom_site_type_symbol
_atom_site_label
_atom_site_fract_x
_atom_site_fract_y
_atom_site_fract_z
Si Si1 0.584201 0.761500 0.146459
Si Si2 0.682517 0.179819 0.600743
Si Si3 0.334586 0.913839 0.800874
Si Si4 0.980657 0.595532 0.884799
Si Si5 0.004097 0.423967 0.635606
Si Si6 0.498547 0.182656 0.097640
Si Si7 0.920626 0.508424 0.705069
O O1 0.516828 0.666667 0.166667
O O2 0.673264 0.769915 0.125248
O O3 0.596666 0.830202 0.194661
O O4 0.545143 0.776488 0.090037
O O5 0.721010 0.124095 0.575755
O O6 0.752861 0.279621 0.602180
O O7 0.604907 0.166206 0.561673
O O8 0.647106 0.154375 0.662926
O O9 0.275988 0.942655 0.833334
O O10 0.282596 0.867806 0.743883
O O11 0.345840 0.846848 0.839214
O O12 0.991945 0.658612 0.833334
O O13 0.935747 0.620327 0.934540
O O14 0.023004 0.356337 0.666667
O O15 0.915325 0.362758 0.604604
O O16 0.994746 0.494876 0.673328
#
# Coordination Sequence:
#
# PCOD8322487 Si02
#       7
#    18  18  18  18  18  18  18
#     4  10  19  36  62  88 117 157 210 251 288 369
#     4  11  22  38  55  80 121 156 196 257 301 371
#     4   9  17  33  57  85 109 140 199 251 296 343
#     4  10  22  38  58  83 121 165 198 244 315 383
#     4  10  19  33  58  85 117 144 195 266 295 343
#     4  10  22  36  56  85 111 157 200 244 311 366
#     4  10  22  35  54  90 119 157 200 241 313 366
#
# _framework density 18.799479000000002
#
# number of rings (size 3 to 8) (size 9 to 14) (size 15 to 20)
#    0.000    2.000    2.857    0.714    0.000    6.286 
#    0.000    0.000    0.000    7.714    0.000    0.000 
#    0.000    0.000    0.000    0.000    0.000    0.000 
#
# Total GULP energy -520303.356843 kJ/mol
# GULP energy per Si atom -12388.175163 kJ/mol
# Density = 1.875669 g / cm^3
# Si number density = 18.799479 Si / 1000 Ang^3
#
#
#
# Elastic Constant Matrix: (Units=GPa)
#
#
# Indices 1 2 3 4 5 6 
#
# 1 81.7761 33.4424 53.8193 -0.7757 0.0000 0.0000
# 2 33.4424 81.7761 53.8193 0.7757 0.0000 0.0000
# 3 53.8193 53.8193 113.9288 0.0000 0.0000 0.0000
# 4 -0.7757 0.7757 0.0000 28.4554 0.0000 0.0000
# 5 0.0000 0.0000 0.0000 0.0000 28.4554 -0.7757
# 6 0.0000 0.0000 0.0000 0.0000 -0.7757 24.1668
#
#
#
# Elastic Compliance Matrix: (Units=1/GPa)
#
#
# Indices 1 2 3 4 5 6 
#
# 1 0.018121 -0.002586 -0.007339 0.000564 0.000000 0.000000
# 2 -0.002586 0.018121 -0.007339 -0.000564 0.000000 0.000000
# 3 -0.007339 -0.007339 0.015711 0.000000 0.000000 0.000000
# 4 0.000564 -0.000564 0.000000 0.035173 0.000000 0.000000
# 5 0.000000 0.000000 0.000000 0.000000 0.035173 0.001129
# 6 0.000000 0.000000 0.000000 0.000000 0.001129 0.041415
#
#
# Mechanical properties :
#
#
# Convention : Reuss Voigt Hill
#
# Bulk Modulus (GPa) = 57.38448 62.18258 59.78353
# Shear Modulus (GPa) = 24.50360 25.30888 24.90624
#
# Velocity S-wave (km/s) = 3.61421 3.67311 3.64378
# Velocity P-wave (km/s) = 6.92874 7.15106 7.04077
#
# Compressibility (1/GPa) = 0.01742631
#
# Stress axis : x y z
#
# Youngs Moduli (GPa) = 55.18360 55.18360 63.65011
#
# Poissons Ratio (x) = 0.14272 0.46711
# Poissons Ratio (y) = 0.14272 0.46711
# Poissons Ratio (z) = 0.40497 0.40497
#
# Static dielectric constant tensor:
#      x y z
#    x 3.425060 0.000000 0.000000 
#    y 0.000000 3.425060 0.000000 
#    z 0.000000 0.000000 3.853650 
# 
# 
# High freq. dielectric constant tensor:
#      x y z
#    x 1.714410 0.000000 0.000000 
#    y 0.000000 1.714410 0.000000 
#    z 0.000000 0.000000 1.744800 
# 
# From -- ./inp_files/7533.got.cif
#   From: 2010.03.12/outbox.cif.g09.slc.cpg/sg155_4_cif.got.tgz:7533.got - 2010.04.03 13:54:13.
