data_PCOD8322848
_publ_section_title
;
Structure prediction by ZEFSAII (Michael W. Deem and Ramdas Pophale) SiO2 
 PCOD8322848
Probable space group: R 3 M
;
_chemical_formula_sum "Si O2"
_cell_formula_units_Z 126
_cell_length_a 22.278337
_cell_length_b 22.278337
_cell_length_c 17.160973
_cell_angle_alpha 90.000000
_cell_angle_beta 90.000000
_cell_angle_gamma 120.000000
_cell_volume 7376.291618
_symmetry_space_group_name_H-M "R 3 M"
_symmetry_group_IT_number 160
_symmetry_cell_setting 'hexagonal'
loop_
_space_group_symop_operation_xyz
x,y,z
-y,x-y,z
-x+y,-x,z
-x+y,y,z
x,x-y,z
-y,-x,z
2/3+x,1/3+y,1/3+z
2/3-y,1/3+x-y,1/3+z
2/3-x+y,1/3-x,1/3+z
2/3-x+y,1/3+y,1/3+z
2/3+x,1/3+x-y,1/3+z
2/3-y,1/3-x,1/3+z
1/3+x,2/3+y,2/3+z
1/3-y,2/3+x-y,2/3+z
1/3-x+y,2/3-x,2/3+z
1/3-x+y,2/3+y,2/3+z
1/3+x,2/3+x-y,2/3+z
1/3-y,2/3-x,2/3+z
loop_
_atom_site_type_symbol
_atom_site_label
_atom_site_fract_x
_atom_site_fract_y
_atom_site_fract_z
Si Si1 0.607266 0.531068 0.647506
Si Si2 0.712444 0.735112 0.756817
Si Si3 0.143234 0.423484 0.806223
Si Si4 0.746006 0.628986 0.934994
Si Si5 0.900191 0.595658 0.260609
Si Si6 0.666582 0.466549 0.349190
Si Si7 0.061603 0.459806 0.096936
O O1 0.546464 0.453537 0.667414
O O2 0.639835 0.537280 0.561903
O O3 0.576126 0.582574 0.645705
O O4 0.667876 0.550513 0.710814
O O5 0.628179 0.700729 0.758944
O O6 0.745176 0.783635 0.679925
O O7 0.739149 0.680269 0.752380
O O8 0.733920 0.780576 0.835539
O O9 0.197292 0.394584 0.803079
O O10 0.175073 0.497750 0.766329
O O11 0.826065 0.652130 0.942422
O O12 0.741596 0.697675 0.933550
O O13 0.714132 0.584602 0.855500
O O14 0.832072 0.528021 0.287683
O O15 0.719409 0.438817 0.360880
O O16 0.595035 0.404966 0.315727
O O17 0.059428 0.529714 0.074046
#
# Coordination Sequence:
#
# PCOD8322848 Si02
#       7
#    18  18  18  18  18  18  18
#     4  10  19  34  54  76 102 133 168 211 256 307
#     4  10  18  32  53  74 100 128 167 207 255 307
#     4   9  18  31  52  76  97 128 170 210 252 301
#     4  10  18  31  53  75 101 137 169 203 253 307
#     4  10  19  31  52  76 102 128 170 211 257 301
#     4  11  21  33  47  70 103 140 175 209 247 295
#     4  10  21  34  50  75 107 138 166 209 264 308
#
# _framework density 17.081754
#
# number of rings (size 3 to 8) (size 9 to 14) (size 15 to 20)
#    0.000    2.000    2.857    1.429    0.000    2.857 
#    0.000    0.714    0.000    0.286    0.000    0.000 
#    0.000    0.000    0.000    0.000    0.000    0.000 
#
# Total GULP energy -520477.554329 kJ/mol
# GULP energy per Si atom -12392.322722 kJ/mol
# Density = 1.704287 g / cm^3
# Si number density = 17.081754 Si / 1000 Ang^3
#
#
#
# Elastic Constant Matrix: (Units=GPa)
#
#
# Indices 1 2 3 4 5 6 
#
# 1 76.0238 32.7921 40.6930 1.3806 0.0000 0.0000
# 2 32.7921 76.0238 40.6930 -1.3806 0.0000 0.0000
# 3 40.6930 40.6930 120.9022 0.0000 0.0000 0.0000
# 4 1.3806 -1.3806 0.0000 20.6030 0.0000 0.0000
# 5 0.0000 0.0000 0.0000 0.0000 20.6030 1.3806
# 6 0.0000 0.0000 0.0000 0.0000 1.3806 21.6158
#
#
#
# Elastic Compliance Matrix: (Units=1/GPa)
#
#
# Indices 1 2 3 4 5 6 
#
# 1 0.017756 -0.005475 -0.004134 -0.001557 0.000000 0.000000
# 2 -0.005475 0.017756 -0.004134 0.001557 0.000000 0.000000
# 3 -0.004134 -0.004134 0.011054 0.000000 0.000000 0.000000
# 4 -0.001557 0.001557 0.000000 0.048745 0.000000 0.000000
# 5 0.000000 0.000000 0.000000 0.000000 0.048745 -0.003113
# 6 0.000000 0.000000 0.000000 0.000000 -0.003113 0.046461
#
#
# Mechanical properties :
#
#
# Convention : Reuss Voigt Hill
#
# Bulk Modulus (GPa) = 52.40530 55.70069 54.05299
# Shear Modulus (GPa) = 22.28542 23.14916 22.71729
#
# Velocity S-wave (km/s) = 3.61589 3.68530 3.65076
# Velocity P-wave (km/s) = 6.94108 7.12654 7.03442
#
# Compressibility (1/GPa) = 0.01908204
#
# Stress axis : x y z
#
# Youngs Moduli (GPa) = 56.31883 56.31883 90.46696
#
# Poissons Ratio (x) = 0.30832 0.37396
# Poissons Ratio (y) = 0.30832 0.37396
# Poissons Ratio (z) = 0.23280 0.23280
#
# Static dielectric constant tensor:
#      x y z
#    x 3.039620 0.000000 0.000000 
#    y 0.000000 3.039620 0.000000 
#    z 0.000000 0.000000 3.742900 
# 
# 
# High freq. dielectric constant tensor:
#      x y z
#    x 1.638400 0.000000 0.000000 
#    y 0.000000 1.638400 0.000000 
#    z 0.000000 0.000000 1.675440 
# 
# From -- ./inp_files/3017.got.cif
#   From: 2010.03.12/outbox.cif.g09.slc.cpg/sg160_2_cif.got.tgz:3017.got - 2010.04.02 06:26:15.
