data_PCOD8322353
_publ_section_title
;
Structure prediction by ZEFSAII (Michael W. Deem and Ramdas Pophale) SiO2 
 PCOD8322353
Probable space group: P 32 2 1
;
_chemical_formula_sum "Si O2"
_cell_formula_units_Z 36
_cell_length_a 7.747492
_cell_length_b 7.747492
_cell_length_c 28.334344
_cell_angle_alpha 90.000000
_cell_angle_beta 90.000000
_cell_angle_gamma 120.000000
_cell_volume 1472.875598
_symmetry_space_group_name_H-M "P 32 2 1"
_symmetry_group_IT_number 154
_symmetry_cell_setting 'hexagonal'
loop_
_space_group_symop_operation_xyz
x,y,z
-y,x-y,2/3+z
-x+y,-x,1/3+z
x-y,-y,1/3-z
-x,-x+y,2/3-z
y,x,-z
loop_
_atom_site_type_symbol
_atom_site_label
_atom_site_fract_x
_atom_site_fract_y
_atom_site_fract_z
Si Si1 0.905781 0.730425 0.403208
Si Si2 0.629940 0.288717 0.387831
Si Si3 0.115608 0.000000 0.166667
Si Si4 0.145541 0.407416 0.196006
Si Si5 0.442330 0.776372 0.769772
Si Si6 0.062252 0.000000 0.666667
Si Si7 0.099508 0.660320 0.704457
O O1 0.810353 0.513593 0.379135
O O2 0.813919 0.731017 0.455363
O O3 0.139111 0.793610 0.408850
O O4 0.873718 0.876822 0.368490
O O5 0.670891 0.190090 0.433597
O O6 0.447632 0.328753 0.393722
O O7 0.586066 0.130492 0.346233
O O8 0.907875 0.818865 0.147346
O O9 0.209237 0.545440 0.149177
O O10 0.957540 0.410902 0.215848
O O11 0.252512 0.633456 0.738132
O O12 0.136534 0.881582 0.699372
#
# Coordination Sequence:
#
# PCOD8322353 Si02
#       7
#     6   6   3   6   6   3   6
#     4  10  21  39  63  89 126 167 212 265 322 382
#     4  11  25  42  61  93 129 166 212 268 326 384
#     4  10  20  38  66  94 126 172 216 264 326 386
#     4  10  23  41  64  94 129 168 214 263 319 384
#     4  10  23  41  63  93 128 167 210 263 316 380
#     4  12  22  40  68  94 124 170 218 262 320 392
#     4  12  25  41  64  92 127 167 213 266 324 389
#
# _framework density 24.441980000000001
#
# number of rings (size 3 to 8) (size 9 to 14) (size 15 to 20)
#    0.000    1.333    0.000    6.000    0.000   10.000 
#    0.000    0.000    0.000    0.000    0.000    0.000 
#    0.000    0.000    0.000    0.000    0.000    0.000 
#
# Total GULP energy -446045.900937 kJ/mol
# GULP energy per Si atom -12390.163915 kJ/mol
# Density = 2.438635 g / cm^3
# Si number density = 24.441980 Si / 1000 Ang^3
#
#
#
# Elastic Constant Matrix: (Units=GPa)
#
#
# Indices 1 2 3 4 5 6 
#
# 1 73.9135 10.9349 25.5803 4.2279 -0.0003 0.0000
# 2 10.9349 73.9135 25.5803 -4.2279 0.0003 0.0000
# 3 25.5803 25.5803 106.3112 0.0000 0.0000 0.0000
# 4 4.2279 -4.2279 0.0000 37.0058 0.0000 0.0003
# 5 -0.0003 0.0003 0.0000 0.0000 37.0058 4.2279
# 6 0.0000 0.0000 0.0000 0.0003 4.2279 31.4893
#
#
#
# Elastic Compliance Matrix: (Units=1/GPa)
#
#
# Indices 1 2 3 4 5 6 
#
# 1 0.014956 -0.001170 -0.003317 -0.001842 0.000000 0.000000
# 2 -0.001170 0.014956 -0.003317 0.001842 0.000000 0.000000
# 3 -0.003317 -0.003317 0.011003 0.000000 0.000000 0.000000
# 4 -0.001842 0.001842 0.000000 0.027444 0.000000 0.000000
# 5 0.000000 0.000000 0.000000 0.000000 0.027444 -0.003685
# 6 0.000000 0.000000 0.000000 0.000000 -0.003685 0.032252
#
#
# Mechanical properties :
#
#
# Convention : Reuss Voigt Hill
#
# Bulk Modulus (GPa) = 39.51652 42.03658 40.77655
# Shear Modulus (GPa) = 32.87380 33.90306 33.38843
#
# Velocity S-wave (km/s) = 3.67137 3.72840 3.69999
# Velocity P-wave (km/s) = 5.84589 5.98084 5.91375
#
# Compressibility (1/GPa) = 0.02530587
#
# Stress axis : x y z
#
# Youngs Moduli (GPa) = 66.86376 66.86376 90.88724
#
# Poissons Ratio (x) = 0.07823 0.30148
# Poissons Ratio (y) = 0.07823 0.30148
# Poissons Ratio (z) = 0.22179 0.22179
#
# Static dielectric constant tensor:
#      x y z
#    x 4.502150 0.000000 0.000000 
#    y 0.000000 4.502150 0.000000 
#    z 0.000000 0.000000 5.215630 
# 
# 
# High freq. dielectric constant tensor:
#      x y z
#    x 1.965930 0.000000 0.000000 
#    y 0.000000 1.965930 0.000000 
#    z 0.000000 0.000000 1.981050 
# 
# From -- ./inp_files/3484.got.cif
#   From: 2010.03.12/outbox.cif.g09.slc.cpg/sg154_2_cif.got.tgz:3484.got - 2010.04.03 13:51:21.
