data_PCOD8322985
_publ_section_title
;
Structure prediction by ZEFSAII (Michael W. Deem and Ramdas Pophale) SiO2 
 PCOD8322985
Probable space group: P -3 1 M 
;
_chemical_formula_sum "Si O2"
_cell_formula_units_Z 60
_cell_length_a 17.610671
_cell_length_b 17.610671
_cell_length_c 12.518028
_cell_angle_alpha 90.000000
_cell_angle_beta 90.000000
_cell_angle_gamma 120.000000
_cell_volume 3362.159851
_symmetry_space_group_name_H-M "P -3 1 M "
_symmetry_group_IT_number 162
_symmetry_cell_setting 'hexagonal'
loop_
_space_group_symop_operation_xyz
x,y,z
-y,x-y,z
-x+y,-x,z
-y,-x,-z
-x+y,y,-z
x,x-y,-z
-x,-y,-z
y,-x+y,-z
x-y,x,-z
y,x,z
x-y,-y,z
-x,-x+y,z
loop_
_atom_site_type_symbol
_atom_site_label
_atom_site_fract_x
_atom_site_fract_y
_atom_site_fract_z
Si Si1 0.495022 0.826546 0.960878
Si Si2 0.439702 0.225816 0.757804
Si Si3 0.901167 0.556268 0.586459
Si Si4 0.675791 0.775824 0.924004
Si Si5 0.485221 0.100502 0.649829
O O1 0.507383 0.820602 0.832724
O O2 0.431274 0.862547 0.000000
O O3 0.453729 0.726865 0.000000
O O4 0.588565 0.887926 0.016902
O O5 0.416828 0.254438 0.646294
O O6 0.349736 0.155323 0.814573
O O7 0.491296 0.172413 0.734833
O O8 0.877219 0.460170 0.625750
O O9 0.888952 0.557232 0.459616
O O10 0.000000 0.625731 0.619061
O O11 0.742691 0.742691 0.897756
O O12 0.722620 0.861310 0.000000
O O13 0.425931 0.000000 0.692724
#
# Coordination Sequence:
#
# PCOD8322985 Si02
#       5
#    12  12  12  12  12
#     4   9  20  33  46  68 101 137 168 213 252 294
#     4  10  19  30  52  73  93 131 174 213 256 299
#     4   9  19  33  49  70  99 132 169 210 260 302
#     4   9  20  36  52  74  99 128 166 212 262 310
#     4   9  18  34  50  69  99 133 170 215 253 303
#
# _framework density 17.845670999999999
#
# number of rings (size 3 to 8) (size 9 to 14) (size 15 to 20)
#    0.000    3.200    0.000    2.600    5.600    3.600 
#    1.200    0.000    0.000    0.200    0.000    0.000 
#    0.000    0.000    0.000    0.000    0.000   49.400 
#
# Total GULP energy -743371.800344 kJ/mol
# GULP energy per Si atom -12389.530006 kJ/mol
# Density = 1.780505 g / cm^3
# Si number density = 17.845671 Si / 1000 Ang^3
#
#
#
# Elastic Constant Matrix: (Units=GPa)
#
#
# Indices 1 2 3 4 5 6 
#
# 1 65.9815 24.5040 21.1482 0.0000 -1.3679 0.0000
# 2 24.5040 65.9815 21.1482 0.0000 1.3679 0.0000
# 3 21.1482 21.1482 59.0134 0.0000 0.0000 0.0000
# 4 0.0000 0.0000 0.0000 20.7047 0.0000 1.3679
# 5 -1.3679 1.3679 0.0000 0.0000 20.7047 0.0000
# 6 0.0000 0.0000 0.0000 1.3679 0.0000 20.7387
#
#
#
# Elastic Compliance Matrix: (Units=1/GPa)
#
#
# Indices 1 2 3 4 5 6 
#
# 1 0.018745 -0.005470 -0.004757 0.000000 0.001600 0.000000
# 2 -0.005470 0.018745 -0.004757 0.000000 -0.001600 0.000000
# 3 -0.004757 -0.004757 0.020355 0.000000 0.000000 0.000000
# 4 0.000000 0.000000 0.000000 0.048510 0.000000 -0.003200
# 5 0.001600 -0.001600 0.000000 0.000000 0.048510 0.000000
# 6 0.000000 0.000000 0.000000 -0.003200 0.000000 0.048430
#
#
# Mechanical properties :
#
#
# Convention : Reuss Voigt Hill
#
# Bulk Modulus (GPa) = 35.87301 36.06414 35.96857
# Shear Modulus (GPa) = 20.61381 20.70801 20.66091
#
# Velocity S-wave (km/s) = 3.40239 3.41015 3.40627
# Velocity P-wave (km/s) = 5.96493 5.97982 5.97238
#
# Compressibility (1/GPa) = 0.02787611
#
# Stress axis : x y z
#
# Youngs Moduli (GPa) = 53.34719 53.34719 49.12788
#
# Poissons Ratio (x) = 0.29180 0.23372
# Poissons Ratio (y) = 0.29180 0.23372
# Poissons Ratio (z) = 0.25379 0.25379
#
# Static dielectric constant tensor:
#      x y z
#    x 3.021150 0.000000 0.000000 
#    y 0.000000 3.021150 0.000000 
#    z 0.000000 0.000000 3.484490 
# 
# 
# High freq. dielectric constant tensor:
#      x y z
#    x 1.658710 0.000000 0.000000 
#    y 0.000000 1.658710 0.000000 
#    z 0.000000 0.000000 1.703210 
# 
# From -- ./inp_files/2321.got.cif
#   From: 2010.03.12/outbox.cif.g09.slc.cpg/sg162_2_cif.got.tgz:2321.got - 2010.04.02 06:27:41.
