data_PCOD8322297
_publ_section_title
;
Structure prediction by ZEFSAII (Michael W. Deem and Ramdas Pophale) SiO2 
 PCOD8322297
Probable space group: P 32 2 1
;
_chemical_formula_sum "Si O2"
_cell_formula_units_Z 36
_cell_length_a 17.046546
_cell_length_b 17.046546
_cell_length_c 8.382900
_cell_angle_alpha 90.000000
_cell_angle_beta 90.000000
_cell_angle_gamma 120.000000
_cell_volume 2109.588293
_symmetry_space_group_name_H-M "P 32 2 1"
_symmetry_group_IT_number 154
_symmetry_cell_setting 'hexagonal'
loop_
_space_group_symop_operation_xyz
x,y,z
-y,x-y,2/3+z
-x+y,-x,1/3+z
x-y,-y,1/3-z
-x,-x+y,2/3-z
y,x,-z
loop_
_atom_site_type_symbol
_atom_site_label
_atom_site_fract_x
_atom_site_fract_y
_atom_site_fract_z
Si Si1 0.900633 0.483604 0.690997
Si Si2 0.438966 0.200575 0.825257
Si Si3 0.370977 0.030862 0.001832
Si Si4 0.716586 0.344768 0.598864
Si Si5 0.910882 0.382791 0.235181
Si Si6 0.623310 0.089200 0.381454
O O1 0.934756 0.411133 0.700725
O O2 0.808323 0.443740 0.590084
O O3 0.979691 0.574828 0.606526
O O4 0.881033 0.504371 0.867339
O O5 0.523335 0.255349 0.943056
O O6 0.476028 0.168721 0.675071
O O7 0.406916 0.271401 0.771034
O O8 0.360920 0.111613 0.917173
O O9 0.314707 0.000000 0.166667
O O10 0.331239 0.942184 0.889934
O O11 0.659333 0.328439 0.435744
O O12 0.872593 0.441898 0.151521
O O13 0.000000 0.452532 0.333334
#
# Coordination Sequence:
#
# PCOD8322297 Si02
#       6
#     6   6   6   6   6   6
#     4   9  18  31  49  62  89 133 153 196 277 316
#     4  10  20  27  45  72  85 113 163 212 258 295
#     4   9  15  32  48  62  83 123 158 193 262 322
#     4  11  22  35  47  70  96 122 167 223 274 291
#     4   9  17  30  50  65  87 123 160 203 262 307
#     4  10  17  31  45  64  91 120 158 201 257 318
#
# _framework density 17.064941999999999
#
# number of rings (size 3 to 8) (size 9 to 14) (size 15 to 20)
#    0.000    2.333    3.333    3.000    0.000    1.333 
#    0.000    0.000    0.000    0.000    0.000    0.000 
#    0.000    0.000    0.000    0.000    0.000    0.000 
#
# Total GULP energy -445995.682747 kJ/mol
# GULP energy per Si atom -12388.768965 kJ/mol
# Density = 1.702610 g / cm^3
# Si number density = 17.064942 Si / 1000 Ang^3
#
#
#
# Elastic Constant Matrix: (Units=GPa)
#
#
# Indices 1 2 3 4 5 6 
#
# 1 63.2194 27.0068 26.4997 0.3414 0.0000 0.0000
# 2 27.0068 63.2194 26.4997 -0.3414 0.0000 0.0000
# 3 26.4997 26.4997 100.9885 0.0000 0.0000 0.0000
# 4 0.3414 -0.3414 0.0000 15.7635 0.0000 0.0000
# 5 0.0000 0.0000 0.0000 0.0000 15.7635 0.3414
# 6 0.0000 0.0000 0.0000 0.0000 0.3414 18.1063
#
#
#
# Elastic Compliance Matrix: (Units=1/GPa)
#
#
# Indices 1 2 3 4 5 6 
#
# 1 0.020364 -0.007262 -0.003438 -0.000598 0.000000 0.000000
# 2 -0.007262 0.020364 -0.003438 0.000598 0.000000 0.000000
# 3 -0.003438 -0.003438 0.011707 0.000000 0.000000 0.000000
# 4 -0.000598 0.000598 0.000000 0.063464 0.000000 0.000000
# 5 0.000000 0.000000 0.000000 0.000000 0.063464 -0.001197
# 6 0.000000 0.000000 0.000000 0.000000 -0.001197 0.055252
#
#
# Mechanical properties :
#
#
# Convention : Reuss Voigt Hill
#
# Bulk Modulus (GPa) = 41.39185 43.04888 42.22036
# Shear Modulus (GPa) = 18.45403 19.75474 19.10439
#
# Velocity S-wave (km/s) = 3.29203 3.40607 3.34954
# Velocity P-wave (km/s) = 6.22560 6.38355 6.30507
#
# Compressibility (1/GPa) = 0.02415935
#
# Stress axis : x y z
#
# Youngs Moduli (GPa) = 49.10526 49.10526 85.42241
#
# Poissons Ratio (x) = 0.35658 0.29370
# Poissons Ratio (y) = 0.35658 0.29370
# Poissons Ratio (z) = 0.16884 0.16884
#
# Static dielectric constant tensor:
#      x y z
#    x 2.983750 0.000000 0.000000 
#    y 0.000000 2.983750 0.000000 
#    z 0.000000 0.000000 3.606370 
# 
# 
# High freq. dielectric constant tensor:
#      x y z
#    x 1.611220 0.000000 0.000000 
#    y 0.000000 1.611220 0.000000 
#    z 0.000000 0.000000 1.681540 
# 
# From -- ./inp_files/1221.got.cif
#   From: 2010.03.12/outbox.cif.g09.slc.cpg/sg154_1_cif.got.tgz:1221.got - 2010.04.03 13:51:21.
