data_PCOD8322818
_publ_section_title
;
Structure prediction by ZEFSAII (Michael W. Deem and Ramdas Pophale) SiO2 
 PCOD8322818
Probable space group: P 3 1 C
;
_chemical_formula_sum "Si O2"
_cell_formula_units_Z 30
_cell_length_a 18.677171
_cell_length_b 18.677171
_cell_length_c 5.198394
_cell_angle_alpha 90.000000
_cell_angle_beta 90.000000
_cell_angle_gamma 120.000000
_cell_volume 1570.442408
_symmetry_space_group_name_H-M "P 3 1 C"
_symmetry_group_IT_number 159
_symmetry_cell_setting 'hexagonal'
loop_
_space_group_symop_operation_xyz
x,y,z
-y,x-y,z
-x+y,-x,z
y,x,1/2+z
x-y,-y,1/2+z
-x,-x+y,1/2+z
loop_
_atom_site_type_symbol
_atom_site_label
_atom_site_fract_x
_atom_site_fract_y
_atom_site_fract_z
Si Si1 0.637812 0.684240 0.783930
Si Si2 0.764746 0.052032 0.298145
Si Si3 0.543378 0.778406 0.767144
Si Si4 0.046500 0.191801 0.786010
Si Si5 0.562514 0.297101 0.767683
O O1 0.631096 0.629172 0.537267
O O2 0.564112 0.704607 0.777518
O O3 0.724868 0.767546 0.784266
O O4 0.759152 0.134064 0.290471
O O5 0.859193 0.072254 0.291798
O O6 0.720964 0.004541 0.557354
O O7 0.501584 0.776705 0.497471
O O8 0.482678 0.767606 0.997570
O O9 0.001593 0.138485 0.533203
O O10 0.606314 0.240651 0.784112
#
# Coordination Sequence:
#
# PCOD8322818 Si02
#       5
#     6   6   6   6   6
#     4   9  17  29  50  81 108 134 167 209 268 325
#     4  11  22  35  56  87 118 155 198 235 288 359
#     4  11  20  37  61  83 115 146 186 242 284 332
#     4   9  17  31  51  73 102 142 186 231 266 301
#     4  10  22  38  62  86 101 143 195 247 272 337
#
# _framework density 19.102898
#
# number of rings (size 3 to 8) (size 9 to 14) (size 15 to 20)
#    0.400    1.600    0.000    4.800    0.000    6.400 
#    0.000    0.000    0.000   32.000    0.000    0.000 
#    0.000    0.000    0.000    0.000    0.000    0.000 
#
# Total GULP energy -372002.703579 kJ/mol
# GULP energy per Si atom -12400.090119 kJ/mol
# Density = 1.905942 g / cm^3
# Si number density = 19.102898 Si / 1000 Ang^3
#
#
#
# Elastic Constant Matrix: (Units=GPa)
#
#
# Indices 1 2 3 4 5 6 
#
# 1 75.0342 20.0685 25.2692 0.0000 -1.0476 0.0000
# 2 20.0685 75.0342 25.2692 0.0000 1.0476 0.0000
# 3 25.2692 25.2692 141.0563 0.0000 0.0000 0.0000
# 4 0.0000 0.0000 0.0000 38.8003 0.0000 1.0476
# 5 -1.0476 1.0476 0.0000 0.0000 38.8003 0.0000
# 6 0.0000 0.0000 0.0000 1.0476 0.0000 27.4829
#
#
#
# Elastic Compliance Matrix: (Units=1/GPa)
#
#
# Indices 1 2 3 4 5 6 
#
# 1 0.014917 -0.003295 -0.002082 0.000000 0.000492 0.000000
# 2 -0.003295 0.014917 -0.002082 0.000000 -0.000492 0.000000
# 3 -0.002082 -0.002082 0.007835 0.000000 0.000000 0.000000
# 4 0.000000 0.000000 0.000000 0.025800 0.000000 -0.000983
# 5 0.000492 -0.000492 0.000000 0.000000 0.025800 0.000000
# 6 0.000000 0.000000 0.000000 -0.000983 0.000000 0.036424
#
#
# Mechanical properties :
#
#
# Convention : Reuss Voigt Hill
#
# Bulk Modulus (GPa) = 43.95539 48.03764 45.99651
# Shear Modulus (GPa) = 33.73980 35.71787 34.72883
#
# Velocity S-wave (km/s) = 4.20719 4.32877 4.26841
# Velocity P-wave (km/s) = 6.83084 7.08418 6.95867
#
# Compressibility (1/GPa) = 0.02275034
#
# Stress axis : x y z
#
# Youngs Moduli (GPa) = 67.03945 67.03945 127.62796
#
# Poissons Ratio (x) = 0.22092 0.26570
# Poissons Ratio (y) = 0.22092 0.26570
# Poissons Ratio (z) = 0.13957 0.13957
#
# Static dielectric constant tensor:
#      x y z
#    x 3.339340 0.000000 0.000000 
#    y 0.000000 3.339340 0.000000 
#    z 0.000000 0.000000 3.676550 
# 
# 
# High freq. dielectric constant tensor:
#      x y z
#    x 1.724480 0.000000 0.000000 
#    y 0.000000 1.724480 0.000000 
#    z 0.000000 0.000000 1.765420 
# 
# From -- ./inp_files/92.got.cif
#   From: 2010.03.12/outbox.cif.g09.slc.cpg/sg159_cif.got.tgz:92.got - 2010.04.03 14:00:19.
