data_PCOD8322619
_publ_section_title
;
Structure prediction by ZEFSAII (Michael W. Deem and Ramdas Pophale) SiO2 
 PCOD8322619
Probable space group: R 3 2
;
_chemical_formula_sum "Si O2"
_cell_formula_units_Z 60
_cell_length_a 13.324337
_cell_length_b 13.324337
_cell_length_c 14.774655
_cell_angle_alpha 90.000000
_cell_angle_beta 90.000000
_cell_angle_gamma 120.000000
_cell_volume 2271.638377
_symmetry_space_group_name_H-M "R 3 2"
_symmetry_group_IT_number 155
_symmetry_cell_setting 'hexagonal'
loop_
_space_group_symop_operation_xyz
x,y,z
-y,x-y,z
-x+y,-x,z
x-y,-y,-z
-x,-x+y,-z
y,x,-z
2/3+x,1/3+y,1/3+z
2/3-y,1/3+x-y,1/3+z
2/3-x+y,1/3-x,1/3+z
2/3+x-y,1/3-y,1/3-z
2/3-x,1/3-x+y,1/3-z
2/3+y,1/3+x,1/3-z
1/3+x,2/3+y,2/3+z
1/3-y,2/3+x-y,2/3+z
1/3-x+y,2/3-x,2/3+z
1/3+x-y,2/3-y,2/3-z
1/3-x,2/3-x+y,2/3-z
1/3+y,2/3+x,2/3-z
loop_
_atom_site_type_symbol
_atom_site_label
_atom_site_fract_x
_atom_site_fract_y
_atom_site_fract_z
Si Si1 0.804220 0.739122 0.756997
Si Si2 0.812294 0.583883 0.901431
Si Si3 0.000000 0.000000 0.605484
Si Si4 0.399263 0.477768 0.420754
O O1 0.738864 0.666667 0.666667
O O2 0.764791 0.653847 0.845391
O O3 0.770084 0.833393 0.785457
O O4 0.942586 0.804335 0.745290
O O5 0.878376 0.545043 0.833334
O O6 0.710360 0.469767 0.959328
O O7 0.891300 0.653270 0.988298
O O8 0.000000 0.000000 0.500000
O O9 0.388516 0.388516 0.500000
#
# Coordination Sequence:
#
# PCOD8322619 Si02
#       4
#    18  18   6  18
#     4  12  28  46  77 106 148 199 250 309 373 442
#     4  11  23  44  74 108 147 194 248 315 368 438
#     4   9  21  36  75 117 138 180 259 324 357 414
#     4  12  29  47  73 113 154 192 250 312 379 447
#
# _framework density 26.412655999999998
#
# number of rings (size 3 to 8) (size 9 to 14) (size 15 to 20)
#    0.000    0.600    3.000    3.300   12.600    0.000 
#    0.000    0.000    0.000    3.600    0.000    0.000 
#    0.000    0.000    0.000    0.000    0.000    0.000 
#
# Total GULP energy -247831.598992 kJ/mol
# GULP energy per Si atom -12391.579950 kJ/mol
# Density = 2.635254 g / cm^3
# Si number density = 26.412656 Si / 1000 Ang^3
#
#
#
# Elastic Constant Matrix: (Units=GPa)
#
#
# Indices 1 2 3 4 5 6 
#
# 1 94.4426 14.7831 14.0307 0.8542 0.0002 0.0000
# 2 14.7831 94.4426 14.0307 -0.8542 -0.0002 0.0000
# 3 14.0307 14.0307 199.8051 0.0000 0.0000 0.0000
# 4 0.8542 -0.8542 0.0000 33.9002 0.0000 -0.0002
# 5 0.0002 -0.0002 0.0000 0.0000 33.9002 0.8542
# 6 0.0000 0.0000 0.0000 -0.0002 0.8542 39.8298
#
#
#
# Elastic Compliance Matrix: (Units=1/GPa)
#
#
# Indices 1 2 3 4 5 6 
#
# 1 0.010942 -0.001618 -0.000655 -0.000316 0.000000 0.000000
# 2 -0.001618 0.010942 -0.000655 0.000316 0.000000 0.000000
# 3 -0.000655 -0.000655 0.005097 0.000000 0.000000 0.000000
# 4 -0.000316 0.000316 0.000000 0.029514 0.000000 0.000000
# 5 0.000000 0.000000 0.000000 0.000000 0.029514 -0.000633
# 6 0.000000 0.000000 0.000000 0.000000 -0.000633 0.025120
#
#
# Mechanical properties :
#
#
# Convention : Reuss Voigt Hill
#
# Bulk Modulus (GPa) = 47.33711 52.70880 50.02295
# Shear Modulus (GPa) = 40.31386 44.58243 42.44815
#
# Velocity S-wave (km/s) = 3.91104 4.11289 4.01323
# Velocity P-wave (km/s) = 6.19322 6.52332 6.36041
#
# Compressibility (1/GPa) = 0.02112508
#
# Stress axis : x y z
#
# Youngs Moduli (GPa) = 91.39195 91.39195 196.20042
#
# Poissons Ratio (x) = 0.14790 0.12846
# Poissons Ratio (y) = 0.14790 0.12846
# Poissons Ratio (z) = 0.05984 0.05984
#
# Static dielectric constant tensor:
#      x y z
#    x 3.930920 0.000000 0.000000 
#    y 0.000000 3.930920 0.000000 
#    z 0.000000 0.000000 5.603860 
# 
# 
# High freq. dielectric constant tensor:
#      x y z
#    x 2.062640 0.000000 0.000000 
#    y 0.000000 2.062640 0.000000 
#    z 0.000000 0.000000 2.083140 
# 
# From -- ./inp_files/4756.got.cif
#   From: 2010.03.12/outbox.cif.g09.slc.cpg/sg155_3_cif.got.tgz:4756.got - 2010.04.03 13:54:13.
