data_PCOD8322780
_publ_section_title
;
Structure prediction by ZEFSAII (Michael W. Deem and Ramdas Pophale) SiO2 
 PCOD8322780
Probable space group: P 3 C 1
;
_chemical_formula_sum "Si O2"
_cell_formula_units_Z 48
_cell_length_a 14.285788
_cell_length_b 14.285788
_cell_length_c 12.481948
_cell_angle_alpha 90.000000
_cell_angle_beta 90.000000
_cell_angle_gamma 120.000000
_cell_volume 2206.080737
_symmetry_space_group_name_H-M "P 3 C 1"
_symmetry_group_IT_number 158
_symmetry_cell_setting 'hexagonal'
loop_
_space_group_symop_operation_xyz
x,y,z
-y,x-y,z
-x+y,-x,z
-x+y,y,1/2+z
x,x-y,1/2+z
-y,-x,1/2+z
loop_
_atom_site_type_symbol
_atom_site_label
_atom_site_fract_x
_atom_site_fract_y
_atom_site_fract_z
Si Si1 0.550485 0.782840 0.259950
Si Si2 0.872748 0.426286 0.158310
Si Si3 0.756469 0.205736 0.040400
Si Si4 0.917908 0.164094 0.665417
Si Si5 0.095726 0.411201 0.968401
Si Si6 0.118431 0.549024 0.157501
Si Si7 0.080462 0.245136 0.141997
Si Si8 0.424681 0.117913 0.837766
O O1 0.552583 0.809881 0.383079
O O2 0.460524 0.658045 0.243571
O O3 0.530339 0.860540 0.176997
O O4 0.665939 0.796689 0.234021
O O5 0.803524 0.299323 0.133278
O O6 0.858446 0.485507 0.053656
O O7 0.840680 0.469364 0.263757
O O8 0.995372 0.457792 0.176926
O O9 0.803528 0.127143 0.062854
O O10 0.782122 0.241200 0.917728
O O11 0.914842 0.230813 0.769449
O O12 0.036079 0.189224 0.630864
O O13 0.844312 0.036509 0.684074
O O14 0.984982 0.386244 0.910295
O O15 0.142335 0.520159 0.039741
O O16 0.076415 0.304582 0.032755
#
# Coordination Sequence:
#
# PCOD8322780 Si02
#       8
#     6   6   6   6   6   6   6   6
#     4  11  23  43  67  99 136 174 223 279 334 401
#     4  11  23  42  68  98 137 176 222 280 336 397
#     4  11  23  43  67  99 136 174 223 279 334 401
#     4  11  23  42  67  96 135 177 225 281 330 393
#     4  11  22  44  68  95 135 175 222 276 338 401
#     4  11  23  42  68  98 137 176 222 280 336 397
#     4  11  23  42  67  96 135 177 225 281 330 393
#     4  11  22  44  68  95 135 175 222 276 338 401
#
# _framework density 21.758044000000002
#
# number of rings (size 3 to 8) (size 9 to 14) (size 15 to 20)
#    0.000    1.000    5.000    2.250    0.000    5.000 
#    0.000    0.000    0.000    0.000    0.000    0.000 
#    0.000    0.000    0.000    0.000    0.000    0.000 
#
# Total GULP energy -595033.813038 kJ/mol
# GULP energy per Si atom -12396.537772 kJ/mol
# Density = 2.170852 g / cm^3
# Si number density = 21.758044 Si / 1000 Ang^3
#
#
#
# Elastic Constant Matrix: (Units=GPa)
#
#
# Indices 1 2 3 4 5 6 
#
# 1 83.2396 7.0147 15.6240 -2.3789 0.0000 0.0000
# 2 7.0147 83.2396 15.6240 2.3789 0.0000 0.0000
# 3 15.6240 15.6240 112.5620 0.0000 0.0000 0.0000
# 4 -2.3789 2.3789 0.0000 24.1515 0.0000 0.0000
# 5 0.0000 0.0000 0.0000 0.0000 24.1515 -2.3789
# 6 0.0000 0.0000 0.0000 0.0000 -2.3789 38.1124
#
#
#
# Elastic Compliance Matrix: (Units=1/GPa)
#
#
# Indices 1 2 3 4 5 6 
#
# 1 0.012420 -0.000781 -0.001616 0.001300 0.000000 0.000000
# 2 -0.000781 0.012420 -0.001616 -0.001300 0.000000 0.000000
# 3 -0.001616 -0.001616 0.009332 0.000000 0.000000 0.000000
# 4 0.001300 -0.001300 0.000000 0.041661 0.000000 0.000000
# 5 0.000000 0.000000 0.000000 0.000000 0.041661 0.002600
# 6 0.000000 0.000000 0.000000 0.000000 0.002600 0.026400
#
#
# Mechanical properties :
#
#
# Convention : Reuss Voigt Hill
#
# Bulk Modulus (GPa) = 38.24302 39.50739 38.87521
# Shear Modulus (GPa) = 31.12654 33.33499 32.23077
#
# Velocity S-wave (km/s) = 3.78640 3.91842 3.85298
# Velocity P-wave (km/s) = 6.06056 6.21844 6.14001
#
# Compressibility (1/GPa) = 0.02614856
#
# Stress axis : x y z
#
# Youngs Moduli (GPa) = 80.51731 80.51731 107.15271
#
# Poissons Ratio (x) = 0.06285 0.17311
# Poissons Ratio (y) = 0.06285 0.17311
# Poissons Ratio (z) = 0.13008 0.13008
#
# Static dielectric constant tensor:
#      x y z
#    x 4.075120 0.000000 0.000000 
#    y 0.000000 4.075120 0.000000 
#    z 0.000000 0.000000 3.937840 
# 
# 
# High freq. dielectric constant tensor:
#      x y z
#    x 1.861690 0.000000 0.000000 
#    y 0.000000 1.861690 0.000000 
#    z 0.000000 0.000000 1.845770 
# 
# From -- ./inp_files/368.got.cif
#   From: 2010.03.12/outbox.cif.g09.slc.cpg/sg158_cif.got.tgz:368.got - 2010.04.03 13:59:47.
