data_PCOD8322509
_publ_section_title
;
Structure prediction by ZEFSAII (Michael W. Deem and Ramdas Pophale) SiO2 
 PCOD8322509
Probable space group: R 3 2
;
_chemical_formula_sum "Si O2"
_cell_formula_units_Z 93
_cell_length_a 21.090657
_cell_length_b 21.090657
_cell_length_c 13.237259
_cell_angle_alpha 90.000000
_cell_angle_beta 90.000000
_cell_angle_gamma 120.000000
_cell_volume 5099.280657
_symmetry_space_group_name_H-M "R 3 2"
_symmetry_group_IT_number 155
_symmetry_cell_setting 'hexagonal'
loop_
_space_group_symop_operation_xyz
x,y,z
-y,x-y,z
-x+y,-x,z
x-y,-y,-z
-x,-x+y,-z
y,x,-z
2/3+x,1/3+y,1/3+z
2/3-y,1/3+x-y,1/3+z
2/3-x+y,1/3-x,1/3+z
2/3+x-y,1/3-y,1/3-z
2/3-x,1/3-x+y,1/3-z
2/3+y,1/3+x,1/3-z
1/3+x,2/3+y,2/3+z
1/3-y,2/3+x-y,2/3+z
1/3-x+y,2/3-x,2/3+z
1/3+x-y,2/3-y,2/3-z
1/3-x,2/3-x+y,2/3-z
1/3+y,2/3+x,2/3-z
loop_
_atom_site_type_symbol
_atom_site_label
_atom_site_fract_x
_atom_site_fract_y
_atom_site_fract_z
Si Si1 0.000000 0.000000 0.633203
Si Si2 0.000000 0.885859 0.500000
Si Si3 0.530945 0.593272 0.385210
Si Si4 0.261159 0.820142 0.736719
Si Si5 0.115609 0.115609 0.000000
Si Si6 0.081824 0.333334 0.333334
Si Si7 0.333334 0.666668 0.534281
Si Si8 0.419473 0.903896 0.168318
O O1 0.057049 0.081402 0.593358
O O2 0.000000 0.000000 0.750463
O O3 0.067145 0.875159 0.465453
O O4 0.485494 0.606679 0.474833
O O5 0.554093 0.533156 0.405304
O O6 0.602234 0.671643 0.370654
O O7 0.483230 0.559625 0.284830
O O8 0.333334 0.858321 0.666667
O O9 0.209814 0.736628 0.697380
O O10 0.081188 0.058139 0.907120
O O11 0.112337 0.306945 0.427405
O O12 0.333334 0.853242 0.166667
#
# Coordination Sequence:
#
# PCOD8322509 Si02
#       8
#     6   9  18  18   9   9   6  18
#     4  10  20  34  52  83 112 148 176 226 277 347
#     4  10  20  36  54  82 116 146 186 226 286 370
#     4  10  22  34  58  82 113 150 190 250 299 357
#     4  11  20  36  55  83 115 149 188 243 304 356
#     4  10  22  36  51  83 118 148 190 230 286 374
#     4  10  20  34  57  85 118 146 192 254 300 358
#     4  10  20  34  52  83 115 142 185 223 277 356
#     4  10  20  36  53  84 115 145 189 238 296 357
#
# _framework density 18.237867000000001
#
# number of rings (size 3 to 8) (size 9 to 14) (size 15 to 20)
#    0.000    1.935    4.839    1.161    8.129    0.000 
#    3.484    0.000    0.000    3.484    0.000    0.000 
#    0.000    0.000    0.000    0.000    0.000    0.000 
#
# Total GULP energy -384051.473618 kJ/mol
# GULP energy per Si atom -12388.757213 kJ/mol
# Density = 1.819636 g / cm^3
# Si number density = 18.237867 Si / 1000 Ang^3
#
#
#
# Elastic Constant Matrix: (Units=GPa)
#
#
# Indices 1 2 3 4 5 6 
#
# 1 73.8772 34.3647 38.0979 -4.3890 -0.0002 0.0000
# 2 34.3647 73.8765 38.0997 4.3895 0.0002 0.0000
# 3 38.0979 38.0997 164.4337 -0.0005 0.0000 0.0000
# 4 -4.3890 4.3895 -0.0005 16.6253 0.0000 0.0002
# 5 -0.0002 0.0002 0.0000 0.0000 16.6251 -4.3892
# 6 0.0000 0.0000 0.0000 0.0002 -4.3892 19.7564
#
#
#
# Elastic Compliance Matrix: (Units=1/GPa)
#
#
# Indices 1 2 3 4 5 6 
#
# 1 0.018962 -0.007923 -0.002558 0.007098 0.000000 0.000000
# 2 -0.007923 0.018963 -0.002558 -0.007098 0.000000 0.000000
# 3 -0.002558 -0.002558 0.007267 0.000000 0.000000 0.000000
# 4 0.007098 -0.007098 0.000000 0.063897 0.000000 -0.000001
# 5 0.000000 0.000000 0.000000 0.000000 0.063898 0.014196
# 6 0.000000 0.000000 0.000000 -0.000001 0.014196 0.053770
#
#
# Mechanical properties :
#
#
# Convention : Reuss Voigt Hill
#
# Bulk Modulus (GPa) = 52.31754 59.25689 55.78722
# Shear Modulus (GPa) = 19.28970 24.04304 21.66637
#
# Velocity S-wave (km/s) = 3.25572 3.63478 3.45046
# Velocity P-wave (km/s) = 6.54839 7.08359 6.82124
#
# Compressibility (1/GPa) = 0.01911405
#
# Stress axis : x y z
#
# Youngs Moduli (GPa) = 52.73670 52.73511 137.61369
#
# Poissons Ratio (x) = 0.41783 0.35195
# Poissons Ratio (y) = 0.41785 0.35201
# Poissons Ratio (z) = 0.13487 0.13489
#
# Static dielectric constant tensor:
#      x y z
#    x 3.258820 0.000000 0.000000 
#    y 0.000000 3.258830 0.000000 
#    z 0.000000 0.000000 3.116230 
# 
# 
# High freq. dielectric constant tensor:
#      x y z
#    x 1.682590 0.000000 0.000000 
#    y 0.000000 1.682590 0.000000 
#    z 0.000000 0.000000 1.723630 
# 
# From -- ./inp_files/5119.got.cif
#   From: 2010.03.12/outbox.cif.g09.slc.cpg/sg155_3_cif.got.tgz:5119.got - 2010.04.03 13:54:13.
