data_PCOD8322838
_publ_section_title
;
Structure prediction by ZEFSAII (Michael W. Deem and Ramdas Pophale) SiO2 
 PCOD8322838
Probable space group: P 3 1 C
;
_chemical_formula_sum "Si O2"
_cell_formula_units_Z 28
_cell_length_a 10.828975
_cell_length_b 10.828975
_cell_length_c 14.145667
_cell_angle_alpha 90.000000
_cell_angle_beta 90.000000
_cell_angle_gamma 120.000000
_cell_volume 1436.576521
_symmetry_space_group_name_H-M "P 3 1 C"
_symmetry_group_IT_number 159
_symmetry_cell_setting 'hexagonal'
loop_
_space_group_symop_operation_xyz
x,y,z
-y,x-y,z
-x+y,-x,z
y,x,1/2+z
x-y,-y,1/2+z
-x,-x+y,1/2+z
loop_
_atom_site_type_symbol
_atom_site_label
_atom_site_fract_x
_atom_site_fract_y
_atom_site_fract_z
Si Si1 0.333333 0.666667 0.703296
Si Si2 0.333334 0.666667 0.929872
Si Si3 0.180109 0.065702 0.316582
Si Si4 0.379381 0.055010 0.463845
Si Si5 0.530141 0.160881 0.816582
Si Si6 0.055008 0.379382 0.669320
O O1 0.333334 0.666667 0.816584
O O2 0.190516 0.535749 0.662278
O O3 0.190522 0.535744 0.970890
O O4 0.276283 0.099223 0.409703
O O5 0.276287 0.099225 0.223463
O O6 0.103334 0.160986 0.316581
O O7 0.389302 0.930515 0.409626
O O8 0.314739 0.999997 0.566582
O O9 0.698354 0.210870 0.816583
O O10 0.458789 0.069491 0.723536
#
# Coordination Sequence:
#
# PCOD8322838 Si02
#       6
#     2   2   6   6   6   6
#     4  12  24  45  63  97 128 172 216 261 327 385
#     4  12  24  45  63  97 128 172 216 261 327 385
#     4   9  22  45  66  94 128 168 210 255 324 381
#     4  11  25  42  67  97 128 168 216 269 314 380
#     4   9  22  41  64  90 132 170 212 259 324 379
#     4  11  25  42  67  97 128 168 216 269 314 380
#
# _framework density 19.490783
#
# number of rings (size 3 to 8) (size 9 to 14) (size 15 to 20)
#    0.857    0.857    4.286    0.000    6.000    8.571 
#    0.000    0.000    0.000    0.000    0.000    0.000 
#    0.000    0.000    0.000    0.000    0.000    0.000 
#
# Total GULP energy -347160.750513 kJ/mol
# GULP energy per Si atom -12398.598233 kJ/mol
# Density = 1.944642 g / cm^3
# Si number density = 19.490783 Si / 1000 Ang^3
#
#
#
# Elastic Constant Matrix: (Units=GPa)
#
#
# Indices 1 2 3 4 5 6 
#
# 1 72.3751 -12.5405 5.9468 -0.0001 0.0002 0.0000
# 2 -12.5405 72.3753 5.9467 0.0003 -0.0001 0.0001
# 3 5.9468 5.9467 133.4752 -0.0001 -0.0001 0.0000
# 4 -0.0001 0.0003 -0.0001 8.8907 0.0001 0.0001
# 5 0.0002 -0.0001 -0.0001 0.0001 8.8906 0.0002
# 6 0.0000 0.0001 0.0000 0.0001 0.0002 42.4579
#
#
#
# Elastic Compliance Matrix: (Units=1/GPa)
#
#
# Indices 1 2 3 4 5 6 
#
# 1 0.014319 0.002543 -0.000751 0.000000 0.000000 0.000000
# 2 0.002543 0.014319 -0.000751 0.000000 0.000000 0.000000
# 3 -0.000751 -0.000751 0.007559 0.000000 0.000000 0.000000
# 4 0.000000 0.000000 0.000000 0.112477 -0.000001 0.000000
# 5 0.000000 0.000000 0.000000 -0.000001 0.112478 -0.000001
# 6 0.000000 0.000000 0.000000 0.000000 -0.000001 0.023553
#
#
# Mechanical properties :
#
#
# Convention : Reuss Voigt Hill
#
# Bulk Modulus (GPa) = 26.12464 30.77017 28.44741
# Shear Modulus (GPa) = 16.92714 30.63936 23.78325
#
# Velocity S-wave (km/s) = 2.95018 3.96914 3.49697
# Velocity P-wave (km/s) = 5.00374 6.06850 5.56166
#
# Compressibility (1/GPa) = 0.03827804
#
# Stress axis : x y z
#
# Youngs Moduli (GPa) = 69.83611 69.83629 132.29319
#
# Poissons Ratio (x) = -0.17758 0.09939
# Poissons Ratio (y) = -0.17758 0.09939
# Poissons Ratio (z) = 0.05247 0.05247
#
# Static dielectric constant tensor:
#      x y z
#    x 3.540800 0.000000 0.000000 
#    y 0.000000 3.540800 0.000000 
#    z 0.000000 0.000000 3.455720 
# 
# 
# High freq. dielectric constant tensor:
#      x y z
#    x 1.762960 0.000000 0.000000 
#    y 0.000000 1.762960 0.000000 
#    z 0.000000 0.000000 1.753570 
# 
# From -- ./inp_files/786.got.cif
#   From: 2010.03.12/outbox.cif.g09.slc.cpg/sg159_cif.got.tgz:786.got - 2010.04.03 14:00:19.
