data_PCOD8322844
_publ_section_title
;
Structure prediction by ZEFSAII (Michael W. Deem and Ramdas Pophale) SiO2 
 PCOD8322844
Probable space group: R 3 M
;
_chemical_formula_sum "Si O2"
_cell_formula_units_Z 108
_cell_length_a 22.469519
_cell_length_b 22.469519
_cell_length_c 14.374609
_cell_angle_alpha 90.000000
_cell_angle_beta 90.000000
_cell_angle_gamma 120.000000
_cell_volume 6285.129399
_symmetry_space_group_name_H-M "R 3 M"
_symmetry_group_IT_number 160
_symmetry_cell_setting 'hexagonal'
loop_
_space_group_symop_operation_xyz
x,y,z
-y,x-y,z
-x+y,-x,z
-x+y,y,z
x,x-y,z
-y,-x,z
2/3+x,1/3+y,1/3+z
2/3-y,1/3+x-y,1/3+z
2/3-x+y,1/3-x,1/3+z
2/3-x+y,1/3+y,1/3+z
2/3+x,1/3+x-y,1/3+z
2/3-y,1/3-x,1/3+z
1/3+x,2/3+y,2/3+z
1/3-y,2/3+x-y,2/3+z
1/3-x+y,2/3-x,2/3+z
1/3-x+y,2/3+y,2/3+z
1/3+x,2/3+x-y,2/3+z
1/3-y,2/3-x,2/3+z
loop_
_atom_site_type_symbol
_atom_site_label
_atom_site_fract_x
_atom_site_fract_y
_atom_site_fract_z
Si Si1 0.706590 0.154800 0.593768
Si Si2 0.588139 0.542899 0.942193
Si Si3 0.936870 0.566206 0.745359
Si Si4 0.064750 0.599304 0.614857
Si Si5 0.817068 0.772589 0.079262
Si Si6 0.017694 0.721383 0.761482
O O1 0.765746 0.234255 0.589950
O O2 0.735313 0.102373 0.584937
O O3 0.665939 0.136055 0.691431
O O4 0.650546 0.136736 0.513921
O O5 0.525810 0.474191 0.988480
O O6 0.601791 0.522510 0.839776
O O7 0.654404 0.573528 0.010589
O O8 0.996314 0.569740 0.678109
O O9 0.959633 0.643010 0.777796
O O10 0.071484 0.535742 0.579069
O O11 0.132293 0.649635 0.674070
O O12 0.067410 0.642555 0.525269
O O13 0.890415 0.780829 0.056181
O O14 0.758582 0.692917 0.067921
#
# Coordination Sequence:
#
# PCOD8322844 Si02
#       6
#    18  18  18  18  18  18
#     4  10  19  32  51  77 108 138 174 217 271 330
#     4  10  19  32  52  77 110 146 176 219 271 327
#     4  10  17  31  51  78 106 140 178 214 264 322
#     4  11  20  33  54  77 104 139 182 228 268 319
#     4  11  21  32  51  77 107 143 181 221 272 327
#     4  10  19  32  48  76 110 140 176 219 268 317
#
# _framework density 17.183416999999999
#
# number of rings (size 3 to 8) (size 9 to 14) (size 15 to 20)
#    0.000    1.667    5.000    3.500    0.000    1.333 
#    0.000    5.000    0.000    2.667    0.000    0.000 
#    0.000    0.000    0.000    0.000    0.000    0.000 
#
# Total GULP energy -446190.159151 kJ/mol
# GULP energy per Si atom -12394.171088 kJ/mol
# Density = 1.714431 g / cm^3
# Si number density = 17.183417 Si / 1000 Ang^3
#
#
#
# Elastic Constant Matrix: (Units=GPa)
#
#
# Indices 1 2 3 4 5 6 
#
# 1 60.5182 34.9545 29.2226 0.7300 0.0002 0.0000
# 2 34.9545 60.5182 29.2226 -0.7300 -0.0002 0.0000
# 3 29.2226 29.2226 100.3961 0.0000 0.0000 0.0000
# 4 0.7300 -0.7300 0.0000 17.8812 0.0000 -0.0002
# 5 0.0002 -0.0002 0.0000 0.0000 17.8812 0.7300
# 6 0.0000 0.0000 0.0000 -0.0002 0.7300 12.7818
#
#
#
# Elastic Compliance Matrix: (Units=1/GPa)
#
#
# Indices 1 2 3 4 5 6 
#
# 1 0.025977 -0.013232 -0.003710 -0.001601 -0.000001 0.000000
# 2 -0.013232 0.025977 -0.003710 0.001601 0.000001 0.000000
# 3 -0.003710 -0.003710 0.012120 0.000000 0.000000 0.000000
# 4 -0.001601 0.001601 0.000000 0.056055 0.000000 0.000001
# 5 -0.000001 0.000001 0.000000 0.000000 0.056055 -0.003202
# 6 0.000000 0.000000 0.000000 0.000001 -0.003202 0.078419
#
#
# Mechanical properties :
#
#
# Convention : Reuss Voigt Hill
#
# Bulk Modulus (GPa) = 43.91464 45.35910 44.63687
# Shear Modulus (GPa) = 16.47456 18.24437 17.35947
#
# Velocity S-wave (km/s) = 3.09972 3.26197 3.18188
# Velocity P-wave (km/s) = 6.19862 6.37508 6.28747
#
# Compressibility (1/GPa) = 0.02277145
#
# Stress axis : x y z
#
# Youngs Moduli (GPa) = 38.49506 38.49506 82.50699
#
# Poissons Ratio (x) = 0.50937 0.30608
# Poissons Ratio (y) = 0.50937 0.30608
# Poissons Ratio (z) = 0.14281 0.14281
#
# Static dielectric constant tensor:
#      x y z
#    x 3.013710 0.000000 0.000000 
#    y 0.000000 3.013710 0.000000 
#    z 0.000000 0.000000 3.405190 
# 
# 
# High freq. dielectric constant tensor:
#      x y z
#    x 1.630370 0.000000 0.000000 
#    y 0.000000 1.630370 0.000000 
#    z 0.000000 0.000000 1.674550 
# 
# From -- ./inp_files/1682.got.cif
#   From: 2010.03.12/outbox.cif.g09.slc.cpg/sg160_1_cif.got.tgz:1682.got - 2010.04.02 06:26:15.
