data_PCOD8322524
_publ_section_title
;
Structure prediction by ZEFSAII (Michael W. Deem and Ramdas Pophale) SiO2 
 PCOD8322524
Probable space group: R 3 2
;
_chemical_formula_sum "Si O2"
_cell_formula_units_Z 126
_cell_length_a 28.769421
_cell_length_b 28.769421
_cell_length_c 9.616676
_cell_angle_alpha 90.000000
_cell_angle_beta 90.000000
_cell_angle_gamma 120.000000
_cell_volume 6893.152062
_symmetry_space_group_name_H-M "R 3 2"
_symmetry_group_IT_number 155
_symmetry_cell_setting 'hexagonal'
loop_
_space_group_symop_operation_xyz
x,y,z
-y,x-y,z
-x+y,-x,z
x-y,-y,-z
-x,-x+y,-z
y,x,-z
2/3+x,1/3+y,1/3+z
2/3-y,1/3+x-y,1/3+z
2/3-x+y,1/3-x,1/3+z
2/3+x-y,1/3-y,1/3-z
2/3-x,1/3-x+y,1/3-z
2/3+y,1/3+x,1/3-z
1/3+x,2/3+y,2/3+z
1/3-y,2/3+x-y,2/3+z
1/3-x+y,2/3-x,2/3+z
1/3+x-y,2/3-y,2/3-z
1/3-x,2/3-x+y,2/3-z
1/3+y,2/3+x,2/3-z
loop_
_atom_site_type_symbol
_atom_site_label
_atom_site_fract_x
_atom_site_fract_y
_atom_site_fract_z
Si Si1 0.142710 0.716717 0.566230
Si Si2 0.722241 0.829414 0.027432
Si Si3 0.351489 0.272446 0.818816
Si Si4 0.188423 0.917820 0.722594
Si Si5 0.276211 0.808676 0.185535
Si Si6 0.876236 0.495316 0.922741
Si Si7 0.630656 0.570321 0.049560
O O1 0.132143 0.666667 0.666667
O O2 0.194695 0.774836 0.592591
O O3 0.094255 0.729410 0.588690
O O4 0.145615 0.697336 0.409886
O O5 0.732719 0.793967 0.139189
O O6 0.747557 0.831414 0.878893
O O7 0.658119 0.800706 0.999545
O O8 0.333334 0.249676 0.666667
O O9 0.366082 0.333334 0.833334
O O10 0.403481 0.265432 0.840652
O O11 0.143077 0.921098 0.633849
O O12 0.247002 0.971736 0.720358
O O13 0.333334 0.810823 0.166667
O O14 0.233960 0.757121 0.270561
O O15 0.283539 0.860723 0.263163
O O16 0.829754 0.496420 0.833334
O O17 0.606992 0.606992 0.000000
#
# Coordination Sequence:
#
# PCOD8322524 Si02
#       7
#    18  18  18  18  18  18  18
#     4  11  23  37  56  82 115 162 205 249 301 359
#     4  11  22  38  53  79 121 157 200 255 302 355
#     4   9  18  32  49  74 106 146 193 240 282 332
#     4  10  23  35  52  85 111 158 200 248 300 347
#     4  10  20  37  57  82 109 146 196 235 299 356
#     4  10  21  37  61  82 108 149 195 245 300 360
#     4  11  21  36  60  81 118 163 207 249 295 363
#
# _framework density 18.27901
#
# number of rings (size 3 to 8) (size 9 to 14) (size 15 to 20)
#    0.000    1.714    2.857    1.714    2.000    2.286 
#   10.286    0.000    0.000    0.286    0.000    0.000 
#    0.000    0.000    0.000    0.000    0.000    0.000 
#
# Total GULP energy -520327.408712 kJ/mol
# GULP energy per Si atom -12388.747826 kJ/mol
# Density = 1.823741 g / cm^3
# Si number density = 18.279010 Si / 1000 Ang^3
#
#
#
# Elastic Constant Matrix: (Units=GPa)
#
#
# Indices 1 2 3 4 5 6 
#
# 1 75.2132 26.9496 19.3178 -4.0224 -0.1094 -0.0175
# 2 26.9496 75.2875 19.4089 3.9971 -0.0049 -0.0069
# 3 19.3178 19.4089 90.4498 -0.0383 -0.2368 -0.0523
# 4 -4.0224 3.9971 -0.0383 23.5707 -0.0128 0.0137
# 5 -0.1094 -0.0049 -0.2368 -0.0128 23.4076 -4.0227
# 6 -0.0175 -0.0069 -0.0523 0.0137 -4.0227 24.1838
#
#
#
# Elastic Compliance Matrix: (Units=1/GPa)
#
#
# Indices 1 2 3 4 5 6 
#
# 1 0.015981 -0.005328 -0.002268 0.003627 0.000055 0.000012
# 2 -0.005328 0.015973 -0.002291 -0.003622 -0.000048 -0.000010
# 3 -0.002268 -0.002291 0.012032 0.000021 0.000118 0.000043
# 4 0.003627 -0.003622 0.000021 0.043659 0.000037 -0.000017
# 5 0.000055 -0.000048 0.000118 0.000037 0.043980 0.007316
# 6 0.000012 -0.000010 0.000043 -0.000017 0.007316 0.042567
#
#
# Mechanical properties :
#
#
# Convention : Reuss Voigt Hill
#
# Bulk Modulus (GPa) = 41.30370 41.36701 41.33536
# Shear Modulus (GPa) = 24.74786 25.91736 25.33261
#
# Velocity S-wave (km/s) = 3.68352 3.76955 3.72679
# Velocity P-wave (km/s) = 6.38251 6.45183 6.41726
#
# Compressibility (1/GPa) = 0.02421091
#
# Stress axis : x y z
#
# Youngs Moduli (GPa) = 62.57281 62.60688 83.11000
#
# Poissons Ratio (x) = 0.33360 0.18851
# Poissons Ratio (y) = 0.33342 0.19041
# Poissons Ratio (z) = 0.14192 0.14344
#
# Static dielectric constant tensor:
#      x y z
#    x 3.310250 0.000030 -0.000140 
#    y 0.000030 3.310220 0.000010 
#    z -0.000140 0.000010 3.557180 
# 
# 
# High freq. dielectric constant tensor:
#      x y z
#    x 1.685580 0.000000 -0.000010 
#    y 0.000000 1.685580 0.000000 
#    z -0.000010 0.000000 1.721110 
# 
# From -- ./inp_files/2993.got.cif
#   From: 2010.03.12/outbox.cif.g09.slc.cpg/sg155_2_cif.got.tgz:2993.got - 2010.04.03 13:54:13.
