data_PCOD8322159
_publ_section_title
;
Structure prediction by ZEFSAII (Michael W. Deem and Ramdas Pophale) SiO2 
 PCOD8322159
Probable space group: P 31 2 1
;
_chemical_formula_sum "Si O2"
_cell_formula_units_Z 42
_cell_length_a 8.833367
_cell_length_b 8.833367
_cell_length_c 30.409117
_cell_angle_alpha 90.000000
_cell_angle_beta 90.000000
_cell_angle_gamma 120.000000
_cell_volume 2054.882484
_symmetry_space_group_name_H-M "P 31 2 1"
_symmetry_group_IT_number 152
_symmetry_cell_setting 'hexagonal'
loop_
_space_group_symop_operation_xyz
x,y,z
-y,x-y,1/3+z
-x+y,-x,2/3+z
x-y,-y,2/3-z
-x,-x+y,1/3-z
y,x,-z
loop_
_atom_site_type_symbol
_atom_site_label
_atom_site_fract_x
_atom_site_fract_y
_atom_site_fract_z
Si Si1 0.446720 0.711385 0.082763
Si Si2 0.231452 0.937479 0.287839
Si Si3 0.366558 0.366558 0.500000
Si Si4 0.277868 0.538394 0.175831
Si Si5 0.161233 0.076915 0.563135
Si Si6 0.142286 0.000000 0.833334
Si Si7 0.076191 0.461808 0.921043
Si Si8 0.196646 0.661011 0.661032
O O1 0.636270 0.729348 0.077702
O O2 0.364966 0.623798 0.129336
O O3 0.468220 0.900373 0.077303
O O4 0.320574 0.593258 0.043447
O O5 0.313462 0.817500 0.301221
O O6 0.047149 0.831315 0.264548
O O7 0.187835 0.000000 0.333334
O O8 0.403286 0.542859 0.524703
O O9 0.315660 0.199021 0.529910
O O10 0.176514 0.328486 0.171262
O O11 0.422264 0.610243 0.213447
O O12 0.217901 0.946919 0.582971
O O13 0.969194 0.960105 0.542721
O O14 0.173031 0.515157 0.967926
O O15 0.000000 0.633619 0.666667
#
# Coordination Sequence:
#
# PCOD8322159 Si02
#       8
#     6   6   3   6   6   3   6   6
#     4  10  23  42  66  93 130 170 213 257 321 380
#     4   9  21  42  63  85 127 173 209 259 316 378
#     4  10  22  42  58  88 132 162 202 260 316 374
#     4  11  24  43  64  94 128 172 208 264 318 380
#     4  11  23  38  62  96 125 163 214 263 316 379
#     4  10  26  40  60  96 128 164 208 264 324 366
#     4  12  25  39  70  97 122 168 215 261 319 378
#     4   9  23  45  64  91 127 172 211 260 318 377
#
# _framework density 20.439125000000001
#
# number of rings (size 3 to 8) (size 9 to 14) (size 15 to 20)
#    0.000    2.000    1.429    1.714   10.000    2.857 
#    5.143    0.000    0.000    0.000    0.000    0.000 
#    0.000    0.000    0.000    0.000    0.000    0.000 
#
# Total GULP energy -520566.915089 kJ/mol
# GULP energy per Si atom -12394.450359 kJ/mol
# Density = 2.039260 g / cm^3
# Si number density = 20.439125 Si / 1000 Ang^3
#
#
#
# Elastic Constant Matrix: (Units=GPa)
#
#
# Indices 1 2 3 4 5 6 
#
# 1 81.9220 31.7700 29.9779 7.8146 -0.0003 0.0000
# 2 31.7700 81.9220 29.9779 -7.8146 0.0003 0.0000
# 3 29.9779 29.9779 92.3980 0.0000 0.0000 0.0000
# 4 7.8146 -7.8146 0.0000 29.5288 0.0000 0.0003
# 5 -0.0003 0.0003 0.0000 0.0000 29.5288 7.8146
# 6 0.0000 0.0000 0.0000 0.0003 7.8146 25.0760
#
#
#
# Elastic Compliance Matrix: (Units=1/GPa)
#
#
# Indices 1 2 3 4 5 6 
#
# 1 0.016171 -0.005560 -0.003443 -0.005751 0.000000 0.000000
# 2 -0.005560 0.016171 -0.003443 0.005751 0.000000 0.000000
# 3 -0.003443 -0.003443 0.013057 0.000000 0.000000 0.000000
# 4 -0.005751 0.005751 0.000000 0.036909 0.000000 0.000000
# 5 0.000000 0.000000 0.000000 0.000000 0.036909 -0.011502
# 6 0.000000 0.000000 0.000000 0.000000 -0.011502 0.043463
#
#
# Mechanical properties :
#
#
# Convention : Reuss Voigt Hill
#
# Bulk Modulus (GPa) = 48.76101 48.85485 48.80793
# Shear Modulus (GPa) = 25.71899 27.79448 26.75674
#
# Velocity S-wave (km/s) = 3.55113 3.69164 3.62207
# Velocity P-wave (km/s) = 6.38142 6.49041 6.43615
#
# Compressibility (1/GPa) = 0.02050819
#
# Stress axis : x y z
#
# Youngs Moduli (GPa) = 61.83737 61.83737 76.58903
#
# Poissons Ratio (x) = 0.34383 0.26368
# Poissons Ratio (y) = 0.34383 0.26368
# Poissons Ratio (z) = 0.21289 0.21289
#
# Static dielectric constant tensor:
#      x y z
#    x 3.702730 0.000000 0.000000 
#    y 0.000000 3.702730 0.000000 
#    z 0.000000 0.000000 4.110660 
# 
# 
# High freq. dielectric constant tensor:
#      x y z
#    x 1.801450 0.000000 0.000000 
#    y 0.000000 1.801450 0.000000 
#    z 0.000000 0.000000 1.800850 
# 
# From -- ./inp_files/3761.got.cif
#   From: 2010.03.12/outbox.cif.g09.slc.cpg/sg152_2_cif.got.tgz:3761.got - 2010.04.03 13:45:27.
