data_PCOD8322598
_publ_section_title
;
Structure prediction by ZEFSAII (Michael W. Deem and Ramdas Pophale) SiO2 
 PCOD8322598
Probable space group: R 3 2
;
_chemical_formula_sum "Si O2"
_cell_formula_units_Z 84
_cell_length_a 14.268252
_cell_length_b 14.268252
_cell_length_c 21.917233
_cell_angle_alpha 90.000000
_cell_angle_beta 90.000000
_cell_angle_gamma 120.000000
_cell_volume 3864.184894
_symmetry_space_group_name_H-M "R 3 2"
_symmetry_group_IT_number 155
_symmetry_cell_setting 'hexagonal'
loop_
_space_group_symop_operation_xyz
x,y,z
-y,x-y,z
-x+y,-x,z
x-y,-y,-z
-x,-x+y,-z
y,x,-z
2/3+x,1/3+y,1/3+z
2/3-y,1/3+x-y,1/3+z
2/3-x+y,1/3-x,1/3+z
2/3+x-y,1/3-y,1/3-z
2/3-x,1/3-x+y,1/3-z
2/3+y,1/3+x,1/3-z
1/3+x,2/3+y,2/3+z
1/3-y,2/3+x-y,2/3+z
1/3-x+y,2/3-x,2/3+z
1/3+x-y,2/3-y,2/3-z
1/3-x,2/3-x+y,2/3-z
1/3+y,2/3+x,2/3-z
loop_
_atom_site_type_symbol
_atom_site_label
_atom_site_fract_x
_atom_site_fract_y
_atom_site_fract_z
Si Si1 0.052889 0.282944 0.103014
Si Si2 0.333334 0.666668 0.075040
Si Si3 0.109289 0.628883 0.232066
Si Si4 0.111043 0.481800 0.901582
Si Si5 0.442878 0.442878 0.000000
Si Si6 0.117898 0.000000 0.000000
Si Si7 0.333333 0.666667 0.402058
O O1 0.167289 0.388446 0.086741
O O2 0.083692 0.248465 0.166754
O O3 0.952531 0.304096 0.097450
O O4 0.009563 0.181703 0.060152
O O5 0.221543 0.650021 0.100951
O O6 0.333334 0.666667 0.003139
O O7 0.083591 0.666667 0.166667
O O8 0.074660 0.674327 0.289482
O O9 0.242113 0.546237 0.908070
O O10 0.071909 0.528386 0.956123
O O11 0.107603 0.107603 0.000000
#
# Coordination Sequence:
#
# PCOD8322598 Si02
#       7
#    18   6  18  18   9   9   6
#     4  11  26  48  73 106 142 198 246 305 371 445
#     4  12  25  40  72 105 148 196 232 302 385 442
#     4  12  25  44  72 110 155 193 248 302 374 448
#     4  11  26  46  75 101 151 188 246 306 374 439
#     4  12  23  43  70 114 150 196 236 301 369 450
#     4  10  27  47  72  94 140 194 242 301 357 440
#     4  12  27  46  73 112 142 198 244 320 367 447
#
# _framework density 21.73809
#
# number of rings (size 3 to 8) (size 9 to 14) (size 15 to 20)
#    0.214    0.429    4.286    2.571   10.500    0.000 
#    0.000    0.000    0.000    0.000    0.000    0.000 
#    0.000    0.000    0.000    0.000    0.000    0.000 
#
# Total GULP energy -346868.896110 kJ/mol
# GULP energy per Si atom -12388.174861 kJ/mol
# Density = 2.168861 g / cm^3
# Si number density = 21.738090 Si / 1000 Ang^3
#
#
#
# Elastic Constant Matrix: (Units=GPa)
#
#
# Indices 1 2 3 4 5 6 
#
# 1 160.6290 0.5245 59.1809 28.8282 0.0010 0.0000
# 2 0.5245 160.6253 59.1779 -28.8268 -0.0010 0.0000
# 3 59.1809 59.1779 170.9318 0.0008 0.0000 0.0000
# 4 28.8282 -28.8268 0.0008 58.8203 0.0000 -0.0010
# 5 0.0010 -0.0010 0.0000 0.0000 58.8204 28.8298
# 6 0.0000 0.0000 0.0000 -0.0010 28.8298 80.0603
#
#
#
# Elastic Compliance Matrix: (Units=1/GPa)
#
#
# Indices 1 2 3 4 5 6 
#
# 1 0.007953 0.000368 -0.002881 -0.003717 0.000000 0.000000
# 2 0.000368 0.007953 -0.002881 0.003717 0.000000 0.000000
# 3 -0.002881 -0.002881 0.007845 0.000000 0.000000 0.000000
# 4 -0.003717 0.003717 0.000000 0.020644 0.000000 0.000000
# 5 0.000000 0.000000 0.000000 0.000000 0.020645 -0.007434
# 6 0.000000 0.000000 0.000000 0.000000 -0.007434 0.015168
#
#
# Mechanical properties :
#
#
# Convention : Reuss Voigt Hill
#
# Bulk Modulus (GPa) = 77.13753 81.10587 79.12170
# Shear Modulus (GPa) = 52.45701 64.42707 58.44204
#
# Velocity S-wave (km/s) = 4.91770 5.44997 5.19066
# Velocity P-wave (km/s) = 8.23450 8.77465 8.50886
#
# Compressibility (1/GPa) = 0.01296386
#
# Stress axis : x y z
#
# Youngs Moduli (GPa) = 125.74015 125.73943 127.46714
#
# Poissons Ratio (x) = -0.04632 0.36723
# Poissons Ratio (y) = -0.04632 0.36722
# Poissons Ratio (z) = 0.36226 0.36225
#
# Static dielectric constant tensor:
#      x y z
#    x 3.834530 0.000000 0.000000 
#    y 0.000000 3.834470 -0.000020 
#    z 0.000000 -0.000020 4.412610 
# 
# 
# High freq. dielectric constant tensor:
#      x y z
#    x 1.846980 0.000000 0.000000 
#    y 0.000000 1.846980 0.000000 
#    z 0.000000 0.000000 1.881130 
# 
# From -- ./inp_files/7434.got.cif
#   From: 2010.03.12/outbox.cif.g09.slc.cpg/sg155_4_cif.got.tgz:7434.got - 2010.04.03 13:54:13.
