data_PCOD8322851
_publ_section_title
;
Structure prediction by ZEFSAII (Michael W. Deem and Ramdas Pophale) SiO2 
 PCOD8322851
Probable space group: R 3 M
;
_chemical_formula_sum "Si O2"
_cell_formula_units_Z 144
_cell_length_a 21.216721
_cell_length_b 21.216721
_cell_length_c 22.241137
_cell_angle_alpha 90.000000
_cell_angle_beta 90.000000
_cell_angle_gamma 120.000000
_cell_volume 8670.500105
_symmetry_space_group_name_H-M "R 3 M"
_symmetry_group_IT_number 160
_symmetry_cell_setting 'hexagonal'
loop_
_space_group_symop_operation_xyz
x,y,z
-y,x-y,z
-x+y,-x,z
-x+y,y,z
x,x-y,z
-y,-x,z
2/3+x,1/3+y,1/3+z
2/3-y,1/3+x-y,1/3+z
2/3-x+y,1/3-x,1/3+z
2/3-x+y,1/3+y,1/3+z
2/3+x,1/3+x-y,1/3+z
2/3-y,1/3-x,1/3+z
1/3+x,2/3+y,2/3+z
1/3-y,2/3+x-y,2/3+z
1/3-x+y,2/3-x,2/3+z
1/3-x+y,2/3+y,2/3+z
1/3+x,2/3+x-y,2/3+z
1/3-y,2/3-x,2/3+z
loop_
_atom_site_type_symbol
_atom_site_label
_atom_site_fract_x
_atom_site_fract_y
_atom_site_fract_z
Si Si1 0.099466 0.479625 0.727457
Si Si2 0.808114 0.332692 0.503826
Si Si3 0.143422 0.000427 0.422043
Si Si4 0.226880 0.921080 0.444069
Si Si5 0.970001 0.411115 0.241429
Si Si6 0.208045 0.174656 0.295042
Si Si7 0.658318 0.992845 0.004361
Si Si8 0.856174 0.999360 0.946655
O O1 0.066204 0.533102 0.723570
O O2 0.124016 0.475142 0.794435
O O3 0.168814 0.508274 0.683373
O O4 0.036689 0.400345 0.713208
O O5 0.824925 0.412463 0.488138
O O6 0.723597 0.276404 0.491473
O O7 0.826395 0.324370 0.571689
O O8 0.155946 0.077973 0.446581
O O9 0.152985 0.002312 0.350585
O O10 0.203028 0.982564 0.449910
O O11 0.061906 0.938095 0.438880
O O12 0.157296 0.842705 0.431980
O O13 0.264136 0.923469 0.507595
O O14 0.280056 0.934511 0.386535
O O15 0.986767 0.493384 0.254465
O O16 0.883731 0.353857 0.243943
O O17 0.013526 0.391365 0.291939
O O18 0.241376 0.120688 0.289404
O O19 0.272211 0.257439 0.297273
O O20 0.845051 0.922526 0.922093
O O21 0.940047 0.059954 0.938500
#
# Coordination Sequence:
#
# PCOD8322851 Si02
#       8
#    18  18  18  18  18  18  18  18
#     4   9  18  29  43  66  96 127 160 195 230 275
#     4  10  19  30  44  66  99 136 168 198 234 282
#     4   9  16  28  47  70  95 124 160 199 237 281
#     4   9  19  35  52  70  97 129 159 199 254 305
#     4   9  19  35  52  70  97 129 159 199 254 305
#     4   9  18  29  43  66  96 127 160 195 230 275
#     4  10  19  32  54  68  92 122 165 200 246 284
#     4   9  16  28  47  70  95 124 160 199 237 281
#
# _framework density 16.608038000000001
#
# number of rings (size 3 to 8) (size 9 to 14) (size 15 to 20)
#    0.000    2.750    0.000    1.500    1.750    2.000 
#    0.000    3.750    0.000    0.000    0.000    0.000 
#    0.000    0.000    0.000   18.375    0.000    0.000 
#
# Total GULP energy -594962.838403 kJ/mol
# GULP energy per Si atom -12395.059133 kJ/mol
# Density = 1.657024 g / cm^3
# Si number density = 16.608038 Si / 1000 Ang^3
#
#
#
# Elastic Constant Matrix: (Units=GPa)
#
#
# Indices 1 2 3 4 5 6 
#
# 1 69.9164 27.8459 35.2199 -0.9262 0.0000 0.0000
# 2 27.8459 69.9164 35.2199 0.9262 0.0000 0.0000
# 3 35.2199 35.2199 85.7381 0.0000 0.0000 0.0000
# 4 -0.9262 0.9262 0.0000 28.1268 0.0000 0.0000
# 5 0.0000 0.0000 0.0000 0.0000 28.1268 -0.9262
# 6 0.0000 0.0000 0.0000 0.0000 -0.9262 21.0353
#
#
#
# Elastic Compliance Matrix: (Units=1/GPa)
#
#
# Indices 1 2 3 4 5 6 
#
# 1 0.019167 -0.004637 -0.005968 0.000784 0.000000 0.000000
# 2 -0.004637 0.019167 -0.005968 -0.000784 0.000000 0.000000
# 3 -0.005968 -0.005968 0.016567 0.000000 0.000000 0.000000
# 4 0.000784 -0.000784 0.000000 0.035605 0.000000 0.000000
# 5 0.000000 0.000000 0.000000 0.000000 0.035605 0.001568
# 6 0.000000 0.000000 0.000000 0.000000 0.001568 0.047608
#
#
# Mechanical properties :
#
#
# Convention : Reuss Voigt Hill
#
# Bulk Modulus (GPa) = 45.97322 46.90472 46.43897
# Shear Modulus (GPa) = 23.35166 23.94343 23.64755
#
# Velocity S-wave (km/s) = 3.75380 3.80106 3.77750
# Velocity P-wave (km/s) = 6.82124 6.89693 6.85919
#
# Compressibility (1/GPa) = 0.02175179
#
# Stress axis : x y z
#
# Youngs Moduli (GPa) = 52.17383 52.17383 60.36138
#
# Poissons Ratio (x) = 0.24195 0.36026
# Poissons Ratio (y) = 0.24195 0.36026
# Poissons Ratio (z) = 0.31139 0.31139
#
# Static dielectric constant tensor:
#      x y z
#    x 3.145150 0.000000 0.000000 
#    y 0.000000 3.145150 0.000000 
#    z 0.000000 0.000000 3.088430 
# 
# 
# High freq. dielectric constant tensor:
#      x y z
#    x 1.633920 0.000000 0.000000 
#    y 0.000000 1.633920 0.000000 
#    z 0.000000 0.000000 1.626780 
# 
# From -- ./inp_files/3471.got.cif
#   From: 2010.03.12/outbox.cif.g09.slc.cpg/sg160_2_cif.got.tgz:3471.got - 2010.04.02 06:26:15.
