data_PCOD8322415
_publ_section_title
;
Structure prediction by ZEFSAII (Michael W. Deem and Ramdas Pophale) SiO2 
 PCOD8322415
Probable space group: P 32 2 1
;
_chemical_formula_sum "Si O2"
_cell_formula_units_Z 18
_cell_length_a 6.942254
_cell_length_b 6.942254
_cell_length_c 17.639180
_cell_angle_alpha 90.000000
_cell_angle_beta 90.000000
_cell_angle_gamma 120.000000
_cell_volume 736.224088
_symmetry_space_group_name_H-M "P 32 2 1"
_symmetry_group_IT_number 154
_symmetry_cell_setting 'hexagonal'
loop_
_space_group_symop_operation_xyz
x,y,z
-y,x-y,2/3+z
-x+y,-x,1/3+z
x-y,-y,1/3-z
-x,-x+y,2/3-z
y,x,-z
loop_
_atom_site_type_symbol
_atom_site_label
_atom_site_fract_x
_atom_site_fract_y
_atom_site_fract_z
Si Si1 0.296318 0.689961 0.331768
Si Si2 0.967560 0.296163 0.229322
Si Si3 0.934564 0.182183 0.058853
O O1 0.176671 0.513954 0.263832
O O2 0.254852 0.551474 0.409761
O O3 0.555436 0.840113 0.314301
O O4 0.192083 0.853164 0.339913
O O5 0.976888 0.306584 0.139393
O O6 0.957768 0.068775 0.261259
#
# Coordination Sequence:
#
# PCOD8322415 Si02
#       3
#     6   6   6
#     4  11  22  42  70  99 141 188 236 291 356 418
#     4  10  24  41  68 102 141 186 237 289 360 420
#     4  11  22  44  68 104 144 183 239 292 351 432
#
# _framework density 24.449079999999999
#
# number of rings (size 3 to 8) (size 9 to 14) (size 15 to 20)
#    0.000    1.333    3.333    2.000    0.000    5.333 
#    0.000    0.000    0.000    0.000    0.000    0.000 
#    0.000    0.000    0.000    0.000    0.000    0.000 
#
# Total GULP energy -223044.478996 kJ/mol
# GULP energy per Si atom -12391.359944 kJ/mol
# Density = 2.439343 g / cm^3
# Si number density = 24.449080 Si / 1000 Ang^3
#
#
#
# Elastic Constant Matrix: (Units=GPa)
#
#
# Indices 1 2 3 4 5 6 
#
# 1 115.8572 41.6201 16.6942 -1.3896 0.0000 0.0000
# 2 41.6201 115.8572 16.6942 1.3896 0.0000 0.0000
# 3 16.6942 16.6942 69.2318 0.0000 0.0000 0.0000
# 4 -1.3896 1.3896 0.0000 36.7425 0.0000 0.0000
# 5 0.0000 0.0000 0.0000 0.0000 36.7425 -1.3896
# 6 0.0000 0.0000 0.0000 0.0000 -1.3896 37.1185
#
#
#
# Elastic Compliance Matrix: (Units=1/GPa)
#
#
# Indices 1 2 3 4 5 6 
#
# 1 0.010091 -0.003399 -0.001614 0.000510 0.000000 0.000000
# 2 -0.003399 0.010091 -0.001614 -0.000510 0.000000 0.000000
# 3 -0.001614 -0.001614 0.015222 0.000000 0.000000 0.000000
# 4 0.000510 -0.000510 0.000000 0.027255 0.000000 0.000000
# 5 0.000000 0.000000 0.000000 0.000000 0.027255 0.001020
# 6 0.000000 0.000000 0.000000 0.000000 0.001020 0.026979
#
#
# Mechanical properties :
#
#
# Convention : Reuss Voigt Hill
#
# Bulk Modulus (GPa) = 45.14255 50.10705 47.62480
# Shear Modulus (GPa) = 36.35588 37.18322 36.76955
#
# Velocity S-wave (km/s) = 3.86035 3.90403 3.88225
# Velocity P-wave (km/s) = 6.19465 6.39225 6.29423
#
# Compressibility (1/GPa) = 0.02215205
#
# Stress axis : x y z
#
# Youngs Moduli (GPa) = 99.09955 99.09955 65.69232
#
# Poissons Ratio (x) = 0.33680 0.10601
# Poissons Ratio (y) = 0.33680 0.10601
# Poissons Ratio (z) = 0.15992 0.15992
#
# Static dielectric constant tensor:
#      x y z
#    x 4.296830 0.000000 0.000000 
#    y 0.000000 4.296830 0.000000 
#    z 0.000000 0.000000 4.361290 
# 
# 
# High freq. dielectric constant tensor:
#      x y z
#    x 1.973810 0.000000 0.000000 
#    y 0.000000 1.973810 0.000000 
#    z 0.000000 0.000000 1.967350 
# 
# From -- ./inp_files/1456.got.cif
#   From: 2010.03.12/outbox.cif.g09.slc.cpg/sg154_1_cif.got.tgz:1456.got - 2010.04.03 13:51:21.
