data_PCOD8322090
_publ_section_title
;
Structure prediction by ZEFSAII (Michael W. Deem and Ramdas Pophale) SiO2 
 PCOD8322090
Probable space group: P 31 2 1
;
_chemical_formula_sum "Si O2"
_cell_formula_units_Z 45
_cell_length_a 11.283088
_cell_length_b 11.283088
_cell_length_c 20.571364
_cell_angle_alpha 90.000000
_cell_angle_beta 90.000000
_cell_angle_gamma 120.000000
_cell_volume 2268.034577
_symmetry_space_group_name_H-M "P 31 2 1"
_symmetry_group_IT_number 152
_symmetry_cell_setting 'hexagonal'
loop_
_space_group_symop_operation_xyz
x,y,z
-y,x-y,1/3+z
-x+y,-x,2/3+z
x-y,-y,2/3-z
-x,-x+y,1/3-z
y,x,-z
loop_
_atom_site_type_symbol
_atom_site_label
_atom_site_fract_x
_atom_site_fract_y
_atom_site_fract_z
Si Si1 0.895482 0.631421 0.906188
Si Si2 0.629751 0.727429 0.830893
Si Si3 0.071238 0.146784 0.865431
Si Si4 0.142004 0.421202 0.640988
Si Si5 0.744634 0.472798 0.669245
Si Si6 0.768534 0.000000 0.333334
Si Si7 0.349435 0.675105 0.792695
Si Si8 0.561032 0.116514 0.113846
O O1 0.908545 0.738933 0.852377
O O2 0.778552 0.483935 0.883897
O O3 0.041102 0.640539 0.911451
O O4 0.851844 0.653523 0.977859
O O5 0.769468 0.825009 0.791560
O O6 0.654534 0.772676 0.905876
O O7 0.510836 0.755270 0.806208
O O8 0.583469 0.566495 0.826523
O O9 0.141740 0.158929 0.935404
O O10 0.023641 0.000000 0.833334
O O11 0.232010 0.585343 0.633886
O O12 0.000000 0.401147 0.666667
O O13 0.875113 0.618062 0.655753
O O14 0.667061 0.419740 0.601535
O O15 0.652133 0.500688 0.718368
O O16 0.253639 0.676110 0.850523
#
# Coordination Sequence:
#
# PCOD8322090 Si02
#       8
#     6   6   6   6   6   3   6   6
#     4  10  22  38  62  97 131 167 214 269 318 383
#     4  11  21  39  64  93 131 166 212 271 322 380
#     4  12  26  45  63  91 131 178 220 264 314 393
#     4  11  19  35  66  99 124 163 218 272 327 380
#     4  11  21  37  66  99 126 165 212 271 333 389
#     4  12  24  42  70  90 124 174 224 262 330 394
#     4  10  20  36  65  98 128 161 208 272 335 378
#     4  11  20  38  65  97 133 158 210 282 330 374
#
# _framework density 19.840966999999999
#
# number of rings (size 3 to 8) (size 9 to 14) (size 15 to 20)
#    0.000    1.067    6.000    1.600    1.867    1.067 
#    4.800    0.000    0.000    0.800    0.000    0.000 
#    0.000    0.000    0.000    0.000    0.000    0.000 
#
# Total GULP energy -557893.666472 kJ/mol
# GULP energy per Si atom -12397.637033 kJ/mol
# Density = 1.979581 g / cm^3
# Si number density = 19.840967 Si / 1000 Ang^3
#
#
#
# Elastic Constant Matrix: (Units=GPa)
#
#
# Indices 1 2 3 4 5 6 
#
# 1 85.7832 30.3161 58.3883 -1.2566 0.0000 0.0000
# 2 30.3161 85.7832 58.3883 1.2566 0.0000 0.0000
# 3 58.3883 58.3883 153.6651 0.0000 0.0000 0.0000
# 4 -1.2566 1.2566 0.0000 31.4547 0.0000 0.0000
# 5 0.0000 0.0000 0.0000 0.0000 31.4547 -1.2566
# 6 0.0000 0.0000 0.0000 0.0000 -1.2566 27.7335
#
#
#
# Elastic Compliance Matrix: (Units=1/GPa)
#
#
# Indices 1 2 3 4 5 6 
#
# 1 0.016002 -0.002060 -0.005297 0.000722 0.000000 0.000000
# 2 -0.002060 0.016002 -0.005297 -0.000722 0.000000 0.000000
# 3 -0.005297 -0.005297 0.010533 0.000000 0.000000 0.000000
# 4 0.000722 -0.000722 0.000000 0.031849 0.000000 0.000000
# 5 0.000000 0.000000 0.000000 0.000000 0.031849 0.001443
# 6 0.000000 0.000000 0.000000 0.000000 0.001443 0.036123
#
#
# Mechanical properties :
#
#
# Convention : Reuss Voigt Hill
#
# Bulk Modulus (GPa) = 58.04841 68.82407 63.43624
# Shear Modulus (GPa) = 28.83343 30.00450 29.41896
#
# Velocity S-wave (km/s) = 3.81626 3.89298 3.85481
# Velocity P-wave (km/s) = 6.98132 7.41419 7.20101
#
# Compressibility (1/GPa) = 0.01722700
#
# Stress axis : x y z
#
# Youngs Moduli (GPa) = 62.49405 62.49405 94.93622
#
# Poissons Ratio (x) = 0.12873 0.50292
# Poissons Ratio (y) = 0.12873 0.50292
# Poissons Ratio (z) = 0.33106 0.33106
#
# Static dielectric constant tensor:
#      x y z
#    x 3.688800 0.000000 0.000000 
#    y 0.000000 3.688800 0.000000 
#    z 0.000000 0.000000 3.708010 
# 
# 
# High freq. dielectric constant tensor:
#      x y z
#    x 1.762700 0.000000 0.000000 
#    y 0.000000 1.762700 0.000000 
#    z 0.000000 0.000000 1.780600 
# 
# From -- ./inp_files/2522.got.cif
#   From: 2010.03.12/outbox.cif.g09.slc.cpg/sg152_2_cif.got.tgz:2522.got - 2010.04.03 13:45:27.
