data_PCOD8322656
_publ_section_title
;
Structure prediction by ZEFSAII (Michael W. Deem and Ramdas Pophale) SiO2 
 PCOD8322656
Probable space group: P 3 M 1
;
_chemical_formula_sum "Si O2"
_cell_formula_units_Z 48
_cell_length_a 13.108313
_cell_length_b 13.108313
_cell_length_c 20.454140
_cell_angle_alpha 90.000000
_cell_angle_beta 90.000000
_cell_angle_gamma 120.000000
_cell_volume 3043.725352
_symmetry_space_group_name_H-M "P 3 M 1"
_symmetry_group_IT_number 156
_symmetry_cell_setting 'hexagonal'
loop_
_space_group_symop_operation_xyz
x,y,z
-y,x-y,z
-x+y,-x,z
-x+y,y,z
x,x-y,z
-y,-x,z
loop_
_atom_site_type_symbol
_atom_site_label
_atom_site_fract_x
_atom_site_fract_y
_atom_site_fract_z
Si Si1 0.902642 0.569091 0.052640
Si Si2 0.335241 0.437845 0.444673
Si Si3 0.239897 0.998292 0.696629
Si Si4 0.570763 0.906629 0.303078
Si Si5 0.429885 0.333658 0.200860
Si Si6 0.569141 0.902668 0.803891
Si Si7 0.333238 0.431709 0.953149
Si Si8 0.092848 0.428079 0.586765
O O1 0.786287 0.572573 0.037454
O O2 0.873867 0.436934 0.040156
O O3 0.947262 0.609300 0.126625
O O4 0.999041 0.657811 0.001934
O O5 0.202757 0.405513 0.441893
O O6 0.421133 0.578868 0.446291
O O7 0.356805 0.389158 0.375899
O O8 0.352736 0.387334 0.513686
O O9 0.248314 0.124157 0.696360
O O10 0.305202 0.987570 0.760708
O O11 0.308553 0.988111 0.634068
O O12 0.103316 0.896685 0.695665
O O13 0.438072 0.876144 0.287416
O O14 0.575273 0.787637 0.298495
O O15 0.659285 0.996820 0.249582
O O16 0.428296 0.214148 0.215787
O O17 0.561228 0.438773 0.214528
O O18 0.457471 0.914942 0.782612
O O19 0.533137 0.766569 0.793867
O O20 0.605280 0.942534 0.878592
O O21 0.212797 0.425593 0.970399
O O22 0.436009 0.563992 0.966428
O O23 0.227853 0.455706 0.587771
O O24 0.092538 0.546269 0.609229
#
# Coordination Sequence:
#
# PCOD8322656 Si02
#       8
#     6   6   6   6   6   6   6   6
#     4   9  17  29  45  63  83 110 146 186 221 250
#     4   8  13  22  38  62  90 115 137 165 208 260
#     4  10  20  32  45  61  84 115 148 180 213 250
#     4   9  16  26  42  65  92 117 139 168 212 266
#     4   9  17  29  44  61  81 109 147 188 223 250
#     4   9  17  30  49  71  92 113 139 174 215 256
#     4   9  17  29  46  69  95 119 139 164 207 262
#     4   9  16  27  46  70  91 110 137 177 221 260
#
# _framework density 15.770148000000001
#
# number of rings (size 3 to 8) (size 9 to 14) (size 15 to 20)
#    0.000    3.000    0.000    1.375    0.000    5.000 
#    0.000    1.875    0.000    4.000    0.000    0.000 
#    0.000    0.000    0.000    0.000    0.000    0.000 
#
# Total GULP energy -594804.180768 kJ/mol
# GULP energy per Si atom -12391.753766 kJ/mol
# Density = 1.573425 g / cm^3
# Si number density = 15.770148 Si / 1000 Ang^3
#
#
#
# Elastic Constant Matrix: (Units=GPa)
#
#
# Indices 1 2 3 4 5 6 
#
# 1 84.4734 43.5382 63.0123 0.1940 0.0000 0.0000
# 2 43.5382 84.4734 63.0123 -0.1940 0.0000 0.0000
# 3 63.0123 63.0123 128.3095 0.0000 0.0000 0.0000
# 4 0.1940 -0.1940 0.0000 22.8379 0.0000 0.0000
# 5 0.0000 0.0000 0.0000 0.0000 22.8379 0.1940
# 6 0.0000 0.0000 0.0000 0.0000 0.1940 20.4676
#
#
#
# Elastic Compliance Matrix: (Units=1/GPa)
#
#
# Indices 1 2 3 4 5 6 
#
# 1 0.019777 -0.004654 -0.007427 -0.000208 0.000000 0.000000
# 2 -0.004654 0.019777 -0.007427 0.000208 0.000000 0.000000
# 3 -0.007427 -0.007427 0.015089 0.000000 0.000000 0.000000
# 4 -0.000208 0.000208 0.000000 0.043790 0.000000 0.000000
# 5 0.000000 0.000000 0.000000 0.000000 0.043790 -0.000415
# 6 0.000000 0.000000 0.000000 0.000000 -0.000415 0.048862
#
#
# Mechanical properties :
#
#
# Convention : Reuss Voigt Hill
#
# Bulk Modulus (GPa) = 63.99094 70.70912 67.35003
# Shear Modulus (GPa) = 21.24854 21.74160 21.49507
#
# Velocity S-wave (km/s) = 3.67466 3.71705 3.69592
# Velocity P-wave (km/s) = 7.65961 7.95969 7.81109
#
# Compressibility (1/GPa) = 0.01562721
#
# Stress axis : x y z
#
# Youngs Moduli (GPa) = 50.56313 50.56313 66.27532
#
# Poissons Ratio (x) = 0.23530 0.49224
# Poissons Ratio (y) = 0.23530 0.49224
# Poissons Ratio (z) = 0.37554 0.37554
#
# Static dielectric constant tensor:
#      x y z
#    x 2.772950 0.000000 0.000000 
#    y 0.000000 2.772950 0.000000 
#    z 0.000000 0.000000 3.450210 
# 
# 
# High freq. dielectric constant tensor:
#      x y z
#    x 1.579500 0.000000 0.000000 
#    y 0.000000 1.579500 0.000000 
#    z 0.000000 0.000000 1.627050 
# 
# From -- ./inp_files/1102.got.cif
#   From: 2010.03.12/outbox.cif.g09.slc.cpg/sg156_cif.got.tgz:1102.got - 2010.04.03 13:58:47.
