data_PCOD8322203
_publ_section_title
;
Structure prediction by ZEFSAII (Michael W. Deem and Ramdas Pophale) SiO2 
 PCOD8322203
Probable space group: P 31 2 1
;
_chemical_formula_sum "Si O2"
_cell_formula_units_Z 42
_cell_length_a 9.304125
_cell_length_b 9.304125
_cell_length_c 26.665079
_cell_angle_alpha 90.000000
_cell_angle_beta 90.000000
_cell_angle_gamma 120.000000
_cell_volume 1999.054246
_symmetry_space_group_name_H-M "P 31 2 1"
_symmetry_group_IT_number 152
_symmetry_cell_setting 'hexagonal'
loop_
_space_group_symop_operation_xyz
x,y,z
-y,x-y,1/3+z
-x+y,-x,2/3+z
x-y,-y,2/3-z
-x,-x+y,1/3-z
y,x,-z
loop_
_atom_site_type_symbol
_atom_site_label
_atom_site_fract_x
_atom_site_fract_y
_atom_site_fract_z
Si Si1 0.680753 0.137825 0.053956
Si Si2 0.528060 0.493016 0.364570
Si Si3 0.051916 0.079095 0.278953
Si Si4 0.562910 0.719157 0.825900
Si Si5 0.236020 0.892584 0.782313
Si Si6 0.980597 0.738025 0.092816
Si Si7 0.412263 0.597004 0.168557
O O1 0.788215 0.310127 0.024692
O O2 0.648637 0.176355 0.109401
O O3 0.778354 0.034212 0.053469
O O4 0.506909 0.048904 0.023775
O O5 0.550407 0.612328 0.411173
O O6 0.361445 0.318155 0.374852
O O7 0.914852 0.099148 0.247702
O O8 0.977665 0.000000 0.333334
O O9 0.082342 0.950318 0.247889
O O10 0.651295 0.825998 0.776029
O O11 0.362800 0.605293 0.822273
O O12 0.640401 0.601629 0.838007
O O13 0.602537 0.855174 0.868255
O O14 0.152559 0.700005 0.796028
O O15 0.299906 0.000000 0.833334
#
# Coordination Sequence:
#
# PCOD8322203 Si02
#       7
#     6   6   6   6   6   6   6
#     4  11  25  42  71  99 141 180 232 285 357 411
#     4  11  22  44  68  97 130 187 229 278 348 422
#     4  11  24  40  67 105 138 181 234 282 347 427
#     4  11  27  41  70  98 134 171 236 291 349 407
#     4  11  22  43  71  95 140 184 227 284 349 414
#     4  11  23  45  67  94 134 184 220 281 353 416
#     4  12  25  44  67 106 135 177 237 296 343 412
#
# _framework density 21.009934000000001
#
# number of rings (size 3 to 8) (size 9 to 14) (size 15 to 20)
#    0.000    0.857    7.143    0.000    8.000    0.000 
#    0.000    0.000    0.000    0.000    0.000    0.000 
#    0.000    0.000    0.000    0.000    0.000    0.000 
#
# Total GULP energy -520616.952973 kJ/mol
# GULP energy per Si atom -12395.641737 kJ/mol
# Density = 2.096211 g / cm^3
# Si number density = 21.009934 Si / 1000 Ang^3
#
#
#
# Elastic Constant Matrix: (Units=GPa)
#
#
# Indices 1 2 3 4 5 6 
#
# 1 101.3528 27.3168 12.1231 2.9935 0.0000 0.0000
# 2 27.3168 101.3528 12.1231 -2.9935 0.0000 0.0000
# 3 12.1231 12.1231 66.1285 0.0000 0.0000 0.0000
# 4 2.9935 -2.9935 0.0000 29.6651 0.0000 0.0000
# 5 0.0000 0.0000 0.0000 0.0000 29.6651 2.9935
# 6 0.0000 0.0000 0.0000 0.0000 2.9935 37.0180
#
#
#
# Elastic Compliance Matrix: (Units=1/GPa)
#
#
# Indices 1 2 3 4 5 6 
#
# 1 0.010834 -0.002784 -0.001476 -0.001374 0.000000 0.000000
# 2 -0.002784 0.010834 -0.001476 0.001374 0.000000 0.000000
# 3 -0.001476 -0.001476 0.015663 0.000000 0.000000 0.000000
# 4 -0.001374 0.001374 0.000000 0.033987 0.000000 0.000000
# 5 0.000000 0.000000 0.000000 0.000000 0.033987 -0.002748
# 6 0.000000 0.000000 0.000000 0.000000 -0.002748 0.027236
#
#
# Mechanical properties :
#
#
# Convention : Reuss Voigt Hill
#
# Bulk Modulus (GPa) = 38.66980 41.32890 39.99935
# Shear Modulus (GPa) = 32.75845 33.75440 33.25642
#
# Velocity S-wave (km/s) = 3.95294 4.01258 3.98287
# Velocity P-wave (km/s) = 6.26736 6.41729 6.34276
#
# Compressibility (1/GPa) = 0.02585997
#
# Stress axis : x y z
#
# Youngs Moduli (GPa) = 92.30201 92.30201 63.84407
#
# Poissons Ratio (x) = 0.25698 0.09422
# Poissons Ratio (y) = 0.25698 0.09422
# Poissons Ratio (z) = 0.13622 0.13622
#
# Static dielectric constant tensor:
#      x y z
#    x 3.818580 0.000000 0.000000 
#    y 0.000000 3.818580 0.000000 
#    z 0.000000 0.000000 3.832150 
# 
# 
# High freq. dielectric constant tensor:
#      x y z
#    x 1.820070 0.000000 0.000000 
#    y 0.000000 1.820070 0.000000 
#    z 0.000000 0.000000 1.831110 
# 
# From -- ./inp_files/3730.got.cif
#   From: 2010.03.12/outbox.cif.g09.slc.cpg/sg152_2_cif.got.tgz:3730.got - 2010.04.03 13:45:27.
