data_PCOD8322207
_publ_section_title
;
Structure prediction by ZEFSAII (Michael W. Deem and Ramdas Pophale) SiO2 
 PCOD8322207
Probable space group: P 31 2 1
;
_chemical_formula_sum "Si O2"
_cell_formula_units_Z 18
_cell_length_a 10.079064
_cell_length_b 10.079064
_cell_length_c 9.666336
_cell_angle_alpha 90.000000
_cell_angle_beta 90.000000
_cell_angle_gamma 120.000000
_cell_volume 850.418941
_symmetry_space_group_name_H-M "P 31 2 1"
_symmetry_group_IT_number 152
_symmetry_cell_setting 'hexagonal'
loop_
_space_group_symop_operation_xyz
x,y,z
-y,x-y,1/3+z
-x+y,-x,2/3+z
x-y,-y,2/3-z
-x,-x+y,1/3-z
y,x,-z
loop_
_atom_site_type_symbol
_atom_site_label
_atom_site_fract_x
_atom_site_fract_y
_atom_site_fract_z
Si Si1 0.676971 0.079543 0.980777
Si Si2 0.913750 0.822562 0.869046
Si Si3 0.354780 0.012896 0.672077
O O1 0.806822 0.257853 0.964164
O O2 0.656317 0.000000 0.833334
O O3 0.520206 0.065566 0.035757
O O4 0.739516 0.009183 0.095176
O O5 0.807627 0.736139 0.738518
O O6 0.808418 0.808418 0.000000
O O7 0.026260 0.000000 0.833334
O O8 0.320989 0.000000 0.833334
#
# Coordination Sequence:
#
# PCOD8322207 Si02
#       3
#     6   6   6
#     4  11  24  44  67  98 140 175 227 285 342 411
#     4  12  22  43  73  95 131 181 235 278 334 409
#     4  11  25  43  65 101 137 177 222 289 344 407
#
# _framework density 21.166036999999999
#
# number of rings (size 3 to 8) (size 9 to 14) (size 15 to 20)
#    0.000    0.667    6.667    1.000    0.000    6.667 
#    6.000    0.000    0.000    0.000    0.000    0.000 
#    0.000    0.000    0.000    0.000    0.000    0.000 
#
# Total GULP energy -223223.911566 kJ/mol
# GULP energy per Si atom -12401.328420 kJ/mol
# Density = 2.111786 g / cm^3
# Si number density = 21.166037 Si / 1000 Ang^3
#
#
#
# Elastic Constant Matrix: (Units=GPa)
#
#
# Indices 1 2 3 4 5 6 
#
# 1 125.4450 47.6080 29.1989 -5.0028 -0.0001 0.0000
# 2 47.6080 125.4450 29.1989 5.0028 0.0001 0.0000
# 3 29.1989 29.1989 95.2891 0.0000 0.0000 0.0000
# 4 -5.0028 5.0028 0.0000 29.5598 0.0000 0.0001
# 5 -0.0001 0.0001 0.0000 0.0000 29.5598 -5.0028
# 6 0.0000 0.0000 0.0000 0.0001 -5.0028 38.9185
#
#
#
# Elastic Compliance Matrix: (Units=1/GPa)
#
#
# Indices 1 2 3 4 5 6 
#
# 1 0.009789 -0.003344 -0.001975 0.002223 0.000000 0.000000
# 2 -0.003344 0.009789 -0.001975 -0.002223 0.000000 0.000000
# 3 -0.001975 -0.001975 0.011705 0.000000 0.000000 0.000000
# 4 0.002223 -0.002223 0.000000 0.034582 0.000000 0.000000
# 5 0.000000 0.000000 0.000000 0.000000 0.034582 0.004445
# 6 0.000000 0.000000 0.000000 0.000000 0.004445 0.026266
#
#
# Mechanical properties :
#
#
# Convention : Reuss Voigt Hill
#
# Bulk Modulus (GPa) = 59.89783 62.02119 60.95951
# Shear Modulus (GPa) = 34.04465 35.61916 34.83191
#
# Velocity S-wave (km/s) = 4.01491 4.10670 4.06106
# Velocity P-wave (km/s) = 7.06067 7.20087 7.13111
#
# Compressibility (1/GPa) = 0.01669510
#
# Stress axis : x y z
#
# Youngs Moduli (GPa) = 102.15497 102.15497 85.43575
#
# Poissons Ratio (x) = 0.34161 0.16873
# Poissons Ratio (y) = 0.34161 0.16873
# Poissons Ratio (z) = 0.20175 0.20175
#
# Static dielectric constant tensor:
#      x y z
#    x 4.095320 0.000000 0.000000 
#    y 0.000000 4.095320 0.000000 
#    z 0.000000 0.000000 4.082290 
# 
# 
# High freq. dielectric constant tensor:
#      x y z
#    x 1.827310 0.000000 0.000000 
#    y 0.000000 1.827310 0.000000 
#    z 0.000000 0.000000 1.841070 
# 
# From -- ./inp_files/774.got.cif
#   From: 2010.03.12/outbox.cif.g09.slc.cpg/sg152_1_cif.got.tgz:774.got - 2010.04.03 13:45:27.
