data_PCOD8322250
_publ_section_title
;
Structure prediction by ZEFSAII (Michael W. Deem and Ramdas Pophale) SiO2 
 PCOD8322250
Probable space group: P 32 1 2
;
_chemical_formula_sum "Si O2"
_cell_formula_units_Z 24
_cell_length_a 15.580280
_cell_length_b 15.580280
_cell_length_c 5.163109
_cell_angle_alpha 90.000000
_cell_angle_beta 90.000000
_cell_angle_gamma 120.000000
_cell_volume 1085.406560
_symmetry_space_group_name_H-M "P 32 1 2"
_symmetry_group_IT_number 153
_symmetry_cell_setting 'hexagonal'
loop_
_space_group_symop_operation_xyz
x,y,z
-y,x-y,2/3+z
-x+y,-x,1/3+z
-y,-x,1/3-z
-x+y,y,2/3-z
x,x-y,-z
loop_
_atom_site_type_symbol
_atom_site_label
_atom_site_fract_x
_atom_site_fract_y
_atom_site_fract_z
Si Si1 0.928120 0.139649 0.420218
Si Si2 0.439500 0.984241 0.093019
Si Si3 0.116872 0.339444 0.576311
Si Si4 0.431199 0.173639 0.246996
O O1 0.925085 0.074916 0.666667
O O2 0.823772 0.138772 0.418385
O O3 0.022029 0.248432 0.438385
O O4 0.923520 0.076481 0.166667
O O5 0.467797 0.935594 0.333334
O O6 0.445349 0.079452 0.231585
O O7 0.506462 0.012924 0.833334
O O8 0.329476 0.905813 0.003310
O O9 0.192319 0.384638 0.333334
O O10 0.153153 0.306306 0.833334
O O11 0.482241 0.241121 0.500000
O O12 0.484481 0.242241 0.000000
#
# Coordination Sequence:
#
# PCOD8322250 Si02
#       4
#     6   6   6   6
#     4  10  19  36  67  95 134 172 226 270 347 393
#     4  12  25  42  68 108 140 185 241 295 341 427
#     4  12  25  42  68 108 140 185 241 295 341 427
#     4  10  19  36  67  95 134 172 226 270 347 393
#
# _framework density 22.111529999999998
#
# number of rings (size 3 to 8) (size 9 to 14) (size 15 to 20)
#    0.000    1.000    5.000    4.500    7.000    0.000 
#    0.000    0.000    0.000   22.500    0.000    0.000 
#    0.000    0.000    0.000    0.000    0.000    0.000 
#
# Total GULP energy -297313.590846 kJ/mol
# GULP energy per Si atom -12388.066285 kJ/mol
# Density = 2.206120 g / cm^3
# Si number density = 22.111530 Si / 1000 Ang^3
#
#
#
# Elastic Constant Matrix: (Units=GPa)
#
#
# Indices 1 2 3 4 5 6 
#
# 1 80.2338 46.2067 57.3936 0.0001 -2.5240 0.0000
# 2 46.2067 80.2338 57.3936 -0.0001 2.5240 0.0000
# 3 57.3936 57.3936 259.9039 0.0000 0.0000 0.0000
# 4 0.0001 -0.0001 0.0000 31.8406 0.0000 2.5240
# 5 -2.5240 2.5240 0.0000 0.0000 31.8406 0.0001
# 6 0.0000 0.0000 0.0000 2.5240 0.0001 17.0136
#
#
#
# Elastic Compliance Matrix: (Units=1/GPa)
#
#
# Indices 1 2 3 4 5 6 
#
# 1 0.019815 -0.009923 -0.002184 0.000000 0.002357 0.000000
# 2 -0.009923 0.019815 -0.002184 0.000000 -0.002357 0.000000
# 3 -0.002184 -0.002184 0.004812 0.000000 0.000000 0.000000
# 4 0.000000 0.000000 0.000000 0.031780 0.000000 -0.004715
# 5 0.002357 -0.002357 0.000000 0.000000 0.031780 0.000000
# 6 0.000000 0.000000 0.000000 -0.004715 0.000000 0.059476
#
#
# Mechanical properties :
#
#
# Convention : Reuss Voigt Hill
#
# Bulk Modulus (GPa) = 63.05731 82.48436 72.77083
# Shear Modulus (GPa) = 24.83255 33.43079 29.13167
#
# Velocity S-wave (km/s) = 3.35484 3.89256 3.63366
# Velocity P-wave (km/s) = 6.60200 7.58864 7.11245
#
# Compressibility (1/GPa) = 0.01585859
#
# Stress axis : x y z
#
# Youngs Moduli (GPa) = 50.46686 50.46686 207.80000
#
# Poissons Ratio (x) = 0.50079 0.45392
# Poissons Ratio (y) = 0.50079 0.45392
# Poissons Ratio (z) = 0.11024 0.11024
#
# Static dielectric constant tensor:
#      x y z
#    x 3.787810 0.000000 0.000000 
#    y 0.000000 3.787810 0.000000 
#    z 0.000000 0.000000 15.875470 
# 
# 
# High freq. dielectric constant tensor:
#      x y z
#    x 1.836320 0.000000 0.000000 
#    y 0.000000 1.836320 0.000000 
#    z 0.000000 0.000000 1.922690 
# 
# From -- ./inp_files/177.got.cif
#   From: 2010.03.12/outbox.cif.g09.slc.cpg/sg153_1_cif.got.tgz:177.got - 2010.04.03 13:48:33.
