data_PCOD8322006
_publ_section_title
;
Structure prediction by ZEFSAII (Michael W. Deem and Ramdas Pophale) SiO2 
 PCOD8322006
Probable space group: P 31 1 2
;
_chemical_formula_sum "Si O2"
_cell_formula_units_Z 30
_cell_length_a 17.500810
_cell_length_b 17.500810
_cell_length_c 5.158537
_cell_angle_alpha 90.000000
_cell_angle_beta 90.000000
_cell_angle_gamma 120.000000
_cell_volume 1368.275281
_symmetry_space_group_name_H-M "P 31 1 2"
_symmetry_group_IT_number 151
_symmetry_cell_setting 'hexagonal'
loop_
_space_group_symop_operation_xyz
x,y,z
-y,x-y,1/3+z
-x+y,-x,2/3+z
-y,-x,2/3-z
-x+y,y,1/3-z
x,x-y,-z
loop_
_atom_site_type_symbol
_atom_site_label
_atom_site_fract_x
_atom_site_fract_y
_atom_site_fract_z
Si Si1 0.082137 0.611537 0.826943
Si Si2 0.301534 0.232564 0.564621
Si Si3 0.683424 0.095043 0.399221
Si Si4 0.665674 0.879874 0.756067
Si Si5 0.383099 0.616902 0.833334
Si Si6 0.716208 0.432416 0.666667
O O1 0.170153 0.640462 0.662325
O O2 0.993617 0.584458 0.657979
O O3 0.055407 0.527704 0.000000
O O4 0.106360 0.691972 0.016020
O O5 0.259362 0.129681 0.500000
O O6 0.372159 0.291464 0.350553
O O7 0.221685 0.252970 0.546156
O O8 0.350510 0.249222 0.842529
O O9 0.680657 0.185088 0.441111
O O10 0.696625 0.848313 0.500000
O O11 0.629774 0.814887 0.000000
O O12 0.296484 0.592967 0.666667
O O13 0.633659 0.366342 0.833334
#
# Coordination Sequence:
#
# PCOD8322006 Si02
#       6
#     6   6   6   6   3   3
#     4  11  29  43  71  96 138 194 241 302 347 421
#     4  11  22  47  77 102 136 189 232 293 345 427
#     4  11  26  47  69 101 141 183 253 285 352 423
#     4  11  26  44  71 107 144 179 235 292 356 424
#     4  12  30  48  66 100 140 192 244 302 368 426
#     4  12  30  42  70 102 148 196 232 310 360 426
#
# _framework density 21.925412999999999
#
# number of rings (size 3 to 8) (size 9 to 14) (size 15 to 20)
#    0.000    0.800    2.000    3.000   18.200    0.000 
#    0.000    0.000    0.000    1.200    0.000    0.000 
#    0.000    0.000    0.000    0.000    0.000    0.000 
#
# Total GULP energy -371688.076225 kJ/mol
# GULP energy per Si atom -12389.602541 kJ/mol
# Density = 2.187551 g / cm^3
# Si number density = 21.925413 Si / 1000 Ang^3
#
#
#
# Elastic Constant Matrix: (Units=GPa)
#
#
# Indices 1 2 3 4 5 6 
#
# 1 130.7222 59.4984 30.7108 0.0001 0.9334 0.0000
# 2 59.4984 130.7222 30.7108 -0.0001 -0.9334 0.0000
# 3 30.7108 30.7108 102.1591 0.0000 0.0000 0.0000
# 4 0.0001 -0.0001 0.0000 34.4981 0.0000 -0.9334
# 5 0.9334 -0.9334 0.0000 0.0000 34.4981 0.0001
# 6 0.0000 0.0000 0.0000 -0.9334 0.0001 35.6119
#
#
#
# Elastic Compliance Matrix: (Units=1/GPa)
#
#
# Indices 1 2 3 4 5 6 
#
# 1 0.009936 -0.004114 -0.001750 0.000000 -0.000380 0.000000
# 2 -0.004114 0.009936 -0.001750 0.000000 0.000380 0.000000
# 3 -0.001750 -0.001750 0.010841 0.000000 0.000000 0.000000
# 4 0.000000 0.000000 0.000000 0.029008 0.000000 0.000760
# 5 -0.000380 0.000380 0.000000 0.000000 0.029008 0.000000
# 6 0.000000 0.000000 0.000000 0.000760 0.000000 0.028100
#
#
# Mechanical properties :
#
#
# Convention : Reuss Voigt Hill
#
# Bulk Modulus (GPa) = 64.58132 67.27150 65.92641
# Shear Modulus (GPa) = 36.43790 37.10049 36.76920
#
# Velocity S-wave (km/s) = 4.08107 4.11800 4.09958
# Velocity P-wave (km/s) = 7.19206 7.30474 7.24862
#
# Compressibility (1/GPa) = 0.01548435
#
# Stress axis : x y z
#
# Youngs Moduli (GPa) = 100.64191 100.64191 92.24268
#
# Poissons Ratio (x) = 0.41404 0.16145
# Poissons Ratio (y) = 0.41404 0.16145
# Poissons Ratio (z) = 0.17615 0.17615
#
# Static dielectric constant tensor:
#      x y z
#    x 4.211220 0.000000 0.000000 
#    y 0.000000 4.211220 0.000000 
#    z 0.000000 0.000000 3.954740 
# 
# 
# High freq. dielectric constant tensor:
#      x y z
#    x 1.866640 0.000000 0.000000 
#    y 0.000000 1.866640 0.000000 
#    z 0.000000 0.000000 1.867630 
# 
# From -- ./inp_files/484.got.cif
#   From: 2010.03.12/outbox.cif.g09.slc.cpg/sg151_1_cif.got.tgz:484.got - 2010.04.03 13:42:29.
