data_PCOD8322444
_publ_section_title
;
Structure prediction by ZEFSAII (Michael W. Deem and Ramdas Pophale) SiO2 
 PCOD8322444
Probable space group: P 32 2 1
;
_chemical_formula_sum "Si O2"
_cell_formula_units_Z 15
_cell_length_a 10.296785
_cell_length_b 10.296785
_cell_length_c 6.557373
_cell_angle_alpha 90.000000
_cell_angle_beta 90.000000
_cell_angle_gamma 120.000000
_cell_volume 602.093320
_symmetry_space_group_name_H-M "P 32 2 1"
_symmetry_group_IT_number 154
_symmetry_cell_setting 'hexagonal'
loop_
_space_group_symop_operation_xyz
x,y,z
-y,x-y,2/3+z
-x+y,-x,1/3+z
x-y,-y,1/3-z
-x,-x+y,2/3-z
y,x,-z
loop_
_atom_site_type_symbol
_atom_site_label
_atom_site_fract_x
_atom_site_fract_y
_atom_site_fract_z
Si Si1 0.587277 0.798786 0.439239
Si Si2 0.393632 0.959585 0.442962
Si Si3 0.000000 0.872996 0.833334
O O1 0.481769 0.868864 0.446363
O O2 0.624731 0.771494 0.672192
O O3 0.509547 0.628127 0.345733
O O4 0.730149 0.890194 0.299481
O O5 0.364924 0.000000 0.666667
O O6 0.089539 0.000000 0.666667
#
# Coordination Sequence:
#
# PCOD8322444 Si02
#       3
#     6   6   3
#     4  11  27  49  79 120 161 218 277 356 417 511
#     4  11  27  48  79 117 166 216 280 344 426 500
#     4  12  26  50  80 112 158 212 272 338 424 504
#
# _framework density 24.913080000000001
#
# number of rings (size 3 to 8) (size 9 to 14) (size 15 to 20)
#    0.000    0.800    0.000    6.000    5.600   14.400 
#    0.000    0.000    0.000    0.000    0.000    0.000 
#    0.000    0.000    0.000    0.000    0.000    0.000 
#
# Total GULP energy -185836.360661 kJ/mol
# GULP energy per Si atom -12389.090711 kJ/mol
# Density = 2.485638 g / cm^3
# Si number density = 24.913080 Si / 1000 Ang^3
#
#
#
# Elastic Constant Matrix: (Units=GPa)
#
#
# Indices 1 2 3 4 5 6 
#
# 1 145.9882 51.2702 89.0653 -2.5391 -0.0002 0.0000
# 2 51.2702 145.9882 89.0653 2.5391 0.0002 0.0000
# 3 89.0653 89.0653 218.2378 0.0000 0.0000 0.0000
# 4 -2.5391 2.5391 0.0000 38.1955 0.0000 0.0002
# 5 -0.0002 0.0002 0.0000 0.0000 38.1955 -2.5391
# 6 0.0000 0.0000 0.0000 0.0002 -2.5391 47.3590
#
#
#
# Elastic Compliance Matrix: (Units=1/GPa)
#
#
# Indices 1 2 3 4 5 6 
#
# 1 0.009312 -0.001284 -0.003276 0.000704 0.000000 0.000000
# 2 -0.001284 0.009312 -0.003276 -0.000704 0.000000 0.000000
# 3 -0.003276 -0.003276 0.007256 0.000000 0.000000 0.000000
# 4 0.000704 -0.000704 0.000000 0.026275 0.000000 0.000000
# 5 0.000000 0.000000 0.000000 0.000000 0.026275 0.001409
# 6 0.000000 0.000000 0.000000 0.000000 0.001409 0.021191
#
#
# Mechanical properties :
#
#
# Convention : Reuss Voigt Hill
#
# Bulk Modulus (GPa) = 97.96992 107.66843 102.81918
# Shear Modulus (GPa) = 42.12459 43.47089 42.79774
#
# Velocity S-wave (km/s) = 4.11647 4.18173 4.14923
# Velocity P-wave (km/s) = 7.87425 8.16256 8.01970
#
# Compressibility (1/GPa) = 0.01020721
#
# Stress axis : x y z
#
# Youngs Moduli (GPa) = 107.39062 107.39062 137.80895
#
# Poissons Ratio (x) = 0.13785 0.45152
# Poissons Ratio (y) = 0.13785 0.45152
# Poissons Ratio (z) = 0.35185 0.35185
#
# Static dielectric constant tensor:
#      x y z
#    x 4.652990 0.000000 0.000000 
#    y 0.000000 4.652990 0.000000 
#    z 0.000000 0.000000 5.289660 
# 
# 
# High freq. dielectric constant tensor:
#      x y z
#    x 1.988970 0.000000 0.000000 
#    y 0.000000 1.988970 0.000000 
#    z 0.000000 0.000000 2.027320 
# 
# From -- ./inp_files/88.got.cif
#   From: 2010.03.12/outbox.cif.g09.slc.cpg/sg154_1_cif.got.tgz:88.got - 2010.04.03 13:51:21.
