data_PCOD8322342
_publ_section_title
;
Structure prediction by ZEFSAII (Michael W. Deem and Ramdas Pophale) SiO2 
 PCOD8322342
Probable space group: P 32 2 1
;
_chemical_formula_sum "Si O2"
_cell_formula_units_Z 30
_cell_length_a 16.344504
_cell_length_b 16.344504
_cell_length_c 6.511809
_cell_angle_alpha 90.000000
_cell_angle_beta 90.000000
_cell_angle_gamma 120.000000
_cell_volume 1506.523036
_symmetry_space_group_name_H-M "P 32 2 1"
_symmetry_group_IT_number 154
_symmetry_cell_setting 'hexagonal'
loop_
_space_group_symop_operation_xyz
x,y,z
-y,x-y,2/3+z
-x+y,-x,1/3+z
x-y,-y,1/3-z
-x,-x+y,2/3-z
y,x,-z
loop_
_atom_site_type_symbol
_atom_site_label
_atom_site_fract_x
_atom_site_fract_y
_atom_site_fract_z
Si Si1 0.088420 0.818767 0.719594
Si Si2 0.249317 0.620194 0.080764
Si Si3 0.675172 0.585360 0.369852
Si Si4 0.745017 0.163629 0.949433
Si Si5 0.000000 0.699115 0.333334
Si Si6 0.000000 0.270298 0.333334
O O1 0.171323 0.923276 0.756671
O O2 0.000000 0.815398 0.833334
O O3 0.062020 0.786990 0.484440
O O4 0.118912 0.751290 0.836847
O O5 0.284377 0.657592 0.310546
O O6 0.220094 0.692523 0.985595
O O7 0.157211 0.517510 0.062240
O O8 0.595022 0.595022 0.500000
O O9 0.765254 0.612803 0.515955
O O10 0.700322 0.652755 0.176233
O O11 0.682849 0.076182 0.792460
#
# Coordination Sequence:
#
# PCOD8322342 Si02
#       6
#     6   6   6   6   3   3
#     4  10  22  38  63  91 124 166 208 267 322 391
#     4  10  25  41  63  91 135 172 213 275 331 391
#     4  11  23  39  62  95 124 172 225 265 328 395
#     4  10  21  40  61  92 125 169 216 269 325 393
#     4  10  20  37  61  90 124 162 214 252 334 388
#     4  12  22  39  69  88 130 168 214 274 326 390
#
# _framework density 19.913402000000001
#
# number of rings (size 3 to 8) (size 9 to 14) (size 15 to 20)
#    0.000    1.600    4.000    0.000    2.800    3.200 
#    0.000    3.000    0.000    0.000    0.000    0.000 
#    0.000    0.000    0.000    0.000    0.000    0.000 
#
# Total GULP energy -371740.633783 kJ/mol
# GULP energy per Si atom -12391.354459 kJ/mol
# Density = 1.986808 g / cm^3
# Si number density = 19.913402 Si / 1000 Ang^3
#
#
#
# Elastic Constant Matrix: (Units=GPa)
#
#
# Indices 1 2 3 4 5 6 
#
# 1 122.8430 52.3867 46.4491 0.7947 0.0000 0.0000
# 2 52.3867 122.8430 46.4491 -0.7947 0.0000 0.0000
# 3 46.4491 46.4491 89.9465 0.0000 0.0000 0.0000
# 4 0.7947 -0.7947 0.0000 22.5703 0.0000 0.0000
# 5 0.0000 0.0000 0.0000 0.0000 22.5703 0.7947
# 6 0.0000 0.0000 0.0000 0.0000 0.7947 35.2281
#
#
#
# Elastic Compliance Matrix: (Units=1/GPa)
#
#
# Indices 1 2 3 4 5 6 
#
# 1 0.011031 -0.003173 -0.004058 -0.000500 0.000000 0.000000
# 2 -0.003173 0.011031 -0.004058 0.000500 0.000000 0.000000
# 3 -0.004058 -0.004058 0.015309 0.000000 0.000000 0.000000
# 4 -0.000500 0.000500 0.000000 0.044341 0.000000 0.000000
# 5 0.000000 0.000000 0.000000 0.000000 0.044341 -0.001000
# 6 0.000000 0.000000 0.000000 0.000000 -0.001000 0.028409
#
#
# Mechanical properties :
#
#
# Convention : Reuss Voigt Hill
#
# Bulk Modulus (GPa) = 67.59883 69.57803 68.58843
# Shear Modulus (GPa) = 27.47671 28.76360 28.12016
#
# Velocity S-wave (km/s) = 3.71861 3.80469 3.76190
# Velocity P-wave (km/s) = 7.24276 7.37001 7.30666
#
# Compressibility (1/GPa) = 0.01479316
#
# Stress axis : x y z
#
# Youngs Moduli (GPa) = 90.65098 90.65098 65.32141
#
# Poissons Ratio (x) = 0.28765 0.26508
# Poissons Ratio (y) = 0.28765 0.26508
# Poissons Ratio (z) = 0.36786 0.36786
#
# Static dielectric constant tensor:
#      x y z
#    x 3.727380 0.000000 0.000000 
#    y 0.000000 3.727380 0.000000 
#    z 0.000000 0.000000 3.648880 
# 
# 
# High freq. dielectric constant tensor:
#      x y z
#    x 1.775520 0.000000 0.000000 
#    y 0.000000 1.775520 0.000000 
#    z 0.000000 0.000000 1.782260 
# 
# From -- ./inp_files/394.got.cif
#   From: 2010.03.12/outbox.cif.g09.slc.cpg/sg154_1_cif.got.tgz:394.got - 2010.04.03 13:51:21.
