data_PCOD8322941
_publ_section_title
;
Structure prediction by ZEFSAII (Michael W. Deem and Ramdas Pophale) SiO2 
 PCOD8322941
Probable space group: P -3 1 M 
;
_chemical_formula_sum "Si O2"
_cell_formula_units_Z 84
_cell_length_a 18.168750
_cell_length_b 18.168750
_cell_length_c 18.096179
_cell_angle_alpha 90.000000
_cell_angle_beta 90.000000
_cell_angle_gamma 120.000000
_cell_volume 5173.299398
_symmetry_space_group_name_H-M "P -3 1 M "
_symmetry_group_IT_number 162
_symmetry_cell_setting 'hexagonal'
loop_
_space_group_symop_operation_xyz
x,y,z
-y,x-y,z
-x+y,-x,z
-y,-x,-z
-x+y,y,-z
x,x-y,-z
-x,-y,-z
y,-x+y,-z
x-y,x,-z
y,x,z
x-y,-y,z
-x,-x+y,z
loop_
_atom_site_type_symbol
_atom_site_label
_atom_site_fract_x
_atom_site_fract_y
_atom_site_fract_z
Si Si1 0.099507 0.467484 0.847835
Si Si2 0.263035 0.899757 0.286688
Si Si3 0.467484 0.367978 0.847835
Si Si4 0.899757 0.636722 0.286688
Si Si5 0.831697 0.331227 1.000000
Si Si6 0.531244 0.899476 0.582079
Si Si7 0.100524 0.631768 0.417921
O O1 0.139549 0.569774 0.836582
O O2 0.126152 0.427414 0.781900
O O3 0.129423 0.445514 0.925136
O O4 0.000000 0.426044 0.849465
O O5 0.301261 0.873847 0.218100
O O6 0.159903 0.840097 0.283565
O O7 0.293096 0.870939 0.359390
O O8 0.291047 0.000000 0.286579
O O9 0.426043 0.426043 0.849463
O O10 0.445513 0.316091 0.925136
O O11 0.870939 0.577843 0.359390
O O12 0.000000 0.708953 0.286580
O O13 0.730875 0.269126 0.000000
O O14 0.856436 0.428218 0.000000
O O15 0.538136 0.867634 0.500000
O O16 0.431743 0.863486 0.602569
O O17 0.576621 0.000000 0.583367
O O18 0.000000 0.576621 0.416634
#
# Coordination Sequence:
#
# PCOD8322941 Si02
#       7
#    12  12  12  12  12  12  12
#     4   9  17  29  45  63  82 107 140 177 216 257
#     4  10  19  30  45  65  88 114 147 187 227 265
#     4   9  17  29  45  63  82 107 140 177 216 257
#     4  10  19  30  45  65  88 114 147 187 227 265
#     4  10  18  27  39  57  84 115 143 167 195 238
#     4   8  14  26  45  67  88 110 137 169 206 250
#     4   8  14  26  45  67  88 110 137 169 206 250
#
# _framework density 16.237219
#
# number of rings (size 3 to 8) (size 9 to 14) (size 15 to 20)
#    0.000    2.857    0.000    3.143    0.000    5.714 
#    0.000    0.000    0.000    6.571    0.000    0.000 
#    0.000    0.000    0.000    7.143    0.000   29.714 
#
# Total GULP energy -1040695.533921 kJ/mol
# GULP energy per Si atom -12389.232547 kJ/mol
# Density = 1.620026 g / cm^3
# Si number density = 16.237219 Si / 1000 Ang^3
#
#
#
# Elastic Constant Matrix: (Units=GPa)
#
#
# Indices 1 2 3 4 5 6 
#
# 1 38.8762 55.0163 36.9024 0.0000 -0.0045 0.0000
# 2 55.0163 38.8762 36.9024 0.0000 0.0045 0.0000
# 3 36.9024 36.9024 125.3048 0.0000 0.0000 0.0000
# 4 0.0000 0.0000 0.0000 25.9054 0.0000 0.0045
# 5 -0.0045 0.0045 0.0000 0.0000 25.9054 0.0000
# 6 0.0000 0.0000 0.0000 0.0045 0.0000 -8.0701
#
#
#
# Elastic Compliance Matrix: (Units=1/GPa)
#
#
# Indices 1 2 3 4 5 6 
#
# 1 -0.024049 0.037908 -0.004081 0.000000 -0.000011 0.000000
# 2 0.037908 -0.024049 -0.004081 0.000000 0.000011 0.000000
# 3 -0.004081 -0.004081 0.010384 0.000000 0.000000 0.000000
# 4 0.000000 0.000000 0.000000 0.038602 0.000000 0.000022
# 5 -0.000011 0.000011 0.000000 0.000000 0.038602 0.000000
# 6 0.000000 0.000000 0.000000 0.000022 0.000000 -0.123915
#
#
# Mechanical properties :
#
#
# Convention : Reuss Voigt Hill
#
# Bulk Modulus (GPa) = 45.92153 51.18882 48.55518
# Shear Modulus (GPa) = -36.58793 13.69723 -11.44535
#
# Velocity S-wave (km/s) = -4.75208 2.90758 -2.65784
# Velocity P-wave (km/s) = 1.32917 6.54722 4.53318
#
# Compressibility (1/GPa) = 0.02177628
#
# Stress axis : x y z
#
# Youngs Moduli (GPa) = -41.58112 -41.58112 96.29741
#
# Poissons Ratio (x) = 1.57626 0.39303
# Poissons Ratio (y) = 1.57626 0.39303
# Poissons Ratio (z) = -0.16971 -0.16971
#
# Static dielectric constant tensor:
#      x y z
#    x 2.812670 0.000000 0.000000 
#    y 0.000000 2.812670 0.000000 
#    z 0.000000 0.000000 3.616510 
# 
# 
# High freq. dielectric constant tensor:
#      x y z
#    x 1.590190 0.000000 0.000000 
#    y 0.000000 1.590190 0.000000 
#    z 0.000000 0.000000 1.648660 
# 
# From -- ./inp_files/3863.got.cif
#   From: 2010.03.12/outbox.cif.g09.slc.cpg/sg162_2_cif.got.tgz:3863.got - 2010.04.02 06:27:41.
