data_PCOD8322645
_publ_section_title
;
Structure prediction by ZEFSAII (Michael W. Deem and Ramdas Pophale) SiO2 
 PCOD8322645
Probable space group: P 3 M 1
;
_chemical_formula_sum "Si O2"
_cell_formula_units_Z 36
_cell_length_a 17.350943
_cell_length_b 17.350943
_cell_length_c 9.609254
_cell_angle_alpha 90.000000
_cell_angle_beta 90.000000
_cell_angle_gamma 120.000000
_cell_volume 2505.338839
_symmetry_space_group_name_H-M "P 3 M 1"
_symmetry_group_IT_number 156
_symmetry_cell_setting 'hexagonal'
loop_
_space_group_symop_operation_xyz
x,y,z
-y,x-y,z
-x+y,-x,z
-x+y,y,z
x,x-y,z
-y,-x,z
loop_
_atom_site_type_symbol
_atom_site_label
_atom_site_fract_x
_atom_site_fract_y
_atom_site_fract_z
Si Si1 0.489441 0.335968 0.707250
Si Si2 0.235731 0.938963 0.979486
Si Si3 0.430930 0.036550 0.979484
Si Si4 0.925069 0.666661 0.195786
Si Si5 0.177229 0.179863 0.707238
Si Si6 0.742038 0.075376 0.509887
O O1 0.490042 0.245021 0.719627
O O2 0.586302 0.413699 0.662215
O O3 0.461566 0.355058 0.855478
O O4 0.420774 0.331181 0.590272
O O5 0.164576 0.835425 0.005856
O O6 0.333328 0.950890 0.945287
O O7 0.205102 0.978293 0.855481
O O8 0.245437 0.997748 0.117123
O O9 0.502079 0.004157 0.005850
O O10 0.421235 0.085635 0.117122
O O11 0.833326 0.666651 0.189491
O O12 0.956956 0.666663 0.353198
O O13 0.176610 0.088305 0.719584
O O14 0.245907 0.243752 0.590278
O O15 0.080377 0.160754 0.662199
O O16 0.833334 0.166667 0.506069
#
# Coordination Sequence:
#
# PCOD8322645 Si02
#       6
#     6   6   6   6   6   6
#     4  10  18  29  45  65  90 120 154 188 221 261
#     4   9  18  30  48  66  87 116 148 188 226 267
#     4   9  18  30  48  66  87 116 148 188 226 267
#     4   9  17  29  47  67  92 121 150 184 222 266
#     4  10  18  29  45  65  90 120 154 188 221 261
#     4   9  17  29  43  63  91 121 146 180 223 260
#
# _framework density 14.369315
#
# number of rings (size 3 to 8) (size 9 to 14) (size 15 to 20)
#    1.000    1.667    1.667    1.333    0.000    1.333 
#    0.000    0.000    0.000    1.000    0.000    0.000 
#    0.000    0.000    0.000    0.667    0.000    0.000 
#
# Total GULP energy -446085.784590 kJ/mol
# GULP energy per Si atom -12391.271794 kJ/mol
# Density = 1.433661 g / cm^3
# Si number density = 14.369315 Si / 1000 Ang^3
#
#
#
# Elastic Constant Matrix: (Units=GPa)
#
#
# Indices 1 2 3 4 5 6 
#
# 1 92.8849 46.9779 37.3147 0.0006 -0.0001 0.0000
# 2 46.9779 92.8849 37.3147 -0.0006 0.0001 0.0000
# 3 37.3147 37.3147 110.6306 0.0000 0.0000 0.0000
# 4 0.0006 -0.0006 0.0000 11.0971 0.0000 0.0001
# 5 -0.0001 0.0001 0.0000 0.0000 11.0971 0.0006
# 6 0.0000 0.0000 0.0000 0.0001 0.0006 22.9535
#
#
#
# Elastic Compliance Matrix: (Units=1/GPa)
#
#
# Indices 1 2 3 4 5 6 
#
# 1 0.015251 -0.006532 -0.002941 -0.000001 0.000000 0.000000
# 2 -0.006532 0.015251 -0.002941 0.000001 0.000000 0.000000
# 3 -0.002941 -0.002941 0.011023 0.000000 0.000000 0.000000
# 4 -0.000001 0.000001 0.000000 0.090113 0.000000 0.000000
# 5 0.000000 0.000000 0.000000 0.000000 0.090113 -0.000002
# 6 0.000000 0.000000 0.000000 0.000000 -0.000002 0.043566
#
#
# Mechanical properties :
#
#
# Convention : Reuss Voigt Hill
#
# Bulk Modulus (GPa) = 59.88869 59.95721 59.92295
# Shear Modulus (GPa) = 16.90837 20.68243 18.79540
#
# Velocity S-wave (km/s) = 3.43403 3.79799 3.62058
# Velocity P-wave (km/s) = 7.58235 7.81341 7.69875
#
# Compressibility (1/GPa) = 0.01669764
#
# Stress axis : x y z
#
# Youngs Moduli (GPa) = 65.56890 65.56890 90.71988
#
# Poissons Ratio (x) = 0.42830 0.26680
# Poissons Ratio (y) = 0.42830 0.26680
# Poissons Ratio (z) = 0.19283 0.19283
#
# Static dielectric constant tensor:
#      x y z
#    x 2.758930 0.000000 0.000000 
#    y 0.000000 2.758930 0.000000 
#    z 0.000000 0.000000 2.940910 
# 
# 
# High freq. dielectric constant tensor:
#      x y z
#    x 1.533360 0.000000 0.000000 
#    y 0.000000 1.533360 0.000000 
#    z 0.000000 0.000000 1.555680 
# 
# From -- ./inp_files/414.got.cif
#   From: 2010.03.12/outbox.cif.g09.slc.cpg/sg156_cif.got.tgz:414.got - 2010.04.03 13:58:47.
