data_PCOD8322293
_publ_section_title
;
Structure prediction by ZEFSAII (Michael W. Deem and Ramdas Pophale) SiO2 
 PCOD8322293
Probable space group: P 32 1 2
;
_chemical_formula_sum "Si O2"
_cell_formula_units_Z 15
_cell_length_a 7.130987
_cell_length_b 7.130987
_cell_length_c 14.763001
_cell_angle_alpha 90.000000
_cell_angle_beta 90.000000
_cell_angle_gamma 120.000000
_cell_volume 650.136532
_symmetry_space_group_name_H-M "P 32 1 2"
_symmetry_group_IT_number 153
_symmetry_cell_setting 'hexagonal'
loop_
_space_group_symop_operation_xyz
x,y,z
-y,x-y,2/3+z
-x+y,-x,1/3+z
-y,-x,1/3-z
-x+y,y,2/3-z
x,x-y,-z
loop_
_atom_site_type_symbol
_atom_site_label
_atom_site_fract_x
_atom_site_fract_y
_atom_site_fract_z
Si Si1 0.131821 0.526288 0.601296
Si Si2 0.666796 0.333398 0.000000
Si Si3 0.938983 0.798593 0.934624
O O1 0.265258 0.734743 0.666667
O O2 0.217041 0.608521 0.500000
O O3 0.166497 0.333264 0.634581
O O4 0.872974 0.412240 0.601968
O O5 0.794374 0.539723 0.935280
O O6 0.941898 0.883796 0.833334
O O7 0.863819 0.931909 0.000000
#
# Coordination Sequence:
#
# PCOD8322293 Si02
#       3
#     6   3   6
#     4  12  26  47  74 109 149 194 250 306 369 445
#     4  12  24  48  72 110 148 198 240 312 376 430
#     4  12  26  47  74 109 149 194 250 306 369 445
#
# _framework density 23.072075999999999
#
# number of rings (size 3 to 8) (size 9 to 14) (size 15 to 20)
#    0.000    0.000    4.000    7.200    0.000    1.600 
#    0.000    0.000    0.000    0.000    0.000    0.000 
#    0.000    0.000    0.000    0.000    0.000    0.000 
#
# Total GULP energy -185885.393330 kJ/mol
# GULP energy per Si atom -12392.359555 kJ/mol
# Density = 2.301956 g / cm^3
# Si number density = 23.072076 Si / 1000 Ang^3
#
#
#
# Elastic Constant Matrix: (Units=GPa)
#
#
# Indices 1 2 3 4 5 6 
#
# 1 159.9179 60.8325 44.9866 0.0001 -0.0014 0.0000
# 2 60.8325 159.9179 44.9866 -0.0001 0.0014 0.0000
# 3 44.9866 44.9866 170.9615 0.0000 0.0000 0.0000
# 4 0.0001 -0.0001 0.0000 13.9026 0.0000 0.0014
# 5 -0.0014 0.0014 0.0000 0.0000 13.9026 0.0001
# 6 0.0000 0.0000 0.0000 0.0014 0.0001 49.5427
#
#
#
# Elastic Compliance Matrix: (Units=1/GPa)
#
#
# Indices 1 2 3 4 5 6 
#
# 1 0.007583 -0.002509 -0.001335 0.000000 0.000001 0.000000
# 2 -0.002509 0.007583 -0.001335 0.000000 -0.000001 0.000000
# 3 -0.001335 -0.001335 0.006552 0.000000 0.000000 0.000000
# 4 0.000000 0.000000 0.000000 0.071929 0.000000 -0.000002
# 5 0.000001 -0.000001 0.000000 0.000000 0.071929 0.000000
# 6 0.000000 0.000000 0.000000 -0.000002 0.000000 0.020185
#
#
# Mechanical properties :
#
#
# Convention : Reuss Voigt Hill
#
# Bulk Modulus (GPa) = 88.03200 88.04539 88.03869
# Shear Modulus (GPa) = 25.01174 38.13569 31.57372
#
# Velocity S-wave (km/s) = 3.29609 4.06999 3.70331
# Velocity P-wave (km/s) = 7.26111 7.76726 7.51844
#
# Compressibility (1/GPa) = 0.01135951
#
# Stress axis : x y z
#
# Youngs Moduli (GPa) = 131.86940 131.86940 152.62592
#
# Poissons Ratio (x) = 0.33087 0.20379
# Poissons Ratio (y) = 0.33087 0.20379
# Poissons Ratio (z) = 0.17607 0.17607
#
# Static dielectric constant tensor:
#      x y z
#    x 4.367980 0.000000 0.000000 
#    y 0.000000 4.367980 0.000000 
#    z 0.000000 0.000000 3.728970 
# 
# 
# High freq. dielectric constant tensor:
#      x y z
#    x 1.930260 0.000000 0.000000 
#    y 0.000000 1.930260 0.000000 
#    z 0.000000 0.000000 1.898530 
# 
# From -- ./inp_files/2057.got.cif
#   From: 2010.03.12/outbox.cif.g09.slc.cpg/sg153_2_cif.got.tgz:2057.got - 2010.04.03 13:48:33.
