data_PCOD8322925
_publ_section_title
;
Structure prediction by ZEFSAII (Michael W. Deem and Ramdas Pophale) SiO2 
 PCOD8322925
Probable space group: P -3 1 M 
;
_chemical_formula_sum "Si O2"
_cell_formula_units_Z 58
_cell_length_a 17.771502
_cell_length_b 17.771502
_cell_length_c 13.945856
_cell_angle_alpha 90.000000
_cell_angle_beta 90.000000
_cell_angle_gamma 120.000000
_cell_volume 3814.381064
_symmetry_space_group_name_H-M "P -3 1 M "
_symmetry_group_IT_number 162
_symmetry_cell_setting 'hexagonal'
loop_
_space_group_symop_operation_xyz
x,y,z
-y,x-y,z
-x+y,-x,z
-y,-x,-z
-x+y,y,-z
x,x-y,-z
-x,-y,-z
y,-x+y,-z
x-y,x,-z
y,x,z
x-y,-y,z
-x,-x+y,z
loop_
_atom_site_type_symbol
_atom_site_label
_atom_site_fract_x
_atom_site_fract_y
_atom_site_fract_z
Si Si1 0.779099 0.389550 0.000000
Si Si2 0.468949 0.567578 0.820991
Si Si3 0.200627 0.478174 0.688346
Si Si4 0.417439 0.323847 0.699217
Si Si5 0.097001 0.630590 0.486481
Si Si6 0.666668 0.333334 0.616253
O O1 0.715975 0.431950 0.000000
O O2 0.841149 0.426479 0.908844
O O3 0.535461 0.535461 0.855822
O O4 0.521535 0.661584 0.772689
O O5 0.404789 0.503304 0.741273
O O6 0.234086 0.413443 0.728271
O O7 0.146531 0.440793 0.591009
O O8 0.283914 0.570534 0.661590
O O9 0.334001 0.334001 0.730737
O O10 0.421746 0.325111 0.584797
O O11 0.143122 0.571561 0.500000
O O12 0.000000 0.567786 0.446892
O O13 0.666668 0.333334 0.500000
#
# Coordination Sequence:
#
# PCOD8322925 Si02
#       6
#     6  12  12  12  12   4
#     4  10  23  36  52  66  84 110 152 196 233 260
#     4  11  21  34  48  65  86 115 147 191 235 275
#     4  12  19  29  44  64  89 119 159 189 233 263
#     4  10  20  30  43  61  90 120 151 188 228 263
#     4  10  17  28  41  63  92 121 150 189 232 272
#     4  12  21  24  39  67  92 121 159 201 222 259
#
# _framework density 15.205612
#
# number of rings (size 3 to 8) (size 9 to 14) (size 15 to 20)
#    0.207    1.034    4.138    4.655    0.000    0.000 
#    0.000    0.000    0.000    0.000    0.000    0.000 
#    0.000    0.000    0.000    4.966    0.000   39.103 
#
# Total GULP energy -718807.168629 kJ/mol
# GULP energy per Si atom -12393.227045 kJ/mol
# Density = 1.517100 g / cm^3
# Si number density = 15.205612 Si / 1000 Ang^3
#
#
#
# Elastic Constant Matrix: (Units=GPa)
#
#
# Indices 1 2 3 4 5 6 
#
# 1 83.6854 43.1884 30.9854 0.0001 0.1669 0.0000
# 2 43.1884 83.6853 30.9854 0.0000 -0.1669 0.0000
# 3 30.9854 30.9854 66.5367 0.0000 0.0000 0.0000
# 4 0.0001 0.0000 0.0000 15.7845 0.0000 -0.1668
# 5 0.1669 -0.1669 0.0000 0.0000 15.7843 0.0000
# 6 0.0000 0.0000 0.0000 -0.1668 0.0000 20.2485
#
#
#
# Elastic Compliance Matrix: (Units=1/GPa)
#
#
# Indices 1 2 3 4 5 6 
#
# 1 0.017449 -0.007246 -0.004751 0.000000 -0.000261 0.000000
# 2 -0.007246 0.017449 -0.004751 0.000000 0.000261 0.000000
# 3 -0.004751 -0.004751 0.019454 0.000000 0.000000 0.000000
# 4 0.000000 0.000000 0.000000 0.063359 0.000000 0.000522
# 5 -0.000261 0.000261 0.000000 0.000000 0.063360 0.000000
# 6 0.000000 0.000000 0.000000 0.000522 0.000000 0.049391
#
#
# Mechanical properties :
#
#
# Convention : Reuss Voigt Hill
#
# Bulk Modulus (GPa) = 47.95080 49.35845 48.65463
# Shear Modulus (GPa) = 18.45624 18.94666 18.70145
#
# Velocity S-wave (km/s) = 3.48771 3.53375 3.51080
# Velocity P-wave (km/s) = 6.91536 7.01291 6.96431
#
# Compressibility (1/GPa) = 0.02085471
#
# Stress axis : x y z
#
# Youngs Moduli (GPa) = 57.31004 57.30988 51.40207
#
# Poissons Ratio (x) = 0.41529 0.24422
# Poissons Ratio (y) = 0.41529 0.24422
# Poissons Ratio (z) = 0.27229 0.27229
#
# Static dielectric constant tensor:
#      x y z
#    x 3.029510 0.000000 0.000000 
#    y 0.000000 3.029510 0.000000 
#    z 0.000000 0.000000 2.890180 
# 
# 
# High freq. dielectric constant tensor:
#      x y z
#    x 1.557780 0.000000 0.000000 
#    y 0.000000 1.557780 0.000000 
#    z 0.000000 0.000000 1.580730 
# 
# From -- ./inp_files/3043.got.cif
#   From: 2010.03.12/outbox.cif.g09.slc.cpg/sg162_2_cif.got.tgz:3043.got - 2010.04.02 06:27:41.
