data_PCOD8322337
_publ_section_title
;
Structure prediction by ZEFSAII (Michael W. Deem and Ramdas Pophale) SiO2 
 PCOD8322337
Probable space group: P 32 2 1
;
_chemical_formula_sum "Si O2"
_cell_formula_units_Z 45
_cell_length_a 12.111141
_cell_length_b 12.111141
_cell_length_c 17.514762
_cell_angle_alpha 90.000000
_cell_angle_beta 90.000000
_cell_angle_gamma 120.000000
_cell_volume 2224.871806
_symmetry_space_group_name_H-M "P 32 2 1"
_symmetry_group_IT_number 154
_symmetry_cell_setting 'hexagonal'
loop_
_space_group_symop_operation_xyz
x,y,z
-y,x-y,2/3+z
-x+y,-x,1/3+z
x-y,-y,1/3-z
-x,-x+y,2/3-z
y,x,-z
loop_
_atom_site_type_symbol
_atom_site_label
_atom_site_fract_x
_atom_site_fract_y
_atom_site_fract_z
Si Si1 0.105539 0.826635 0.274970
Si Si2 0.218784 0.218784 0.500000
Si Si3 0.549617 0.483426 0.727328
Si Si4 0.090578 0.140596 0.660008
Si Si5 0.277758 0.485925 0.524707
Si Si6 0.356190 0.831900 0.307434
Si Si7 0.271465 0.336903 0.776101
Si Si8 0.583921 0.253377 0.267205
O O1 0.229299 0.811551 0.267609
O O2 0.053236 0.793153 0.188055
O O3 0.000000 0.724692 0.333334
O O4 0.142842 0.967118 0.305306
O O5 0.119010 0.172996 0.570190
O O6 0.240598 0.357850 0.477952
O O7 0.680310 0.530582 0.771697
O O8 0.539990 0.608228 0.709472
O O9 0.423095 0.385315 0.774878
O O10 0.562596 0.434389 0.643848
O O11 0.212937 0.236754 0.707511
O O12 0.070193 0.000000 0.666667
O O13 0.393673 0.521575 0.584801
O O14 0.330826 0.609485 0.472825
O O15 0.328372 0.699614 0.344439
O O16 0.242407 0.450214 0.757438
#
# Coordination Sequence:
#
# PCOD8322337 Si02
#       8
#     6   3   6   6   6   6   6   6
#     4  11  24  39  65  92 127 176 217 271 321 391
#     4  12  24  42  68  94 128 164 214 268 326 380
#     4  10  22  37  62  92 126 160 209 266 321 385
#     4  11  26  42  66  92 126 164 220 271 320 390
#     4  11  21  38  64  93 121 166 205 261 317 386
#     4  10  20  38  59  91 124 161 208 258 320 379
#     4  11  22  43  65  96 127 171 217 269 331 391
#     4  10  20  36  63  90 125 159 210 261 318 390
#
# _framework density 20.225884000000001
#
# number of rings (size 3 to 8) (size 9 to 14) (size 15 to 20)
#    0.000    1.333    1.333    6.000    5.600    0.000 
#    0.000    0.000    2.933    0.000    0.000    0.000 
#    0.000    0.000    0.000    0.000    0.000    0.000 
#
# Total GULP energy -557584.004706 kJ/mol
# GULP energy per Si atom -12390.755660 kJ/mol
# Density = 2.017985 g / cm^3
# Si number density = 20.225884 Si / 1000 Ang^3
#
#
#
# Elastic Constant Matrix: (Units=GPa)
#
#
# Indices 1 2 3 4 5 6 
#
# 1 72.1588 31.7166 27.8795 -6.0071 0.0000 0.0000
# 2 31.7166 72.1588 27.8795 6.0071 0.0000 0.0000
# 3 27.8795 27.8795 114.7792 0.0000 0.0000 0.0000
# 4 -6.0071 6.0071 0.0000 36.3912 0.0000 0.0000
# 5 0.0000 0.0000 0.0000 0.0000 36.3912 -6.0071
# 6 0.0000 0.0000 0.0000 0.0000 -6.0071 20.2211
#
#
#
# Elastic Compliance Matrix: (Units=1/GPa)
#
#
# Indices 1 2 3 4 5 6 
#
# 1 0.018536 -0.007466 -0.002689 0.004292 0.000000 0.000000
# 2 -0.007466 0.018536 -0.002689 -0.004292 0.000000 0.000000
# 3 -0.002689 -0.002689 0.010019 0.000000 0.000000 0.000000
# 4 0.004292 -0.004292 0.000000 0.028896 0.000000 0.000000
# 5 0.000000 0.000000 0.000000 0.000000 0.028896 0.008584
# 6 0.000000 0.000000 0.000000 0.000000 0.008584 0.052003
#
#
# Mechanical properties :
#
#
# Convention : Reuss Voigt Hill
#
# Bulk Modulus (GPa) = 46.72134 48.22757 47.47446
# Shear Modulus (GPa) = 26.35630 30.04213 28.19921
#
# Velocity S-wave (km/s) = 3.61376 3.85818 3.73797
# Velocity P-wave (km/s) = 6.36885 6.61390 6.49253
#
# Compressibility (1/GPa) = 0.02140349
#
# Stress axis : x y z
#
# Youngs Moduli (GPa) = 53.94910 53.94910 99.81376
#
# Poissons Ratio (x) = 0.40277 0.26839
# Poissons Ratio (y) = 0.40277 0.26839
# Poissons Ratio (z) = 0.14507 0.14507
#
# Static dielectric constant tensor:
#      x y z
#    x 3.685390 0.000000 0.000000 
#    y 0.000000 3.685390 0.000000 
#    z 0.000000 0.000000 3.850900 
# 
# 
# High freq. dielectric constant tensor:
#      x y z
#    x 1.786790 0.000000 0.000000 
#    y 0.000000 1.786790 0.000000 
#    z 0.000000 0.000000 1.794580 
# 
# From -- ./inp_files/2515.got.cif
#   From: 2010.03.12/outbox.cif.g09.slc.cpg/sg154_2_cif.got.tgz:2515.got - 2010.04.03 13:51:21.
