data_PCOD8322874
_publ_section_title
;
Structure prediction by ZEFSAII (Michael W. Deem and Ramdas Pophale) SiO2 
 PCOD8322874
Probable space group: R 3 M
;
_chemical_formula_sum "Si O2"
_cell_formula_units_Z 126
_cell_length_a 18.116845
_cell_length_b 18.116845
_cell_length_c 22.004805
_cell_angle_alpha 90.000000
_cell_angle_beta 90.000000
_cell_angle_gamma 120.000000
_cell_volume 6254.798069
_symmetry_space_group_name_H-M "R 3 M"
_symmetry_group_IT_number 160
_symmetry_cell_setting 'hexagonal'
loop_
_space_group_symop_operation_xyz
x,y,z
-y,x-y,z
-x+y,-x,z
-x+y,y,z
x,x-y,z
-y,-x,z
2/3+x,1/3+y,1/3+z
2/3-y,1/3+x-y,1/3+z
2/3-x+y,1/3-x,1/3+z
2/3-x+y,1/3+y,1/3+z
2/3+x,1/3+x-y,1/3+z
2/3-y,1/3-x,1/3+z
1/3+x,2/3+y,2/3+z
1/3-y,2/3+x-y,2/3+z
1/3-x+y,2/3-x,2/3+z
1/3-x+y,2/3+y,2/3+z
1/3+x,2/3+x-y,2/3+z
1/3-y,2/3-x,2/3+z
loop_
_atom_site_type_symbol
_atom_site_label
_atom_site_fract_x
_atom_site_fract_y
_atom_site_fract_z
Si Si1 0.838332 0.000618 0.444703
Si Si2 0.079688 0.332480 0.505658
Si Si3 0.833372 0.833168 0.301923
Si Si4 0.662593 0.006438 0.295405
Si Si5 0.245592 0.930760 0.758089
Si Si6 0.827753 0.333608 0.442538
Si Si7 0.667284 0.174722 0.300943
O O1 0.908640 0.091361 0.472323
O O2 0.855468 0.927734 0.471870
O O3 0.744254 0.979874 0.460770
O O4 0.846256 0.002800 0.373074
O O5 0.175967 0.351933 0.509090
O O6 0.033976 0.301177 0.570937
O O7 0.081531 0.415146 0.474428
O O8 0.834324 0.917162 0.274877
O O9 0.742179 0.750664 0.287673
O O10 0.912309 0.824618 0.274109
O O11 0.609322 0.968903 0.357890
O O12 0.696992 0.106769 0.289290
O O13 0.149493 0.850508 0.753079
O O14 0.310656 0.902023 0.785187
O O15 0.813469 0.406735 0.473713
O O16 0.759624 0.240377 0.469836
O O17 0.811127 0.334873 0.371817
O O18 0.573227 0.146453 0.273540
O O19 0.736884 0.263117 0.270064
#
# Coordination Sequence:
#
# PCOD8322874 Si02
#       7
#    18  18  18  18  18  18  18
#     4   9  18  34  57  86 117 151 191 241 296 353
#     4  11  23  39  59  84 116 155 205 259 311 364
#     4  10  20  36  60  90 124 159 196 236 288 356
#     4  11  21  36  58  84 116 155 204 256 307 362
#     4  10  21  37  56  81 114 154 201 256 318 375
#     4   8  14  25  45  73 107 145 184 226 277 343
#     4   9  16  27  45  72 105 143 187 238 294 349
#
# _framework density 20.144535000000001
#
# number of rings (size 3 to 8) (size 9 to 14) (size 15 to 20)
#    0.000    2.286    1.429    3.143    0.000    5.143 
#    0.000    0.000    0.000    0.286    0.000    2.000 
#    0.000    0.000    0.000    0.000    0.000    0.000 
#
# Total GULP energy -520326.301077 kJ/mol
# GULP energy per Si atom -12388.721454 kJ/mol
# Density = 2.009868 g / cm^3
# Si number density = 20.144535 Si / 1000 Ang^3
#
#
#
# Elastic Constant Matrix: (Units=GPa)
#
#
# Indices 1 2 3 4 5 6 
#
# 1 104.3180 67.5168 22.4546 -1.1692 -0.0002 0.0000
# 2 67.5168 104.3180 22.4546 1.1692 0.0002 0.0000
# 3 22.4546 22.4546 61.0841 0.0000 0.0000 0.0000
# 4 -1.1692 1.1692 0.0000 10.6622 0.0000 0.0002
# 5 -0.0002 0.0002 0.0000 0.0000 10.6622 -1.1692
# 6 0.0000 0.0000 0.0000 0.0002 -1.1692 18.4006
#
#
#
# Elastic Compliance Matrix: (Units=1/GPa)
#
#
# Indices 1 2 3 4 5 6 
#
# 1 0.016901 -0.010463 -0.002367 0.003001 0.000001 0.000000
# 2 -0.010463 0.016901 -0.002367 -0.003001 -0.000001 0.000000
# 3 -0.002367 -0.002367 0.018111 0.000000 0.000000 0.000000
# 4 0.003001 -0.003001 0.000000 0.094447 0.000000 -0.000001
# 5 0.000001 -0.000001 0.000000 0.000000 0.094447 0.006001
# 6 0.000000 0.000000 0.000000 -0.000001 0.006001 0.054727
#
#
# Mechanical properties :
#
#
# Convention : Reuss Voigt Hill
#
# Bulk Modulus (GPa) = 46.46754 54.95246 50.71000
# Shear Modulus (GPa) = 15.01051 18.43128 16.72089
#
# Velocity S-wave (km/s) = 2.73269 3.02810 2.88418
# Velocity P-wave (km/s) = 5.75099 6.29000 6.02653
#
# Compressibility (1/GPa) = 0.02152040
#
# Stress axis : x y z
#
# Youngs Moduli (GPa) = 59.16851 59.16851 55.21553
#
# Poissons Ratio (x) = 0.61907 0.13068
# Poissons Ratio (y) = 0.61907 0.13068
# Poissons Ratio (z) = 0.14003 0.14003
#
# Static dielectric constant tensor:
#      x y z
#    x 3.879780 0.000000 0.000000 
#    y 0.000000 3.879780 0.000000 
#    z 0.000000 0.000000 3.457050 
# 
# 
# High freq. dielectric constant tensor:
#      x y z
#    x 1.784580 0.000000 0.000000 
#    y 0.000000 1.784580 0.000000 
#    z 0.000000 0.000000 1.760670 
# 
# From -- ./inp_files/3763.got.cif
#   From: 2010.03.12/outbox.cif.g09.slc.cpg/sg160_2_cif.got.tgz:3763.got - 2010.04.02 06:26:15.
