data_PCOD8322135
_publ_section_title
;
Structure prediction by ZEFSAII (Michael W. Deem and Ramdas Pophale) SiO2 
 PCOD8322135
Probable space group: P 31 2 1
;
_chemical_formula_sum "Si O2"
_cell_formula_units_Z 30
_cell_length_a 8.069684
_cell_length_b 8.069684
_cell_length_c 23.387130
_cell_angle_alpha 90.000000
_cell_angle_beta 90.000000
_cell_angle_gamma 120.000000
_cell_volume 1318.926574
_symmetry_space_group_name_H-M "P 31 2 1"
_symmetry_group_IT_number 152
_symmetry_cell_setting 'hexagonal'
loop_
_space_group_symop_operation_xyz
x,y,z
-y,x-y,1/3+z
-x+y,-x,2/3+z
x-y,-y,2/3-z
-x,-x+y,1/3-z
y,x,-z
loop_
_atom_site_type_symbol
_atom_site_label
_atom_site_fract_x
_atom_site_fract_y
_atom_site_fract_z
Si Si1 0.539396 0.881967 0.775117
Si Si2 0.462211 0.481332 0.238363
Si Si3 0.219662 0.212345 0.335264
Si Si4 0.333081 0.189440 0.864818
Si Si5 0.177469 0.327011 0.959978
O O1 0.526183 0.676443 0.774902
O O2 0.670029 0.014066 0.723311
O O3 0.327483 0.848889 0.764353
O O4 0.629919 0.000000 0.833334
O O5 0.332364 0.297233 0.276332
O O6 0.360312 0.464569 0.178504
O O7 0.478105 0.659999 0.275668
O O8 0.015636 0.204749 0.337564
O O9 0.188494 0.000000 0.333334
O O10 0.193583 0.234874 0.901060
O O11 0.182193 0.000000 0.833334
O O12 0.356387 0.356387 0.000000
#
# Coordination Sequence:
#
# PCOD8322135 Si02
#       5
#     6   6   6   6   6
#     4  10  24  42  63  94 134 171 218 272 324 391
#     4  11  23  41  67  98 131 171 221 270 328 395
#     4  10  22  40  64  91 126 169 217 267 320 385
#     4  11  22  40  67  95 132 172 215 272 333 393
#     4  10  21  39  64  92 126 167 215 267 326 386
#
# _framework density 22.745771000000001
#
# number of rings (size 3 to 8) (size 9 to 14) (size 15 to 20)
#    0.000    1.600    0.000    4.800    0.000   12.800 
#    0.000    7.000    0.000    0.000    0.000    0.000 
#    0.000    0.000    0.000    0.000    0.000    0.000 
#
# Total GULP energy -371873.774988 kJ/mol
# GULP energy per Si atom -12395.792500 kJ/mol
# Density = 2.269400 g / cm^3
# Si number density = 22.745771 Si / 1000 Ang^3
#
#
#
# Elastic Constant Matrix: (Units=GPa)
#
#
# Indices 1 2 3 4 5 6 
#
# 1 104.1915 33.8376 36.0452 -5.5807 -0.0001 0.0000
# 2 33.8376 104.1915 36.0452 5.5807 0.0001 0.0000
# 3 36.0452 36.0452 78.6241 0.0000 0.0000 0.0000
# 4 -5.5807 5.5807 0.0000 39.8956 0.0000 0.0001
# 5 -0.0001 0.0001 0.0000 0.0000 39.8956 -5.5807
# 6 0.0000 0.0000 0.0000 0.0001 -5.5807 35.1769
#
#
#
# Elastic Compliance Matrix: (Units=1/GPa)
#
#
# Indices 1 2 3 4 5 6 
#
# 1 0.012031 -0.002505 -0.004367 0.002033 0.000000 0.000000
# 2 -0.002505 0.012031 -0.004367 -0.002033 0.000000 0.000000
# 3 -0.004367 -0.004367 0.016723 0.000000 0.000000 0.000000
# 4 0.002033 -0.002033 0.000000 0.025634 0.000000 0.000000
# 5 0.000000 0.000000 0.000000 0.000000 0.025634 0.004067
# 6 0.000000 0.000000 0.000000 0.000000 0.004067 0.029073
#
#
# Mechanical properties :
#
#
# Convention : Reuss Voigt Hill
#
# Bulk Modulus (GPa) = 54.62668 55.42923 55.02796
# Shear Modulus (GPa) = 33.39848 35.06557 34.23203
#
# Velocity S-wave (km/s) = 3.83605 3.93062 3.88362
# Velocity P-wave (km/s) = 6.60974 6.70982 6.65997
#
# Compressibility (1/GPa) = 0.01830607
#
# Stress axis : x y z
#
# Youngs Moduli (GPa) = 83.11815 83.11815 59.79834
#
# Poissons Ratio (x) = 0.20824 0.26114
# Poissons Ratio (y) = 0.20824 0.26114
# Poissons Ratio (z) = 0.36298 0.36298
#
# Static dielectric constant tensor:
#      x y z
#    x 4.144300 0.000000 0.000000 
#    y 0.000000 4.144300 0.000000 
#    z 0.000000 0.000000 4.286630 
# 
# 
# High freq. dielectric constant tensor:
#      x y z
#    x 1.892750 0.000000 0.000000 
#    y 0.000000 1.892750 0.000000 
#    z 0.000000 0.000000 1.910030 
# 
# From -- ./inp_files/3008.got.cif
#   From: 2010.03.12/outbox.cif.g09.slc.cpg/sg152_2_cif.got.tgz:3008.got - 2010.04.03 13:45:27.
