data_PCOD8322996
_publ_section_title
;
Structure prediction by ZEFSAII (Michael W. Deem and Ramdas Pophale) SiO2 
 PCOD8322996
Probable space group: P -3 1 M 
;
_chemical_formula_sum "Si O2"
_cell_formula_units_Z 72
_cell_length_a 23.394903
_cell_length_b 23.394903
_cell_length_c 8.590383
_cell_angle_alpha 90.000000
_cell_angle_beta 90.000000
_cell_angle_gamma 120.000000
_cell_volume 4071.792673
_symmetry_space_group_name_H-M "P -3 1 M "
_symmetry_group_IT_number 162
_symmetry_cell_setting 'hexagonal'
loop_
_space_group_symop_operation_xyz
x,y,z
-y,x-y,z
-x+y,-x,z
-y,-x,-z
-x+y,y,-z
x,x-y,-z
-x,-y,-z
y,-x+y,-z
x-y,x,-z
y,x,z
x-y,-y,z
-x,-x+y,z
loop_
_atom_site_type_symbol
_atom_site_label
_atom_site_fract_x
_atom_site_fract_y
_atom_site_fract_z
Si Si1 0.313786 0.390520 0.536501
Si Si2 0.074400 0.269002 0.072847
Si Si3 0.583252 0.855984 0.841598
Si Si4 0.812987 0.742349 0.430495
Si Si5 0.473828 0.200109 0.649990
Si Si6 0.210431 0.667640 0.051682
O O1 0.366165 0.366165 0.501892
O O2 0.324907 0.420092 0.711807
O O3 0.238048 0.332917 0.528601
O O4 0.316948 0.441024 0.405937
O O5 0.107477 0.348354 0.062945
O O6 0.066185 0.246454 0.248671
O O7 0.000000 0.232575 0.996663
O O8 0.122950 0.245900 0.000000
O O9 0.574689 0.790311 0.754452
O O10 0.526330 0.837568 0.967195
O O11 0.883458 0.766916 0.500000
O O12 0.787650 0.787650 0.508955
O O13 0.498846 0.249423 0.500000
O O14 0.533638 0.208695 0.760552
O O15 0.285815 0.714186 0.000000
O O16 0.186650 0.593325 0.000000
#
# Coordination Sequence:
#
# PCOD8322996 Si02
#       6
#    12  12  12  12  12  12
#     4   9  16  29  50  73  98 127 160 203 253 304
#     4  10  19  31  48  72 100 129 164 203 246 298
#     4   9  17  32  51  72 100 134 167 205 258 309
#     4   9  17  28  44  67  93 119 149 192 243 290
#     4   9  17  31  52  76 101 130 169 213 258 307
#     4  10  20  35  54  75 101 134 170 214 266 315
#
# _framework density 17.682628000000001
#
# number of rings (size 3 to 8) (size 9 to 14) (size 15 to 20)
#    0.000    2.667    0.000    5.667    0.000    0.667 
#    0.000   13.333    0.000    5.833    0.000    0.000 
#    0.000    0.000    0.000    0.000    0.000    0.000 
#
# Total GULP energy -892154.865680 kJ/mol
# GULP energy per Si atom -12391.039801 kJ/mol
# Density = 1.764238 g / cm^3
# Si number density = 17.682628 Si / 1000 Ang^3
#
#
#
# Elastic Constant Matrix: (Units=GPa)
#
#
# Indices 1 2 3 4 5 6 
#
# 1 84.8255 49.1876 47.4064 -0.0001 5.0111 0.0000
# 2 49.1876 84.8255 47.4064 0.0001 -5.0111 0.0000
# 3 47.4064 47.4064 84.2948 0.0000 0.0000 0.0000
# 4 -0.0001 0.0001 0.0000 22.6093 0.0000 -5.0111
# 5 5.0111 -5.0111 0.0000 0.0000 22.6093 -0.0001
# 6 0.0000 0.0000 0.0000 -5.0111 -0.0001 17.8190
#
#
#
# Elastic Compliance Matrix: (Units=1/GPa)
#
#
# Indices 1 2 3 4 5 6 
#
# 1 0.021159 -0.008766 -0.006970 0.000000 -0.006633 0.000000
# 2 -0.008766 0.021159 -0.006970 0.000000 0.006633 0.000000
# 3 -0.006970 -0.006970 0.019702 0.000000 0.000000 0.000000
# 4 0.000000 0.000000 0.000000 0.047170 0.000000 0.013265
# 5 -0.006633 0.006633 0.000000 0.000000 0.047170 0.000000
# 6 0.000000 0.000000 0.000000 0.013265 0.000000 0.059851
#
#
# Mechanical properties :
#
#
# Convention : Reuss Voigt Hill
#
# Bulk Modulus (GPa) = 60.20577 60.21628 60.21102
# Shear Modulus (GPa) = 18.71552 19.93720 19.32636
#
# Velocity S-wave (km/s) = 3.25685 3.36147 3.30958
# Velocity P-wave (km/s) = 6.94728 7.01383 6.98064
#
# Compressibility (1/GPa) = 0.01660970
#
# Stress axis : x y z
#
# Youngs Moduli (GPa) = 47.26106 47.26106 50.75537
#
# Poissons Ratio (x) = 0.41430 0.35374
# Poissons Ratio (y) = 0.41430 0.35374
# Poissons Ratio (z) = 0.32939 0.32939
#
# Static dielectric constant tensor:
#      x y z
#    x 2.463020 0.000000 0.000000 
#    y 0.000000 2.463020 0.000000 
#    z 0.000000 0.000000 3.540550 
# 
# 
# High freq. dielectric constant tensor:
#      x y z
#    x 1.661620 0.000000 0.000000 
#    y 0.000000 1.661620 0.000000 
#    z 0.000000 0.000000 1.687680 
# 
# From -- ./inp_files/1766.got.cif
#   From: 2010.03.12/outbox.cif.g09.slc.cpg/sg162_1_cif.got.tgz:1766.got - 2010.04.02 06:27:41.
