data_PCOD8322583
_publ_section_title
;
Structure prediction by ZEFSAII (Michael W. Deem and Ramdas Pophale) SiO2 
 PCOD8322583
Probable space group: R 3 2
;
_chemical_formula_sum "Si O2"
_cell_formula_units_Z 63
_cell_length_a 19.675452
_cell_length_b 19.675452
_cell_length_c 9.332259
_cell_angle_alpha 90.000000
_cell_angle_beta 90.000000
_cell_angle_gamma 120.000000
_cell_volume 3128.721101
_symmetry_space_group_name_H-M "R 3 2"
_symmetry_group_IT_number 155
_symmetry_cell_setting 'hexagonal'
loop_
_space_group_symop_operation_xyz
x,y,z
-y,x-y,z
-x+y,-x,z
x-y,-y,-z
-x,-x+y,-z
y,x,-z
2/3+x,1/3+y,1/3+z
2/3-y,1/3+x-y,1/3+z
2/3-x+y,1/3-x,1/3+z
2/3+x-y,1/3-y,1/3-z
2/3-x,1/3-x+y,1/3-z
2/3+y,1/3+x,1/3-z
1/3+x,2/3+y,2/3+z
1/3-y,2/3+x-y,2/3+z
1/3-x+y,2/3-x,2/3+z
1/3+x-y,2/3-y,2/3-z
1/3-x,2/3-x+y,2/3-z
1/3+y,2/3+x,2/3-z
loop_
_atom_site_type_symbol
_atom_site_label
_atom_site_fract_x
_atom_site_fract_y
_atom_site_fract_z
Si Si1 0.240643 0.757847 0.688568
Si Si2 0.178258 0.956610 0.704975
Si Si3 0.246053 0.579386 0.166667
Si Si4 0.974466 0.445419 0.150565
O O1 0.204941 0.666667 0.666667
O O2 0.333334 0.798823 0.666667
O O3 0.227117 0.785817 0.844737
O O4 0.198126 0.783760 0.571170
O O5 0.134319 0.001014 0.641653
O O6 0.199049 0.917005 0.575864
O O7 0.259441 0.018749 0.782091
O O8 0.333334 0.589119 0.166667
O O9 0.000000 0.492550 0.000000
#
# Coordination Sequence:
#
# PCOD8322583 Si02
#       4
#    18  18   9  18
#     4  10  24  39  63  94 128 166 215 273 332 390
#     4  11  23  40  64  98 133 172 210 274 323 393
#     4  10  24  38  66  98 134 168 216 266 328 386
#     4  11  22  40  61  95 128 170 214 263 329 386
#
# _framework density 20.136023000000002
#
# number of rings (size 3 to 8) (size 9 to 14) (size 15 to 20)
#    0.286    1.143    2.857    1.143    8.000   10.286 
#    0.000    0.000    0.000   10.286    0.000    0.000 
#    0.000    0.000    0.000    0.000    0.000    0.000 
#
# Total GULP energy -260294.304877 kJ/mol
# GULP energy per Si atom -12394.966899 kJ/mol
# Density = 2.009019 g / cm^3
# Si number density = 20.136023 Si / 1000 Ang^3
#
#
#
# Elastic Constant Matrix: (Units=GPa)
#
#
# Indices 1 2 3 4 5 6 
#
# 1 99.5378 42.7495 56.7947 -1.8554 -0.0008 0.0000
# 2 42.7495 99.5378 56.7947 1.8556 0.0011 0.0000
# 3 56.7947 56.7947 171.3391 0.0004 0.0007 0.0000
# 4 -1.8554 1.8556 0.0004 27.9469 0.0004 0.0010
# 5 -0.0008 0.0011 0.0007 0.0004 27.9472 -1.8554
# 6 0.0000 0.0000 0.0000 0.0010 -1.8554 28.3942
#
#
#
# Elastic Compliance Matrix: (Units=1/GPa)
#
#
# Indices 1 2 3 4 5 6 
#
# 1 0.013621 -0.004064 -0.003168 0.001174 0.000001 0.000000
# 2 -0.004064 0.013621 -0.003168 -0.001174 -0.000001 0.000000
# 3 -0.003168 -0.003168 0.007937 0.000000 0.000000 0.000000
# 4 0.001174 -0.001174 0.000000 0.035938 0.000000 -0.000001
# 5 0.000001 -0.000001 0.000000 0.000000 0.035938 0.002348
# 6 0.000000 0.000000 0.000000 -0.000001 0.002348 0.035372
#
#
# Mechanical properties :
#
#
# Convention : Reuss Voigt Hill
#
# Bulk Modulus (GPa) = 69.54627 75.89917 72.72272
# Shear Modulus (GPa) = 29.75823 31.12939 30.44381
#
# Velocity S-wave (km/s) = 3.84847 3.93613 3.89254
# Velocity P-wave (km/s) = 7.37298 7.64412 7.50977
#
# Compressibility (1/GPa) = 0.01437892
#
# Stress axis : x y z
#
# Youngs Moduli (GPa) = 73.41341 73.41339 125.99940
#
# Poissons Ratio (x) = 0.29839 0.39916
# Poissons Ratio (y) = 0.29839 0.39915
# Poissons Ratio (z) = 0.23257 0.23257
#
# Static dielectric constant tensor:
#      x y z
#    x 3.507860 0.000000 0.000000 
#    y 0.000000 3.507860 0.000000 
#    z 0.000000 0.000000 4.259450 
# 
# 
# High freq. dielectric constant tensor:
#      x y z
#    x 1.761280 0.000000 0.000000 
#    y 0.000000 1.761280 0.000000 
#    z 0.000000 0.000000 1.818620 
# 
# From -- ./inp_files/2005.got.cif
#   From: 2010.03.12/outbox.cif.g09.slc.cpg/sg155_2_cif.got.tgz:2005.got - 2010.04.03 13:54:13.
