data_PCOD8322532
_publ_section_title
;
Structure prediction by ZEFSAII (Michael W. Deem and Ramdas Pophale) SiO2 
 PCOD8322532
Probable space group: R 3 2
;
_chemical_formula_sum "Si O2"
_cell_formula_units_Z 114
_cell_length_a 20.384614
_cell_length_b 20.384614
_cell_length_c 15.510373
_cell_angle_alpha 90.000000
_cell_angle_beta 90.000000
_cell_angle_gamma 120.000000
_cell_volume 5581.589050
_symmetry_space_group_name_H-M "R 3 2"
_symmetry_group_IT_number 155
_symmetry_cell_setting 'hexagonal'
loop_
_space_group_symop_operation_xyz
x,y,z
-y,x-y,z
-x+y,-x,z
x-y,-y,-z
-x,-x+y,-z
y,x,-z
2/3+x,1/3+y,1/3+z
2/3-y,1/3+x-y,1/3+z
2/3-x+y,1/3-x,1/3+z
2/3+x-y,1/3-y,1/3-z
2/3-x,1/3-x+y,1/3-z
2/3+y,1/3+x,1/3-z
1/3+x,2/3+y,2/3+z
1/3-y,2/3+x-y,2/3+z
1/3-x+y,2/3-x,2/3+z
1/3+x-y,2/3-y,2/3-z
1/3-x,2/3-x+y,2/3-z
1/3+y,2/3+x,2/3-z
loop_
_atom_site_type_symbol
_atom_site_label
_atom_site_fract_x
_atom_site_fract_y
_atom_site_fract_z
Si Si1 0.475170 0.667316 0.998808
Si Si2 0.223766 0.167712 0.295866
Si Si3 0.917867 0.584534 0.333334
Si Si4 0.185337 0.784045 0.396632
Si Si5 0.333334 0.666668 0.066540
Si Si6 0.166801 0.311825 0.076721
Si Si7 0.736606 0.069939 0.166667
Si Si8 0.730194 0.708660 0.404208
O O1 0.392374 0.638812 0.039484
O O2 0.539993 0.676676 0.066635
O O3 0.495438 0.746229 0.953900
O O4 0.472552 0.606512 0.930247
O O5 0.191731 0.224593 0.306930
O O6 0.276590 0.182712 0.379067
O O7 0.267798 0.184196 0.204782
O O8 0.836767 0.578427 0.354488
O O9 0.957617 0.636070 0.247928
O O10 0.173110 0.839777 0.333334
O O11 0.156747 0.791712 0.489581
O O12 0.333334 0.666668 0.166667
O O13 0.090510 0.313696 0.055834
O O14 0.695669 0.695669 0.500000
O O15 0.666667 0.694440 0.333334
#
# Coordination Sequence:
#
# PCOD8322532 Si02
#       8
#    18  18   9  18   6  18   9  18
#     4  11  23  45  62  95 133 176 225 275 339 413
#     4  10  23  40  65  93 133 174 218 271 338 402
#     4  10  20  38  60  88 136 162 218 268 334 396
#     4  12  24  40  68  98 131 175 220 287 335 396
#     4  12  24  39  66  93 132 178 224 277 336 417
#     4  10  23  40  59  97 132 169 223 272 336 404
#     4  10  20  38  64  94 128 174 208 280 324 396
#     4  11  23  45  67  95 133 177 227 283 341 413
#
# _framework density 20.424291
#
# number of rings (size 3 to 8) (size 9 to 14) (size 15 to 20)
#    0.000    1.263    3.158    2.842    4.421    1.895 
#   21.316    0.000    0.000    0.000    0.000    0.000 
#    0.789    0.000    0.000    0.000    0.000    0.000 
#
# Total GULP energy -470770.578661 kJ/mol
# GULP energy per Si atom -12388.699438 kJ/mol
# Density = 2.037780 g / cm^3
# Si number density = 20.424291 Si / 1000 Ang^3
#
#
#
# Elastic Constant Matrix: (Units=GPa)
#
#
# Indices 1 2 3 4 5 6 
#
# 1 116.5777 45.5639 44.0242 4.2831 0.0011 -0.0002
# 2 45.5639 116.5787 44.0246 -4.2831 -0.0007 -0.0002
# 3 44.0242 44.0246 133.3526 0.0001 0.0001 -0.0001
# 4 4.2831 -4.2831 0.0001 19.5261 -0.0001 -0.0009
# 5 0.0011 -0.0007 0.0001 -0.0001 19.5257 4.2836
# 6 -0.0002 -0.0002 -0.0001 -0.0009 4.2836 35.5067
#
#
#
# Elastic Compliance Matrix: (Units=1/GPa)
#
#
# Indices 1 2 3 4 5 6 
#
# 1 0.010990 -0.003475 -0.002481 -0.003173 -0.000001 0.000000
# 2 -0.003475 0.010989 -0.002481 0.003173 0.000001 0.000000
# 3 -0.002481 -0.002481 0.009137 0.000000 0.000000 0.000000
# 4 -0.003173 0.003173 0.000000 0.052605 0.000000 0.000001
# 5 -0.000001 0.000001 0.000000 0.000000 0.052607 -0.006347
# 6 0.000000 0.000000 0.000000 0.000001 -0.006347 0.028929
#
#
# Mechanical properties :
#
#
# Convention : Reuss Voigt Hill
#
# Bulk Modulus (GPa) = 70.21087 70.41494 70.31290
# Shear Modulus (GPa) = 26.75537 30.43812 28.59675
#
# Velocity S-wave (km/s) = 3.62329 3.86462 3.74590
# Velocity P-wave (km/s) = 7.20799 7.38001 7.29451
#
# Compressibility (1/GPa) = 0.01424281
#
# Stress axis : x y z
#
# Youngs Moduli (GPa) = 90.99561 90.99625 109.44579
#
# Poissons Ratio (x) = 0.31620 0.27152
# Poissons Ratio (y) = 0.31620 0.27152
# Poissons Ratio (z) = 0.22574 0.22575
#
# Static dielectric constant tensor:
#      x y z
#    x 4.184020 -0.000020 0.000000 
#    y -0.000020 4.184030 -0.000020 
#    z 0.000000 -0.000020 3.584880 
# 
# 
# High freq. dielectric constant tensor:
#      x y z
#    x 1.798550 0.000000 0.000000 
#    y 0.000000 1.798550 0.000000 
#    z 0.000000 0.000000 1.785420 
# 
# From -- ./inp_files/5256.got.cif
#   From: 2010.03.12/outbox.cif.g09.slc.cpg/sg155_3_cif.got.tgz:5256.got - 2010.04.03 13:54:13.
