data_PCOD8322482
_publ_section_title
;
Structure prediction by ZEFSAII (Michael W. Deem and Ramdas Pophale) SiO2 
 PCOD8322482
Probable space group: R 3 2
;
_chemical_formula_sum "Si O2"
_cell_formula_units_Z 144
_cell_length_a 23.065721
_cell_length_b 23.065721
_cell_length_c 18.717121
_cell_angle_alpha 90.000000
_cell_angle_beta 90.000000
_cell_angle_gamma 120.000000
_cell_volume 8623.900731
_symmetry_space_group_name_H-M "R 3 2"
_symmetry_group_IT_number 155
_symmetry_cell_setting 'hexagonal'
loop_
_space_group_symop_operation_xyz
x,y,z
-y,x-y,z
-x+y,-x,z
x-y,-y,-z
-x,-x+y,-z
y,x,-z
2/3+x,1/3+y,1/3+z
2/3-y,1/3+x-y,1/3+z
2/3-x+y,1/3-x,1/3+z
2/3+x-y,1/3-y,1/3-z
2/3-x,1/3-x+y,1/3-z
2/3+y,1/3+x,1/3-z
1/3+x,2/3+y,2/3+z
1/3-y,2/3+x-y,2/3+z
1/3-x+y,2/3-x,2/3+z
1/3+x-y,2/3-y,2/3-z
1/3-x,2/3-x+y,2/3-z
1/3+y,2/3+x,2/3-z
loop_
_atom_site_type_symbol
_atom_site_label
_atom_site_fract_x
_atom_site_fract_y
_atom_site_fract_z
Si Si1 0.862392 0.243711 0.476805
Si Si2 0.066935 0.458403 0.465275
Si Si3 0.406442 0.586295 0.023250
Si Si4 0.207710 0.935040 0.632470
Si Si5 0.258638 0.522029 0.025224
Si Si6 0.067266 0.141402 0.806410
Si Si7 0.154357 0.081945 0.814441
Si Si8 0.616223 0.752651 0.267983
O O1 0.908627 0.320836 0.497264
O O2 0.882468 0.228674 0.398562
O O3 0.784748 0.225080 0.480433
O O4 0.876534 0.198104 0.530214
O O5 0.056259 0.439816 0.382090
O O6 0.115218 0.536281 0.481677
O O7 0.000000 0.447192 0.500000
O O8 0.331635 0.541109 0.055486
O O9 0.432186 0.661062 0.053476
O O10 0.452804 0.559120 0.055224
O O11 0.414654 0.584586 0.937594
O O12 0.127560 0.905185 0.625128
O O13 0.248589 0.005782 0.591796
O O14 0.273831 0.541912 0.942892
O O15 0.123377 0.127539 0.841416
O O16 0.993588 0.095223 0.839836
O O17 0.666667 0.777211 0.333334
#
# Coordination Sequence:
#
# PCOD8322482 Si02
#       8
#    18  18  18  18  18  18  18  18
#     4  11  20  29  47  71  98 128 154 192 240 283
#     4  10  19  31  48  70  94 124 156 187 235 289
#     4   9  15  26  47  66  95 123 162 199 228 279
#     4  10  20  31  45  69 101 124 153 197 238 282
#     4   8  15  27  43  68  92 122 156 193 237 263
#     4   8  15  26  45  69  93 116 147 195 232 276
#     4   9  15  27  45  72  93 119 154 194 242 280
#     4  11  17  29  44  69  99 126 157 190 231 280
#
# _framework density 16.697780000000002
#
# number of rings (size 3 to 8) (size 9 to 14) (size 15 to 20)
#    0.000    2.500    2.500    3.125    0.000    2.000 
#    0.000    0.625    0.000    2.250    0.000    1.750 
#    0.000    2.000    0.000    0.000    0.000    0.000 
#
# Total GULP energy -594858.811829 kJ/mol
# GULP energy per Si atom -12392.891913 kJ/mol
# Density = 1.665978 g / cm^3
# Si number density = 16.697780 Si / 1000 Ang^3
#
#
#
# Elastic Constant Matrix: (Units=GPa)
#
#
# Indices 1 2 3 4 5 6 
#
# 1 114.3803 57.5652 26.8424 -0.4921 0.0001 0.0000
# 2 57.5652 114.3803 26.8424 0.4921 -0.0001 0.0000
# 3 26.8424 26.8424 24.5972 0.0000 0.0000 0.0000
# 4 -0.4921 0.4921 0.0000 19.6687 0.0000 -0.0001
# 5 0.0001 -0.0001 0.0000 0.0000 19.6687 -0.4921
# 6 0.0000 0.0000 0.0000 -0.0001 -0.4921 28.4075
#
#
#
# Elastic Compliance Matrix: (Units=1/GPa)
#
#
# Indices 1 2 3 4 5 6 
#
# 1 0.013215 -0.004394 -0.009627 0.000441 0.000000 0.000000
# 2 -0.004394 0.013215 -0.009627 -0.000441 0.000000 0.000000
# 3 -0.009627 -0.009627 0.061666 0.000000 0.000000 0.000000
# 4 0.000441 -0.000441 0.000000 0.050864 0.000000 0.000000
# 5 0.000000 0.000000 0.000000 0.000000 0.050864 0.000881
# 6 0.000000 0.000000 0.000000 0.000000 0.000881 0.035217
#
#
# Mechanical properties :
#
#
# Convention : Reuss Voigt Hill
#
# Bulk Modulus (GPa) = 24.50858 52.87308 38.69083
# Shear Modulus (GPa) = 17.48645 23.02284 20.25464
#
# Velocity S-wave (km/s) = 3.23961 3.71724 3.48661
# Velocity P-wave (km/s) = 5.35752 7.08218 6.27935
#
# Compressibility (1/GPa) = 0.04080203
#
# Stress axis : x y z
#
# Youngs Moduli (GPa) = 75.67155 75.67155 16.21647
#
# Poissons Ratio (x) = 0.33247 0.15611
# Poissons Ratio (y) = 0.33247 0.15611
# Poissons Ratio (z) = 0.72846 0.72846
#
# Static dielectric constant tensor:
#      x y z
#    x 3.236340 0.000000 0.000000 
#    y 0.000000 3.236340 0.000000 
#    z 0.000000 0.000000 2.837000 
# 
# 
# High freq. dielectric constant tensor:
#      x y z
#    x 1.637220 0.000000 0.000000 
#    y 0.000000 1.637220 0.000000 
#    z 0.000000 0.000000 1.603710 
# 
# From -- ./inp_files/6374.got.cif
#   From: 2010.03.12/outbox.cif.g09.slc.cpg/sg155_4_cif.got.tgz:6374.got - 2010.04.03 13:54:13.
