data_PCOD8322937
_publ_section_title
;
Structure prediction by ZEFSAII (Michael W. Deem and Ramdas Pophale) SiO2 
 PCOD8322937
Probable space group: P -3 1 M 
;
_chemical_formula_sum "Si O2"
_cell_formula_units_Z 96
_cell_length_a 18.014290
_cell_length_b 18.014290
_cell_length_c 20.608511
_cell_angle_alpha 90.000000
_cell_angle_beta 90.000000
_cell_angle_gamma 120.000000
_cell_volume 5791.773185
_symmetry_space_group_name_H-M "P -3 1 M "
_symmetry_group_IT_number 162
_symmetry_cell_setting 'hexagonal'
loop_
_space_group_symop_operation_xyz
x,y,z
-y,x-y,z
-x+y,-x,z
-y,-x,-z
-x+y,y,-z
x,x-y,-z
-x,-y,-z
y,-x+y,-z
x-y,x,-z
y,x,z
x-y,-y,z
-x,-x+y,z
loop_
_atom_site_type_symbol
_atom_site_label
_atom_site_fract_x
_atom_site_fract_y
_atom_site_fract_z
Si Si1 0.165845 0.669138 0.231285
Si Si2 0.100798 0.467381 0.000000
Si Si3 0.498306 0.167628 0.500000
Si Si4 0.098727 0.732138 0.879278
Si Si5 0.635505 0.095131 0.367407
Si Si6 0.904869 0.364495 0.367407
Si Si7 0.366590 0.098727 0.879279
Si Si8 0.834155 0.503293 0.768715
O O1 0.151611 0.686778 0.305675
O O2 0.103633 0.687141 0.186643
O O3 0.144580 0.572290 0.219720
O O4 0.264828 0.735172 0.213883
O O5 0.129540 0.693351 0.936816
O O6 0.129540 0.436189 0.936816
O O7 0.000000 0.426322 0.000000
O O8 0.142610 0.571305 0.000000
O O9 0.571839 0.143677 0.500000
O O10 0.539429 0.269715 0.500000
O O11 0.441680 0.129889 0.565311
O O12 0.441680 0.129888 0.434689
O O13 0.164572 0.835428 0.877348
O O14 0.103634 0.687142 0.813357
O O15 0.000000 0.710743 0.888460
O O16 0.548197 0.096394 0.374366
O O17 0.618300 0.000000 0.355666
O O18 0.848389 0.313221 0.305675
O O19 0.000000 0.381700 0.355666
O O20 0.289257 0.000000 0.888460
#
# Coordination Sequence:
#
# PCOD8322937 Si02
#       8
#    12  12  12  12  12  12  12  12
#     4  10  19  30  45  66  92 120 150 185 225 269
#     4   9  17  30  49  72  96 122 152 183 217 262
#     4  10  18  27  39  55  76 101 132 174 223 270
#     4  10  20  33  50  71  94 122 156 194 234 276
#     4   9  17  28  41  56  76 106 143 179 215 260
#     4   9  17  28  41  56  76 106 143 179 215 260
#     4  10  20  33  50  71  94 122 156 194 234 276
#     4  10  19  30  45  66  92 120 150 185 225 269
#
# _framework density 16.575234999999999
#
# number of rings (size 3 to 8) (size 9 to 14) (size 15 to 20)
#    0.000    2.375    0.000    3.375    0.000    4.000 
#    0.000    2.500    0.000    3.750    0.000    0.000 
#    0.000    3.000    0.000    0.000    0.000    0.000 
#
# Total GULP energy -1189832.211391 kJ/mol
# GULP energy per Si atom -12394.085535 kJ/mol
# Density = 1.653751 g / cm^3
# Si number density = 16.575235 Si / 1000 Ang^3
#
#
#
# Elastic Constant Matrix: (Units=GPa)
#
#
# Indices 1 2 3 4 5 6 
#
# 1 67.4954 36.3935 26.0178 0.0000 0.0000 0.0000
# 2 36.3935 67.4954 26.0178 0.0000 0.0000 0.0000
# 3 26.0178 26.0178 108.4526 0.0000 0.0000 0.0000
# 4 0.0000 0.0000 0.0000 19.2156 0.0000 0.0000
# 5 0.0000 0.0000 0.0000 0.0000 19.2156 0.0000
# 6 0.0000 0.0000 0.0000 0.0000 0.0000 15.5510
#
#
#
# Elastic Compliance Matrix: (Units=1/GPa)
#
#
# Indices 1 2 3 4 5 6 
#
# 1 0.021546 -0.010606 -0.002625 0.000000 0.000000 0.000000
# 2 -0.010606 0.021546 -0.002625 0.000000 0.000000 0.000000
# 3 -0.002625 -0.002625 0.010480 0.000000 0.000000 0.000000
# 4 0.000000 0.000000 0.000000 0.052041 0.000000 0.000000
# 5 0.000000 0.000000 0.000000 0.000000 0.052041 0.000000
# 6 0.000000 0.000000 0.000000 0.000000 0.000000 0.064305
#
#
# Mechanical properties :
#
#
# Convention : Reuss Voigt Hill
#
# Bulk Modulus (GPa) = 45.74121 46.70017 46.22069
# Shear Modulus (GPa) = 19.16024 21.13073 20.14548
#
# Velocity S-wave (km/s) = 3.40362 3.57436 3.49004
# Velocity P-wave (km/s) = 6.56523 6.72834 6.64728
#
# Compressibility (1/GPa) = 0.02186212
#
# Stress axis : x y z
#
# Youngs Moduli (GPa) = 46.41170 46.41170 95.42097
#
# Poissons Ratio (x) = 0.49224 0.25044
# Poissons Ratio (y) = 0.49224 0.25044
# Poissons Ratio (z) = 0.12181 0.12181
#
# Static dielectric constant tensor:
#      x y z
#    x 2.871900 0.000000 0.000000 
#    y 0.000000 2.871900 0.000000 
#    z 0.000000 0.000000 3.484890 
# 
# 
# High freq. dielectric constant tensor:
#      x y z
#    x 1.604560 0.000000 0.000000 
#    y 0.000000 1.604560 0.000000 
#    z 0.000000 0.000000 1.664340 
# 
# From -- ./inp_files/4012.got.cif
#   From: 2010.03.12/outbox.cif.g09.slc.cpg/sg162_3_cif.got.tgz:4012.got - 2010.04.02 06:27:41.
