data_PCOD8322575
_publ_section_title
;
Structure prediction by ZEFSAII (Michael W. Deem and Ramdas Pophale) SiO2 
 PCOD8322575
Probable space group: R 3 2
;
_chemical_formula_sum "Si O2"
_cell_formula_units_Z 93
_cell_length_a 13.438847
_cell_length_b 13.438847
_cell_length_c 28.253069
_cell_angle_alpha 90.000000
_cell_angle_beta 90.000000
_cell_angle_gamma 120.000000
_cell_volume 4418.962142
_symmetry_space_group_name_H-M "R 3 2"
_symmetry_group_IT_number 155
_symmetry_cell_setting 'hexagonal'
loop_
_space_group_symop_operation_xyz
x,y,z
-y,x-y,z
-x+y,-x,z
x-y,-y,-z
-x,-x+y,-z
y,x,-z
2/3+x,1/3+y,1/3+z
2/3-y,1/3+x-y,1/3+z
2/3-x+y,1/3-x,1/3+z
2/3+x-y,1/3-y,1/3-z
2/3-x,1/3-x+y,1/3-z
2/3+y,1/3+x,1/3-z
1/3+x,2/3+y,2/3+z
1/3-y,2/3+x-y,2/3+z
1/3-x+y,2/3-x,2/3+z
1/3+x-y,2/3-y,2/3-z
1/3-x,2/3-x+y,2/3-z
1/3+y,2/3+x,2/3-z
loop_
_atom_site_type_symbol
_atom_site_label
_atom_site_fract_x
_atom_site_fract_y
_atom_site_fract_z
Si Si1 0.000000 0.000000 0.436311
Si Si2 0.804081 0.133215 0.941460
Si Si3 0.977917 0.212391 0.310284
Si Si4 0.001911 0.347464 0.113706
Si Si5 0.540070 0.333334 0.333334
Si Si6 0.666668 0.333334 0.009222
Si Si7 0.723421 0.143423 0.786971
O O1 0.000000 0.000000 0.380169
O O2 0.883084 0.976413 0.457985
O O3 0.883879 0.226169 0.901362
O O4 0.822521 0.024885 0.952241
O O5 0.671532 0.072028 0.925921
O O6 0.821540 0.196902 0.991494
O O7 0.074781 0.333334 0.333334
O O8 0.943219 0.236006 0.258130
O O9 0.025284 0.124080 0.305670
O O10 0.963313 0.296646 0.166667
O O11 0.013984 0.473381 0.114523
O O12 0.552603 0.219270 0.333334
O O13 0.666667 0.061586 0.833334
#
# Coordination Sequence:
#
# PCOD8322575 Si02
#       7
#     6  18  18  18   9   6  18
#     4  12  16  31  54  93 138 183 204 256 328 430
#     4  11  22  40  67 100 130 174 235 284 341 400
#     4  10  23  38  64  96 137 178 227 283 352 412
#     4  11  21  39  64  96 144 179 218 284 347 407
#     4  10  24  46  74  92 118 180 252 292 316 392
#     4  12  21  40  64  93 141 186 232 274 360 418
#     4  12  20  33  60 103 141 176 215 269 351 424
#
# _framework density 21.045665
#
# number of rings (size 3 to 8) (size 9 to 14) (size 15 to 20)
#    0.194    0.774    5.806    3.484    0.000    1.548 
#    0.000    0.000    8.516    1.161    0.000    0.000 
#    0.000    0.000    0.000    0.000    0.000    0.000 
#
# Total GULP energy -384040.545548 kJ/mol
# GULP energy per Si atom -12388.404695 kJ/mol
# Density = 2.099776 g / cm^3
# Si number density = 21.045665 Si / 1000 Ang^3
#
#
#
# Elastic Constant Matrix: (Units=GPa)
#
#
# Indices 1 2 3 4 5 6 
#
# 1 161.9630 -53.1795 37.0010 -19.2126 0.0022 0.0000
# 2 -53.1795 161.9653 36.9987 19.2131 -0.0022 0.0000
# 3 37.0010 36.9987 164.4349 -0.0003 0.0000 0.0000
# 4 -19.2126 19.2131 -0.0003 31.2911 0.0000 -0.0022
# 5 0.0022 -0.0022 0.0000 0.0000 31.2891 -19.2071
# 6 0.0000 0.0000 0.0000 -0.0022 -19.2071 107.5570
#
#
#
# Elastic Compliance Matrix: (Units=1/GPa)
#
#
# Indices 1 2 3 4 5 6 
#
# 1 0.008037 0.002817 -0.002442 0.003205 0.000000 0.000000
# 2 0.002817 0.008037 -0.002442 -0.003206 0.000000 0.000000
# 3 -0.002442 -0.002442 0.007180 0.000000 0.000000 0.000000
# 4 0.003205 -0.003206 0.000000 0.035894 0.000000 0.000001
# 5 0.000000 0.000000 0.000000 0.000000 0.035895 0.006410
# 6 0.000000 0.000000 0.000000 0.000001 0.006410 0.010442
#
#
# Mechanical properties :
#
#
# Convention : Reuss Voigt Hill
#
# Bulk Modulus (GPa) = 52.30366 58.88930 55.59648
# Shear Modulus (GPa) = 43.10540 65.19698 54.15119
#
# Velocity S-wave (km/s) = 4.53060 5.57190 5.07801
# Velocity P-wave (km/s) = 7.23013 8.33290 7.80103
#
# Compressibility (1/GPa) = 0.01911912
#
# Stress axis : x y z
#
# Youngs Moduli (GPa) = 124.42080 124.42301 139.26617
#
# Poissons Ratio (x) = -0.35045 0.34013
# Poissons Ratio (y) = -0.35044 0.34011
# Poissons Ratio (z) = 0.30387 0.30386
#
# Static dielectric constant tensor:
#      x y z
#    x 3.690900 0.000000 0.000000 
#    y 0.000000 3.690930 0.000000 
#    z 0.000000 0.000000 4.024460 
# 
# 
# High freq. dielectric constant tensor:
#      x y z
#    x 1.804180 0.000000 0.000000 
#    y 0.000000 1.804180 0.000000 
#    z 0.000000 0.000000 1.826770 
# 
# From -- ./inp_files/8403.got.cif
#   From: 2010.03.12/outbox.cif.g09.slc.cpg/sg155_5_cif.got.tgz:8403.got - 2010.04.03 13:54:13.
