data_PCOD8322812
_publ_section_title
;
Structure prediction by ZEFSAII (Michael W. Deem and Ramdas Pophale) SiO2 
 PCOD8322812
Probable space group: P 3 1 C
;
_chemical_formula_sum "Si O2"
_cell_formula_units_Z 42
_cell_length_a 8.554314
_cell_length_b 8.554314
_cell_length_c 28.785203
_cell_angle_alpha 90.000000
_cell_angle_beta 90.000000
_cell_angle_gamma 120.000000
_cell_volume 1824.190979
_symmetry_space_group_name_H-M "P 3 1 C"
_symmetry_group_IT_number 159
_symmetry_cell_setting 'hexagonal'
loop_
_space_group_symop_operation_xyz
x,y,z
-y,x-y,z
-x+y,-x,z
y,x,1/2+z
x-y,-y,1/2+z
-x,-x+y,1/2+z
loop_
_atom_site_type_symbol
_atom_site_label
_atom_site_fract_x
_atom_site_fract_y
_atom_site_fract_z
Si Si1 0.976149 0.657744 0.723830
Si Si2 0.346114 0.019078 0.365308
Si Si3 0.653039 0.677070 0.759683
Si Si4 0.030721 0.694299 0.399623
Si Si5 0.231809 0.115958 0.992044
Si Si6 0.019745 0.674014 0.118492
Si Si7 0.969044 0.305882 0.084368
O O1 0.805963 0.620659 0.755288
O O2 0.055805 0.531811 0.738303
O O3 0.906426 0.609549 0.670804
O O4 0.136881 0.861950 0.731515
O O5 0.287833 0.140889 0.395127
O O6 0.392883 0.091270 0.312914
O O7 0.176478 0.816651 0.360789
O O8 0.512749 0.024826 0.392582
O O9 0.142513 0.785093 0.447447
O O10 0.102563 0.205260 0.992052
O O11 0.358106 0.143074 0.036566
O O12 0.026337 0.512671 0.091638
O O13 0.816311 0.638798 0.123142
O O14 0.140594 0.853662 0.088399
#
# Coordination Sequence:
#
# PCOD8322812 Si02
#       7
#     6   6   6   6   6   6   6
#     4  12  25  43  67 100 143 191 241 295 347 411
#     4  12  24  44  70 103 141 190 240 288 354 419
#     4  12  25  43  67 100 143 191 241 295 347 411
#     4  12  25  45  73 105 142 184 234 293 353 425
#     4  10  20  48  72 100 132 168 216 284 354 402
#     4  12  24  44  70 103 141 190 240 288 354 419
#     4  12  25  45  73 105 142 184 234 293 353 425
#
# _framework density 23.023904000000002
#
# number of rings (size 3 to 8) (size 9 to 14) (size 15 to 20)
#    0.286    0.000    2.857    7.714    0.000    1.143 
#    0.000    0.000    0.000    0.000    0.000    0.000 
#    0.000    0.000    0.000    0.000    0.000    0.000 
#
# Total GULP energy -520757.653585 kJ/mol
# GULP energy per Si atom -12398.991752 kJ/mol
# Density = 2.297150 g / cm^3
# Si number density = 23.023904 Si / 1000 Ang^3
#
#
#
# Elastic Constant Matrix: (Units=GPa)
#
#
# Indices 1 2 3 4 5 6 
#
# 1 106.4691 17.8401 34.0989 0.0000 6.0355 0.0000
# 2 17.8401 106.4691 34.0989 0.0000 -6.0355 0.0000
# 3 34.0989 34.0989 154.1845 0.0000 0.0000 0.0000
# 4 0.0000 0.0000 0.0000 35.1346 0.0000 -6.0355
# 5 6.0355 -6.0355 0.0000 0.0000 35.1346 0.0000
# 6 0.0000 0.0000 0.0000 -6.0355 0.0000 44.3145
#
#
#
# Elastic Compliance Matrix: (Units=1/GPa)
#
#
# Indices 1 2 3 4 5 6 
#
# 1 0.010354 -0.001199 -0.002025 0.000000 -0.001985 0.000000
# 2 -0.001199 0.010354 -0.002025 0.000000 0.001985 0.000000
# 3 -0.002025 -0.002025 0.007381 0.000000 0.000000 0.000000
# 4 0.000000 0.000000 0.000000 0.029144 0.000000 0.003969
# 5 -0.001985 0.001985 0.000000 0.000000 0.029144 0.000000
# 6 0.000000 0.000000 0.000000 0.003969 0.000000 0.023107
#
#
# Mechanical properties :
#
#
# Convention : Reuss Voigt Hill
#
# Bulk Modulus (GPa) = 56.84126 59.91093 58.37609
# Shear Modulus (GPa) = 39.73128 41.65573 40.69350
#
# Velocity S-wave (km/s) = 4.15861 4.25813 4.20866
# Velocity P-wave (km/s) = 6.91377 7.08895 7.00191
#
# Compressibility (1/GPa) = 0.01759285
#
# Stress axis : x y z
#
# Youngs Moduli (GPa) = 96.57845 96.57845 135.47742
#
# Poissons Ratio (x) = 0.11580 0.27431
# Poissons Ratio (y) = 0.11580 0.27431
# Poissons Ratio (z) = 0.19555 0.19555
#
# Static dielectric constant tensor:
#      x y z
#    x 3.949330 0.000000 0.000000 
#    y 0.000000 3.949330 0.000000 
#    z 0.000000 0.000000 4.079950 
# 
# 
# High freq. dielectric constant tensor:
#      x y z
#    x 1.906790 0.000000 0.000000 
#    y 0.000000 1.906790 0.000000 
#    z 0.000000 0.000000 1.914500 
# 
# From -- ./inp_files/1302.got.cif
#   From: 2010.03.12/outbox.cif.g09.slc.cpg/sg159_cif.got.tgz:1302.got - 2010.04.03 14:00:19.
