data_PCOD8322999
_publ_section_title
;
Structure prediction by ZEFSAII (Michael W. Deem and Ramdas Pophale) SiO2 
 PCOD8322999
Probable space group: P -3 1 M 
;
_chemical_formula_sum "Si O2"
_cell_formula_units_Z 60
_cell_length_a 17.863438
_cell_length_b 17.863438
_cell_length_c 12.770915
_cell_angle_alpha 90.000000
_cell_angle_beta 90.000000
_cell_angle_gamma 120.000000
_cell_volume 3529.252573
_symmetry_space_group_name_H-M "P -3 1 M "
_symmetry_group_IT_number 162
_symmetry_cell_setting 'hexagonal'
loop_
_space_group_symop_operation_xyz
x,y,z
-y,x-y,z
-x+y,-x,z
-y,-x,-z
-x+y,y,-z
x,x-y,-z
-x,-y,-z
y,-x+y,-z
x-y,x,-z
y,x,z
x-y,-y,z
-x,-x+y,z
loop_
_atom_site_type_symbol
_atom_site_label
_atom_site_fract_x
_atom_site_fract_y
_atom_site_fract_z
Si Si1 0.633299 0.531860 0.197213
Si Si2 0.468257 0.366906 0.197204
Si Si3 0.097529 0.736780 0.380468
Si Si4 0.101631 0.732845 0.998397
Si Si5 0.263728 0.360827 0.617748
O O1 0.572699 0.572699 0.188112
O O2 0.572639 0.427476 0.190345
O O3 0.683941 0.556734 0.307326
O O4 0.700167 0.568699 0.101894
O O5 0.429072 0.429072 0.200059
O O6 0.443069 0.312088 0.304397
O O7 0.430916 0.304321 0.098326
O O8 0.101523 0.707805 0.499019
O O9 0.160862 0.839806 0.367205
O O10 0.000000 0.714057 0.351295
O O11 0.000000 0.705120 0.996424
O O12 0.162237 0.837764 0.000000
O O13 0.285158 0.285158 0.646069
#
# Coordination Sequence:
#
# PCOD8322999 Si02
#       5
#    12  12  12  12  12
#     4   9  17  29  46  67  88 112 146 188 231 274
#     4   9  17  29  46  67  88 112 146 188 231 274
#     4   9  17  29  46  68  93 122 157 195 232 271
#     4  10  19  31  49  72  97 125 158 194 229 267
#     4   9  17  29  46  68  93 122 157 195 232 271
#
# _framework density 17.000765999999999
#
# number of rings (size 3 to 8) (size 9 to 14) (size 15 to 20)
#    0.000    2.800    0.000    1.800    0.000    3.200 
#    0.000    4.000    0.000   11.800    0.000    2.800 
#    0.000    9.600    0.000    0.400    0.000    0.800 
#
# Total GULP energy -743526.739352 kJ/mol
# GULP energy per Si atom -12392.112323 kJ/mol
# Density = 1.696207 g / cm^3
# Si number density = 17.000766 Si / 1000 Ang^3
#
#
#
# Elastic Constant Matrix: (Units=GPa)
#
#
# Indices 1 2 3 4 5 6 
#
# 1 85.6375 49.5352 38.4990 0.0004 2.8097 0.0000
# 2 49.5352 85.6375 38.4990 -0.0004 -2.8097 0.0000
# 3 38.4990 38.4990 109.0140 0.0000 0.0000 0.0000
# 4 0.0004 -0.0004 0.0000 4.9577 0.0000 -2.8097
# 5 2.8097 -2.8097 0.0000 0.0000 4.9577 0.0004
# 6 0.0000 0.0000 0.0000 -2.8097 0.0004 18.0511
#
#
#
# Elastic Compliance Matrix: (Units=1/GPa)
#
#
# Indices 1 2 3 4 5 6 
#
# 1 0.019820 -0.010559 -0.003271 -0.000002 -0.017217 0.000000
# 2 -0.010559 0.019820 -0.003271 0.000002 0.017217 0.000000
# 3 -0.003271 -0.003271 0.011483 0.000000 0.000000 0.000000
# 4 -0.000002 0.000002 0.000000 0.221223 0.000000 0.034434
# 5 -0.017217 0.017217 0.000000 0.000000 0.221223 -0.000005
# 6 0.000000 0.000000 0.000000 0.034434 -0.000005 0.060758
#
#
# Mechanical properties :
#
#
# Convention : Reuss Voigt Hill
#
# Bulk Modulus (GPa) = 59.09183 59.26171 59.17677
# Shear Modulus (GPa) = 8.41513 15.84368 12.12941
#
# Velocity S-wave (km/s) = 2.22724 3.05608 2.67397
# Velocity P-wave (km/s) = 6.43801 6.88380 6.66463
#
# Compressibility (1/GPa) = 0.01692281
#
# Stress axis : x y z
#
# Youngs Moduli (GPa) = 50.45411 50.45411 87.08393
#
# Poissons Ratio (x) = 0.53275 0.28481
# Poissons Ratio (y) = 0.53275 0.28481
# Poissons Ratio (z) = 0.16501 0.16501
#
# Static dielectric constant tensor:
#      x y z
#    x 3.129280 0.000000 0.000000 
#    y 0.000000 3.129280 0.000000 
#    z 0.000000 0.000000 3.449640 
# 
# 
# High freq. dielectric constant tensor:
#      x y z
#    x 1.630220 0.000000 0.000000 
#    y 0.000000 1.630220 0.000000 
#    z 0.000000 0.000000 1.677140 
# 
# From -- ./inp_files/2345.got.cif
#   From: 2010.03.12/outbox.cif.g09.slc.cpg/sg162_2_cif.got.tgz:2345.got - 2010.04.02 06:27:41.
