data_PCOD8322138
_publ_section_title
;
Structure prediction by ZEFSAII (Michael W. Deem and Ramdas Pophale) SiO2 
 PCOD8322138
Probable space group: P 31 2 1
;
_chemical_formula_sum "Si O2"
_cell_formula_units_Z 42
_cell_length_a 11.710712
_cell_length_b 11.710712
_cell_length_c 15.546478
_cell_angle_alpha 90.000000
_cell_angle_beta 90.000000
_cell_angle_gamma 120.000000
_cell_volume 1846.414702
_symmetry_space_group_name_H-M "P 31 2 1"
_symmetry_group_IT_number 152
_symmetry_cell_setting 'hexagonal'
loop_
_space_group_symop_operation_xyz
x,y,z
-y,x-y,1/3+z
-x+y,-x,2/3+z
x-y,-y,2/3-z
-x,-x+y,1/3-z
y,x,-z
loop_
_atom_site_type_symbol
_atom_site_label
_atom_site_fract_x
_atom_site_fract_y
_atom_site_fract_z
Si Si1 0.245455 0.569557 0.887949
Si Si2 0.151270 0.663941 0.399830
Si Si3 0.962189 0.343569 0.905365
Si Si4 0.892429 0.622348 0.432234
Si Si5 0.000000 0.006101 0.666667
Si Si6 0.656059 0.521562 0.049615
Si Si7 0.204186 0.254483 0.406821
Si Si8 0.856018 0.856018 0.500000
O O1 0.280288 0.563608 0.789257
O O2 0.220282 0.693070 0.888757
O O3 0.362984 0.592089 0.951672
O O4 0.118178 0.433163 0.915117
O O5 0.107654 0.514489 0.368860
O O6 0.194908 0.772543 0.322598
O O7 0.036965 0.654942 0.466514
O O8 0.905468 0.329032 0.810485
O O9 0.925107 0.197146 0.930706
O O10 0.937420 0.639355 0.330103
O O11 0.842056 0.716312 0.471761
O O12 0.892059 0.040281 0.703386
O O13 0.950422 0.907806 0.583954
O O14 0.563087 0.563087 0.000000
O O15 0.272484 0.272484 0.500000
#
# Coordination Sequence:
#
# PCOD8322138 Si02
#       8
#     6   6   6   6   3   6   6   3
#     4  10  22  41  63  92 132 167 218 278 336 407
#     4  10  21  40  63  91 128 169 224 276 329 412
#     4  10  22  39  60  91 126 169 216 277 341 393
#     4  10  23  43  66  96 137 178 223 285 349 415
#     4  10  22  38  60  94 136 172 228 286 346 424
#     4  11  21  39  65  94 122 171 226 273 332 404
#     4  11  22  40  64  92 129 175 226 280 350 405
#     4  10  22  42  62 100 136 184 228 292 356 424
#
# _framework density 22.746786
#
# number of rings (size 3 to 8) (size 9 to 14) (size 15 to 20)
#    0.000    1.714    2.143    1.714    2.000    0.000 
#   12.857    0.000   12.571    0.000    0.000    0.000 
#    0.000    0.000    0.000    0.000    0.000    0.000 
#
# Total GULP energy -520348.757976 kJ/mol
# GULP energy per Si atom -12389.256142 kJ/mol
# Density = 2.269501 g / cm^3
# Si number density = 22.746786 Si / 1000 Ang^3
#
#
#
# Elastic Constant Matrix: (Units=GPa)
#
#
# Indices 1 2 3 4 5 6 
#
# 1 83.5007 21.2071 6.4983 5.5219 0.0000 0.0000
# 2 21.2071 83.5007 6.4983 -5.5219 0.0000 0.0000
# 3 6.4983 6.4983 80.8017 0.0000 0.0000 0.0000
# 4 5.5219 -5.5219 0.0000 23.3937 0.0000 0.0000
# 5 0.0000 0.0000 0.0000 0.0000 23.3937 5.5219
# 6 0.0000 0.0000 0.0000 0.0000 5.5219 31.1468
#
#
#
# Elastic Compliance Matrix: (Units=1/GPa)
#
#
# Indices 1 2 3 4 5 6 
#
# 1 0.013200 -0.003554 -0.000776 -0.003955 0.000000 0.000000
# 2 -0.003554 0.013200 -0.000776 0.003955 0.000000 0.000000
# 3 -0.000776 -0.000776 0.012501 0.000000 0.000000 0.000000
# 4 -0.003955 0.003955 0.000000 0.044613 0.000000 0.000000
# 5 0.000000 0.000000 0.000000 0.000000 0.044613 -0.007909
# 6 0.000000 0.000000 0.000000 0.000000 -0.007909 0.033508
#
#
# Mechanical properties :
#
#
# Convention : Reuss Voigt Hill
#
# Bulk Modulus (GPa) = 34.85428 35.13449 34.99438
# Shear Modulus (GPa) = 27.56173 29.82681 28.69427
#
# Velocity S-wave (km/s) = 3.48469 3.62505 3.55556
# Velocity P-wave (km/s) = 5.61665 5.74463 5.68100
#
# Compressibility (1/GPa) = 0.02869089
#
# Stress axis : x y z
#
# Youngs Moduli (GPa) = 75.75526 75.75526 79.99515
#
# Poissons Ratio (x) = 0.26921 0.06206
# Poissons Ratio (y) = 0.26921 0.06206
# Poissons Ratio (z) = 0.05877 0.05877
#
# Static dielectric constant tensor:
#      x y z
#    x 4.514350 0.000000 0.000000 
#    y 0.000000 4.514350 0.000000 
#    z 0.000000 0.000000 4.237570 
# 
# 
# High freq. dielectric constant tensor:
#      x y z
#    x 1.903610 0.000000 0.000000 
#    y 0.000000 1.903610 0.000000 
#    z 0.000000 0.000000 1.885470 
# 
# From -- ./inp_files/2497.got.cif
#   From: 2010.03.12/outbox.cif.g09.slc.cpg/sg152_2_cif.got.tgz:2497.got - 2010.04.03 13:45:27.
