data_PCOD8322396
_publ_section_title
;
Structure prediction by ZEFSAII (Michael W. Deem and Ramdas Pophale) SiO2 
 PCOD8322396
Probable space group: P 32 2 1
;
_chemical_formula_sum "Si O2"
_cell_formula_units_Z 42
_cell_length_a 14.163234
_cell_length_b 14.163234
_cell_length_c 12.265121
_cell_angle_alpha 90.000000
_cell_angle_beta 90.000000
_cell_angle_gamma 120.000000
_cell_volume 2130.724648
_symmetry_space_group_name_H-M "P 32 2 1"
_symmetry_group_IT_number 154
_symmetry_cell_setting 'hexagonal'
loop_
_space_group_symop_operation_xyz
x,y,z
-y,x-y,2/3+z
-x+y,-x,1/3+z
x-y,-y,1/3-z
-x,-x+y,2/3-z
y,x,-z
loop_
_atom_site_type_symbol
_atom_site_label
_atom_site_fract_x
_atom_site_fract_y
_atom_site_fract_z
Si Si1 0.636896 0.231014 0.255383
Si Si2 0.709661 0.709686 0.178298
Si Si3 0.344662 0.523419 0.648348
Si Si4 0.101613 0.018410 0.404215
Si Si5 0.419094 0.990560 0.044344
Si Si6 0.979844 0.724717 0.704836
Si Si7 0.604579 0.779841 0.992120
O O1 0.682004 0.237623 0.134604
O O2 0.582673 0.306974 0.263788
O O3 0.552012 0.107010 0.288105
O O4 0.743497 0.268765 0.330797
O O5 0.832986 0.796249 0.212352
O O6 0.640457 0.671328 0.288747
O O7 0.657815 0.763904 0.102084
O O8 0.716041 0.615649 0.111120
O O9 0.473200 0.572631 0.658952
O O10 0.278611 0.393679 0.667779
O O11 0.047886 0.047886 0.500000
O O12 0.187372 0.129926 0.341720
O O13 0.000000 0.930117 0.333334
O O14 0.379726 0.000000 0.166667
O O15 0.000000 0.719788 0.833334
O O16 0.090160 0.756948 0.638903
#
# Coordination Sequence:
#
# PCOD8322396 Si02
#       7
#     6   6   6   6   6   6   6
#     4  11  21  37  63  90 117 163 206 258 304 368
#     4  11  23  39  61  91 126 162 198 255 311 366
#     4  11  22  37  61  92 120 155 213 253 309 363
#     4  11  21  34  57  86 118 150 199 242 294 360
#     4  10  22  41  60  88 125 161 205 252 303 377
#     4  11  17  36  60  86 116 155 205 255 294 362
#     4  11  21  38  65  91 121 157 211 253 305 365
#
# _framework density 19.711604999999999
#
# number of rings (size 3 to 8) (size 9 to 14) (size 15 to 20)
#    0.000    1.143    5.714    3.000    2.000    0.571 
#    0.000    2.857    0.000    0.000    0.000    0.000 
#    0.000    0.000    0.000    0.000    0.000    0.000 
#
# Total GULP energy -520743.061310 kJ/mol
# GULP energy per Si atom -12398.644317 kJ/mol
# Density = 1.966674 g / cm^3
# Si number density = 19.711605 Si / 1000 Ang^3
#
#
#
# Elastic Constant Matrix: (Units=GPa)
#
#
# Indices 1 2 3 4 5 6 
#
# 1 87.8005 15.9153 28.9211 5.6320 0.0000 0.0000
# 2 15.9153 87.8005 28.9211 -5.6320 0.0000 0.0000
# 3 28.9211 28.9211 74.8814 0.0000 0.0000 0.0000
# 4 5.6320 -5.6320 0.0000 27.0152 0.0000 0.0000
# 5 0.0000 0.0000 0.0000 0.0000 27.0152 5.6320
# 6 0.0000 0.0000 0.0000 0.0000 5.6320 35.9426
#
#
#
# Elastic Compliance Matrix: (Units=1/GPa)
#
#
# Indices 1 2 3 4 5 6 
#
# 1 0.013335 -0.001046 -0.004746 -0.002998 0.000000 0.000000
# 2 -0.001046 0.013335 -0.004746 0.002998 0.000000 0.000000
# 3 -0.004746 -0.004746 0.017021 0.000000 0.000000 0.000000
# 4 -0.002998 0.002998 0.000000 0.038266 0.000000 0.000000
# 5 0.000000 0.000000 0.000000 0.000000 0.038266 -0.005996
# 6 0.000000 0.000000 0.000000 0.000000 -0.005996 0.028762
#
#
# Mechanical properties :
#
#
# Convention : Reuss Voigt Hill
#
# Bulk Modulus (GPa) = 44.22191 44.22193 44.22192
# Shear Modulus (GPa) = 28.15331 29.77627 28.96479
#
# Velocity S-wave (km/s) = 3.78333 3.89086 3.83747
# Velocity P-wave (km/s) = 6.44732 6.53209 6.48984
#
# Compressibility (1/GPa) = 0.02261322
#
# Stress axis : x y z
#
# Youngs Moduli (GPa) = 74.99198 74.99198 58.75223
#
# Poissons Ratio (x) = 0.07845 0.27885
# Poissons Ratio (y) = 0.07845 0.27885
# Poissons Ratio (z) = 0.35593 0.35593
#
# Static dielectric constant tensor:
#      x y z
#    x 3.554040 0.000000 0.000000 
#    y 0.000000 3.554040 0.000000 
#    z 0.000000 0.000000 3.345520 
# 
# 
# High freq. dielectric constant tensor:
#      x y z
#    x 1.769190 0.000000 0.000000 
#    y 0.000000 1.769190 0.000000 
#    z 0.000000 0.000000 1.739220 
# 
# From -- ./inp_files/1725.got.cif
#   From: 2010.03.12/outbox.cif.g09.slc.cpg/sg154_1_cif.got.tgz:1725.got - 2010.04.03 13:51:21.
