data_PCOD8322215
_publ_section_title
;
Structure prediction by ZEFSAII (Michael W. Deem and Ramdas Pophale) SiO2 
 PCOD8322215
Probable space group: P 31 2 1
;
_chemical_formula_sum "Si O2"
_cell_formula_units_Z 36
_cell_length_a 11.465060
_cell_length_b 11.465060
_cell_length_c 13.661736
_cell_angle_alpha 90.000000
_cell_angle_beta 90.000000
_cell_angle_gamma 120.000000
_cell_volume 1555.210516
_symmetry_space_group_name_H-M "P 31 2 1"
_symmetry_group_IT_number 152
_symmetry_cell_setting 'hexagonal'
loop_
_space_group_symop_operation_xyz
x,y,z
-y,x-y,1/3+z
-x+y,-x,2/3+z
x-y,-y,2/3-z
-x,-x+y,1/3-z
y,x,-z
loop_
_atom_site_type_symbol
_atom_site_label
_atom_site_fract_x
_atom_site_fract_y
_atom_site_fract_z
Si Si1 0.197237 0.000000 0.333334
Si Si2 0.942307 0.311861 0.836911
Si Si3 0.401676 0.702465 0.946423
Si Si4 0.169962 0.248169 0.335031
Si Si5 0.323205 0.804757 0.765296
Si Si6 0.993896 0.538588 0.973363
Si Si7 0.770600 0.770600 0.500000
O O1 0.294325 0.043239 0.237123
O O2 0.061180 0.873279 0.291278
O O3 0.833995 0.313320 0.764270
O O4 0.025167 0.456099 0.890763
O O5 0.871372 0.190435 0.914717
O O6 0.318881 0.722466 0.860512
O O7 0.299666 0.569261 0.007502
O O8 0.460879 0.833214 0.015558
O O9 0.305975 0.357764 0.279987
O O10 0.054267 0.177375 0.254050
O O11 0.235289 0.874062 0.787189
O O12 0.471700 0.930408 0.740509
#
# Coordination Sequence:
#
# PCOD8322215 Si02
#       7
#     3   6   6   6   6   6   3
#     4  12  30  46  78 104 156 200 248 294 368 458
#     4  12  26  48  73 109 143 190 248 308 368 431
#     4  12  23  42  74 106 140 190 238 307 374 432
#     4  12  27  50  75 108 148 205 247 299 372 451
#     4  12  23  41  73 110 142 185 240 304 370 443
#     4  12  22  45  78 106 142 189 247 302 376 435
#     4  12  26  48  72 108 150 196 248 306 366 452
#
# _framework density 23.147994000000001
#
# number of rings (size 3 to 8) (size 9 to 14) (size 15 to 20)
#    0.000    0.000    8.333    1.500    2.333    4.000 
#    0.000    0.000    0.000    0.000    0.000    0.000 
#    0.000    0.000    0.000    0.000    0.000    0.000 
#
# Total GULP energy -446307.034713 kJ/mol
# GULP energy per Si atom -12397.417631 kJ/mol
# Density = 2.309531 g / cm^3
# Si number density = 23.147994 Si / 1000 Ang^3
#
#
#
# Elastic Constant Matrix: (Units=GPa)
#
#
# Indices 1 2 3 4 5 6 
#
# 1 71.7592 23.7300 42.2770 -0.3834 0.0000 0.0000
# 2 23.7300 71.7592 42.2770 0.3834 0.0000 0.0000
# 3 42.2770 42.2770 123.3402 0.0000 0.0000 0.0000
# 4 -0.3834 0.3834 0.0000 32.3812 0.0000 0.0000
# 5 0.0000 0.0000 0.0000 0.0000 32.3812 -0.3834
# 6 0.0000 0.0000 0.0000 0.0000 -0.3834 24.0146
#
#
#
# Elastic Compliance Matrix: (Units=1/GPa)
#
#
# Indices 1 2 3 4 5 6 
#
# 1 0.017930 -0.002894 -0.005154 0.000247 0.000000 0.000000
# 2 -0.002894 0.017930 -0.005154 -0.000247 0.000000 0.000000
# 3 -0.005154 -0.005154 0.011641 0.000000 0.000000 0.000000
# 4 0.000247 -0.000247 0.000000 0.030888 0.000000 0.000000
# 5 0.000000 0.000000 0.000000 0.000000 0.030888 0.000493
# 6 0.000000 0.000000 0.000000 0.000000 0.000493 0.041649
#
#
# Mechanical properties :
#
#
# Convention : Reuss Voigt Hill
#
# Bulk Modulus (GPa) = 47.39912 53.71408 50.55660
# Shear Modulus (GPa) = 27.12040 28.32704 27.72372
#
# Velocity S-wave (km/s) = 3.42659 3.50199 3.46450
# Velocity P-wave (km/s) = 6.01468 6.29340 6.15562
#
# Compressibility (1/GPa) = 0.02109744
#
# Stress axis : x y z
#
# Youngs Moduli (GPa) = 55.77145 55.77145 85.90467
#
# Poissons Ratio (x) = 0.16142 0.44274
# Poissons Ratio (y) = 0.16142 0.44274
# Poissons Ratio (z) = 0.28744 0.28744
#
# Static dielectric constant tensor:
#      x y z
#    x 4.168730 0.000000 0.000000 
#    y 0.000000 4.168730 0.000000 
#    z 0.000000 0.000000 4.368610 
# 
# 
# High freq. dielectric constant tensor:
#      x y z
#    x 1.910280 0.000000 0.000000 
#    y 0.000000 1.910280 0.000000 
#    z 0.000000 0.000000 1.918960 
# 
# From -- ./inp_files/2064.got.cif
#   From: 2010.03.12/outbox.cif.g09.slc.cpg/sg152_2_cif.got.tgz:2064.got - 2010.04.03 13:45:27.
