data_PCOD8322036
_publ_section_title
;
Structure prediction by ZEFSAII (Michael W. Deem and Ramdas Pophale) SiO2 
 PCOD8322036
Probable space group: P 31 2 1
;
_chemical_formula_sum "Si O2"
_cell_formula_units_Z 33
_cell_length_a 9.271518
_cell_length_b 9.271518
_cell_length_c 24.100709
_cell_angle_alpha 90.000000
_cell_angle_beta 90.000000
_cell_angle_gamma 120.000000
_cell_volume 1794.164016
_symmetry_space_group_name_H-M "P 31 2 1"
_symmetry_group_IT_number 152
_symmetry_cell_setting 'hexagonal'
loop_
_space_group_symop_operation_xyz
x,y,z
-y,x-y,1/3+z
-x+y,-x,2/3+z
x-y,-y,2/3-z
-x,-x+y,1/3-z
y,x,-z
loop_
_atom_site_type_symbol
_atom_site_label
_atom_site_fract_x
_atom_site_fract_y
_atom_site_fract_z
Si Si1 0.845006 0.554109 0.703042
Si Si2 0.660952 0.604733 0.246297
Si Si3 0.033673 0.425772 0.545524
Si Si4 0.148909 0.172358 0.560458
Si Si5 0.249190 0.748673 0.371227
Si Si6 0.000000 0.148409 0.666667
O O1 0.741483 0.641037 0.719943
O O2 0.891571 0.497840 0.760418
O O3 0.746526 0.394348 0.663949
O O4 0.000000 0.687164 0.666667
O O5 0.572484 0.564385 0.186464
O O6 0.565273 0.441615 0.283001
O O7 0.859415 0.671883 0.239535
O O8 0.155930 0.350303 0.557653
O O9 0.851267 0.310471 0.571573
O O10 0.083021 0.083021 0.500000
O O11 0.021081 0.064151 0.610439
O O12 0.164517 0.833861 0.335378
#
# Coordination Sequence:
#
# PCOD8322036 Si02
#       6
#     6   6   6   6   6   3
#     4  10  20  36  52  76 113 139 172 227 274 316
#     4  11  22  30  58  87 102 132 191 231 261 324
#     4   9  18  40  56  73 107 148 174 217 278 336
#     4   9  19  34  55  80 106 141 183 222 271 331
#     4  10  19  35  57  74 108 146 179 212 275 334
#     4  10  18  38  56  72 112 156 174 216 280 348
#
# _framework density 18.392968
#
# number of rings (size 3 to 8) (size 9 to 14) (size 15 to 20)
#    0.000    2.182    4.545    1.091    3.818    0.000 
#    0.000    0.000    0.000    0.000    0.000   15.273 
#    0.000    0.000    0.000    0.000    0.000    0.000 
#
# Total GULP energy -408843.504798 kJ/mol
# GULP energy per Si atom -12389.197115 kJ/mol
# Density = 1.835110 g / cm^3
# Si number density = 18.392968 Si / 1000 Ang^3
#
#
#
# Elastic Constant Matrix: (Units=GPa)
#
#
# Indices 1 2 3 4 5 6 
#
# 1 82.8243 51.2348 38.1451 6.7793 -0.0001 0.0000
# 2 51.2348 82.8243 38.1451 -6.7793 0.0001 0.0000
# 3 38.1451 38.1451 132.0221 0.0000 0.0000 0.0000
# 4 6.7793 -6.7793 0.0000 22.9523 0.0000 0.0001
# 5 -0.0001 0.0001 0.0000 0.0000 22.9523 6.7793
# 6 0.0000 0.0000 0.0000 0.0001 6.7793 15.7947
#
#
#
# Elastic Compliance Matrix: (Units=1/GPa)
#
#
# Indices 1 2 3 4 5 6 
#
# 1 0.022590 -0.013662 -0.002579 -0.010708 0.000000 0.000000
# 2 -0.013662 0.022590 -0.002579 0.010708 0.000000 0.000000
# 3 -0.002579 -0.002579 0.009065 0.000000 0.000000 0.000000
# 4 -0.010708 0.010708 0.000000 0.049894 0.000000 0.000000
# 5 0.000000 0.000000 0.000000 0.000000 0.049894 -0.021415
# 6 0.000000 0.000000 0.000000 0.000000 -0.021415 0.072504
#
#
# Mechanical properties :
#
#
# Convention : Reuss Voigt Hill
#
# Bulk Modulus (GPa) = 60.23336 61.41343 60.82339
# Shear Modulus (GPa) = 18.53830 23.68289 21.11060
#
# Velocity S-wave (km/s) = 3.17819 3.59222 3.39153
# Velocity P-wave (km/s) = 6.80345 7.11811 6.96256
#
# Compressibility (1/GPa) = 0.01660210
#
# Stress axis : x y z
#
# Youngs Moduli (GPa) = 44.26820 44.26820 110.31449
#
# Poissons Ratio (x) = 0.60481 0.28454
# Poissons Ratio (y) = 0.60481 0.28454
# Poissons Ratio (z) = 0.11418 0.11418
#
# Static dielectric constant tensor:
#      x y z
#    x 3.157470 0.000000 0.000000 
#    y 0.000000 3.157470 0.000000 
#    z 0.000000 0.000000 3.765810 
# 
# 
# High freq. dielectric constant tensor:
#      x y z
#    x 1.688080 0.000000 0.000000 
#    y 0.000000 1.688080 0.000000 
#    z 0.000000 0.000000 1.741040 
# 
# From -- ./inp_files/3393.got.cif
#   From: 2010.03.12/outbox.cif.g09.slc.cpg/sg152_2_cif.got.tgz:3393.got - 2010.04.03 13:45:27.
