data_PCOD8322888
_publ_section_title
;
Structure prediction by ZEFSAII (Michael W. Deem and Ramdas Pophale) SiO2 
 PCOD8322888
Probable space group: R 3 C
;
_chemical_formula_sum "Si O2"
_cell_formula_units_Z 144
_cell_length_a 21.082725
_cell_length_b 21.082725
_cell_length_c 20.080235
_cell_angle_alpha 90.000000
_cell_angle_beta 90.000000
_cell_angle_gamma 120.000000
_cell_volume 7729.526859
_symmetry_space_group_name_H-M "R 3 C"
_symmetry_group_IT_number 161
_symmetry_cell_setting 'hexagonal'
loop_
_space_group_symop_operation_xyz
x,y,z
-y,x-y,z
-x+y,-x,z
-x+y,y,1/2+z
x,x-y,1/2+z
-y,-x,1/2+z
2/3+x,1/3+y,1/3+z
2/3-y,1/3+x-y,1/3+z
2/3-x+y,1/3-x,1/3+z
2/3-x+y,1/3+y,5/6+z
2/3+x,1/3+x-y,5/6+z
2/3-y,1/3-x,5/6+z
1/3+x,2/3+y,2/3+z
1/3-y,2/3+x-y,2/3+z
1/3-x+y,2/3-x,2/3+z
1/3-x+y,2/3+y,1/6+z
1/3+x,2/3+x-y,1/6+z
1/3-y,2/3-x,1/6+z
loop_
_atom_site_type_symbol
_atom_site_label
_atom_site_fract_x
_atom_site_fract_y
_atom_site_fract_z
Si Si1 0.138405 0.266736 0.298210
Si Si2 0.613067 0.651690 0.004904
Si Si3 0.727447 0.500971 0.012916
Si Si4 0.500971 0.727448 0.816213
Si Si5 0.318356 0.371955 0.657558
Si Si6 0.898293 0.263855 0.945795
Si Si7 0.263853 0.365561 0.383334
Si Si8 0.194928 0.399930 0.697586
O O1 0.065399 0.258066 0.331157
O O2 0.119730 0.193398 0.257309
O O3 0.199526 0.286791 0.356138
O O4 0.171773 0.333334 0.247900
O O5 0.632746 0.666666 0.081231
O O6 0.657073 0.612377 0.978010
O O7 0.638912 0.727038 0.963120
O O8 0.643598 0.441748 0.003245
O O9 0.775087 0.464823 0.992551
O O10 0.752823 0.570175 0.963881
O O11 0.570177 0.752828 0.865248
O O12 0.526730 0.740336 0.738486
O O13 0.393703 0.421458 0.699343
O O14 0.279042 0.288635 0.684452
O O15 0.267933 0.408598 0.664638
O O16 0.912734 0.199527 0.972992
#
# Coordination Sequence:
#
# PCOD8322888 Si02
#       8
#    18  18  18  18  18  18  18  18
#     4  10  19  35  56  80 117 151 189 239 288 344
#     4  11  20  36  57  85 119 148 188 241 298 354
#     4  11  20  35  59  88 114 157 201 242 284 347
#     4  11  20  35  59  88 114 157 201 242 284 347
#     4  11  20  36  57  85 119 148 188 241 298 354
#     4  10  20  35  57  86 117 150 188 241 299 346
#     4  10  20  35  57  86 117 150 188 241 299 346
#     4  10  19  35  56  80 117 151 189 239 288 344
#
# _framework density 18.629860000000001
#
# number of rings (size 3 to 8) (size 9 to 14) (size 15 to 20)
#    0.000    1.500    5.000    4.000    0.000    1.000 
#    0.000    2.500    0.000    0.000    0.000    0.000 
#    0.000    0.000    0.000    0.000    0.000    0.000 
#
# Total GULP energy -595035.466973 kJ/mol
# GULP energy per Si atom -12396.572229 kJ/mol
# Density = 1.858746 g / cm^3
# Si number density = 18.629860 Si / 1000 Ang^3
#
#
#
# Elastic Constant Matrix: (Units=GPa)
#
#
# Indices 1 2 3 4 5 6 
#
# 1 92.5655 36.7573 32.7156 5.7557 0.0000 0.0000
# 2 36.7573 92.5655 32.7156 -5.7557 0.0000 0.0000
# 3 32.7156 32.7156 112.8578 0.0000 0.0000 0.0000
# 4 5.7557 -5.7557 0.0000 21.2919 0.0000 0.0000
# 5 0.0000 0.0000 0.0000 0.0000 21.2919 5.7557
# 6 0.0000 0.0000 0.0000 0.0000 5.7557 27.9041
#
#
#
# Elastic Compliance Matrix: (Units=1/GPa)
#
#
# Indices 1 2 3 4 5 6 
#
# 1 0.014019 -0.004958 -0.002627 -0.005130 0.000000 0.000000
# 2 -0.004958 0.014019 -0.002627 0.005130 0.000000 0.000000
# 3 -0.002627 -0.002627 0.010384 0.000000 0.000000 0.000000
# 4 -0.005130 0.005130 0.000000 0.049740 0.000000 0.000000
# 5 0.000000 0.000000 0.000000 0.000000 0.049740 -0.010260
# 6 0.000000 0.000000 0.000000 0.000000 -0.010260 0.037953
#
#
# Mechanical properties :
#
#
# Convention : Reuss Voigt Hill
#
# Bulk Modulus (GPa) = 55.55664 55.81842 55.68753
# Shear Modulus (GPa) = 24.71864 27.15095 25.93479
#
# Velocity S-wave (km/s) = 3.64652 3.82172 3.73515
# Velocity P-wave (km/s) = 6.90040 7.03569 6.96837
#
# Compressibility (1/GPa) = 0.01799965
#
# Stress axis : x y z
#
# Youngs Moduli (GPa) = 71.33111 71.33111 96.30530
#
# Poissons Ratio (x) = 0.35362 0.25298
# Poissons Ratio (y) = 0.35362 0.25298
# Poissons Ratio (z) = 0.18737 0.18737
#
# Static dielectric constant tensor:
#      x y z
#    x 3.513630 0.000000 0.000000 
#    y 0.000000 3.513630 0.000000 
#    z 0.000000 0.000000 3.678830 
# 
# 
# High freq. dielectric constant tensor:
#      x y z
#    x 1.711410 0.000000 0.000000 
#    y 0.000000 1.711410 0.000000 
#    z 0.000000 0.000000 1.714690 
# 
# From -- ./inp_files/1787.got.cif
#   From: 2010.03.12/outbox.cif.g09.slc.cpg/sg161_cif.got.tgz:1787.got - 2010.04.02 06:27:14.
