data_PCOD8322672
_publ_section_title
;
Structure prediction by ZEFSAII (Michael W. Deem and Ramdas Pophale) SiO2 
 PCOD8322672
Probable space group: P 3 M 1
;
_chemical_formula_sum "Si O2"
_cell_formula_units_Z 42
_cell_length_a 12.550909
_cell_length_b 12.550909
_cell_length_c 18.187153
_cell_angle_alpha 90.000000
_cell_angle_beta 90.000000
_cell_angle_gamma 120.000000
_cell_volume 2481.108254
_symmetry_space_group_name_H-M "P 3 M 1"
_symmetry_group_IT_number 156
_symmetry_cell_setting 'hexagonal'
loop_
_space_group_symop_operation_xyz
x,y,z
-y,x-y,z
-x+y,-x,z
-x+y,y,z
x,x-y,z
-y,-x,z
loop_
_atom_site_type_symbol
_atom_site_label
_atom_site_fract_x
_atom_site_fract_y
_atom_site_fract_z
Si Si1 0.084281 0.417304 0.415600
Si Si2 0.663731 0.581491 0.005738
Si Si3 0.427055 0.335278 0.846330
Si Si4 0.000693 0.752358 0.553448
Si Si5 0.418947 0.335043 0.277890
Si Si6 0.334014 0.916031 0.139025
Si Si7 0.664757 0.083529 0.687175
O O1 0.213369 0.426738 0.399186
O O2 0.107489 0.553745 0.422924
O O3 0.023708 0.345767 0.490360
O O4 0.994040 0.343658 0.349332
O O5 0.794971 0.589942 0.012996
O O6 0.559097 0.440904 0.022370
O O7 0.653005 0.671074 0.064131
O O8 0.642409 0.623426 0.923833
O O9 0.395025 0.197513 0.850701
O O10 0.574037 0.425964 0.843518
O O11 0.372812 0.352422 0.768768
O O12 0.106806 0.893195 0.557106
O O13 0.873729 0.747457 0.536337
O O14 0.997750 0.689238 0.630790
O O15 0.407470 0.203735 0.276695
O O16 0.561805 0.438196 0.279432
O O17 0.352993 0.347562 0.206196
O O18 0.440439 0.880877 0.136202
O O19 0.206453 0.793548 0.150219
O O20 0.541999 0.083997 0.662573
O O21 0.775770 0.224231 0.688953
#
# Coordination Sequence:
#
# PCOD8322672 Si02
#       7
#     6   6   6   6   6   6   6
#     4  10  20  34  53  75  98 124 154 189 228 271
#     4   9  16  27  46  71  96 120 148 187 236 286
#     4   8  13  22  39  65  94 120 146 181 230 285
#     4  10  20  33  48  66  91 125 163 199 233 271
#     4  10  20  34  53  76 100 123 148 183 228 275
#     4  10  20  33  49  68  92 124 160 196 231 269
#     4   9  16  27  45  69  95 120 149 189 238 287
#
# _framework density 16.927918999999999
#
# number of rings (size 3 to 8) (size 9 to 14) (size 15 to 20)
#    0.000    2.571    0.000    2.714    0.000    2.286 
#    0.000    3.571    0.000   10.857    0.000    0.000 
#    0.000    0.000    0.000    0.000    0.000    0.000 
#
# Total GULP energy -520520.602046 kJ/mol
# GULP energy per Si atom -12393.347668 kJ/mol
# Density = 1.688939 g / cm^3
# Si number density = 16.927919 Si / 1000 Ang^3
#
#
#
# Elastic Constant Matrix: (Units=GPa)
#
#
# Indices 1 2 3 4 5 6 
#
# 1 81.7786 51.4569 55.2679 -0.3496 0.0003 0.0000
# 2 51.4569 81.7786 55.2679 0.3496 -0.0003 0.0000
# 3 55.2679 55.2679 140.8841 0.0000 0.0000 0.0000
# 4 -0.3496 0.3496 0.0000 19.1056 0.0000 -0.0003
# 5 0.0003 -0.0003 0.0000 0.0000 19.1056 -0.3496
# 6 0.0000 0.0000 0.0000 -0.0003 -0.3496 15.1609
#
#
#
# Elastic Compliance Matrix: (Units=1/GPa)
#
#
# Indices 1 2 3 4 5 6 
#
# 1 0.022060 -0.010933 -0.004365 0.000604 -0.000001 0.000000
# 2 -0.010933 0.022060 -0.004365 -0.000604 0.000001 0.000000
# 3 -0.004365 -0.004365 0.010523 0.000000 0.000000 0.000000
# 4 0.000604 -0.000604 0.000000 0.052363 0.000000 0.000001
# 5 -0.000001 0.000001 0.000000 0.000000 0.052363 0.001207
# 6 0.000000 0.000000 0.000000 0.000001 0.001207 0.065987
#
#
# Mechanical properties :
#
#
# Convention : Reuss Voigt Hill
#
# Bulk Modulus (GPa) = 65.28922 69.82517 67.55719
# Shear Modulus (GPa) = 18.53306 20.17098 19.35202
#
# Velocity S-wave (km/s) = 3.31240 3.45567 3.38479
# Velocity P-wave (km/s) = 7.29945 7.56705 7.43446
#
# Compressibility (1/GPa) = 0.01531646
#
# Stress axis : x y z
#
# Youngs Moduli (GPa) = 45.33049 45.33049 95.03234
#
# Poissons Ratio (x) = 0.49562 0.41481
# Poissons Ratio (y) = 0.49562 0.41481
# Poissons Ratio (z) = 0.19787 0.19787
#
# Static dielectric constant tensor:
#      x y z
#    x 2.948860 0.000000 0.000000 
#    y 0.000000 2.948860 0.000000 
#    z 0.000000 0.000000 3.664500 
# 
# 
# High freq. dielectric constant tensor:
#      x y z
#    x 1.633170 0.000000 0.000000 
#    y 0.000000 1.633170 0.000000 
#    z 0.000000 0.000000 1.680280 
# 
# From -- ./inp_files/938.got.cif
#   From: 2010.03.12/outbox.cif.g09.slc.cpg/sg156_cif.got.tgz:938.got - 2010.04.03 13:58:47.
