data_PCOD8322639
_publ_section_title
;
Structure prediction by ZEFSAII (Michael W. Deem and Ramdas Pophale) SiO2 
 PCOD8322639
Probable space group: P 3 M 1
;
_chemical_formula_sum "Si O2"
_cell_formula_units_Z 48
_cell_length_a 21.224892
_cell_length_b 21.224892
_cell_length_c 9.935592
_cell_angle_alpha 90.000000
_cell_angle_beta 90.000000
_cell_angle_gamma 120.000000
_cell_volume 3876.281950
_symmetry_space_group_name_H-M "P 3 M 1"
_symmetry_group_IT_number 156
_symmetry_cell_setting 'hexagonal'
loop_
_space_group_symop_operation_xyz
x,y,z
-y,x-y,z
-x+y,-x,z
-x+y,y,z
x,x-y,z
-y,-x,z
loop_
_atom_site_type_symbol
_atom_site_label
_atom_site_fract_x
_atom_site_fract_y
_atom_site_fract_z
Si Si1 0.186456 0.519821 0.574330
Si Si2 0.395155 0.940666 0.076729
Si Si3 0.546372 0.942705 0.383136
Si Si4 0.524890 0.333453 0.238268
Si Si5 0.902460 0.525467 0.477986
Si Si6 0.333286 0.520419 0.882432
Si Si7 0.475364 0.092337 0.984599
Si Si8 0.815969 0.482778 0.740238
O O1 0.259259 0.518518 0.539775
O O2 0.202524 0.601262 0.548995
O O3 0.123521 0.462582 0.475951
O O4 0.161786 0.496244 0.728755
O O5 0.473401 0.946801 0.079812
O O6 0.366143 0.932535 0.230089
O O7 0.403457 0.013604 0.005921
O O8 0.338749 0.873830 0.985399
O O9 0.472045 0.944089 0.384854
O O10 0.611121 0.017380 0.447954
O O11 0.516046 0.258023 0.189328
O O12 0.610052 0.389949 0.263574
O O13 0.477687 0.321121 0.372382
O O14 0.493248 0.363835 0.128208
O O15 0.907336 0.453668 0.456428
O O16 0.873770 0.528975 0.624736
O O17 0.259539 0.519078 0.916995
O O18 0.398296 0.601705 0.907334
O O19 0.539804 0.079607 0.931678
O O20 0.470088 0.145123 0.874177
O O21 0.739951 0.479902 0.717177
O O22 0.799280 0.399640 0.747015
#
# Coordination Sequence:
#
# PCOD8322639 Si02
#       8
#     6   6   6   6   6   6   6   6
#     4   9  17  27  40  57  76  95 115 142 179 220
#     4   9  16  27  40  53  69  91 119 147 175 212
#     4   9  16  27  40  53  69  91 119 147 175 212
#     4  10  17  26  38  52  69  90 116 148 188 228
#     4   9  17  27  38  51  68  90 117 148 180 218
#     4   9  17  27  40  57  76  95 115 142 179 220
#     4   9  17  27  38  51  68  90 117 148 180 218
#     4  10  19  28  38  52  71  92 116 150 194 236
#
# _framework density 12.382999999999999
#
# number of rings (size 3 to 8) (size 9 to 14) (size 15 to 20)
#    0.000    2.750    1.250    1.250    1.750    1.500 
#    0.000    2.500    0.000    1.500    0.000    0.000 
#    0.000    0.000    0.000    0.000    0.000    0.000 
#
# Total GULP energy -594931.594895 kJ/mol
# GULP energy per Si atom -12394.408227 kJ/mol
# Density = 1.235482 g / cm^3
# Si number density = 12.383000 Si / 1000 Ang^3
#
#
#
# Elastic Constant Matrix: (Units=GPa)
#
#
# Indices 1 2 3 4 5 6 
#
# 1 51.9043 31.9990 30.2034 -0.7472 0.0002 0.0000
# 2 31.9990 51.9043 30.2034 0.7472 -0.0002 0.0000
# 3 30.2034 30.2034 76.5700 0.0000 0.0000 0.0000
# 4 -0.7472 0.7472 0.0000 16.7139 0.0000 -0.0002
# 5 0.0002 -0.0002 0.0000 0.0000 16.7139 -0.7472
# 6 0.0000 0.0000 0.0000 -0.0002 -0.7472 9.9527
#
#
#
# Elastic Compliance Matrix: (Units=1/GPa)
#
#
# Indices 1 2 3 4 5 6 
#
# 1 0.033526 -0.016881 -0.006566 0.002253 0.000000 0.000000
# 2 -0.016881 0.033526 -0.006566 -0.002253 0.000000 0.000000
# 3 -0.006566 -0.006566 0.018240 0.000000 0.000000 0.000000
# 4 0.002253 -0.002253 0.000000 0.060032 0.000000 0.000001
# 5 0.000000 0.000000 0.000000 0.000000 0.060032 0.004507
# 6 0.000000 0.000000 0.000000 0.000001 0.004507 0.100814
#
#
# Mechanical properties :
#
#
# Convention : Reuss Voigt Hill
#
# Bulk Modulus (GPa) = 39.57666 40.57668 40.07667
# Shear Modulus (GPa) = 13.34693 14.54094 13.94394
#
# Velocity S-wave (km/s) = 3.28661 3.43048 3.35931
# Velocity P-wave (km/s) = 6.81413 6.96635 6.89066
#
# Compressibility (1/GPa) = 0.02526742
#
# Stress axis : x y z
#
# Youngs Moduli (GPa) = 29.82731 29.82731 54.82479
#
# Poissons Ratio (x) = 0.50350 0.35998
# Poissons Ratio (y) = 0.50350 0.35998
# Poissons Ratio (z) = 0.19585 0.19585
#
# Static dielectric constant tensor:
#      x y z
#    x 2.345720 0.000000 0.000000 
#    y 0.000000 2.345720 0.000000 
#    z 0.000000 0.000000 2.708140 
# 
# 
# High freq. dielectric constant tensor:
#      x y z
#    x 1.434060 0.000000 0.000000 
#    y 0.000000 1.434060 0.000000 
#    z 0.000000 0.000000 1.488970 
# 
# From -- ./inp_files/569.got.cif
#   From: 2010.03.12/outbox.cif.g09.slc.cpg/sg156_cif.got.tgz:569.got - 2010.04.03 13:58:47.
