data_PCOD8322165
_publ_section_title
;
Structure prediction by ZEFSAII (Michael W. Deem and Ramdas Pophale) SiO2 
 PCOD8322165
Probable space group: P 31 2 1
;
_chemical_formula_sum "Si O2"
_cell_formula_units_Z 21
_cell_length_a 8.602162
_cell_length_b 8.602162
_cell_length_c 15.821305
_cell_angle_alpha 90.000000
_cell_angle_beta 90.000000
_cell_angle_gamma 120.000000
_cell_volume 1013.883765
_symmetry_space_group_name_H-M "P 31 2 1"
_symmetry_group_IT_number 152
_symmetry_cell_setting 'hexagonal'
loop_
_space_group_symop_operation_xyz
x,y,z
-y,x-y,1/3+z
-x+y,-x,2/3+z
x-y,-y,2/3-z
-x,-x+y,1/3-z
y,x,-z
loop_
_atom_site_type_symbol
_atom_site_label
_atom_site_fract_x
_atom_site_fract_y
_atom_site_fract_z
Si Si1 0.355070 0.954925 0.197778
Si Si2 0.097496 0.350303 0.350524
Si Si3 0.000000 0.120177 0.666667
Si Si4 0.762948 0.340073 0.407122
O O1 0.245696 0.840370 0.114908
O O2 0.224253 0.000025 0.249948
O O3 0.421063 0.845400 0.255205
O O4 0.528030 0.141496 0.166511
O O5 0.227402 0.506840 0.287718
O O6 0.895772 0.320241 0.340343
O O7 0.098390 0.172241 0.325616
#
# Coordination Sequence:
#
# PCOD8322165 Si02
#       4
#     6   6   3   6
#     4  10  24  41  71  95 139 181 227 287 354 403
#     4  10  24  41  65 100 135 179 229 283 348 414
#     4  12  22  44  66  96 142 176 234 286 344 422
#     4  10  22  43  67  97 135 178 231 282 350 416
#
# _framework density 20.712434999999999
#
# number of rings (size 3 to 8) (size 9 to 14) (size 15 to 20)
#    1.714    0.000    0.000    4.286    4.000    1.143 
#    0.000    0.000    0.000    0.000    0.000    0.000 
#    0.000    0.000    0.000    0.000    0.000    0.000 
#
# Total GULP energy -260301.451972 kJ/mol
# GULP energy per Si atom -12395.307237 kJ/mol
# Density = 2.066529 g / cm^3
# Si number density = 20.712435 Si / 1000 Ang^3
#
#
#
# Elastic Constant Matrix: (Units=GPa)
#
#
# Indices 1 2 3 4 5 6 
#
# 1 122.6665 52.8940 15.3946 0.2041 0.0000 0.0000
# 2 52.8940 122.6665 15.3946 -0.2041 0.0000 0.0000
# 3 15.3946 15.3946 22.2257 0.0000 0.0000 0.0000
# 4 0.2041 -0.2041 0.0000 39.0744 0.0000 0.0000
# 5 0.0000 0.0000 0.0000 0.0000 39.0744 0.2041
# 6 0.0000 0.0000 0.0000 0.0000 0.2041 34.8862
#
#
#
# Elastic Compliance Matrix: (Units=1/GPa)
#
#
# Indices 1 2 3 4 5 6 
#
# 1 0.010408 -0.003925 -0.004491 -0.000075 0.000000 0.000000
# 2 -0.003925 0.010408 -0.004491 0.000075 0.000000 0.000000
# 3 -0.004491 -0.004491 0.051214 0.000000 0.000000 0.000000
# 4 -0.000075 0.000075 0.000000 0.025593 0.000000 0.000000
# 5 0.000000 0.000000 0.000000 0.000000 0.025593 -0.000150
# 6 0.000000 0.000000 0.000000 0.000000 -0.000150 0.028665
#
#
# Mechanical properties :
#
#
# Convention : Reuss Voigt Hill
#
# Bulk Modulus (GPa) = 21.63667 48.32502 34.98084
# Shear Modulus (GPa) = 25.89326 34.86538 30.37932
#
# Velocity S-wave (km/s) = 3.53956 4.10726 3.83393
# Velocity P-wave (km/s) = 5.21282 6.77310 6.04352
#
# Compressibility (1/GPa) = 0.04621783
#
# Stress axis : x y z
#
# Youngs Moduli (GPa) = 96.07820 96.07820 19.52588
#
# Poissons Ratio (x) = 0.37706 0.08769
# Poissons Ratio (y) = 0.37706 0.08769
# Poissons Ratio (z) = 0.43148 0.43148
#
# Static dielectric constant tensor:
#      x y z
#    x 3.680640 0.000000 0.000000 
#    y 0.000000 3.680640 0.000000 
#    z 0.000000 0.000000 3.607440 
# 
# 
# High freq. dielectric constant tensor:
#      x y z
#    x 1.811370 0.000000 0.000000 
#    y 0.000000 1.811370 0.000000 
#    z 0.000000 0.000000 1.800590 
# 
# From -- ./inp_files/2256.got.cif
#   From: 2010.03.12/outbox.cif.g09.slc.cpg/sg152_2_cif.got.tgz:2256.got - 2010.04.03 13:45:27.
