data_PCOD8322711
_publ_section_title
;
Structure prediction by ZEFSAII (Michael W. Deem and Ramdas Pophale) SiO2 
 PCOD8322711
Probable space group: P 3 M 1
;
_chemical_formula_sum "Si O2"
_cell_formula_units_Z 36
_cell_length_a 18.011161
_cell_length_b 18.011161
_cell_length_c 7.512714
_cell_angle_alpha 90.000000
_cell_angle_beta 90.000000
_cell_angle_gamma 120.000000
_cell_volume 2110.624157
_symmetry_space_group_name_H-M "P 3 M 1"
_symmetry_group_IT_number 156
_symmetry_cell_setting 'hexagonal'
loop_
_space_group_symop_operation_xyz
x,y,z
-y,x-y,z
-x+y,-x,z
-x+y,y,z
x,x-y,z
-y,-x,z
loop_
_atom_site_type_symbol
_atom_site_label
_atom_site_fract_x
_atom_site_fract_y
_atom_site_fract_z
Si Si1 0.000080 0.830271 0.650120
Si Si2 0.598387 0.571317 0.946745
Si Si3 0.000080 0.169810 0.243401
Si Si4 0.496938 0.163525 0.243386
Si Si5 0.836477 0.333413 0.650105
Si Si6 0.237984 0.931720 0.946761
O O1 0.070053 0.929948 0.676678
O O2 0.022575 0.771812 0.772250
O O3 0.908789 0.817577 0.707919
O O4 0.998296 0.801460 0.446761
O O5 0.497005 0.502996 0.946743
O O6 0.644095 0.561526 0.772234
O O7 0.611465 0.666667 0.946753
O O8 0.644093 0.561523 0.121255
O O9 0.908790 0.091211 0.185604
O O10 0.070055 0.140110 0.216835
O O11 0.022571 0.250764 0.121272
O O12 0.596614 0.193228 0.216830
O O13 0.484245 0.242123 0.185585
O O14 0.468126 0.136498 0.446745
O O15 0.806776 0.403388 0.676666
O O16 0.757877 0.242124 0.707903
O O17 0.169663 0.830338 0.946767
#
# Coordination Sequence:
#
# PCOD8322711 Si02
#       6
#     6   6   6   6   6   6
#     4   9  17  29  46  69  98 131 162 187 211 246
#     4  10  21  35  49  66  89 117 150 190 237 283
#     4   9  17  29  46  69  98 131 162 187 211 246
#     4   9  17  29  46  69  98 131 162 187 211 246
#     4   9  17  29  46  69  98 131 162 187 211 246
#     4  10  21  35  49  66  89 117 150 190 237 283
#
# _framework density 17.056567000000001
#
# number of rings (size 3 to 8) (size 9 to 14) (size 15 to 20)
#    0.000    2.667    0.000    1.667    0.000    6.667 
#    0.000    6.667    0.000    0.333    0.000    0.000 
#    0.000    0.000    0.000   16.667    0.000    0.000 
#
# Total GULP energy -446399.420152 kJ/mol
# GULP energy per Si atom -12399.983893 kJ/mol
# Density = 1.701775 g / cm^3
# Si number density = 17.056567 Si / 1000 Ang^3
#
#
#
# Elastic Constant Matrix: (Units=GPa)
#
#
# Indices 1 2 3 4 5 6 
#
# 1 94.0758 66.8138 39.5582 -0.0001 0.0001 0.0000
# 2 66.8138 94.0758 39.5582 0.0001 -0.0001 0.0000
# 3 39.5582 39.5582 85.3791 0.0000 0.0000 0.0000
# 4 -0.0001 0.0001 0.0000 15.2823 0.0000 -0.0001
# 5 0.0001 -0.0001 0.0000 0.0000 15.2823 -0.0001
# 6 0.0000 0.0000 0.0000 -0.0001 -0.0001 13.6310
#
#
#
# Elastic Compliance Matrix: (Units=1/GPa)
#
#
# Indices 1 2 3 4 5 6 
#
# 1 0.022365 -0.014316 -0.003729 0.000000 0.000000 0.000000
# 2 -0.014316 0.022365 -0.003729 0.000000 0.000000 0.000000
# 3 -0.003729 -0.003729 0.015168 0.000000 0.000000 0.000000
# 4 0.000000 0.000000 0.000000 0.065435 0.000000 0.000000
# 5 0.000000 0.000000 0.000000 0.000000 0.065435 0.000000
# 6 0.000000 0.000000 0.000000 0.000000 0.000000 0.073362
#
#
# Mechanical properties :
#
#
# Convention : Reuss Voigt Hill
#
# Bulk Modulus (GPa) = 61.16486 62.82123 61.99304
# Shear Modulus (GPa) = 15.96777 17.34582 16.65679
#
# Velocity S-wave (km/s) = 3.06300 3.19244 3.12839
# Velocity P-wave (km/s) = 6.96040 7.10633 7.03374
#
# Compressibility (1/GPa) = 0.01634926
#
# Stress axis : x y z
#
# Youngs Moduli (GPa) = 44.71224 44.71224 65.92661
#
# Poissons Ratio (x) = 0.64009 0.24587
# Poissons Ratio (y) = 0.64009 0.24587
# Poissons Ratio (z) = 0.16675 0.16675
#
# Static dielectric constant tensor:
#      x y z
#    x 2.934690 0.000000 0.000000 
#    y 0.000000 2.934690 0.000000 
#    z 0.000000 0.000000 3.512280 
# 
# 
# High freq. dielectric constant tensor:
#      x y z
#    x 1.628390 0.000000 0.000000 
#    y 0.000000 1.628390 0.000000 
#    z 0.000000 0.000000 1.677960 
# 
# From -- ./inp_files/431.got.cif
#   From: 2010.03.12/outbox.cif.g09.slc.cpg/sg156_cif.got.tgz:431.got - 2010.04.03 13:58:47.
