data_PCOD8322243
_publ_section_title
;
Structure prediction by ZEFSAII (Michael W. Deem and Ramdas Pophale) SiO2 
 PCOD8322243
Probable space group: P 32 1 2
;
_chemical_formula_sum "Si O2"
_cell_formula_units_Z 36
_cell_length_a 15.541231
_cell_length_b 15.541231
_cell_length_c 10.163718
_cell_angle_alpha 90.000000
_cell_angle_beta 90.000000
_cell_angle_gamma 120.000000
_cell_volume 2125.955011
_symmetry_space_group_name_H-M "P 32 1 2"
_symmetry_group_IT_number 153
_symmetry_cell_setting 'hexagonal'
loop_
_space_group_symop_operation_xyz
x,y,z
-y,x-y,2/3+z
-x+y,-x,1/3+z
-y,-x,1/3-z
-x+y,y,2/3-z
x,x-y,-z
loop_
_atom_site_type_symbol
_atom_site_label
_atom_site_fract_x
_atom_site_fract_y
_atom_site_fract_z
Si Si1 0.803120 0.993814 0.189135
Si Si2 0.638391 0.475087 0.545930
Si Si3 0.749230 0.048666 0.436920
Si Si4 0.190695 0.993814 0.977532
Si Si5 0.836697 0.361610 0.379262
Si Si6 0.951334 0.250770 0.396413
O O1 0.830192 0.915096 0.250000
O O2 0.726006 0.997609 0.293663
O O3 0.904519 0.095482 0.166667
O O4 0.748818 0.972244 0.047090
O O5 0.562176 0.437825 0.666667
O O6 0.670227 0.589144 0.519413
O O7 0.588694 0.411307 0.416667
O O8 0.731937 0.463873 0.583333
O O9 0.748818 0.972243 0.547090
O O10 0.857127 0.142873 0.416667
O O11 0.271603 0.997609 0.873003
O O12 0.190964 0.095482 0.000000
O O13 0.875651 0.437826 0.500000
O O14 0.918917 0.329773 0.352746
#
# Coordination Sequence:
#
# PCOD8322243 Si02
#       6
#     6   6   6   6   6   6
#     4  10  19  31  47  66  89 121 157 190 221 264
#     4  11  20  31  47  67  91 123 160 193 222 263
#     4   9  19  32  44  63  92 120 149 189 235 263
#     4  10  19  31  47  66  89 121 157 190 221 264
#     4  11  20  31  47  67  91 123 160 193 222 263
#     4   9  19  32  44  63  92 120 149 189 235 263
#
# _framework density 16.933565999999999
#
# number of rings (size 3 to 8) (size 9 to 14) (size 15 to 20)
#    0.000    2.000    0.000    5.000    0.000    9.333 
#    0.000    0.000    0.000    0.000    0.000    0.000 
#    0.000    0.000    0.000  126.000    0.000    0.000 
#
# Total GULP energy -445999.761527 kJ/mol
# GULP energy per Si atom -12388.882265 kJ/mol
# Density = 1.689502 g / cm^3
# Si number density = 16.933566 Si / 1000 Ang^3
#
#
#
# Elastic Constant Matrix: (Units=GPa)
#
#
# Indices 1 2 3 4 5 6 
#
# 1 57.7797 24.0113 44.7054 -0.0001 -4.9805 0.0000
# 2 24.0113 57.7797 44.7054 0.0001 4.9805 0.0000
# 3 44.7054 44.7054 147.1536 0.0000 0.0000 0.0000
# 4 -0.0001 0.0001 0.0000 25.0418 0.0000 4.9805
# 5 -4.9805 4.9805 0.0000 0.0000 25.0418 -0.0001
# 6 0.0000 0.0000 0.0000 4.9805 -0.0001 16.8842
#
#
#
# Elastic Compliance Matrix: (Units=1/GPa)
#
#
# Indices 1 2 3 4 5 6 
#
# 1 0.024882 -0.006577 -0.005561 0.000000 0.006257 0.000000
# 2 -0.006577 0.024882 -0.005561 0.000000 -0.006257 0.000000
# 3 -0.005561 -0.005561 0.010175 0.000000 0.000000 0.000000
# 4 0.000000 0.000000 0.000000 0.042422 0.000000 -0.012514
# 5 0.006257 -0.006257 0.000000 0.000000 0.042422 0.000000
# 6 0.000000 0.000000 0.000000 -0.012514 0.000000 0.062918
#
#
# Mechanical properties :
#
#
# Convention : Reuss Voigt Hill
#
# Bulk Modulus (GPa) = 40.74831 54.39525 47.57178
# Shear Modulus (GPa) = 19.89806 23.34627 21.62217
#
# Velocity S-wave (km/s) = 3.43164 3.71711 3.57723
# Velocity P-wave (km/s) = 6.31011 7.11442 6.72430
#
# Compressibility (1/GPa) = 0.02454090
#
# Stress axis : x y z
#
# Youngs Moduli (GPa) = 40.18904 40.18904 98.28330
#
# Poissons Ratio (x) = 0.26431 0.54658
# Poissons Ratio (y) = 0.26431 0.54658
# Poissons Ratio (z) = 0.22350 0.22350
#
# Static dielectric constant tensor:
#      x y z
#    x 2.984740 0.000000 0.000000 
#    y 0.000000 2.984740 0.000000 
#    z 0.000000 0.000000 3.703910 
# 
# 
# High freq. dielectric constant tensor:
#      x y z
#    x 1.616130 0.000000 0.000000 
#    y 0.000000 1.616130 0.000000 
#    z 0.000000 0.000000 1.687750 
# 
# From -- ./inp_files/1792.got.cif
#   From: 2010.03.12/outbox.cif.g09.slc.cpg/sg153_1_cif.got.tgz:1792.got - 2010.04.03 13:48:33.
