data_PCOD8322735
_publ_section_title
;
Structure prediction by ZEFSAII (Michael W. Deem and Ramdas Pophale) SiO2 
 PCOD8322735
Probable space group: P 3 1 M
;
_chemical_formula_sum "Si O2"
_cell_formula_units_Z 42
_cell_length_a 14.341037
_cell_length_b 14.341037
_cell_length_c 12.370476
_cell_angle_alpha 90.000000
_cell_angle_beta 90.000000
_cell_angle_gamma 120.000000
_cell_volume 2203.322936
_symmetry_space_group_name_H-M "P 3 1 M"
_symmetry_group_IT_number 157
_symmetry_cell_setting 'hexagonal'
loop_
_space_group_symop_operation_xyz
x,y,z
-y,x-y,z
-x+y,-x,z
y,x,z
x-y,-y,z
-x,-x+y,z
loop_
_atom_site_type_symbol
_atom_site_label
_atom_site_fract_x
_atom_site_fract_y
_atom_site_fract_z
Si Si1 0.124558 0.875456 0.189900
Si Si2 0.214675 0.416311 0.758003
Si Si3 0.566947 0.444617 0.685413
Si Si4 0.433050 0.555380 0.442906
Si Si5 0.873420 0.126581 0.564160
Si Si6 0.124558 0.249101 0.938418
Si Si7 0.416311 0.201632 0.370315
O O1 0.183383 0.821978 0.253372
O O2 0.000000 0.818055 0.222893
O O3 0.176595 0.000000 0.221842
O O4 0.139330 0.860667 0.064159
O O5 0.342079 0.468682 0.742197
O O6 0.188698 0.513063 0.753557
O O7 0.148031 0.327545 0.667870
O O8 0.183375 0.361404 0.874945
O O9 0.540533 0.540533 0.680232
O O10 0.585243 0.414753 0.564160
O O11 0.459463 0.459463 0.448087
O O12 0.324362 0.513060 0.374762
O O13 0.531315 0.657917 0.386123
O O14 0.820494 0.148036 0.460445
O O15 0.000000 0.178428 0.545602
O O16 0.821561 0.000000 0.582721
O O17 0.176602 0.176602 0.906473
O O18 0.000000 0.181937 0.905429
#
# Coordination Sequence:
#
# PCOD8322735 Si02
#       7
#     6   6   6   6   6   6   6
#     4  10  21  39  63  91 124 162 201 243 298 366
#     4  12  23  38  60  85 117 155 203 252 295 353
#     4  11  21  36  56  81 112 151 193 237 298 358
#     4  11  21  36  56  81 112 151 193 237 298 358
#     4  12  23  36  56  86 122 154 189 242 308 370
#     4  10  21  39  63  91 124 162 201 243 298 366
#     4  12  23  38  60  85 117 155 203 252 295 353
#
# _framework density 19.062118000000002
#
# number of rings (size 3 to 8) (size 9 to 14) (size 15 to 20)
#    0.000    0.857    2.857    6.143    0.000    1.143 
#    0.000    4.286    0.000    5.143    0.000    0.000 
#    0.000    0.000    0.000    0.000    0.000    0.000 
#
# Total GULP energy -521104.168990 kJ/mol
# GULP energy per Si atom -12407.242119 kJ/mol
# Density = 1.901873 g / cm^3
# Si number density = 19.062118 Si / 1000 Ang^3
#
#
#
# Elastic Constant Matrix: (Units=GPa)
#
#
# Indices 1 2 3 4 5 6 
#
# 1 110.9234 32.1784 45.1743 0.0000 1.9485 0.0000
# 2 32.1784 110.9234 45.1743 0.0000 -1.9485 0.0000
# 3 45.1743 45.1743 86.8630 0.0000 0.0000 0.0000
# 4 0.0000 0.0000 0.0000 32.9335 0.0000 -1.9485
# 5 1.9485 -1.9485 0.0000 0.0000 32.9335 0.0000
# 6 0.0000 0.0000 0.0000 -1.9485 0.0000 39.3725
#
#
#
# Elastic Compliance Matrix: (Units=1/GPa)
#
#
# Indices 1 2 3 4 5 6 
#
# 1 0.011570 -0.001166 -0.005411 0.000000 -0.000754 0.000000
# 2 -0.001166 0.011570 -0.005411 0.000000 0.000754 0.000000
# 3 -0.005411 -0.005411 0.017140 0.000000 0.000000 0.000000
# 4 0.000000 0.000000 0.000000 0.030453 0.000000 0.001507
# 5 -0.000754 0.000754 0.000000 0.000000 0.030453 0.000000
# 6 0.000000 0.000000 0.000000 0.001507 0.000000 0.025473
#
#
# Mechanical properties :
#
#
# Convention : Reuss Voigt Hill
#
# Bulk Modulus (GPa) = 61.32945 61.52930 61.42937
# Shear Modulus (GPa) = 32.03655 33.46009 32.74832
#
# Velocity S-wave (km/s) = 4.10401 4.19420 4.14935
# Velocity P-wave (km/s) = 7.39598 7.47017 7.43317
#
# Compressibility (1/GPa) = 0.01630538
#
# Stress axis : x y z
#
# Youngs Moduli (GPa) = 86.42772 86.42772 58.34182
#
# Poissons Ratio (x) = 0.10079 0.31568
# Poissons Ratio (y) = 0.10079 0.31568
# Poissons Ratio (z) = 0.46765 0.46765
#
# Static dielectric constant tensor:
#      x y z
#    x 3.515680 0.000000 0.000000 
#    y 0.000000 3.515680 0.000000 
#    z 0.000000 0.000000 3.383850 
# 
# 
# High freq. dielectric constant tensor:
#      x y z
#    x 1.751780 0.000000 0.000000 
#    y 0.000000 1.751780 0.000000 
#    z 0.000000 0.000000 1.719010 
# 
# From -- ./inp_files/567.got.cif
#   From: 2010.03.12/outbox.cif.g09.slc.cpg/sg157_cif.got.tgz:567.got - 2010.04.03 13:59:21.
