data_PCOD8322183
_publ_section_title
;
Structure prediction by ZEFSAII (Michael W. Deem and Ramdas Pophale) SiO2 
 PCOD8322183
Probable space group: P 31 2 1
;
_chemical_formula_sum "Si O2"
_cell_formula_units_Z 36
_cell_length_a 8.588086
_cell_length_b 8.588086
_cell_length_c 25.393984
_cell_angle_alpha 90.000000
_cell_angle_beta 90.000000
_cell_angle_gamma 120.000000
_cell_volume 1622.012672
_symmetry_space_group_name_H-M "P 31 2 1"
_symmetry_group_IT_number 152
_symmetry_cell_setting 'hexagonal'
loop_
_space_group_symop_operation_xyz
x,y,z
-y,x-y,1/3+z
-x+y,-x,2/3+z
x-y,-y,2/3-z
-x,-x+y,1/3-z
y,x,-z
loop_
_atom_site_type_symbol
_atom_site_label
_atom_site_fract_x
_atom_site_fract_y
_atom_site_fract_z
Si Si1 0.296275 0.328868 0.189559
Si Si2 0.688797 0.348580 0.854633
Si Si3 0.800526 0.800526 0.000000
Si Si4 0.955924 0.000000 0.833334
Si Si5 0.374320 0.192838 0.428280
Si Si6 0.827411 0.673455 0.365572
Si Si7 0.098987 0.556120 0.044895
O O1 0.460339 0.303712 0.208428
O O2 0.365891 0.517297 0.160602
O O3 0.184643 0.330515 0.239216
O O4 0.169214 0.154138 0.153642
O O5 0.779886 0.295038 0.807255
O O6 0.626371 0.213756 0.902541
O O7 0.001711 0.837494 0.994526
O O8 0.671733 0.706651 0.948762
O O9 0.862276 0.039218 0.784254
O O10 0.462509 0.372799 0.394483
O O11 0.646413 0.688402 0.359289
O O12 0.800801 0.493044 0.336499
#
# Coordination Sequence:
#
# PCOD8322183 Si02
#       7
#     6   6   3   3   6   6   6
#     4  12  26  42  69  99 141 179 238 288 347 418
#     4  12  25  44  68 104 138 183 235 292 343 418
#     4  10  24  42  72  98 136 182 236 280 350 426
#     4  12  22  42  70  98 130 178 226 278 350 408
#     4  11  22  42  72  97 138 180 226 281 357 412
#     4  11  23  44  68  99 134 186 229 286 357 419
#     4  11  23  43  70  97 138 178 226 285 350 420
#
# _framework density 22.194648999999998
#
# number of rings (size 3 to 8) (size 9 to 14) (size 15 to 20)
#    0.000    0.667    5.000    3.000    0.000    0.000 
#    0.000    0.000    0.000    1.000    0.000    0.000 
#    0.000    0.000    0.000    0.000    0.000    0.000 
#
# Total GULP energy -446145.142667 kJ/mol
# GULP energy per Si atom -12392.920630 kJ/mol
# Density = 2.214413 g / cm^3
# Si number density = 22.194649 Si / 1000 Ang^3
#
#
#
# Elastic Constant Matrix: (Units=GPa)
#
#
# Indices 1 2 3 4 5 6 
#
# 1 90.2758 19.1245 -0.0261 0.9442 0.0001 0.0000
# 2 19.1245 90.2758 -0.0261 -0.9442 -0.0001 0.0000
# 3 -0.0261 -0.0261 32.0816 0.0000 0.0000 0.0000
# 4 0.9442 -0.9442 0.0000 16.0757 0.0000 -0.0001
# 5 0.0001 -0.0001 0.0000 0.0000 16.0757 0.9442
# 6 0.0000 0.0000 0.0000 -0.0001 0.9442 35.5757
#
#
#
# Elastic Compliance Matrix: (Units=1/GPa)
#
#
# Indices 1 2 3 4 5 6 
#
# 1 0.011609 -0.002468 0.000007 -0.000827 0.000000 0.000000
# 2 -0.002468 0.011609 0.000007 0.000827 0.000000 0.000000
# 3 0.000007 0.000007 0.031170 0.000000 0.000000 0.000000
# 4 -0.000827 0.000827 0.000000 0.062303 0.000000 0.000000
# 5 0.000000 0.000000 0.000000 0.000000 0.062303 -0.001653
# 6 0.000000 0.000000 0.000000 0.000000 -0.001653 0.028153
#
#
# Mechanical properties :
#
#
# Convention : Reuss Voigt Hill
#
# Bulk Modulus (GPa) = 20.20948 27.86422 24.03685
# Shear Modulus (GPa) = 21.87744 26.44949 24.16346
#
# Velocity S-wave (km/s) = 3.14300 3.45585 3.30314
# Velocity P-wave (km/s) = 4.72193 5.33907 5.03995
#
# Compressibility (1/GPa) = 0.04948173
#
# Stress axis : x y z
#
# Youngs Moduli (GPa) = 86.14290 86.14290 32.08162
#
# Poissons Ratio (x) = 0.21259 -0.00024
# Poissons Ratio (y) = 0.21259 -0.00024
# Poissons Ratio (z) = -0.00064 -0.00064
#
# Static dielectric constant tensor:
#      x y z
#    x 4.173200 0.000000 0.000000 
#    y 0.000000 4.173200 0.000000 
#    z 0.000000 0.000000 4.103060 
# 
# 
# High freq. dielectric constant tensor:
#      x y z
#    x 1.872910 0.000000 0.000000 
#    y 0.000000 1.872910 0.000000 
#    z 0.000000 0.000000 1.876170 
# 
# From -- ./inp_files/3433.got.cif
#   From: 2010.03.12/outbox.cif.g09.slc.cpg/sg152_2_cif.got.tgz:3433.got - 2010.04.03 13:45:27.
