data_PCOD8322002
_publ_section_title
;
Structure prediction by ZEFSAII (Michael W. Deem and Ramdas Pophale) SiO2 
 PCOD8322002
Probable space group: P 31 1 2
;
_chemical_formula_sum "Si O2"
_cell_formula_units_Z 48
_cell_length_a 11.143379
_cell_length_b 11.143379
_cell_length_c 20.838533
_cell_angle_alpha 90.000000
_cell_angle_beta 90.000000
_cell_angle_gamma 120.000000
_cell_volume 2240.946958
_symmetry_space_group_name_H-M "P 31 1 2"
_symmetry_group_IT_number 151
_symmetry_cell_setting 'hexagonal'
loop_
_space_group_symop_operation_xyz
x,y,z
-y,x-y,1/3+z
-x+y,-x,2/3+z
-y,-x,2/3-z
-x+y,y,1/3-z
x,x-y,-z
loop_
_atom_site_type_symbol
_atom_site_label
_atom_site_fract_x
_atom_site_fract_y
_atom_site_fract_z
Si Si1 0.621840 0.659357 0.326762
Si Si2 0.153828 0.679166 0.456105
Si Si3 0.467835 0.657728 0.679839
Si Si4 0.642457 0.279897 0.259709
Si Si5 0.509924 0.944689 0.897433
Si Si6 0.416939 0.206395 0.429470
Si Si7 0.397792 0.255091 0.823204
Si Si8 0.040158 0.344709 0.140498
O O1 0.496856 0.503145 0.333334
O O2 0.582240 0.770364 0.295562
O O3 0.748553 0.666767 0.285524
O O4 0.668542 0.710720 0.398144
O O5 0.222737 0.611369 0.500000
O O6 0.105182 0.576794 0.394365
O O7 0.272712 0.834211 0.443109
O O8 0.024182 0.680192 0.490144
O O9 0.336842 0.673683 0.666667
O O10 0.514483 0.615650 0.614451
O O11 0.696712 0.303289 0.333334
O O12 0.670636 0.425667 0.231183
O O13 0.708071 0.205301 0.218332
O O14 0.477392 0.189955 0.246068
O O15 0.451491 0.973254 0.831090
O O16 0.645300 0.075528 0.926982
O O17 0.345897 0.172949 0.500000
O O18 0.291826 0.091761 0.830331
O O19 0.180069 0.360138 0.166667
#
# Coordination Sequence:
#
# PCOD8322002 Si02
#       8
#     6   6   6   6   6   6   6   6
#     4  11  23  39  65 104 136 179 227 283 346 409
#     4  11  24  40  67  93 132 174 220 286 343 412
#     4   9  22  40  61  98 133 169 226 276 343 406
#     4  11  21  39  63  96 131 170 220 281 336 401
#     4  11  23  41  66 100 134 179 224 285 346 410
#     4  12  23  38  64 100 139 172 226 290 340 406
#     4  11  23  42  62 100 130 174 229 275 351 402
#     4  12  23  42  68  95 140 180 230 290 342 420
#
# _framework density 21.419515000000001
#
# number of rings (size 3 to 8) (size 9 to 14) (size 15 to 20)
#    0.000    1.000    5.000    3.000    8.750    0.000 
#    0.000    0.625    0.000    0.000    0.000    0.000 
#    0.000    0.000    0.000    0.000    0.000    0.000 
#
# Total GULP energy -594670.470273 kJ/mol
# GULP energy per Si atom -12388.968131 kJ/mol
# Density = 2.137076 g / cm^3
# Si number density = 21.419515 Si / 1000 Ang^3
#
#
#
# Elastic Constant Matrix: (Units=GPa)
#
#
# Indices 1 2 3 4 5 6 
#
# 1 92.9491 50.5423 30.0252 -0.0001 -6.1833 0.0000
# 2 50.5423 92.9491 30.0252 0.0001 6.1833 0.0000
# 3 30.0252 30.0252 121.2747 0.0000 0.0000 0.0000
# 4 -0.0001 0.0001 0.0000 26.1018 0.0000 6.1833
# 5 -6.1833 6.1833 0.0000 0.0000 26.1018 -0.0001
# 6 0.0000 0.0000 0.0000 6.1833 -0.0001 21.2034
#
#
#
# Elastic Compliance Matrix: (Units=1/GPa)
#
#
# Indices 1 2 3 4 5 6 
#
# 1 0.016553 -0.008778 -0.001925 0.000000 0.006001 0.000000
# 2 -0.008778 0.016553 -0.001925 0.000000 -0.006001 0.000000
# 3 -0.001925 -0.001925 0.009199 0.000000 0.000000 0.000000
# 4 0.000000 0.000000 0.000000 0.041155 0.000000 -0.012001
# 5 0.006001 -0.006001 0.000000 0.000000 0.041155 0.000000
# 6 0.000000 0.000000 0.000000 -0.012001 0.000000 0.050662
#
#
# Mechanical properties :
#
#
# Convention : Reuss Voigt Hill
#
# Bulk Modulus (GPa) = 58.65555 58.70650 58.68103
# Shear Modulus (GPa) = 24.24658 27.78673 26.01665
#
# Velocity S-wave (km/s) = 3.36815 3.60566 3.48893
# Velocity P-wave (km/s) = 6.52453 6.69342 6.60951
#
# Compressibility (1/GPa) = 0.01704868
#
# Stress axis : x y z
#
# Youngs Moduli (GPa) = 60.41263 60.41263 108.70933
#
# Poissons Ratio (x) = 0.53032 0.20925
# Poissons Ratio (y) = 0.53032 0.20925
# Poissons Ratio (z) = 0.11628 0.11628
#
# Static dielectric constant tensor:
#      x y z
#    x 3.850060 0.000000 0.000000 
#    y 0.000000 3.850060 0.000000 
#    z 0.000000 0.000000 4.364000 
# 
# 
# High freq. dielectric constant tensor:
#      x y z
#    x 1.822930 0.000000 0.000000 
#    y 0.000000 1.822930 0.000000 
#    z 0.000000 0.000000 1.849330 
# 
# From -- ./inp_files/3968.got.cif
#   From: 2010.03.12/outbox.cif.g09.slc.cpg/sg151_2_cif.got.tgz:3968.got - 2010.04.03 13:42:29.
