data_PCOD8322128
_publ_section_title
;
Structure prediction by ZEFSAII (Michael W. Deem and Ramdas Pophale) SiO2 
 PCOD8322128
Probable space group: P 31 2 1
;
_chemical_formula_sum "Si O2"
_cell_formula_units_Z 36
_cell_length_a 8.735853
_cell_length_b 8.735853
_cell_length_c 25.761442
_cell_angle_alpha 90.000000
_cell_angle_beta 90.000000
_cell_angle_gamma 120.000000
_cell_volume 1702.595321
_symmetry_space_group_name_H-M "P 31 2 1"
_symmetry_group_IT_number 152
_symmetry_cell_setting 'hexagonal'
loop_
_space_group_symop_operation_xyz
x,y,z
-y,x-y,1/3+z
-x+y,-x,2/3+z
x-y,-y,2/3-z
-x,-x+y,1/3-z
y,x,-z
loop_
_atom_site_type_symbol
_atom_site_label
_atom_site_fract_x
_atom_site_fract_y
_atom_site_fract_z
Si Si1 0.799263 0.495553 0.361836
Si Si2 0.042767 0.925589 0.949337
Si Si3 0.134768 0.897713 0.553047
Si Si4 0.379396 0.140984 0.225455
Si Si5 0.859544 0.358955 0.928124
Si Si6 0.891584 0.468341 0.720787
O O1 0.802205 0.675921 0.380748
O O2 0.780871 0.492540 0.299910
O O3 0.977889 0.496376 0.374821
O O4 0.629088 0.314759 0.382885
O O5 0.067551 0.041585 0.898051
O O6 0.025822 0.025822 0.000000
O O7 0.862407 0.741268 0.941768
O O8 0.134735 0.849550 0.493420
O O9 0.324281 0.073058 0.560842
O O10 0.104153 0.748641 0.594376
O O11 0.563177 0.326376 0.225963
O O12 0.416440 0.979554 0.232138
O O13 0.000000 0.505908 0.666667
#
# Coordination Sequence:
#
# PCOD8322128 Si02
#       6
#     6   6   6   6   6   6
#     4  10  22  36  60  88 117 153 208 258 298 361
#     4  11  22  39  62  89 119 164 211 260 312 381
#     4  11  23  39  61  90 127 164 206 255 325 380
#     4  11  23  39  61  90 129 163 202 261 323 378
#     4  10  21  38  58  86 121 156 201 253 307 367
#     4  11  22  39  64  94 122 166 215 258 310 383
#
# _framework density 21.144192
#
# number of rings (size 3 to 8) (size 9 to 14) (size 15 to 20)
#    0.000    1.333    3.333    2.500    4.667    0.000 
#    0.000    0.000    0.000    6.000    0.000    0.000 
#    0.000    0.000    0.000    0.000    0.000    0.000 
#
# Total GULP energy -446138.473974 kJ/mol
# GULP energy per Si atom -12392.735388 kJ/mol
# Density = 2.109607 g / cm^3
# Si number density = 21.144192 Si / 1000 Ang^3
#
#
#
# Elastic Constant Matrix: (Units=GPa)
#
#
# Indices 1 2 3 4 5 6 
#
# 1 96.5512 39.2111 14.8003 -1.7375 0.0000 0.0000
# 2 39.2111 96.5512 14.8003 1.7375 0.0000 0.0000
# 3 14.8003 14.8003 63.6792 0.0000 0.0000 0.0000
# 4 -1.7375 1.7375 0.0000 31.9999 0.0000 0.0000
# 5 0.0000 0.0000 0.0000 0.0000 31.9999 -1.7375
# 6 0.0000 0.0000 0.0000 0.0000 -1.7375 28.6700
#
#
#
# Elastic Compliance Matrix: (Units=1/GPa)
#
#
# Indices 1 2 3 4 5 6 
#
# 1 0.012628 -0.004869 -0.001803 0.000950 0.000000 0.000000
# 2 -0.004869 0.012628 -0.001803 -0.000950 0.000000 0.000000
# 3 -0.001803 -0.001803 0.016542 0.000000 0.000000 0.000000
# 4 0.000950 -0.000950 0.000000 0.031353 0.000000 0.000000
# 5 0.000000 0.000000 0.000000 0.000000 0.031353 0.001900
# 6 0.000000 0.000000 0.000000 0.000000 0.001900 0.034995
#
#
# Mechanical properties :
#
#
# Convention : Reuss Voigt Hill
#
# Bulk Modulus (GPa) = 40.24695 43.82278 42.03487
# Shear Modulus (GPa) = 30.35202 31.06529 30.70866
#
# Velocity S-wave (km/s) = 3.79288 3.83719 3.81510
# Velocity P-wave (km/s) = 6.18523 6.35631 6.27136
#
# Compressibility (1/GPa) = 0.02484660
#
# Stress axis : x y z
#
# Youngs Moduli (GPa) = 79.18786 79.18786 60.45221
#
# Poissons Ratio (x) = 0.38558 0.10902
# Poissons Ratio (y) = 0.38558 0.10902
# Poissons Ratio (z) = 0.14280 0.14280
#
# Static dielectric constant tensor:
#      x y z
#    x 3.970720 0.000000 0.000000 
#    y 0.000000 3.970720 0.000000 
#    z 0.000000 0.000000 3.571860 
# 
# 
# High freq. dielectric constant tensor:
#      x y z
#    x 1.829940 0.000000 0.000000 
#    y 0.000000 1.829940 0.000000 
#    z 0.000000 0.000000 1.814250 
# 
# From -- ./inp_files/3419.got.cif
#   From: 2010.03.12/outbox.cif.g09.slc.cpg/sg152_2_cif.got.tgz:3419.got - 2010.04.03 13:45:27.
