data_PCOD8322423
_publ_section_title
;
Structure prediction by ZEFSAII (Michael W. Deem and Ramdas Pophale) SiO2 
 PCOD8322423
Probable space group: P 32 2 1
;
_chemical_formula_sum "Si O2"
_cell_formula_units_Z 36
_cell_length_a 11.376299
_cell_length_b 11.376299
_cell_length_c 13.337752
_cell_angle_alpha 90.000000
_cell_angle_beta 90.000000
_cell_angle_gamma 120.000000
_cell_volume 1494.910752
_symmetry_space_group_name_H-M "P 32 2 1"
_symmetry_group_IT_number 154
_symmetry_cell_setting 'hexagonal'
loop_
_space_group_symop_operation_xyz
x,y,z
-y,x-y,2/3+z
-x+y,-x,1/3+z
x-y,-y,1/3-z
-x,-x+y,2/3-z
y,x,-z
loop_
_atom_site_type_symbol
_atom_site_label
_atom_site_fract_x
_atom_site_fract_y
_atom_site_fract_z
Si Si1 0.851382 0.662548 0.840037
Si Si2 0.074108 0.000000 0.166667
Si Si3 0.785725 0.382963 0.921246
Si Si4 0.468492 0.721811 0.881133
Si Si5 0.349700 0.000000 0.666667
Si Si6 0.309973 0.062186 0.305802
Si Si7 0.891424 0.713725 0.253343
O O1 0.856037 0.532561 0.877662
O O2 0.796133 0.627838 0.728617
O O3 0.000000 0.793501 0.833334
O O4 0.764433 0.700732 0.914428
O O5 0.192472 0.073286 0.248534
O O6 0.070208 0.131101 0.120709
O O7 0.639831 0.278137 0.872177
O O8 0.771688 0.395238 0.041020
O O9 0.892243 0.330866 0.899530
O O10 0.601763 0.854391 0.833754
O O11 0.513876 0.627633 0.944026
O O12 0.248041 0.911164 0.351475
O O13 0.000000 0.716325 0.333334
#
# Coordination Sequence:
#
# PCOD8322423 Si02
#       7
#     6   3   6   6   3   6   6
#     4  11  25  45  73 104 142 196 245 304 369 446
#     4  10  26  46  74 110 148 194 246 316 378 454
#     4  11  26  48  71 109 151 196 254 313 377 463
#     4  11  24  49  74 108 153 200 257 315 383 462
#     4  10  24  48  76 106 140 200 248 314 368 454
#     4  11  24  46  71 108 146 193 239 310 374 441
#     4  10  24  49  75 110 151 195 253 312 385 461
#
# _framework density 24.081703999999998
#
# number of rings (size 3 to 8) (size 9 to 14) (size 15 to 20)
#    0.000    1.333    3.333    0.000    7.000    4.000 
#   18.000    0.000    0.000    0.000    0.000    0.000 
#    0.000    0.000    0.000    0.000    0.000    0.000 
#
# Total GULP energy -446186.340261 kJ/mol
# GULP energy per Si atom -12394.065007 kJ/mol
# Density = 2.402689 g / cm^3
# Si number density = 24.081704 Si / 1000 Ang^3
#
#
#
# Elastic Constant Matrix: (Units=GPa)
#
#
# Indices 1 2 3 4 5 6 
#
# 1 94.4902 39.3918 34.9355 -0.6931 0.0003 0.0000
# 2 39.3918 94.4902 34.9355 0.6931 -0.0003 0.0000
# 3 34.9355 34.9355 122.3093 0.0000 0.0000 0.0000
# 4 -0.6931 0.6931 0.0000 37.1738 0.0000 -0.0003
# 5 0.0003 -0.0003 0.0000 0.0000 37.1738 -0.6931
# 6 0.0000 0.0000 0.0000 -0.0003 -0.6931 27.5492
#
#
#
# Elastic Compliance Matrix: (Units=1/GPa)
#
#
# Indices 1 2 3 4 5 6 
#
# 1 0.013468 -0.004690 -0.002507 0.000339 0.000000 0.000000
# 2 -0.004690 0.013468 -0.002507 -0.000339 0.000000 0.000000
# 3 -0.002507 -0.002507 0.009608 0.000000 0.000000 0.000000
# 4 0.000339 -0.000339 0.000000 0.026913 0.000000 0.000000
# 5 0.000000 0.000000 0.000000 0.000000 0.026913 0.000677
# 6 0.000000 0.000000 0.000000 0.000000 0.000677 0.036316
#
#
# Mechanical properties :
#
#
# Convention : Reuss Voigt Hill
#
# Bulk Modulus (GPa) = 58.36032 58.86834 58.61433
# Shear Modulus (GPa) = 32.93661 33.84781 33.39221
#
# Velocity S-wave (km/s) = 3.70226 3.75312 3.72778
# Velocity P-wave (km/s) = 6.52400 6.57872 6.55142
#
# Compressibility (1/GPa) = 0.01713493
#
# Stress axis : x y z
#
# Youngs Moduli (GPa) = 74.25122 74.25122 104.07699
#
# Poissons Ratio (x) = 0.34824 0.26094
# Poissons Ratio (y) = 0.34824 0.26094
# Poissons Ratio (z) = 0.18616 0.18616
#
# Static dielectric constant tensor:
#      x y z
#    x 4.235770 0.000000 0.000000 
#    y 0.000000 4.235770 0.000000 
#    z 0.000000 0.000000 4.700830 
# 
# 
# High freq. dielectric constant tensor:
#      x y z
#    x 1.944870 0.000000 0.000000 
#    y 0.000000 1.944870 0.000000 
#    z 0.000000 0.000000 1.976600 
# 
# From -- ./inp_files/2037.got.cif
#   From: 2010.03.12/outbox.cif.g09.slc.cpg/sg154_2_cif.got.tgz:2037.got - 2010.04.03 13:51:21.
