data_PCOD8322528
_publ_section_title
;
Structure prediction by ZEFSAII (Michael W. Deem and Ramdas Pophale) SiO2 
 PCOD8322528
Probable space group: R 3 2
;
_chemical_formula_sum "Si O2"
_cell_formula_units_Z 126
_cell_length_a 19.769468
_cell_length_b 19.769468
_cell_length_c 18.601747
_cell_angle_alpha 90.000000
_cell_angle_beta 90.000000
_cell_angle_gamma 120.000000
_cell_volume 6296.139328
_symmetry_space_group_name_H-M "R 3 2"
_symmetry_group_IT_number 155
_symmetry_cell_setting 'hexagonal'
loop_
_space_group_symop_operation_xyz
x,y,z
-y,x-y,z
-x+y,-x,z
x-y,-y,-z
-x,-x+y,-z
y,x,-z
2/3+x,1/3+y,1/3+z
2/3-y,1/3+x-y,1/3+z
2/3-x+y,1/3-x,1/3+z
2/3+x-y,1/3-y,1/3-z
2/3-x,1/3-x+y,1/3-z
2/3+y,1/3+x,1/3-z
1/3+x,2/3+y,2/3+z
1/3-y,2/3+x-y,2/3+z
1/3-x+y,2/3-x,2/3+z
1/3+x-y,2/3-y,2/3-z
1/3-x,2/3-x+y,2/3-z
1/3+y,2/3+x,2/3-z
loop_
_atom_site_type_symbol
_atom_site_label
_atom_site_fract_x
_atom_site_fract_y
_atom_site_fract_z
Si Si1 0.435771 0.012835 0.831493
Si Si2 0.699177 0.146673 0.110939
Si Si3 0.077399 0.529275 0.951961
Si Si4 0.415644 0.832702 0.191838
Si Si5 0.397002 0.270805 0.270117
Si Si6 0.526979 0.143194 0.649276
Si Si7 0.303033 0.090749 0.992263
O O1 0.366750 0.033416 0.833334
O O2 0.518040 0.090312 0.849797
O O3 0.412772 0.945546 0.888590
O O4 0.445843 0.977848 0.757729
O O5 0.613288 0.102540 0.078851
O O6 0.694786 0.143420 0.197862
O O7 0.738879 0.099249 0.080663
O O8 0.746430 0.237211 0.083212
O O9 0.154232 0.531464 0.986137
O O10 0.000000 0.499573 0.000000
O O11 0.333334 0.759939 0.166667
O O12 0.485261 0.818595 0.166667
O O13 0.419102 0.843639 0.277527
O O14 0.419478 0.333334 0.333334
O O15 0.411425 0.202944 0.300076
O O16 0.455892 0.055325 0.641724
O O17 0.256056 0.000000 0.000000
#
# Coordination Sequence:
#
# PCOD8322528 Si02
#       7
#    18  18  18  18  18  18  18
#     4  10  21  36  59  93 124 156 207 266 309 368
#     4  10  24  41  63  93 125 171 205 262 327 378
#     4  12  23  39  64  92 128 166 213 258 323 380
#     4  10  21  37  57  85 124 168 209 243 306 378
#     4  10  21  43  64  89 127 160 216 263 316 385
#     4  10  23  39  59  91 131 157 209 261 310 386
#     4  10  20  37  64  90 117 162 204 259 321 369
#
# _framework density 20.012263999999998
#
# number of rings (size 3 to 8) (size 9 to 14) (size 15 to 20)
#    0.000    1.714    0.000    5.286    6.000    0.000 
#    6.000    0.000    0.000    0.286    0.000    0.000 
#    0.000    0.000    0.000    0.000    0.000    0.000 
#
# Total GULP energy -520707.302389 kJ/mol
# GULP energy per Si atom -12397.792914 kJ/mol
# Density = 1.996671 g / cm^3
# Si number density = 20.012264 Si / 1000 Ang^3
#
#
#
# Elastic Constant Matrix: (Units=GPa)
#
#
# Indices 1 2 3 4 5 6 
#
# 1 100.2419 34.5847 43.3078 7.2568 -0.0001 0.0000
# 2 34.5847 100.2419 43.3078 -7.2568 0.0001 0.0000
# 3 43.3078 43.3078 113.1190 0.0000 0.0000 0.0000
# 4 7.2568 -7.2568 0.0000 36.1889 0.0000 0.0001
# 5 -0.0001 0.0001 0.0000 0.0000 36.1889 7.2568
# 6 0.0000 0.0000 0.0000 0.0001 7.2568 32.8286
#
#
#
# Elastic Compliance Matrix: (Units=1/GPa)
#
#
# Indices 1 2 3 4 5 6 
#
# 1 0.012887 -0.003050 -0.003766 -0.003196 0.000000 0.000000
# 2 -0.003050 0.012887 -0.003766 0.003196 0.000000 0.000000
# 3 -0.003766 -0.003766 0.011724 0.000000 0.000000 0.000000
# 4 -0.003196 0.003196 0.000000 0.028914 0.000000 0.000000
# 5 0.000000 0.000000 0.000000 0.000000 0.028914 -0.006392
# 6 0.000000 0.000000 0.000000 0.000000 -0.006392 0.031874
#
#
# Mechanical properties :
#
#
# Convention : Reuss Voigt Hill
#
# Bulk Modulus (GPa) = 61.22616 61.77814 61.50215
# Shear Modulus (GPa) = 32.50799 33.86812 33.18805
#
# Velocity S-wave (km/s) = 4.03476 4.11830 4.07675
# Velocity P-wave (km/s) = 7.23647 7.31786 7.27728
#
# Compressibility (1/GPa) = 0.01633289
#
# Stress axis : x y z
#
# Youngs Moduli (GPa) = 77.59988 77.59988 85.29708
#
# Poissons Ratio (x) = 0.23671 0.32121
# Poissons Ratio (y) = 0.23671 0.32121
# Poissons Ratio (z) = 0.29223 0.29223
#
# Static dielectric constant tensor:
#      x y z
#    x 3.549050 0.000000 0.000000 
#    y 0.000000 3.549050 0.000000 
#    z 0.000000 0.000000 3.710960 
# 
# 
# High freq. dielectric constant tensor:
#      x y z
#    x 1.771470 0.000000 0.000000 
#    y 0.000000 1.771470 0.000000 
#    z 0.000000 0.000000 1.792770 
# 
# From -- ./inp_files/6291.got.cif
#   From: 2010.03.12/outbox.cif.g09.slc.cpg/sg155_4_cif.got.tgz:6291.got - 2010.04.03 13:54:13.
