data_PCOD8322205
_publ_section_title
;
Structure prediction by ZEFSAII (Michael W. Deem and Ramdas Pophale) SiO2 
 PCOD8322205
Probable space group: P 31 2 1
;
_chemical_formula_sum "Si O2"
_cell_formula_units_Z 36
_cell_length_a 8.837406
_cell_length_b 8.837406
_cell_length_c 24.206350
_cell_angle_alpha 90.000000
_cell_angle_beta 90.000000
_cell_angle_gamma 120.000000
_cell_volume 1637.229476
_symmetry_space_group_name_H-M "P 31 2 1"
_symmetry_group_IT_number 152
_symmetry_cell_setting 'hexagonal'
loop_
_space_group_symop_operation_xyz
x,y,z
-y,x-y,1/3+z
-x+y,-x,2/3+z
x-y,-y,2/3-z
-x,-x+y,1/3-z
y,x,-z
loop_
_atom_site_type_symbol
_atom_site_label
_atom_site_fract_x
_atom_site_fract_y
_atom_site_fract_z
Si Si1 0.765026 0.854171 0.245447
Si Si2 0.041032 0.562013 0.766470
Si Si3 0.000000 0.051844 0.666667
Si Si4 0.789119 0.000000 0.833334
Si Si5 0.239738 0.413326 0.708913
Si Si6 0.490156 0.796579 0.919357
Si Si7 0.466562 0.879908 0.557654
O O1 0.576869 0.688730 0.255746
O O2 0.849213 0.824457 0.190002
O O3 0.735102 0.022278 0.241025
O O4 0.882417 0.870919 0.298161
O O5 0.169464 0.547450 0.721862
O O6 0.121477 0.565444 0.825668
O O7 0.856483 0.391048 0.759484
O O8 0.908639 0.118537 0.623067
O O9 0.643524 0.935984 0.880999
O O10 0.325928 0.461006 0.648547
O O11 0.363565 0.419004 0.757369
O O12 0.296664 0.768230 0.907077
#
# Coordination Sequence:
#
# PCOD8322205 Si02
#       7
#     6   6   3   3   6   6   6
#     4  11  26  43  73 102 138 185 244 293 369 443
#     4  11  23  46  72 101 135 191 241 293 361 438
#     4  12  26  44  68 106 140 190 230 302 368 430
#     4  12  22  48  70 104 150 186 236 314 366 444
#     4  12  24  46  72 100 149 184 238 307 361 436
#     4  11  24  44  72 102 140 192 233 295 378 427
#     4  11  27  45  71 103 139 191 244 297 362 444
#
# _framework density 21.988367
#
# number of rings (size 3 to 8) (size 9 to 14) (size 15 to 20)
#    0.000    0.667    5.000    2.000    9.333    0.000 
#    3.000    0.000    0.000    0.000    0.000    0.000 
#    0.000    0.000    0.000    0.000    0.000    0.000 
#
# Total GULP energy -446312.984480 kJ/mol
# GULP energy per Si atom -12397.582902 kJ/mol
# Density = 2.193832 g / cm^3
# Si number density = 21.988367 Si / 1000 Ang^3
#
#
#
# Elastic Constant Matrix: (Units=GPa)
#
#
# Indices 1 2 3 4 5 6 
#
# 1 106.7857 40.7955 30.0894 5.3587 0.0000 0.0000
# 2 40.7955 106.7857 30.0894 -5.3587 0.0000 0.0000
# 3 30.0894 30.0894 99.4609 0.0000 0.0000 0.0000
# 4 5.3587 -5.3587 0.0000 31.6866 0.0000 0.0000
# 5 0.0000 0.0000 0.0000 0.0000 31.6866 5.3587
# 6 0.0000 0.0000 0.0000 0.0000 5.3587 32.9951
#
#
#
# Elastic Compliance Matrix: (Units=1/GPa)
#
#
# Indices 1 2 3 4 5 6 
#
# 1 0.011656 -0.003926 -0.002338 -0.002635 0.000000 0.000000
# 2 -0.003926 0.011656 -0.002338 0.002635 0.000000 0.000000
# 3 -0.002338 -0.002338 0.011469 0.000000 0.000000 0.000000
# 4 -0.002635 0.002635 0.000000 0.032450 0.000000 0.000000
# 5 0.000000 0.000000 0.000000 0.000000 0.032450 -0.005270
# 6 0.000000 0.000000 0.000000 0.000000 -0.005270 0.031163
#
#
# Mechanical properties :
#
#
# Convention : Reuss Voigt Hill
#
# Bulk Modulus (GPa) = 56.90064 57.22011 57.06038
# Shear Modulus (GPa) = 32.48689 33.41087 32.94888
#
# Velocity S-wave (km/s) = 3.84794 3.90228 3.87521
# Velocity P-wave (km/s) = 6.75840 6.81051 6.78451
#
# Compressibility (1/GPa) = 0.01757449
#
# Stress axis : x y z
#
# Youngs Moduli (GPa) = 85.79581 85.79581 87.19144
#
# Poissons Ratio (x) = 0.33685 0.20388
# Poissons Ratio (y) = 0.33685 0.20388
# Poissons Ratio (z) = 0.20062 0.20062
#
# Static dielectric constant tensor:
#      x y z
#    x 4.181490 0.000000 0.000000 
#    y 0.000000 4.181490 0.000000 
#    z 0.000000 0.000000 3.877930 
# 
# 
# High freq. dielectric constant tensor:
#      x y z
#    x 1.861670 0.000000 0.000000 
#    y 0.000000 1.861670 0.000000 
#    z 0.000000 0.000000 1.870480 
# 
# From -- ./inp_files/3425.got.cif
#   From: 2010.03.12/outbox.cif.g09.slc.cpg/sg152_2_cif.got.tgz:3425.got - 2010.04.03 13:45:27.
