data_PCOD8322080
_publ_section_title
;
Structure prediction by ZEFSAII (Michael W. Deem and Ramdas Pophale) SiO2 
 PCOD8322080
Probable space group: P 31 2 1
;
_chemical_formula_sum "Si O2"
_cell_formula_units_Z 48
_cell_length_a 11.824175
_cell_length_b 11.824175
_cell_length_c 19.930152
_cell_angle_alpha 90.000000
_cell_angle_beta 90.000000
_cell_angle_gamma 120.000000
_cell_volume 2413.142342
_symmetry_space_group_name_H-M "P 31 2 1"
_symmetry_group_IT_number 152
_symmetry_cell_setting 'hexagonal'
loop_
_space_group_symop_operation_xyz
x,y,z
-y,x-y,1/3+z
-x+y,-x,2/3+z
x-y,-y,2/3-z
-x,-x+y,1/3-z
y,x,-z
loop_
_atom_site_type_symbol
_atom_site_label
_atom_site_fract_x
_atom_site_fract_y
_atom_site_fract_z
Si Si1 0.708289 0.563088 0.911747
Si Si2 0.926362 0.583084 0.599274
Si Si3 0.618230 0.869760 0.963616
Si Si4 0.605607 0.288386 0.729703
Si Si5 0.656039 0.173290 0.470515
Si Si6 0.848146 0.550841 0.271985
Si Si7 0.676817 0.534110 0.525121
Si Si8 0.106556 0.367850 0.508956
O O1 0.567143 0.458144 0.940536
O O2 0.771244 0.485914 0.876587
O O3 0.709774 0.659804 0.853028
O O4 0.798736 0.645194 0.974107
O O5 0.797698 0.591560 0.578945
O O6 0.000000 0.662349 0.666667
O O7 0.038169 0.653923 0.542461
O O8 0.466033 0.809923 0.952666
O O9 0.687453 0.854799 0.897007
O O10 0.678064 0.022148 0.976471
O O11 0.717911 0.440106 0.744225
O O12 0.531041 0.283392 0.663411
O O13 0.513835 0.239816 0.795274
O O14 0.514633 0.156021 0.470615
O O15 0.871329 0.456299 0.222347
O O16 0.792910 0.633547 0.231893
O O17 0.647137 0.647137 0.500000
#
# Coordination Sequence:
#
# PCOD8322080 Si02
#       8
#     6   6   6   6   6   6   6   6
#     4  11  21  35  61  93 127 156 206 269 326 383
#     4  11  22  39  62  91 129 171 208 261 337 386
#     4  11  21  36  60  86 120 160 202 249 323 383
#     4  11  22  36  60  93 127 162 208 257 320 385
#     4  10  20  35  58  89 127 159 200 255 318 383
#     4  12  22  37  62  91 123 164 211 260 319 396
#     4  12  22  43  62  93 135 175 209 271 329 392
#     4  10  20  37  55  85 125 156 196 255 318 373
#
# _framework density 19.891076000000002
#
# number of rings (size 3 to 8) (size 9 to 14) (size 15 to 20)
#    0.000    1.000    5.000    5.250    1.750    1.000 
#    2.250    0.000    0.000    1.500    0.000    0.000 
#    0.000    0.000    0.000    0.000    0.000    0.000 
#
# Total GULP energy -594904.928163 kJ/mol
# GULP energy per Si atom -12393.852670 kJ/mol
# Density = 1.984580 g / cm^3
# Si number density = 19.891076 Si / 1000 Ang^3
#
#
#
# Elastic Constant Matrix: (Units=GPa)
#
#
# Indices 1 2 3 4 5 6 
#
# 1 60.0518 24.1837 29.4872 2.7414 0.0001 0.0000
# 2 24.1837 60.0518 29.4872 -2.7414 -0.0001 0.0000
# 3 29.4872 29.4872 96.2940 0.0000 0.0000 0.0000
# 4 2.7414 -2.7414 0.0000 27.2676 0.0000 -0.0001
# 5 0.0001 -0.0001 0.0000 0.0000 27.2676 2.7414
# 6 0.0000 0.0000 0.0000 -0.0001 2.7414 17.9341
#
#
#
# Elastic Compliance Matrix: (Units=1/GPa)
#
#
# Indices 1 2 3 4 5 6 
#
# 1 0.021713 -0.006602 -0.004627 -0.002847 0.000000 0.000000
# 2 -0.006602 0.021713 -0.004627 0.002847 0.000000 0.000000
# 3 -0.004627 -0.004627 0.013219 0.000000 0.000000 0.000000
# 4 -0.002847 0.002847 0.000000 0.037246 0.000000 0.000000
# 5 0.000000 0.000000 0.000000 0.000000 0.037246 -0.005693
# 6 0.000000 0.000000 0.000000 0.000000 -0.005693 0.056630
#
#
# Mechanical properties :
#
#
# Convention : Reuss Voigt Hill
#
# Bulk Modulus (GPa) = 40.10953 42.52379 41.31666
# Shear Modulus (GPa) = 21.94993 23.37647 22.66320
#
# Velocity S-wave (km/s) = 3.32551 3.43187 3.37911
# Velocity P-wave (km/s) = 5.91217 6.09331 6.00342
#
# Compressibility (1/GPa) = 0.02493173
#
# Stress axis : x y z
#
# Youngs Moduli (GPa) = 46.05514 46.05514 75.64962
#
# Poissons Ratio (x) = 0.30405 0.35006
# Poissons Ratio (y) = 0.30405 0.35006
# Poissons Ratio (z) = 0.21311 0.21311
#
# Static dielectric constant tensor:
#      x y z
#    x 3.683530 0.000000 0.000000 
#    y 0.000000 3.683530 0.000000 
#    z 0.000000 0.000000 3.780860 
# 
# 
# High freq. dielectric constant tensor:
#      x y z
#    x 1.751760 0.000000 0.000000 
#    y 0.000000 1.751760 0.000000 
#    z 0.000000 0.000000 1.784680 
# 
# From -- ./inp_files/2851.got.cif
#   From: 2010.03.12/outbox.cif.g09.slc.cpg/sg152_2_cif.got.tgz:2851.got - 2010.04.03 13:45:27.
