data_PCOD8322516
_publ_section_title
;
Structure prediction by ZEFSAII (Michael W. Deem and Ramdas Pophale) SiO2 
 PCOD8322516
Probable space group: R 3 2
;
_chemical_formula_sum "Si O2"
_cell_formula_units_Z 144
_cell_length_a 30.131603
_cell_length_b 30.131603
_cell_length_c 9.459995
_cell_angle_alpha 90.000000
_cell_angle_beta 90.000000
_cell_angle_gamma 120.000000
_cell_volume 7438.168494
_symmetry_space_group_name_H-M "R 3 2"
_symmetry_group_IT_number 155
_symmetry_cell_setting 'hexagonal'
loop_
_space_group_symop_operation_xyz
x,y,z
-y,x-y,z
-x+y,-x,z
x-y,-y,-z
-x,-x+y,-z
y,x,-z
2/3+x,1/3+y,1/3+z
2/3-y,1/3+x-y,1/3+z
2/3-x+y,1/3-x,1/3+z
2/3+x-y,1/3-y,1/3-z
2/3-x,1/3-x+y,1/3-z
2/3+y,1/3+x,1/3-z
1/3+x,2/3+y,2/3+z
1/3-y,2/3+x-y,2/3+z
1/3-x+y,2/3-x,2/3+z
1/3+x-y,2/3-y,2/3-z
1/3-x,2/3-x+y,2/3-z
1/3+y,2/3+x,2/3-z
loop_
_atom_site_type_symbol
_atom_site_label
_atom_site_fract_x
_atom_site_fract_y
_atom_site_fract_z
Si Si1 0.723469 0.274365 0.827784
Si Si2 0.302220 0.871090 0.800299
Si Si3 0.283681 0.141664 0.244355
Si Si4 0.734291 0.213846 0.590085
Si Si5 0.098201 0.945766 0.980906
Si Si6 0.460245 0.841214 0.422395
Si Si7 0.296955 0.905435 0.288920
Si Si8 0.196285 0.811772 0.242153
O O1 0.766107 0.333334 0.833334
O O2 0.666667 0.266935 0.833334
O O3 0.731735 0.257736 0.675867
O O4 0.729766 0.238125 0.942604
O O5 0.333334 0.909119 0.666667
O O6 0.244473 0.857138 0.846321
O O7 0.298150 0.816988 0.774413
O O8 0.338728 0.900402 0.927862
O O9 0.333334 0.187297 0.166667
O O10 0.233596 0.145607 0.207679
O O11 0.292862 0.153224 0.411961
O O12 0.762915 0.244008 0.447060
O O13 0.676018 0.167158 0.571094
O O14 0.761247 0.187425 0.675385
O O15 0.050282 0.911099 0.880234
O O16 0.099099 0.000000 0.000000
O O17 0.333334 0.940267 0.166667
O O18 0.267870 0.934537 0.333334
O O19 0.256967 0.849180 0.235590
O O20 0.166603 0.833269 0.333334
#
# Coordination Sequence:
#
# PCOD8322516 Si02
#       8
#    18  18  18  18  18  18  18  18
#     4  10  20  35  58  88 124 159 198 243 296 356
#     4  10  22  38  58  83 120 160 205 254 298 351
#     4  11  24  40  61  89 122 162 202 255 314 370
#     4  11  22  39  64  89 121 157 205 258 306 366
#     4  10  20  36  58  89 123 162 201 246 299 358
#     4  10  22  40  61  93 122 159 204 255 308 366
#     4  11  24  40  58  86 122 166 210 254 301 357
#     4  11  24  39  61  90 120 154 208 255 310 370
#
# _framework density 19.359603
#
# number of rings (size 3 to 8) (size 9 to 14) (size 15 to 20)
#    0.000    1.500    2.500    2.750    7.000    2.500 
#    0.000    0.000    0.000    3.500    3.250    0.000 
#    0.000    0.000    0.000    0.000    0.000    0.000 
#
# Total GULP energy -594632.180709 kJ/mol
# GULP energy per Si atom -12388.170431 kJ/mol
# Density = 1.931554 g / cm^3
# Si number density = 19.359603 Si / 1000 Ang^3
#
#
#
# Elastic Constant Matrix: (Units=GPa)
#
#
# Indices 1 2 3 4 5 6 
#
# 1 93.6968 53.1651 35.0836 -1.1315 0.0049 -0.0176
# 2 53.1651 93.7374 35.1802 1.1571 0.0119 0.0017
# 3 35.0836 35.1802 112.0607 0.1182 0.0026 -0.0111
# 4 -1.1315 1.1571 0.1182 25.8802 0.0478 -0.0068
# 5 0.0049 0.0119 0.0026 0.0478 25.9038 -1.1500
# 6 -0.0176 0.0017 -0.0111 -0.0068 -1.1500 20.2556
#
#
#
# Elastic Compliance Matrix: (Units=1/GPa)
#
#
# Indices 1 2 3 4 5 6 
#
# 1 0.016364 -0.008356 -0.002501 0.001100 0.000000 0.000014
# 2 -0.008356 0.016367 -0.002521 -0.001086 -0.000004 -0.000011
# 3 -0.002501 -0.002521 0.010498 -0.000045 0.000001 0.000004
# 4 0.001100 -0.001086 -0.000045 0.038736 -0.000071 0.000010
# 5 0.000000 -0.000004 0.000001 -0.000071 0.038702 0.002197
# 6 0.000014 -0.000011 0.000004 0.000010 0.002197 0.049494
#
#
# Mechanical properties :
#
#
# Convention : Reuss Voigt Hill
#
# Bulk Modulus (GPa) = 60.70564 60.70585 60.70575
# Shear Modulus (GPa) = 24.70253 26.14566 25.42410
#
# Velocity S-wave (km/s) = 3.57597 3.67894 3.62782
# Velocity P-wave (km/s) = 6.96240 7.03357 6.99808
#
# Compressibility (1/GPa) = 0.01647293
#
# Stress axis : x y z
#
# Youngs Moduli (GPa) = 61.11036 61.09877 95.25412
#
# Poissons Ratio (x) = 0.51054 0.23823
# Poissons Ratio (y) = 0.51064 0.24013
# Poissons Ratio (z) = 0.15284 0.15403
#
# Static dielectric constant tensor:
#      x y z
#    x 3.560390 0.000000 -0.000340 
#    y 0.000000 3.561160 0.000180 
#    z -0.000340 0.000180 3.802230 
# 
# 
# High freq. dielectric constant tensor:
#      x y z
#    x 1.737490 0.000000 -0.000020 
#    y 0.000000 1.737500 0.000000 
#    z -0.000020 0.000000 1.774390 
# 
# From -- ./inp_files/3074.got.cif
#   From: 2010.03.12/outbox.cif.g09.slc.cpg/sg155_2_cif.got.tgz:3074.got - 2010.04.03 13:54:13.
