data_PCOD8322026
_publ_section_title
;
Structure prediction by ZEFSAII (Michael W. Deem and Ramdas Pophale) SiO2 
 PCOD8322026
Probable space group: P 31 2 1
;
_chemical_formula_sum "Si O2"
_cell_formula_units_Z 42
_cell_length_a 14.492549
_cell_length_b 14.492549
_cell_length_c 12.810892
_cell_angle_alpha 90.000000
_cell_angle_beta 90.000000
_cell_angle_gamma 120.000000
_cell_volume 2330.234117
_symmetry_space_group_name_H-M "P 31 2 1"
_symmetry_group_IT_number 152
_symmetry_cell_setting 'hexagonal'
loop_
_space_group_symop_operation_xyz
x,y,z
-y,x-y,1/3+z
-x+y,-x,2/3+z
x-y,-y,2/3-z
-x,-x+y,1/3-z
y,x,-z
loop_
_atom_site_type_symbol
_atom_site_label
_atom_site_fract_x
_atom_site_fract_y
_atom_site_fract_z
Si Si1 0.623878 0.732613 0.729575
Si Si2 0.096739 0.576551 0.379224
Si Si3 0.368600 0.318386 0.106882
Si Si4 0.452434 0.851307 0.646441
Si Si5 0.572927 0.873802 0.846840
Si Si6 0.743470 0.608211 0.692122
Si Si7 0.834066 0.620869 0.473611
O O1 0.497654 0.647523 0.715155
O O2 0.637033 0.808844 0.828683
O O3 0.692057 0.673874 0.742544
O O4 0.668169 0.807142 0.627199
O O5 0.100231 0.623341 0.493669
O O6 0.154026 0.671090 0.293666
O O7 0.977079 0.502600 0.343468
O O8 0.266148 0.306106 0.169041
O O9 0.384908 0.384908 0.000000
O O10 0.344380 0.200428 0.082134
O O11 0.478962 0.822409 0.759814
O O12 0.328009 0.808139 0.622581
O O13 0.502231 0.814691 0.553029
O O14 0.654271 0.000000 0.833334
O O15 0.760602 0.621158 0.567170
#
# Coordination Sequence:
#
# PCOD8322026 Si02
#       7
#     6   6   6   6   6   6   6
#     4  10  19  32  55  80  98 130 181 216 250 306
#     4   9  17  33  49  70 102 134 166 207 254 301
#     4   9  19  35  53  72 106 143 166 200 261 312
#     4   8  16  30  49  71  98 130 170 213 255 302
#     4   9  17  32  52  73 104 136 163 209 266 307
#     4  10  18  32  52  76 103 133 176 217 250 309
#     4   9  17  32  52  74 103 138 168 212 265 305
#
# _framework density 18.023938999999999
#
# number of rings (size 3 to 8) (size 9 to 14) (size 15 to 20)
#    0.000    2.857    0.000    2.143    0.000    2.286 
#   10.286    5.000    0.000    5.143    0.000    0.000 
#    0.000    0.000    0.000    0.000    0.000    0.000 
#
# Total GULP energy -520404.822262 kJ/mol
# GULP energy per Si atom -12390.591006 kJ/mol
# Density = 1.798292 g / cm^3
# Si number density = 18.023939 Si / 1000 Ang^3
#
#
#
# Elastic Constant Matrix: (Units=GPa)
#
#
# Indices 1 2 3 4 5 6 
#
# 1 77.9711 34.5823 38.8511 4.8237 0.0000 0.0000
# 2 34.5823 77.9711 38.8511 -4.8237 0.0000 0.0000
# 3 38.8511 38.8511 96.3683 0.0000 0.0000 0.0000
# 4 4.8237 -4.8237 0.0000 24.5283 0.0000 0.0000
# 5 0.0000 0.0000 0.0000 0.0000 24.5283 4.8237
# 6 0.0000 0.0000 0.0000 0.0000 4.8237 21.6944
#
#
#
# Elastic Compliance Matrix: (Units=1/GPa)
#
#
# Indices 1 2 3 4 5 6 
#
# 1 0.018206 -0.005895 -0.004963 -0.004740 0.000000 0.000000
# 2 -0.005895 0.018206 -0.004963 0.004740 0.000000 0.000000
# 3 -0.004963 -0.004963 0.014379 0.000000 0.000000 0.000000
# 4 -0.004740 0.004740 0.000000 0.042634 0.000000 0.000000
# 5 0.000000 0.000000 0.000000 0.000000 0.042634 -0.009480
# 6 0.000000 0.000000 0.000000 0.000000 -0.009480 0.048203
#
#
# Mechanical properties :
#
#
# Convention : Reuss Voigt Hill
#
# Bulk Modulus (GPa) = 52.22494 52.98662 52.60578
# Shear Modulus (GPa) = 22.49347 23.48525 22.98936
#
# Velocity S-wave (km/s) = 3.53651 3.61363 3.57528
# Velocity P-wave (km/s) = 6.76122 6.84637 6.80393
#
# Compressibility (1/GPa) = 0.01914794
#
# Stress axis : x y z
#
# Youngs Moduli (GPa) = 54.92636 54.92636 69.54712
#
# Poissons Ratio (x) = 0.32380 0.34518
# Poissons Ratio (y) = 0.32380 0.34518
# Poissons Ratio (z) = 0.27261 0.27261
#
# Static dielectric constant tensor:
#      x y z
#    x 3.277620 0.000000 0.000000 
#    y 0.000000 3.277620 0.000000 
#    z 0.000000 0.000000 3.349140 
# 
# 
# High freq. dielectric constant tensor:
#      x y z
#    x 1.680940 0.000000 0.000000 
#    y 0.000000 1.680940 0.000000 
#    z 0.000000 0.000000 1.693150 
# 
# From -- ./inp_files/2156.got.cif
#   From: 2010.03.12/outbox.cif.g09.slc.cpg/sg152_2_cif.got.tgz:2156.got - 2010.04.03 13:45:27.
