data_PCOD8322200
_publ_section_title
;
Structure prediction by ZEFSAII (Michael W. Deem and Ramdas Pophale) SiO2 
 PCOD8322200
Probable space group: P 31 2 1
;
_chemical_formula_sum "Si O2"
_cell_formula_units_Z 36
_cell_length_a 12.047417
_cell_length_b 12.047417
_cell_length_c 13.424448
_cell_angle_alpha 90.000000
_cell_angle_beta 90.000000
_cell_angle_gamma 120.000000
_cell_volume 1687.387993
_symmetry_space_group_name_H-M "P 31 2 1"
_symmetry_group_IT_number 152
_symmetry_cell_setting 'hexagonal'
loop_
_space_group_symop_operation_xyz
x,y,z
-y,x-y,1/3+z
-x+y,-x,2/3+z
x-y,-y,2/3-z
-x,-x+y,1/3-z
y,x,-z
loop_
_atom_site_type_symbol
_atom_site_label
_atom_site_fract_x
_atom_site_fract_y
_atom_site_fract_z
Si Si1 0.375594 0.887406 0.131621
Si Si2 0.086342 0.722142 0.468269
Si Si3 0.849509 0.297716 0.389691
Si Si4 0.312512 0.746533 0.943332
Si Si5 0.822662 0.674489 0.517040
Si Si6 0.722598 0.125519 0.765040
O O1 0.512513 0.920716 0.180015
O O2 0.255998 0.856787 0.205370
O O3 0.412196 0.003933 0.055714
O O4 0.328395 0.762334 0.062306
O O5 0.212637 0.839578 0.514846
O O6 0.089008 0.730408 0.348618
O O7 0.975492 0.744191 0.513090
O O8 0.749425 0.346207 0.410007
O O9 0.821006 0.224077 0.286057
O O10 0.220890 0.798254 0.907978
O O11 0.448212 0.831209 0.887958
O O12 0.778251 0.778251 0.500000
O O13 0.685169 0.000000 0.833334
#
# Coordination Sequence:
#
# PCOD8322200 Si02
#       6
#     6   6   6   6   6   6
#     4  11  23  41  66 101 140 179 227 288 354 417
#     4  11  26  44  65 101 139 183 235 287 352 418
#     4  12  25  42  68 103 140 178 231 288 357 418
#     4  11  22  38  66 107 136 174 221 283 350 421
#     4  12  24  43  71  99 138 184 236 288 345 419
#     4  11  24  41  68  98 142 180 226 283 353 425
#
# _framework density 21.334751000000001
#
# number of rings (size 3 to 8) (size 9 to 14) (size 15 to 20)
#    0.000    0.667    5.000    3.000    7.000    0.667 
#    3.000    0.833    3.667    0.000    0.000    0.000 
#    0.000    0.000    0.000    0.000    0.000    0.000 
#
# Total GULP energy -446225.835729 kJ/mol
# GULP energy per Si atom -12395.162104 kJ/mol
# Density = 2.128619 g / cm^3
# Si number density = 21.334751 Si / 1000 Ang^3
#
#
#
# Elastic Constant Matrix: (Units=GPa)
#
#
# Indices 1 2 3 4 5 6 
#
# 1 101.8802 39.8957 39.7573 1.2755 0.0000 0.0000
# 2 39.8957 101.8802 39.7573 -1.2755 0.0000 0.0000
# 3 39.7573 39.7573 65.1843 0.0000 0.0000 0.0000
# 4 1.2755 -1.2755 0.0000 35.1771 0.0000 0.0000
# 5 0.0000 0.0000 0.0000 0.0000 35.1771 1.2755
# 6 0.0000 0.0000 0.0000 0.0000 1.2755 30.9923
#
#
#
# Elastic Compliance Matrix: (Units=1/GPa)
#
#
# Indices 1 2 3 4 5 6 
#
# 1 0.013439 -0.002718 -0.006539 -0.000586 0.000000 0.000000
# 2 -0.002718 0.013439 -0.006539 0.000586 0.000000 0.000000
# 3 -0.006539 -0.006539 0.023317 0.000000 0.000000 0.000000
# 4 -0.000586 0.000586 0.000000 0.028470 0.000000 0.000000
# 5 0.000000 0.000000 0.000000 0.000000 0.028470 -0.001172
# 6 0.000000 0.000000 0.000000 0.000000 -0.001172 0.032314
#
#
# Mechanical properties :
#
#
# Convention : Reuss Voigt Hill
#
# Bulk Modulus (GPa) = 53.75289 56.41835 55.08562
# Shear Modulus (GPa) = 28.20998 30.23825 29.22411
#
# Velocity S-wave (km/s) = 3.64023 3.76882 3.70508
# Velocity P-wave (km/s) = 6.55119 6.74095 6.64675
#
# Compressibility (1/GPa) = 0.01860365
#
# Stress axis : x y z
#
# Youngs Moduli (GPa) = 74.41093 74.41093 42.88656
#
# Poissons Ratio (x) = 0.20227 0.28042
# Poissons Ratio (y) = 0.20227 0.28042
# Poissons Ratio (z) = 0.48655 0.48655
#
# Static dielectric constant tensor:
#      x y z
#    x 3.865200 0.000000 0.000000 
#    y 0.000000 3.865200 0.000000 
#    z 0.000000 0.000000 3.787500 
# 
# 
# High freq. dielectric constant tensor:
#      x y z
#    x 1.831790 0.000000 0.000000 
#    y 0.000000 1.831790 0.000000 
#    z 0.000000 0.000000 1.839900 
# 
# From -- ./inp_files/2035.got.cif
#   From: 2010.03.12/outbox.cif.g09.slc.cpg/sg152_2_cif.got.tgz:2035.got - 2010.04.03 13:45:27.
