data_PCOD8322426
_publ_section_title
;
Structure prediction by ZEFSAII (Michael W. Deem and Ramdas Pophale) SiO2 
 PCOD8322426
Probable space group: P 32 2 1
;
_chemical_formula_sum "Si O2"
_cell_formula_units_Z 36
_cell_length_a 8.644579
_cell_length_b 8.644579
_cell_length_c 25.410525
_cell_angle_alpha 90.000000
_cell_angle_beta 90.000000
_cell_angle_gamma 120.000000
_cell_volume 1644.492756
_symmetry_space_group_name_H-M "P 32 2 1"
_symmetry_group_IT_number 154
_symmetry_cell_setting 'hexagonal'
loop_
_space_group_symop_operation_xyz
x,y,z
-y,x-y,2/3+z
-x+y,-x,1/3+z
x-y,-y,1/3-z
-x,-x+y,2/3-z
y,x,-z
loop_
_atom_site_type_symbol
_atom_site_label
_atom_site_fract_x
_atom_site_fract_y
_atom_site_fract_z
Si Si1 0.288668 0.260082 0.174619
Si Si2 0.896490 0.106840 0.215495
Si Si3 0.569124 0.087897 0.942590
Si Si4 0.165971 0.780169 0.955267
Si Si5 0.450503 0.613182 0.530944
Si Si6 0.394365 0.594136 0.115420
O O1 0.417290 0.383240 0.220810
O O2 0.352187 0.137288 0.143616
O O3 0.306974 0.384940 0.125496
O O4 0.093334 0.145326 0.200171
O O5 0.901942 0.293942 0.227212
O O6 0.767883 0.000000 0.166667
O O7 0.810054 0.972617 0.265030
O O8 0.608899 0.291638 0.935826
O O9 0.363491 0.951106 0.956809
O O10 0.704400 0.094786 0.986884
O O11 0.162551 0.614458 0.923636
O O12 0.450850 0.450850 0.500000
O O13 0.312138 0.656432 0.502562
#
# Coordination Sequence:
#
# PCOD8322426 Si02
#       6
#     6   6   6   6   6   6
#     4  11  24  39  68  99 123 169 232 276 322 400
#     4  12  21  40  68  96 131 174 220 279 335 399
#     4  11  26  41  68  95 132 178 219 278 335 411
#     4  12  23  44  65  96 137 178 218 272 351 399
#     4  11  21  39  65  91 126 168 217 267 326 396
#     4  11  20  41  66  97 122 168 225 267 324 397
#
# _framework density 21.891248000000001
#
# number of rings (size 3 to 8) (size 9 to 14) (size 15 to 20)
#    0.000    0.667    5.000    4.500    2.333    0.667 
#    0.000    0.833    3.667    0.000    0.000    0.000 
#    0.000    0.000    0.000    0.000    0.000    0.000 
#
# Total GULP energy -446021.064149 kJ/mol
# GULP energy per Si atom -12389.474004 kJ/mol
# Density = 2.184142 g / cm^3
# Si number density = 21.891248 Si / 1000 Ang^3
#
#
#
# Elastic Constant Matrix: (Units=GPa)
#
#
# Indices 1 2 3 4 5 6 
#
# 1 102.6505 25.7201 0.0977 -2.1572 -0.0001 0.0000
# 2 25.7201 102.6505 0.0977 2.1572 0.0001 0.0000
# 3 0.0977 0.0977 44.1501 0.0000 0.0000 0.0000
# 4 -2.1572 2.1572 0.0000 32.6928 0.0000 0.0001
# 5 -0.0001 0.0001 0.0000 0.0000 32.6928 -2.1572
# 6 0.0000 0.0000 0.0000 0.0001 -2.1572 38.4652
#
#
#
# Elastic Compliance Matrix: (Units=1/GPa)
#
#
# Indices 1 2 3 4 5 6 
#
# 1 0.010419 -0.002629 -0.000017 0.000861 0.000000 0.000000
# 2 -0.002629 0.010419 -0.000017 -0.000861 0.000000 0.000000
# 3 -0.000017 -0.000017 0.022650 0.000000 0.000000 0.000000
# 4 0.000861 -0.000861 0.000000 0.030701 0.000000 0.000000
# 5 0.000000 0.000000 0.000000 0.000000 0.030701 0.001722
# 6 0.000000 0.000000 0.000000 0.000000 0.001722 0.026094
#
#
# Mechanical properties :
#
#
# Convention : Reuss Voigt Hill
#
# Bulk Modulus (GPa) = 26.20475 33.47582 29.84028
# Shear Modulus (GPa) = 33.55025 35.67256 34.61140
#
# Velocity S-wave (km/s) = 3.91907 4.04113 3.98057
# Velocity P-wave (km/s) = 5.69871 6.09093 5.89808
#
# Compressibility (1/GPa) = 0.03816102
#
# Stress axis : x y z
#
# Youngs Moduli (GPa) = 95.98308 95.98308 44.14999
#
# Poissons Ratio (x) = 0.25229 0.00076
# Poissons Ratio (y) = 0.25229 0.00076
# Poissons Ratio (z) = 0.00166 0.00166
#
# Static dielectric constant tensor:
#      x y z
#    x 3.991000 0.000000 0.000000 
#    y 0.000000 3.991000 0.000000 
#    z 0.000000 0.000000 3.624840 
# 
# 
# High freq. dielectric constant tensor:
#      x y z
#    x 1.872610 0.000000 0.000000 
#    y 0.000000 1.872610 0.000000 
#    z 0.000000 0.000000 1.828670 
# 
# From -- ./inp_files/3426.got.cif
#   From: 2010.03.12/outbox.cif.g09.slc.cpg/sg154_2_cif.got.tgz:3426.got - 2010.04.03 13:51:21.
