data_PCOD8322871
_publ_section_title
;
Structure prediction by ZEFSAII (Michael W. Deem and Ramdas Pophale) SiO2 
 PCOD8322871
Probable space group: R 3 M
;
_chemical_formula_sum "Si O2"
_cell_formula_units_Z 144
_cell_length_a 20.443923
_cell_length_b 20.443923
_cell_length_c 20.011172
_cell_angle_alpha 90.000000
_cell_angle_beta 90.000000
_cell_angle_gamma 120.000000
_cell_volume 7243.219221
_symmetry_space_group_name_H-M "R 3 M"
_symmetry_group_IT_number 160
_symmetry_cell_setting 'hexagonal'
loop_
_space_group_symop_operation_xyz
x,y,z
-y,x-y,z
-x+y,-x,z
-x+y,y,z
x,x-y,z
-y,-x,z
2/3+x,1/3+y,1/3+z
2/3-y,1/3+x-y,1/3+z
2/3-x+y,1/3-x,1/3+z
2/3-x+y,1/3+y,1/3+z
2/3+x,1/3+x-y,1/3+z
2/3-y,1/3-x,1/3+z
1/3+x,2/3+y,2/3+z
1/3-y,2/3+x-y,2/3+z
1/3-x+y,2/3-x,2/3+z
1/3-x+y,2/3+y,2/3+z
1/3+x,2/3+x-y,2/3+z
1/3-y,2/3-x,2/3+z
loop_
_atom_site_type_symbol
_atom_site_label
_atom_site_fract_x
_atom_site_fract_y
_atom_site_fract_z
Si Si1 0.090459 0.622633 0.039148
Si Si2 0.819036 0.485565 0.313112
Si Si3 0.606701 0.546734 0.208611
Si Si4 0.065742 0.399083 0.403703
Si Si5 0.148747 0.001011 0.648081
Si Si6 0.155183 0.154339 0.243015
Si Si7 0.954708 0.759053 0.110860
Si Si8 0.771419 0.808615 0.519396
O O1 0.090065 0.545033 0.035476
O O2 0.123533 0.664222 0.110942
O O3 0.004707 0.603692 0.032305
O O4 0.141497 0.674928 0.978455
O O5 0.743825 0.487649 0.297250
O O6 0.803596 0.401798 0.297372
O O7 0.885638 0.548388 0.266128
O O8 0.842081 0.507183 0.389880
O O9 0.529049 0.470952 0.219314
O O10 0.640246 0.548364 0.135870
O O11 0.594335 0.619196 0.212705
O O12 0.107371 0.470528 0.354682
O O13 0.981343 0.376518 0.422606
O O14 0.060858 0.939142 0.653179
O O15 0.176043 0.013865 0.570609
O O16 0.160901 0.080451 0.675523
O O17 0.076726 0.153453 0.238914
O O18 0.208600 0.203839 0.181883
O O19 0.137386 0.068693 0.238680
O O20 0.867481 0.734962 0.115121
O O21 0.759593 0.879797 0.515560
#
# Coordination Sequence:
#
# PCOD8322871 Si02
#       8
#    18  18  18  18  18  18  18  18
#     4   9  19  36  58  85 114 144 186 231 271 331
#     4  10  20  35  55  79 107 139 177 224 276 331
#     4   9  18  34  56  80 105 137 182 229 274 333
#     4  11  21  37  57  78 108 151 188 229 285 331
#     4  11  22  35  54  81 113 149 190 234 281 333
#     4  10  21  39  62  88 118 150 183 226 281 338
#     4  10  22  37  54  80 111 144 189 234 271 327
#     4   8  16  33  54  75 105 144 180 219 267 316
#
# _framework density 19.880662000000001
#
# number of rings (size 3 to 8) (size 9 to 14) (size 15 to 20)
#    0.000    2.250    0.000    3.750    0.000    6.500 
#    0.000    3.750    0.000    3.750    0.000    0.000 
#    0.000    0.000    0.000    0.000    0.000    0.000 
#
# Total GULP energy -595042.257326 kJ/mol
# GULP energy per Si atom -12396.713694 kJ/mol
# Density = 1.983541 g / cm^3
# Si number density = 19.880662 Si / 1000 Ang^3
#
#
#
# Elastic Constant Matrix: (Units=GPa)
#
#
# Indices 1 2 3 4 5 6 
#
# 1 63.0355 28.9219 42.5097 -1.7670 -0.0001 0.0000
# 2 28.9219 63.0355 42.5097 1.7670 0.0001 0.0000
# 3 42.5097 42.5097 117.2057 0.0000 0.0000 0.0000
# 4 -1.7670 1.7670 0.0000 29.9370 0.0000 0.0001
# 5 -0.0001 0.0001 0.0000 0.0000 29.9370 -1.7670
# 6 0.0000 0.0000 0.0000 0.0001 -1.7670 17.0568
#
#
#
# Elastic Compliance Matrix: (Units=1/GPa)
#
#
# Indices 1 2 3 4 5 6 
#
# 1 0.022928 -0.006567 -0.005934 0.001741 0.000000 0.000000
# 2 -0.006567 0.022928 -0.005934 -0.001741 0.000000 0.000000
# 3 -0.005934 -0.005934 0.012836 0.000000 0.000000 0.000000
# 4 0.001741 -0.001741 0.000000 0.033609 0.000000 0.000000
# 5 0.000000 0.000000 0.000000 0.000000 0.033609 0.003482
# 6 0.000000 0.000000 0.000000 0.000000 0.003482 0.058988
#
#
# Mechanical properties :
#
#
# Convention : Reuss Voigt Hill
#
# Bulk Modulus (GPa) = 45.82477 52.35105 49.08791
# Shear Modulus (GPa) = 21.83017 24.00854 22.91935
#
# Velocity S-wave (km/s) = 3.31729 3.47887 3.39904
# Velocity P-wave (km/s) = 6.14594 6.52124 6.33637
#
# Compressibility (1/GPa) = 0.02182226
#
# Stress axis : x y z
#
# Youngs Moduli (GPa) = 43.61574 43.61574 77.90318
#
# Poissons Ratio (x) = 0.28641 0.46228
# Poissons Ratio (y) = 0.28641 0.46228
# Poissons Ratio (z) = 0.25882 0.25882
#
# Static dielectric constant tensor:
#      x y z
#    x 3.434310 0.000000 0.000000 
#    y 0.000000 3.434310 0.000000 
#    z 0.000000 0.000000 4.029150 
# 
# 
# High freq. dielectric constant tensor:
#      x y z
#    x 1.761000 0.000000 0.000000 
#    y 0.000000 1.761000 0.000000 
#    z 0.000000 0.000000 1.789790 
# 
# From -- ./inp_files/3422.got.cif
#   From: 2010.03.12/outbox.cif.g09.slc.cpg/sg160_2_cif.got.tgz:3422.got - 2010.04.02 06:26:15.
