data_PCOD8322047
_publ_section_title
;
Structure prediction by ZEFSAII (Michael W. Deem and Ramdas Pophale) SiO2 
 PCOD8322047
Probable space group: P 31 2 1
;
_chemical_formula_sum "Si O2"
_cell_formula_units_Z 36
_cell_length_a 13.332910
_cell_length_b 13.332910
_cell_length_c 13.307470
_cell_angle_alpha 90.000000
_cell_angle_beta 90.000000
_cell_angle_gamma 120.000000
_cell_volume 2048.688939
_symmetry_space_group_name_H-M "P 31 2 1"
_symmetry_group_IT_number 152
_symmetry_cell_setting 'hexagonal'
loop_
_space_group_symop_operation_xyz
x,y,z
-y,x-y,1/3+z
-x+y,-x,2/3+z
x-y,-y,2/3-z
-x,-x+y,1/3-z
y,x,-z
loop_
_atom_site_type_symbol
_atom_site_label
_atom_site_fract_x
_atom_site_fract_y
_atom_site_fract_z
Si Si1 0.536708 0.846578 0.092343
Si Si2 0.332747 0.390268 0.105006
Si Si3 0.295899 0.869326 0.855830
Si Si4 0.477065 0.349905 0.474534
Si Si5 0.860330 0.321548 0.908049
Si Si6 0.562955 0.627293 0.101610
O O1 0.411816 0.820772 0.132702
O O2 0.560750 0.744377 0.117903
O O3 0.638885 0.964084 0.140597
O O4 0.523961 0.860469 0.976336
O O5 0.214786 0.389372 0.134081
O O6 0.431501 0.523639 0.095665
O O7 0.323833 0.323833 0.000000
O O8 0.397600 0.846095 0.815380
O O9 0.326590 0.000000 0.833334
O O10 0.294024 0.853221 0.974978
O O11 0.380245 0.380245 0.500000
O O12 0.429049 0.226763 0.524194
O O13 0.989798 0.369547 0.866070
O O14 0.630728 0.630728 0.000000
#
# Coordination Sequence:
#
# PCOD8322047 Si02
#       6
#     6   6   6   6   6   6
#     4  10  20  34  55  80 111 144 180 223 269 327
#     4  10  22  37  55  81 112 147 183 227 274 328
#     4  10  22  37  54  81 109 147 186 225 278 330
#     4  10  19  34  55  81 110 142 178 222 276 329
#     4  10  20  34  55  81 113 144 178 227 273 328
#     4  10  19  35  56  84 112 143 183 219 273 334
#
# _framework density 17.572213000000001
#
# number of rings (size 3 to 8) (size 9 to 14) (size 15 to 20)
#    0.000    2.000    1.667    2.000    2.333    1.333 
#    0.000    0.000    0.000    2.000    0.000    0.000 
#    0.000    0.000    0.000    0.000    0.000    0.000 
#
# Total GULP energy -446257.045720 kJ/mol
# GULP energy per Si atom -12396.029048 kJ/mol
# Density = 1.753222 g / cm^3
# Si number density = 17.572213 Si / 1000 Ang^3
#
#
#
# Elastic Constant Matrix: (Units=GPa)
#
#
# Indices 1 2 3 4 5 6 
#
# 1 119.9023 60.0682 31.2815 -0.3351 0.0000 0.0000
# 2 60.0682 119.9023 31.2815 0.3351 0.0000 0.0000
# 3 31.2815 31.2815 53.7410 0.0000 0.0000 0.0000
# 4 -0.3351 0.3351 0.0000 29.4715 0.0000 0.0000
# 5 0.0000 0.0000 0.0000 0.0000 29.4715 -0.3351
# 6 0.0000 0.0000 0.0000 0.0000 -0.3351 29.9171
#
#
#
# Elastic Compliance Matrix: (Units=1/GPa)
#
#
# Indices 1 2 3 4 5 6 
#
# 1 0.011841 -0.004874 -0.004055 0.000190 0.000000 0.000000
# 2 -0.004874 0.011841 -0.004055 -0.000190 0.000000 0.000000
# 3 -0.004055 -0.004055 0.023328 0.000000 0.000000 0.000000
# 4 0.000190 -0.000190 0.000000 0.033935 0.000000 0.000000
# 5 0.000000 0.000000 0.000000 0.000000 0.033935 0.000380
# 6 0.000000 0.000000 0.000000 0.000000 0.000380 0.033430
#
#
# Mechanical properties :
#
#
# Convention : Reuss Voigt Hill
#
# Bulk Modulus (GPa) = 47.52600 59.86757 53.69679
# Shear Modulus (GPa) = 27.57984 29.16630 28.37307
#
# Velocity S-wave (km/s) = 3.96601 4.07848 4.02264
# Velocity P-wave (km/s) = 6.93377 7.50480 7.22493
#
# Compressibility (1/GPa) = 0.02104111
#
# Stress axis : x y z
#
# Youngs Moduli (GPa) = 84.45583 84.45583 42.86662
#
# Poissons Ratio (x) = 0.41168 0.17381
# Poissons Ratio (y) = 0.41168 0.17381
# Poissons Ratio (z) = 0.34245 0.34245
#
# Static dielectric constant tensor:
#      x y z
#    x 2.795380 0.000000 0.000000 
#    y 0.000000 2.795380 0.000000 
#    z 0.000000 0.000000 3.431430 
# 
# 
# High freq. dielectric constant tensor:
#      x y z
#    x 1.669180 0.000000 0.000000 
#    y 0.000000 1.669180 0.000000 
#    z 0.000000 0.000000 1.692370 
# 
# From -- ./inp_files/2009.got.cif
#   From: 2010.03.12/outbox.cif.g09.slc.cpg/sg152_2_cif.got.tgz:2009.got - 2010.04.03 13:45:27.
