data_PCOD8322406
_publ_section_title
;
Structure prediction by ZEFSAII (Michael W. Deem and Ramdas Pophale) SiO2 
 PCOD8322406
Probable space group: P 32 2 1
;
_chemical_formula_sum "Si O2"
_cell_formula_units_Z 30
_cell_length_a 16.996505
_cell_length_b 16.996505
_cell_length_c 6.337489
_cell_angle_alpha 90.000000
_cell_angle_beta 90.000000
_cell_angle_gamma 120.000000
_cell_volume 1585.503127
_symmetry_space_group_name_H-M "P 32 2 1"
_symmetry_group_IT_number 154
_symmetry_cell_setting 'hexagonal'
loop_
_space_group_symop_operation_xyz
x,y,z
-y,x-y,2/3+z
-x+y,-x,1/3+z
x-y,-y,1/3-z
-x,-x+y,2/3-z
y,x,-z
loop_
_atom_site_type_symbol
_atom_site_label
_atom_site_fract_x
_atom_site_fract_y
_atom_site_fract_z
Si Si1 0.908781 0.408841 0.451130
Si Si2 0.895710 0.808407 0.874162
Si Si3 0.000000 0.533388 0.833334
Si Si4 0.768045 0.768045 0.500000
Si Si5 0.213795 0.854058 0.485627
Si Si6 0.444580 0.351347 0.882742
O O1 0.934438 0.446953 0.689100
O O2 0.848010 0.300445 0.434135
O O3 0.858541 0.454669 0.323395
O O4 0.000000 0.430738 0.333334
O O5 0.854535 0.794401 0.643331
O O6 0.000000 0.837319 0.833334
O O7 0.886801 0.886801 0.000000
O O8 0.839732 0.713879 0.999706
O O9 0.069517 0.622201 0.696787
O O10 0.680954 0.749865 0.637839
O O11 0.148586 0.754273 0.399075
O O12 0.385210 0.385210 0.000000
#
# Coordination Sequence:
#
# PCOD8322406 Si02
#       6
#     6   6   3   3   6   6
#     4   9  18  37  57  81 110 143 190 237 287 348
#     4  10  24  37  56  85 119 163 208 248 294 346
#     4   8  17  36  58  75 106 150 180 229 300 338
#     4  10  23  38  56  85 118 164 202 249 292 336
#     4  11  22  37  61  88 118 155 201 247 290 365
#     4   9  21  36  57  85 114 144 187 239 291 351
#
# _framework density 18.921437999999998
#
# number of rings (size 3 to 8) (size 9 to 14) (size 15 to 20)
#    0.000    2.800    0.000    2.400    5.600    4.800 
#    0.000    2.000    0.000    0.000    0.000    0.000 
#    0.000    0.000    0.000    0.000    0.000    0.000 
#
# Total GULP energy -371776.700474 kJ/mol
# GULP energy per Si atom -12392.556682 kJ/mol
# Density = 1.887837 g / cm^3
# Si number density = 18.921438 Si / 1000 Ang^3
#
#
#
# Elastic Constant Matrix: (Units=GPa)
#
#
# Indices 1 2 3 4 5 6 
#
# 1 108.8714 49.0996 42.5912 -0.3045 0.0000 0.0000
# 2 49.0996 108.8714 42.5912 0.3045 0.0000 0.0000
# 3 42.5912 42.5912 114.6329 0.0000 0.0000 0.0000
# 4 -0.3045 0.3045 0.0000 13.8136 0.0000 0.0000
# 5 0.0000 0.0000 0.0000 0.0000 13.8136 -0.3045
# 6 0.0000 0.0000 0.0000 0.0000 -0.3045 29.8859
#
#
#
# Elastic Compliance Matrix: (Units=1/GPa)
#
#
# Indices 1 2 3 4 5 6 
#
# 1 0.012325 -0.004409 -0.002941 0.000369 0.000000 0.000000
# 2 -0.004409 0.012325 -0.002941 -0.000369 0.000000 0.000000
# 3 -0.002941 -0.002941 0.010909 0.000000 0.000000 0.000000
# 4 0.000369 -0.000369 0.000000 0.072409 0.000000 0.000000
# 5 0.000000 0.000000 0.000000 0.000000 0.072409 0.000738
# 6 0.000000 0.000000 0.000000 0.000000 0.000738 0.033468
#
#
# Mechanical properties :
#
#
# Convention : Reuss Voigt Hill
#
# Bulk Modulus (GPa) = 66.77049 66.77106 66.77077
# Shear Modulus (GPa) = 20.88378 24.70885 22.79632
#
# Velocity S-wave (km/s) = 3.32582 3.61760 3.47477
# Velocity P-wave (km/s) = 7.07905 7.26736 7.17382
#
# Compressibility (1/GPa) = 0.01497668
#
# Stress axis : x y z
#
# Youngs Moduli (GPa) = 81.13479 81.13479 91.66657
#
# Poissons Ratio (x) = 0.35771 0.26961
# Poissons Ratio (y) = 0.35771 0.26961
# Poissons Ratio (z) = 0.23864 0.23864
#
# Static dielectric constant tensor:
#      x y z
#    x 3.490440 0.000000 0.000000 
#    y 0.000000 3.490440 0.000000 
#    z 0.000000 0.000000 4.405520 
# 
# 
# High freq. dielectric constant tensor:
#      x y z
#    x 1.724690 0.000000 0.000000 
#    y 0.000000 1.724690 0.000000 
#    z 0.000000 0.000000 1.745400 
# 
# From -- ./inp_files/384.got.cif
#   From: 2010.03.12/outbox.cif.g09.slc.cpg/sg154_1_cif.got.tgz:384.got - 2010.04.03 13:51:21.
