data_PCOD8322762
_publ_section_title
;
Structure prediction by ZEFSAII (Michael W. Deem and Ramdas Pophale) SiO2 
 PCOD8322762
Probable space group: P 3 C 1
;
_chemical_formula_sum "Si O2"
_cell_formula_units_Z 42
_cell_length_a 21.049169
_cell_length_b 21.049169
_cell_length_c 5.240503
_cell_angle_alpha 90.000000
_cell_angle_beta 90.000000
_cell_angle_gamma 120.000000
_cell_volume 2010.821479
_symmetry_space_group_name_H-M "P 3 C 1"
_symmetry_group_IT_number 158
_symmetry_cell_setting 'hexagonal'
loop_
_space_group_symop_operation_xyz
x,y,z
-y,x-y,z
-x+y,-x,z
-x+y,y,1/2+z
x,x-y,1/2+z
-y,-x,1/2+z
loop_
_atom_site_type_symbol
_atom_site_label
_atom_site_fract_x
_atom_site_fract_y
_atom_site_fract_z
Si Si1 0.686178 0.874266 0.770580
Si Si2 0.540923 0.521464 0.358931
Si Si3 0.809610 0.435538 0.762812
Si Si4 0.831761 0.587499 0.652866
Si Si5 0.834903 0.745840 0.476872
Si Si6 0.857090 0.897824 0.366886
Si Si7 0.333321 0.319682 0.814784
O O1 0.650821 0.814578 0.542170
O O2 0.771964 0.903009 0.807328
O O3 0.668571 0.938421 0.694191
O O4 0.481240 0.497124 0.587360
O O5 0.569711 0.464458 0.322283
O O6 0.605056 0.603244 0.435251
O O7 0.774510 0.372704 0.541063
O O8 0.795806 0.499975 0.665260
O O9 0.795632 0.611496 0.430343
O O10 0.919688 0.626129 0.609527
O O11 0.871031 0.721848 0.699414
O O12 0.870848 0.833362 0.464488
O O13 0.746970 0.707197 0.520142
O O14 0.892205 0.960662 0.588631
#
# Coordination Sequence:
#
# PCOD8322762 Si02
#       7
#     6   6   6   6   6   6   6
#     4   9  19  33  51  76 100 132 172 203 246 313
#     4   9  19  33  51  76 100 132 172 203 246 313
#     4   9  17  32  51  66  89 126 167 210 259 319
#     4  11  22  34  51  78 106 135 177 229 284 337
#     4  11  22  34  51  78 106 135 177 229 284 337
#     4   9  17  32  51  66  89 126 167 210 259 319
#     4  10  22  36  56  78 112 146 174 220 274 328
#
# _framework density 20.886984999999999
#
# number of rings (size 3 to 8) (size 9 to 14) (size 15 to 20)
#    0.000    2.286    0.000    2.571    0.000   10.286 
#    0.000    0.000    0.000   11.429    0.000    0.000 
#    0.000    0.000    0.000    8.571    0.000    0.000 
#
# Total GULP energy -520395.913259 kJ/mol
# GULP energy per Si atom -12390.378887 kJ/mol
# Density = 2.083945 g / cm^3
# Si number density = 20.886985 Si / 1000 Ang^3
#
#
#
# Elastic Constant Matrix: (Units=GPa)
#
#
# Indices 1 2 3 4 5 6 
#
# 1 77.4550 24.1265 37.1947 -1.9617 0.0000 0.0000
# 2 24.1265 77.4550 37.1947 1.9617 0.0000 0.0000
# 3 37.1947 37.1947 166.8929 0.0000 0.0000 0.0000
# 4 -1.9617 1.9617 0.0000 18.5049 0.0000 0.0000
# 5 0.0000 0.0000 0.0000 0.0000 18.5049 -1.9617
# 6 0.0000 0.0000 0.0000 0.0000 -1.9617 26.6643
#
#
#
# Elastic Compliance Matrix: (Units=1/GPa)
#
#
# Indices 1 2 3 4 5 6 
#
# 1 0.015332 -0.003567 -0.002622 0.002003 0.000000 0.000000
# 2 -0.003567 0.015332 -0.002622 -0.002003 0.000000 0.000000
# 3 -0.002622 -0.002622 0.007161 0.000000 0.000000 0.000000
# 4 0.002003 -0.002003 0.000000 0.054464 0.000000 0.000000
# 5 0.000000 0.000000 0.000000 0.000000 0.054464 0.004007
# 6 0.000000 0.000000 0.000000 0.000000 0.004007 0.037798
#
#
# Mechanical properties :
#
#
# Convention : Reuss Voigt Hill
#
# Bulk Modulus (GPa) = 49.50072 57.64829 53.57450
# Shear Modulus (GPa) = 23.93410 27.62065 25.77737
#
# Velocity S-wave (km/s) = 3.38877 3.64041 3.51684
# Velocity P-wave (km/s) = 6.24999 6.73276 6.49586
#
# Compressibility (1/GPa) = 0.02020173
#
# Stress axis : x y z
#
# Youngs Moduli (GPa) = 65.22433 65.22433 139.65485
#
# Poissons Ratio (x) = 0.23268 0.36616
# Poissons Ratio (y) = 0.23268 0.36616
# Poissons Ratio (z) = 0.17101 0.17101
#
# Static dielectric constant tensor:
#      x y z
#    x 3.534630 0.000000 0.000000 
#    y 0.000000 3.534630 0.000000 
#    z 0.000000 0.000000 4.028470 
# 
# 
# High freq. dielectric constant tensor:
#      x y z
#    x 1.783620 0.000000 0.000000 
#    y 0.000000 1.783620 0.000000 
#    z 0.000000 0.000000 1.825410 
# 
# From -- ./inp_files/26.got.cif
#   From: 2010.03.12/outbox.cif.g09.slc.cpg/sg158_cif.got.tgz:26.got - 2010.04.03 13:59:47.
