data_PCOD8322369
_publ_section_title
;
Structure prediction by ZEFSAII (Michael W. Deem and Ramdas Pophale) SiO2 
 PCOD8322369
Probable space group: P 32 2 1
;
_chemical_formula_sum "Si O2"
_cell_formula_units_Z 42
_cell_length_a 17.482691
_cell_length_b 17.482691
_cell_length_c 8.188130
_cell_angle_alpha 90.000000
_cell_angle_beta 90.000000
_cell_angle_gamma 120.000000
_cell_volume 2167.364343
_symmetry_space_group_name_H-M "P 32 2 1"
_symmetry_group_IT_number 154
_symmetry_cell_setting 'hexagonal'
loop_
_space_group_symop_operation_xyz
x,y,z
-y,x-y,2/3+z
-x+y,-x,1/3+z
x-y,-y,1/3-z
-x,-x+y,2/3-z
y,x,-z
loop_
_atom_site_type_symbol
_atom_site_label
_atom_site_fract_x
_atom_site_fract_y
_atom_site_fract_z
Si Si1 0.432720 0.751723 0.435254
Si Si2 0.820294 0.138999 0.633970
Si Si3 0.851938 0.000000 0.166667
Si Si4 0.731218 0.018367 0.915831
Si Si5 0.544865 0.359795 0.568142
Si Si6 0.591868 0.000000 0.166667
Si Si7 0.250334 0.745153 0.435502
Si Si8 0.105147 0.970795 0.346426
O O1 0.487948 0.791782 0.268591
O O2 0.407749 0.649990 0.428783
O O3 0.351361 0.770458 0.435155
O O4 0.481785 0.795781 0.605330
O O5 0.736495 0.063244 0.536448
O O6 0.827464 0.233222 0.590525
O O7 0.911823 0.144965 0.583994
O O8 0.797163 0.110184 0.824006
O O9 0.804604 0.013339 0.321783
O O10 0.948988 0.084259 0.139435
O O11 0.665021 0.035387 0.024198
O O12 0.503118 0.424164 0.561992
O O13 0.506655 0.300736 0.728291
O O14 0.000000 0.912718 0.333334
O O15 0.143587 0.000000 0.166667
#
# Coordination Sequence:
#
# PCOD8322369 Si02
#       8
#     6   6   3   6   6   3   6   6
#     4  10  21  38  67  94 115 158 221 246 309 386
#     4  11  21  35  55  86 122 154 206 261 322 367
#     4  11  22  36  58  76 113 168 218 260 293 368
#     4  10  21  36  51  84 121 158 206 250 313 379
#     4  11  19  37  61  95 122 153 207 258 306 377
#     4  11  22  34  58  90 125 156 192 262 329 366
#     4  11  19  37  64  90 122 157 196 270 312 374
#     4  12  21  34  57  85 115 160 216 264 305 372
#
# _framework density 19.378374000000001
#
# number of rings (size 3 to 8) (size 9 to 14) (size 15 to 20)
#    0.000    1.143    7.857    0.857    0.000    0.000 
#    0.000    0.000    6.286    0.000    7.429    0.000 
#    0.000    0.000    0.000    0.000    0.000    0.000 
#
# Total GULP energy -520310.009335 kJ/mol
# GULP energy per Si atom -12388.333556 kJ/mol
# Density = 1.933427 g / cm^3
# Si number density = 19.378374 Si / 1000 Ang^3
#
#
#
# Elastic Constant Matrix: (Units=GPa)
#
#
# Indices 1 2 3 4 5 6 
#
# 1 97.2768 44.6852 21.2800 -3.1374 0.0000 0.0000
# 2 44.6852 97.2768 21.2800 3.1374 0.0000 0.0000
# 3 21.2800 21.2800 127.7071 0.0000 0.0000 0.0000
# 4 -3.1374 3.1374 0.0000 16.5542 0.0000 0.0000
# 5 0.0000 0.0000 0.0000 0.0000 16.5542 -3.1374
# 6 0.0000 0.0000 0.0000 0.0000 -3.1374 26.2958
#
#
#
# Elastic Compliance Matrix: (Units=1/GPa)
#
#
# Indices 1 2 3 4 5 6 
#
# 1 0.013434 -0.006020 -0.001235 0.003687 0.000000 0.000000
# 2 -0.006020 0.013434 -0.001235 -0.003687 0.000000 0.000000
# 3 -0.001235 -0.001235 0.008242 0.000000 0.000000 0.000000
# 4 0.003687 -0.003687 0.000000 0.061805 0.000000 0.000000
# 5 0.000000 0.000000 0.000000 0.000000 0.061805 0.007374
# 6 0.000000 0.000000 0.000000 0.000000 0.007374 0.038909
#
#
# Mechanical properties :
#
#
# Convention : Reuss Voigt Hill
#
# Bulk Modulus (GPa) = 55.15947 55.19460 55.17703
# Shear Modulus (GPa) = 22.65978 27.54852 25.10415
#
# Velocity S-wave (km/s) = 3.42326 3.77452 3.60317
# Velocity P-wave (km/s) = 6.64464 6.89495 6.77095
#
# Compressibility (1/GPa) = 0.01812925
#
# Stress axis : x y z
#
# Youngs Moduli (GPa) = 74.43556 74.43556 121.32742
#
# Poissons Ratio (x) = 0.44809 0.14990
# Poissons Ratio (y) = 0.44809 0.14990
# Poissons Ratio (z) = 0.09196 0.09196
#
# Static dielectric constant tensor:
#      x y z
#    x 3.380660 0.000000 0.000000 
#    y 0.000000 3.380660 0.000000 
#    z 0.000000 0.000000 4.151190 
# 
# 
# High freq. dielectric constant tensor:
#      x y z
#    x 1.729770 0.000000 0.000000 
#    y 0.000000 1.729770 0.000000 
#    z 0.000000 0.000000 1.783270 
# 
# From -- ./inp_files/1272.got.cif
#   From: 2010.03.12/outbox.cif.g09.slc.cpg/sg154_1_cif.got.tgz:1272.got - 2010.04.03 13:51:21.
