data_PCOD8322570
_publ_section_title
;
Structure prediction by ZEFSAII (Michael W. Deem and Ramdas Pophale) SiO2 
 PCOD8322570
Probable space group: R 3 2
;
_chemical_formula_sum "Si O2"
_cell_formula_units_Z 105
_cell_length_a 16.774220
_cell_length_b 16.774220
_cell_length_c 18.893801
_cell_angle_alpha 90.000000
_cell_angle_beta 90.000000
_cell_angle_gamma 120.000000
_cell_volume 4603.992821
_symmetry_space_group_name_H-M "R 3 2"
_symmetry_group_IT_number 155
_symmetry_cell_setting 'hexagonal'
loop_
_space_group_symop_operation_xyz
x,y,z
-y,x-y,z
-x+y,-x,z
x-y,-y,-z
-x,-x+y,-z
y,x,-z
2/3+x,1/3+y,1/3+z
2/3-y,1/3+x-y,1/3+z
2/3-x+y,1/3-x,1/3+z
2/3+x-y,1/3-y,1/3-z
2/3-x,1/3-x+y,1/3-z
2/3+y,1/3+x,1/3-z
1/3+x,2/3+y,2/3+z
1/3-y,2/3+x-y,2/3+z
1/3-x+y,2/3-x,2/3+z
1/3+x-y,2/3-y,2/3-z
1/3-x,2/3-x+y,2/3-z
1/3+y,2/3+x,2/3-z
loop_
_atom_site_type_symbol
_atom_site_label
_atom_site_fract_x
_atom_site_fract_y
_atom_site_fract_z
Si Si1 0.440833 0.333334 0.333334
Si Si2 0.666667 0.333334 0.418057
Si Si3 0.772342 0.911617 0.324041
Si Si4 0.014367 0.230331 0.218473
Si Si5 0.190197 0.476778 0.594128
Si Si6 0.996043 0.234251 0.418978
Si Si7 0.550904 0.066827 0.645365
O O1 0.463691 0.278015 0.392170
O O2 0.429714 0.413272 0.372186
O O3 0.666668 0.333334 0.333334
O O4 0.658361 0.421372 0.441748
O O5 0.666667 0.886336 0.333334
O O6 0.791283 0.883853 0.246235
O O7 0.801919 0.858163 0.378944
O O8 0.840403 0.019497 0.334492
O O9 0.032785 0.250399 0.133670
O O10 0.031296 0.323047 0.256936
O O11 0.911027 0.154175 0.241123
O O12 0.135808 0.469142 0.666667
O O13 0.000000 0.208386 0.500000
O O14 0.894540 0.185068 0.380365
#
# Coordination Sequence:
#
# PCOD8322570 Si02
#       7
#     9   6  18  18  18  18  18
#     4  12  24  40  70 100 140 182 226 294 346 408
#     4   9  18  39  57  81 132 171 205 269 328 390
#     4   9  20  43  67  96 137 171 221 291 339 397
#     4  10  24  43  70  98 138 184 226 281 341 412
#     4  11  22  43  64  97 140 181 227 278 343 415
#     4  10  22  45  68  97 136 184 227 280 347 407
#     4  11  23  42  70 105 134 176 236 281 350 413
#
# _framework density 22.806290000000001
#
# number of rings (size 3 to 8) (size 9 to 14) (size 15 to 20)
#    0.000    1.714    3.429    2.571    2.400    3.429 
#    8.229    3.429    3.771    0.000    0.000    0.000 
#    0.000    0.000    0.000    0.000    0.000    0.000 
#
# Total GULP energy -433801.019818 kJ/mol
# GULP energy per Si atom -12394.314852 kJ/mol
# Density = 2.275438 g / cm^3
# Si number density = 22.806290 Si / 1000 Ang^3
#
#
#
# Elastic Constant Matrix: (Units=GPa)
#
#
# Indices 1 2 3 4 5 6 
#
# 1 114.9742 47.5010 38.0815 -6.6048 0.0000 0.0000
# 2 47.5010 114.9740 38.0817 6.6047 0.0000 0.0000
# 3 38.0815 38.0817 129.3701 0.0001 0.0000 0.0000
# 4 -6.6048 6.6047 0.0001 25.4319 0.0000 0.0000
# 5 0.0000 0.0000 0.0000 0.0000 25.4319 -6.6047
# 6 0.0000 0.0000 0.0000 0.0000 -6.6047 33.7365
#
#
#
# Elastic Compliance Matrix: (Units=1/GPa)
#
#
# Indices 1 2 3 4 5 6 
#
# 1 0.011377 -0.004237 -0.002102 0.004055 0.000000 0.000000
# 2 -0.004237 0.011377 -0.002102 -0.004055 0.000000 0.000000
# 3 -0.002102 -0.002102 0.008967 0.000000 0.000000 0.000000
# 4 0.004055 -0.004055 0.000000 0.041427 0.000000 0.000000
# 5 0.000000 0.000000 0.000000 0.000000 0.041427 0.008110
# 6 0.000000 0.000000 0.000000 0.000000 0.008110 0.031229
#
#
# Mechanical properties :
#
#
# Convention : Reuss Voigt Hill
#
# Bulk Modulus (GPa) = 67.38470 67.40517 67.39494
# Shear Modulus (GPa) = 29.82704 32.63035 31.22869
#
# Velocity S-wave (km/s) = 3.62033 3.78664 3.70442
# Velocity P-wave (km/s) = 6.86196 6.98125 6.92186
#
# Compressibility (1/GPa) = 0.01484016
#
# Stress axis : x y z
#
# Youngs Moduli (GPa) = 87.89436 87.89412 111.51865
#
# Poissons Ratio (x) = 0.37243 0.23438
# Poissons Ratio (y) = 0.37243 0.23439
# Poissons Ratio (z) = 0.18473 0.18473
#
# Static dielectric constant tensor:
#      x y z
#    x 4.352120 -0.000010 0.000000 
#    y -0.000010 4.352120 0.000000 
#    z 0.000000 0.000000 4.012400 
# 
# 
# High freq. dielectric constant tensor:
#      x y z
#    x 1.906250 0.000000 0.000000 
#    y 0.000000 1.906250 0.000000 
#    z 0.000000 0.000000 1.881410 
# 
# From -- ./inp_files/7010.got.cif
#   From: 2010.03.12/outbox.cif.g09.slc.cpg/sg155_4_cif.got.tgz:7010.got - 2010.04.03 13:54:13.
