data_PCOD8322166
_publ_section_title
;
Structure prediction by ZEFSAII (Michael W. Deem and Ramdas Pophale) SiO2 
 PCOD8322166
Probable space group: P 31 2 1
;
_chemical_formula_sum "Si O2"
_cell_formula_units_Z 45
_cell_length_a 11.360571
_cell_length_b 11.360571
_cell_length_c 18.808169
_cell_angle_alpha 90.000000
_cell_angle_beta 90.000000
_cell_angle_gamma 120.000000
_cell_volume 2102.216646
_symmetry_space_group_name_H-M "P 31 2 1"
_symmetry_group_IT_number 152
_symmetry_cell_setting 'hexagonal'
loop_
_space_group_symop_operation_xyz
x,y,z
-y,x-y,1/3+z
-x+y,-x,2/3+z
x-y,-y,2/3-z
-x,-x+y,1/3-z
y,x,-z
loop_
_atom_site_type_symbol
_atom_site_label
_atom_site_fract_x
_atom_site_fract_y
_atom_site_fract_z
Si Si1 0.852006 0.555330 0.403498
Si Si2 0.599837 0.000000 0.333334
Si Si3 0.273707 0.194033 0.877698
Si Si4 0.922146 0.214624 0.449654
Si Si5 0.435895 0.759642 0.232899
Si Si6 0.213375 0.788582 0.169058
Si Si7 0.997158 0.316566 0.041039
Si Si8 0.583564 0.997042 0.728519
O O1 0.897179 0.627095 0.478949
O O2 0.746932 0.394172 0.404733
O O3 0.782512 0.623246 0.358487
O O4 0.985872 0.591897 0.356900
O O5 0.716852 0.076597 0.276742
O O6 0.592641 0.124503 0.372663
O O7 0.124156 0.179609 0.873559
O O8 0.251141 0.045666 0.896681
O O9 0.791250 0.223446 0.475695
O O10 0.931005 0.259841 0.367556
O O11 0.055427 0.302448 0.496908
O O12 0.352561 0.785681 0.171847
O O13 0.131355 0.709290 0.100230
O O14 0.131519 0.715260 0.241597
O O15 0.012695 0.452706 0.076429
#
# Coordination Sequence:
#
# PCOD8322166 Si02
#       8
#     6   3   6   6   6   6   6   6
#     4  12  24  41  70 103 131 184 237 289 350 418
#     4  10  22  44  66  98 138 178 224 294 354 410
#     4  11  23  44  67 100 137 181 242 292 343 422
#     4  11  24  44  69  98 144 180 225 295 361 412
#     4  11  23  42  69 103 136 177 231 291 354 423
#     4  11  25  46  68 101 144 185 230 289 364 420
#     4  12  21  44  70 100 135 182 241 294 336 424
#     4  11  24  45  70  99 141 182 237 289 347 429
#
# _framework density 21.405974000000001
#
# number of rings (size 3 to 8) (size 9 to 14) (size 15 to 20)
#    0.000    0.800    6.667    1.200    5.600    0.000 
#    7.200    0.000    0.000    0.000    0.000    0.000 
#    0.000    0.000    0.000    0.000    0.000    0.000 
#
# Total GULP energy -557593.762984 kJ/mol
# GULP energy per Si atom -12390.972511 kJ/mol
# Density = 2.135725 g / cm^3
# Si number density = 21.405974 Si / 1000 Ang^3
#
#
#
# Elastic Constant Matrix: (Units=GPa)
#
#
# Indices 1 2 3 4 5 6 
#
# 1 70.3017 117.5050 23.2905 -39.1572 -0.0010 0.0000
# 2 117.5050 70.3017 23.2905 39.1572 0.0010 0.0000
# 3 23.2905 23.2905 47.5006 0.0000 0.0000 0.0000
# 4 -39.1572 39.1572 0.0000 1.9141 0.0000 0.0010
# 5 -0.0010 0.0010 0.0000 0.0000 1.9141 -39.1572
# 6 0.0000 0.0000 0.0000 0.0010 -39.1572 -23.6017
#
#
#
# Elastic Compliance Matrix: (Units=1/GPa)
#
#
# Indices 1 2 3 4 5 6 
#
# 1 0.002728 0.003334 -0.002972 -0.012404 0.000000 0.000000
# 2 0.003334 0.002728 -0.002972 0.012404 0.000000 0.000000
# 3 -0.002972 -0.002972 0.023967 0.000000 0.000000 0.000000
# 4 -0.012404 0.012404 0.000000 0.014952 0.000000 0.000001
# 5 0.000000 0.000000 0.000000 0.000000 0.014952 -0.024807
# 6 0.000000 0.000000 0.000000 0.000001 -0.024807 -0.001213
#
#
# Mechanical properties :
#
#
# Convention : Reuss Voigt Hill
#
# Bulk Modulus (GPa) = 41.31926 57.36396 49.34161
# Shear Modulus (GPa) = 70.02550 -2.35347 33.83602
#
# Velocity S-wave (km/s) = 5.72574 -1.04968 3.98009
# Velocity P-wave (km/s) = 7.94082 5.03857 6.64996
#
# Compressibility (1/GPa) = 0.02420179
#
# Stress axis : x y z
#
# Youngs Moduli (GPa) = 366.60369 366.60369 41.72393
#
# Poissons Ratio (x) = -1.22228 0.12401
# Poissons Ratio (y) = -1.22228 0.12401
# Poissons Ratio (z) = 1.08963 1.08963
#
# Static dielectric constant tensor:
#      x y z
#    x 4.267410 0.000000 0.000000 
#    y 0.000000 4.267410 0.000000 
#    z 0.000000 0.000000 3.737400 
# 
# 
# High freq. dielectric constant tensor:
#      x y z
#    x 1.844550 0.000000 0.000000 
#    y 0.000000 1.844550 0.000000 
#    z 0.000000 0.000000 1.833200 
# 
# From -- ./inp_files/2511.got.cif
#   From: 2010.03.12/outbox.cif.g09.slc.cpg/sg152_2_cif.got.tgz:2511.got - 2010.04.03 13:45:27.
