data_PCOD8322112
_publ_section_title
;
Structure prediction by ZEFSAII (Michael W. Deem and Ramdas Pophale) SiO2 
 PCOD8322112
Probable space group: P 31 2 1
;
_chemical_formula_sum "Si O2"
_cell_formula_units_Z 30
_cell_length_a 17.833424
_cell_length_b 17.833424
_cell_length_c 5.449650
_cell_angle_alpha 90.000000
_cell_angle_beta 90.000000
_cell_angle_gamma 120.000000
_cell_volume 1500.958599
_symmetry_space_group_name_H-M "P 31 2 1"
_symmetry_group_IT_number 152
_symmetry_cell_setting 'hexagonal'
loop_
_space_group_symop_operation_xyz
x,y,z
-y,x-y,1/3+z
-x+y,-x,2/3+z
x-y,-y,2/3-z
-x,-x+y,1/3-z
y,x,-z
loop_
_atom_site_type_symbol
_atom_site_label
_atom_site_fract_x
_atom_site_fract_y
_atom_site_fract_z
Si Si1 0.744818 0.903488 0.229525
Si Si2 0.590901 0.254416 0.879134
Si Si3 0.159730 0.712066 0.631469
Si Si4 0.606804 0.098174 0.858410
Si Si5 0.871567 0.871567 0.500000
Si Si6 0.000000 0.859304 0.166667
O O1 0.644788 0.845647 0.300500
O O2 0.790027 0.849749 0.326048
O O3 0.782366 0.000000 0.333334
O O4 0.767998 0.921755 0.939600
O O5 0.602441 0.310935 0.640984
O O6 0.522515 0.261893 0.056091
O O7 0.558175 0.153977 0.827248
O O8 0.114880 0.667190 0.377207
O O9 0.115381 0.655974 0.878065
O O10 0.531410 0.000000 0.833334
O O11 0.894274 0.960528 0.631919
#
# Coordination Sequence:
#
# PCOD8322112 Si02
#       6
#     6   6   6   6   3   3
#     4  10  22  37  56  86 121 166 208 260 316 371
#     4  10  20  41  65  94 126 165 209 256 312 375
#     4  11  24  39  67  92 130 166 208 258 321 379
#     4  11  23  39  65  96 128 162 213 264 313 378
#     4  10  22  37  56  86 119 166 212 268 309 378
#     4  10  22  37  60  80 123 156 226 258 319 368
#
# _framework density 19.987228000000002
#
# number of rings (size 3 to 8) (size 9 to 14) (size 15 to 20)
#    0.000    1.600    2.000    2.400    7.000    8.000 
#    1.800    0.000    0.000    4.800    0.000    0.000 
#    0.000    0.000    0.000    0.000    0.000    0.000 
#
# Total GULP energy -371670.199145 kJ/mol
# GULP energy per Si atom -12389.006638 kJ/mol
# Density = 1.994174 g / cm^3
# Si number density = 19.987228 Si / 1000 Ang^3
#
#
#
# Elastic Constant Matrix: (Units=GPa)
#
#
# Indices 1 2 3 4 5 6 
#
# 1 111.1796 53.2542 26.6855 -1.4645 0.0000 0.0000
# 2 53.2542 111.1796 26.6855 1.4645 0.0000 0.0000
# 3 26.6855 26.6855 107.3414 0.0000 0.0000 0.0000
# 4 -1.4645 1.4645 0.0000 21.9054 0.0000 0.0000
# 5 0.0000 0.0000 0.0000 0.0000 21.9054 -1.4645
# 6 0.0000 0.0000 0.0000 0.0000 -1.4645 28.9627
#
#
#
# Elastic Compliance Matrix: (Units=1/GPa)
#
#
# Indices 1 2 3 4 5 6 
#
# 1 0.011969 -0.005353 -0.001645 0.001158 0.000000 0.000000
# 2 -0.005353 0.011969 -0.001645 -0.001158 0.000000 0.000000
# 3 -0.001645 -0.001645 0.010134 0.000000 0.000000 0.000000
# 4 0.001158 -0.001158 0.000000 0.045806 0.000000 0.000000
# 5 0.000000 0.000000 0.000000 0.000000 0.045806 0.002316
# 6 0.000000 0.000000 0.000000 0.000000 0.002316 0.034644
#
#
# Mechanical properties :
#
#
# Convention : Reuss Voigt Hill
#
# Bulk Modulus (GPa) = 59.57356 60.32789 59.95073
# Shear Modulus (GPa) = 27.29151 29.42641 28.35896
#
# Velocity S-wave (km/s) = 3.69920 3.84117 3.77085
# Velocity P-wave (km/s) = 6.93657 7.06552 7.00134
#
# Compressibility (1/GPa) = 0.01678597
#
# Stress axis : x y z
#
# Youngs Moduli (GPa) = 83.55126 83.55126 98.67998
#
# Poissons Ratio (x) = 0.44729 0.16229
# Poissons Ratio (y) = 0.44729 0.16229
# Poissons Ratio (z) = 0.13741 0.13741
#
# Static dielectric constant tensor:
#      x y z
#    x 3.697910 0.000000 0.000000 
#    y 0.000000 3.697910 0.000000 
#    z 0.000000 0.000000 4.094270 
# 
# 
# High freq. dielectric constant tensor:
#      x y z
#    x 1.767370 0.000000 0.000000 
#    y 0.000000 1.767370 0.000000 
#    z 0.000000 0.000000 1.791850 
# 
# From -- ./inp_files/356.got.cif
#   From: 2010.03.12/outbox.cif.g09.slc.cpg/sg152_1_cif.got.tgz:356.got - 2010.04.03 13:45:27.
