data_PCOD8322585
_publ_section_title
;
Structure prediction by ZEFSAII (Michael W. Deem and Ramdas Pophale) SiO2 
 PCOD8322585
Probable space group: R 3 2
;
_chemical_formula_sum "Si O2"
_cell_formula_units_Z 126
_cell_length_a 19.684107
_cell_length_b 19.684107
_cell_length_c 18.264269
_cell_angle_alpha 90.000000
_cell_angle_beta 90.000000
_cell_angle_gamma 120.000000
_cell_volume 6128.643521
_symmetry_space_group_name_H-M "R 3 2"
_symmetry_group_IT_number 155
_symmetry_cell_setting 'hexagonal'
loop_
_space_group_symop_operation_xyz
x,y,z
-y,x-y,z
-x+y,-x,z
x-y,-y,-z
-x,-x+y,-z
y,x,-z
2/3+x,1/3+y,1/3+z
2/3-y,1/3+x-y,1/3+z
2/3-x+y,1/3-x,1/3+z
2/3+x-y,1/3-y,1/3-z
2/3-x,1/3-x+y,1/3-z
2/3+y,1/3+x,1/3-z
1/3+x,2/3+y,2/3+z
1/3-y,2/3+x-y,2/3+z
1/3-x+y,2/3-x,2/3+z
1/3+x-y,2/3-y,2/3-z
1/3-x,2/3-x+y,2/3-z
1/3+y,2/3+x,2/3-z
loop_
_atom_site_type_symbol
_atom_site_label
_atom_site_fract_x
_atom_site_fract_y
_atom_site_fract_z
Si Si1 0.584965 0.057774 0.867645
Si Si2 0.507518 0.134739 0.256588
Si Si3 0.618511 0.458757 0.670815
Si Si4 0.153896 0.702768 0.495294
Si Si5 0.953807 0.828857 0.666348
Si Si6 0.599873 0.562264 0.781182
Si Si7 0.860218 0.756886 0.179874
O O1 0.666667 0.123573 0.833334
O O2 0.584476 0.081214 0.953064
O O3 0.510745 0.054879 0.830981
O O4 0.575858 0.973249 0.851810
O O5 0.512430 0.179097 0.333334
O O6 0.587568 0.137530 0.228485
O O7 0.483088 0.176601 0.197014
O O8 0.442588 0.043608 0.262607
O O9 0.698197 0.456591 0.672214
O O10 0.550470 0.374493 0.698203
O O11 0.637071 0.531267 0.722353
O O12 0.587895 0.475804 0.596171
O O13 0.197992 0.716818 0.419056
O O14 0.104432 0.610968 0.513865
O O15 0.666667 0.627694 0.833334
O O16 0.795840 0.666667 0.166667
#
# Coordination Sequence:
#
# PCOD8322585 Si02
#       7
#    18  18  18  18  18  18  18
#     4  11  21  38  62  90 131 165 207 259 318 383
#     4  11  24  44  65  93 126 164 221 279 331 382
#     4  11  22  38  62  95 127 173 212 256 314 388
#     4  10  24  42  65  94 122 167 217 272 327 392
#     4  11  21  39  62  92 132 172 215 256 318 387
#     4  11  22  37  60  93 129 168 210 258 312 382
#     4  11  23  44  68  93 127 167 218 268 332 390
#
# _framework density 20.559197999999999
#
# number of rings (size 3 to 8) (size 9 to 14) (size 15 to 20)
#    0.000    1.143    4.286    2.429    0.000    0.571 
#    0.857    0.000    0.000    0.000    0.000    0.000 
#    0.000    0.000    0.000    0.000    0.000    0.000 
#
# Total GULP energy -520554.751733 kJ/mol
# GULP energy per Si atom -12394.160756 kJ/mol
# Density = 2.051240 g / cm^3
# Si number density = 20.559198 Si / 1000 Ang^3
#
#
#
# Elastic Constant Matrix: (Units=GPa)
#
#
# Indices 1 2 3 4 5 6 
#
# 1 73.7795 6.6113 20.4286 -1.6996 0.0014 0.0000
# 2 6.6113 73.7795 20.4286 1.6996 -0.0014 0.0000
# 3 20.4286 20.4286 57.2052 0.0000 0.0000 0.0000
# 4 -1.6996 1.6996 0.0000 30.0092 0.0000 -0.0014
# 5 0.0014 -0.0014 0.0000 0.0000 30.0092 -1.6996
# 6 0.0000 0.0000 0.0000 -0.0014 -1.6996 33.5841
#
#
#
# Elastic Compliance Matrix: (Units=1/GPa)
#
#
# Indices 1 2 3 4 5 6 
#
# 1 0.015064 0.000133 -0.005427 0.000846 -0.000001 0.000000
# 2 0.000133 0.015064 -0.005427 -0.000846 0.000001 0.000000
# 3 -0.005427 -0.005427 0.021357 0.000000 0.000000 0.000000
# 4 0.000846 -0.000846 0.000000 0.033419 0.000000 0.000001
# 5 -0.000001 0.000001 0.000000 0.000000 0.033419 0.001691
# 6 0.000000 0.000000 0.000000 0.000001 0.001691 0.029862
#
#
# Mechanical properties :
#
#
# Convention : Reuss Voigt Hill
#
# Bulk Modulus (GPa) = 33.28516 33.30010 33.29263
# Shear Modulus (GPa) = 27.83323 29.20688 28.52005
#
# Velocity S-wave (km/s) = 3.68341 3.77320 3.72858
# Velocity P-wave (km/s) = 5.85790 5.93423 5.89619
#
# Compressibility (1/GPa) = 0.03004342
#
# Stress axis : x y z
#
# Youngs Moduli (GPa) = 66.38275 66.38275 46.82276
#
# Poissons Ratio (x) = -0.00885 0.25412
# Poissons Ratio (y) = -0.00885 0.25412
# Poissons Ratio (z) = 0.36027 0.36027
#
# Static dielectric constant tensor:
#      x y z
#    x 3.699090 0.000000 0.000000 
#    y 0.000000 3.699090 0.000000 
#    z 0.000000 0.000000 3.588140 
# 
# 
# High freq. dielectric constant tensor:
#      x y z
#    x 1.809620 0.000000 0.000000 
#    y 0.000000 1.809620 0.000000 
#    z 0.000000 0.000000 1.803180 
# 
# From -- ./inp_files/6257.got.cif
#   From: 2010.03.12/outbox.cif.g09.slc.cpg/sg155_4_cif.got.tgz:6257.got - 2010.04.03 13:54:13.
