data_PCOD8322709
_publ_section_title
;
Structure prediction by ZEFSAII (Michael W. Deem and Ramdas Pophale) SiO2 
 PCOD8322709
Probable space group: P 3 M 1
;
_chemical_formula_sum "Si O2"
_cell_formula_units_Z 48
_cell_length_a 12.304145
_cell_length_b 12.304145
_cell_length_c 20.391372
_cell_angle_alpha 90.000000
_cell_angle_beta 90.000000
_cell_angle_gamma 120.000000
_cell_volume 2673.498595
_symmetry_space_group_name_H-M "P 3 M 1"
_symmetry_group_IT_number 156
_symmetry_cell_setting 'hexagonal'
loop_
_space_group_symop_operation_xyz
x,y,z
-y,x-y,z
-x+y,-x,z
-x+y,y,z
x,x-y,z
-y,-x,z
loop_
_atom_site_type_symbol
_atom_site_label
_atom_site_fract_x
_atom_site_fract_y
_atom_site_fract_z
Si Si1 0.666657 0.585401 0.710040
Si Si2 0.584491 0.665541 0.834765
Si Si3 0.998960 0.251256 0.584508
Si Si4 0.665590 0.080399 0.959868
Si Si5 0.081038 0.665627 0.084509
Si Si6 0.252282 0.001127 0.334764
Si Si7 0.414591 0.081268 0.210039
Si Si8 0.918525 0.586268 0.459867
O O1 0.795373 0.590746 0.728299
O O2 0.558819 0.441182 0.709055
O O3 0.639798 0.663509 0.764045
O O4 0.671804 0.644958 0.639675
O O5 0.600161 0.800081 0.847262
O O6 0.438070 0.561931 0.839767
O O7 0.663119 0.640068 0.889105
O O8 0.895213 0.104787 0.586889
O O9 0.999158 0.309988 0.514428
O O10 0.132881 0.265762 0.597472
O O11 0.560698 0.121395 0.965600
O O12 0.799253 0.200748 0.971537
O O13 0.643318 0.977495 0.014428
O O14 0.123761 0.561881 0.086892
O O15 0.200452 0.799549 0.097473
O O16 0.978290 0.639821 0.139674
O O17 0.133418 0.866583 0.347259
O O18 0.209465 0.104733 0.339770
O O19 0.309622 0.003168 0.264044
O O20 0.356385 0.026600 0.389105
O O21 0.537957 0.075914 0.228300
O O22 0.450983 0.225492 0.209051
O O23 0.772637 0.545274 0.465601
O O24 0.931837 0.465919 0.471535
#
# Coordination Sequence:
#
# PCOD8322709 Si02
#       8
#     6   6   6   6   6   6   6   6
#     4  10  20  34  54  78 104 134 168 210 256 302
#     4  10  20  34  53  76 103 135 170 208 250 299
#     4  10  20  34  53  76 103 135 170 208 250 299
#     4  10  20  34  54  78 104 134 168 210 256 302
#     4  10  20  34  53  76 103 135 170 208 250 299
#     4  10  20  34  53  76 103 135 170 208 250 299
#     4  10  20  34  54  78 104 134 168 210 256 302
#     4  10  20  34  54  78 104 134 168 210 256 302
#
# _framework density 17.954001999999999
#
# number of rings (size 3 to 8) (size 9 to 14) (size 15 to 20)
#    0.000    2.000    0.000    4.000    0.000    0.000 
#    0.000    7.500    0.000   17.000    0.000    0.000 
#    0.000    0.000    0.000    0.000    0.000    0.000 
#
# Total GULP energy -595438.913174 kJ/mol
# GULP energy per Si atom -12404.977358 kJ/mol
# Density = 1.791314 g / cm^3
# Si number density = 17.954002 Si / 1000 Ang^3
#
#
#
# Elastic Constant Matrix: (Units=GPa)
#
#
# Indices 1 2 3 4 5 6 
#
# 1 80.7984 37.0744 10.5499 0.0000 0.0000 0.0000
# 2 37.0744 80.7984 10.5499 0.0000 0.0000 0.0000
# 3 10.5499 10.5499 79.5857 0.0000 0.0000 0.0000
# 4 0.0000 0.0000 0.0000 20.0768 0.0000 0.0000
# 5 0.0000 0.0000 0.0000 0.0000 20.0768 0.0000
# 6 0.0000 0.0000 0.0000 0.0000 0.0000 21.8620
#
#
#
# Elastic Compliance Matrix: (Units=1/GPa)
#
#
# Indices 1 2 3 4 5 6 
#
# 1 0.015780 -0.007090 -0.001152 0.000000 0.000000 0.000000
# 2 -0.007090 0.015780 -0.001152 0.000000 0.000000 0.000000
# 3 -0.001152 -0.001152 0.012870 0.000000 0.000000 0.000000
# 4 0.000000 0.000000 0.000000 0.049809 0.000000 0.000000
# 5 0.000000 0.000000 0.000000 0.000000 0.049809 0.000000
# 6 0.000000 0.000000 0.000000 0.000000 0.000000 0.045741
#
#
# Mechanical properties :
#
#
# Convention : Reuss Voigt Hill
#
# Bulk Modulus (GPa) = 38.99764 39.72564 39.36164
# Shear Modulus (GPa) = 23.02811 24.60369 23.81590
#
# Velocity S-wave (km/s) = 3.58525 3.70587 3.64606
# Velocity P-wave (km/s) = 6.23752 6.36284 6.30049
#
# Compressibility (1/GPa) = 0.02564258
#
# Stress axis : x y z
#
# Youngs Moduli (GPa) = 63.37011 63.37011 77.69720
#
# Poissons Ratio (x) = 0.44932 0.08950
# Poissons Ratio (y) = 0.44932 0.08950
# Poissons Ratio (z) = 0.07300 0.07300
#
# Static dielectric constant tensor:
#      x y z
#    x 3.174860 0.000000 0.000000 
#    y 0.000000 3.174860 0.000000 
#    z 0.000000 0.000000 3.501810 
# 
# 
# High freq. dielectric constant tensor:
#      x y z
#    x 1.691520 0.000000 0.000000 
#    y 0.000000 1.691520 0.000000 
#    z 0.000000 0.000000 1.714350 
# 
# From -- ./inp_files/1109.got.cif
#   From: 2010.03.12/outbox.cif.g09.slc.cpg/sg156_cif.got.tgz:1109.got - 2010.04.03 13:58:47.
