data_PCOD8322922
_publ_section_title
;
Structure prediction by ZEFSAII (Michael W. Deem and Ramdas Pophale) SiO2 
 PCOD8322922
Probable space group: P -3 1 M 
;
_chemical_formula_sum "Si O2"
_cell_formula_units_Z 84
_cell_length_a 21.416590
_cell_length_b 21.416590
_cell_length_c 12.531808
_cell_angle_alpha 90.000000
_cell_angle_beta 90.000000
_cell_angle_gamma 120.000000
_cell_volume 4977.886720
_symmetry_space_group_name_H-M "P -3 1 M "
_symmetry_group_IT_number 162
_symmetry_cell_setting 'hexagonal'
loop_
_space_group_symop_operation_xyz
x,y,z
-y,x-y,z
-x+y,-x,z
-y,-x,-z
-x+y,y,-z
x,x-y,-z
-x,-y,-z
y,-x+y,-z
x-y,x,-z
y,x,z
x-y,-y,z
-x,-x+y,z
loop_
_atom_site_type_symbol
_atom_site_label
_atom_site_fract_x
_atom_site_fract_y
_atom_site_fract_z
Si Si1 0.527902 0.442072 0.701396
Si Si2 0.080193 0.302853 0.790174
Si Si3 0.367529 0.114123 0.013695
Si Si4 0.334791 0.420272 0.351386
Si Si5 0.403307 0.914895 0.070865
Si Si6 0.301711 0.082146 0.243478
Si Si7 0.406449 0.321198 0.586966
O O1 0.490673 0.490673 0.704979
O O2 0.613108 0.494816 0.676621
O O3 0.514236 0.397464 0.811112
O O4 0.489829 0.378483 0.614462
O O5 0.109164 0.381270 0.736251
O O6 0.133555 0.272408 0.758876
O O7 0.000000 0.244839 0.748784
O O8 0.074339 0.311956 0.916984
O O9 0.437415 0.106771 0.008232
O O10 0.330106 0.080294 0.125964
O O11 0.396289 0.198145 0.000000
O O12 0.383839 0.383839 0.354592
O O13 0.295679 0.408890 0.466562
O O14 0.449936 0.000000 0.077866
O O15 0.440643 0.881286 0.000000
O O16 0.366902 0.112121 0.329944
O O17 0.238102 0.000000 0.270661
O O18 0.361734 0.361734 0.594789
#
# Coordination Sequence:
#
# PCOD8322922 Si02
#       7
#    12  12  12  12  12  12  12
#     4   9  15  24  41  65  93 124 152 180 218 267
#     4  10  20  32  47  68  97 127 158 205 260 307
#     4  10  19  31  47  67  94 126 160 198 244 298
#     4   9  17  28  42  66  97 125 150 181 230 283
#     4  10  17  25  42  67  94 121 151 190 231 273
#     4  10  19  32  50  69  91 126 167 205 250 308
#     4   9  16  27  44  65  93 124 154 188 226 278
#
# _framework density 16.87463
#
# number of rings (size 3 to 8) (size 9 to 14) (size 15 to 20)
#    0.000    2.429    1.429    2.571    0.000    4.571 
#    0.000    0.000    0.000    0.571    0.000    0.000 
#    1.429    3.429    0.857    7.143    0.000    0.000 
#
# Total GULP energy -1040809.559970 kJ/mol
# GULP energy per Si atom -12390.590000 kJ/mol
# Density = 1.683622 g / cm^3
# Si number density = 16.874630 Si / 1000 Ang^3
#
#
#
# Elastic Constant Matrix: (Units=GPa)
#
#
# Indices 1 2 3 4 5 6 
#
# 1 58.3018 34.5542 11.0800 0.0001 -2.7846 0.0000
# 2 34.5542 58.3018 11.0800 -0.0001 2.7846 0.0000
# 3 11.0800 11.0800 75.8070 0.0000 0.0000 0.0000
# 4 0.0001 -0.0001 0.0000 16.1724 0.0000 2.7846
# 5 -2.7846 2.7846 0.0000 0.0000 16.1724 0.0001
# 6 0.0000 0.0000 0.0000 2.7846 0.0001 11.8738
#
#
#
# Elastic Compliance Matrix: (Units=1/GPa)
#
#
# Indices 1 2 3 4 5 6 
#
# 1 0.027520 -0.016361 -0.001631 0.000000 0.007556 0.000000
# 2 -0.016361 0.027520 -0.001631 0.000000 -0.007556 0.000000
# 3 -0.001631 -0.001631 0.013668 0.000000 0.000000 0.000000
# 4 0.000000 0.000000 0.000000 0.064436 0.000000 -0.015111
# 5 0.007556 -0.007556 0.000000 0.000000 0.064436 0.000000
# 6 0.000000 0.000000 0.000000 -0.015111 0.000000 0.087763
#
#
# Mechanical properties :
#
#
# Convention : Reuss Voigt Hill
#
# Bulk Modulus (GPa) = 33.94258 33.98214 33.96236
# Shear Modulus (GPa) = 14.95172 17.89016 16.42094
#
# Velocity S-wave (km/s) = 2.97988 3.25957 3.12286
# Velocity P-wave (km/s) = 5.65666 5.86073 5.75960
#
# Compressibility (1/GPa) = 0.02946152
#
# Stress axis : x y z
#
# Youngs Moduli (GPa) = 36.33712 36.33712 73.16280
#
# Poissons Ratio (x) = 0.59453 0.11932
# Poissons Ratio (y) = 0.59453 0.11932
# Poissons Ratio (z) = 0.05926 0.05926
#
# Static dielectric constant tensor:
#      x y z
#    x 2.949570 0.000000 0.000000 
#    y 0.000000 2.949570 0.000000 
#    z 0.000000 0.000000 3.462640 
# 
# 
# High freq. dielectric constant tensor:
#      x y z
#    x 1.614680 0.000000 0.000000 
#    y 0.000000 1.614680 0.000000 
#    z 0.000000 0.000000 1.669320 
# 
# From -- ./inp_files/2505.got.cif
#   From: 2010.03.12/outbox.cif.g09.slc.cpg/sg162_2_cif.got.tgz:2505.got - 2010.04.02 06:27:41.
