data_PCOD8322513
_publ_section_title
;
Structure prediction by ZEFSAII (Michael W. Deem and Ramdas Pophale) SiO2 
 PCOD8322513
Probable space group: R 3 2
;
_chemical_formula_sum "Si O2"
_cell_formula_units_Z 108
_cell_length_a 20.598314
_cell_length_b 20.598314
_cell_length_c 14.779146
_cell_angle_alpha 90.000000
_cell_angle_beta 90.000000
_cell_angle_gamma 120.000000
_cell_volume 5430.543785
_symmetry_space_group_name_H-M "R 3 2"
_symmetry_group_IT_number 155
_symmetry_cell_setting 'hexagonal'
loop_
_space_group_symop_operation_xyz
x,y,z
-y,x-y,z
-x+y,-x,z
x-y,-y,-z
-x,-x+y,-z
y,x,-z
2/3+x,1/3+y,1/3+z
2/3-y,1/3+x-y,1/3+z
2/3-x+y,1/3-x,1/3+z
2/3+x-y,1/3-y,1/3-z
2/3-x,1/3-x+y,1/3-z
2/3+y,1/3+x,1/3-z
1/3+x,2/3+y,2/3+z
1/3-y,2/3+x-y,2/3+z
1/3-x+y,2/3-x,2/3+z
1/3+x-y,2/3-y,2/3-z
1/3-x,2/3-x+y,2/3-z
1/3+y,2/3+x,2/3-z
loop_
_atom_site_type_symbol
_atom_site_label
_atom_site_fract_x
_atom_site_fract_y
_atom_site_fract_z
Si Si1 0.834569 0.415601 0.355005
Si Si2 0.391464 0.914261 0.482525
Si Si3 0.741600 0.846675 0.147114
Si Si4 0.248036 0.416985 0.181896
Si Si5 0.833207 0.399107 0.683386
Si Si6 0.765923 0.498363 0.645205
O O1 0.765503 0.333334 0.333334
O O2 0.809024 0.475691 0.333334
O O3 0.863183 0.414505 0.456404
O O4 0.905276 0.437742 0.290625
O O5 0.306320 0.897835 0.501331
O O6 0.398923 0.898146 0.377375
O O7 0.449213 0.000000 0.500000
O O8 0.667193 0.850511 0.164549
O O9 0.807336 0.906440 0.211117
O O10 0.333334 0.432417 0.166667
O O11 0.232375 0.471035 0.117717
O O12 0.239544 0.432083 0.286291
O O13 0.809210 0.453240 0.636145
O O14 0.761580 0.316514 0.685909
#
# Coordination Sequence:
#
# PCOD8322513 Si02
#       6
#    18  18  18  18  18  18
#     4  10  20  36  58  82 109 140 181 230 278 330
#     4  10  21  36  56  81 111 145 181 226 276 330
#     4  10  21  37  55  79 109 143 183 222 269 328
#     4  10  21  37  55  78 110 144 181 222 267 326
#     4  10  20  35  56  80 107 137 175 224 272 320
#     4  10  20  35  56  80 106 137 176 222 270 322
#
# _framework density 19.887509999999999
#
# number of rings (size 3 to 8) (size 9 to 14) (size 15 to 20)
#    0.000    2.000    0.000    3.500    0.000    1.333 
#    0.000   16.667    0.000    0.000    0.000    0.000 
#    0.000    0.000    0.000    0.000    0.000    0.000 
#
# Total GULP energy -446258.977577 kJ/mol
# GULP energy per Si atom -12396.082710 kJ/mol
# Density = 1.984224 g / cm^3
# Si number density = 19.887510 Si / 1000 Ang^3
#
#
#
# Elastic Constant Matrix: (Units=GPa)
#
#
# Indices 1 2 3 4 5 6 
#
# 1 75.6767 25.7701 9.0856 -1.4189 -0.0001 0.0000
# 2 25.7701 75.6767 9.0856 1.4189 0.0001 0.0000
# 3 9.0856 9.0856 58.2734 0.0000 0.0000 0.0000
# 4 -1.4189 1.4189 0.0000 19.6126 0.0000 0.0001
# 5 -0.0001 0.0001 0.0000 0.0000 19.6126 -1.4189
# 6 0.0000 0.0000 0.0000 0.0001 -1.4189 24.9533
#
#
#
# Elastic Compliance Matrix: (Units=1/GPa)
#
#
# Indices 1 2 3 4 5 6 
#
# 1 0.015130 -0.004990 -0.001581 0.001456 0.000000 0.000000
# 2 -0.004990 0.015130 -0.001581 -0.001456 0.000000 0.000000
# 3 -0.001581 -0.001581 0.017654 0.000000 0.000000 0.000000
# 4 0.001456 -0.001456 0.000000 0.051198 0.000000 0.000000
# 5 0.000000 0.000000 0.000000 0.000000 0.051198 0.002911
# 6 0.000000 0.000000 0.000000 0.000000 0.002911 0.040240
#
#
# Mechanical properties :
#
#
# Convention : Reuss Voigt Hill
#
# Bulk Modulus (GPa) = 31.63509 33.05659 32.34584
# Shear Modulus (GPa) = 22.99994 23.88139 23.44067
#
# Velocity S-wave (km/s) = 3.40443 3.46905 3.43689
# Velocity P-wave (km/s) = 5.60313 5.71871 5.66121
#
# Compressibility (1/GPa) = 0.03161047
#
# Stress axis : x y z
#
# Youngs Moduli (GPa) = 66.09217 66.09217 56.64596
#
# Poissons Ratio (x) = 0.32979 0.08956
# Poissons Ratio (y) = 0.32979 0.08956
# Poissons Ratio (z) = 0.10450 0.10450
#
# Static dielectric constant tensor:
#      x y z
#    x 3.477150 0.000000 0.000000 
#    y 0.000000 3.477150 0.000000 
#    z 0.000000 0.000000 3.749600 
# 
# 
# High freq. dielectric constant tensor:
#      x y z
#    x 1.765720 0.000000 0.000000 
#    y 0.000000 1.765720 0.000000 
#    z 0.000000 0.000000 1.792070 
# 
# From -- ./inp_files/5130.got.cif
#   From: 2010.03.12/outbox.cif.g09.slc.cpg/sg155_3_cif.got.tgz:5130.got - 2010.04.03 13:54:13.
