data_PCOD8322519
_publ_section_title
;
Structure prediction by ZEFSAII (Michael W. Deem and Ramdas Pophale) SiO2 
 PCOD8322519
Probable space group: R 3 2
;
_chemical_formula_sum "Si O2"
_cell_formula_units_Z 84
_cell_length_a 14.545554
_cell_length_b 14.545554
_cell_length_c 23.196532
_cell_angle_alpha 90.000000
_cell_angle_beta 90.000000
_cell_angle_gamma 120.000000
_cell_volume 4250.247554
_symmetry_space_group_name_H-M "R 3 2"
_symmetry_group_IT_number 155
_symmetry_cell_setting 'hexagonal'
loop_
_space_group_symop_operation_xyz
x,y,z
-y,x-y,z
-x+y,-x,z
x-y,-y,-z
-x,-x+y,-z
y,x,-z
2/3+x,1/3+y,1/3+z
2/3-y,1/3+x-y,1/3+z
2/3-x+y,1/3-x,1/3+z
2/3+x-y,1/3-y,1/3-z
2/3-x,1/3-x+y,1/3-z
2/3+y,1/3+x,1/3-z
1/3+x,2/3+y,2/3+z
1/3-y,2/3+x-y,2/3+z
1/3-x+y,2/3-x,2/3+z
1/3+x-y,2/3-y,2/3-z
1/3-x,2/3-x+y,2/3-z
1/3+y,2/3+x,2/3-z
loop_
_atom_site_type_symbol
_atom_site_label
_atom_site_fract_x
_atom_site_fract_y
_atom_site_fract_z
Si Si1 0.000000 0.000000 0.718768
Si Si2 0.000000 0.484569 0.500000
Si Si3 0.831188 0.164521 0.666667
Si Si4 0.192991 0.913069 0.153768
Si Si5 0.658098 0.131766 0.098518
Si Si6 0.666668 0.333334 0.750148
Si Si7 0.668516 0.542467 0.753735
O O1 0.885580 0.971489 0.741110
O O2 0.000000 0.000000 0.650946
O O3 0.900143 0.371627 0.480790
O O4 0.967366 0.533954 0.553554
O O5 0.743088 0.120614 0.616460
O O6 0.851889 0.278954 0.689962
O O7 0.254850 0.893353 0.205280
O O8 0.219262 0.868407 0.094534
O O9 0.070841 0.850006 0.173491
O O10 0.657019 0.431774 0.774003
#
# Coordination Sequence:
#
# PCOD8322519 Si02
#       7
#     6   9   9  18  18   6  18
#     4  12  21  36  61  88 114 151 202 246 291 349
#     4  10  20  36  60  82 108 158 204 246 294 342
#     4  10  20  36  56  88 120 152 188 240 296 360
#     4   9  21  37  54  80 114 158 193 239 296 346
#     4  11  21  38  61  85 118 152 203 251 290 362
#     4  12  21  31  58  93 111 153 181 229 303 358
#     4   9  20  34  52  80 119 148 185 226 291 357
#
# _framework density 19.763556000000001
#
# number of rings (size 3 to 8) (size 9 to 14) (size 15 to 20)
#    0.000    2.143    4.286    0.000    0.000    6.857 
#    0.000    0.000    0.000    0.000    0.000    0.000 
#    0.000   17.143    0.000    0.000    0.000    0.000 
#
# Total GULP energy -346893.750461 kJ/mol
# GULP energy per Si atom -12389.062516 kJ/mol
# Density = 1.971857 g / cm^3
# Si number density = 19.763556 Si / 1000 Ang^3
#
#
#
# Elastic Constant Matrix: (Units=GPa)
#
#
# Indices 1 2 3 4 5 6 
#
# 1 87.5569 37.8133 45.1635 11.4222 0.0001 0.0000
# 2 37.8133 87.5558 45.1633 -11.4220 -0.0001 0.0000
# 3 45.1635 45.1633 78.4035 0.0001 0.0000 0.0000
# 4 11.4222 -11.4220 0.0001 26.7528 0.0000 -0.0001
# 5 0.0001 -0.0001 0.0000 0.0000 26.7537 11.4222
# 6 0.0000 0.0000 0.0000 -0.0001 11.4222 24.8711
#
#
#
# Elastic Compliance Matrix: (Units=1/GPa)
#
#
# Indices 1 2 3 4 5 6 
#
# 1 0.019321 -0.005685 -0.007854 -0.010676 0.000000 0.000000
# 2 -0.005685 0.019321 -0.007855 0.010676 0.000000 0.000000
# 3 -0.007854 -0.007855 0.021804 0.000000 0.000000 0.000000
# 4 -0.010676 0.010676 0.000000 0.046496 0.000000 0.000000
# 5 0.000000 0.000000 0.000000 0.000000 0.046494 -0.021353
# 6 0.000000 0.000000 0.000000 0.000000 -0.021353 0.050014
#
#
# Mechanical properties :
#
#
# Convention : Reuss Voigt Hill
#
# Bulk Modulus (GPa) = 56.63694 56.64405 56.64050
# Shear Modulus (GPa) = 19.83153 24.03393 21.93273
#
# Velocity S-wave (km/s) = 3.17115 3.49101 3.33491
# Velocity P-wave (km/s) = 6.49059 6.70616 6.59925
#
# Compressibility (1/GPa) = 0.01765632
#
# Stress axis : x y z
#
# Youngs Moduli (GPa) = 51.75774 51.75688 45.86403
#
# Poissons Ratio (x) = 0.29426 0.36024
# Poissons Ratio (y) = 0.29427 0.36025
# Poissons Ratio (z) = 0.40653 0.40653
#
# Static dielectric constant tensor:
#      x y z
#    x 4.005420 0.000000 0.000000 
#    y 0.000000 4.005440 0.000000 
#    z 0.000000 0.000000 4.006170 
# 
# 
# High freq. dielectric constant tensor:
#      x y z
#    x 1.766530 0.000000 0.000000 
#    y 0.000000 1.766530 0.000000 
#    z 0.000000 0.000000 1.747100 
# 
# From -- ./inp_files/7433.got.cif
#   From: 2010.03.12/outbox.cif.g09.slc.cpg/sg155_4_cif.got.tgz:7433.got - 2010.04.03 13:54:13.
