data_PCOD8322388
_publ_section_title
;
Structure prediction by ZEFSAII (Michael W. Deem and Ramdas Pophale) SiO2 
 PCOD8322388
Probable space group: P 32 2 1
;
_chemical_formula_sum "Si O2"
_cell_formula_units_Z 30
_cell_length_a 14.467602
_cell_length_b 14.467602
_cell_length_c 8.219310
_cell_angle_alpha 90.000000
_cell_angle_beta 90.000000
_cell_angle_gamma 120.000000
_cell_volume 1489.906786
_symmetry_space_group_name_H-M "P 32 2 1"
_symmetry_group_IT_number 154
_symmetry_cell_setting 'hexagonal'
loop_
_space_group_symop_operation_xyz
x,y,z
-y,x-y,2/3+z
-x+y,-x,1/3+z
x-y,-y,1/3-z
-x,-x+y,2/3-z
y,x,-z
loop_
_atom_site_type_symbol
_atom_site_label
_atom_site_fract_x
_atom_site_fract_y
_atom_site_fract_z
Si Si1 0.524575 0.860745 0.934635
Si Si2 0.253580 0.162887 0.865299
Si Si3 0.519545 0.519545 0.500000
Si Si4 0.156464 0.494010 0.413627
Si Si5 0.668977 0.621686 0.243085
Si Si6 0.067310 0.000000 0.666667
O O1 0.640738 0.910424 0.854743
O O2 0.434929 0.823689 0.793078
O O3 0.498642 0.769193 0.067458
O O4 0.521930 0.953308 0.030667
O O5 0.288232 0.080160 0.935848
O O6 0.180582 0.105051 0.707128
O O7 0.189433 0.189433 0.000000
O O8 0.629500 0.549036 0.405462
O O9 0.106419 0.460097 0.235541
O O10 0.080789 0.402947 0.544182
O O11 0.020740 0.020740 0.500000
#
# Coordination Sequence:
#
# PCOD8322388 Si02
#       6
#     6   6   3   6   6   3
#     4  10  22  39  60  97 122 170 212 265 321 384
#     4  11  24  42  67  97 127 175 232 282 328 409
#     4  10  22  38  62  92 130 164 212 264 328 404
#     4   9  19  38  61  82 127 164 204 254 321 387
#     4   9  20  41  59  84 124 174 197 259 337 380
#     4  12  26  48  66 100 142 176 224 288 364 402
#
# _framework density 20.135487999999999
#
# number of rings (size 3 to 8) (size 9 to 14) (size 15 to 20)
#    0.000    2.000    1.000    2.400    7.000    4.800 
#    7.200    0.000    0.000    0.000    0.000    0.000 
#    0.000    0.000    0.000    0.000    0.000    0.000 
#
# Total GULP energy -371732.109929 kJ/mol
# GULP energy per Si atom -12391.070331 kJ/mol
# Density = 2.008966 g / cm^3
# Si number density = 20.135488 Si / 1000 Ang^3
#
#
#
# Elastic Constant Matrix: (Units=GPa)
#
#
# Indices 1 2 3 4 5 6 
#
# 1 114.6425 49.0486 42.8489 0.5539 -0.0001 0.0000
# 2 49.0486 114.6425 42.8489 -0.5539 0.0001 0.0000
# 3 42.8489 42.8489 89.0972 0.0000 0.0000 0.0000
# 4 0.5539 -0.5539 0.0000 27.1991 0.0000 0.0001
# 5 -0.0001 0.0001 0.0000 0.0000 27.1991 0.5539
# 6 0.0000 0.0000 0.0000 0.0001 0.5539 32.7969
#
#
#
# Elastic Compliance Matrix: (Units=1/GPa)
#
#
# Indices 1 2 3 4 5 6 
#
# 1 0.011708 -0.003543 -0.003927 -0.000311 0.000000 0.000000
# 2 -0.003543 0.011708 -0.003927 0.000311 0.000000 0.000000
# 3 -0.003927 -0.003927 0.015001 0.000000 0.000000 0.000000
# 4 -0.000311 0.000311 0.000000 0.036779 0.000000 0.000000
# 5 0.000000 0.000000 0.000000 0.000000 0.036779 -0.000621
# 6 0.000000 0.000000 0.000000 0.000000 -0.000621 0.030501
#
#
# Mechanical properties :
#
#
# Convention : Reuss Voigt Hill
#
# Bulk Modulus (GPa) = 64.00593 65.31945 64.66269
# Shear Modulus (GPa) = 29.32991 29.68140 29.50565
#
# Velocity S-wave (km/s) = 3.82072 3.84355 3.83215
# Velocity P-wave (km/s) = 7.16383 7.22548 7.19472
#
# Compressibility (1/GPa) = 0.01562355
#
# Stress axis : x y z
#
# Youngs Moduli (GPa) = 85.41401 85.41401 66.66441
#
# Poissons Ratio (x) = 0.30261 0.26177
# Poissons Ratio (y) = 0.30261 0.26177
# Poissons Ratio (z) = 0.33539 0.33539
#
# Static dielectric constant tensor:
#      x y z
#    x 3.941090 0.000000 0.000000 
#    y 0.000000 3.941090 0.000000 
#    z 0.000000 0.000000 3.909380 
# 
# 
# High freq. dielectric constant tensor:
#      x y z
#    x 1.786700 0.000000 0.000000 
#    y 0.000000 1.786700 0.000000 
#    z 0.000000 0.000000 1.785270 
# 
# From -- ./inp_files/1048.got.cif
#   From: 2010.03.12/outbox.cif.g09.slc.cpg/sg154_1_cif.got.tgz:1048.got - 2010.04.03 13:51:21.
