data_PCOD8322479
_publ_section_title
;
Structure prediction by ZEFSAII (Michael W. Deem and Ramdas Pophale) SiO2 
 PCOD8322479
Probable space group: R 3 2
;
_chemical_formula_sum "Si O2"
_cell_formula_units_Z 126
_cell_length_a 23.035188
_cell_length_b 23.035188
_cell_length_c 15.534688
_cell_angle_alpha 90.000000
_cell_angle_beta 90.000000
_cell_angle_gamma 120.000000
_cell_volume 7138.659856
_symmetry_space_group_name_H-M "R 3 2"
_symmetry_group_IT_number 155
_symmetry_cell_setting 'hexagonal'
loop_
_space_group_symop_operation_xyz
x,y,z
-y,x-y,z
-x+y,-x,z
x-y,-y,-z
-x,-x+y,-z
y,x,-z
2/3+x,1/3+y,1/3+z
2/3-y,1/3+x-y,1/3+z
2/3-x+y,1/3-x,1/3+z
2/3+x-y,1/3-y,1/3-z
2/3-x,1/3-x+y,1/3-z
2/3+y,1/3+x,1/3-z
1/3+x,2/3+y,2/3+z
1/3-y,2/3+x-y,2/3+z
1/3-x+y,2/3-x,2/3+z
1/3+x-y,2/3-y,2/3-z
1/3-x,2/3-x+y,2/3-z
1/3+y,2/3+x,2/3-z
loop_
_atom_site_type_symbol
_atom_site_label
_atom_site_fract_x
_atom_site_fract_y
_atom_site_fract_z
Si Si1 0.152219 0.075724 0.860934
Si Si2 0.591671 0.057745 0.933222
Si Si3 0.588529 0.086744 0.331769
Si Si4 0.409472 0.820629 0.328368
Si Si5 0.178504 0.589249 0.527593
Si Si6 0.076398 0.152187 0.338214
Si Si7 0.721670 0.920322 0.596334
O O1 0.218622 0.120490 0.915691
O O2 0.098445 0.099199 0.880202
O O3 0.172748 0.085126 0.761566
O O4 0.121239 0.999217 0.890418
O O5 0.669364 0.087987 0.958186
O O6 0.577084 0.030311 0.835836
O O7 0.571568 0.115189 0.940118
O O8 0.547258 0.000000 0.000000
O O9 0.666667 0.109922 0.333334
O O10 0.567988 0.111116 0.418085
O O11 0.547452 0.006411 0.325818
O O12 0.419582 0.841895 0.428112
O O13 0.333057 0.789773 0.298163
O O14 0.429374 0.763843 0.311804
O O15 0.454688 0.887353 0.273331
#
# Coordination Sequence:
#
# PCOD8322479 Si02
#       7
#    18  18  18  18  18  18  18
#     4   9  16  28  46  72 101 130 164 196 233 285
#     4  10  20  35  53  71  94 128 165 203 244 287
#     4  10  19  30  45  69  99 133 168 201 237 281
#     4   9  18  32  50  76 102 126 156 196 245 296
#     4   9  17  28  47  72 102 134 162 196 239 285
#     4   9  17  31  52  74  99 127 155 193 244 295
#     4  10  21  34  49  72  99 126 163 205 244 290
#
# _framework density 17.650372000000001
#
# number of rings (size 3 to 8) (size 9 to 14) (size 15 to 20)
#    0.000    2.571    0.000    2.286    0.000    4.571 
#    0.000    1.429    0.000    3.429    0.000    6.000 
#    0.000    0.000    0.000    0.000    0.000    0.000 
#
# Total GULP energy -520843.341723 kJ/mol
# GULP energy per Si atom -12401.031946 kJ/mol
# Density = 1.761020 g / cm^3
# Si number density = 17.650372 Si / 1000 Ang^3
#
#
#
# Elastic Constant Matrix: (Units=GPa)
#
#
# Indices 1 2 3 4 5 6 
#
# 1 94.8763 44.9440 27.4529 -0.9103 0.0001 0.0000
# 2 44.9440 94.8763 27.4529 0.9103 -0.0001 0.0000
# 3 27.4529 27.4529 47.8325 0.0000 0.0000 0.0000
# 4 -0.9103 0.9103 0.0000 26.3423 0.0000 -0.0001
# 5 0.0001 -0.0001 0.0000 0.0000 26.3423 -0.9103
# 6 0.0000 0.0000 0.0000 -0.0001 -0.9103 24.9662
#
#
#
# Elastic Compliance Matrix: (Units=1/GPa)
#
#
# Indices 1 2 3 4 5 6 
#
# 1 0.014643 -0.005410 -0.005299 0.000693 0.000000 0.000000
# 2 -0.005410 0.014643 -0.005299 -0.000693 0.000000 0.000000
# 3 -0.005299 -0.005299 0.026989 0.000000 0.000000 0.000000
# 4 0.000693 -0.000693 0.000000 0.038010 0.000000 0.000000
# 5 0.000000 0.000000 0.000000 0.000000 0.038010 0.001386
# 6 0.000000 0.000000 0.000000 0.000000 0.001386 0.040105
#
#
# Mechanical properties :
#
#
# Convention : Reuss Voigt Hill
#
# Bulk Modulus (GPa) = 41.22287 48.58719 44.90503
# Shear Modulus (GPa) = 23.52938 24.71253 24.12095
#
# Velocity S-wave (km/s) = 3.65510 3.74587 3.70076
# Velocity P-wave (km/s) = 6.42020 6.80412 6.61494
#
# Compressibility (1/GPa) = 0.02425838
#
# Stress axis : x y z
#
# Youngs Moduli (GPa) = 68.29363 68.29363 37.05210
#
# Poissons Ratio (x) = 0.36945 0.19634
# Poissons Ratio (y) = 0.36945 0.19634
# Poissons Ratio (z) = 0.36190 0.36190
#
# Static dielectric constant tensor:
#      x y z
#    x 3.114690 0.000000 0.000000 
#    y 0.000000 3.114690 0.000000 
#    z 0.000000 0.000000 3.309790 
# 
# 
# High freq. dielectric constant tensor:
#      x y z
#    x 1.665730 0.000000 0.000000 
#    y 0.000000 1.665730 0.000000 
#    z 0.000000 0.000000 1.688050 
# 
# From -- ./inp_files/6274.got.cif
#   From: 2010.03.12/outbox.cif.g09.slc.cpg/sg155_4_cif.got.tgz:6274.got - 2010.04.03 13:54:13.
