data_PCOD8322923
_publ_section_title
;
Structure prediction by ZEFSAII (Michael W. Deem and Ramdas Pophale) SiO2 
 PCOD8322923
Probable space group: P -3 1 M 
;
_chemical_formula_sum "Si O2"
_cell_formula_units_Z 78
_cell_length_a 19.441075
_cell_length_b 19.441075
_cell_length_c 15.145576
_cell_angle_alpha 90.000000
_cell_angle_beta 90.000000
_cell_angle_gamma 120.000000
_cell_volume 4957.434419
_symmetry_space_group_name_H-M "P -3 1 M "
_symmetry_group_IT_number 162
_symmetry_cell_setting 'hexagonal'
loop_
_space_group_symop_operation_xyz
x,y,z
-y,x-y,z
-x+y,-x,z
-y,-x,-z
-x+y,y,-z
x,x-y,-z
-x,-y,-z
y,-x+y,-z
x-y,x,-z
y,x,z
x-y,-y,z
-x,-x+y,z
loop_
_atom_site_type_symbol
_atom_site_label
_atom_site_fract_x
_atom_site_fract_y
_atom_site_fract_z
Si Si1 0.666672 0.089842 0.009214
Si Si2 0.908600 0.091216 0.600243
Si Si3 0.590083 0.242081 0.186312
Si Si4 0.717787 0.808659 0.244859
Si Si5 0.721635 0.814877 0.920775
Si Si6 0.401843 0.598158 0.000000
Si Si7 0.910564 0.342647 0.198136
O O1 0.750160 0.119305 0.056875
O O2 0.605147 0.000000 0.035588
O O3 0.628694 0.140928 0.045074
O O4 0.681450 0.098090 0.904084
O O5 0.892822 0.107179 0.500000
O O6 0.853963 0.111793 0.661779
O O7 0.000000 0.146055 0.627756
O O8 0.886390 0.000000 0.611203
O O9 0.680201 0.262806 0.214783
O O10 0.521807 0.157975 0.225290
O O11 0.587139 0.244976 0.078845
O O12 0.777011 0.777011 0.217142
O O13 0.723594 0.869257 0.171358
O O14 0.628870 0.734015 0.254503
O O15 0.776279 0.776279 0.912086
O O16 0.756654 0.878327 0.000000
O O17 0.000000 0.416486 0.217267
#
# Coordination Sequence:
#
# PCOD8322923 Si02
#       7
#    12  12  12  12  12   6  12
#     4   9  18  28  40  58  82 117 157 195 231 271
#     4   9  17  30  49  72  96 120 148 189 245 301
#     4   9  19  28  41  61  86 117 152 195 241 275
#     4  10  19  31  47  64  86 118 155 192 227 276
#     4  11  20  29  42  58  82 118 156 192 226 264
#     4  10  17  26  42  60  80 114 156 200 240 282
#     4   9  17  31  46  60  84 121 157 189 228 280
#
# _framework density 15.733943999999999
#
# number of rings (size 3 to 8) (size 9 to 14) (size 15 to 20)
#    0.308    2.154    1.538    1.769    2.154    1.231 
#    0.000    0.000    0.000    3.692    0.000    0.000 
#    0.000    1.231    0.000    7.692    2.769    0.000 
#
# Total GULP energy -966577.774854 kJ/mol
# GULP energy per Si atom -12392.022755 kJ/mol
# Density = 1.569813 g / cm^3
# Si number density = 15.733944 Si / 1000 Ang^3
#
#
#
# Elastic Constant Matrix: (Units=GPa)
#
#
# Indices 1 2 3 4 5 6 
#
# 1 103.0038 57.9081 29.9673 0.0000 0.6104 0.0000
# 2 57.9081 103.0038 29.9673 0.0000 -0.6104 0.0000
# 3 29.9673 29.9673 47.1575 0.0000 0.0000 0.0000
# 4 0.0000 0.0000 0.0000 15.3520 0.0000 -0.6104
# 5 0.6104 -0.6104 0.0000 0.0000 15.3520 0.0000
# 6 0.0000 0.0000 0.0000 -0.6104 0.0000 22.5478
#
#
#
# Elastic Compliance Matrix: (Units=1/GPa)
#
#
# Indices 1 2 3 4 5 6 
#
# 1 0.015170 -0.007029 -0.005174 0.000000 -0.000883 0.000000
# 2 -0.007029 0.015170 -0.005174 0.000000 0.000883 0.000000
# 3 -0.005174 -0.005174 0.027781 0.000000 0.000000 0.000000
# 4 0.000000 0.000000 0.000000 0.065208 0.000000 0.001765
# 5 -0.000883 0.000883 0.000000 0.000000 0.065208 0.000000
# 6 0.000000 0.000000 0.000000 0.001765 0.000000 0.044398
#
#
# Mechanical properties :
#
#
# Convention : Reuss Voigt Hill
#
# Bulk Modulus (GPa) = 42.79123 54.31670 48.55397
# Shear Modulus (GPa) = 18.15022 19.67185 18.91103
#
# Velocity S-wave (km/s) = 3.40011 3.53977 3.47064
# Velocity P-wave (km/s) = 6.53224 7.16265 6.85469
#
# Compressibility (1/GPa) = 0.02336927
#
# Stress axis : x y z
#
# Youngs Moduli (GPa) = 65.91821 65.91821 35.99565
#
# Poissons Ratio (x) = 0.46332 0.18623
# Poissons Ratio (y) = 0.46332 0.18623
# Poissons Ratio (z) = 0.34105 0.34105
#
# Static dielectric constant tensor:
#      x y z
#    x 3.108640 0.000000 0.000000 
#    y 0.000000 3.108640 0.000000 
#    z 0.000000 0.000000 2.629700 
# 
# 
# High freq. dielectric constant tensor:
#      x y z
#    x 1.609200 0.000000 0.000000 
#    y 0.000000 1.609200 0.000000 
#    z 0.000000 0.000000 1.543240 
# 
# From -- ./inp_files/3267.got.cif
#   From: 2010.03.12/outbox.cif.g09.slc.cpg/sg162_2_cif.got.tgz:3267.got - 2010.04.02 06:27:41.
