data_PCOD8322404
_publ_section_title
;
Structure prediction by ZEFSAII (Michael W. Deem and Ramdas Pophale) SiO2 
 PCOD8322404
Probable space group: P 32 2 1
;
_chemical_formula_sum "Si O2"
_cell_formula_units_Z 33
_cell_length_a 15.330480
_cell_length_b 15.330480
_cell_length_c 7.912161
_cell_angle_alpha 90.000000
_cell_angle_beta 90.000000
_cell_angle_gamma 120.000000
_cell_volume 1610.412947
_symmetry_space_group_name_H-M "P 32 2 1"
_symmetry_group_IT_number 154
_symmetry_cell_setting 'hexagonal'
loop_
_space_group_symop_operation_xyz
x,y,z
-y,x-y,2/3+z
-x+y,-x,1/3+z
x-y,-y,1/3-z
-x,-x+y,2/3-z
y,x,-z
loop_
_atom_site_type_symbol
_atom_site_label
_atom_site_fract_x
_atom_site_fract_y
_atom_site_fract_z
Si Si1 0.388673 0.719474 0.702951
Si Si2 0.457704 0.394728 0.337601
Si Si3 0.374146 0.002835 0.980916
Si Si4 0.247168 0.785677 0.834543
Si Si5 0.325979 0.325979 0.000000
Si Si6 0.807779 0.194560 0.513018
O O1 0.371381 0.693947 0.503221
O O2 0.343716 0.791855 0.741856
O O3 0.506223 0.773381 0.734077
O O4 0.393728 0.393728 0.500000
O O5 0.553408 0.505468 0.312564
O O6 0.491747 0.311315 0.377431
O O7 0.398581 0.370396 0.162204
O O8 0.351683 0.075491 0.866782
O O9 0.300276 0.888760 0.933001
O O10 0.334491 0.000000 0.166667
O O11 0.174228 0.784754 0.686084
O O12 0.309227 0.217807 0.941830
#
# Coordination Sequence:
#
# PCOD8322404 Si02
#       6
#     6   6   6   6   3   6
#     4  10  23  36  57  86 122 169 214 266 318 385
#     4  11  24  42  64  96 132 175 225 273 327 401
#     4  11  25  40  64  93 130 174 224 273 330 399
#     4  11  23  42  62  93 134 168 225 276 325 394
#     4  12  24  40  64  88 126 176 218 274 338 394
#     4  11  24  40  61  93 125 175 221 275 332 389
#
# _framework density 20.49164
#
# number of rings (size 3 to 8) (size 9 to 14) (size 15 to 20)
#    0.000    1.091    1.818    3.818   20.364    0.000 
#    0.000    0.000    0.000    0.000    0.000    3.818 
#    0.000    0.000    0.000    0.000    0.000    0.000 
#
# Total GULP energy -408838.213483 kJ/mol
# GULP energy per Si atom -12389.036772 kJ/mol
# Density = 2.044500 g / cm^3
# Si number density = 20.491640 Si / 1000 Ang^3
#
#
#
# Elastic Constant Matrix: (Units=GPa)
#
#
# Indices 1 2 3 4 5 6 
#
# 1 68.9191 45.3554 14.5954 0.3239 0.0000 0.0000
# 2 45.3554 68.9191 14.5954 -0.3239 0.0000 0.0000
# 3 14.5954 14.5954 98.2664 0.0000 0.0000 0.0000
# 4 0.3239 -0.3239 0.0000 33.3646 0.0000 0.0000
# 5 0.0000 0.0000 0.0000 0.0000 33.3646 0.3239
# 6 0.0000 0.0000 0.0000 0.0000 0.3239 11.7819
#
#
#
# Elastic Compliance Matrix: (Units=1/GPa)
#
#
# Indices 1 2 3 4 5 6 
#
# 1 0.025773 -0.016677 -0.001351 -0.000412 0.000000 0.000000
# 2 -0.016677 0.025773 -0.001351 0.000412 0.000000 0.000000
# 3 -0.001351 -0.001351 0.010578 0.000000 0.000000 0.000000
# 4 -0.000412 0.000412 0.000000 0.029980 0.000000 0.000000
# 5 0.000000 0.000000 0.000000 0.000000 0.029980 -0.000824
# 6 0.000000 0.000000 0.000000 0.000000 -0.000824 0.084899
#
#
# Mechanical properties :
#
#
# Convention : Reuss Voigt Hill
#
# Bulk Modulus (GPa) = 42.79790 42.79966 42.79878
# Shear Modulus (GPa) = 19.72171 26.47277 23.09724
#
# Velocity S-wave (km/s) = 3.10567 3.59817 3.36095
# Velocity P-wave (km/s) = 5.81301 6.18015 5.99939
#
# Compressibility (1/GPa) = 0.02336563
#
# Stress axis : x y z
#
# Youngs Moduli (GPa) = 38.80078 38.80078 94.53805
#
# Poissons Ratio (x) = 0.64707 0.12772
# Poissons Ratio (y) = 0.64707 0.12772
# Poissons Ratio (z) = 0.05242 0.05242
#
# Static dielectric constant tensor:
#      x y z
#    x 3.642820 0.000000 0.000000 
#    y 0.000000 3.642820 0.000000 
#    z 0.000000 0.000000 4.153850 
# 
# 
# High freq. dielectric constant tensor:
#      x y z
#    x 1.773070 0.000000 0.000000 
#    y 0.000000 1.773070 0.000000 
#    z 0.000000 0.000000 1.835800 
# 
# From -- ./inp_files/1122.got.cif
#   From: 2010.03.12/outbox.cif.g09.slc.cpg/sg154_1_cif.got.tgz:1122.got - 2010.04.03 13:51:21.
