data_PCOD8322690
_publ_section_title
;
Structure prediction by ZEFSAII (Michael W. Deem and Ramdas Pophale) SiO2 
 PCOD8322690
Probable space group: P 3 M 1
;
_chemical_formula_sum "Si O2"
_cell_formula_units_Z 48
_cell_length_a 12.565038
_cell_length_b 12.565038
_cell_length_c 20.290679
_cell_angle_alpha 90.000000
_cell_angle_beta 90.000000
_cell_angle_gamma 120.000000
_cell_volume 2774.308962
_symmetry_space_group_name_H-M "P 3 M 1"
_symmetry_group_IT_number 156
_symmetry_cell_setting 'hexagonal'
loop_
_space_group_symop_operation_xyz
x,y,z
-y,x-y,z
-x+y,-x,z
-x+y,y,z
x,x-y,z
-y,-x,z
loop_
_atom_site_type_symbol
_atom_site_label
_atom_site_fract_x
_atom_site_fract_y
_atom_site_fract_z
Si Si1 0.249060 0.001630 0.285210
Si Si2 0.333409 0.422227 0.524862
Si Si3 0.914036 0.581074 0.407757
Si Si4 0.333474 0.422506 0.674554
Si Si5 0.582231 0.666998 0.037740
Si Si6 0.666617 0.084042 0.161461
Si Si7 0.419716 0.086895 0.791522
Si Si8 0.247918 0.247757 0.914089
O O1 0.129769 0.870232 0.281304
O O2 0.209373 0.104687 0.283122
O O3 0.320104 0.009864 0.352038
O O4 0.334965 0.015239 0.224136
O O5 0.203851 0.407701 0.504565
O O6 0.435398 0.564603 0.516225
O O7 0.362016 0.336891 0.478083
O O8 0.331133 0.378288 0.599733
O O9 0.773595 0.547189 0.409679
O O10 0.917221 0.458611 0.391192
O O11 0.203618 0.407236 0.695060
O O12 0.434706 0.565295 0.682800
O O13 0.363516 0.338281 0.721284
O O14 0.572193 0.786097 0.052994
O O15 0.446605 0.553396 0.029397
O O16 0.654796 0.649052 0.097205
O O17 0.655838 0.680057 0.971383
O O18 0.549163 0.098325 0.173027
O O19 0.781871 0.218130 0.151946
O O20 0.540532 0.081064 0.809534
O O21 0.456051 0.228026 0.787807
O O22 0.318393 0.012979 0.846488
O O23 0.244175 0.122088 0.931903
O O24 0.109799 0.219597 0.906326
#
# Coordination Sequence:
#
# PCOD8322690 Si02
#       8
#     6   6   6   6   6   6   6   6
#     4  10  20  34  52  73  97 126 161 201 244 288
#     4   9  17  30  49  72  97 125 158 198 243 289
#     4  10  20  33  50  72  99 131 165 201 241 287
#     4   9  17  30  49  72  96 123 157 198 243 288
#     4  10  20  34  52  74 101 132 165 202 245 292
#     4  10  20  34  53  76 102 132 165 200 238 283
#     4  10  20  33  49  70  97 129 163 198 239 288
#     4  10  20  34  52  73  97 126 162 204 249 295
#
# _framework density 17.301606
#
# number of rings (size 3 to 8) (size 9 to 14) (size 15 to 20)
#    0.000    2.250    0.000    3.250    0.000    1.500 
#    0.000    1.250    0.000   17.500    0.000    0.000 
#    0.000    0.000    0.000    0.000    0.000    0.000 
#
# Total GULP energy -595350.738012 kJ/mol
# GULP energy per Si atom -12403.140375 kJ/mol
# Density = 1.726223 g / cm^3
# Si number density = 17.301606 Si / 1000 Ang^3
#
#
#
# Elastic Constant Matrix: (Units=GPa)
#
#
# Indices 1 2 3 4 5 6 
#
# 1 97.1048 53.9522 55.2038 2.5514 0.0003 0.0000
# 2 53.9522 97.1048 55.2038 -2.5514 -0.0003 0.0000
# 3 55.2038 55.2038 103.2725 0.0000 0.0000 0.0000
# 4 2.5514 -2.5514 0.0000 26.5224 0.0000 -0.0003
# 5 0.0003 -0.0003 0.0000 0.0000 26.5224 2.5514
# 6 0.0000 0.0000 0.0000 -0.0003 2.5514 21.5763
#
#
#
# Elastic Compliance Matrix: (Units=1/GPa)
#
#
# Indices 1 2 3 4 5 6 
#
# 1 0.017153 -0.006288 -0.005808 -0.002255 0.000000 0.000000
# 2 -0.006288 0.017153 -0.005808 0.002255 0.000000 0.000000
# 3 -0.005808 -0.005808 0.015892 0.000000 0.000000 0.000000
# 4 -0.002255 0.002255 0.000000 0.038138 0.000000 0.000001
# 5 0.000000 0.000000 0.000000 0.000000 0.038138 -0.004510
# 6 0.000000 0.000000 0.000000 0.000001 -0.004510 0.046880
#
#
# Mechanical properties :
#
#
# Convention : Reuss Voigt Hill
#
# Bulk Modulus (GPa) = 69.48856 69.57799 69.53327
# Shear Modulus (GPa) = 23.36920 23.79903 23.58412
#
# Velocity S-wave (km/s) = 3.67917 3.71285 3.69605
# Velocity P-wave (km/s) = 7.63535 7.66044 7.64791
#
# Compressibility (1/GPa) = 0.01439086
#
# Stress axis : x y z
#
# Youngs Moduli (GPa) = 58.30033 58.30033 62.92400
#
# Poissons Ratio (x) = 0.36657 0.36545
# Poissons Ratio (y) = 0.36657 0.36545
# Poissons Ratio (z) = 0.33860 0.33860
#
# Static dielectric constant tensor:
#      x y z
#    x 3.188900 0.000000 0.000000 
#    y 0.000000 3.188900 0.000000 
#    z 0.000000 0.000000 3.383640 
# 
# 
# High freq. dielectric constant tensor:
#      x y z
#    x 1.671460 0.000000 0.000000 
#    y 0.000000 1.671460 0.000000 
#    z 0.000000 0.000000 1.681060 
# 
# From -- ./inp_files/1097.got.cif
#   From: 2010.03.12/outbox.cif.g09.slc.cpg/sg156_cif.got.tgz:1097.got - 2010.04.03 13:58:47.
