data_PCOD8322770
_publ_section_title
;
Structure prediction by ZEFSAII (Michael W. Deem and Ramdas Pophale) SiO2 
 PCOD8322770
Probable space group: P 3 C 1
;
_chemical_formula_sum "Si O2"
_cell_formula_units_Z 36
_cell_length_a 8.644109
_cell_length_b 8.644109
_cell_length_c 26.166392
_cell_angle_alpha 90.000000
_cell_angle_beta 90.000000
_cell_angle_gamma 120.000000
_cell_volume 1693.226061
_symmetry_space_group_name_H-M "P 3 C 1"
_symmetry_group_IT_number 158
_symmetry_cell_setting 'hexagonal'
loop_
_space_group_symop_operation_xyz
x,y,z
-y,x-y,z
-x+y,-x,z
-x+y,y,1/2+z
x,x-y,1/2+z
-y,-x,1/2+z
loop_
_atom_site_type_symbol
_atom_site_label
_atom_site_fract_x
_atom_site_fract_y
_atom_site_fract_z
Si Si1 0.335694 0.028816 0.682630
Si Si2 0.869569 0.773687 0.579295
Si Si3 0.017896 0.350725 0.220011
Si Si4 0.017392 0.351229 0.335393
Si Si5 0.762550 0.202903 0.476109
Si Si6 0.330973 0.304518 0.372774
O O1 0.352828 0.124614 0.627714
O O2 0.362252 0.180603 0.723183
O O3 0.144715 0.853158 0.691574
O O4 0.488843 0.978103 0.688165
O O5 0.833333 0.666667 0.527702
O O6 0.796918 0.914251 0.581241
O O7 0.083814 0.417147 0.277702
O O8 0.177823 0.355230 0.367239
O O9 0.847270 0.151685 0.332221
O O10 0.958223 0.478048 0.363830
O O11 0.869748 0.419083 0.474163
O O12 0.791281 0.105121 0.427690
#
# Coordination Sequence:
#
# PCOD8322770 Si02
#       6
#     6   6   6   6   6   6
#     4  12  25  45  67 102 141 180 234 292 345 425
#     4  10  23  43  69  99 134 174 230 289 353 417
#     4  12  24  42  68  98 137 183 230 281 350 418
#     4  12  24  42  68  98 137 183 230 281 350 418
#     4  10  23  43  69  99 134 174 230 289 353 417
#     4  12  25  45  67 102 141 180 234 292 345 425
#
# _framework density 21.261189999999999
#
# number of rings (size 3 to 8) (size 9 to 14) (size 15 to 20)
#    0.667    0.000    3.333    5.000    4.667    0.000 
#    0.000    0.000    0.000    2.667    0.000    0.000 
#    0.000    0.000    0.000    0.000    0.000    0.000 
#
# Total GULP energy -446246.808894 kJ/mol
# GULP energy per Si atom -12395.744692 kJ/mol
# Density = 2.121280 g / cm^3
# Si number density = 21.261190 Si / 1000 Ang^3
#
#
#
# Elastic Constant Matrix: (Units=GPa)
#
#
# Indices 1 2 3 4 5 6 
#
# 1 97.6343 21.1154 38.7735 -4.3225 0.0000 0.0000
# 2 21.1154 97.6343 38.7735 4.3225 0.0000 0.0000
# 3 38.7735 38.7735 168.2955 0.0000 0.0000 0.0000
# 4 -4.3225 4.3225 0.0000 38.6772 0.0000 0.0000
# 5 0.0000 0.0000 0.0000 0.0000 38.6772 -4.3225
# 6 0.0000 0.0000 0.0000 0.0000 -4.3225 38.2595
#
#
#
# Elastic Compliance Matrix: (Units=1/GPa)
#
#
# Indices 1 2 3 4 5 6 
#
# 1 0.011574 -0.001662 -0.002284 0.001479 0.000000 0.000000
# 2 -0.001662 0.011574 -0.002284 -0.001479 0.000000 0.000000
# 3 -0.002284 -0.002284 0.006994 0.000000 0.000000 0.000000
# 4 0.001479 -0.001479 0.000000 0.026186 0.000000 0.000000
# 5 0.000000 0.000000 0.000000 0.000000 0.026186 0.002958
# 6 0.000000 0.000000 0.000000 0.000000 0.002958 0.026472
#
#
# Mechanical properties :
#
#
# Convention : Reuss Voigt Hill
#
# Bulk Modulus (GPa) = 56.54772 62.32098 59.43435
# Shear Modulus (GPa) = 39.26550 40.78288 40.02419
#
# Velocity S-wave (km/s) = 4.30212 4.38446 4.34349
# Velocity P-wave (km/s) = 7.16464 7.41667 7.29175
#
# Compressibility (1/GPa) = 0.01768418
#
# Stress axis : x y z
#
# Youngs Moduli (GPa) = 86.39984 86.39984 142.97525
#
# Poissons Ratio (x) = 0.14357 0.32651
# Poissons Ratio (y) = 0.14357 0.32651
# Poissons Ratio (z) = 0.19731 0.19731
#
# Static dielectric constant tensor:
#      x y z
#    x 3.733870 0.000000 0.000000 
#    y 0.000000 3.733870 0.000000 
#    z 0.000000 0.000000 3.779360 
# 
# 
# High freq. dielectric constant tensor:
#      x y z
#    x 1.830000 0.000000 0.000000 
#    y 0.000000 1.830000 0.000000 
#    z 0.000000 0.000000 1.840450 
# 
# From -- ./inp_files/763.got.cif
#   From: 2010.03.12/outbox.cif.g09.slc.cpg/sg158_cif.got.tgz:763.got - 2010.04.03 13:59:47.
