data_PCOD8322235
_publ_section_title
;
Structure prediction by ZEFSAII (Michael W. Deem and Ramdas Pophale) SiO2 
 PCOD8322235
Probable space group: P 32 1 2
;
_chemical_formula_sum "Si O2"
_cell_formula_units_Z 48
_cell_length_a 11.405892
_cell_length_b 11.405892
_cell_length_c 19.771071
_cell_angle_alpha 90.000000
_cell_angle_beta 90.000000
_cell_angle_gamma 120.000000
_cell_volume 2227.508333
_symmetry_space_group_name_H-M "P 32 1 2"
_symmetry_group_IT_number 153
_symmetry_cell_setting 'hexagonal'
loop_
_space_group_symop_operation_xyz
x,y,z
-y,x-y,2/3+z
-x+y,-x,1/3+z
-y,-x,1/3-z
-x+y,y,2/3-z
x,x-y,-z
loop_
_atom_site_type_symbol
_atom_site_label
_atom_site_fract_x
_atom_site_fract_y
_atom_site_fract_z
Si Si1 0.782257 0.153354 0.971887
Si Si2 0.559390 0.696763 0.061547
Si Si3 0.949558 0.783768 0.146317
Si Si4 0.711045 0.617289 0.876978
Si Si5 0.590089 0.367304 0.088251
Si Si6 0.133586 0.280640 0.514561
Si Si7 0.931830 0.375480 0.758399
Si Si8 0.352759 0.938081 0.955180
O O1 0.922373 0.185025 0.933326
O O2 0.726910 0.255811 0.953298
O O3 0.659080 0.021496 0.939286
O O4 0.790646 0.131056 0.051364
O O5 0.587912 0.770988 0.133074
O O6 0.405290 0.574768 0.054192
O O7 0.600284 0.800142 0.000000
O O8 0.848811 0.837305 0.166209
O O9 0.919840 0.647236 0.184055
O O10 0.100937 0.899064 0.166667
O O11 0.767566 0.535132 0.833334
O O12 0.757455 0.750805 0.830604
O O13 0.547481 0.529241 0.883372
O O14 0.625691 0.374310 0.166667
O O15 0.545264 0.216409 0.060264
O O16 0.456811 0.381903 0.082976
O O17 0.127037 0.329194 0.590665
O O18 0.033718 0.379121 0.701142
#
# Coordination Sequence:
#
# PCOD8322235 Si02
#       8
#     6   6   6   6   6   6   6   6
#     4  10  21  39  64  92 129 171 219 275 336 394
#     4  10  17  36  62  93 127 167 215 274 333 391
#     4  11  25  42  65  93 132 180 226 275 335 409
#     4  12  26  42  64  97 138 179 220 278 345 410
#     4  11  18  36  64 100 128 159 216 280 331 389
#     4  11  22  41  63  95 131 172 230 274 330 405
#     4  12  23  41  65 101 133 170 222 282 343 395
#     4  11  21  34  64  99 127 163 222 282 328 389
#
# _framework density 21.548741
#
# number of rings (size 3 to 8) (size 9 to 14) (size 15 to 20)
#    0.000    1.000    6.250    3.000    0.000    1.000 
#    0.000    3.750    0.000    0.000    0.000    0.000 
#    0.000    0.000    0.000    0.000    0.000    0.000 
#
# Total GULP energy -594767.203353 kJ/mol
# GULP energy per Si atom -12390.983403 kJ/mol
# Density = 2.149969 g / cm^3
# Si number density = 21.548741 Si / 1000 Ang^3
#
#
#
# Elastic Constant Matrix: (Units=GPa)
#
#
# Indices 1 2 3 4 5 6 
#
# 1 74.8135 33.6122 39.9718 0.0001 -2.7955 0.0000
# 2 33.6122 74.8135 39.9718 -0.0001 2.7955 0.0000
# 3 39.9718 39.9718 103.4104 0.0000 0.0000 0.0000
# 4 0.0001 -0.0001 0.0000 26.7658 0.0000 2.7955
# 5 -2.7955 2.7955 0.0000 0.0000 26.7658 0.0001
# 6 0.0000 0.0000 0.0000 2.7955 0.0001 20.6006
#
#
#
# Elastic Compliance Matrix: (Units=1/GPa)
#
#
# Indices 1 2 3 4 5 6 
#
# 1 0.018760 -0.005860 -0.004986 0.000000 0.002571 0.000000
# 2 -0.005860 0.018760 -0.004986 0.000000 -0.002571 0.000000
# 3 -0.004986 -0.004986 0.013525 0.000000 0.000000 0.000000
# 4 0.000000 0.000000 0.000000 0.037898 0.000000 -0.005143
# 5 0.002571 -0.002571 0.000000 0.000000 0.037898 0.000000
# 6 0.000000 0.000000 0.000000 -0.005143 0.000000 0.049240
#
#
# Mechanical properties :
#
#
# Convention : Reuss Voigt Hill
#
# Bulk Modulus (GPa) = 51.60204 53.34988 52.47596
# Shear Modulus (GPa) = 23.34214 24.12523 23.73369
#
# Velocity S-wave (km/s) = 3.29481 3.34962 3.32233
# Velocity P-wave (km/s) = 6.20266 6.30646 6.25478
#
# Compressibility (1/GPa) = 0.01937908
#
# Stress axis : x y z
#
# Youngs Moduli (GPa) = 53.30613 53.30613 73.93877
#
# Poissons Ratio (x) = 0.31240 0.36866
# Poissons Ratio (y) = 0.31240 0.36866
# Poissons Ratio (z) = 0.26578 0.26578
#
# Static dielectric constant tensor:
#      x y z
#    x 3.904140 0.000000 0.000000 
#    y 0.000000 3.904140 0.000000 
#    z 0.000000 0.000000 3.854980 
# 
# 
# High freq. dielectric constant tensor:
#      x y z
#    x 1.828680 0.000000 0.000000 
#    y 0.000000 1.828680 0.000000 
#    z 0.000000 0.000000 1.848750 
# 
# From -- ./inp_files/4068.got.cif
#   From: 2010.03.12/outbox.cif.g09.slc.cpg/sg153_3_cif.got.tgz:4068.got - 2010.04.03 13:48:33.
