data_PCOD8322987
_publ_section_title
;
Structure prediction by ZEFSAII (Michael W. Deem and Ramdas Pophale) SiO2 
 PCOD8322987
Probable space group: P -3 1 M 
;
_chemical_formula_sum "Si O2"
_cell_formula_units_Z 48
_cell_length_a 26.501585
_cell_length_b 26.501585
_cell_length_c 5.179157
_cell_angle_alpha 90.000000
_cell_angle_beta 90.000000
_cell_angle_gamma 120.000000
_cell_volume 3150.165753
_symmetry_space_group_name_H-M "P -3 1 M "
_symmetry_group_IT_number 162
_symmetry_cell_setting 'hexagonal'
loop_
_space_group_symop_operation_xyz
x,y,z
-y,x-y,z
-x+y,-x,z
-y,-x,-z
-x+y,y,-z
x,x-y,-z
-x,-y,-z
y,-x+y,-z
x-y,x,-z
y,x,z
x-y,-y,z
-x,-x+y,z
loop_
_atom_site_type_symbol
_atom_site_label
_atom_site_fract_x
_atom_site_fract_y
_atom_site_fract_z
Si Si1 0.069616 0.650142 0.502393
Si Si2 0.176942 0.244361 0.048367
Si Si3 0.238669 0.306098 0.535609
Si Si4 0.930561 0.408368 0.998890
O O1 0.095769 0.719930 0.514275
O O2 0.093174 0.633696 0.248860
O O3 0.000000 0.616729 0.506777
O O4 0.093323 0.631578 0.748387
O O5 0.193092 0.193092 0.064465
O O6 0.189816 0.281536 0.312045
O O7 0.107470 0.214939 0.000000
O O8 0.212027 0.289446 0.820319
O O9 0.278137 0.278137 0.471125
O O10 0.000000 0.443960 0.994740
O O11 0.906062 0.453031 0.000000
#
# Coordination Sequence:
#
# PCOD8322987 Si02
#       4
#    12  12  12  12
#     4   9  15  23  34  48  69  96 126 159 191 220
#     4  10  19  31  46  63  81  99 122 156 204 262
#     4   9  17  28  42  59  77  99 126 156 195 239
#     4   9  15  21  30  46  69  98 130 161 191 214
#
# _framework density 15.237292
#
# number of rings (size 3 to 8) (size 9 to 14) (size 15 to 20)
#    0.000    2.750    0.000    3.000    0.000    9.000 
#    0.000    0.000    0.000    0.250    0.000    0.000 
#    0.000    6.000    0.000    0.000    0.000    1.000 
#
# Total GULP energy -594981.678433 kJ/mol
# GULP energy per Si atom -12395.451634 kJ/mol
# Density = 1.520261 g / cm^3
# Si number density = 15.237292 Si / 1000 Ang^3
#
#
#
# Elastic Constant Matrix: (Units=GPa)
#
#
# Indices 1 2 3 4 5 6 
#
# 1 49.3737 26.6952 16.6663 0.0002 1.7624 0.0000
# 2 26.6952 49.3737 16.6663 -0.0002 -1.7624 0.0000
# 3 16.6663 16.6663 110.5917 0.0000 0.0000 0.0000
# 4 0.0002 -0.0002 0.0000 15.4223 0.0000 -1.7624
# 5 1.7624 -1.7624 0.0000 0.0000 15.4223 0.0002
# 6 0.0000 0.0000 0.0000 -1.7624 0.0002 11.3393
#
#
#
# Elastic Compliance Matrix: (Units=1/GPa)
#
#
# Indices 1 2 3 4 5 6 
#
# 1 0.029484 -0.015408 -0.002121 0.000000 -0.005130 0.000000
# 2 -0.015408 0.029484 -0.002121 0.000000 0.005130 0.000000
# 3 -0.002121 -0.002121 0.009682 0.000000 0.000000 0.000000
# 4 0.000000 0.000000 0.000000 0.066013 0.000000 0.010260
# 5 -0.005130 0.005130 0.000000 0.000000 0.066013 -0.000001
# 6 0.000000 0.000000 0.000000 0.010260 -0.000001 0.089784
#
#
# Mechanical properties :
#
#
# Convention : Reuss Voigt Hill
#
# Bulk Modulus (GPa) = 34.07416 36.59942 35.33679
# Shear Modulus (GPa) = 14.72565 18.39088 16.55826
#
# Velocity S-wave (km/s) = 3.11210 3.47791 3.30008
# Velocity P-wave (km/s) = 5.94344 6.34031 6.14508
#
# Compressibility (1/GPa) = 0.02934775
#
# Stress axis : x y z
#
# Youngs Moduli (GPa) = 33.91705 33.91705 103.28874
#
# Poissons Ratio (x) = 0.52260 0.21909
# Poissons Ratio (y) = 0.52260 0.21909
# Poissons Ratio (z) = 0.07194 0.07194
#
# Static dielectric constant tensor:
#      x y z
#    x 2.684370 0.000000 0.000000 
#    y 0.000000 2.684370 0.000000 
#    z 0.000000 0.000000 3.157320 
# 
# 
# High freq. dielectric constant tensor:
#      x y z
#    x 1.539030 0.000000 0.000000 
#    y 0.000000 1.539030 0.000000 
#    z 0.000000 0.000000 1.610760 
# 
# From -- ./inp_files/474.got.cif
#   From: 2010.03.12/outbox.cif.g09.slc.cpg/sg162_1_cif.got.tgz:474.got - 2010.04.02 06:27:41.
