data_PCOD8322865
_publ_section_title
;
Structure prediction by ZEFSAII (Michael W. Deem and Ramdas Pophale) SiO2 
 PCOD8322865
Probable space group: R 3 M
;
_chemical_formula_sum "Si O2"
_cell_formula_units_Z 126
_cell_length_a 21.413995
_cell_length_b 21.413995
_cell_length_c 17.497975
_cell_angle_alpha 90.000000
_cell_angle_beta 90.000000
_cell_angle_gamma 120.000000
_cell_volume 6948.864085
_symmetry_space_group_name_H-M "R 3 M"
_symmetry_group_IT_number 160
_symmetry_cell_setting 'hexagonal'
loop_
_space_group_symop_operation_xyz
x,y,z
-y,x-y,z
-x+y,-x,z
-x+y,y,z
x,x-y,z
-y,-x,z
2/3+x,1/3+y,1/3+z
2/3-y,1/3+x-y,1/3+z
2/3-x+y,1/3-x,1/3+z
2/3-x+y,1/3+y,1/3+z
2/3+x,1/3+x-y,1/3+z
2/3-y,1/3-x,1/3+z
1/3+x,2/3+y,2/3+z
1/3-y,2/3+x-y,2/3+z
1/3-x+y,2/3-x,2/3+z
1/3-x+y,2/3+y,2/3+z
1/3+x,2/3+x-y,2/3+z
1/3-y,2/3-x,2/3+z
loop_
_atom_site_type_symbol
_atom_site_label
_atom_site_fract_x
_atom_site_fract_y
_atom_site_fract_z
Si Si1 0.468523 0.084050 0.825344
Si Si2 0.944782 0.741863 0.933965
Si Si3 0.746597 0.801590 0.362376
Si Si4 0.384481 0.915971 0.299357
Si Si5 0.851705 0.851705 0.062357
Si Si6 0.944995 0.746573 0.762325
Si Si7 0.388559 0.924818 0.857400
O O1 0.544975 0.089950 0.835474
O O2 0.467768 0.121901 0.746597
O O3 0.459282 0.125974 0.895668
O O4 0.403815 0.001091 0.823682
O O5 0.870443 0.740885 0.929979
O O6 0.929539 0.665594 0.967683
O O7 0.975228 0.751036 0.847935
O O8 0.000069 0.807204 0.987789
O O9 0.772019 0.886010 0.364274
O O10 0.666688 0.755414 0.395709
O O11 0.751016 0.775798 0.276764
O O12 0.455040 0.910079 0.289282
O O13 0.345840 0.878110 0.378083
O O14 0.930129 0.860257 0.066809
O O15 0.807184 0.807115 0.136908
O O16 0.860264 0.930132 0.057924
O O17 0.885995 0.771990 0.760410
O O18 0.462888 0.925775 0.861385
#
# Coordination Sequence:
#
# PCOD8322865 Si02
#       7
#    18  18  18  18  18  18  18
#     4  11  21  34  55  83 113 147 185 231 288 344
#     4   9  20  35  53  79 108 142 183 227 274 333
#     4  10  19  35  57  79 107 148 192 232 280 338
#     4  11  21  34  55  83 113 147 185 231 288 344
#     4  10  21  38  58  80 111 148 188 234 290 348
#     4  10  19  35  57  79 107 148 192 232 280 338
#     4   9  20  35  53  79 108 142 183 227 274 333
#
# _framework density 18.132459000000001
#
# number of rings (size 3 to 8) (size 9 to 14) (size 15 to 20)
#    0.000    2.000    2.857    1.000    2.000    1.143 
#    0.000    0.000    0.000   11.143    0.000    0.000 
#    0.000    0.000    0.000    0.000    0.000    0.000 
#
# Total GULP energy -520797.382046 kJ/mol
# GULP energy per Si atom -12399.937668 kJ/mol
# Density = 1.809119 g / cm^3
# Si number density = 18.132459 Si / 1000 Ang^3
#
#
#
# Elastic Constant Matrix: (Units=GPa)
#
#
# Indices 1 2 3 4 5 6 
#
# 1 87.6678 43.6371 56.0303 -4.4153 0.0000 0.0000
# 2 43.6371 87.6678 56.0303 4.4153 0.0000 0.0000
# 3 56.0303 56.0303 167.7979 0.0000 0.0000 0.0000
# 4 -4.4153 4.4153 0.0000 32.4927 0.0000 0.0000
# 5 0.0000 0.0000 0.0000 0.0000 32.4927 -4.4153
# 6 0.0000 0.0000 0.0000 0.0000 -4.4153 22.0154
#
#
#
# Elastic Compliance Matrix: (Units=1/GPa)
#
#
# Indices 1 2 3 4 5 6 
#
# 1 0.016999 -0.006348 -0.003557 0.003173 0.000000 0.000000
# 2 -0.006348 0.016999 -0.003557 -0.003173 0.000000 0.000000
# 3 -0.003557 -0.003557 0.008335 0.000000 0.000000 0.000000
# 4 0.003173 -0.003173 0.000000 0.031638 0.000000 0.000000
# 5 0.000000 0.000000 0.000000 0.000000 0.031638 0.006345
# 6 0.000000 0.000000 0.000000 0.000000 0.006345 0.046695
#
#
# Mechanical properties :
#
#
# Convention : Reuss Voigt Hill
#
# Bulk Modulus (GPa) = 64.88973 72.72543 68.80758
# Shear Modulus (GPa) = 27.12004 29.89589 28.50797
#
# Velocity S-wave (km/s) = 3.87158 4.06488 3.96941
# Velocity P-wave (km/s) = 7.47326 7.88835 7.68361
#
# Compressibility (1/GPa) = 0.01541076
#
# Stress axis : x y z
#
# Youngs Moduli (GPa) = 58.82548 58.82548 119.97947
#
# Poissons Ratio (x) = 0.37344 0.42672
# Poissons Ratio (y) = 0.37344 0.42672
# Poissons Ratio (z) = 0.20922 0.20922
#
# Static dielectric constant tensor:
#      x y z
#    x 3.250160 0.000000 0.000000 
#    y 0.000000 3.250160 0.000000 
#    z 0.000000 0.000000 3.736130 
# 
# 
# High freq. dielectric constant tensor:
#      x y z
#    x 1.688500 0.000000 0.000000 
#    y 0.000000 1.688500 0.000000 
#    z 0.000000 0.000000 1.717440 
# 
# From -- ./inp_files/2905.got.cif
#   From: 2010.03.12/outbox.cif.g09.slc.cpg/sg160_2_cif.got.tgz:2905.got - 2010.04.02 06:26:15.
