data_PCOD8322950
_publ_section_title
;
Structure prediction by ZEFSAII (Michael W. Deem and Ramdas Pophale) SiO2 
 PCOD8322950
Probable space group: P -3 1 M 
;
_chemical_formula_sum "Si O2"
_cell_formula_units_Z 48
_cell_length_a 25.448182
_cell_length_b 25.448182
_cell_length_c 4.994493
_cell_angle_alpha 90.000000
_cell_angle_beta 90.000000
_cell_angle_gamma 120.000000
_cell_volume 2801.144834
_symmetry_space_group_name_H-M "P -3 1 M "
_symmetry_group_IT_number 162
_symmetry_cell_setting 'hexagonal'
loop_
_space_group_symop_operation_xyz
x,y,z
-y,x-y,z
-x+y,-x,z
-y,-x,-z
-x+y,y,-z
x,x-y,-z
-x,-y,-z
y,-x+y,-z
x-y,x,-z
y,x,z
x-y,-y,z
-x,-x+y,z
loop_
_atom_site_type_symbol
_atom_site_label
_atom_site_fract_x
_atom_site_fract_y
_atom_site_fract_z
Si Si1 0.415487 0.932392 0.865112
Si Si2 0.347345 0.931455 0.377053
Si Si3 0.791871 0.138519 0.756105
Si Si4 0.859278 0.070663 0.760981
O O1 0.375618 0.903626 0.593741
O O2 0.468595 0.000000 0.783848
O O3 0.448992 0.897984 0.000000
O O4 0.371399 0.934232 0.082490
O O5 0.276313 0.887809 0.343934
O O6 0.365637 0.000000 0.470695
O O7 0.830875 0.169125 0.500000
O O8 0.805667 0.085158 0.841033
O O9 0.812381 0.187620 0.000000
O O10 0.894327 0.105674 0.500000
O O11 0.830506 0.000000 0.711781
O O12 0.907845 0.092156 0.000000
#
# Coordination Sequence:
#
# PCOD8322950 Si02
#       4
#    12  12  12  12
#     4   9  17  28  43  65  91 120 153 185 216 253
#     4  10  18  29  46  65  90 124 157 188 224 269
#     4  10  20  32  46  67  93 122 156 193 233 277
#     4  10  20  34  52  70  90 116 150 194 242 296
#
# _framework density 17.135852
#
# number of rings (size 3 to 8) (size 9 to 14) (size 15 to 20)
#    0.000    2.250    0.000    3.750    0.000    3.000 
#    0.000    7.500    0.000    5.000    0.000    0.000 
#    0.000    0.000    0.000   63.000    0.000    0.000 
#
# Total GULP energy -594705.558034 kJ/mol
# GULP energy per Si atom -12389.699126 kJ/mol
# Density = 1.709685 g / cm^3
# Si number density = 17.135852 Si / 1000 Ang^3
#
#
#
# Elastic Constant Matrix: (Units=GPa)
#
#
# Indices 1 2 3 4 5 6 
#
# 1 75.7957 27.0449 15.7594 0.0000 0.4035 0.0000
# 2 27.0449 75.7957 15.7594 0.0000 -0.4035 0.0000
# 3 15.7594 15.7594 97.9239 0.0000 0.0000 0.0000
# 4 0.0000 0.0000 0.0000 27.9265 0.0000 -0.4035
# 5 0.4035 -0.4035 0.0000 0.0000 27.9265 0.0000
# 6 0.0000 0.0000 0.0000 -0.4035 0.0000 24.3754
#
#
#
# Elastic Compliance Matrix: (Units=1/GPa)
#
#
# Indices 1 2 3 4 5 6 
#
# 1 0.015373 -0.005145 -0.001646 0.000000 -0.000296 0.000000
# 2 -0.005145 0.015373 -0.001646 0.000000 0.000296 0.000000
# 3 -0.001646 -0.001646 0.010742 0.000000 0.000000 0.000000
# 4 0.000000 0.000000 0.000000 0.035817 0.000000 0.000593
# 5 -0.000296 0.000296 0.000000 0.000000 0.035817 0.000000
# 6 0.000000 0.000000 0.000000 0.000593 0.000000 0.041035
#
#
# Mechanical properties :
#
#
# Convention : Reuss Voigt Hill
#
# Bulk Modulus (GPa) = 40.62720 40.73806 40.68263
# Shear Modulus (GPa) = 27.89647 28.77579 28.33613
#
# Velocity S-wave (km/s) = 4.03918 4.10234 4.07088
# Velocity P-wave (km/s) = 6.74638 6.80177 6.77413
#
# Compressibility (1/GPa) = 0.02461405
#
# Stress axis : x y z
#
# Youngs Moduli (GPa) = 65.04976 65.04976 93.09395
#
# Poissons Ratio (x) = 0.33465 0.15324
# Poissons Ratio (y) = 0.33465 0.15324
# Poissons Ratio (z) = 0.10708 0.10708
#
# Static dielectric constant tensor:
#      x y z
#    x 2.998520 0.000000 0.000000 
#    y 0.000000 2.998520 0.000000 
#    z 0.000000 0.000000 3.429780 
# 
# 
# High freq. dielectric constant tensor:
#      x y z
#    x 1.629380 0.000000 0.000000 
#    y 0.000000 1.629380 0.000000 
#    z 0.000000 0.000000 1.690410 
# 
# From -- ./inp_files/467.got.cif
#   From: 2010.03.12/outbox.cif.g09.slc.cpg/sg162_1_cif.got.tgz:467.got - 2010.04.02 06:27:41.
