data_PCOD8322219
_publ_section_title
;
Structure prediction by ZEFSAII (Michael W. Deem and Ramdas Pophale) SiO2 
 PCOD8322219
Probable space group: P 31 2 1
;
_chemical_formula_sum "Si O2"
_cell_formula_units_Z 24
_cell_length_a 13.313994
_cell_length_b 13.313994
_cell_length_c 6.820452
_cell_angle_alpha 90.000000
_cell_angle_beta 90.000000
_cell_angle_gamma 120.000000
_cell_volume 1047.033319
_symmetry_space_group_name_H-M "P 31 2 1"
_symmetry_group_IT_number 152
_symmetry_cell_setting 'hexagonal'
loop_
_space_group_symop_operation_xyz
x,y,z
-y,x-y,1/3+z
-x+y,-x,2/3+z
x-y,-y,2/3-z
-x,-x+y,1/3-z
y,x,-z
loop_
_atom_site_type_symbol
_atom_site_label
_atom_site_fract_x
_atom_site_fract_y
_atom_site_fract_z
Si Si1 0.000000 0.587259 0.166667
Si Si2 0.424793 0.728165 0.415603
Si Si3 0.504650 0.598104 0.833243
Si Si4 0.825596 0.645760 0.377868
Si Si5 0.903307 0.903307 0.500000
O O1 0.922393 0.621054 0.295957
O O2 0.072834 0.550666 0.306590
O O3 0.397586 0.750521 0.641231
O O4 0.388328 0.791022 0.256272
O O5 0.562399 0.770570 0.427916
O O6 0.614044 0.722085 0.776683
O O7 0.539274 0.539274 0.000000
O O8 0.885218 0.780565 0.428543
O O9 0.000000 0.950935 0.666667
#
# Coordination Sequence:
#
# PCOD8322219 Si02
#       5
#     3   6   6   6   3
#     4  12  26  50  72 114 152 200 248 310 388 468
#     4  12  24  45  73 115 160 194 239 312 394 488
#     4  12  26  45  75 117 155 199 251 301 390 481
#     4  12  27  48  80 107 156 202 257 325 393 452
#     4  12  32  58  78 108 148 212 294 340 372 440
#
# _framework density 22.921907000000001
#
# number of rings (size 3 to 8) (size 9 to 14) (size 15 to 20)
#    0.000    0.000    5.000    4.500    7.000    3.000 
#    0.000    0.000    0.000    0.000    0.000    0.000 
#    0.000    0.000    0.000    0.000    0.000    0.000 
#
# Total GULP energy -297467.527007 kJ/mol
# GULP energy per Si atom -12394.480292 kJ/mol
# Density = 2.286974 g / cm^3
# Si number density = 22.921907 Si / 1000 Ang^3
#
#
#
# Elastic Constant Matrix: (Units=GPa)
#
#
# Indices 1 2 3 4 5 6 
#
# 1 334.2708 -198.6972 26.0610 245.0390 0.0049 0.0000
# 2 -198.6972 334.2708 26.0610 -245.0390 -0.0049 0.0000
# 3 26.0610 26.0610 105.8288 0.0000 0.0000 0.0000
# 4 245.0390 -245.0390 0.0000 325.1928 0.0000 -0.0049
# 5 0.0049 -0.0049 0.0000 0.0000 325.1928 245.0389
# 6 0.0000 0.0000 0.0000 -0.0049 245.0389 266.4840
#
#
#
# Elastic Compliance Matrix: (Units=1/GPa)
#
#
# Indices 1 2 3 4 5 6 
#
# 1 0.007128 0.001019 -0.002006 -0.004603 0.000000 0.000000
# 2 0.001019 0.007128 -0.002006 0.004603 0.000000 0.000000
# 3 -0.002006 -0.002006 0.010437 0.000000 0.000000 0.000000
# 4 -0.004603 0.004603 0.000000 0.010013 0.000000 0.000000
# 5 0.000000 0.000000 0.000000 0.000000 0.010013 -0.009207
# 6 0.000000 0.000000 0.000000 0.000000 -0.009207 0.012219
#
#
# Mechanical properties :
#
#
# Convention : Reuss Voigt Hill
#
# Bulk Modulus (GPa) = 53.45650 53.46891 53.46270
# Shear Modulus (GPa) = 72.29509 244.77028 158.53268
#
# Velocity S-wave (km/s) = 5.62212 10.34487 8.32540
# Velocity P-wave (km/s) = 8.09420 12.88664 10.76061
#
# Compressibility (1/GPa) = 0.01870680
#
# Stress axis : x y z
#
# Youngs Moduli (GPa) = 140.28477 140.28477 95.80947
#
# Poissons Ratio (x) = -0.14296 0.19223
# Poissons Ratio (y) = -0.14296 0.19223
# Poissons Ratio (z) = 0.28146 0.28146
#
# Static dielectric constant tensor:
#      x y z
#    x -10.683960 0.000000 0.000000 
#    y 0.000000 -10.683960 0.000000 
#    z 0.000000 0.000000 4.098540 
# 
# 
# High freq. dielectric constant tensor:
#      x y z
#    x 1.919950 0.000000 0.000000 
#    y 0.000000 1.919950 0.000000 
#    z 0.000000 0.000000 1.912570 
# 
# From -- ./inp_files/240.got.cif
#   From: 2010.03.12/outbox.cif.g09.slc.cpg/sg152_1_cif.got.tgz:240.got - 2010.04.03 13:45:27.
