data_PCOD8322833
_publ_section_title
;
Structure prediction by ZEFSAII (Michael W. Deem and Ramdas Pophale) SiO2 
 PCOD8322833
Probable space group: P 3 1 C
;
_chemical_formula_sum "Si O2"
_cell_formula_units_Z 48
_cell_length_a 16.404748
_cell_length_b 16.404748
_cell_length_c 9.359462
_cell_angle_alpha 90.000000
_cell_angle_beta 90.000000
_cell_angle_gamma 120.000000
_cell_volume 2181.326341
_symmetry_space_group_name_H-M "P 3 1 C"
_symmetry_group_IT_number 159
_symmetry_cell_setting 'hexagonal'
loop_
_space_group_symop_operation_xyz
x,y,z
-y,x-y,z
-x+y,-x,z
y,x,1/2+z
x-y,-y,1/2+z
-x,-x+y,1/2+z
loop_
_atom_site_type_symbol
_atom_site_label
_atom_site_fract_x
_atom_site_fract_y
_atom_site_fract_z
Si Si1 0.392965 0.219244 0.700940
Si Si2 0.695240 0.507620 0.263893
Si Si3 0.919927 0.818623 0.715696
Si Si4 0.875072 0.506417 0.295551
Si Si5 0.184257 0.076518 0.044843
Si Si6 0.407017 0.069330 0.517093
Si Si7 0.382451 0.137227 0.996336
Si Si8 0.954632 0.529904 0.596320
O O1 0.284684 0.193403 0.712609
O O2 0.402960 0.158671 0.576049
O O3 0.422319 0.187534 0.845885
O O4 0.458495 0.331530 0.675879
O O5 0.800044 0.540112 0.319453
O O6 0.605887 0.403695 0.284481
O O7 0.657741 0.567201 0.350092
O O8 0.706598 0.527393 0.096069
O O9 0.914005 0.848736 0.878975
O O10 0.838520 0.816011 0.615454
O O11 0.018489 0.890680 0.645968
O O12 0.948264 0.544817 0.427188
O O13 0.941003 0.545839 0.154387
O O14 0.296432 0.151123 0.051779
O O15 0.485331 0.060268 0.612086
O O16 0.308925 0.975169 0.500531
#
# Coordination Sequence:
#
# PCOD8322833 Si02
#       8
#     6   6   6   6   6   6   6   6
#     4  11  25  44  66 104 139 178 234 286 347 419
#     4  11  24  43  71  99 136 178 229 281 349 422
#     4  11  24  41  64  92 136 175 227 275 333 396
#     4  11  25  45  71 101 142 185 231 293 357 431
#     4  11  24  40  63  94 130 179 223 277 329 399
#     4  11  22  47  73  97 135 187 232 285 350 425
#     4  11  24  42  70 101 132 179 235 280 339 414
#     4  11  26  44  70 104 142 185 231 293 360 418
#
# _framework density 22.004961999999999
#
# number of rings (size 3 to 8) (size 9 to 14) (size 15 to 20)
#    0.000    1.000    3.750    2.000    7.000    2.000 
#    0.750    0.000    0.000    0.000    0.000    0.000 
#    0.000    0.000    0.000    0.000    0.000    0.000 
#
# Total GULP energy -594696.302094 kJ/mol
# GULP energy per Si atom -12389.506294 kJ/mol
# Density = 2.195488 g / cm^3
# Si number density = 22.004962 Si / 1000 Ang^3
#
#
#
# Elastic Constant Matrix: (Units=GPa)
#
#
# Indices 1 2 3 4 5 6 
#
# 1 79.2308 18.8623 37.0339 0.0000 1.0911 0.0000
# 2 18.8623 79.2308 37.0339 0.0000 -1.0911 0.0000
# 3 37.0339 37.0339 134.2720 0.0000 0.0000 0.0000
# 4 0.0000 0.0000 0.0000 29.8699 0.0000 -1.0911
# 5 1.0911 -1.0911 0.0000 0.0000 29.8699 0.0000
# 6 0.0000 0.0000 0.0000 -1.0911 0.0000 30.1842
#
#
#
# Elastic Compliance Matrix: (Units=1/GPa)
#
#
# Indices 1 2 3 4 5 6 
#
# 1 0.014731 -0.001855 -0.003551 0.000000 -0.000606 0.000000
# 2 -0.001855 0.014731 -0.003551 0.000000 0.000606 0.000000
# 3 -0.003551 -0.003551 0.009407 0.000000 0.000000 0.000000
# 4 0.000000 0.000000 0.000000 0.033523 0.000000 0.001212
# 5 -0.000606 0.000606 0.000000 0.000000 0.033523 0.000000
# 6 0.000000 0.000000 0.000000 0.001212 0.000000 0.033174
#
#
# Mechanical properties :
#
#
# Convention : Reuss Voigt Hill
#
# Bulk Modulus (GPa) = 47.72570 53.17708 50.45139
# Shear Modulus (GPa) = 30.48982 31.30505 30.89744
#
# Velocity S-wave (km/s) = 3.72639 3.77588 3.75121
# Velocity P-wave (km/s) = 6.34431 6.57481 6.46059
#
# Compressibility (1/GPa) = 0.02095307
#
# Stress axis : x y z
#
# Youngs Moduli (GPa) = 67.88227 67.88227 106.30867
#
# Poissons Ratio (x) = 0.12595 0.37754
# Poissons Ratio (y) = 0.12595 0.37754
# Poissons Ratio (z) = 0.24107 0.24107
#
# Static dielectric constant tensor:
#      x y z
#    x 3.882050 0.000000 0.000000 
#    y 0.000000 3.882050 0.000000 
#    z 0.000000 0.000000 3.995910 
# 
# 
# High freq. dielectric constant tensor:
#      x y z
#    x 1.861230 0.000000 0.000000 
#    y 0.000000 1.861230 0.000000 
#    z 0.000000 0.000000 1.873180 
# 
# From -- ./inp_files/495.got.cif
#   From: 2010.03.12/outbox.cif.g09.slc.cpg/sg159_cif.got.tgz:495.got - 2010.04.03 14:00:19.
