data_PCOD8322795
_publ_section_title
;
Structure prediction by ZEFSAII (Michael W. Deem and Ramdas Pophale) SiO2 
 PCOD8322795
Probable space group: P 3 1 C
;
_chemical_formula_sum "Si O2"
_cell_formula_units_Z 30
_cell_length_a 15.820614
_cell_length_b 15.820614
_cell_length_c 7.609380
_cell_angle_alpha 90.000000
_cell_angle_beta 90.000000
_cell_angle_gamma 120.000000
_cell_volume 1649.402215
_symmetry_space_group_name_H-M "P 3 1 C"
_symmetry_group_IT_number 159
_symmetry_cell_setting 'hexagonal'
loop_
_space_group_symop_operation_xyz
x,y,z
-y,x-y,z
-x+y,-x,z
y,x,1/2+z
x-y,-y,1/2+z
-x,-x+y,1/2+z
loop_
_atom_site_type_symbol
_atom_site_label
_atom_site_fract_x
_atom_site_fract_y
_atom_site_fract_z
Si Si1 0.109673 0.404117 0.593690
Si Si2 0.109673 0.404117 0.177644
Si Si3 0.768004 0.321132 0.385667
Si Si4 0.108174 0.894065 0.587217
Si Si5 0.891826 0.785891 0.684117
O O1 0.132728 0.425128 0.385667
O O2 0.181393 0.498107 0.705889
O O3 0.123485 0.315237 0.670981
O O4 0.000000 0.378802 0.635667
O O5 0.123485 0.315237 0.100353
O O6 0.181393 0.498106 0.065445
O O7 0.768152 0.423930 0.385667
O O8 0.125088 0.891197 0.385667
O O9 1.000000 0.809745 0.635667
O O10 0.123291 1.000000 0.635667
#
# Coordination Sequence:
#
# PCOD8322795 Si02
#       5
#     6   6   6   6   6
#     4  10  20  38  66  89 117 161 202 242 299 362
#     4  10  20  38  66  89 117 161 202 242 299 362
#     4  10  24  42  64  90 120 156 190 256 300 350
#     4  10  20  31  51  82 118 161 196 242 290 352
#     4  10  20  31  51  82 118 161 196 242 290 352
#
# _framework density 18.188409
#
# number of rings (size 3 to 8) (size 9 to 14) (size 15 to 20)
#    0.400    1.600    2.000    1.600    5.600    1.600 
#    0.000    2.000    0.000    0.000    0.000    0.000 
#    0.000    0.000    0.000    0.000    0.000    0.000 
#
# Total GULP energy -371795.881376 kJ/mol
# GULP energy per Si atom -12393.196046 kJ/mol
# Density = 1.814701 g / cm^3
# Si number density = 18.188409 Si / 1000 Ang^3
#
#
#
# Elastic Constant Matrix: (Units=GPa)
#
#
# Indices 1 2 3 4 5 6 
#
# 1 118.0202 56.9170 48.0298 0.0000 0.0000 0.0000
# 2 56.9170 118.0202 48.0298 0.0000 0.0000 0.0000
# 3 48.0298 48.0298 108.9672 0.0000 0.0000 0.0000
# 4 0.0000 0.0000 0.0000 32.8270 0.0000 0.0000
# 5 0.0000 0.0000 0.0000 0.0000 32.8270 0.0000
# 6 0.0000 0.0000 0.0000 0.0000 0.0000 30.5516
#
#
#
# Elastic Compliance Matrix: (Units=1/GPa)
#
#
# Indices 1 2 3 4 5 6 
#
# 1 0.011954 -0.004412 -0.003324 0.000000 0.000000 0.000000
# 2 -0.004412 0.011954 -0.003324 0.000000 0.000000 0.000000
# 3 -0.003324 -0.003324 0.012107 0.000000 0.000000 0.000000
# 4 0.000000 0.000000 0.000000 0.030463 0.000000 0.000000
# 5 0.000000 0.000000 0.000000 0.000000 0.030463 0.000000
# 6 0.000000 0.000000 0.000000 0.000000 0.000000 0.032731
#
#
# Mechanical properties :
#
#
# Convention : Reuss Voigt Hill
#
# Bulk Modulus (GPa) = 71.97272 72.32899 72.15086
# Shear Modulus (GPa) = 31.96442 32.04319 32.00380
#
# Velocity S-wave (km/s) = 4.19669 4.20186 4.19928
# Velocity P-wave (km/s) = 7.94604 7.96202 7.95403
#
# Compressibility (1/GPa) = 0.01389415
#
# Stress axis : x y z
#
# Youngs Moduli (GPa) = 83.65610 83.65610 82.59365
#
# Poissons Ratio (x) = 0.36909 0.27455
# Poissons Ratio (y) = 0.36909 0.27455
# Poissons Ratio (z) = 0.27809 0.27809
#
# Static dielectric constant tensor:
#      x y z
#    x 3.520310 0.000000 0.000000 
#    y 0.000000 3.520310 0.000000 
#    z 0.000000 0.000000 3.377000 
# 
# 
# High freq. dielectric constant tensor:
#      x y z
#    x 1.689250 0.000000 0.000000 
#    y 0.000000 1.689250 0.000000 
#    z 0.000000 0.000000 1.720330 
# 
# From -- ./inp_files/349.got.cif
#   From: 2010.03.12/outbox.cif.g09.slc.cpg/sg159_cif.got.tgz:349.got - 2010.04.03 14:00:19.
