data_PCOD8322510
_publ_section_title
;
Structure prediction by ZEFSAII (Michael W. Deem and Ramdas Pophale) SiO2 
 PCOD8322510
Probable space group: R 3 2
;
_chemical_formula_sum "Si O2"
_cell_formula_units_Z 126
_cell_length_a 17.626018
_cell_length_b 17.626018
_cell_length_c 24.880526
_cell_angle_alpha 90.000000
_cell_angle_beta 90.000000
_cell_angle_gamma 120.000000
_cell_volume 6694.198834
_symmetry_space_group_name_H-M "R 3 2"
_symmetry_group_IT_number 155
_symmetry_cell_setting 'hexagonal'
loop_
_space_group_symop_operation_xyz
x,y,z
-y,x-y,z
-x+y,-x,z
x-y,-y,-z
-x,-x+y,-z
y,x,-z
2/3+x,1/3+y,1/3+z
2/3-y,1/3+x-y,1/3+z
2/3-x+y,1/3-x,1/3+z
2/3+x-y,1/3-y,1/3-z
2/3-x,1/3-x+y,1/3-z
2/3+y,1/3+x,1/3-z
1/3+x,2/3+y,2/3+z
1/3-y,2/3+x-y,2/3+z
1/3-x+y,2/3-x,2/3+z
1/3+x-y,2/3-y,2/3-z
1/3-x,2/3-x+y,2/3-z
1/3+y,2/3+x,2/3-z
loop_
_atom_site_type_symbol
_atom_site_label
_atom_site_fract_x
_atom_site_fract_y
_atom_site_fract_z
Si Si1 0.585622 0.656372 0.866801
Si Si2 0.422621 0.321905 0.396613
Si Si3 0.085983 0.260129 0.618117
Si Si4 0.057411 0.228322 0.094669
Si Si5 0.621273 0.780607 0.280013
Si Si6 0.974104 0.458737 0.395342
Si Si7 0.654969 0.106338 0.770369
O O1 0.666667 0.662706 0.833334
O O2 0.508271 0.638653 0.823969
O O3 0.548740 0.577193 0.908007
O O4 0.619074 0.747967 0.898003
O O5 0.418516 0.333334 0.333334
O O6 0.467088 0.261592 0.409590
O O7 0.480260 0.419208 0.420389
O O8 0.328350 0.282647 0.424334
O O9 0.102136 0.332882 0.573896
O O10 0.140595 0.314276 0.670654
O O11 0.123277 0.201327 0.592112
O O12 0.984199 0.200053 0.630499
O O13 0.971342 0.191991 0.056729
O O14 0.666667 0.833674 0.333334
O O15 0.575858 0.828029 0.253346
O O16 0.666667 0.125611 0.833334
#
# Coordination Sequence:
#
# PCOD8322510 Si02
#       7
#    18  18  18  18  18  18  18
#     4  10  20  34  61  92 119 151 211 265 302 361
#     4  11  22  38  62  87 132 165 203 266 318 384
#     4  11  20  39  62  87 124 159 208 273 298 381
#     4  10  20  36  60  91 122 157 208 264 313 358
#     4  12  21  37  66  92 112 163 216 256 311 380
#     4  11  20  37  64  93 118 170 211 256 323 373
#     4  11  26  39  59  90 130 164 203 265 329 373
#
# _framework density 18.822268000000001
#
# number of rings (size 3 to 8) (size 9 to 14) (size 15 to 20)
#    0.000    1.143    7.143    2.571    0.000    1.714 
#    1.714    0.000    0.000    0.000    0.000    0.000 
#    0.000    0.000    0.000    0.000    0.000    0.000 
#
# Total GULP energy -520492.369012 kJ/mol
# GULP energy per Si atom -12392.675453 kJ/mol
# Density = 1.877943 g / cm^3
# Si number density = 18.822268 Si / 1000 Ang^3
#
#
#
# Elastic Constant Matrix: (Units=GPa)
#
#
# Indices 1 2 3 4 5 6 
#
# 1 94.3410 30.0069 29.0953 -4.3964 -0.0006 0.0000
# 2 30.0069 94.3410 29.0953 4.3964 0.0006 0.0000
# 3 29.0953 29.0953 116.9337 0.0000 0.0000 0.0000
# 4 -4.3964 4.3964 0.0000 20.1055 0.0000 0.0006
# 5 -0.0006 0.0006 0.0000 0.0000 20.1055 -4.3964
# 6 0.0000 0.0000 0.0000 0.0006 -4.3964 32.1670
#
#
#
# Elastic Compliance Matrix: (Units=1/GPa)
#
#
# Indices 1 2 3 4 5 6 
#
# 1 0.012562 -0.003460 -0.002265 0.003504 0.000001 0.000000
# 2 -0.003460 0.012562 -0.002265 -0.003504 -0.000001 0.000000
# 3 -0.002265 -0.002265 0.009679 0.000000 0.000000 0.000000
# 4 0.003504 -0.003504 0.000000 0.051270 0.000000 -0.000001
# 5 0.000001 -0.000001 0.000000 0.000000 0.051270 0.007007
# 6 0.000000 0.000000 0.000000 -0.000001 0.007007 0.032045
#
#
# Mechanical properties :
#
#
# Convention : Reuss Voigt Hill
#
# Bulk Modulus (GPa) = 53.12481 53.55676 53.34078
# Shear Modulus (GPa) = 26.09020 28.97015 27.53018
#
# Velocity S-wave (km/s) = 3.72712 3.92745 3.82860
# Velocity P-wave (km/s) = 6.84161 7.00587 6.92423
#
# Compressibility (1/GPa) = 0.01882360
#
# Stress axis : x y z
#
# Youngs Moduli (GPa) = 79.60365 79.60365 103.31803
#
# Poissons Ratio (x) = 0.27547 0.23398
# Poissons Ratio (y) = 0.27547 0.23398
# Poissons Ratio (z) = 0.18028 0.18028
#
# Static dielectric constant tensor:
#      x y z
#    x 3.554900 0.000000 0.000000 
#    y 0.000000 3.554900 0.000000 
#    z 0.000000 0.000000 3.704460 
# 
# 
# High freq. dielectric constant tensor:
#      x y z
#    x 1.715980 0.000000 0.000000 
#    y 0.000000 1.715980 0.000000 
#    z 0.000000 0.000000 1.746810 
# 
# From -- ./inp_files/7526.got.cif
#   From: 2010.03.12/outbox.cif.g09.slc.cpg/sg155_4_cif.got.tgz:7526.got - 2010.04.03 13:54:13.
