data_PCOD8322935
_publ_section_title
;
Structure prediction by ZEFSAII (Michael W. Deem and Ramdas Pophale) SiO2 
 PCOD8322935
Probable space group: P -3 1 M 
;
_chemical_formula_sum "Si O2"
_cell_formula_units_Z 96
_cell_length_a 18.836389
_cell_length_b 18.836389
_cell_length_c 20.922405
_cell_angle_alpha 90.000000
_cell_angle_beta 90.000000
_cell_angle_gamma 120.000000
_cell_volume 6428.912838
_symmetry_space_group_name_H-M "P -3 1 M "
_symmetry_group_IT_number 162
_symmetry_cell_setting 'hexagonal'
loop_
_space_group_symop_operation_xyz
x,y,z
-y,x-y,z
-x+y,-x,z
-y,-x,-z
-x+y,y,-z
x,x-y,-z
-x,-y,-z
y,-x+y,-z
x-y,x,-z
y,x,z
x-y,-y,z
-x,-x+y,z
loop_
_atom_site_type_symbol
_atom_site_label
_atom_site_fract_x
_atom_site_fract_y
_atom_site_fract_z
Si Si1 0.092856 0.461854 0.872288
Si Si2 0.532561 0.628362 0.385241
Si Si3 0.371638 0.904200 0.614759
Si Si4 0.668960 0.173084 0.000000
Si Si5 0.461854 0.092856 0.127712
Si Si6 0.901979 0.264504 0.500000
Si Si7 0.668660 0.172589 0.255312
Si Si8 0.331340 0.503929 0.744688
O O1 0.102176 0.551088 0.872074
O O2 0.133313 0.449389 0.808227
O O3 0.000000 0.390364 0.873275
O O4 0.134804 0.450691 0.935926
O O5 0.575319 0.575319 0.375254
O O6 0.435512 0.564488 0.400842
O O7 0.577437 0.695294 0.440021
O O8 0.546097 0.679670 0.320239
O O9 0.304706 0.882143 0.559979
O O10 0.320330 0.866427 0.679761
O O11 0.424681 0.000000 0.624747
O O12 0.684114 0.134804 0.935926
O O13 0.729938 0.270063 0.000000
O O14 0.576740 0.153481 0.000000
O O15 0.449389 0.133313 0.191773
O O16 0.390364 0.000000 0.126725
O O17 0.835210 0.164790 0.500000
O O18 0.000000 0.288918 0.500000
O O19 0.576967 0.153934 0.253970
O O20 0.730830 0.269170 0.255056
#
# Coordination Sequence:
#
# PCOD8322935 Si02
#       8
#    12  12  12  12  12  12  12  12
#     4   9  17  28  40  52  68  94 127 159 189 225
#     4   9  17  29  45  63  83 109 139 169 202 244
#     4   9  17  29  45  63  83 109 139 169 202 244
#     4  10  18  27  39  55  74  93 116 150 195 240
#     4   9  17  28  40  52  68  94 127 159 189 225
#     4  10  19  31  47  66  87 111 142 178 215 255
#     4  10  18  27  39  56  79 104 131 163 200 237
#     4  10  18  27  39  56  79 104 131 163 200 237
#
# _framework density 14.932541000000001
#
# number of rings (size 3 to 8) (size 9 to 14) (size 15 to 20)
#    0.000    2.500    0.000    3.375    0.000    6.000 
#    0.000    2.500    0.000    3.625    0.000    0.000 
#    0.000    0.000    0.000    0.000    0.000    0.000 
#
# Total GULP energy -1189527.279087 kJ/mol
# GULP energy per Si atom -12390.909157 kJ/mol
# Density = 1.489855 g / cm^3
# Si number density = 14.932541 Si / 1000 Ang^3
#
#
#
# Elastic Constant Matrix: (Units=GPa)
#
#
# Indices 1 2 3 4 5 6 
#
# 1 46.9678 17.8356 34.8068 0.0000 0.0001 0.0000
# 2 17.8356 46.9678 34.8068 0.0000 -0.0001 0.0000
# 3 34.8068 34.8068 147.6728 0.0000 0.0000 0.0000
# 4 0.0000 0.0000 0.0000 12.8063 0.0000 -0.0001
# 5 0.0001 -0.0001 0.0000 0.0000 12.8063 0.0000
# 6 0.0000 0.0000 0.0000 -0.0001 0.0000 14.5661
#
#
#
# Elastic Compliance Matrix: (Units=1/GPa)
#
#
# Indices 1 2 3 4 5 6 
#
# 1 0.027495 -0.006832 -0.004870 0.000000 0.000000 0.000000
# 2 -0.006832 0.027495 -0.004870 0.000000 0.000000 0.000000
# 3 -0.004870 -0.004870 0.009068 0.000000 0.000000 0.000000
# 4 0.000000 0.000000 0.000000 0.078086 0.000000 0.000001
# 5 0.000000 0.000000 0.000000 0.000000 0.078086 0.000000
# 6 0.000000 0.000000 0.000000 0.000001 0.000000 0.068652
#
#
# Mechanical properties :
#
#
# Convention : Reuss Voigt Hill
#
# Bulk Modulus (GPa) = 32.34933 46.27854 39.31394
# Shear Modulus (GPa) = 15.04524 18.31304 16.67914
#
# Velocity S-wave (km/s) = 3.17763 3.50578 3.34573
# Velocity P-wave (km/s) = 5.93075 6.88813 6.42729
#
# Compressibility (1/GPa) = 0.03091254
#
# Stress axis : x y z
#
# Youngs Moduli (GPa) = 36.37068 36.37068 110.28243
#
# Poissons Ratio (x) = 0.24847 0.53711
# Poissons Ratio (y) = 0.24847 0.53711
# Poissons Ratio (z) = 0.17714 0.17714
#
# Static dielectric constant tensor:
#      x y z
#    x 2.648690 0.000000 0.000000 
#    y 0.000000 2.648690 0.000000 
#    z 0.000000 0.000000 3.375570 
# 
# 
# High freq. dielectric constant tensor:
#      x y z
#    x 1.534160 0.000000 0.000000 
#    y 0.000000 1.534160 0.000000 
#    z 0.000000 0.000000 1.601860 
# 
# From -- ./inp_files/3894.got.cif
#   From: 2010.03.12/outbox.cif.g09.slc.cpg/sg162_2_cif.got.tgz:3894.got - 2010.04.02 06:27:41.
