data_PCOD8322806
_publ_section_title
;
Structure prediction by ZEFSAII (Michael W. Deem and Ramdas Pophale) SiO2 
 PCOD8322806
Probable space group: P 3 1 C
;
_chemical_formula_sum "Si O2"
_cell_formula_units_Z 42
_cell_length_a 17.518325
_cell_length_b 17.518325
_cell_length_c 8.072807
_cell_angle_alpha 90.000000
_cell_angle_beta 90.000000
_cell_angle_gamma 120.000000
_cell_volume 2145.558497
_symmetry_space_group_name_H-M "P 3 1 C"
_symmetry_group_IT_number 159
_symmetry_cell_setting 'hexagonal'
loop_
_space_group_symop_operation_xyz
x,y,z
-y,x-y,z
-x+y,-x,z
y,x,1/2+z
x-y,-y,1/2+z
-x,-x+y,1/2+z
loop_
_atom_site_type_symbol
_atom_site_label
_atom_site_fract_x
_atom_site_fract_y
_atom_site_fract_z
Si Si1 0.101163 0.186111 0.084180
Si Si2 0.994001 0.413003 0.491495
Si Si3 0.624989 0.763278 0.584596
Si Si4 0.220748 0.853288 0.941834
Si Si5 0.084247 0.188803 0.471835
Si Si6 0.227822 0.756538 0.266627
Si Si7 0.551028 0.125982 0.745976
O O1 0.098065 0.206018 0.276555
O O2 0.123749 0.269047 0.971011
O O3 0.176222 0.161254 0.050806
O O4 0.007503 0.108890 0.016666
O O5 0.943480 0.313866 0.421716
O O6 0.918681 0.429412 0.569985
O O7 0.072780 0.415303 0.600550
O O8 0.043027 0.491235 0.361902
O O9 0.601716 0.793986 0.759215
O O10 0.730077 0.812724 0.561716
O O11 0.589584 0.793890 0.428093
O O12 0.216002 0.791673 0.091318
O O13 0.159040 0.653178 0.266130
O O14 0.330870 0.786622 0.279408
#
# Coordination Sequence:
#
# PCOD8322806 Si02
#       7
#     6   6   6   6   6   6   6
#     4  12  24  39  58  88 127 174 222 270 317 373
#     4  10  20  38  70  96 122 168 230 272 320 394
#     4  11  21  40  65  94 127 170 220 271 321 392
#     4  11  21  40  65  94 127 170 220 271 321 392
#     4  12  24  39  58  88 127 174 222 270 317 373
#     4  10  23  42  64  93 129 165 211 269 350 393
#     4  10  21  42  66  95 129 167 217 277 338 401
#
# _framework density 19.575323999999998
#
# number of rings (size 3 to 8) (size 9 to 14) (size 15 to 20)
#    0.000    1.143    4.286    3.143    0.000    0.000 
#    5.143    0.000    0.000    0.000    0.000    0.000 
#    0.000    0.000    0.000    0.000    0.000    0.000 
#
# Total GULP energy -520424.847290 kJ/mol
# GULP energy per Si atom -12391.067793 kJ/mol
# Density = 1.953077 g / cm^3
# Si number density = 19.575324 Si / 1000 Ang^3
#
#
#
# Elastic Constant Matrix: (Units=GPa)
#
#
# Indices 1 2 3 4 5 6 
#
# 1 94.5903 31.9604 18.2249 0.0000 2.5011 0.0000
# 2 31.9604 94.5903 18.2249 0.0000 -2.5011 0.0000
# 3 18.2249 18.2249 120.0351 0.0000 0.0000 0.0000
# 4 0.0000 0.0000 0.0000 20.2222 0.0000 -2.5011
# 5 2.5011 -2.5011 0.0000 0.0000 20.2222 0.0000
# 6 0.0000 0.0000 0.0000 -2.5011 0.0000 31.3149
#
#
#
# Elastic Compliance Matrix: (Units=1/GPa)
#
#
# Indices 1 2 3 4 5 6 
#
# 1 0.012195 -0.003931 -0.001255 0.000000 -0.001995 0.000000
# 2 -0.003931 0.012195 -0.001255 0.000000 0.001995 0.000000
# 3 -0.001255 -0.001255 0.008712 0.000000 0.000000 0.000000
# 4 0.000000 0.000000 0.000000 0.049944 0.000000 0.003989
# 5 -0.001995 0.001995 0.000000 0.000000 0.049944 0.000000
# 6 0.000000 0.000000 0.000000 0.003989 0.000000 0.032252
#
#
# Mechanical properties :
#
#
# Convention : Reuss Voigt Hill
#
# Bulk Modulus (GPa) = 49.45582 49.55955 49.50768
# Shear Modulus (GPa) = 27.04708 30.40557 28.72633
#
# Velocity S-wave (km/s) = 3.72115 3.94542 3.83492
# Velocity P-wave (km/s) = 6.61678 6.79172 6.70482
#
# Compressibility (1/GPa) = 0.02022007
#
# Stress axis : x y z
#
# Youngs Moduli (GPa) = 82.00265 82.00265 114.78589
#
# Poissons Ratio (x) = 0.32239 0.14401
# Poissons Ratio (y) = 0.32239 0.14401
# Poissons Ratio (z) = 0.10288 0.10288
#
# Static dielectric constant tensor:
#      x y z
#    x 3.418650 0.000000 0.000000 
#    y 0.000000 3.418650 0.000000 
#    z 0.000000 0.000000 3.690680 
# 
# 
# High freq. dielectric constant tensor:
#      x y z
#    x 1.748220 0.000000 0.000000 
#    y 0.000000 1.748220 0.000000 
#    z 0.000000 0.000000 1.778260 
# 
# From -- ./inp_files/460.got.cif
#   From: 2010.03.12/outbox.cif.g09.slc.cpg/sg159_cif.got.tgz:460.got - 2010.04.03 14:00:19.
