data_PCOD8322340
_publ_section_title
;
Structure prediction by ZEFSAII (Michael W. Deem and Ramdas Pophale) SiO2 
 PCOD8322340
Probable space group: P 32 2 1
;
_chemical_formula_sum "Si O2"
_cell_formula_units_Z 36
_cell_length_a 8.413374
_cell_length_b 8.413374
_cell_length_c 28.015476
_cell_angle_alpha 90.000000
_cell_angle_beta 90.000000
_cell_angle_gamma 120.000000
_cell_volume 1717.390387
_symmetry_space_group_name_H-M "P 32 2 1"
_symmetry_group_IT_number 154
_symmetry_cell_setting 'hexagonal'
loop_
_space_group_symop_operation_xyz
x,y,z
-y,x-y,2/3+z
-x+y,-x,1/3+z
x-y,-y,1/3-z
-x,-x+y,2/3-z
y,x,-z
loop_
_atom_site_type_symbol
_atom_site_label
_atom_site_fract_x
_atom_site_fract_y
_atom_site_fract_z
Si Si1 0.321840 0.316057 0.447179
Si Si2 0.314005 0.997650 0.723646
Si Si3 0.795953 0.279123 0.037054
Si Si4 0.697669 0.679501 0.552068
Si Si5 0.703229 0.134710 0.710621
Si Si6 0.046324 0.696464 0.050802
O O1 0.238333 0.238333 0.500000
O O2 0.373208 0.180478 0.419511
O O3 0.516212 0.494157 0.453345
O O4 0.191319 0.357800 0.414136
O O5 0.514484 0.040923 0.741929
O O6 0.263357 0.152185 0.735711
O O7 0.329188 0.000000 0.666667
O O8 0.602751 0.271753 0.027128
O O9 0.966410 0.484525 0.037573
O O10 0.818736 0.162344 0.994554
O O11 0.770480 0.770480 0.500000
O O12 0.705168 0.833529 0.588630
O O13 0.816185 0.588808 0.571035
O O14 0.685538 0.000000 0.666667
#
# Coordination Sequence:
#
# PCOD8322340 Si02
#       6
#     6   6   6   6   6   6
#     4  10  21  40  63  89 127 167 204 253 321 384
#     4  10  20  37  60  91 123 159 205 261 303 363
#     4  10  20  38  60  93 120 166 208 253 321 360
#     4  10  23  41  60  89 128 166 206 256 318 382
#     4   9  20  36  63  89 121 161 211 255 305 381
#     4  11  22  37  63  84 129 160 211 262 300 377
#
# _framework density 20.962036999999999
#
# number of rings (size 3 to 8) (size 9 to 14) (size 15 to 20)
#    0.000    2.000    1.667    2.000    4.667    2.667 
#    3.000    0.000    0.000    0.000    0.000    0.000 
#    0.000    0.000    0.000    0.000    0.000    0.000 
#
# Total GULP energy -446029.522301 kJ/mol
# GULP energy per Si atom -12389.708953 kJ/mol
# Density = 2.091433 g / cm^3
# Si number density = 20.962037 Si / 1000 Ang^3
#
#
#
# Elastic Constant Matrix: (Units=GPa)
#
#
# Indices 1 2 3 4 5 6 
#
# 1 65.0423 29.2729 50.2455 -2.5069 0.0000 0.0000
# 2 29.2729 65.0423 50.2455 2.5069 0.0000 0.0000
# 3 50.2455 50.2455 153.4645 0.0000 0.0000 0.0000
# 4 -2.5069 2.5069 0.0000 27.5301 0.0000 0.0000
# 5 0.0000 0.0000 0.0000 0.0000 27.5301 -2.5069
# 6 0.0000 0.0000 0.0000 0.0000 -2.5069 17.8847
#
#
#
# Elastic Compliance Matrix: (Units=1/GPa)
#
#
# Indices 1 2 3 4 5 6 
#
# 1 0.022301 -0.006018 -0.005331 0.002579 0.000000 0.000000
# 2 -0.006018 0.022301 -0.005331 -0.002579 0.000000 0.000000
# 3 -0.005331 -0.005331 0.010007 0.000000 0.000000 0.000000
# 4 0.002579 -0.002579 0.000000 0.036794 0.000000 0.000000
# 5 0.000000 0.000000 0.000000 0.000000 0.036794 0.005157
# 6 0.000000 0.000000 0.000000 0.000000 0.005157 0.056637
#
#
# Mechanical properties :
#
#
# Convention : Reuss Voigt Hill
#
# Bulk Modulus (GPa) = 47.06235 60.34188 53.70211
# Shear Modulus (GPa) = 22.19508 24.84130 23.51819
#
# Velocity S-wave (km/s) = 3.25749 3.44621 3.35317
# Velocity P-wave (km/s) = 6.05378 6.68460 6.37700
#
# Compressibility (1/GPa) = 0.02124841
#
# Stress axis : x y z
#
# Youngs Moduli (GPa) = 44.84166 44.84166 99.92884
#
# Poissons Ratio (x) = 0.26984 0.53274
# Poissons Ratio (y) = 0.26984 0.53274
# Poissons Ratio (z) = 0.23906 0.23906
#
# Static dielectric constant tensor:
#      x y z
#    x 3.893410 0.000000 0.000000 
#    y 0.000000 3.893410 0.000000 
#    z 0.000000 0.000000 4.046970 
# 
# 
# High freq. dielectric constant tensor:
#      x y z
#    x 1.816780 0.000000 0.000000 
#    y 0.000000 1.816780 0.000000 
#    z 0.000000 0.000000 1.808310 
# 
# From -- ./inp_files/3471.got.cif
#   From: 2010.03.12/outbox.cif.g09.slc.cpg/sg154_2_cif.got.tgz:3471.got - 2010.04.03 13:51:21.
