data_PCOD8322533
_publ_section_title
;
Structure prediction by ZEFSAII (Michael W. Deem and Ramdas Pophale) SiO2 
 PCOD8322533
Probable space group: R 3 2
;
_chemical_formula_sum "Si O2"
_cell_formula_units_Z 75
_cell_length_a 17.501629
_cell_length_b 17.501629
_cell_length_c 14.215822
_cell_angle_alpha 90.000000
_cell_angle_beta 90.000000
_cell_angle_gamma 120.000000
_cell_volume 3771.026249
_symmetry_space_group_name_H-M "R 3 2"
_symmetry_group_IT_number 155
_symmetry_cell_setting 'hexagonal'
loop_
_space_group_symop_operation_xyz
x,y,z
-y,x-y,z
-x+y,-x,z
x-y,-y,-z
-x,-x+y,-z
y,x,-z
2/3+x,1/3+y,1/3+z
2/3-y,1/3+x-y,1/3+z
2/3-x+y,1/3-x,1/3+z
2/3+x-y,1/3-y,1/3-z
2/3-x,1/3-x+y,1/3-z
2/3+y,1/3+x,1/3-z
1/3+x,2/3+y,2/3+z
1/3-y,2/3+x-y,2/3+z
1/3-x+y,2/3-x,2/3+z
1/3+x-y,2/3-y,2/3-z
1/3-x,2/3-x+y,2/3-z
1/3+y,2/3+x,2/3-z
loop_
_atom_site_type_symbol
_atom_site_label
_atom_site_fract_x
_atom_site_fract_y
_atom_site_fract_z
Si Si1 0.171224 0.327637 0.444317
Si Si2 0.474356 0.807690 0.166667
Si Si3 0.666668 0.333334 0.706988
Si Si4 0.900570 0.333334 0.333334
Si Si5 0.946206 0.808191 0.913432
Si Si6 0.333334 0.003501 0.166667
Si Si7 0.000000 0.000000 0.847734
O O1 0.189161 0.333334 0.333334
O O2 0.153578 0.236451 0.486897
O O3 0.260148 0.408490 0.492422
O O4 0.082893 0.328821 0.467531
O O5 0.412258 0.760770 0.257084
O O6 0.666668 0.333334 0.596491
O O7 0.888399 0.406758 0.285926
O O8 0.930104 0.287650 0.253911
O O9 0.996565 0.911055 0.883399
O O10 0.000000 0.796182 0.000000
#
# Coordination Sequence:
#
# PCOD8322533 Si02
#       7
#    18   9   6   9  18   9   6
#     4  11  23  40  65  91 132 168 212 274 335 388
#     4  10  22  43  59  94 124 160 220 268 328 395
#     4  10  22  40  73  94 113 175 217 274 322 376
#     4  10  20  38  62  92 120 164 208 272 310 378
#     4  11  22  39  63  91 130 169 212 265 317 386
#     4  10  20  39  61  92 120 156 216 262 326 373
#     4  12  20  41  66  91 128 166 231 257 314 396
#
# _framework density 19.888486
#
# number of rings (size 3 to 8) (size 9 to 14) (size 15 to 20)
#    0.000    1.440    3.600    2.880    0.000    0.960 
#    4.320    1.200    0.000    0.000    0.000    0.000 
#    0.000    0.000    0.000    0.000    0.000    0.000 
#
# Total GULP energy -309866.609652 kJ/mol
# GULP energy per Si atom -12394.664386 kJ/mol
# Density = 1.984322 g / cm^3
# Si number density = 19.888486 Si / 1000 Ang^3
#
#
#
# Elastic Constant Matrix: (Units=GPa)
#
#
# Indices 1 2 3 4 5 6 
#
# 1 66.7441 22.6205 31.2666 1.3136 -0.0012 0.0000
# 2 22.6205 66.7446 31.2663 -1.3134 0.0012 0.0000
# 3 31.2666 31.2663 156.5872 0.0005 0.0000 0.0000
# 4 1.3136 -1.3134 0.0005 28.4849 0.0000 0.0012
# 5 -0.0012 0.0012 0.0000 0.0000 28.4850 1.3136
# 6 0.0000 0.0000 0.0000 0.0012 1.3136 22.0622
#
#
#
# Elastic Compliance Matrix: (Units=1/GPa)
#
#
# Indices 1 2 3 4 5 6 
#
# 1 0.017867 -0.004859 -0.002597 -0.001048 0.000001 0.000000
# 2 -0.004859 0.017867 -0.002597 0.001048 -0.000001 0.000000
# 3 -0.002597 -0.002597 0.007423 0.000000 0.000000 0.000000
# 4 -0.001048 0.001048 0.000000 0.035203 0.000000 -0.000002
# 5 0.000001 -0.000001 0.000000 0.000000 0.035203 -0.002096
# 6 0.000000 0.000000 0.000000 -0.000002 -0.002096 0.045451
#
#
# Mechanical properties :
#
#
# Convention : Reuss Voigt Hill
#
# Bulk Modulus (GPa) = 43.38512 51.15366 47.26939
# Shear Modulus (GPa) = 26.76598 29.46793 28.11696
#
# Velocity S-wave (km/s) = 3.67250 3.85341 3.76404
# Velocity P-wave (km/s) = 6.31225 6.75088 6.53525
#
# Compressibility (1/GPa) = 0.02304938
#
# Stress axis : x y z
#
# Youngs Moduli (GPa) = 55.96976 55.97036 134.70852
#
# Poissons Ratio (x) = 0.27197 0.34988
# Poissons Ratio (y) = 0.27197 0.34987
# Poissons Ratio (z) = 0.14537 0.14537
#
# Static dielectric constant tensor:
#      x y z
#    x 4.034470 0.000000 0.000000 
#    y 0.000000 4.034450 0.000000 
#    z 0.000000 0.000000 3.958440 
# 
# 
# High freq. dielectric constant tensor:
#      x y z
#    x 1.770260 0.000000 0.000000 
#    y 0.000000 1.770260 0.000000 
#    z 0.000000 0.000000 1.795990 
# 
# From -- ./inp_files/4933.got.cif
#   From: 2010.03.12/outbox.cif.g09.slc.cpg/sg155_3_cif.got.tgz:4933.got - 2010.04.03 13:54:13.
