data_PCOD8322834
_publ_section_title
;
Structure prediction by ZEFSAII (Michael W. Deem and Ramdas Pophale) SiO2 
 PCOD8322834
Probable space group: P 3 1 C
;
_chemical_formula_sum "Si O2"
_cell_formula_units_Z 28
_cell_length_a 12.891620
_cell_length_b 12.891620
_cell_length_c 8.482864
_cell_angle_alpha 90.000000
_cell_angle_beta 90.000000
_cell_angle_gamma 120.000000
_cell_volume 1220.922584
_symmetry_space_group_name_H-M "P 3 1 C"
_symmetry_group_IT_number 159
_symmetry_cell_setting 'hexagonal'
loop_
_space_group_symop_operation_xyz
x,y,z
-y,x-y,z
-x+y,-x,z
y,x,1/2+z
x-y,-y,1/2+z
-x,-x+y,1/2+z
loop_
_atom_site_type_symbol
_atom_site_label
_atom_site_fract_x
_atom_site_fract_y
_atom_site_fract_z
Si Si1 0.333334 0.666668 0.371667
Si Si2 0.046109 0.219102 0.528530
Si Si3 0.333333 0.666666 0.003863
Si Si4 0.859431 0.516780 0.294662
Si Si5 0.172993 0.219102 0.846992
Si Si6 0.140569 0.483220 0.580863
O O1 0.200926 0.565385 0.428249
O O2 0.333334 0.666667 0.187765
O O3 0.095928 0.191856 0.687761
O O4 0.121798 0.213723 0.378847
O O5 0.051041 0.346602 0.531733
O O6 0.908075 0.121799 0.496675
O O7 0.434618 0.799072 0.947277
O O8 0.948959 0.653398 0.343789
O O9 0.754337 0.508670 0.187758
O O10 0.927894 0.463946 0.187765
#
# Coordination Sequence:
#
# PCOD8322834 Si02
#       6
#     2   6   2   6   6   6
#     4   9  16  29  55  87 118 152 199 261 319 371
#     4  11  23  40  61  88 124 168 212 255 302 365
#     4   9  16  29  55  87 118 152 199 261 319 371
#     4   8  17  37  59  81 118 162 202 254 316 370
#     4  11  23  40  61  88 124 168 212 255 302 365
#     4   8  17  37  59  81 118 162 202 254 316 370
#
# _framework density 22.933477
#
# number of rings (size 3 to 8) (size 9 to 14) (size 15 to 20)
#    0.000    2.571    0.000    3.429    0.000    3.429 
#    0.000   21.429    0.000    7.714    0.000    0.000 
#    0.000    0.000    0.000    0.000    0.000    0.000 
#
# Total GULP energy -347081.561150 kJ/mol
# GULP energy per Si atom -12395.770041 kJ/mol
# Density = 2.288128 g / cm^3
# Si number density = 22.933477 Si / 1000 Ang^3
#
#
#
# Elastic Constant Matrix: (Units=GPa)
#
#
# Indices 1 2 3 4 5 6 
#
# 1 94.5993 42.7676 18.8801 0.0000 3.6776 -0.0001
# 2 42.7676 94.5990 18.8800 0.0002 -3.6775 -0.0001
# 3 18.8801 18.8800 105.5303 0.0002 0.0001 -0.0001
# 4 0.0000 0.0002 0.0002 25.2687 -0.0001 -3.6775
# 5 3.6776 -3.6775 0.0001 -0.0001 25.2688 0.0001
# 6 -0.0001 -0.0001 -0.0001 -3.6775 0.0001 25.9157
#
#
#
# Elastic Compliance Matrix: (Units=1/GPa)
#
#
# Indices 1 2 3 4 5 6 
#
# 1 0.013678 -0.006022 -0.001370 0.000000 -0.002867 0.000000
# 2 -0.006022 0.013678 -0.001370 0.000000 0.002867 0.000000
# 3 -0.001370 -0.001370 0.009966 0.000000 0.000000 0.000000
# 4 0.000000 0.000000 0.000000 0.040409 0.000000 0.005734
# 5 -0.002867 0.002867 0.000000 0.000000 0.040409 0.000000
# 6 0.000000 0.000000 0.000000 0.005734 0.000000 0.039400
#
#
# Mechanical properties :
#
#
# Convention : Reuss Voigt Hill
#
# Bulk Modulus (GPa) = 50.50600 50.64269 50.57434
# Shear Modulus (GPa) = 27.52335 29.57069 28.54702
#
# Velocity S-wave (km/s) = 3.46806 3.59473 3.53196
# Velocity P-wave (km/s) = 6.17310 6.27374 6.22363
#
# Compressibility (1/GPa) = 0.01979963
#
# Stress axis : x y z
#
# Youngs Moduli (GPa) = 73.10899 73.10883 100.34039
#
# Poissons Ratio (x) = 0.44026 0.13744
# Poissons Ratio (y) = 0.44026 0.13744
# Poissons Ratio (z) = 0.10014 0.10014
#
# Static dielectric constant tensor:
#      x y z
#    x 4.314460 0.000000 0.000000 
#    y 0.000000 4.314460 0.000000 
#    z 0.000000 0.000000 4.071500 
# 
# 
# High freq. dielectric constant tensor:
#      x y z
#    x 1.889480 0.000000 0.000000 
#    y 0.000000 1.889480 0.000000 
#    z 0.000000 0.000000 1.906770 
# 
# From -- ./inp_files/368.got.cif
#   From: 2010.03.12/outbox.cif.g09.slc.cpg/sg159_cif.got.tgz:368.got - 2010.04.03 14:00:19.
