data_PCOD8322491
_publ_section_title
;
Structure prediction by ZEFSAII (Michael W. Deem and Ramdas Pophale) SiO2 
 PCOD8322491
Probable space group: R 3 2
;
_chemical_formula_sum "Si O2"
_cell_formula_units_Z 93
_cell_length_a 16.320687
_cell_length_b 16.320687
_cell_length_c 22.984631
_cell_angle_alpha 90.000000
_cell_angle_beta 90.000000
_cell_angle_gamma 120.000000
_cell_volume 5302.064900
_symmetry_space_group_name_H-M "R 3 2"
_symmetry_group_IT_number 155
_symmetry_cell_setting 'hexagonal'
loop_
_space_group_symop_operation_xyz
x,y,z
-y,x-y,z
-x+y,-x,z
x-y,-y,-z
-x,-x+y,-z
y,x,-z
2/3+x,1/3+y,1/3+z
2/3-y,1/3+x-y,1/3+z
2/3-x+y,1/3-x,1/3+z
2/3+x-y,1/3-y,1/3-z
2/3-x,1/3-x+y,1/3-z
2/3+y,1/3+x,1/3-z
1/3+x,2/3+y,2/3+z
1/3-y,2/3+x-y,2/3+z
1/3-x+y,2/3-x,2/3+z
1/3+x-y,2/3-y,2/3-z
1/3-x,2/3-x+y,2/3-z
1/3+y,2/3+x,2/3-z
loop_
_atom_site_type_symbol
_atom_site_label
_atom_site_fract_x
_atom_site_fract_y
_atom_site_fract_z
Si Si1 0.588664 0.468303 0.586415
Si Si2 0.140180 0.930009 0.613227
Si Si3 0.215765 0.314194 0.518824
Si Si4 0.000000 0.000000 0.251170
Si Si5 0.578057 0.000000 0.500000
Si Si6 0.333333 0.666666 0.056185
Si Si7 0.932398 0.258267 0.554979
O O1 0.562037 0.447773 0.654047
O O2 0.625901 0.399797 0.561543
O O3 0.498720 0.454735 0.550759
O O4 0.668882 0.576271 0.583596
O O5 0.133611 0.841508 0.578607
O O6 0.245245 0.019210 0.604326
O O7 0.067011 0.960487 0.587552
O O8 0.222426 0.222426 0.500000
O O9 0.322104 0.404039 0.527416
O O10 0.165689 0.335771 0.465873
O O11 0.000000 0.000000 0.320218
O O12 0.000000 0.303757 0.500000
#
# Coordination Sequence:
#
# PCOD8322491 Si02
#       7
#    18  18  18   6   9   6  18
#     4  11  20  37  54  82 110 148 194 232 288 331
#     4  10  20  33  57  83 115 149 185 230 279 352
#     4   9  20  36  53  83 112 148 188 227 285 330
#     4   9  21  33  54  76 106 142 187 237 273 340
#     4  10  22  36  56  78 114 152 192 230 282 334
#     4   9  18  33  49  85 114 141 178 220 285 334
#     4  10  19  34  55  79 112 142 182 232 282 337
#
# _framework density 17.540336
#
# number of rings (size 3 to 8) (size 9 to 14) (size 15 to 20)
#    0.581    1.548    0.968    2.903    0.000    0.774 
#    0.000    4.839    0.000    0.000    0.000    0.000 
#    0.000    0.000    0.000    0.000    0.000    0.000 
#
# Total GULP energy -384284.135546 kJ/mol
# GULP energy per Si atom -12396.262437 kJ/mol
# Density = 1.750041 g / cm^3
# Si number density = 17.540336 Si / 1000 Ang^3
#
#
#
# Elastic Constant Matrix: (Units=GPa)
#
#
# Indices 1 2 3 4 5 6 
#
# 1 105.9990 40.5678 38.3959 2.0374 0.0000 0.0000
# 2 40.5678 105.9993 38.3959 -2.0374 0.0000 0.0000
# 3 38.3959 38.3959 69.8413 0.0000 0.0000 0.0000
# 4 2.0374 -2.0374 0.0000 20.0586 0.0000 0.0000
# 5 0.0000 0.0000 0.0000 0.0000 20.0586 2.0374
# 6 0.0000 0.0000 0.0000 0.0000 2.0374 32.7157
#
#
#
# Elastic Compliance Matrix: (Units=1/GPa)
#
#
# Indices 1 2 3 4 5 6 
#
# 1 0.012482 -0.002899 -0.005268 -0.001562 0.000000 0.000000
# 2 -0.002899 0.012482 -0.005268 0.001562 0.000000 0.000000
# 3 -0.005268 -0.005268 0.020111 0.000000 0.000000 0.000000
# 4 -0.001562 0.001562 0.000000 0.050171 0.000000 0.000000
# 5 0.000000 0.000000 0.000000 0.000000 0.050171 -0.003125
# 6 0.000000 0.000000 0.000000 0.000000 -0.003125 0.030761
#
#
# Mechanical properties :
#
#
# Convention : Reuss Voigt Hill
#
# Bulk Modulus (GPa) = 54.93448 57.39542 56.16495
# Shear Modulus (GPa) = 23.91009 25.53192 24.72101
#
# Velocity S-wave (km/s) = 3.69609 3.81939 3.75824
# Velocity P-wave (km/s) = 7.04285 7.22795 7.13600
#
# Compressibility (1/GPa) = 0.01820350
#
# Stress axis : x y z
#
# Youngs Moduli (GPa) = 80.11646 80.11671 49.72425
#
# Poissons Ratio (x) = 0.23223 0.26197
# Poissons Ratio (y) = 0.23223 0.26197
# Poissons Ratio (z) = 0.42209 0.42209
#
# Static dielectric constant tensor:
#      x y z
#    x 3.288850 0.000000 0.000000 
#    y 0.000000 3.288850 0.000000 
#    z 0.000000 0.000000 2.953190 
# 
# 
# High freq. dielectric constant tensor:
#      x y z
#    x 1.681520 0.000000 0.000000 
#    y 0.000000 1.681520 0.000000 
#    z 0.000000 0.000000 1.659000 
# 
# From -- ./inp_files/6922.got.cif
#   From: 2010.03.12/outbox.cif.g09.slc.cpg/sg155_4_cif.got.tgz:6922.got - 2010.04.03 13:54:13.
