data_PCOD8322803
_publ_section_title
;
Structure prediction by ZEFSAII (Michael W. Deem and Ramdas Pophale) SiO2 
 PCOD8322803
Probable space group: P 3 1 C
;
_chemical_formula_sum "Si O2"
_cell_formula_units_Z 34
_cell_length_a 13.634509
_cell_length_b 13.634509
_cell_length_c 8.810883
_cell_angle_alpha 90.000000
_cell_angle_beta 90.000000
_cell_angle_gamma 120.000000
_cell_volume 1418.499124
_symmetry_space_group_name_H-M "P 3 1 C"
_symmetry_group_IT_number 159
_symmetry_cell_setting 'hexagonal'
loop_
_space_group_symop_operation_xyz
x,y,z
-y,x-y,z
-x+y,-x,z
y,x,1/2+z
x-y,-y,1/2+z
-x,-x+y,1/2+z
loop_
_atom_site_type_symbol
_atom_site_label
_atom_site_fract_x
_atom_site_fract_y
_atom_site_fract_z
Si Si1 0.850268 0.664722 0.848410
Si Si2 0.666668 0.333335 0.801669
Si Si3 0.935046 0.156566 0.325928
Si Si4 0.361321 0.887638 0.791824
Si Si5 0.772837 0.989119 0.090372
Si Si6 0.333335 0.666667 0.940647
Si Si7 0.114769 0.511916 0.438694
O O1 0.857357 0.787588 0.835066
O O2 0.913847 0.661225 0.694946
O O3 0.723431 0.567411 0.860224
O O4 0.927064 0.671752 0.992307
O O5 0.666668 0.333334 0.622098
O O6 0.634515 0.208439 0.870544
O O7 0.903424 0.253525 0.294413
O O8 0.887568 0.097236 0.486855
O O9 0.884516 0.066057 0.190619
O O10 0.327242 0.773494 0.880364
O O11 0.395681 0.881604 0.619415
O O12 0.469876 0.988971 0.877781
#
# Coordination Sequence:
#
# PCOD8322803 Si02
#       7
#     6   2   6   6   6   2   6
#     4  10  21  38  60  88 136 182 234 283 360 402
#     4  12  28  50  76 117 139 176 235 282 346 434
#     4  10  21  38  60  88 136 182 234 283 360 402
#     4  11  24  47  76 101 142 184 227 291 354 415
#     4  10  20  36  54  94 126 182 234 294 332 432
#     4  12  28  50  76 117 139 176 235 282 346 434
#     4  11  24  47  76 101 142 184 227 291 354 415
#
# _framework density 23.968993999999999
#
# number of rings (size 3 to 8) (size 9 to 14) (size 15 to 20)
#    0.000    1.412    1.765    3.176    9.882    0.000 
#   27.529    0.000    0.000    0.000    0.000    0.000 
#    0.000    0.000    0.000    0.000    0.000    0.000 
#
# Total GULP energy -421556.461617 kJ/mol
# GULP energy per Si atom -12398.719459 kJ/mol
# Density = 2.391444 g / cm^3
# Si number density = 23.968994 Si / 1000 Ang^3
#
#
#
# Elastic Constant Matrix: (Units=GPa)
#
#
# Indices 1 2 3 4 5 6 
#
# 1 54.8190 -11.2460 19.3829 0.0001 -2.6075 0.0007
# 2 -11.2460 54.8197 19.3832 0.0002 2.6077 -0.0001
# 3 19.3829 19.3832 186.6851 0.0002 0.0001 0.0002
# 4 0.0001 0.0002 0.0002 31.9409 0.0003 2.6077
# 5 -2.6075 2.6077 0.0001 0.0003 31.9406 0.0000
# 6 0.0007 -0.0001 0.0002 2.6077 0.0000 33.0322
#
#
#
# Elastic Compliance Matrix: (Units=1/GPa)
#
#
# Indices 1 2 3 4 5 6 
#
# 1 0.020260 0.005025 -0.002625 0.000000 0.001244 0.000000
# 2 0.005025 0.020260 -0.002625 0.000000 -0.001244 0.000000
# 3 -0.002625 -0.002625 0.005902 0.000000 0.000000 0.000000
# 4 0.000000 0.000000 0.000000 0.031511 0.000000 -0.002488
# 5 0.001244 -0.001244 0.000000 0.000000 0.031511 0.000000
# 6 0.000000 0.000000 0.000000 -0.002488 0.000000 0.030470
#
#
# Mechanical properties :
#
#
# Convention : Reuss Voigt Hill
#
# Bulk Modulus (GPa) = 21.75266 39.04046 30.39656
# Shear Modulus (GPa) = 32.11546 37.30299 34.70922
#
# Velocity S-wave (km/s) = 3.66440 3.94928 3.80950
# Velocity P-wave (km/s) = 5.19604 6.09254 5.66206
#
# Compressibility (1/GPa) = 0.04597140
#
# Stress axis : x y z
#
# Youngs Moduli (GPa) = 49.35784 49.35840 169.44043
#
# Poissons Ratio (x) = -0.24804 0.44484
# Poissons Ratio (y) = -0.24804 0.44484
# Poissons Ratio (z) = 0.12958 0.12958
#
# Static dielectric constant tensor:
#      x y z
#    x 4.436120 0.000010 0.000000 
#    y 0.000010 4.436130 0.000000 
#    z 0.000000 0.000000 4.549590 
# 
# 
# High freq. dielectric constant tensor:
#      x y z
#    x 1.949260 0.000000 0.000000 
#    y 0.000000 1.949260 0.000000 
#    z 0.000000 0.000000 1.969790 
# 
# From -- ./inp_files/396.got.cif
#   From: 2010.03.12/outbox.cif.g09.slc.cpg/sg159_cif.got.tgz:396.got - 2010.04.03 14:00:19.
