data_PCOD8322775
_publ_section_title
;
Structure prediction by ZEFSAII (Michael W. Deem and Ramdas Pophale) SiO2 
 PCOD8322775
Probable space group: P 3 C 1
;
_chemical_formula_sum "Si O2"
_cell_formula_units_Z 18
_cell_length_a 10.428175
_cell_length_b 10.428175
_cell_length_c 7.437581
_cell_angle_alpha 90.000000
_cell_angle_beta 90.000000
_cell_angle_gamma 120.000000
_cell_volume 700.452938
_symmetry_space_group_name_H-M "P 3 C 1"
_symmetry_group_IT_number 158
_symmetry_cell_setting 'hexagonal'
loop_
_space_group_symop_operation_xyz
x,y,z
-y,x-y,z
-x+y,-x,z
-x+y,y,1/2+z
x,x-y,1/2+z
-y,-x,1/2+z
loop_
_atom_site_type_symbol
_atom_site_label
_atom_site_fract_x
_atom_site_fract_y
_atom_site_fract_z
Si Si1 0.379720 0.331028 0.470100
Si Si2 0.146989 0.965155 0.263930
Si Si3 0.668971 0.048691 0.057761
O O1 0.231371 0.276852 0.588521
O O2 0.335107 0.331217 0.263930
O O3 0.445876 0.222938 0.513930
O O4 0.502576 0.497424 0.513930
O O5 0.970401 0.842710 0.263930
O O6 0.231371 0.954519 0.439339
#
# Coordination Sequence:
#
# PCOD8322775 Si02
#       3
#     6   6   6
#     4  12  23  43  71 107 156 206 274 348 415 478
#     4  10  26  46  66 112 172 208 270 336 432 494
#     4  12  23  43  71 107 156 206 274 348 415 478
#
# _framework density 25.697658000000001
#
# number of rings (size 3 to 8) (size 9 to 14) (size 15 to 20)
#    0.667    0.000    6.667    0.667    0.000    5.333 
#    0.000    0.000    0.000    0.000    0.000    0.000 
#  106.667    0.000    0.000    0.000    0.000    0.000 
#
# Total GULP energy -223018.174241 kJ/mol
# GULP energy per Si atom -12389.898569 kJ/mol
# Density = 2.563917 g / cm^3
# Si number density = 25.697658 Si / 1000 Ang^3
#
#
#
# Elastic Constant Matrix: (Units=GPa)
#
#
# Indices 1 2 3 4 5 6 
#
# 1 162.2735 52.2356 69.3403 0.0000 0.0000 0.0000
# 2 52.2356 162.2735 69.3403 0.0000 0.0000 0.0000
# 3 69.3403 69.3403 276.2564 0.0000 0.0000 0.0000
# 4 0.0000 0.0000 0.0000 36.3776 0.0000 0.0000
# 5 0.0000 0.0000 0.0000 0.0000 36.3776 0.0000
# 6 0.0000 0.0000 0.0000 0.0000 0.0000 55.0190
#
#
#
# Elastic Compliance Matrix: (Units=1/GPa)
#
#
# Indices 1 2 3 4 5 6 
#
# 1 0.007326 -0.001761 -0.001397 0.000000 0.000000 0.000000
# 2 -0.001761 0.007326 -0.001397 0.000000 0.000000 0.000000
# 3 -0.001397 -0.001397 0.004321 0.000000 0.000000 0.000000
# 4 0.000000 0.000000 0.000000 0.027489 0.000000 0.000000
# 5 0.000000 0.000000 0.000000 0.000000 0.027489 0.000000
# 6 0.000000 0.000000 0.000000 0.000000 0.000000 0.018176
#
#
# Mechanical properties :
#
#
# Convention : Reuss Voigt Hill
#
# Bulk Modulus (GPa) = 101.38317 109.18175 105.28246
# Shear Modulus (GPa) = 47.83504 52.88065 50.35785
#
# Velocity S-wave (km/s) = 4.31914 4.54122 4.43157
# Velocity P-wave (km/s) = 8.02566 8.37115 8.20023
#
# Compressibility (1/GPa) = 0.00986357
#
# Stress axis : x y z
#
# Youngs Moduli (GPa) = 136.49455 136.49455 231.42769
#
# Poissons Ratio (x) = 0.24043 0.32325
# Poissons Ratio (y) = 0.24043 0.32325
# Poissons Ratio (z) = 0.19065 0.19065
#
# Static dielectric constant tensor:
#      x y z
#    x 4.680870 0.000000 0.000000 
#    y 0.000000 4.680870 0.000000 
#    z 0.000000 0.000000 5.042440 
# 
# 
# High freq. dielectric constant tensor:
#      x y z
#    x 2.026510 0.000000 0.000000 
#    y 0.000000 2.026510 0.000000 
#    z 0.000000 0.000000 2.060140 
# 
# From -- ./inp_files/85.got.cif
#   From: 2010.03.12/outbox.cif.g09.slc.cpg/sg158_cif.got.tgz:85.got - 2010.04.03 13:59:47.
