data_PCOD8322046
_publ_section_title
;
Structure prediction by ZEFSAII (Michael W. Deem and Ramdas Pophale) SiO2 
 PCOD8322046
Probable space group: P 31 2 1
;
_chemical_formula_sum "Si O2"
_cell_formula_units_Z 30
_cell_length_a 9.459550
_cell_length_b 9.459550
_cell_length_c 21.447619
_cell_angle_alpha 90.000000
_cell_angle_beta 90.000000
_cell_angle_gamma 120.000000
_cell_volume 1662.075210
_symmetry_space_group_name_H-M "P 31 2 1"
_symmetry_group_IT_number 152
_symmetry_cell_setting 'hexagonal'
loop_
_space_group_symop_operation_xyz
x,y,z
-y,x-y,1/3+z
-x+y,-x,2/3+z
x-y,-y,2/3-z
-x,-x+y,1/3-z
y,x,-z
loop_
_atom_site_type_symbol
_atom_site_label
_atom_site_fract_x
_atom_site_fract_y
_atom_site_fract_z
Si Si1 0.710649 0.713459 0.069184
Si Si2 0.839643 0.325835 0.855158
Si Si3 0.991476 0.678540 0.266954
Si Si4 0.515301 0.163720 0.799529
Si Si5 0.640157 0.990717 0.594297
O O1 0.633667 0.582652 0.125614
O O2 0.903460 0.777767 0.063861
O O3 0.692977 0.868850 0.085257
O O4 0.635660 0.635660 0.000000
O O5 0.793570 0.151125 0.884879
O O6 0.661404 0.306177 0.841183
O O7 0.939049 0.463689 0.905903
O O8 0.927646 0.603657 0.334884
O O9 0.112454 0.610395 0.249526
O O10 0.402208 0.231263 0.775726
O O11 0.386129 0.000000 0.833334
#
# Coordination Sequence:
#
# PCOD8322046 Si02
#       5
#     6   6   6   6   6
#     4   9  19  33  51  74 102 135 171 208 254 307
#     4  10  19  34  53  74 102 136 170 207 255 308
#     4   9  19  35  52  71 101 137 168 200 251 315
#     4   9  19  33  48  70 100 131 162 202 252 301
#     4  11  19  31  53  79  98 125 170 217 250 289
#
# _framework density 18.049724999999999
#
# number of rings (size 3 to 8) (size 9 to 14) (size 15 to 20)
#    0.000    2.400    0.000    4.200    0.000    1.600 
#    0.000    0.000    0.000    0.000    0.000   16.800 
#    0.000    0.000    0.000    0.000    0.000    0.000 
#
# Total GULP energy -371654.810456 kJ/mol
# GULP energy per Si atom -12388.493682 kJ/mol
# Density = 1.800864 g / cm^3
# Si number density = 18.049725 Si / 1000 Ang^3
#
#
#
# Elastic Constant Matrix: (Units=GPa)
#
#
# Indices 1 2 3 4 5 6 
#
# 1 66.5192 29.6263 20.1419 -7.3780 0.0001 0.0000
# 2 29.6263 66.5192 20.1419 7.3780 -0.0001 0.0000
# 3 20.1419 20.1419 88.7629 0.0000 0.0000 0.0000
# 4 -7.3780 7.3780 0.0000 28.3066 0.0000 -0.0001
# 5 0.0001 -0.0001 0.0000 0.0000 28.3066 -7.3780
# 6 0.0000 0.0000 0.0000 -0.0001 -7.3780 18.4464
#
#
#
# Elastic Compliance Matrix: (Units=1/GPa)
#
#
# Indices 1 2 3 4 5 6 
#
# 1 0.020877 -0.009383 -0.002608 0.007887 0.000000 0.000000
# 2 -0.009383 0.020877 -0.002608 -0.007887 0.000000 0.000000
# 3 -0.002608 -0.002608 0.012450 0.000000 0.000000 0.000000
# 4 0.007887 -0.007887 0.000000 0.039439 0.000000 0.000000
# 5 0.000000 0.000000 0.000000 0.000000 0.039439 0.015774
# 6 0.000000 0.000000 0.000000 0.000000 0.015774 0.060520
#
#
# Mechanical properties :
#
#
# Convention : Reuss Voigt Hill
#
# Bulk Modulus (GPa) = 39.99285 40.18019 40.08652
# Shear Modulus (GPa) = 21.63232 25.13800 23.38516
#
# Velocity S-wave (km/s) = 3.46567 3.73595 3.60334
# Velocity P-wave (km/s) = 6.18220 6.39679 6.29041
#
# Compressibility (1/GPa) = 0.02500447
#
# Stress axis : x y z
#
# Youngs Moduli (GPa) = 47.89978 47.89978 80.32365
#
# Poissons Ratio (x) = 0.44946 0.20949
# Poissons Ratio (y) = 0.44946 0.20949
# Poissons Ratio (z) = 0.12493 0.12493
#
# Static dielectric constant tensor:
#      x y z
#    x 3.215670 0.000000 0.000000 
#    y 0.000000 3.215670 0.000000 
#    z 0.000000 0.000000 3.729050 
# 
# 
# High freq. dielectric constant tensor:
#      x y z
#    x 1.688650 0.000000 0.000000 
#    y 0.000000 1.688650 0.000000 
#    z 0.000000 0.000000 1.712080 
# 
# From -- ./inp_files/2969.got.cif
#   From: 2010.03.12/outbox.cif.g09.slc.cpg/sg152_2_cif.got.tgz:2969.got - 2010.04.03 13:45:27.
