data_PCOD8322621
_publ_section_title
;
Structure prediction by ZEFSAII (Michael W. Deem and Ramdas Pophale) SiO2 
 PCOD8322621
Probable space group: R 3 2
;
_chemical_formula_sum "Si O2"
_cell_formula_units_Z 93
_cell_length_a 15.084604
_cell_length_b 15.084604
_cell_length_c 21.745810
_cell_angle_alpha 90.000000
_cell_angle_beta 90.000000
_cell_angle_gamma 120.000000
_cell_volume 4285.229125
_symmetry_space_group_name_H-M "R 3 2"
_symmetry_group_IT_number 155
_symmetry_cell_setting 'hexagonal'
loop_
_space_group_symop_operation_xyz
x,y,z
-y,x-y,z
-x+y,-x,z
x-y,-y,-z
-x,-x+y,-z
y,x,-z
2/3+x,1/3+y,1/3+z
2/3-y,1/3+x-y,1/3+z
2/3-x+y,1/3-x,1/3+z
2/3+x-y,1/3-y,1/3-z
2/3-x,1/3-x+y,1/3-z
2/3+y,1/3+x,1/3-z
1/3+x,2/3+y,2/3+z
1/3-y,2/3+x-y,2/3+z
1/3-x+y,2/3-x,2/3+z
1/3+x-y,2/3-y,2/3-z
1/3-x,2/3-x+y,2/3-z
1/3+y,2/3+x,2/3-z
loop_
_atom_site_type_symbol
_atom_site_label
_atom_site_fract_x
_atom_site_fract_y
_atom_site_fract_z
Si Si1 0.980826 0.605111 0.065264
Si Si2 0.954912 0.829280 0.438789
Si Si3 0.333334 0.918144 0.166667
Si Si4 0.000000 0.000000 0.200862
Si Si5 0.000000 0.000000 0.651659
Si Si6 0.555386 0.613831 0.941835
Si Si7 0.881881 0.763735 0.206474
O O1 0.929985 0.484864 0.048333
O O2 0.901379 0.616030 0.107377
O O3 0.085290 0.655769 0.103252
O O4 0.000000 0.664124 0.000000
O O5 0.833679 0.766992 0.448734
O O6 0.000000 0.899768 0.500000
O O7 0.983693 0.893560 0.375922
O O8 0.256840 0.936123 0.207378
O O9 0.945363 0.880170 0.176471
O O10 0.000000 0.000000 0.275234
O O11 0.551246 0.717786 0.935394
O O12 0.627486 0.627486 0.000000
O O13 0.793962 0.666667 0.166667
#
# Coordination Sequence:
#
# PCOD8322621 Si02
#       7
#    18  18   9   6   6  18  18
#     4  11  24  41  66  99 133 178 232 293 349 421
#     4  12  21  35  61 101 140 174 212 272 359 434
#     4  12  24  40  62  94 144 182 218 290 360 424
#     4  12  27  46  73  99 142 184 237 298 350 430
#     4  12  22  37  66 105 144 175 217 271 365 448
#     4  11  25  43  65  99 136 178 234 291 352 419
#     4  12  26  46  70 100 137 187 242 285 350 416
#
# _framework density 21.702456999999999
#
# number of rings (size 3 to 8) (size 9 to 14) (size 15 to 20)
#    0.000    0.387    6.774    1.742    8.129    0.000 
#    0.000    0.000    0.000    0.000    0.000    1.355 
#    0.000    0.000    0.000    0.000    0.000    0.000 
#
# Total GULP energy -384050.112028 kJ/mol
# GULP energy per Si atom -12388.713291 kJ/mol
# Density = 2.165306 g / cm^3
# Si number density = 21.702457 Si / 1000 Ang^3
#
#
#
# Elastic Constant Matrix: (Units=GPa)
#
#
# Indices 1 2 3 4 5 6 
#
# 1 84.2771 45.6768 10.3523 -4.5413 0.0000 0.0000
# 2 45.6768 84.2771 10.3523 4.5413 0.0000 0.0000
# 3 10.3523 10.3523 63.1653 0.0000 0.0000 0.0000
# 4 -4.5413 4.5413 0.0000 30.9638 0.0000 0.0000
# 5 0.0000 0.0000 0.0000 0.0000 30.9638 -4.5413
# 6 0.0000 0.0000 0.0000 0.0000 -4.5413 19.3001
#
#
#
# Elastic Compliance Matrix: (Units=1/GPa)
#
#
# Indices 1 2 3 4 5 6 
#
# 1 0.017367 -0.009466 -0.001295 0.003935 0.000000 0.000000
# 2 -0.009466 0.017367 -0.001295 -0.003935 0.000000 0.000000
# 3 -0.001295 -0.001295 0.016256 0.000000 0.000000 0.000000
# 4 0.003935 -0.003935 0.000000 0.033450 0.000000 0.000000
# 5 0.000000 0.000000 0.000000 0.000000 0.033450 0.007871
# 6 0.000000 0.000000 0.000000 0.000000 0.007871 0.053665
#
#
# Mechanical properties :
#
#
# Convention : Reuss Voigt Hill
#
# Bulk Modulus (GPa) = 37.20405 40.49802 38.85103
# Shear Modulus (GPa) = 24.43485 27.26809 25.85147
#
# Velocity S-wave (km/s) = 3.35909 3.54849 3.45509
# Velocity P-wave (km/s) = 5.67667 5.95736 5.81871
#
# Compressibility (1/GPa) = 0.02687880
#
# Stress axis : x y z
#
# Youngs Moduli (GPa) = 57.58069 57.58069 61.51592
#
# Poissons Ratio (x) = 0.54503 0.07966
# Poissons Ratio (y) = 0.54503 0.07966
# Poissons Ratio (z) = 0.07456 0.07456
#
# Static dielectric constant tensor:
#      x y z
#    x 4.082700 0.000000 0.000000 
#    y 0.000000 4.082700 0.000000 
#    z 0.000000 0.000000 4.185620 
# 
# 
# High freq. dielectric constant tensor:
#      x y z
#    x 1.853860 0.000000 0.000000 
#    y 0.000000 1.853860 0.000000 
#    z 0.000000 0.000000 1.839640 
# 
# From -- ./inp_files/7937.got.cif
#   From: 2010.03.12/outbox.cif.g09.slc.cpg/sg155_4_cif.got.tgz:7937.got - 2010.04.03 13:54:13.
