data_PCOD8322933
_publ_section_title
;
Structure prediction by ZEFSAII (Michael W. Deem and Ramdas Pophale) SiO2 
 PCOD8322933
Probable space group: P -3 1 M 
;
_chemical_formula_sum "Si O2"
_cell_formula_units_Z 60
_cell_length_a 20.671539
_cell_length_b 20.671539
_cell_length_c 12.849736
_cell_angle_alpha 90.000000
_cell_angle_beta 90.000000
_cell_angle_gamma 120.000000
_cell_volume 4755.218300
_symmetry_space_group_name_H-M "P -3 1 M "
_symmetry_group_IT_number 162
_symmetry_cell_setting 'hexagonal'
loop_
_space_group_symop_operation_xyz
x,y,z
-y,x-y,z
-x+y,-x,z
-y,-x,-z
-x+y,y,-z
x,x-y,-z
-x,-y,-z
y,-x+y,-z
x-y,x,-z
y,x,z
x-y,-y,z
-x,-x+y,z
loop_
_atom_site_type_symbol
_atom_site_label
_atom_site_fract_x
_atom_site_fract_y
_atom_site_fract_z
Si Si1 0.486941 0.667028 0.500000
Si Si2 0.516527 0.183057 0.117752
Si Si3 0.183057 0.666530 0.117752
Si Si4 0.916874 0.535049 0.305614
Si Si5 0.535049 0.916874 0.694386
O O1 0.404811 0.595190 0.500000
O O2 0.477770 0.738885 0.500000
O O3 0.534406 0.669049 0.600540
O O4 0.534406 0.669050 0.399460
O O5 0.601183 0.202366 0.135639
O O6 0.514182 0.257091 0.143885
O O7 0.460703 0.118145 0.195418
O O8 0.490153 0.155423 1.000000
O O9 0.118145 0.657442 0.195418
O O10 0.922675 0.461337 0.312025
O O11 0.000000 0.606763 0.314668
O O12 0.606763 0.000000 0.685332
#
# Coordination Sequence:
#
# PCOD8322933 Si02
#       5
#    12  12  12  12  12
#     4  10  18  27  39  53  68  85 108 140 177 214
#     4   9  16  25  37  52  69  88 111 141 176 210
#     4   9  16  25  37  52  69  88 111 141 176 210
#     4   9  17  27  37  49  66  88 111 135 167 209
#     4   9  17  27  37  49  66  88 111 135 167 209
#
# _framework density 12.617717000000001
#
# number of rings (size 3 to 8) (size 9 to 14) (size 15 to 20)
#    0.000    2.800    0.000    2.400    0.000    4.800 
#    0.000    8.000    0.000    0.000    0.000    0.000 
#    0.000    0.000    0.000    0.000    0.000    0.000 
#
# Total GULP energy -743848.704454 kJ/mol
# GULP energy per Si atom -12397.478408 kJ/mol
# Density = 1.258900 g / cm^3
# Si number density = 12.617717 Si / 1000 Ang^3
#
#
#
# Elastic Constant Matrix: (Units=GPa)
#
#
# Indices 1 2 3 4 5 6 
#
# 1 54.1129 31.3482 41.1562 0.0000 0.0000 0.0000
# 2 31.3482 54.1129 41.1562 0.0000 0.0000 0.0000
# 3 41.1562 41.1562 103.8808 0.0000 0.0000 0.0000
# 4 0.0000 0.0000 0.0000 17.3543 0.0000 0.0000
# 5 0.0000 0.0000 0.0000 0.0000 17.3543 0.0000
# 6 0.0000 0.0000 0.0000 0.0000 0.0000 11.3824
#
#
#
# Elastic Compliance Matrix: (Units=1/GPa)
#
#
# Indices 1 2 3 4 5 6 
#
# 1 0.031425 -0.012503 -0.007496 0.000000 0.000000 0.000000
# 2 -0.012503 0.031425 -0.007496 0.000000 0.000000 0.000000
# 3 -0.007496 -0.007496 0.015566 0.000000 0.000000 0.000000
# 4 0.000000 0.000000 0.000000 0.057623 0.000000 0.000000
# 5 0.000000 0.000000 0.000000 0.000000 0.057623 0.000000
# 6 0.000000 0.000000 0.000000 0.000000 0.000000 0.087855
#
#
# Mechanical properties :
#
#
# Convention : Reuss Voigt Hill
#
# Bulk Modulus (GPa) = 42.69197 48.82531 45.75864
# Shear Modulus (GPa) = 14.52155 15.78124 15.15140
#
# Velocity S-wave (km/s) = 3.39615 3.54039 3.46902
# Velocity P-wave (km/s) = 7.02046 7.44932 7.23807
#
# Compressibility (1/GPa) = 0.02342361
#
# Stress axis : x y z
#
# Youngs Moduli (GPa) = 31.82225 31.82225 64.24086
#
# Poissons Ratio (x) = 0.39787 0.48158
# Poissons Ratio (y) = 0.39787 0.48158
# Poissons Ratio (z) = 0.23855 0.23855
#
# Static dielectric constant tensor:
#      x y z
#    x 2.400790 0.000000 0.000000 
#    y 0.000000 2.400790 0.000000 
#    z 0.000000 0.000000 2.828760 
# 
# 
# High freq. dielectric constant tensor:
#      x y z
#    x 1.442970 0.000000 0.000000 
#    y 0.000000 1.442970 0.000000 
#    z 0.000000 0.000000 1.502520 
# 
# From -- ./inp_files/3003.got.cif
#   From: 2010.03.12/outbox.cif.g09.slc.cpg/sg162_2_cif.got.tgz:3003.got - 2010.04.02 06:27:41.
