data_PCOD8322948
_publ_section_title
;
Structure prediction by ZEFSAII (Michael W. Deem and Ramdas Pophale) SiO2 
 PCOD8322948
Probable space group: P -3 1 M 
;
_chemical_formula_sum "Si O2"
_cell_formula_units_Z 78
_cell_length_a 22.196827
_cell_length_b 22.196827
_cell_length_c 12.525115
_cell_angle_alpha 90.000000
_cell_angle_beta 90.000000
_cell_angle_gamma 120.000000
_cell_volume 5344.340844
_symmetry_space_group_name_H-M "P -3 1 M "
_symmetry_group_IT_number 162
_symmetry_cell_setting 'hexagonal'
loop_
_space_group_symop_operation_xyz
x,y,z
-y,x-y,z
-x+y,-x,z
-y,-x,-z
-x+y,y,-z
x,x-y,-z
-x,-y,-z
y,-x+y,-z
x-y,x,-z
y,x,z
x-y,-y,z
-x,-x+y,z
loop_
_atom_site_type_symbol
_atom_site_label
_atom_site_fract_x
_atom_site_fract_y
_atom_site_fract_z
Si Si1 0.295451 0.148348 0.873346
Si Si2 0.080541 0.161082 0.500000
Si Si3 0.693499 0.615448 0.125866
Si Si4 0.922050 0.616704 0.127999
Si Si5 0.531051 0.196753 0.126961
Si Si6 0.917800 0.836233 0.269498
Si Si7 0.530186 0.197230 0.872359
O O1 0.338428 0.227752 0.833979
O O2 0.334419 0.107888 0.832787
O O3 0.220125 0.114266 0.822679
O O4 0.286653 0.143326 0.000000
O O5 0.110916 0.110916 0.487696
O O6 0.104929 0.202724 0.613047
O O7 0.646257 0.646257 0.171999
O O8 0.663714 0.536885 0.168015
O O9 0.692462 0.616165 0.998901
O O10 0.871652 0.538403 0.170131
O O11 0.000000 0.646248 0.174144
O O12 0.598745 0.196533 0.172351
O O13 0.530282 0.264620 0.170991
O O14 0.531480 0.198497 0.999649
O O15 0.889467 0.889467 0.256879
O O16 0.000000 0.878527 0.253596
#
# Coordination Sequence:
#
# PCOD8322948 Si02
#       7
#    12   6  12  12  12  12  12
#     4  10  18  29  41  55  78 108 140 168 199 238
#     4   8  15  28  44  60  76  96 126 166 214 258
#     4   9  16  25  36  49  68  96 129 162 193 231
#     4   9  16  25  36  49  68  96 129 162 193 231
#     4   9  15  23  34  48  66  90 124 163 198 230
#     4  10  19  30  44  60  78 102 134 174 214 249
#     4   9  15  23  34  48  66  90 124 163 198 230
#
# _framework density 14.594877
#
# number of rings (size 3 to 8) (size 9 to 14) (size 15 to 20)
#    0.000    2.769    1.538    1.462    0.000    4.923 
#    0.000    3.077    0.000    0.923    0.000    0.000 
#    0.000    0.000    0.000    1.385    0.000   16.462 
#
# Total GULP energy -966579.776415 kJ/mol
# GULP energy per Si atom -12392.048416 kJ/mol
# Density = 1.456166 g / cm^3
# Si number density = 14.594877 Si / 1000 Ang^3
#
#
#
# Elastic Constant Matrix: (Units=GPa)
#
#
# Indices 1 2 3 4 5 6 
#
# 1 121.7571 57.9267 13.4726 0.0000 -0.0244 0.0000
# 2 57.9267 121.7571 13.4726 0.0000 0.0244 0.0000
# 3 13.4726 13.4726 16.2192 0.0000 0.0000 0.0000
# 4 0.0000 0.0000 0.0000 3.8571 0.0000 0.0244
# 5 -0.0244 0.0244 0.0000 0.0000 3.8571 0.0000
# 6 0.0000 0.0000 0.0000 0.0244 0.0000 31.9152
#
#
#
# Elastic Compliance Matrix: (Units=1/GPa)
#
#
# Indices 1 2 3 4 5 6 
#
# 1 0.011012 -0.004655 -0.005281 0.000000 0.000099 0.000000
# 2 -0.004655 0.011012 -0.005281 0.000000 -0.000099 0.000000
# 3 -0.005281 -0.005281 0.070428 0.000000 0.000000 0.000000
# 4 0.000000 0.000000 0.000000 0.259260 0.000000 -0.000198
# 5 0.000099 -0.000099 0.000000 0.000000 0.259260 0.000000
# 6 0.000000 0.000000 0.000000 -0.000198 0.000000 0.031333
#
#
# Mechanical properties :
#
#
# Convention : Reuss Voigt Hill
#
# Bulk Modulus (GPa) = 16.12383 47.71968 31.92176
# Shear Modulus (GPa) = 7.21073 19.58334 13.39704
#
# Velocity S-wave (km/s) = 2.22516 3.66703 3.03302
# Velocity P-wave (km/s) = 4.20397 7.12016 5.84679
#
# Compressibility (1/GPa) = 0.06202001
#
# Stress axis : x y z
#
# Youngs Moduli (GPa) = 90.81086 90.81086 14.19884
#
# Poissons Ratio (x) = 0.42270 0.07498
# Poissons Ratio (y) = 0.42270 0.07498
# Poissons Ratio (z) = 0.47954 0.47954
#
# Static dielectric constant tensor:
#      x y z
#    x 3.018630 0.000000 0.000000 
#    y 0.000000 3.018630 0.000000 
#    z 0.000000 0.000000 2.358020 
# 
# 
# High freq. dielectric constant tensor:
#      x y z
#    x 1.567960 0.000000 0.000000 
#    y 0.000000 1.567960 0.000000 
#    z 0.000000 0.000000 1.474090 
# 
# From -- ./inp_files/3269.got.cif
#   From: 2010.03.12/outbox.cif.g09.slc.cpg/sg162_2_cif.got.tgz:3269.got - 2010.04.02 06:27:41.
