data_PCOD8322157
_publ_section_title
;
Structure prediction by ZEFSAII (Michael W. Deem and Ramdas Pophale) SiO2 
 PCOD8322157
Probable space group: P 31 2 1
;
_chemical_formula_sum "Si O2"
_cell_formula_units_Z 42
_cell_length_a 8.616912
_cell_length_b 8.616912
_cell_length_c 29.236166
_cell_angle_alpha 90.000000
_cell_angle_beta 90.000000
_cell_angle_gamma 120.000000
_cell_volume 1879.984923
_symmetry_space_group_name_H-M "P 31 2 1"
_symmetry_group_IT_number 152
_symmetry_cell_setting 'hexagonal'
loop_
_space_group_symop_operation_xyz
x,y,z
-y,x-y,1/3+z
-x+y,-x,2/3+z
x-y,-y,2/3-z
-x,-x+y,1/3-z
y,x,-z
loop_
_atom_site_type_symbol
_atom_site_label
_atom_site_fract_x
_atom_site_fract_y
_atom_site_fract_z
Si Si1 0.727906 0.872308 0.872060
Si Si2 0.231733 0.174110 0.810189
Si Si3 0.701369 0.878254 0.712036
Si Si4 0.560376 0.751955 0.294894
Si Si5 0.663067 0.991089 0.618379
Si Si6 0.278158 0.645425 0.718541
Si Si7 0.441824 0.469815 0.882440
O O1 0.575763 0.667913 0.863626
O O2 0.917681 0.888176 0.867219
O O3 0.713201 0.000000 0.833334
O O4 0.728133 0.947380 0.922466
O O5 0.331100 0.224378 0.761419
O O6 0.318444 0.351838 0.841081
O O7 0.229607 0.000000 0.833334
O O8 0.803866 0.764437 0.717084
O O9 0.490132 0.771393 0.723710
O O10 0.746614 0.935830 0.659540
O O11 0.456956 0.540729 0.296623
O O12 0.514143 0.808559 0.344006
O O13 0.494598 0.828499 0.254760
O O14 0.767486 0.207023 0.618688
O O15 0.173958 0.641168 0.764643
#
# Coordination Sequence:
#
# PCOD8322157 Si02
#       7
#     6   6   6   6   6   6   6
#     4  11  25  45  69  98 131 180 233 275 357 422
#     4  11  26  44  66  97 136 180 230 285 346 417
#     4  10  23  44  72  96 137 181 226 285 342 421
#     4  10  22  40  70 101 138 171 227 281 351 400
#     4  10  22  43  69  94 137 181 225 278 341 410
#     4  10  22  43  67 100 131 179 229 280 338 417
#     4  12  25  43  70  98 138 177 224 292 343 413
#
# _framework density 22.340605
#
# number of rings (size 3 to 8) (size 9 to 14) (size 15 to 20)
#    0.000    1.429    1.429    3.000    8.000    1.714 
#    2.571    0.000    0.000    0.000    0.000    0.000 
#    0.000    0.000    0.000    0.000    0.000    0.000 
#
# Total GULP energy -520572.127904 kJ/mol
# GULP energy per Si atom -12394.574474 kJ/mol
# Density = 2.228976 g / cm^3
# Si number density = 22.340605 Si / 1000 Ang^3
#
#
#
# Elastic Constant Matrix: (Units=GPa)
#
#
# Indices 1 2 3 4 5 6 
#
# 1 59.8604 2.5178 24.5493 4.5665 -0.0001 0.0000
# 2 2.5178 59.8604 24.5493 -4.5665 0.0001 0.0000
# 3 24.5493 24.5493 135.6933 0.0000 0.0000 0.0000
# 4 4.5665 -4.5665 0.0000 30.7715 0.0000 0.0001
# 5 -0.0001 0.0001 0.0000 0.0000 30.7715 4.5665
# 6 0.0000 0.0000 0.0000 0.0001 4.5665 28.6713
#
#
#
# Elastic Compliance Matrix: (Units=1/GPa)
#
#
# Indices 1 2 3 4 5 6 
#
# 1 0.018277 0.000416 -0.003382 -0.002651 0.000000 0.000000
# 2 0.000416 0.018277 -0.003382 0.002651 0.000000 0.000000
# 3 -0.003382 -0.003382 0.008593 0.000000 0.000000 0.000000
# 4 -0.002651 0.002651 0.000000 0.033284 0.000000 0.000000
# 5 0.000000 0.000000 0.000000 0.000000 0.033284 -0.005301
# 6 0.000000 0.000000 0.000000 0.000000 -0.005301 0.035722
#
#
# Mechanical properties :
#
#
# Convention : Reuss Voigt Hill
#
# Bulk Modulus (GPa) = 30.81480 39.84968 35.33224
# Shear Modulus (GPa) = 29.24801 31.62938 30.43869
#
# Velocity S-wave (km/s) = 3.62219 3.76677 3.69519
# Velocity P-wave (km/s) = 5.59614 6.06581 5.83571
#
# Compressibility (1/GPa) = 0.03245193
#
# Stress axis : x y z
#
# Youngs Moduli (GPa) = 54.71292 54.71292 116.37024
#
# Poissons Ratio (x) = -0.02276 0.39356
# Poissons Ratio (y) = -0.02276 0.39356
# Poissons Ratio (z) = 0.18504 0.18504
#
# Static dielectric constant tensor:
#      x y z
#    x 4.245800 0.000000 0.000000 
#    y 0.000000 4.245800 0.000000 
#    z 0.000000 0.000000 4.354580 
# 
# 
# High freq. dielectric constant tensor:
#      x y z
#    x 1.879100 0.000000 0.000000 
#    y 0.000000 1.879100 0.000000 
#    z 0.000000 0.000000 1.887520 
# 
# From -- ./inp_files/3740.got.cif
#   From: 2010.03.12/outbox.cif.g09.slc.cpg/sg152_2_cif.got.tgz:3740.got - 2010.04.03 13:45:27.
