data_PCOD8322062
_publ_section_title
;
Structure prediction by ZEFSAII (Michael W. Deem and Ramdas Pophale) SiO2 
 PCOD8322062
Probable space group: P 31 2 1
;
_chemical_formula_sum "Si O2"
_cell_formula_units_Z 36
_cell_length_a 8.771148
_cell_length_b 8.771148
_cell_length_c 27.022711
_cell_angle_alpha 90.000000
_cell_angle_beta 90.000000
_cell_angle_gamma 120.000000
_cell_volume 1800.414188
_symmetry_space_group_name_H-M "P 31 2 1"
_symmetry_group_IT_number 152
_symmetry_cell_setting 'hexagonal'
loop_
_space_group_symop_operation_xyz
x,y,z
-y,x-y,1/3+z
-x+y,-x,2/3+z
x-y,-y,2/3-z
-x,-x+y,1/3-z
y,x,-z
loop_
_atom_site_type_symbol
_atom_site_label
_atom_site_fract_x
_atom_site_fract_y
_atom_site_fract_z
Si Si1 0.424267 0.986732 0.560863
Si Si2 0.084443 0.854151 0.056364
Si Si3 0.021584 0.325493 0.609756
Si Si4 0.243258 0.296837 0.277846
Si Si5 0.629286 0.071452 0.461809
Si Si6 0.061553 0.145467 0.114131
O O1 0.513032 0.929807 0.604348
O O2 0.250282 0.813477 0.543616
O O3 0.386654 0.140253 0.580402
O O4 0.557010 0.072753 0.515708
O O5 0.887882 0.692871 0.068052
O O6 0.087077 0.033814 0.070546
O O7 0.114021 0.841023 0.998411
O O8 0.000000 0.361486 0.666667
O O9 0.045614 0.490033 0.579464
O O10 0.848029 0.144909 0.595222
O O11 0.090962 0.273874 0.239176
O O12 0.670581 0.912290 0.455545
O O13 0.000000 0.040863 0.166667
#
# Coordination Sequence:
#
# PCOD8322062 Si02
#       6
#     6   6   6   6   6   6
#     4  11  23  39  59  88 123 159 202 253 305 365
#     4   9  22  37  63  87 119 164 200 242 309 374
#     4   9  20  39  62  88 117 157 201 247 302 369
#     4  10  20  41  62  87 122 154 202 252 303 367
#     4  11  23  37  60  90 120 157 201 253 304 364
#     4  10  19  37  63  89 116 159 206 248 297 370
#
# _framework density 19.995398999999999
#
# number of rings (size 3 to 8) (size 9 to 14) (size 15 to 20)
#    0.000    2.000    1.667    2.500    7.000    5.333 
#    0.000    6.667    0.000    0.000    0.000    0.000 
#    0.000    0.000    0.000    0.000    0.000    0.000 
#
# Total GULP energy -446110.767946 kJ/mol
# GULP energy per Si atom -12391.965776 kJ/mol
# Density = 1.994989 g / cm^3
# Si number density = 19.995399 Si / 1000 Ang^3
#
#
#
# Elastic Constant Matrix: (Units=GPa)
#
#
# Indices 1 2 3 4 5 6 
#
# 1 101.1456 40.2789 57.1552 4.9299 -0.0002 0.0000
# 2 40.2789 101.1456 57.1552 -4.9299 0.0002 0.0000
# 3 57.1552 57.1552 120.2268 0.0000 0.0000 0.0000
# 4 4.9299 -4.9299 0.0000 33.2319 0.0000 0.0002
# 5 -0.0002 0.0002 0.0000 0.0000 33.2319 4.9299
# 6 0.0000 0.0000 0.0000 0.0002 4.9299 30.4334
#
#
#
# Elastic Compliance Matrix: (Units=1/GPa)
#
#
# Indices 1 2 3 4 5 6 
#
# 1 0.014159 -0.002675 -0.005459 -0.002497 0.000000 0.000000
# 2 -0.002675 0.014159 -0.005459 0.002497 0.000000 0.000000
# 3 -0.005459 -0.005459 0.013508 0.000000 0.000000 0.000000
# 4 -0.002497 0.002497 0.000000 0.030833 0.000000 0.000000
# 5 0.000000 0.000000 0.000000 0.000000 0.030833 -0.004995
# 6 0.000000 0.000000 0.000000 0.000000 -0.004995 0.033668
#
#
# Mechanical properties :
#
#
# Convention : Reuss Voigt Hill
#
# Bulk Modulus (GPa) = 68.31374 70.18850 69.25112
# Shear Modulus (GPa) = 29.54650 30.57468 30.06059
#
# Velocity S-wave (km/s) = 3.84821 3.91460 3.88155
# Velocity P-wave (km/s) = 7.34737 7.45725 7.40252
#
# Compressibility (1/GPa) = 0.01463834
#
# Stress axis : x y z
#
# Youngs Moduli (GPa) = 70.62820 70.62820 74.02956
#
# Poissons Ratio (x) = 0.18895 0.40414
# Poissons Ratio (y) = 0.18895 0.40414
# Poissons Ratio (z) = 0.38557 0.38557
#
# Static dielectric constant tensor:
#      x y z
#    x 3.740130 0.000000 0.000000 
#    y 0.000000 3.740130 0.000000 
#    z 0.000000 0.000000 3.729160 
# 
# 
# High freq. dielectric constant tensor:
#      x y z
#    x 1.766690 0.000000 0.000000 
#    y 0.000000 1.766690 0.000000 
#    z 0.000000 0.000000 1.792990 
# 
# From -- ./inp_files/3569.got.cif
#   From: 2010.03.12/outbox.cif.g09.slc.cpg/sg152_2_cif.got.tgz:3569.got - 2010.04.03 13:45:27.
