data_PCOD8322640
_publ_section_title
;
Structure prediction by ZEFSAII (Michael W. Deem and Ramdas Pophale) SiO2 
 PCOD8322640
Probable space group: P 3 M 1
;
_chemical_formula_sum "Si O2"
_cell_formula_units_Z 42
_cell_length_a 23.568735
_cell_length_b 23.568735
_cell_length_c 5.170372
_cell_angle_alpha 90.000000
_cell_angle_beta 90.000000
_cell_angle_gamma 120.000000
_cell_volume 2487.281670
_symmetry_space_group_name_H-M "P 3 M 1"
_symmetry_group_IT_number 156
_symmetry_cell_setting 'hexagonal'
loop_
_space_group_symop_operation_xyz
x,y,z
-y,x-y,z
-x+y,-x,z
-x+y,y,z
x,x-y,z
-y,-x,z
loop_
_atom_site_type_symbol
_atom_site_label
_atom_site_fract_x
_atom_site_fract_y
_atom_site_fract_z
Si Si1 0.224308 0.980432 0.974280
Si Si2 0.682379 0.620253 0.976452
Si Si3 0.368148 0.500376 0.423904
Si Si4 0.410001 0.460407 0.928265
Si Si5 0.218602 0.781399 0.480478
Si Si6 0.172580 0.827421 0.980919
Si Si7 0.953431 0.777780 0.474378
Si Si8 0.747523 0.125856 0.476266
O O1 0.203769 0.905019 0.970894
O O2 0.196364 0.999941 0.725611
O O3 0.302012 0.019498 0.973612
O O4 0.196382 0.999356 0.224592
O O5 0.698742 0.594106 0.235029
O O6 0.605541 0.589006 0.962781
O O7 0.705841 0.594452 0.736032
O O8 0.421781 0.578220 0.430366
O O9 0.383850 0.462367 0.644538
O O10 0.296017 0.487742 0.474588
O O11 0.365822 0.468369 0.146742
O O12 0.483960 0.516041 0.969503
O O13 0.197344 0.802657 0.740856
O O14 0.193346 0.806655 0.243567
O O15 0.902710 0.805419 0.473081
O O16 0.912457 0.699845 0.473951
O O17 0.796875 0.203126 0.459066
#
# Coordination Sequence:
#
# PCOD8322640 Si02
#       8
#     6   6   6   6   3   3   6   6
#     4  10  19  30  45  69  98 124 156 191 235 288
#     4  10  17  28  46  65  90 129 158 183 227 279
#     4  10  21  36  52  71  92 123 168 219 260 312
#     4  10  20  34  51  70  96 125 167 207 243 295
#     4  12  22  36  54  72  98 134 166 206 282 330
#     4  12  24  34  50  76 108 132 156 208 260 322
#     4   9  17  30  47  66  92 121 156 184 216 271
#     4   9  17  27  42  66  94 121 148 182 213 262
#
# _framework density 16.885905000000001
#
# number of rings (size 3 to 8) (size 9 to 14) (size 15 to 20)
#    0.000    2.000    0.000    5.143    0.000    5.714 
#    0.429    0.000    0.000    0.000    0.000    0.000 
#   14.286    0.000    0.000    8.571    0.000    0.000 
#
# Total GULP energy -520808.397685 kJ/mol
# GULP energy per Si atom -12400.199945 kJ/mol
# Density = 1.684747 g / cm^3
# Si number density = 16.885905 Si / 1000 Ang^3
#
#
#
# Elastic Constant Matrix: (Units=GPa)
#
#
# Indices 1 2 3 4 5 6 
#
# 1 58.0407 12.4552 1.3523 1.6341 -0.0114 0.0000
# 2 12.4552 58.0407 1.3523 -1.6341 0.0114 0.0000
# 3 1.3523 1.3523 84.4915 0.0000 0.0000 0.0000
# 4 1.6341 -1.6341 0.0000 0.9217 0.0000 0.0114
# 5 -0.0114 0.0114 0.0000 0.0000 0.9217 1.6341
# 6 0.0000 0.0000 0.0000 0.0114 1.6341 22.7927
#
#
#
# Elastic Compliance Matrix: (Units=1/GPa)
#
#
# Indices 1 2 3 4 5 6 
#
# 1 0.019663 -0.005469 -0.000227 -0.044553 0.000311 0.000000
# 2 -0.005469 0.019663 -0.000227 0.044553 -0.000311 0.000000
# 3 -0.000227 -0.000227 0.011843 0.000000 0.000000 0.000000
# 4 -0.044553 0.044553 0.000000 1.242887 -0.000001 -0.000623
# 5 0.000311 -0.000311 0.000000 -0.000001 1.242889 -0.089107
# 6 0.000000 0.000000 0.000000 -0.000623 -0.089107 0.050262
#
#
# Mechanical properties :
#
#
# Convention : Reuss Voigt Hill
#
# Bulk Modulus (GPa) = 25.43109 25.65473 25.54291
# Shear Modulus (GPa) = 1.91413 17.28812 9.60112
#
# Velocity S-wave (km/s) = 1.06584 3.20319 2.38709
# Velocity P-wave (km/s) = 4.07528 5.37648 4.77045
#
# Compressibility (1/GPa) = 0.03932194
#
# Stress axis : x y z
#
# Youngs Moduli (GPa) = 50.85816 50.85816 84.43961
#
# Poissons Ratio (x) = 0.27812 0.01918
# Poissons Ratio (y) = 0.27812 0.01918
# Poissons Ratio (z) = 0.01155 0.01155
#
# Static dielectric constant tensor:
#      x y z
#    x 3.178000 0.000000 0.000000 
#    y 0.000000 3.178000 0.000000 
#    z 0.000000 0.000000 3.691910 
# 
# 
# High freq. dielectric constant tensor:
#      x y z
#    x 1.626410 0.000000 0.000000 
#    y 0.000000 1.626410 0.000000 
#    z 0.000000 0.000000 1.678650 
# 
# From -- ./inp_files/206.got.cif
#   From: 2010.03.12/outbox.cif.g09.slc.cpg/sg156_cif.got.tgz:206.got - 2010.04.03 13:58:47.
