data_PCOD8322943
_publ_section_title
;
Structure prediction by ZEFSAII (Michael W. Deem and Ramdas Pophale) SiO2 
 PCOD8322943
Probable space group: P -3 1 M 
;
_chemical_formula_sum "Si O2"
_cell_formula_units_Z 60
_cell_length_a 29.961866
_cell_length_b 29.961866
_cell_length_c 5.006589
_cell_angle_alpha 90.000000
_cell_angle_beta 90.000000
_cell_angle_gamma 120.000000
_cell_volume 3892.335680
_symmetry_space_group_name_H-M "P -3 1 M "
_symmetry_group_IT_number 162
_symmetry_cell_setting 'hexagonal'
loop_
_space_group_symop_operation_xyz
x,y,z
-y,x-y,z
-x+y,-x,z
-y,-x,-z
-x+y,y,-z
x,x-y,-z
-x,-y,-z
y,-x+y,-z
x-y,x,-z
y,x,z
x-y,-y,z
-x,-x+y,z
loop_
_atom_site_type_symbol
_atom_site_label
_atom_site_fract_x
_atom_site_fract_y
_atom_site_fract_z
Si Si1 0.056820 0.498648 0.754498
Si Si2 0.727182 0.549798 0.044759
Si Si3 0.671900 0.552400 0.533264
Si Si4 0.669343 0.939430 0.448688
Si Si5 0.333525 0.214233 0.926132
O O1 0.048683 0.524342 0.500000
O O2 0.095528 0.479529 0.665074
O O3 0.000000 0.451254 0.840227
O O4 0.079480 0.539740 0.000000
O O5 0.680113 0.526147 0.263060
O O6 0.760213 0.520426 0.000000
O O7 0.710002 0.551893 0.749057
O O8 0.765873 0.607202 0.152059
O O9 0.685706 0.610999 0.474054
O O10 0.671944 0.919252 0.158963
O O11 0.704883 0.000000 0.453147
O O12 0.691762 0.915049 0.662510
O O13 0.306871 0.153436 0.000000
#
# Coordination Sequence:
#
# PCOD8322943 Si02
#       5
#    12  12  12  12  12
#     4  10  20  32  44  59  82 114 150 179 203 239
#     4   9  17  28  43  62  81 103 131 163 204 255
#     4  10  18  29  44  60  82 110 136 169 211 248
#     4  10  18  27  41  60  79 101 137 179 211 239
#     4   9  17  28  40  55  78 106 132 162 209 255
#
# _framework density 15.414909
#
# number of rings (size 3 to 8) (size 9 to 14) (size 15 to 20)
#    0.000    2.400    0.000    3.600    0.000    4.800 
#    0.000    6.000    0.000    0.000    0.000    0.000 
#    0.000    0.000    0.000   50.400    0.000    0.000 
#
# Total GULP energy -743370.845456 kJ/mol
# GULP energy per Si atom -12389.514091 kJ/mol
# Density = 1.537982 g / cm^3
# Si number density = 15.414909 Si / 1000 Ang^3
#
#
#
# Elastic Constant Matrix: (Units=GPa)
#
#
# Indices 1 2 3 4 5 6 
#
# 1 61.8689 31.2106 16.3346 0.0000 -2.6238 0.0000
# 2 31.2106 61.8689 16.3346 0.0000 2.6238 0.0000
# 3 16.3346 16.3346 84.4285 0.0000 0.0000 0.0000
# 4 0.0000 0.0000 0.0000 21.8387 0.0000 2.6238
# 5 -2.6238 2.6238 0.0000 0.0000 21.8387 0.0000
# 6 0.0000 0.0000 0.0000 2.6238 0.0000 15.3291
#
#
#
# Elastic Compliance Matrix: (Units=1/GPa)
#
#
# Indices 1 2 3 4 5 6 
#
# 1 0.022414 -0.010888 -0.002230 0.000000 0.004001 0.000000
# 2 -0.010888 0.022414 -0.002230 0.000000 -0.004001 0.000000
# 3 -0.002230 -0.002230 0.012707 0.000000 0.000000 0.000000
# 4 0.000000 0.000000 0.000000 0.046752 0.000000 -0.008002
# 5 0.004001 -0.004001 0.000000 0.000000 0.046752 0.000000
# 6 0.000000 0.000000 0.000000 -0.008002 0.000000 0.066605
#
#
# Mechanical properties :
#
#
# Convention : Reuss Voigt Hill
#
# Bulk Modulus (GPa) = 37.25836 37.32509 37.29173
# Shear Modulus (GPa) = 19.43356 21.42042 20.42699
#
# Velocity S-wave (km/s) = 3.55448 3.73177 3.64420
# Velocity P-wave (km/s) = 6.40848 6.54479 6.47699
#
# Compressibility (1/GPa) = 0.02683961
#
# Stress axis : x y z
#
# Youngs Moduli (GPa) = 44.61431 44.61431 78.69532
#
# Poissons Ratio (x) = 0.48577 0.17549
# Poissons Ratio (y) = 0.48577 0.17549
# Poissons Ratio (z) = 0.09949 0.09949
#
# Static dielectric constant tensor:
#      x y z
#    x 2.762810 0.000000 0.000000 
#    y 0.000000 2.762810 0.000000 
#    z 0.000000 0.000000 3.204850 
# 
# 
# High freq. dielectric constant tensor:
#      x y z
#    x 1.554210 0.000000 0.000000 
#    y 0.000000 1.554210 0.000000 
#    z 0.000000 0.000000 1.619560 
# 
# From -- ./inp_files/669.got.cif
#   From: 2010.03.12/outbox.cif.g09.slc.cpg/sg162_1_cif.got.tgz:669.got - 2010.04.02 06:27:41.
