data_PCOD8322757
_publ_section_title
;
Structure prediction by ZEFSAII (Michael W. Deem and Ramdas Pophale) SiO2 
 PCOD8322757
Probable space group: P 3 C 1
;
_chemical_formula_sum "Si O2"
_cell_formula_units_Z 30
_cell_length_a 8.562593
_cell_length_b 8.562593
_cell_length_c 24.038847
_cell_angle_alpha 90.000000
_cell_angle_beta 90.000000
_cell_angle_gamma 120.000000
_cell_volume 1526.352590
_symmetry_space_group_name_H-M "P 3 C 1"
_symmetry_group_IT_number 158
_symmetry_cell_setting 'hexagonal'
loop_
_space_group_symop_operation_xyz
x,y,z
-y,x-y,z
-x+y,-x,z
-x+y,y,1/2+z
x,x-y,1/2+z
-y,-x,1/2+z
loop_
_atom_site_type_symbol
_atom_site_label
_atom_site_fract_x
_atom_site_fract_y
_atom_site_fract_z
Si Si1 0.997321 0.668366 0.901870
Si Si2 0.662904 0.996697 0.357255
Si Si3 0.860919 0.321401 0.619278
Si Si4 0.995722 0.796845 0.020683
Si Si5 0.665785 0.133028 0.242458
O O1 0.864469 0.732394 0.877489
O O2 0.935743 0.465242 0.884310
O O3 0.195530 0.796390 0.877144
O O4 0.997103 0.681647 0.968457
O O5 0.658336 0.998115 0.289998
O O6 0.848257 0.503937 0.612159
O O7 0.940021 0.325625 0.681066
O O8 0.992771 0.306358 0.575154
O O9 0.820422 0.824813 0.020024
O O10 0.843107 0.332594 0.248986
#
# Coordination Sequence:
#
# PCOD8322757 Si02
#       5
#     6   6   6   6   6
#     4  12  24  39  61  90 121 168 205 258 309 378
#     4  12  22  41  61  89 123 164 207 255 322 358
#     4   8  18  34  62  85 107 158 210 238 293 368
#     4  10  21  38  52  84 130 149 198 255 299 356
#     4   8  15  36  60  86 117 153 202 250 295 368
#
# _framework density 19.654696999999999
#
# number of rings (size 3 to 8) (size 9 to 14) (size 15 to 20)
#    1.200    0.800    4.000    1.200    2.800    0.000 
#    3.600    0.000    0.000    0.800    0.000    0.000 
#    0.000    0.000    0.000    0.000    0.000    0.000 
#
# Total GULP energy -371768.678109 kJ/mol
# GULP energy per Si atom -12392.289270 kJ/mol
# Density = 1.960996 g / cm^3
# Si number density = 19.654697 Si / 1000 Ang^3
#
#
#
# Elastic Constant Matrix: (Units=GPa)
#
#
# Indices 1 2 3 4 5 6 
#
# 1 51.8186 11.4652 40.1855 1.5122 0.0000 0.0000
# 2 11.4652 51.8186 40.1855 -1.5122 0.0000 0.0000
# 3 40.1855 40.1855 200.9241 0.0000 0.0000 0.0000
# 4 1.5122 -1.5122 0.0000 28.2663 0.0000 0.0000
# 5 0.0000 0.0000 0.0000 0.0000 28.2663 1.5122
# 6 0.0000 0.0000 0.0000 0.0000 1.5122 20.1767
#
#
#
# Elastic Compliance Matrix: (Units=1/GPa)
#
#
# Indices 1 2 3 4 5 6 
#
# 1 0.023032 -0.001849 -0.004237 -0.001331 0.000000 0.000000
# 2 -0.001849 0.023032 -0.004237 0.001331 0.000000 0.000000
# 3 -0.004237 -0.004237 0.006672 0.000000 0.000000 0.000000
# 4 -0.001331 0.001331 0.000000 0.035520 0.000000 0.000000
# 5 0.000000 0.000000 0.000000 0.000000 0.035520 -0.002662
# 6 0.000000 0.000000 0.000000 0.000000 -0.002662 0.049762
#
#
# Mechanical properties :
#
#
# Convention : Reuss Voigt Hill
#
# Bulk Modulus (GPa) = 31.16233 54.24818 42.70525
# Shear Modulus (GPa) = 24.40475 29.52354 26.96415
#
# Velocity S-wave (km/s) = 3.52756 3.87991 3.70793
# Velocity P-wave (km/s) = 5.69920 6.90885 6.33297
#
# Compressibility (1/GPa) = 0.03209003
#
# Stress axis : x y z
#
# Youngs Moduli (GPa) = 43.41876 43.41876 149.88829
#
# Poissons Ratio (x) = 0.08029 0.63500
# Poissons Ratio (y) = 0.08029 0.63500
# Poissons Ratio (z) = 0.18394 0.18394
#
# Static dielectric constant tensor:
#      x y z
#    x 3.157940 0.000000 0.000000 
#    y 0.000000 3.157940 0.000000 
#    z 0.000000 0.000000 3.570320 
# 
# 
# High freq. dielectric constant tensor:
#      x y z
#    x 1.733780 0.000000 0.000000 
#    y 0.000000 1.733780 0.000000 
#    z 0.000000 0.000000 1.780910 
# 
# From -- ./inp_files/728.got.cif
#   From: 2010.03.12/outbox.cif.g09.slc.cpg/sg158_cif.got.tgz:728.got - 2010.04.03 13:59:47.
