data_PCOD8322206
_publ_section_title
;
Structure prediction by ZEFSAII (Michael W. Deem and Ramdas Pophale) SiO2 
 PCOD8322206
Probable space group: P 31 2 1
;
_chemical_formula_sum "Si O2"
_cell_formula_units_Z 24
_cell_length_a 15.195169
_cell_length_b 15.195169
_cell_length_c 5.019074
_cell_angle_alpha 90.000000
_cell_angle_beta 90.000000
_cell_angle_gamma 120.000000
_cell_volume 1003.610739
_symmetry_space_group_name_H-M "P 31 2 1"
_symmetry_group_IT_number 152
_symmetry_cell_setting 'hexagonal'
loop_
_space_group_symop_operation_xyz
x,y,z
-y,x-y,1/3+z
-x+y,-x,2/3+z
x-y,-y,2/3-z
-x,-x+y,1/3-z
y,x,-z
loop_
_atom_site_type_symbol
_atom_site_label
_atom_site_fract_x
_atom_site_fract_y
_atom_site_fract_z
Si Si1 0.935868 0.421689 0.913736
Si Si2 0.347157 0.230472 0.937487
Si Si3 0.305931 0.102351 0.453518
Si Si4 0.764767 0.425693 0.642612
O O1 0.925071 0.311592 0.909090
O O2 0.826352 0.414556 0.893973
O O3 0.000000 0.489100 0.666667
O O4 0.000000 0.484739 0.166667
O O5 0.351697 0.179676 0.211684
O O6 0.463773 0.290402 0.837735
O O7 0.306169 0.306169 0.000000
O O8 0.277604 0.151579 0.703888
O O9 0.209136 0.000000 0.333334
O O10 0.749921 0.343195 0.418723
#
# Coordination Sequence:
#
# PCOD8322206 Si02
#       4
#     6   6   6   6
#     4  11  24  43  69 100 140 191 251 302 354 433
#     4  12  26  46  72 111 152 192 248 316 376 435
#     4  11  23  47  75 103 138 190 250 304 372 448
#     4  12  27  44  69 105 158 204 254 297 362 445
#
# _framework density 23.913654000000001
#
# number of rings (size 3 to 8) (size 9 to 14) (size 15 to 20)
#    0.000    0.500    2.500    6.750    3.500    2.000 
#    0.000    0.000    0.000    7.500    0.000    0.000 
#    0.000    0.000    0.000    0.000    0.000    0.000 
#
# Total GULP energy -297654.239843 kJ/mol
# GULP energy per Si atom -12402.259993 kJ/mol
# Density = 2.385923 g / cm^3
# Si number density = 23.913654 Si / 1000 Ang^3
#
#
#
# Elastic Constant Matrix: (Units=GPa)
#
#
# Indices 1 2 3 4 5 6 
#
# 1 104.4338 59.0665 37.5287 -9.7366 -0.0001 0.0000
# 2 59.0665 104.4338 37.5287 9.7366 0.0001 0.0000
# 3 37.5287 37.5287 140.9177 0.0000 0.0000 0.0000
# 4 -9.7366 9.7366 0.0000 16.3385 0.0000 0.0001
# 5 -0.0001 0.0001 0.0000 0.0000 16.3385 -9.7366
# 6 0.0000 0.0000 0.0000 0.0001 -9.7366 22.6837
#
#
#
# Elastic Compliance Matrix: (Units=1/GPa)
#
#
# Indices 1 2 3 4 5 6 
#
# 1 0.018293 -0.011325 -0.001856 0.017651 0.000000 0.000000
# 2 -0.011325 0.018293 -0.001856 -0.017651 0.000000 0.000000
# 3 -0.001856 -0.001856 0.008085 0.000000 0.000000 0.000000
# 4 0.017651 -0.017651 0.000000 0.082242 0.000000 0.000000
# 5 0.000000 0.000000 0.000000 0.000000 0.082242 0.035301
# 6 0.000000 0.000000 0.000000 0.000000 0.035301 0.059237
#
#
# Mechanical properties :
#
#
# Convention : Reuss Voigt Hill
#
# Bulk Modulus (GPa) = 68.50219 68.67034 68.58626
# Shear Modulus (GPa) = 16.48357 25.44958 20.96657
#
# Velocity S-wave (km/s) = 2.62829 3.26579 2.96423
# Velocity P-wave (km/s) = 6.15779 6.55735 6.36071
#
# Compressibility (1/GPa) = 0.01459807
#
# Stress axis : x y z
#
# Youngs Moduli (GPa) = 54.66473 54.66473 123.68960
#
# Poissons Ratio (x) = 0.61909 0.22953
# Poissons Ratio (y) = 0.61909 0.22953
# Poissons Ratio (z) = 0.10144 0.10144
#
# Static dielectric constant tensor:
#      x y z
#    x 4.491960 0.000000 0.000000 
#    y 0.000000 4.491960 0.000000 
#    z 0.000000 0.000000 4.117290 
# 
# 
# High freq. dielectric constant tensor:
#      x y z
#    x 1.936890 0.000000 0.000000 
#    y 0.000000 1.936890 0.000000 
#    z 0.000000 0.000000 1.959930 
# 
# From -- ./inp_files/163.got.cif
#   From: 2010.03.12/outbox.cif.g09.slc.cpg/sg152_1_cif.got.tgz:163.got - 2010.04.03 13:45:27.
