data_PCOD8322861
_publ_section_title
;
Structure prediction by ZEFSAII (Michael W. Deem and Ramdas Pophale) SiO2 
 PCOD8322861
Probable space group: R 3 M
;
_chemical_formula_sum "Si O2"
_cell_formula_units_Z 144
_cell_length_a 21.566996
_cell_length_b 21.566996
_cell_length_c 19.291973
_cell_angle_alpha 90.000000
_cell_angle_beta 90.000000
_cell_angle_gamma 120.000000
_cell_volume 7771.173277
_symmetry_space_group_name_H-M "R 3 M"
_symmetry_group_IT_number 160
_symmetry_cell_setting 'hexagonal'
loop_
_space_group_symop_operation_xyz
x,y,z
-y,x-y,z
-x+y,-x,z
-x+y,y,z
x,x-y,z
-y,-x,z
2/3+x,1/3+y,1/3+z
2/3-y,1/3+x-y,1/3+z
2/3-x+y,1/3-x,1/3+z
2/3-x+y,1/3+y,1/3+z
2/3+x,1/3+x-y,1/3+z
2/3-y,1/3-x,1/3+z
1/3+x,2/3+y,2/3+z
1/3-y,2/3+x-y,2/3+z
1/3-x+y,2/3-x,2/3+z
1/3-x+y,2/3+y,2/3+z
1/3+x,2/3+x-y,2/3+z
1/3-y,2/3-x,2/3+z
loop_
_atom_site_type_symbol
_atom_site_label
_atom_site_fract_x
_atom_site_fract_y
_atom_site_fract_z
Si Si1 0.435746 0.144803 0.856974
Si Si2 0.193719 0.946962 0.890061
Si Si3 0.578757 0.645485 0.976844
Si Si4 0.912228 0.385639 0.989859
Si Si5 0.137769 0.998393 0.391006
Si Si6 0.019508 0.358952 0.832855
Si Si7 0.741915 0.628610 0.366957
Si Si8 0.999745 0.137884 0.778947
O O1 0.410912 0.205456 0.859838
O O2 0.459723 0.134034 0.932779
O O3 0.499732 0.168584 0.802251
O O4 0.374120 0.066644 0.831885
O O5 0.136470 0.863531 0.890759
O O6 0.255990 0.950378 0.842147
O O7 0.163903 0.994625 0.855967
O O8 0.212688 0.971251 0.970726
O O9 0.604974 0.593938 0.010635
O O10 0.582980 0.633330 0.895041
O O11 0.501335 0.629289 0.002670
O O12 0.626912 0.727237 0.002020
O O13 0.922556 0.461278 0.963623
O O14 0.870615 0.361427 0.061132
O O15 0.157810 0.078905 0.371594
O O16 0.052171 0.947830 0.388971
O O17 0.051386 0.408298 0.765139
O O18 0.811351 0.622702 0.388849
O O19 0.946485 0.053516 0.783264
O O20 0.075941 0.151881 0.752046
#
# Coordination Sequence:
#
# PCOD8322861 Si02
#       8
#    18  18  18  18  18  18  18  18
#     4  10  21  34  53  81 113 144 181 222 267 326
#     4   9  20  37  54  76 106 139 176 221 274 327
#     4  10  20  33  52  80 107 135 181 228 272 317
#     4  10  20  34  53  77 108 144 181 225 272 321
#     4  11  22  36  53  76 110 151 191 229 271 325
#     4  10  20  34  56  82 106 138 179 220 274 325
#     4  10  19  34  55  76 105 142 177 220 278 333
#     4  10  20  34  54  76 104 139 179 223 272 330
#
# _framework density 18.530021000000001
#
# number of rings (size 3 to 8) (size 9 to 14) (size 15 to 20)
#    0.000    2.000    1.250    2.500    0.000    3.500 
#    0.000    0.625    0.000    4.000    0.000    0.000 
#    0.000    2.000    0.000    0.000    0.000    0.125 
#
# Total GULP energy -594812.532619 kJ/mol
# GULP energy per Si atom -12391.927763 kJ/mol
# Density = 1.848785 g / cm^3
# Si number density = 18.530021 Si / 1000 Ang^3
#
#
#
# Elastic Constant Matrix: (Units=GPa)
#
#
# Indices 1 2 3 4 5 6 
#
# 1 83.4375 36.9243 42.9609 2.6495 -0.0001 0.0000
# 2 36.9243 83.4375 42.9609 -2.6495 0.0001 0.0000
# 3 42.9609 42.9609 102.3878 0.0000 0.0000 0.0000
# 4 2.6495 -2.6495 0.0000 26.4656 0.0000 0.0001
# 5 -0.0001 0.0001 0.0000 0.0000 26.4656 2.6495
# 6 0.0000 0.0000 0.0000 0.0001 2.6495 23.2566
#
#
#
# Elastic Compliance Matrix: (Units=1/GPa)
#
#
# Indices 1 2 3 4 5 6 
#
# 1 0.016804 -0.004943 -0.004977 -0.002177 0.000000 0.000000
# 2 -0.004943 0.016804 -0.004977 0.002177 0.000000 0.000000
# 3 -0.004977 -0.004977 0.013943 0.000000 0.000000 0.000000
# 4 -0.002177 0.002177 0.000000 0.038221 0.000000 0.000000
# 5 0.000000 0.000000 0.000000 0.000000 0.038221 -0.004354
# 6 0.000000 0.000000 0.000000 0.000000 -0.004354 0.043495
#
#
# Mechanical properties :
#
#
# Convention : Reuss Voigt Hill
#
# Bulk Modulus (GPa) = 56.31213 57.21722 56.76467
# Shear Modulus (GPa) = 24.60625 24.99868 24.80247
#
# Velocity S-wave (km/s) = 3.64801 3.67698 3.66252
# Velocity P-wave (km/s) = 6.94259 6.99801 6.97035
#
# Compressibility (1/GPa) = 0.01775816
#
# Stress axis : x y z
#
# Youngs Moduli (GPa) = 59.50906 59.50906 71.71963
#
# Poissons Ratio (x) = 0.29416 0.35693
# Poissons Ratio (y) = 0.29416 0.35693
# Poissons Ratio (z) = 0.29616 0.29616
#
# Static dielectric constant tensor:
#      x y z
#    x 3.390010 0.000000 0.000000 
#    y 0.000000 3.390010 0.000000 
#    z 0.000000 0.000000 3.589430 
# 
# 
# High freq. dielectric constant tensor:
#      x y z
#    x 1.712130 0.000000 0.000000 
#    y 0.000000 1.712130 0.000000 
#    z 0.000000 0.000000 1.722590 
# 
# From -- ./inp_files/3472.got.cif
#   From: 2010.03.12/outbox.cif.g09.slc.cpg/sg160_2_cif.got.tgz:3472.got - 2010.04.02 06:26:15.
