data_PCOD8322703
_publ_section_title
;
Structure prediction by ZEFSAII (Michael W. Deem and Ramdas Pophale) SiO2 
 PCOD8322703
Probable space group: P 3 M 1
;
_chemical_formula_sum "Si O2"
_cell_formula_units_Z 48
_cell_length_a 12.326794
_cell_length_b 12.326794
_cell_length_c 20.376986
_cell_angle_alpha 90.000000
_cell_angle_beta 90.000000
_cell_angle_gamma 120.000000
_cell_volume 2681.457114
_symmetry_space_group_name_H-M "P 3 M 1"
_symmetry_group_IT_number 156
_symmetry_cell_setting 'hexagonal'
loop_
_space_group_symop_operation_xyz
x,y,z
-y,x-y,z
-x+y,-x,z
-x+y,y,z
x,x-y,z
-y,-x,z
loop_
_atom_site_type_symbol
_atom_site_label
_atom_site_fract_x
_atom_site_fract_y
_atom_site_fract_z
Si Si1 0.414378 0.333443 0.995520
Si Si2 0.001148 0.251846 0.494991
Si Si3 0.334395 0.918873 0.869816
Si Si4 0.998905 0.250774 0.120013
Si Si5 0.666678 0.081545 0.245528
Si Si6 0.585528 0.918755 0.370483
Si Si7 0.415241 0.334508 0.745337
Si Si8 0.333391 0.415060 0.620305
O O1 0.448122 0.224061 0.994694
O O2 0.539179 0.460822 0.012923
O O3 0.359288 0.338714 0.925360
O O4 0.311483 0.309821 0.050147
O O5 0.866927 0.133074 0.507449
O O6 0.104460 0.208919 0.497898
O O7 0.002251 0.310992 0.424914
O O8 0.026616 0.354206 0.550234
O O9 0.438393 0.876786 0.871963
O O10 0.200889 0.799112 0.882281
O O11 0.334349 0.978375 0.799983
O O12 0.895358 0.104643 0.122502
O O13 0.973768 0.327142 0.175630
O O14 0.132836 0.265671 0.132443
O O15 0.558118 0.116235 0.243098
O O16 0.794322 0.205679 0.263617
O O17 0.641274 0.978184 0.300181
O O18 0.461951 0.923901 0.387613
O O19 0.550205 0.775103 0.370342
O O20 0.401525 0.200763 0.756394
O O21 0.560715 0.439286 0.751669
O O22 0.360941 0.338118 0.674584
O O23 0.205030 0.410060 0.638616
O O24 0.440982 0.559019 0.618488
#
# Coordination Sequence:
#
# PCOD8322703 Si02
#       8
#     6   6   6   6   6   6   6   6
#     4  10  20  34  54  78 104 134 168 208 252 300
#     4  10  20  34  52  74 101 133 169 208 251 299
#     4  10  20  34  53  76 103 135 170 210 254 301
#     4  10  20  34  52  74 101 133 169 208 251 299
#     4  10  20  34  53  76 103 135 170 210 254 301
#     4  10  20  34  53  76 103 135 170 210 254 301
#     4  10  20  34  53  76 103 135 170 210 254 301
#     4  10  20  34  54  78 104 134 168 208 252 300
#
# _framework density 17.900714000000001
#
# number of rings (size 3 to 8) (size 9 to 14) (size 15 to 20)
#    0.000    2.000    0.000    4.000    0.000    0.000 
#    0.000    5.000    0.000   17.000    0.000    0.000 
#    0.000    0.000    0.000    0.000    0.000    0.000 
#
# Total GULP energy -595434.569836 kJ/mol
# GULP energy per Si atom -12404.886872 kJ/mol
# Density = 1.785997 g / cm^3
# Si number density = 17.900714 Si / 1000 Ang^3
#
#
#
# Elastic Constant Matrix: (Units=GPa)
#
#
# Indices 1 2 3 4 5 6 
#
# 1 77.6330 31.7001 14.6269 0.1518 0.0000 0.0000
# 2 31.7001 77.6330 14.6269 -0.1518 0.0000 0.0000
# 3 14.6269 14.6269 78.9199 0.0000 0.0000 0.0000
# 4 0.1518 -0.1518 0.0000 25.3011 0.0000 0.0000
# 5 0.0000 0.0000 0.0000 0.0000 25.3011 0.1518
# 6 0.0000 0.0000 0.0000 0.0000 0.1518 22.9664
#
#
#
# Elastic Compliance Matrix: (Units=1/GPa)
#
#
# Indices 1 2 3 4 5 6 
#
# 1 0.015698 -0.006074 -0.001784 -0.000131 0.000000 0.000000
# 2 -0.006074 0.015698 -0.001784 0.000131 0.000000 0.000000
# 3 -0.001784 -0.001784 0.013332 0.000000 0.000000 0.000000
# 4 -0.000131 0.000131 0.000000 0.039526 0.000000 0.000000
# 5 0.000000 0.000000 0.000000 0.000000 0.039526 -0.000261
# 6 0.000000 0.000000 0.000000 0.000000 -0.000261 0.043544
#
#
# Mechanical properties :
#
#
# Convention : Reuss Voigt Hill
#
# Bulk Modulus (GPa) = 39.30058 39.56598 39.43328
# Shear Modulus (GPa) = 25.62965 26.26252 25.94608
#
# Velocity S-wave (km/s) = 3.78797 3.83446 3.81129
# Velocity P-wave (km/s) = 6.41359 6.46182 6.43775
#
# Compressibility (1/GPa) = 0.02544492
#
# Stress axis : x y z
#
# Youngs Moduli (GPa) = 63.70367 63.70367 75.00626
#
# Poissons Ratio (x) = 0.38694 0.13378
# Poissons Ratio (y) = 0.38694 0.13378
# Poissons Ratio (z) = 0.11362 0.11362
#
# Static dielectric constant tensor:
#      x y z
#    x 3.226710 0.000000 0.000000 
#    y 0.000000 3.226710 0.000000 
#    z 0.000000 0.000000 3.457480 
# 
# 
# High freq. dielectric constant tensor:
#      x y z
#    x 1.694320 0.000000 0.000000 
#    y 0.000000 1.694320 0.000000 
#    z 0.000000 0.000000 1.709580 
# 
# From -- ./inp_files/1080.got.cif
#   From: 2010.03.12/outbox.cif.g09.slc.cpg/sg156_cif.got.tgz:1080.got - 2010.04.03 13:58:47.
