data_PCOD8322233
_publ_section_title
;
Structure prediction by ZEFSAII (Michael W. Deem and Ramdas Pophale) SiO2 
 PCOD8322233
Probable space group: P 32 1 2
;
_chemical_formula_sum "Si O2"
_cell_formula_units_Z 36
_cell_length_a 12.538860
_cell_length_b 12.538860
_cell_length_c 14.162213
_cell_angle_alpha 90.000000
_cell_angle_beta 90.000000
_cell_angle_gamma 120.000000
_cell_volume 1928.314471
_symmetry_space_group_name_H-M "P 32 1 2"
_symmetry_group_IT_number 153
_symmetry_cell_setting 'hexagonal'
loop_
_space_group_symop_operation_xyz
x,y,z
-y,x-y,2/3+z
-x+y,-x,1/3+z
-y,-x,1/3-z
-x+y,y,2/3-z
x,x-y,-z
loop_
_atom_site_type_symbol
_atom_site_label
_atom_site_fract_x
_atom_site_fract_y
_atom_site_fract_z
Si Si1 0.134907 0.353167 0.936096
Si Si2 0.663267 0.101417 0.884747
Si Si3 0.474321 0.363764 0.750959
Si Si4 0.976952 0.492795 0.272172
Si Si5 0.360811 0.609459 0.920667
Si Si6 0.281271 0.258875 0.039949
O O1 0.156201 0.312402 0.833334
O O2 0.229650 0.496944 0.954702
O O3 0.997992 0.332625 0.937139
O O4 0.162773 0.274963 0.015132
O O5 0.548569 0.097138 0.833334
O O6 0.764376 0.238443 0.906460
O O7 0.721965 0.035341 0.819710
O O8 0.615385 0.042312 0.989044
O O9 0.560439 0.439562 0.666667
O O10 0.544547 0.438250 0.845776
O O11 0.961497 0.598492 0.321900
O O12 0.110404 0.546598 0.225728
O O13 0.338575 0.677149 0.833334
O O14 0.423874 0.711937 0.000000
O O15 0.253952 0.126976 0.000000
#
# Coordination Sequence:
#
# PCOD8322233 Si02
#       6
#     6   6   6   6   6   6
#     4  10  18  34  56  84 115 146 192 247 291 346
#     4  10  23  36  58  85 114 154 192 237 295 351
#     4  12  23  36  58  86 119 155 194 246 294 356
#     4  10  21  37  52  85 117 146 199 240 285 349
#     4  10  19  32  54  79 112 148 187 233 288 350
#     4  10  17  35  62  83 112 147 198 249 284 346
#
# _framework density 18.669155
#
# number of rings (size 3 to 8) (size 9 to 14) (size 15 to 20)
#    0.000    1.667    6.667    0.500    2.333    3.333 
#    0.000    0.000    0.000    1.000    8.667    0.000 
#    0.000    0.000    0.000    0.000    0.000    0.000 
#
# Total GULP energy -445977.154012 kJ/mol
# GULP energy per Si atom -12388.254278 kJ/mol
# Density = 1.862666 g / cm^3
# Si number density = 18.669155 Si / 1000 Ang^3
#
#
#
# Elastic Constant Matrix: (Units=GPa)
#
#
# Indices 1 2 3 4 5 6 
#
# 1 36.9296 0.8875 34.4392 -0.0015 14.5142 0.0000
# 2 0.8875 36.9296 34.4392 0.0015 -14.5142 0.0000
# 3 34.4392 34.4392 130.8163 0.0000 0.0000 0.0000
# 4 -0.0015 0.0015 0.0000 67.0732 0.0000 -14.5142
# 5 14.5142 -14.5142 0.0000 0.0000 67.0732 -0.0015
# 6 0.0000 0.0000 0.0000 -14.5142 -0.0015 18.0211
#
#
#
# Elastic Compliance Matrix: (Units=1/GPa)
#
#
# Indices 1 2 3 4 5 6 
#
# 1 0.042202 0.008601 -0.013375 0.000001 -0.007271 0.000000
# 2 0.008601 0.042202 -0.013375 -0.000001 0.007271 0.000000
# 3 -0.013375 -0.013375 0.014686 0.000000 0.000000 0.000000
# 4 0.000001 -0.000001 0.000000 0.018056 0.000000 0.014542
# 5 -0.007271 0.007271 0.000000 0.000000 0.018056 0.000002
# 6 0.000000 0.000000 0.000000 0.014542 0.000002 0.067203
#
#
# Mechanical properties :
#
#
# Convention : Reuss Voigt Hill
#
# Bulk Modulus (GPa) = 15.92511 38.24526 27.08518
# Shear Modulus (GPa) = 19.25791 39.42746 29.34269
#
# Velocity S-wave (km/s) = 3.21524 4.60053 3.96879
# Velocity P-wave (km/s) = 4.72571 6.98213 5.96165
#
# Compressibility (1/GPa) = 0.06279393
#
# Stress axis : x y z
#
# Youngs Moduli (GPa) = 23.69546 23.69546 68.09024
#
# Poissons Ratio (x) = -0.20380 0.91068
# Poissons Ratio (y) = -0.20380 0.91068
# Poissons Ratio (z) = 0.31692 0.31692
#
# Static dielectric constant tensor:
#      x y z
#    x 3.402710 0.000000 0.000000 
#    y 0.000000 3.402710 0.000000 
#    z 0.000000 0.000000 3.567800 
# 
# 
# High freq. dielectric constant tensor:
#      x y z
#    x 1.703990 0.000000 0.000000 
#    y 0.000000 1.703990 0.000000 
#    z 0.000000 0.000000 1.732820 
# 
# From -- ./inp_files/2920.got.cif
#   From: 2010.03.12/outbox.cif.g09.slc.cpg/sg153_2_cif.got.tgz:2920.got - 2010.04.03 13:48:33.
