data_PCOD8322277
_publ_section_title
;
Structure prediction by ZEFSAII (Michael W. Deem and Ramdas Pophale) SiO2 
 PCOD8322277
Probable space group: P 32 1 2
;
_chemical_formula_sum "Si O2"
_cell_formula_units_Z 42
_cell_length_a 8.910814
_cell_length_b 8.910814
_cell_length_c 28.913142
_cell_angle_alpha 90.000000
_cell_angle_beta 90.000000
_cell_angle_gamma 120.000000
_cell_volume 1988.202785
_symmetry_space_group_name_H-M "P 32 1 2"
_symmetry_group_IT_number 153
_symmetry_cell_setting 'hexagonal'
loop_
_space_group_symop_operation_xyz
x,y,z
-y,x-y,2/3+z
-x+y,-x,1/3+z
-y,-x,1/3-z
-x+y,y,2/3-z
x,x-y,-z
loop_
_atom_site_type_symbol
_atom_site_label
_atom_site_fract_x
_atom_site_fract_y
_atom_site_fract_z
Si Si1 0.254376 0.771757 0.967870
Si Si2 0.207686 0.548619 0.451038
Si Si3 0.565905 0.471343 0.348364
Si Si4 0.792797 0.112078 0.895545
Si Si5 0.000671 0.444466 0.783463
Si Si6 0.658350 0.316700 0.833334
Si Si7 0.373660 0.101106 0.327686
Si Si8 0.094517 0.189035 0.833334
O O1 0.280643 0.736219 0.914238
O O2 0.274043 0.637022 0.000000
O O3 0.072738 0.768801 0.978486
O O4 0.413832 0.962581 0.975593
O O5 0.128683 0.564342 0.500000
O O6 0.371822 0.530720 0.463542
O O7 0.072719 0.371730 0.424647
O O8 0.724064 0.448127 0.333334
O O9 0.589635 0.570003 0.395755
O O10 0.397406 0.277027 0.350937
O O11 0.709150 0.207900 0.867533
O O12 0.896384 0.224320 0.940397
O O13 0.928194 0.077570 0.866191
O O14 0.039610 0.300985 0.802528
O O15 0.827350 0.435672 0.802814
O O16 0.545893 0.091786 0.333334
#
# Coordination Sequence:
#
# PCOD8322277 Si02
#       8
#     6   6   6   6   6   3   6   3
#     4  11  23  42  67  94 130 181 227 279 346 410
#     4  12  25  41  67  97 136 174 226 283 348 405
#     4  11  22  40  64  95 129 172 224 283 331 408
#     4  11  22  43  65 100 134 181 218 285 345 411
#     4  11  23  41  65  96 131 176 223 272 331 410
#     4  10  22  38  68  96 132 174 228 264 334 406
#     4  10  22  38  67  94 131 176 231 276 336 412
#     4  10  24  40  68  96 138 174 222 272 342 416
#
# _framework density 21.124604000000001
#
# number of rings (size 3 to 8) (size 9 to 14) (size 15 to 20)
#    0.000    1.143    4.286    2.571    2.000    1.714 
#    0.000    3.571    0.000    0.000    0.000    0.000 
#    0.000    0.000    0.000    0.000    0.000    0.000 
#
# Total GULP energy -520586.789213 kJ/mol
# GULP energy per Si atom -12394.923553 kJ/mol
# Density = 2.107652 g / cm^3
# Si number density = 21.124604 Si / 1000 Ang^3
#
#
#
# Elastic Constant Matrix: (Units=GPa)
#
#
# Indices 1 2 3 4 5 6 
#
# 1 97.5230 18.7272 16.7557 0.0001 -2.4602 0.0000
# 2 18.7272 97.5230 16.7557 -0.0001 2.4602 0.0000
# 3 16.7557 16.7557 106.3852 0.0000 0.0000 0.0000
# 4 0.0001 -0.0001 0.0000 34.5137 0.0000 2.4602
# 5 -2.4602 2.4602 0.0000 0.0000 34.5137 0.0001
# 6 0.0000 0.0000 0.0000 2.4602 0.0001 39.3979
#
#
#
# Elastic Compliance Matrix: (Units=1/GPa)
#
#
# Indices 1 2 3 4 5 6 
#
# 1 0.010880 -0.001868 -0.001419 0.000000 0.000909 0.000000
# 2 -0.001868 0.010880 -0.001419 0.000000 -0.000909 0.000000
# 3 -0.001419 -0.001419 0.009847 0.000000 0.000000 0.000000
# 4 0.000000 0.000000 0.000000 0.029104 0.000000 -0.001817
# 5 0.000909 -0.000909 0.000000 0.000000 0.029104 0.000000
# 6 0.000000 0.000000 0.000000 -0.001817 0.000000 0.025496
#
#
# Mechanical properties :
#
#
# Convention : Reuss Voigt Hill
#
# Bulk Modulus (GPa) = 45.06065 45.10092 45.08078
# Shear Modulus (GPa) = 37.84453 38.29793 38.07123
#
# Velocity S-wave (km/s) = 4.23719 4.26250 4.24986
# Velocity P-wave (km/s) = 6.73169 6.75437 6.74304
#
# Compressibility (1/GPa) = 0.02219231
#
# Stress axis : x y z
#
# Youngs Moduli (GPa) = 91.91586 91.91586 101.55507
#
# Poissons Ratio (x) = 0.17172 0.14413
# Poissons Ratio (y) = 0.17172 0.14413
# Poissons Ratio (z) = 0.13045 0.13045
#
# Static dielectric constant tensor:
#      x y z
#    x 3.968320 0.000000 0.000000 
#    y 0.000000 3.968320 0.000000 
#    z 0.000000 0.000000 3.832870 
# 
# 
# High freq. dielectric constant tensor:
#      x y z
#    x 1.825240 0.000000 0.000000 
#    y 0.000000 1.825240 0.000000 
#    z 0.000000 0.000000 1.833630 
# 
# From -- ./inp_files/5221.got.cif
#   From: 2010.03.12/outbox.cif.g09.slc.cpg/sg153_3_cif.got.tgz:5221.got - 2010.04.03 13:48:33.
