data_PCOD8322815
_publ_section_title
;
Structure prediction by ZEFSAII (Michael W. Deem and Ramdas Pophale) SiO2 
 PCOD8322815
Probable space group: P 3 1 C
;
_chemical_formula_sum "Si O2"
_cell_formula_units_Z 48
_cell_length_a 15.074407
_cell_length_b 15.074407
_cell_length_c 13.980266
_cell_angle_alpha 90.000000
_cell_angle_beta 90.000000
_cell_angle_gamma 120.000000
_cell_volume 2751.227729
_symmetry_space_group_name_H-M "P 3 1 C"
_symmetry_group_IT_number 159
_symmetry_cell_setting 'hexagonal'
loop_
_space_group_symop_operation_xyz
x,y,z
-y,x-y,z
-x+y,-x,z
y,x,1/2+z
x-y,-y,1/2+z
-x,-x+y,1/2+z
loop_
_atom_site_type_symbol
_atom_site_label
_atom_site_fract_x
_atom_site_fract_y
_atom_site_fract_z
Si Si1 0.302999 0.453199 0.770270
Si Si2 0.849800 0.546801 0.493370
Si Si3 0.691396 0.691396 0.131820
Si Si4 0.059226 0.131518 0.881819
Si Si5 0.518086 0.630720 0.770928
Si Si6 0.112635 0.481915 0.992712
Si Si7 0.096062 0.845598 0.072612
Si Si8 0.749535 0.903938 0.691026
O O1 0.312112 0.438345 0.881820
O O2 0.413708 0.536072 0.729127
O O3 0.221251 0.489939 0.750512
O O4 0.265675 0.344392 0.719140
O O5 0.731312 0.510061 0.513128
O O6 0.877636 0.463928 0.534513
O O7 0.921282 0.655608 0.544499
O O8 0.636495 0.617956 0.222494
O O9 0.706968 0.805017 0.141710
O O10 0.805017 0.706966 0.121929
O O11 0.617956 0.636494 0.041146
O O12 0.088619 0.201834 0.787486
O O13 0.116567 0.063960 0.881818
O O14 0.088618 0.201832 0.976153
O O15 0.529980 0.616181 0.881820
O O16 1.000000 0.834291 0.131819
#
# Coordination Sequence:
#
# PCOD8322815 Si02
#       8
#     6   6   6   6   6   6   6   6
#     4   9  17  32  54  78 107 136 173 222 265 324
#     4   9  17  32  54  78 107 136 173 222 265 324
#     4  10  22  34  54  78 108 138 178 220 280 328
#     4  10  22  36  56  72 104 150 186 232 274 324
#     4   9  18  33  54  81 107 138 175 221 276 326
#     4   9  18  33  54  81 107 138 175 221 276 326
#     4  11  21  36  52  79 109 143 188 227 274 328
#     4  11  21  36  52  79 109 143 188 227 274 328
#
# _framework density 17.446757000000002
#
# number of rings (size 3 to 8) (size 9 to 14) (size 15 to 20)
#    0.250    2.000    1.250    2.000    3.500    2.000 
#    3.000    0.000    0.000    0.000    0.000    0.000 
#    0.000    0.000    0.000    0.000    0.000    0.000 
#
# Total GULP energy -594920.963144 kJ/mol
# GULP energy per Si atom -12394.186732 kJ/mol
# Density = 1.740705 g / cm^3
# Si number density = 17.446757 Si / 1000 Ang^3
#
#
#
# Elastic Constant Matrix: (Units=GPa)
#
#
# Indices 1 2 3 4 5 6 
#
# 1 95.4254 33.7039 40.5645 0.0000 0.0000 0.0000
# 2 33.7039 95.4254 40.5645 0.0000 0.0000 0.0000
# 3 40.5645 40.5645 62.4199 0.0000 0.0000 0.0000
# 4 0.0000 0.0000 0.0000 25.0774 0.0000 0.0000
# 5 0.0000 0.0000 0.0000 0.0000 25.0774 0.0000
# 6 0.0000 0.0000 0.0000 0.0000 0.0000 30.8607
#
#
#
# Elastic Compliance Matrix: (Units=1/GPa)
#
#
# Indices 1 2 3 4 5 6 
#
# 1 0.014645 -0.001557 -0.008505 0.000000 0.000000 0.000000
# 2 -0.001557 0.014645 -0.008505 0.000000 0.000000 0.000000
# 3 -0.008505 -0.008505 0.027075 0.000000 0.000000 0.000000
# 4 0.000000 0.000000 0.000000 0.039877 0.000000 0.000000
# 5 0.000000 0.000000 0.000000 0.000000 0.039877 0.000000
# 6 0.000000 0.000000 0.000000 0.000000 0.000000 0.032404
#
#
# Mechanical properties :
#
#
# Convention : Reuss Voigt Hill
#
# Bulk Modulus (GPa) = 52.00329 53.65960 52.83145
# Shear Modulus (GPa) = 23.57747 25.43228 24.50487
#
# Velocity S-wave (km/s) = 3.68012 3.82214 3.75180
# Velocity P-wave (km/s) = 6.92310 7.09234 7.00823
#
# Compressibility (1/GPa) = 0.01922955
#
# Stress axis : x y z
#
# Youngs Moduli (GPa) = 68.28340 68.28340 36.93421
#
# Poissons Ratio (x) = 0.10632 0.31414
# Poissons Ratio (y) = 0.10632 0.31414
# Poissons Ratio (z) = 0.58077 0.58077
#
# Static dielectric constant tensor:
#      x y z
#    x 3.326790 0.000000 0.000000 
#    y 0.000000 3.326790 0.000000 
#    z 0.000000 0.000000 3.121930 
# 
# 
# High freq. dielectric constant tensor:
#      x y z
#    x 1.671460 0.000000 0.000000 
#    y 0.000000 1.671460 0.000000 
#    z 0.000000 0.000000 1.655380 
# 
# From -- ./inp_files/974.got.cif
#   From: 2010.03.12/outbox.cif.g09.slc.cpg/sg159_cif.got.tgz:974.got - 2010.04.03 14:00:19.
