data_PCOD8322476
_publ_section_title
;
Structure prediction by ZEFSAII (Michael W. Deem and Ramdas Pophale) SiO2 
 PCOD8322476
Probable space group: R 3 2
;
_chemical_formula_sum "Si O2"
_cell_formula_units_Z 81
_cell_length_a 14.563156
_cell_length_b 14.563156
_cell_length_c 22.240941
_cell_angle_alpha 90.000000
_cell_angle_beta 90.000000
_cell_angle_gamma 120.000000
_cell_volume 4085.025699
_symmetry_space_group_name_H-M "R 3 2"
_symmetry_group_IT_number 155
_symmetry_cell_setting 'hexagonal'
loop_
_space_group_symop_operation_xyz
x,y,z
-y,x-y,z
-x+y,-x,z
x-y,-y,-z
-x,-x+y,-z
y,x,-z
2/3+x,1/3+y,1/3+z
2/3-y,1/3+x-y,1/3+z
2/3-x+y,1/3-x,1/3+z
2/3+x-y,1/3-y,1/3-z
2/3-x,1/3-x+y,1/3-z
2/3+y,1/3+x,1/3-z
1/3+x,2/3+y,2/3+z
1/3-y,2/3+x-y,2/3+z
1/3-x+y,2/3-x,2/3+z
1/3+x-y,2/3-y,2/3-z
1/3-x,2/3-x+y,2/3-z
1/3+y,2/3+x,2/3-z
loop_
_atom_site_type_symbol
_atom_site_label
_atom_site_fract_x
_atom_site_fract_y
_atom_site_fract_z
Si Si1 0.356449 0.563790 0.289483
Si Si2 0.666667 0.113607 0.833334
Si Si3 0.864284 0.108052 0.872444
Si Si4 0.197774 0.322017 0.999192
Si Si5 0.904285 0.437161 0.457247
O O1 0.447031 0.688172 0.297749
O O2 0.352317 0.519839 0.223378
O O3 0.387772 0.503388 0.338722
O O4 0.773689 0.104532 0.828169
O O5 0.863284 0.156732 0.937597
O O6 0.984367 0.184937 0.850148
O O7 0.848017 0.990696 0.876816
O O8 0.272666 0.272666 0.000000
O O9 0.115108 0.281434 0.944272
O O10 0.000000 0.513486 0.500000
#
# Coordination Sequence:
#
# PCOD8322476 Si02
#       5
#    18   9  18  18  18
#     4   9  19  35  58  88 116 155 203 244 311 372
#     4  10  18  36  60  84 124 160 196 260 300 374
#     4  10  21  38  61  86 125 164 203 255 315 369
#     4   9  20  39  60  83 121 159 201 256 314 376
#     4  11  22  40  60  92 119 160 211 256 315 376
#
# _framework density 19.828514999999999
#
# number of rings (size 3 to 8) (size 9 to 14) (size 15 to 20)
#    0.444    1.778    1.111    1.778    0.000    3.556 
#    4.000    6.667    0.000    0.000    0.000    0.000 
#    0.000    0.000    0.000    0.000    0.000    0.000 
#
# Total GULP energy -334520.946931 kJ/mol
# GULP energy per Si atom -12389.664701 kJ/mol
# Density = 1.978338 g / cm^3
# Si number density = 19.828515 Si / 1000 Ang^3
#
#
#
# Elastic Constant Matrix: (Units=GPa)
#
#
# Indices 1 2 3 4 5 6 
#
# 1 93.6070 42.3154 22.0210 -2.9444 0.0000 0.0000
# 2 42.3154 93.6070 22.0210 2.9444 0.0000 0.0000
# 3 22.0210 22.0210 32.1909 0.0000 0.0000 0.0000
# 4 -2.9444 2.9444 0.0000 26.2910 0.0000 0.0000
# 5 0.0000 0.0000 0.0000 0.0000 26.2910 -2.9444
# 6 0.0000 0.0000 0.0000 0.0000 -2.9444 25.6458
#
#
#
# Elastic Compliance Matrix: (Units=1/GPa)
#
#
# Indices 1 2 3 4 5 6 
#
# 1 0.014601 -0.005149 -0.006466 0.002212 0.000000 0.000000
# 2 -0.005149 0.014601 -0.006466 -0.002212 0.000000 0.000000
# 3 -0.006466 -0.006466 0.039911 0.000000 0.000000 0.000000
# 4 0.002212 -0.002212 0.000000 0.038531 0.000000 0.000000
# 5 0.000000 0.000000 0.000000 0.000000 0.038531 0.004424
# 6 0.000000 0.000000 0.000000 0.000000 0.004424 0.039501
#
#
# Mechanical properties :
#
#
# Convention : Reuss Voigt Hill
#
# Bulk Modulus (GPa) = 30.34761 43.56887 36.95824
# Shear Modulus (GPa) = 21.47551 24.51539 22.99545
#
# Velocity S-wave (km/s) = 3.29456 3.52002 3.40915
# Velocity P-wave (km/s) = 5.45989 6.20816 5.84601
#
# Compressibility (1/GPa) = 0.03295153
#
# Stress axis : x y z
#
# Youngs Moduli (GPa) = 68.48700 68.48700 25.05552
#
# Poissons Ratio (x) = 0.35264 0.16201
# Poissons Ratio (y) = 0.35264 0.16201
# Poissons Ratio (z) = 0.44285 0.44285
#
# Static dielectric constant tensor:
#      x y z
#    x 3.630020 0.000000 0.000000 
#    y 0.000000 3.630020 0.000000 
#    z 0.000000 0.000000 3.653790 
# 
# 
# High freq. dielectric constant tensor:
#      x y z
#    x 1.773640 0.000000 0.000000 
#    y 0.000000 1.773640 0.000000 
#    z 0.000000 0.000000 1.751620 
# 
# From -- ./inp_files/7378.got.cif
#   From: 2010.03.12/outbox.cif.g09.slc.cpg/sg155_4_cif.got.tgz:7378.got - 2010.04.03 13:54:13.
