data_PCOD8322994
_publ_section_title
;
Structure prediction by ZEFSAII (Michael W. Deem and Ramdas Pophale) SiO2 
 PCOD8322994
Probable space group: P -3 1 M 
;
_chemical_formula_sum "Si O2"
_cell_formula_units_Z 96
_cell_length_a 23.697447
_cell_length_b 23.697447
_cell_length_c 11.762204
_cell_angle_alpha 90.000000
_cell_angle_beta 90.000000
_cell_angle_gamma 120.000000
_cell_volume 5720.348135
_symmetry_space_group_name_H-M "P -3 1 M "
_symmetry_group_IT_number 162
_symmetry_cell_setting 'hexagonal'
loop_
_space_group_symop_operation_xyz
x,y,z
-y,x-y,z
-x+y,-x,z
-y,-x,-z
-x+y,y,-z
x,x-y,-z
-x,-y,-z
y,-x+y,-z
x-y,x,-z
y,x,z
x-y,-y,z
-x,-x+y,z
loop_
_atom_site_type_symbol
_atom_site_label
_atom_site_fract_x
_atom_site_fract_y
_atom_site_fract_z
Si Si1 0.439295 0.362259 0.503567
Si Si2 0.266009 0.402282 0.866471
Si Si3 0.240345 0.313951 0.498529
Si Si4 0.196537 0.925131 0.738004
Si Si5 0.927648 0.731432 0.745865
Si Si6 0.602754 0.526914 0.743643
Si Si7 0.075939 0.600711 0.746357
Si Si8 0.598802 0.734462 0.867426
O O1 0.397467 0.397467 0.506875
O O2 0.392197 0.283666 0.511710
O O3 0.480635 0.381382 0.387592
O O4 0.484598 0.385104 0.614993
O O5 0.248441 0.334808 0.806320
O O6 0.335890 0.457800 0.821082
O O7 0.210224 0.420851 0.839395
O O8 0.271428 0.393633 0.999467
O O9 0.290042 0.290042 0.462468
O O10 0.192883 0.295138 0.390197
O O11 0.201393 0.279157 0.610883
O O12 0.123518 0.877547 0.786158
O O13 0.248443 0.915650 0.810298
O O14 0.213683 0.000000 0.744668
O O15 0.000000 0.787919 0.779645
O O16 0.582601 0.582601 0.755529
O O17 0.544360 0.458144 0.788087
O O18 0.665286 0.543704 0.819753
O O19 0.000000 0.580714 0.759383
#
# Coordination Sequence:
#
# PCOD8322994 Si02
#       8
#    12  12  12  12  12  12  12  12
#     4   9  15  27  46  71 102 129 153 183 227 282
#     4  10  21  35  49  67  95 130 166 203 240 282
#     4   9  15  26  46  68  93 124 155 190 231 279
#     4  10  19  31  48  70  96 126 160 200 245 292
#     4  10  19  31  48  70  96 126 160 200 245 292
#     4  10  19  31  50  75 102 129 155 190 236 285
#     4  10  19  31  50  75 102 129 155 190 236 285
#     4  10  21  35  49  67  95 130 166 203 240 282
#
# _framework density 16.782195999999999
#
# number of rings (size 3 to 8) (size 9 to 14) (size 15 to 20)
#    0.000    2.250    2.500    1.500    0.000    4.000 
#    0.000    1.875    0.000    0.750    0.000    0.000 
#    0.000    3.000    0.000    6.250    0.000    0.000 
#
# Total GULP energy -1189921.941705 kJ/mol
# GULP energy per Si atom -12395.020226 kJ/mol
# Density = 1.674400 g / cm^3
# Si number density = 16.782196 Si / 1000 Ang^3
#
#
#
# Elastic Constant Matrix: (Units=GPa)
#
#
# Indices 1 2 3 4 5 6 
#
# 1 87.5944 45.8308 28.0628 0.0000 0.1144 0.0000
# 2 45.8308 87.5944 28.0628 0.0000 -0.1144 0.0000
# 3 28.0628 28.0628 85.4997 0.0000 0.0000 0.0000
# 4 0.0000 0.0000 0.0000 15.0540 0.0000 -0.1144
# 5 0.1144 -0.1144 0.0000 0.0000 15.0540 0.0000
# 6 0.0000 0.0000 0.0000 -0.1144 0.0000 20.8818
#
#
#
# Elastic Compliance Matrix: (Units=1/GPa)
#
#
# Indices 1 2 3 4 5 6 
#
# 1 0.016320 -0.007625 -0.002854 0.000000 -0.000182 0.000000
# 2 -0.007625 0.016320 -0.002854 0.000000 0.000182 0.000000
# 3 -0.002854 -0.002854 0.013569 0.000000 0.000000 0.000000
# 4 0.000000 0.000000 0.000000 0.066430 0.000000 0.000364
# 5 -0.000182 0.000182 0.000000 0.000000 0.066430 0.000000
# 6 0.000000 0.000000 0.000000 0.000364 0.000000 0.047891
#
#
# Mechanical properties :
#
#
# Convention : Reuss Voigt Hill
#
# Bulk Modulus (GPa) = 51.16616 51.62238 51.39427
# Shear Modulus (GPa) = 19.22031 20.78011 20.00021
#
# Velocity S-wave (km/s) = 3.38787 3.52266 3.45592
# Velocity P-wave (km/s) = 6.77186 6.88277 6.82754
#
# Compressibility (1/GPa) = 0.01954417
#
# Stress axis : x y z
#
# Youngs Moduli (GPa) = 61.27326 61.27326 73.69498
#
# Poissons Ratio (x) = 0.46721 0.21033
# Poissons Ratio (y) = 0.46721 0.21033
# Poissons Ratio (z) = 0.17487 0.17487
#
# Static dielectric constant tensor:
#      x y z
#    x 2.999670 0.000000 0.000000 
#    y 0.000000 2.999670 0.000000 
#    z 0.000000 0.000000 3.227470 
# 
# 
# High freq. dielectric constant tensor:
#      x y z
#    x 1.623660 0.000000 0.000000 
#    y 0.000000 1.623660 0.000000 
#    z 0.000000 0.000000 1.653520 
# 
# From -- ./inp_files/2676.got.cif
#   From: 2010.03.12/outbox.cif.g09.slc.cpg/sg162_2_cif.got.tgz:2676.got - 2010.04.02 06:27:41.
