data_PCOD8322209
_publ_section_title
;
Structure prediction by ZEFSAII (Michael W. Deem and Ramdas Pophale) SiO2 
 PCOD8322209
Probable space group: P 31 2 1
;
_chemical_formula_sum "Si O2"
_cell_formula_units_Z 18
_cell_length_a 11.325581
_cell_length_b 11.325581
_cell_length_c 7.287623
_cell_angle_alpha 90.000000
_cell_angle_beta 90.000000
_cell_angle_gamma 120.000000
_cell_volume 809.538505
_symmetry_space_group_name_H-M "P 31 2 1"
_symmetry_group_IT_number 152
_symmetry_cell_setting 'hexagonal'
loop_
_space_group_symop_operation_xyz
x,y,z
-y,x-y,1/3+z
-x+y,-x,2/3+z
x-y,-y,2/3-z
-x,-x+y,1/3-z
y,x,-z
loop_
_atom_site_type_symbol
_atom_site_label
_atom_site_fract_x
_atom_site_fract_y
_atom_site_fract_z
Si Si1 0.874865 0.286529 0.481800
Si Si2 0.843999 0.148913 0.850738
Si Si3 0.325549 0.439899 0.130108
O O1 0.802693 0.191552 0.659397
O O2 0.922875 0.441484 0.529315
O O3 0.772115 0.253053 0.312754
O O4 0.004180 0.269239 0.425709
O O5 0.832825 0.000000 0.833334
O O6 0.732040 0.128281 0.000430
O O7 0.320300 0.320300 0.000000
#
# Coordination Sequence:
#
# PCOD8322209 Si02
#       3
#     6   6   6
#     4  11  27  46  68 112 141 192 243 294 370 433
#     4  11  24  47  72 101 149 185 238 300 356 431
#     4  12  25  44  72 106 142 184 248 296 365 428
#
# _framework density 22.234891000000001
#
# number of rings (size 3 to 8) (size 9 to 14) (size 15 to 20)
#    0.000    0.667    6.667    1.000    4.667    2.667 
#    6.000    0.000    0.000    0.000    0.000    0.000 
#    0.000    0.000    0.000    0.000    0.000    0.000 
#
# Total GULP energy -223094.406261 kJ/mol
# GULP energy per Si atom -12394.133681 kJ/mol
# Density = 2.218428 g / cm^3
# Si number density = 22.234891 Si / 1000 Ang^3
#
#
#
# Elastic Constant Matrix: (Units=GPa)
#
#
# Indices 1 2 3 4 5 6 
#
# 1 126.0021 58.8643 54.0096 0.9366 0.0000 0.0000
# 2 58.8643 126.0021 54.0096 -0.9366 0.0000 0.0000
# 3 54.0096 54.0096 113.3687 0.0000 0.0000 0.0000
# 4 0.9366 -0.9366 0.0000 33.7459 0.0000 0.0000
# 5 0.0000 0.0000 0.0000 0.0000 33.7459 0.9366
# 6 0.0000 0.0000 0.0000 0.0000 0.9366 33.5689
#
#
#
# Elastic Compliance Matrix: (Units=1/GPa)
#
#
# Indices 1 2 3 4 5 6 
#
# 1 0.011201 -0.003705 -0.003571 -0.000414 0.000000 0.000000
# 2 -0.003705 0.011201 -0.003571 0.000414 0.000000 0.000000
# 3 -0.003571 -0.003571 0.012223 0.000000 0.000000 0.000000
# 4 -0.000414 0.000414 0.000000 0.029656 0.000000 0.000000
# 5 0.000000 0.000000 0.000000 0.000000 0.029656 -0.000827
# 6 0.000000 0.000000 0.000000 0.000000 -0.000827 0.029813
#
#
# Mechanical properties :
#
#
# Convention : Reuss Voigt Hill
#
# Bulk Modulus (GPa) = 77.33472 77.68224 77.50848
# Shear Modulus (GPa) = 33.38774 33.44478 33.41626
#
# Velocity S-wave (km/s) = 3.87924 3.88255 3.88090
# Velocity P-wave (km/s) = 7.41087 7.42374 7.41731
#
# Compressibility (1/GPa) = 0.01293080
#
# Stress axis : x y z
#
# Youngs Moduli (GPa) = 89.27682 89.27682 81.81037
#
# Poissons Ratio (x) = 0.33079 0.29215
# Poissons Ratio (y) = 0.33079 0.29215
# Poissons Ratio (z) = 0.31882 0.31882
#
# Static dielectric constant tensor:
#      x y z
#    x 3.880650 0.000000 0.000000 
#    y 0.000000 3.880650 0.000000 
#    z 0.000000 0.000000 4.171980 
# 
# 
# High freq. dielectric constant tensor:
#      x y z
#    x 1.868290 0.000000 0.000000 
#    y 0.000000 1.868290 0.000000 
#    z 0.000000 0.000000 1.894960 
# 
# From -- ./inp_files/836.got.cif
#   From: 2010.03.12/outbox.cif.g09.slc.cpg/sg152_1_cif.got.tgz:836.got - 2010.04.03 13:45:27.
