data_PCOD8322489
_publ_section_title
;
Structure prediction by ZEFSAII (Michael W. Deem and Ramdas Pophale) SiO2 
 PCOD8322489
Probable space group: R 3 2
;
_chemical_formula_sum "Si O2"
_cell_formula_units_Z 126
_cell_length_a 26.373405
_cell_length_b 26.373405
_cell_length_c 12.333636
_cell_angle_alpha 90.000000
_cell_angle_beta 90.000000
_cell_angle_gamma 120.000000
_cell_volume 7429.407276
_symmetry_space_group_name_H-M "R 3 2"
_symmetry_group_IT_number 155
_symmetry_cell_setting 'hexagonal'
loop_
_space_group_symop_operation_xyz
x,y,z
-y,x-y,z
-x+y,-x,z
x-y,-y,-z
-x,-x+y,-z
y,x,-z
2/3+x,1/3+y,1/3+z
2/3-y,1/3+x-y,1/3+z
2/3-x+y,1/3-x,1/3+z
2/3+x-y,1/3-y,1/3-z
2/3-x,1/3-x+y,1/3-z
2/3+y,1/3+x,1/3-z
1/3+x,2/3+y,2/3+z
1/3-y,2/3+x-y,2/3+z
1/3-x+y,2/3-x,2/3+z
1/3+x-y,2/3-y,2/3-z
1/3-x,2/3-x+y,2/3-z
1/3+y,2/3+x,2/3-z
loop_
_atom_site_type_symbol
_atom_site_label
_atom_site_fract_x
_atom_site_fract_y
_atom_site_fract_z
Si Si1 0.993760 0.148795 0.627912
Si Si2 0.146699 0.608489 0.979230
Si Si3 0.718336 0.877198 0.492443
Si Si4 0.122280 0.198347 0.692573
Si Si5 0.616449 0.714705 0.250797
Si Si6 0.602306 0.868504 0.788808
Si Si7 0.265043 0.198888 0.873239
O O1 0.941440 0.088768 0.675680
O O2 0.977951 0.199648 0.647609
O O3 0.000000 0.141544 0.500000
O O4 0.052179 0.163705 0.691650
O O5 0.189761 0.676141 0.004638
O O6 0.119146 0.596564 0.858813
O O7 0.094104 0.584359 0.065125
O O8 0.748706 0.897620 0.608122
O O9 0.701087 0.809855 0.475165
O O10 0.661179 0.883876 0.488629
O O11 0.144043 0.224383 0.811790
O O12 0.612657 0.666667 0.166667
O O13 0.666667 0.724588 0.333334
O O14 0.666667 0.891904 0.833334
O O15 0.596471 0.847572 0.664883
O O16 0.586590 0.920071 0.803877
#
# Coordination Sequence:
#
# PCOD8322489 Si02
#       7
#    18  18  18  18  18  18  18
#     4  10  19  36  54  79 112 141 175 225 283 329
#     4  10  21  34  55  82 111 143 188 222 271 337
#     4  11  18  33  57  79 108 144 183 219 276 332
#     4  11  20  35  57  81 111 148 179 228 281 332
#     4  10  19  34  54  75 104 140 178 224 272 323
#     4  10  21  37  53  79 116 151 180 226 268 324
#     4  10  21  36  54  79 112 154 186 218 267 327
#
# _framework density 16.959630000000001
#
# number of rings (size 3 to 8) (size 9 to 14) (size 15 to 20)
#    0.000    1.714    5.714    2.571    0.000    1.143 
#    3.429    2.857    0.000    0.000    0.000    0.000 
#    0.000    0.000    0.000    0.000    0.000    0.000 
#
# Total GULP energy -520855.287958 kJ/mol
# GULP energy per Si atom -12401.316380 kJ/mol
# Density = 1.692103 g / cm^3
# Si number density = 16.959630 Si / 1000 Ang^3
#
#
#
# Elastic Constant Matrix: (Units=GPa)
#
#
# Indices 1 2 3 4 5 6 
#
# 1 103.7253 53.0521 39.8690 1.7421 0.0002 0.0000
# 2 53.0521 103.7251 39.8682 -1.7423 0.0002 0.0001
# 3 39.8690 39.8682 89.1722 -0.0009 0.0032 0.0004
# 4 1.7421 -1.7423 -0.0009 25.6016 -0.0004 0.0001
# 5 0.0002 0.0002 0.0032 -0.0004 25.6028 1.7423
# 6 0.0000 0.0001 0.0004 0.0001 1.7423 25.3364
#
#
#
# Elastic Compliance Matrix: (Units=1/GPa)
#
#
# Indices 1 2 3 4 5 6 
#
# 1 0.014042 -0.005786 -0.003691 -0.001349 0.000000 0.000000
# 2 -0.005786 0.014041 -0.003691 0.001349 0.000000 0.000000
# 3 -0.003691 -0.003691 0.014515 0.000001 -0.000002 0.000000
# 4 -0.001349 0.001349 0.000001 0.039244 0.000001 0.000000
# 5 0.000000 0.000000 -0.000002 0.000001 0.039242 -0.002699
# 6 0.000000 0.000000 0.000000 0.000000 -0.002699 0.039654
#
#
# Mechanical properties :
#
#
# Convention : Reuss Voigt Hill
#
# Bulk Modulus (GPa) = 61.49349 62.46680 61.98015
# Shear Modulus (GPa) = 25.97479 26.23037 26.10258
#
# Velocity S-wave (km/s) = 3.91777 3.93700 3.92739
# Velocity P-wave (km/s) = 7.53675 7.58809 7.56247
#
# Compressibility (1/GPa) = 0.01626188
#
# Stress axis : x y z
#
# Youngs Moduli (GPa) = 71.21741 71.21796 68.89497
#
# Poissons Ratio (x) = 0.41204 0.25431
# Poissons Ratio (y) = 0.41204 0.25429
# Poissons Ratio (z) = 0.26288 0.26287
#
# Static dielectric constant tensor:
#      x y z
#    x 3.165470 0.000000 0.000000 
#    y 0.000000 3.165480 0.000000 
#    z 0.000000 0.000000 3.215360 
# 
# 
# High freq. dielectric constant tensor:
#      x y z
#    x 1.649080 0.000000 0.000000 
#    y 0.000000 1.649080 0.000000 
#    z 0.000000 0.000000 1.651570 
# 
# From -- ./inp_files/4225.got.cif
#   From: 2010.03.12/outbox.cif.g09.slc.cpg/sg155_3_cif.got.tgz:4225.got - 2010.04.03 13:54:13.
