data_PCOD8322188
_publ_section_title
;
Structure prediction by ZEFSAII (Michael W. Deem and Ramdas Pophale) SiO2 
 PCOD8322188
Probable space group: P 31 2 1
;
_chemical_formula_sum "Si O2"
_cell_formula_units_Z 36
_cell_length_a 11.005766
_cell_length_b 11.005766
_cell_length_c 15.064944
_cell_angle_alpha 90.000000
_cell_angle_beta 90.000000
_cell_angle_gamma 120.000000
_cell_volume 1580.296954
_symmetry_space_group_name_H-M "P 31 2 1"
_symmetry_group_IT_number 152
_symmetry_cell_setting 'hexagonal'
loop_
_space_group_symop_operation_xyz
x,y,z
-y,x-y,1/3+z
-x+y,-x,2/3+z
x-y,-y,2/3-z
-x,-x+y,1/3-z
y,x,-z
loop_
_atom_site_type_symbol
_atom_site_label
_atom_site_fract_x
_atom_site_fract_y
_atom_site_fract_z
Si Si1 0.211932 0.764393 0.172826
Si Si2 0.097978 0.000000 0.833334
Si Si3 0.367051 0.367051 0.000000
Si Si4 0.745891 0.681608 0.637166
Si Si5 0.948498 0.209870 0.497332
Si Si6 0.555178 0.996428 0.705736
Si Si7 0.886109 0.522722 0.852434
O O1 0.108354 0.706379 0.087052
O O2 0.357605 0.779281 0.139821
O O3 0.151863 0.654951 0.254308
O O4 0.226276 0.909174 0.215651
O O5 0.174204 0.975559 0.916569
O O6 0.082344 0.135172 0.841497
O O7 0.223575 0.355425 0.030486
O O8 0.459914 0.420597 0.089544
O O9 0.714585 0.710438 0.735675
O O10 0.603749 0.552778 0.599030
O O11 0.805789 0.203950 0.528541
O O12 0.575973 0.000019 0.599162
#
# Coordination Sequence:
#
# PCOD8322188 Si02
#       7
#     6   3   3   6   6   6   6
#     4  11  26  50  69 112 151 188 253 303 371 460
#     4  12  20  40  76 100 136 188 232 306 366 418
#     4  10  24  50  70 108 146 190 256 300 364 452
#     4  11  22  46  68 106 141 183 249 294 362 437
#     4  11  25  44  69 108 142 184 242 301 364 442
#     4  11  26  48  74 108 147 202 241 310 377 443
#     4  11  25  47  76 106 146 201 242 313 377 442
#
# _framework density 22.780529999999999
#
# number of rings (size 3 to 8) (size 9 to 14) (size 15 to 20)
#    0.000    1.000    5.000    2.000    2.333    6.000 
#   12.000    0.000    0.000    0.000    0.000    0.000 
#    0.000    0.000    0.000    0.000    0.000    0.000 
#
# Total GULP energy -446204.655291 kJ/mol
# GULP energy per Si atom -12394.573758 kJ/mol
# Density = 2.272868 g / cm^3
# Si number density = 22.780530 Si / 1000 Ang^3
#
#
#
# Elastic Constant Matrix: (Units=GPa)
#
#
# Indices 1 2 3 4 5 6 
#
# 1 137.4148 60.0380 28.1901 1.4942 -0.0001 0.0000
# 2 60.0380 137.4148 28.1901 -1.4942 0.0001 0.0000
# 3 28.1901 28.1901 116.7998 0.0000 0.0000 0.0000
# 4 1.4942 -1.4942 0.0000 32.0572 0.0000 0.0001
# 5 -0.0001 0.0001 0.0000 0.0000 32.0572 1.4942
# 6 0.0000 0.0000 0.0000 0.0001 1.4942 38.6884
#
#
#
# Elastic Compliance Matrix: (Units=1/GPa)
#
#
# Indices 1 2 3 4 5 6 
#
# 1 0.009193 -0.003754 -0.001313 -0.000603 0.000000 0.000000
# 2 -0.003754 0.009193 -0.001313 0.000603 0.000000 0.000000
# 3 -0.001313 -0.001313 0.009195 0.000000 0.000000 0.000000
# 4 -0.000603 0.000603 0.000000 0.031251 0.000000 0.000000
# 5 0.000000 0.000000 0.000000 0.000000 0.031251 -0.001207
# 6 0.000000 0.000000 0.000000 0.000000 -0.001207 0.025894
#
#
# Mechanical properties :
#
#
# Convention : Reuss Voigt Hill
#
# Bulk Modulus (GPa) = 67.46349 69.38511 68.42430
# Shear Modulus (GPa) = 37.40362 38.90797 38.15579
#
# Velocity S-wave (km/s) = 4.05645 4.13722 4.09703
# Velocity P-wave (km/s) = 7.18460 7.30385 7.24447
#
# Compressibility (1/GPa) = 0.01482283
#
# Stress axis : x y z
#
# Youngs Moduli (GPa) = 108.77591 108.77591 108.75045
#
# Poissons Ratio (x) = 0.40833 0.14277
# Poissons Ratio (y) = 0.40833 0.14277
# Poissons Ratio (z) = 0.14280 0.14280
#
# Static dielectric constant tensor:
#      x y z
#    x 4.095400 0.000000 0.000000 
#    y 0.000000 4.095400 0.000000 
#    z 0.000000 0.000000 4.444320 
# 
# 
# High freq. dielectric constant tensor:
#      x y z
#    x 1.901640 0.000000 0.000000 
#    y 0.000000 1.901640 0.000000 
#    z 0.000000 0.000000 1.897520 
# 
# From -- ./inp_files/2073.got.cif
#   From: 2010.03.12/outbox.cif.g09.slc.cpg/sg152_2_cif.got.tgz:2073.got - 2010.04.03 13:45:27.
