data_PCOD8322902
_publ_section_title
;
Structure prediction by ZEFSAII (Michael W. Deem and Ramdas Pophale) SiO2 
 PCOD8322902
Probable space group: R 3 C
;
_chemical_formula_sum "Si O2"
_cell_formula_units_Z 102
_cell_length_a 19.586521
_cell_length_b 19.586521
_cell_length_c 14.698026
_cell_angle_alpha 90.000000
_cell_angle_beta 90.000000
_cell_angle_gamma 120.000000
_cell_volume 4883.197033
_symmetry_space_group_name_H-M "R 3 C"
_symmetry_group_IT_number 161
_symmetry_cell_setting 'hexagonal'
loop_
_space_group_symop_operation_xyz
x,y,z
-y,x-y,z
-x+y,-x,z
-x+y,y,1/2+z
x,x-y,1/2+z
-y,-x,1/2+z
2/3+x,1/3+y,1/3+z
2/3-y,1/3+x-y,1/3+z
2/3-x+y,1/3-x,1/3+z
2/3-x+y,1/3+y,5/6+z
2/3+x,1/3+x-y,5/6+z
2/3-y,1/3-x,5/6+z
1/3+x,2/3+y,2/3+z
1/3-y,2/3+x-y,2/3+z
1/3-x+y,2/3-x,2/3+z
1/3-x+y,2/3+y,1/6+z
1/3+x,2/3+x-y,1/6+z
1/3-y,2/3-x,1/6+z
loop_
_atom_site_type_symbol
_atom_site_label
_atom_site_fract_x
_atom_site_fract_y
_atom_site_fract_z
Si Si1 0.333334 0.666668 0.089823
Si Si2 0.333334 0.666668 0.375073
Si Si3 0.055061 0.396285 0.579293
Si Si4 0.461727 0.368668 0.160409
Si Si5 0.845800 0.441049 0.801792
Si Si6 0.508954 0.754064 0.840041
Si Si7 0.304918 0.933632 0.375441
O O1 0.420806 0.713628 0.127807
O O2 0.333334 0.666667 0.982627
O O3 0.314298 0.732560 0.337387
O O4 0.143621 0.467901 0.588951
O O5 0.033370 0.371699 0.475080
O O6 0.995856 0.424309 0.620460
O O7 0.041422 0.318430 0.636092
O O8 0.511744 0.407031 0.251148
O O9 0.514001 0.361126 0.079945
O O10 0.384859 0.283886 0.186124
O O11 0.870934 0.457575 0.907002
O O12 0.564140 0.842707 0.873338
#
# Coordination Sequence:
#
# PCOD8322902 Si02
#       7
#     6   6  18  18  18  18  18
#     4  12  25  47  70  97 140 184 232 284 352 409
#     4  12  25  50  67 103 134 187 229 281 355 412
#     4  10  22  44  66 101 136 177 230 279 348 402
#     4  10  24  42  68 102 134 179 230 284 343 408
#     4  12  24  45  69 100 141 181 231 287 343 417
#     4  12  24  46  69 101 137 181 233 281 348 415
#     4  10  22  44  67 100 138 177 231 282 343 407
#
# _framework density 20.887955000000002
#
# number of rings (size 3 to 8) (size 9 to 14) (size 15 to 20)
#    1.059    0.000    3.529    3.176    0.000    1.412 
#   12.706    0.000    0.000    0.000    0.000    0.000 
#    0.000    0.000    0.000    0.000    0.000    0.000 
#
# Total GULP energy -421432.619385 kJ/mol
# GULP energy per Si atom -12395.077041 kJ/mol
# Density = 2.084041 g / cm^3
# Si number density = 20.887955 Si / 1000 Ang^3
#
#
#
# Elastic Constant Matrix: (Units=GPa)
#
#
# Indices 1 2 3 4 5 6 
#
# 1 99.7285 44.0359 24.7055 -2.1694 0.0000 0.0000
# 2 44.0359 99.7286 24.7056 2.1695 0.0000 0.0000
# 3 24.7055 24.7056 147.5837 0.0002 0.0000 0.0000
# 4 -2.1694 2.1695 0.0002 33.2634 0.0000 0.0000
# 5 0.0000 0.0000 0.0000 0.0000 33.2630 -2.1696
# 6 0.0000 0.0000 0.0000 0.0000 -2.1696 27.8464
#
#
#
# Elastic Compliance Matrix: (Units=1/GPa)
#
#
# Indices 1 2 3 4 5 6 
#
# 1 0.012714 -0.005333 -0.001235 0.001177 0.000000 0.000000
# 2 -0.005333 0.012714 -0.001235 -0.001177 0.000000 0.000000
# 3 -0.001235 -0.001235 0.007189 0.000000 0.000000 0.000000
# 4 0.001177 -0.001177 0.000000 0.030217 0.000000 0.000000
# 5 0.000000 0.000000 0.000000 0.000000 0.030217 0.002354
# 6 0.000000 0.000000 0.000000 0.000000 0.002354 0.036095
#
#
# Mechanical properties :
#
#
# Convention : Reuss Voigt Hill
#
# Bulk Modulus (GPa) = 58.79445 59.32609 59.06027
# Shear Modulus (GPa) = 33.23937 35.78081 34.51009
#
# Velocity S-wave (km/s) = 3.99346 4.14332 4.06908
# Velocity P-wave (km/s) = 7.03365 7.16611 7.10019
#
# Compressibility (1/GPa) = 0.01700841
#
# Stress axis : x y z
#
# Youngs Moduli (GPa) = 78.65385 78.65393 139.09259
#
# Poissons Ratio (x) = 0.41950 0.17185
# Poissons Ratio (y) = 0.41950 0.17185
# Poissons Ratio (z) = 0.09718 0.09718
#
# Static dielectric constant tensor:
#      x y z
#    x 3.597990 0.000000 0.000000 
#    y 0.000000 3.598000 0.000000 
#    z 0.000000 0.000000 4.169970 
# 
# 
# High freq. dielectric constant tensor:
#      x y z
#    x 1.802410 0.000000 0.000000 
#    y 0.000000 1.802410 0.000000 
#    z 0.000000 0.000000 1.845940 
# 
# From -- ./inp_files/976.got.cif
#   From: 2010.03.12/outbox.cif.g09.slc.cpg/sg161_cif.got.tgz:976.got - 2010.04.02 06:27:14.
