data_PCOD8322890
_publ_section_title
;
Structure prediction by ZEFSAII (Michael W. Deem and Ramdas Pophale) SiO2 
 PCOD8322890
Probable space group: R 3 C
;
_chemical_formula_sum "Si O2"
_cell_formula_units_Z 120
_cell_length_a 19.394372
_cell_length_b 19.394372
_cell_length_c 19.206865
_cell_angle_alpha 90.000000
_cell_angle_beta 90.000000
_cell_angle_gamma 120.000000
_cell_volume 6256.602423
_symmetry_space_group_name_H-M "R 3 C"
_symmetry_group_IT_number 161
_symmetry_cell_setting 'hexagonal'
loop_
_space_group_symop_operation_xyz
x,y,z
-y,x-y,z
-x+y,-x,z
-x+y,y,1/2+z
x,x-y,1/2+z
-y,-x,1/2+z
2/3+x,1/3+y,1/3+z
2/3-y,1/3+x-y,1/3+z
2/3-x+y,1/3-x,1/3+z
2/3-x+y,1/3+y,5/6+z
2/3+x,1/3+x-y,5/6+z
2/3-y,1/3-x,5/6+z
1/3+x,2/3+y,2/3+z
1/3-y,2/3+x-y,2/3+z
1/3-x+y,2/3-x,2/3+z
1/3-x+y,2/3+y,1/6+z
1/3+x,2/3+x-y,1/6+z
1/3-y,2/3-x,1/6+z
loop_
_atom_site_type_symbol
_atom_site_label
_atom_site_fract_x
_atom_site_fract_y
_atom_site_fract_z
Si Si1 0.875531 0.268623 0.842924
Si Si2 0.562101 0.406100 0.308444
Si Si3 0.333334 0.666667 0.138175
Si Si4 0.336993 0.228457 0.766923
Si Si5 0.909376 0.086116 0.812439
Si Si6 0.648149 0.735827 0.653122
Si Si7 0.000000 0.000000 0.305989
Si Si8 0.397762 0.309478 0.627927
O O1 0.861743 0.342739 0.845236
O O2 0.805387 0.194692 0.801948
O O3 0.959556 0.297285 0.805013
O O4 0.876460 0.239322 0.921100
O O5 0.630111 0.386597 0.332390
O O6 0.550657 0.399757 0.225728
O O7 0.587929 0.493484 0.335935
O O8 0.333334 0.666667 0.055373
O O9 0.242533 0.167626 0.771519
O O10 0.357509 0.310698 0.804143
O O11 0.357397 0.240215 0.685261
O O12 0.938480 0.028015 0.779918
O O13 0.982798 0.174817 0.805388
O O14 0.706637 0.767882 0.718573
#
# Coordination Sequence:
#
# PCOD8322890 Si02
#       8
#    18  18   6  18  18  18   6  18
#     4  10  22  37  62  88 122 161 205 255 314 363
#     4  11  19  37  59  91 122 157 205 260 302 382
#     4   9  21  33  63  91 113 160 207 244 323 361
#     4  10  19  40  63  85 123 159 203 260 299 375
#     4  10  20  39  59  91 120 152 212 254 306 369
#     4  11  22  39  59  93 126 158 210 251 318 368
#     4   9  21  36  60  91 116 157 201 256 311 367
#     4  10  22  37  59  90 120 162 205 252 309 375
#
# _framework density 19.179739000000001
#
# number of rings (size 3 to 8) (size 9 to 14) (size 15 to 20)
#    0.000    1.800    4.500    1.800    4.200    2.400 
#    5.400    0.000    0.000    5.400    0.000    0.000 
#    0.000    0.000    0.000    0.000    0.000    0.000 
#
# Total GULP energy -496082.140861 kJ/mol
# GULP energy per Si atom -12402.053522 kJ/mol
# Density = 1.913609 g / cm^3
# Si number density = 19.179739 Si / 1000 Ang^3
#
#
#
# Elastic Constant Matrix: (Units=GPa)
#
#
# Indices 1 2 3 4 5 6 
#
# 1 102.8466 47.9920 25.8550 -1.4999 0.0000 0.0000
# 2 47.9920 102.8469 25.8549 1.4999 0.0000 0.0000
# 3 25.8550 25.8549 81.3824 0.0001 0.0000 0.0000
# 4 -1.4999 1.4999 0.0001 22.3995 0.0000 0.0000
# 5 0.0000 0.0000 0.0000 0.0000 22.3994 -1.4997
# 6 0.0000 0.0000 0.0000 0.0000 -1.4997 27.4276
#
#
#
# Elastic Compliance Matrix: (Units=1/GPa)
#
#
# Indices 1 2 3 4 5 6 
#
# 1 0.012868 -0.005429 -0.002364 0.001225 0.000000 0.000000
# 2 -0.005429 0.012868 -0.002364 -0.001225 0.000000 0.000000
# 3 -0.002364 -0.002364 0.013790 0.000000 0.000000 0.000000
# 4 0.001225 -0.001225 0.000000 0.044808 0.000000 0.000000
# 5 0.000000 0.000000 0.000000 0.000000 0.044808 0.002450
# 6 0.000000 0.000000 0.000000 0.000000 0.002450 0.036594
#
#
# Mechanical properties :
#
#
# Convention : Reuss Voigt Hill
#
# Bulk Modulus (GPa) = 52.04333 54.05330 53.04831
# Shear Modulus (GPa) = 25.98043 26.93689 26.45866
#
# Velocity S-wave (km/s) = 3.68445 3.75166 3.71821
# Velocity P-wave (km/s) = 6.73006 6.85640 6.79352
#
# Compressibility (1/GPa) = 0.01921476
#
# Stress axis : x y z
#
# Youngs Moduli (GPa) = 77.70949 77.70978 72.51891
#
# Poissons Ratio (x) = 0.42185 0.17141
# Poissons Ratio (y) = 0.42185 0.17141
# Poissons Ratio (z) = 0.18368 0.18368
#
# Static dielectric constant tensor:
#      x y z
#    x 3.577840 0.000000 0.000000 
#    y 0.000000 3.577840 0.000000 
#    z 0.000000 0.000000 3.263540 
# 
# 
# High freq. dielectric constant tensor:
#      x y z
#    x 1.751910 0.000000 0.000000 
#    y 0.000000 1.751910 0.000000 
#    z 0.000000 0.000000 1.719870 
# 
# From -- ./inp_files/1451.got.cif
#   From: 2010.03.12/outbox.cif.g09.slc.cpg/sg161_cif.got.tgz:1451.got - 2010.04.02 06:27:14.
