data_PCOD8322971
_publ_section_title
;
Structure prediction by ZEFSAII (Michael W. Deem and Ramdas Pophale) SiO2 
 PCOD8322971
Probable space group: P -3 1 M 
;
_chemical_formula_sum "Si O2"
_cell_formula_units_Z 96
_cell_length_a 18.633789
_cell_length_b 18.633789
_cell_length_c 19.614843
_cell_angle_alpha 90.000000
_cell_angle_beta 90.000000
_cell_angle_gamma 120.000000
_cell_volume 5898.177185
_symmetry_space_group_name_H-M "P -3 1 M "
_symmetry_group_IT_number 162
_symmetry_cell_setting 'hexagonal'
loop_
_space_group_symop_operation_xyz
x,y,z
-y,x-y,z
-x+y,-x,z
-y,-x,-z
-x+y,y,-z
x,x-y,-z
-x,-y,-z
y,-x+y,-z
x-y,x,-z
y,x,z
x-y,-y,z
-x,-x+y,z
loop_
_atom_site_type_symbol
_atom_site_label
_atom_site_fract_x
_atom_site_fract_y
_atom_site_fract_z
Si Si1 0.628824 0.533007 0.814661
Si Si2 0.346142 0.093060 0.078124
Si Si3 0.466993 0.371176 0.814661
Si Si4 0.332140 0.501367 0.329184
Si Si5 0.653858 0.746918 0.921876
Si Si6 0.254113 0.907244 0.421176
Si Si7 0.332140 0.830773 0.329184
Si Si8 0.745887 0.092756 0.421176
O O1 0.588477 0.588477 0.794714
O O2 0.558362 0.441638 0.838053
O O3 0.676826 0.528289 0.748752
O O4 0.692530 0.572666 0.876733
O O5 0.427334 0.119864 0.123267
O O6 0.311539 0.155769 0.092295
O O7 0.273117 0.000000 0.095974
O O8 0.374467 0.098584 1.000000
O O9 0.411523 0.411523 0.794714
O O10 0.471711 0.323174 0.748752
O O11 0.264579 0.529158 0.343274
O O12 0.422899 0.577101 0.344938
O O13 0.317483 0.426834 0.378436
O O14 0.726884 0.726884 0.904026
O O15 0.317483 0.890650 0.378436
O O16 0.270690 0.898081 0.500000
O O17 0.158703 0.841297 0.401380
O O18 0.271917 0.000000 0.405211
O O19 0.728083 0.000000 0.405211
#
# Coordination Sequence:
#
# PCOD8322971 Si02
#       8
#    12  12  12  12  12  12  12  12
#     4   9  17  28  43  64  87 111 142 180 219 258
#     4   9  17  29  45  64  86 113 145 180 217 258
#     4   9  17  28  43  64  87 111 142 180 219 258
#     4  10  19  30  44  63  89 120 152 184 216 250
#     4   9  17  29  45  64  86 113 145 180 217 258
#     4   9  18  32  49  68  89 114 144 178 217 260
#     4  10  19  30  44  63  89 120 152 184 216 250
#     4   9  18  32  49  68  89 114 144 178 217 260
#
# _framework density 16.276216000000002
#
# number of rings (size 3 to 8) (size 9 to 14) (size 15 to 20)
#    0.000    2.750    0.000    1.750    0.000    2.500 
#    0.000    3.750    0.000    2.500    0.000    3.500 
#    0.000    0.000    0.000    8.000    0.000   11.000 
#
# Total GULP energy -1190251.857157 kJ/mol
# GULP energy per Si atom -12398.456845 kJ/mol
# Density = 1.623917 g / cm^3
# Si number density = 16.276216 Si / 1000 Ang^3
#
#
#
# Elastic Constant Matrix: (Units=GPa)
#
#
# Indices 1 2 3 4 5 6 
#
# 1 100.3588 62.4133 49.3019 0.0000 0.0000 0.0000
# 2 62.4133 100.3588 49.3019 0.0000 0.0000 0.0000
# 3 49.3019 49.3019 63.9368 0.0000 0.0000 0.0000
# 4 0.0000 0.0000 0.0000 24.4846 0.0000 0.0000
# 5 0.0000 0.0000 0.0000 0.0000 24.4846 0.0000
# 6 0.0000 0.0000 0.0000 0.0000 0.0000 18.9728
#
#
#
# Elastic Compliance Matrix: (Units=1/GPa)
#
#
# Indices 1 2 3 4 5 6 
#
# 1 0.018941 -0.007412 -0.008890 0.000000 0.000000 0.000000
# 2 -0.007412 0.018941 -0.008890 0.000000 0.000000 0.000000
# 3 -0.008890 -0.008890 0.029351 0.000000 0.000000 0.000000
# 4 0.000000 0.000000 0.000000 0.040842 0.000000 0.000000
# 5 0.000000 0.000000 0.000000 0.000000 0.040842 0.000000
# 6 0.000000 0.000000 0.000000 0.000000 0.000000 0.052707
#
#
# Mechanical properties :
#
#
# Convention : Reuss Voigt Hill
#
# Bulk Modulus (GPa) = 59.35237 65.18763 62.27000
# Shear Modulus (GPa) = 19.40804 20.49755 19.95279
#
# Velocity S-wave (km/s) = 3.45689 3.55259 3.50506
# Velocity P-wave (km/s) = 7.24419 7.54756 7.39743
#
# Compressibility (1/GPa) = 0.01684853
#
# Stress axis : x y z
#
# Youngs Moduli (GPa) = 52.79482 52.79482 34.07070
#
# Poissons Ratio (x) = 0.39133 0.30289
# Poissons Ratio (y) = 0.39133 0.30289
# Poissons Ratio (z) = 0.46935 0.46935
#
# Static dielectric constant tensor:
#      x y z
#    x 3.084410 0.000000 0.000000 
#    y 0.000000 3.084410 0.000000 
#    z 0.000000 0.000000 3.097470 
# 
# 
# High freq. dielectric constant tensor:
#      x y z
#    x 1.618440 0.000000 0.000000 
#    y 0.000000 1.618440 0.000000 
#    z 0.000000 0.000000 1.628740 
# 
# From -- ./inp_files/3892.got.cif
#   From: 2010.03.12/outbox.cif.g09.slc.cpg/sg162_2_cif.got.tgz:3892.got - 2010.04.02 06:27:41.
