data_PCOD8322179
_publ_section_title
;
Structure prediction by ZEFSAII (Michael W. Deem and Ramdas Pophale) SiO2 
 PCOD8322179
Probable space group: P 31 2 1
;
_chemical_formula_sum "Si O2"
_cell_formula_units_Z 42
_cell_length_a 8.732600
_cell_length_b 8.732600
_cell_length_c 29.757865
_cell_angle_alpha 90.000000
_cell_angle_beta 90.000000
_cell_angle_gamma 120.000000
_cell_volume 1965.257834
_symmetry_space_group_name_H-M "P 31 2 1"
_symmetry_group_IT_number 152
_symmetry_cell_setting 'hexagonal'
loop_
_space_group_symop_operation_xyz
x,y,z
-y,x-y,1/3+z
-x+y,-x,2/3+z
x-y,-y,2/3-z
-x,-x+y,1/3-z
y,x,-z
loop_
_atom_site_type_symbol
_atom_site_label
_atom_site_fract_x
_atom_site_fract_y
_atom_site_fract_z
Si Si1 0.356358 0.862818 0.293340
Si Si2 0.187852 0.687396 0.155511
Si Si3 0.644032 0.823070 0.515590
Si Si4 0.649992 0.120358 0.458857
Si Si5 0.307519 0.480130 0.282704
Si Si6 0.179086 0.165512 0.643102
Si Si7 0.672106 0.649234 0.247420
O O1 0.506866 0.961025 0.254453
O O2 0.316583 0.661480 0.298716
O O3 0.162680 0.841038 0.286186
O O4 0.455067 0.000000 0.333334
O O5 0.157879 0.492215 0.149721
O O6 0.323110 0.772568 0.196116
O O7 0.000000 0.675134 0.166667
O O8 0.270563 0.794315 0.110507
O O9 0.827366 0.827366 0.500000
O O10 0.599800 0.798283 0.569005
O O11 0.634898 0.992573 0.498904
O O12 0.858390 0.253841 0.453272
O O13 0.228129 0.337721 0.321698
O O14 0.508662 0.521000 0.278871
O O15 0.203278 0.046208 0.606346
O O16 0.000000 0.029530 0.666667
#
# Coordination Sequence:
#
# PCOD8322179 Si02
#       7
#     6   6   6   6   6   6   6
#     4  10  23  46  67  97 130 180 227 274 341 406
#     4  11  21  41  67  97 131 171 217 271 332 409
#     4  11  25  42  67 100 131 179 218 270 345 402
#     4  11  22  45  65  98 137 166 224 280 333 411
#     4  11  23  47  66  95 136 172 227 277 337 409
#     4  11  26  44  66  97 133 176 228 281 333 408
#     4  11  24  41  66  98 127 175 217 277 343 388
#
# _framework density 21.371243
#
# number of rings (size 3 to 8) (size 9 to 14) (size 15 to 20)
#    0.000    1.143    4.286    1.714    4.000    6.286 
#    5.143    0.000    0.000    0.000    0.000    0.000 
#    0.000    0.000    0.000    0.000    0.000    0.000 
#
# Total GULP energy -520303.997136 kJ/mol
# GULP energy per Si atom -12388.190408 kJ/mol
# Density = 2.132260 g / cm^3
# Si number density = 21.371243 Si / 1000 Ang^3
#
#
#
# Elastic Constant Matrix: (Units=GPa)
#
#
# Indices 1 2 3 4 5 6 
#
# 1 96.4550 29.9575 28.1356 6.0439 0.0000 0.0000
# 2 29.9575 96.4550 28.1356 -6.0439 0.0000 0.0000
# 3 28.1356 28.1356 55.0446 0.0000 0.0000 0.0000
# 4 6.0439 -6.0439 0.0000 34.4432 0.0000 0.0000
# 5 0.0000 0.0000 0.0000 0.0000 34.4432 6.0439
# 6 0.0000 0.0000 0.0000 0.0000 6.0439 33.2488
#
#
#
# Elastic Compliance Matrix: (Units=1/GPa)
#
#
# Indices 1 2 3 4 5 6 
#
# 1 0.012887 -0.002646 -0.005234 -0.002726 0.000000 0.000000
# 2 -0.002646 0.012887 -0.005234 0.002726 0.000000 0.000000
# 3 -0.005234 -0.005234 0.023518 0.000000 0.000000 0.000000
# 4 -0.002726 0.002726 0.000000 0.029990 0.000000 0.000000
# 5 0.000000 0.000000 0.000000 0.000000 0.029990 -0.005452
# 6 0.000000 0.000000 0.000000 0.000000 -0.005452 0.031067
#
#
# Mechanical properties :
#
#
# Convention : Reuss Voigt Hill
#
# Bulk Modulus (GPa) = 43.36182 46.71245 45.03714
# Shear Modulus (GPa) = 28.69315 31.20874 29.95094
#
# Velocity S-wave (km/s) = 3.66813 3.82555 3.74767
# Velocity P-wave (km/s) = 6.18661 6.43570 6.31238
#
# Compressibility (1/GPa) = 0.02306176
#
# Stress axis : x y z
#
# Youngs Moduli (GPa) = 77.59667 77.59667 42.52032
#
# Poissons Ratio (x) = 0.20536 0.22257
# Poissons Ratio (y) = 0.20536 0.22257
# Poissons Ratio (z) = 0.40617 0.40617
#
# Static dielectric constant tensor:
#      x y z
#    x 4.122290 0.000000 0.000000 
#    y 0.000000 4.122290 0.000000 
#    z 0.000000 0.000000 3.936700 
# 
# 
# High freq. dielectric constant tensor:
#      x y z
#    x 1.846310 0.000000 0.000000 
#    y 0.000000 1.846310 0.000000 
#    z 0.000000 0.000000 1.831660 
# 
# From -- ./inp_files/3739.got.cif
#   From: 2010.03.12/outbox.cif.g09.slc.cpg/sg152_2_cif.got.tgz:3739.got - 2010.04.03 13:45:27.
