data_PCOD8322463
_publ_section_title
;
Structure prediction by ZEFSAII (Michael W. Deem and Ramdas Pophale) SiO2 
 PCOD8322463
Probable space group: R 3 2
;
_chemical_formula_sum "Si O2"
_cell_formula_units_Z 108
_cell_length_a 17.408674
_cell_length_b 17.408674
_cell_length_c 21.779026
_cell_angle_alpha 90.000000
_cell_angle_beta 90.000000
_cell_angle_gamma 120.000000
_cell_volume 5716.108587
_symmetry_space_group_name_H-M "R 3 2"
_symmetry_group_IT_number 155
_symmetry_cell_setting 'hexagonal'
loop_
_space_group_symop_operation_xyz
x,y,z
-y,x-y,z
-x+y,-x,z
x-y,-y,-z
-x,-x+y,-z
y,x,-z
2/3+x,1/3+y,1/3+z
2/3-y,1/3+x-y,1/3+z
2/3-x+y,1/3-x,1/3+z
2/3+x-y,1/3-y,1/3-z
2/3-x,1/3-x+y,1/3-z
2/3+y,1/3+x,1/3-z
1/3+x,2/3+y,2/3+z
1/3-y,2/3+x-y,2/3+z
1/3-x+y,2/3-x,2/3+z
1/3+x-y,2/3-y,2/3-z
1/3-x,2/3-x+y,2/3-z
1/3+y,2/3+x,2/3-z
loop_
_atom_site_type_symbol
_atom_site_label
_atom_site_fract_x
_atom_site_fract_y
_atom_site_fract_z
Si Si1 0.862380 0.561891 0.656943
Si Si2 0.058620 0.776130 0.560488
Si Si3 0.410440 0.131437 0.618147
Si Si4 0.249306 0.341654 0.761922
Si Si5 0.570891 0.579629 0.820680
Si Si6 0.061747 0.287059 0.942301
O O1 0.903544 0.666667 0.666667
O O2 0.874068 0.520940 0.720083
O O3 0.757081 0.524066 0.641678
O O4 0.910343 0.541801 0.601115
O O5 0.060212 0.688295 0.582654
O O6 0.159380 0.850868 0.553001
O O7 0.000000 0.757174 0.500000
O O8 0.333334 0.081119 0.666667
O O9 0.379238 0.145951 0.551475
O O10 0.446573 0.062517 0.612211
O O11 0.225869 0.333334 0.833334
O O12 0.208413 0.397982 0.730366
O O13 0.666667 0.589991 0.833334
O O14 0.584752 0.666365 0.784346
O O15 0.000000 0.235816 0.000000
#
# Coordination Sequence:
#
# PCOD8322463 Si02
#       6
#    18  18  18  18  18  18
#     4   9  17  29  47  72  98 128 167 212 260 307
#     4  10  19  32  53  79 105 136 175 219 264 315
#     4   9  16  29  47  69  98 130 167 211 257 311
#     4  10  18  30  48  73 102 133 172 220 263 308
#     4  10  19  32  51  77 105 138 176 216 265 315
#     4  10  20  32  49  74 104 137 176 222 268 312
#
# _framework density 18.893972000000002
#
# number of rings (size 3 to 8) (size 9 to 14) (size 15 to 20)
#    0.000    2.333    0.000    6.500    0.000    0.000 
#    0.000    0.000    0.000    1.667    0.000   31.500 
#    0.000    0.000    0.000    0.000    0.000    0.000 
#
# Total GULP energy -446033.692772 kJ/mol
# GULP energy per Si atom -12389.824799 kJ/mol
# Density = 1.885097 g / cm^3
# Si number density = 18.893972 Si / 1000 Ang^3
#
#
#
# Elastic Constant Matrix: (Units=GPa)
#
#
# Indices 1 2 3 4 5 6 
#
# 1 71.9676 40.0576 30.2645 -5.5229 -0.0005 0.0000
# 2 40.0576 71.9676 30.2645 5.5229 0.0005 0.0000
# 3 30.2645 30.2645 117.6401 0.0000 0.0000 0.0000
# 4 -5.5229 5.5229 0.0000 16.3369 0.0000 0.0005
# 5 -0.0005 0.0005 0.0000 0.0000 16.3369 -5.5229
# 6 0.0000 0.0000 0.0000 0.0005 -5.5229 15.9550
#
#
#
# Elastic Compliance Matrix: (Units=1/GPa)
#
#
# Indices 1 2 3 4 5 6 
#
# 1 0.022930 -0.012562 -0.002667 0.011998 0.000001 0.000000
# 2 -0.012562 0.022930 -0.002667 -0.011998 -0.000001 0.000000
# 3 -0.002667 -0.002667 0.009873 0.000000 0.000000 0.000000
# 4 0.011998 -0.011998 0.000000 0.069324 0.000000 -0.000002
# 5 0.000001 -0.000001 0.000000 0.000000 0.069324 0.023996
# 6 0.000000 0.000000 0.000000 -0.000002 0.023996 0.070983
#
#
# Mechanical properties :
#
#
# Convention : Reuss Voigt Hill
#
# Bulk Modulus (GPa) = 50.15207 51.41649 50.78428
# Shear Modulus (GPa) = 16.24428 20.45834 18.35131
#
# Velocity S-wave (km/s) = 2.93535 3.29416 3.11992
# Velocity P-wave (km/s) = 6.17170 6.46072 6.31786
#
# Compressibility (1/GPa) = 0.01993936
#
# Stress axis : x y z
#
# Youngs Moduli (GPa) = 43.61190 43.61190 101.28776
#
# Poissons Ratio (x) = 0.54784 0.27016
# Poissons Ratio (y) = 0.54784 0.27016
# Poissons Ratio (z) = 0.11632 0.11632
#
# Static dielectric constant tensor:
#      x y z
#    x 3.396540 0.000000 0.000000 
#    y 0.000000 3.396540 0.000000 
#    z 0.000000 0.000000 3.824010 
# 
# 
# High freq. dielectric constant tensor:
#      x y z
#    x 1.702590 0.000000 0.000000 
#    y 0.000000 1.702590 0.000000 
#    z 0.000000 0.000000 1.761640 
# 
# From -- ./inp_files/6989.got.cif
#   From: 2010.03.12/outbox.cif.g09.slc.cpg/sg155_4_cif.got.tgz:6989.got - 2010.04.03 13:54:13.
