data_PCOD8322773
_publ_section_title
;
Structure prediction by ZEFSAII (Michael W. Deem and Ramdas Pophale) SiO2 
 PCOD8322773
Probable space group: P 3 C 1
;
_chemical_formula_sum "Si O2"
_cell_formula_units_Z 42
_cell_length_a 11.320175
_cell_length_b 11.320175
_cell_length_c 17.327828
_cell_angle_alpha 90.000000
_cell_angle_beta 90.000000
_cell_angle_gamma 120.000000
_cell_volume 1923.007781
_symmetry_space_group_name_H-M "P 3 C 1"
_symmetry_group_IT_number 158
_symmetry_cell_setting 'hexagonal'
loop_
_space_group_symop_operation_xyz
x,y,z
-y,x-y,z
-x+y,-x,z
-x+y,y,1/2+z
x,x-y,1/2+z
-y,-x,1/2+z
loop_
_atom_site_type_symbol
_atom_site_label
_atom_site_fract_x
_atom_site_fract_y
_atom_site_fract_z
Si Si1 0.605229 0.917018 0.919730
Si Si2 0.248026 0.964164 0.576258
Si Si3 0.906731 0.600571 0.702296
Si Si4 0.641069 0.052963 0.232116
Si Si5 0.153550 0.000091 0.307956
Si Si6 0.590624 0.945687 0.393348
Si Si7 0.753115 0.039519 0.545654
O O1 0.757332 0.995947 0.881934
O O2 0.504667 0.963757 0.885427
O O3 0.543485 0.755494 0.907793
O O4 0.612274 0.954825 0.009876
O O5 0.108083 0.825265 0.573267
O O6 0.314806 0.978512 0.659422
O O7 0.220737 0.085026 0.551442
O O8 0.750859 0.537140 0.730450
O O9 0.969242 0.510657 0.733081
O O10 0.908247 0.593755 0.609269
O O11 0.993185 0.758254 0.732690
O O12 0.663894 0.990856 0.310505
O O13 0.000243 0.866430 0.308397
O O14 0.694009 0.039765 0.460930
#
# Coordination Sequence:
#
# PCOD8322773 Si02
#       7
#     6   6   6   6   6   6   6
#     4  11  23  43  65  95 135 172 219 271 328 398
#     4  10  24  40  64  97 134 174 219 276 334 394
#     4  11  23  43  65  95 135 172 219 271 328 398
#     4  11  24  42  64  95 131 173 223 267 330 397
#     4  10  24  38  68 106 132 164 216 286 336 378
#     4  11  24  42  64  95 131 173 223 267 330 397
#     4  10  24  40  64  97 134 174 219 276 334 394
#
# _framework density 21.840786999999999
#
# number of rings (size 3 to 8) (size 9 to 14) (size 15 to 20)
#    0.286    1.143    1.429    2.571   12.000    0.000 
#    0.000    0.000    0.000    4.571    0.000    0.000 
#    0.000    0.000    0.000    0.000    0.000    0.000 
#
# Total GULP energy -520550.069394 kJ/mol
# GULP energy per Si atom -12394.049271 kJ/mol
# Density = 2.179108 g / cm^3
# Si number density = 21.840787 Si / 1000 Ang^3
#
#
#
# Elastic Constant Matrix: (Units=GPa)
#
#
# Indices 1 2 3 4 5 6 
#
# 1 85.5154 39.3529 46.8483 -3.4987 0.0000 0.0000
# 2 39.3529 85.5154 46.8483 3.4987 0.0000 0.0000
# 3 46.8483 46.8483 193.0022 0.0000 0.0000 0.0000
# 4 -3.4987 3.4987 0.0000 26.8229 0.0000 0.0000
# 5 0.0000 0.0000 0.0000 0.0000 26.8229 -3.4987
# 6 0.0000 0.0000 0.0000 0.0000 -3.4987 23.0813
#
#
#
# Elastic Compliance Matrix: (Units=1/GPa)
#
#
# Indices 1 2 3 4 5 6 
#
# 1 0.015946 -0.006154 -0.002377 0.002883 0.000000 0.000000
# 2 -0.006154 0.015946 -0.002377 -0.002883 0.000000 0.000000
# 3 -0.002377 -0.002377 0.006335 0.000000 0.000000 0.000000
# 4 0.002883 -0.002883 0.000000 0.038034 0.000000 0.000000
# 5 0.000000 0.000000 0.000000 0.000000 0.038034 0.005765
# 6 0.000000 0.000000 0.000000 0.000000 0.005765 0.044199
#
#
# Mechanical properties :
#
#
# Convention : Reuss Voigt Hill
#
# Bulk Modulus (GPa) = 60.93224 70.01468 65.47346
# Shear Modulus (GPa) = 26.91377 30.74431 28.82904
#
# Velocity S-wave (km/s) = 3.51418 3.75594 3.63707
# Velocity P-wave (km/s) = 6.66520 7.13694 6.90510
#
# Compressibility (1/GPa) = 0.01641167
#
# Stress axis : x y z
#
# Youngs Moduli (GPa) = 62.71269 62.71269 157.84896
#
# Poissons Ratio (x) = 0.38592 0.37518
# Poissons Ratio (y) = 0.38592 0.37518
# Poissons Ratio (z) = 0.14906 0.14906
#
# Static dielectric constant tensor:
#      x y z
#    x 3.754190 0.000000 0.000000 
#    y 0.000000 3.754190 0.000000 
#    z 0.000000 0.000000 4.197220 
# 
# 
# High freq. dielectric constant tensor:
#      x y z
#    x 1.850880 0.000000 0.000000 
#    y 0.000000 1.850880 0.000000 
#    z 0.000000 0.000000 1.876770 
# 
# From -- ./inp_files/661.got.cif
#   From: 2010.03.12/outbox.cif.g09.slc.cpg/sg158_cif.got.tgz:661.got - 2010.04.03 13:59:47.
