data_PCOD8322978
_publ_section_title
;
Structure prediction by ZEFSAII (Michael W. Deem and Ramdas Pophale) SiO2 
 PCOD8322978
Probable space group: P -3 1 M 
;
_chemical_formula_sum "Si O2"
_cell_formula_units_Z 96
_cell_length_a 17.801645
_cell_length_b 17.801645
_cell_length_c 20.353104
_cell_angle_alpha 90.000000
_cell_angle_beta 90.000000
_cell_angle_gamma 120.000000
_cell_volume 5585.750790
_symmetry_space_group_name_H-M "P -3 1 M "
_symmetry_group_IT_number 162
_symmetry_cell_setting 'hexagonal'
loop_
_space_group_symop_operation_xyz
x,y,z
-y,x-y,z
-x+y,-x,z
-y,-x,-z
-x+y,y,-z
x,x-y,-z
-x,-y,-z
y,-x+y,-z
x-y,x,-z
y,x,z
x-y,-y,z
-x,-x+y,z
loop_
_atom_site_type_symbol
_atom_site_label
_atom_site_fract_x
_atom_site_fract_y
_atom_site_fract_z
Si Si1 0.099494 0.731552 0.878746
Si Si2 0.101546 0.466753 0.245877
Si Si3 0.268449 0.367943 0.121253
Si Si4 0.510046 0.841967 0.999999
Si Si5 0.533245 0.898453 0.245875
Si Si6 0.504680 0.668824 0.612761
Si Si7 0.733440 0.095612 0.499999
Si Si8 0.495320 0.331176 0.612760
O O1 0.126863 0.703999 0.811869
O O2 0.165088 0.834913 0.889100
O O3 0.000000 0.711250 0.876888
O O4 0.109487 0.676535 0.936690
O O5 0.134049 0.567023 0.227389
O O6 0.146210 0.461355 0.312626
O O7 0.000000 0.416648 0.258179
O O8 0.288752 0.288752 0.123115
O O9 0.323464 0.432949 0.063306
O O10 0.296003 0.422871 0.188128
O O11 0.425716 0.851432 0.000000
O O12 0.481687 0.740844 0.000000
O O13 0.538644 0.853791 0.312624
O O14 0.583353 0.000000 0.258175
O O15 0.582426 0.686792 0.564519
O O16 0.428710 0.571290 0.601272
O O17 0.470324 0.735161 0.596615
O O18 0.835651 0.164350 0.500000
O O19 0.686791 0.104367 0.564517
O O20 0.721857 0.000000 0.500000
#
# Coordination Sequence:
#
# PCOD8322978 Si02
#       8
#    12  12  12  12  12  12  12  12
#     4  10  20  33  49  69  93 122 157 196 237 279
#     4   9  17  29  46  68  93 122 157 195 232 272
#     4  10  20  33  49  69  93 122 157 196 237 279
#     4  10  20  33  50  73 100 128 155 184 220 265
#     4   9  17  29  46  68  93 122 157 195 232 272
#     4  10  19  30  45  67  97 131 164 194 223 258
#     4  10  21  35  51  70  91 117 150 190 235 281
#     4  10  19  30  45  67  97 131 164 194 223 258
#
# _framework density 17.186589000000001
#
# number of rings (size 3 to 8) (size 9 to 14) (size 15 to 20)
#    0.000    2.250    0.000    3.375    0.000    4.000 
#    0.000    1.250    0.000    8.375    0.000    0.000 
#    0.000    3.000    0.000    8.000    0.000    0.000 
#
# Total GULP energy -1190376.754949 kJ/mol
# GULP energy per Si atom -12399.757864 kJ/mol
# Density = 1.714747 g / cm^3
# Si number density = 17.186589 Si / 1000 Ang^3
#
#
#
# Elastic Constant Matrix: (Units=GPa)
#
#
# Indices 1 2 3 4 5 6 
#
# 1 89.5267 53.4721 44.8275 0.0000 -0.0003 0.0000
# 2 53.4721 89.5267 44.8275 0.0000 0.0003 0.0000
# 3 44.8275 44.8275 92.0681 0.0000 0.0000 0.0000
# 4 0.0000 0.0000 0.0000 21.0729 0.0000 0.0003
# 5 -0.0003 0.0003 0.0000 0.0000 21.0729 0.0000
# 6 0.0000 0.0000 0.0000 0.0003 0.0000 18.0273
#
#
#
# Elastic Compliance Matrix: (Units=1/GPa)
#
#
# Indices 1 2 3 4 5 6 
#
# 1 0.018901 -0.008835 -0.004901 0.000000 0.000000 0.000000
# 2 -0.008835 0.018901 -0.004901 0.000000 0.000000 0.000000
# 3 -0.004901 -0.004901 0.015634 0.000000 0.000000 0.000000
# 4 0.000000 0.000000 0.000000 0.047454 0.000000 -0.000001
# 5 0.000000 0.000000 0.000000 0.000000 0.047454 0.000000
# 6 0.000000 0.000000 0.000000 -0.000001 0.000000 0.055471
#
#
# Mechanical properties :
#
#
# Convention : Reuss Voigt Hill
#
# Bulk Modulus (GPa) = 61.87462 61.93061 61.90262
# Shear Modulus (GPa) = 20.28590 20.56760 20.42675
#
# Velocity S-wave (km/s) = 3.43932 3.46312 3.45124
# Velocity P-wave (km/s) = 7.20082 7.21827 7.20955
#
# Compressibility (1/GPa) = 0.01616172
#
# Stress axis : x y z
#
# Youngs Moduli (GPa) = 52.90790 52.90790 63.96298
#
# Poissons Ratio (x) = 0.46744 0.31348
# Poissons Ratio (y) = 0.46744 0.31348
# Poissons Ratio (z) = 0.25930 0.25930
#
# Static dielectric constant tensor:
#      x y z
#    x 3.043750 0.000000 0.000000 
#    y 0.000000 3.043750 0.000000 
#    z 0.000000 0.000000 3.427430 
# 
# 
# High freq. dielectric constant tensor:
#      x y z
#    x 1.645140 0.000000 0.000000 
#    y 0.000000 1.645140 0.000000 
#    z 0.000000 0.000000 1.684010 
# 
# From -- ./inp_files/3895.got.cif
#   From: 2010.03.12/outbox.cif.g09.slc.cpg/sg162_2_cif.got.tgz:3895.got - 2010.04.02 06:27:41.
