data_PCOD8322150
_publ_section_title
;
Structure prediction by ZEFSAII (Michael W. Deem and Ramdas Pophale) SiO2 
 PCOD8322150
Probable space group: P 31 2 1
;
_chemical_formula_sum "Si O2"
_cell_formula_units_Z 48
_cell_length_a 11.986422
_cell_length_b 11.986422
_cell_length_c 19.196648
_cell_angle_alpha 90.000000
_cell_angle_beta 90.000000
_cell_angle_gamma 120.000000
_cell_volume 2388.554529
_symmetry_space_group_name_H-M "P 31 2 1"
_symmetry_group_IT_number 152
_symmetry_cell_setting 'hexagonal'
loop_
_space_group_symop_operation_xyz
x,y,z
-y,x-y,1/3+z
-x+y,-x,2/3+z
x-y,-y,2/3-z
-x,-x+y,1/3-z
y,x,-z
loop_
_atom_site_type_symbol
_atom_site_label
_atom_site_fract_x
_atom_site_fract_y
_atom_site_fract_z
Si Si1 0.743723 0.716492 0.250110
Si Si2 0.399647 0.780091 0.299367
Si Si3 0.994208 0.849409 0.005813
Si Si4 0.528346 0.688861 0.102225
Si Si5 0.978967 0.683593 0.884791
Si Si6 0.463129 0.574186 0.251981
Si Si7 0.107782 0.349736 0.570689
Si Si8 0.058958 0.747814 0.595543
O O1 0.604770 0.610136 0.283002
O O2 0.779095 0.670553 0.178845
O O3 0.718214 0.833144 0.232823
O O4 0.860640 0.758475 0.302833
O O5 0.373046 0.785811 0.380654
O O6 0.394674 0.645103 0.287842
O O7 0.293096 0.793027 0.254007
O O8 0.541088 0.893668 0.279760
O O9 0.892814 0.737740 0.056684
O O10 0.968612 0.968612 0.000000
O O11 0.983064 0.800326 0.927041
O O12 0.563242 0.833417 0.121272
O O13 0.481574 0.601230 0.169941
O O14 0.653561 0.689163 0.069508
O O15 0.034813 0.727598 0.805615
O O16 0.060376 0.635928 0.929356
O O17 0.000000 0.769516 0.666667
#
# Coordination Sequence:
#
# PCOD8322150 Si02
#       8
#     6   6   6   6   6   6   6   6
#     4  10  22  37  59  87 125 159 202 258 306 371
#     4  11  20  35  63  90 117 159 204 263 306 370
#     4  12  22  38  60  91 123 162 207 246 316 368
#     4  11  20  37  64  90 121 156 210 268 302 361
#     4  12  22  40  61  91 130 156 205 270 306 381
#     4  10  24  39  57  93 125 162 205 249 324 365
#     4  11  19  37  60  91 117 152 213 259 302 358
#     4  11  20  37  61  90 119 158 209 255 310 361
#
# _framework density 20.095835000000001
#
# number of rings (size 3 to 8) (size 9 to 14) (size 15 to 20)
#    0.000    1.000    6.250    4.125    0.000    1.000 
#    0.000    1.875    0.000    0.000    0.000    1.750 
#    0.000    0.000    0.000    0.000    0.000    0.000 
#
# Total GULP energy -595063.435508 kJ/mol
# GULP energy per Si atom -12397.154906 kJ/mol
# Density = 2.005010 g / cm^3
# Si number density = 20.095835 Si / 1000 Ang^3
#
#
#
# Elastic Constant Matrix: (Units=GPa)
#
#
# Indices 1 2 3 4 5 6 
#
# 1 75.0508 27.0694 30.6003 3.0568 0.0000 0.0000
# 2 27.0694 75.0508 30.6003 -3.0568 0.0000 0.0000
# 3 30.6003 30.6003 96.7495 0.0000 0.0000 0.0000
# 4 3.0568 -3.0568 0.0000 28.0078 0.0000 0.0000
# 5 0.0000 0.0000 0.0000 0.0000 28.0078 3.0568
# 6 0.0000 0.0000 0.0000 0.0000 3.0568 23.9907
#
#
#
# Elastic Compliance Matrix: (Units=1/GPa)
#
#
# Indices 1 2 3 4 5 6 
#
# 1 0.016609 -0.004526 -0.003822 -0.002307 0.000000 0.000000
# 2 -0.004526 0.016609 -0.003822 0.002307 0.000000 0.000000
# 3 -0.003822 -0.003822 0.012753 0.000000 0.000000 0.000000
# 4 -0.002307 0.002307 0.000000 0.036208 0.000000 0.000000
# 5 0.000000 0.000000 0.000000 0.000000 0.036208 -0.004613
# 6 0.000000 0.000000 0.000000 0.000000 -0.004613 0.042271
#
#
# Mechanical properties :
#
#
# Convention : Reuss Voigt Hill
#
# Bulk Modulus (GPa) = 46.22685 47.04346 46.63516
# Shear Modulus (GPa) = 26.01355 26.57332 26.29344
#
# Velocity S-wave (km/s) = 3.60178 3.64033 3.62111
# Velocity P-wave (km/s) = 6.35219 6.41325 6.38279
#
# Compressibility (1/GPa) = 0.02163245
#
# Stress axis : x y z
#
# Youngs Moduli (GPa) = 60.20835 60.20835 78.41078
#
# Poissons Ratio (x) = 0.27252 0.29965
# Poissons Ratio (y) = 0.27252 0.29965
# Poissons Ratio (z) = 0.23009 0.23009
#
# Static dielectric constant tensor:
#      x y z
#    x 3.611900 0.000000 0.000000 
#    y 0.000000 3.611900 0.000000 
#    z 0.000000 0.000000 3.623950 
# 
# 
# High freq. dielectric constant tensor:
#      x y z
#    x 1.770500 0.000000 0.000000 
#    y 0.000000 1.770500 0.000000 
#    z 0.000000 0.000000 1.785640 
# 
# From -- ./inp_files/2835.got.cif
#   From: 2010.03.12/outbox.cif.g09.slc.cpg/sg152_2_cif.got.tgz:2835.got - 2010.04.03 13:45:27.
