data_PCOD8322862
_publ_section_title
;
Structure prediction by ZEFSAII (Michael W. Deem and Ramdas Pophale) SiO2 
 PCOD8322862
Probable space group: R 3 M
;
_chemical_formula_sum "Si O2"
_cell_formula_units_Z 126
_cell_length_a 17.034454
_cell_length_b 17.034454
_cell_length_c 26.773927
_cell_angle_alpha 90.000000
_cell_angle_beta 90.000000
_cell_angle_gamma 120.000000
_cell_volume 6728.203867
_symmetry_space_group_name_H-M "R 3 M"
_symmetry_group_IT_number 160
_symmetry_cell_setting 'hexagonal'
loop_
_space_group_symop_operation_xyz
x,y,z
-y,x-y,z
-x+y,-x,z
-x+y,y,z
x,x-y,z
-y,-x,z
2/3+x,1/3+y,1/3+z
2/3-y,1/3+x-y,1/3+z
2/3-x+y,1/3-x,1/3+z
2/3-x+y,1/3+y,1/3+z
2/3+x,1/3+x-y,1/3+z
2/3-y,1/3-x,1/3+z
1/3+x,2/3+y,2/3+z
1/3-y,2/3+x-y,2/3+z
1/3-x+y,2/3-x,2/3+z
1/3-x+y,2/3+y,2/3+z
1/3+x,2/3+x-y,2/3+z
1/3-y,2/3-x,2/3+z
loop_
_atom_site_type_symbol
_atom_site_label
_atom_site_fract_x
_atom_site_fract_y
_atom_site_fract_z
Si Si1 0.096257 0.377695 0.957673
Si Si2 0.745098 0.671809 0.108177
Si Si3 0.170588 0.000707 0.840241
Si Si4 0.722894 0.095993 0.522378
Si Si5 0.826005 0.825574 0.958357
Si Si6 0.178673 0.999230 0.482749
Si Si7 0.902764 0.274472 0.718999
O O1 0.197990 0.395979 0.957780
O O2 0.076366 0.399741 0.902782
O O3 0.025774 0.274506 0.974941
O O4 0.084170 0.439705 0.998497
O O5 0.841810 0.683619 0.091361
O O6 0.696991 0.601452 0.153212
O O7 0.755209 0.760503 0.136522
O O8 0.674495 0.635040 0.062076
O O9 0.068705 0.931296 0.822089
O O10 0.199259 0.099630 0.818640
O O11 0.174742 0.002244 0.899162
O O12 0.800769 0.199232 0.529437
O O13 0.765464 0.029729 0.519205
O O14 0.901591 0.803181 0.980270
O O15 0.849724 0.924862 0.977862
O O16 0.095454 0.904547 0.502783
O O17 0.206013 0.989126 0.426764
O O18 0.147526 0.073763 0.481844
O O19 0.834573 0.165428 0.719500
#
# Coordination Sequence:
#
# PCOD8322862 Si02
#       7
#    18  18  18  18  18  18  18
#     4  11  21  35  54  76 103 139 178 216 260 310
#     4  10  19  34  55  77 104 137 174 214 256 309
#     4   9  15  25  44  73 105 134 164 205 254 303
#     4  10  20  34  53  77 105 137 173 216 264 310
#     4   9  17  28  46  73 105 136 168 210 260 309
#     4   9  18  33  54  80 107 138 174 216 262 310
#     4  10  21  35  53  78 107 139 175 217 261 307
#
# _framework density 18.727138
#
# number of rings (size 3 to 8) (size 9 to 14) (size 15 to 20)
#    0.000    2.286    1.429    2.143    0.000    3.429 
#    0.000    0.000    0.000    6.286    0.000    1.000 
#    0.000    0.000    0.000    0.000    0.000    0.000 
#
# Total GULP energy -520528.244894 kJ/mol
# GULP energy per Si atom -12393.529640 kJ/mol
# Density = 1.868451 g / cm^3
# Si number density = 18.727138 Si / 1000 Ang^3
#
#
#
# Elastic Constant Matrix: (Units=GPa)
#
#
# Indices 1 2 3 4 5 6 
#
# 1 87.6390 44.3126 25.9284 -0.2661 -0.0001 0.0000
# 2 44.3126 87.6390 25.9284 0.2661 0.0001 0.0000
# 3 25.9284 25.9284 63.6132 0.0000 0.0000 0.0000
# 4 -0.2661 0.2661 0.0000 21.7994 0.0000 0.0001
# 5 -0.0001 0.0001 0.0000 0.0000 21.7994 -0.2661
# 6 0.0000 0.0000 0.0000 0.0001 -0.2661 21.6632
#
#
#
# Elastic Compliance Matrix: (Units=1/GPa)
#
#
# Indices 1 2 3 4 5 6 
#
# 1 0.016054 -0.007030 -0.003678 0.000282 0.000000 0.000000
# 2 -0.007030 0.016054 -0.003678 -0.000282 0.000000 0.000000
# 3 -0.003678 -0.003678 0.018718 0.000000 0.000000 0.000000
# 4 0.000282 -0.000282 0.000000 0.045880 0.000000 0.000000
# 5 0.000000 0.000000 0.000000 0.000000 0.045880 0.000563
# 6 0.000000 0.000000 0.000000 0.000000 0.000563 0.046168
#
#
# Mechanical properties :
#
#
# Convention : Reuss Voigt Hill
#
# Bulk Modulus (GPa) = 45.34352 47.91446 46.62899
# Shear Modulus (GPa) = 22.23427 22.56718 22.40072
#
# Velocity S-wave (km/s) = 3.44942 3.47515 3.46231
# Velocity P-wave (km/s) = 6.33482 6.46091 6.39818
#
# Compressibility (1/GPa) = 0.02205387
#
# Stress axis : x y z
#
# Youngs Moduli (GPa) = 62.28959 62.28959 53.42336
#
# Poissons Ratio (x) = 0.43790 0.19650
# Poissons Ratio (y) = 0.43790 0.19650
# Poissons Ratio (z) = 0.22911 0.22911
#
# Static dielectric constant tensor:
#      x y z
#    x 3.605910 0.000000 0.000000 
#    y 0.000000 3.605910 0.000000 
#    z 0.000000 0.000000 3.117160 
# 
# 
# High freq. dielectric constant tensor:
#      x y z
#    x 1.727930 0.000000 0.000000 
#    y 0.000000 1.727930 0.000000 
#    z 0.000000 0.000000 1.700230 
# 
# From -- ./inp_files/3770.got.cif
#   From: 2010.03.12/outbox.cif.g09.slc.cpg/sg160_2_cif.got.tgz:3770.got - 2010.04.02 06:26:15.
