data_PCOD8322828
_publ_section_title
;
Structure prediction by ZEFSAII (Michael W. Deem and Ramdas Pophale) SiO2 
 PCOD8322828
Probable space group: P 3 1 C
;
_chemical_formula_sum "Si O2"
_cell_formula_units_Z 36
_cell_length_a 11.277981
_cell_length_b 11.277981
_cell_length_c 14.801334
_cell_angle_alpha 90.000000
_cell_angle_beta 90.000000
_cell_angle_gamma 120.000000
_cell_volume 1630.400154
_symmetry_space_group_name_H-M "P 3 1 C"
_symmetry_group_IT_number 159
_symmetry_cell_setting 'hexagonal'
loop_
_space_group_symop_operation_xyz
x,y,z
-y,x-y,z
-x+y,-x,z
y,x,1/2+z
x-y,-y,1/2+z
-x,-x+y,1/2+z
loop_
_atom_site_type_symbol
_atom_site_label
_atom_site_fract_x
_atom_site_fract_y
_atom_site_fract_z
Si Si1 0.545122 0.581117 0.968000
Si Si2 0.000000 0.847613 0.570520
Si Si3 0.247147 0.362503 0.922400
Si Si4 0.343423 0.823567 0.320520
Si Si5 0.545122 0.581117 0.673040
Si Si6 0.247147 0.362503 0.718640
O O1 0.399388 0.489564 0.921198
O O2 0.585722 0.737675 0.966358
O O3 0.654118 0.558183 0.910964
O O4 0.534960 0.534961 0.070520
O O5 0.997535 0.764363 0.481472
O O6 0.002465 0.766828 0.659567
O O7 0.864423 0.864423 0.570520
O O8 0.200835 0.310344 0.820520
O O9 0.202891 0.676755 0.320520
O O10 0.345882 0.904064 0.230076
O O11 0.399387 0.489564 0.719842
O O12 0.585723 0.737675 0.674681
#
# Coordination Sequence:
#
# PCOD8322828 Si02
#       6
#     6   6   6   6   6   6
#     4  12  26  45  74 106 140 183 234 303 355 429
#     4  10  26  48  64 102 142 190 242 280 346 432
#     4  12  24  46  74 106 142 184 238 296 361 422
#     4  10  26  46  68 104 142 184 234 282 358 430
#     4  12  26  45  74 106 140 183 234 303 355 429
#     4  12  24  46  74 106 142 184 238 296 361 422
#
# _framework density 22.080469000000001
#
# number of rings (size 3 to 8) (size 9 to 14) (size 15 to 20)
#    0.667    0.000    5.000    1.667    4.667    4.000 
#    0.000    0.000    0.000    0.000    0.000    0.000 
#    0.000    0.000    0.000    0.000    0.000    0.000 
#
# Total GULP energy -446538.136971 kJ/mol
# GULP energy per Si atom -12403.837138 kJ/mol
# Density = 2.203021 g / cm^3
# Si number density = 22.080469 Si / 1000 Ang^3
#
#
#
# Elastic Constant Matrix: (Units=GPa)
#
#
# Indices 1 2 3 4 5 6 
#
# 1 79.2522 13.2530 27.6431 0.0000 0.0000 0.0000
# 2 13.2530 79.2522 27.6431 0.0000 0.0000 0.0000
# 3 27.6431 27.6431 146.1973 0.0000 0.0000 0.0000
# 4 0.0000 0.0000 0.0000 25.4228 0.0000 0.0000
# 5 0.0000 0.0000 0.0000 0.0000 25.4228 0.0000
# 6 0.0000 0.0000 0.0000 0.0000 0.0000 32.9996
#
#
#
# Elastic Compliance Matrix: (Units=1/GPa)
#
#
# Indices 1 2 3 4 5 6 
#
# 1 0.013670 -0.001482 -0.002304 0.000000 0.000000 0.000000
# 2 -0.001482 0.013670 -0.002304 0.000000 0.000000 0.000000
# 3 -0.002304 -0.002304 0.007712 0.000000 0.000000 0.000000
# 4 0.000000 0.000000 0.000000 0.039335 0.000000 0.000000
# 5 0.000000 0.000000 0.000000 0.000000 0.039335 0.000000
# 6 0.000000 0.000000 0.000000 0.000000 0.000000 0.030303
#
#
# Mechanical properties :
#
#
# Convention : Reuss Voigt Hill
#
# Bulk Modulus (GPa) = 43.72777 49.08667 46.40722
# Shear Modulus (GPa) = 30.51975 32.51321 31.51648
#
# Velocity S-wave (km/s) = 3.72184 3.84146 3.78212
# Velocity P-wave (km/s) = 6.19001 6.47726 6.33526
#
# Compressibility (1/GPa) = 0.02286876
#
# Stress axis : x y z
#
# Youngs Moduli (GPa) = 73.15512 73.15512 129.67626
#
# Poissons Ratio (x) = 0.10843 0.29883
# Poissons Ratio (y) = 0.10843 0.29883
# Poissons Ratio (z) = 0.16858 0.16858
#
# Static dielectric constant tensor:
#      x y z
#    x 3.877820 0.000000 0.000000 
#    y 0.000000 3.877820 0.000000 
#    z 0.000000 0.000000 4.015810 
# 
# 
# High freq. dielectric constant tensor:
#      x y z
#    x 1.867570 0.000000 0.000000 
#    y 0.000000 1.867570 0.000000 
#    z 0.000000 0.000000 1.880520 
# 
# From -- ./inp_files/888.got.cif
#   From: 2010.03.12/outbox.cif.g09.slc.cpg/sg159_cif.got.tgz:888.got - 2010.04.03 14:00:19.
