data_PCOD8322887
_publ_section_title
;
Structure prediction by ZEFSAII (Michael W. Deem and Ramdas Pophale) SiO2 
 PCOD8322887
Probable space group: R 3 C
;
_chemical_formula_sum "Si O2"
_cell_formula_units_Z 84
_cell_length_a 16.363212
_cell_length_b 16.363212
_cell_length_c 13.226408
_cell_angle_alpha 90.000000
_cell_angle_beta 90.000000
_cell_angle_gamma 120.000000
_cell_volume 3066.970942
_symmetry_space_group_name_H-M "R 3 C"
_symmetry_group_IT_number 161
_symmetry_cell_setting 'hexagonal'
loop_
_space_group_symop_operation_xyz
x,y,z
-y,x-y,z
-x+y,-x,z
-x+y,y,1/2+z
x,x-y,1/2+z
-y,-x,1/2+z
2/3+x,1/3+y,1/3+z
2/3-y,1/3+x-y,1/3+z
2/3-x+y,1/3-x,1/3+z
2/3-x+y,1/3+y,5/6+z
2/3+x,1/3+x-y,5/6+z
2/3-y,1/3-x,5/6+z
1/3+x,2/3+y,2/3+z
1/3-y,2/3+x-y,2/3+z
1/3-x+y,2/3-x,2/3+z
1/3-x+y,2/3+y,1/6+z
1/3+x,2/3+x-y,1/6+z
1/3-y,2/3-x,1/6+z
loop_
_atom_site_type_symbol
_atom_site_label
_atom_site_fract_x
_atom_site_fract_y
_atom_site_fract_z
Si Si1 0.357204 0.123432 0.183549
Si Si2 0.333334 0.666667 0.419193
Si Si3 0.112711 0.778779 0.040326
Si Si4 0.690226 0.165159 0.089689
Si Si5 0.182467 0.719727 0.651496
Si Si6 0.000000 0.000000 0.989296
O O1 0.365572 0.167776 0.294769
O O2 0.384766 0.204624 0.099683
O O3 0.429759 0.084986 0.167605
O O4 0.249798 0.037063 0.174045
O O5 0.361686 0.591962 0.377767
O O6 0.333334 0.666667 0.537611
O O7 0.172199 0.798044 0.145119
O O8 0.010034 0.769288 0.057973
O O9 0.644013 0.141389 0.200484
O O10 0.270445 0.711517 0.694550
#
# Coordination Sequence:
#
# PCOD8322887 Si02
#       6
#    18   6  18  18  18   6
#     4  10  19  34  55  83 115 152 197 244 296 360
#     4   9  15  30  54  75 103 152 199 225 276 366
#     4  10  19  34  55  83 115 152 197 244 296 360
#     4   9  17  30  52  80 108 146 195 243 283 344
#     4   9  17  30  52  80 108 146 195 243 283 344
#     4   9  15  30  54  75 103 152 199 225 276 366
#
# _framework density 27.388589
#
# number of rings (size 3 to 8) (size 9 to 14) (size 15 to 20)
#    0.000    2.571    0.000    6.429    0.000    0.000 
#    0.000   10.714    0.000    0.000    0.000   12.000 
#    0.000    0.000    0.000    0.000    0.000    0.000 
#
# Total GULP energy -346886.106914 kJ/mol
# GULP energy per Si atom -12388.789533 kJ/mol
# Density = 2.732625 g / cm^3
# Si number density = 27.388589 Si / 1000 Ang^3
#
#
#
# Elastic Constant Matrix: (Units=GPa)
#
#
# Indices 1 2 3 4 5 6 
#
# 1 181.5882 81.1856 30.9818 0.9323 0.0000 0.0000
# 2 81.1856 181.5890 30.9817 -0.9325 0.0000 0.0000
# 3 30.9818 30.9817 35.4909 0.0001 0.0000 0.0000
# 4 0.9323 -0.9325 0.0001 3.6475 0.0000 0.0000
# 5 0.0000 0.0000 0.0000 0.0000 3.6481 0.9319
# 6 0.0000 0.0000 0.0000 0.0000 0.9319 50.2020
#
#
#
# Elastic Compliance Matrix: (Units=1/GPa)
#
#
# Indices 1 2 3 4 5 6 
#
# 1 0.007400 -0.002608 -0.004183 -0.002558 0.000000 0.000000
# 2 -0.002608 0.007400 -0.004183 0.002558 0.000000 0.000000
# 3 -0.004183 -0.004183 0.035480 -0.000001 0.000000 0.000000
# 4 -0.002558 0.002558 -0.000001 0.275470 0.000000 0.000000
# 5 0.000000 0.000000 0.000000 0.000000 0.275419 -0.005112
# 6 0.000000 0.000000 0.000000 0.000000 -0.005112 0.020014
#
#
# Mechanical properties :
#
#
# Convention : Reuss Voigt Hill
#
# Bulk Modulus (GPa) = 35.29710 76.10738 55.70224
# Shear Modulus (GPa) = 7.66197 28.53411 18.09804
#
# Velocity S-wave (km/s) = 1.67439 3.23123 2.57337
# Velocity P-wave (km/s) = 4.08088 6.46293 5.40477
#
# Compressibility (1/GPa) = 0.02833094
#
# Stress axis : x y z
#
# Youngs Moduli (GPa) = 135.14090 135.14151 28.18523
#
# Poissons Ratio (x) = 0.35241 0.11790
# Poissons Ratio (y) = 0.35241 0.11790
# Poissons Ratio (z) = 0.56531 0.56531
#
# Static dielectric constant tensor:
#      x y z
#    x 5.514880 0.000000 0.000000 
#    y 0.000000 5.514870 0.000000 
#    z 0.000000 0.000000 4.144580 
# 
# 
# High freq. dielectric constant tensor:
#      x y z
#    x 2.115230 0.000000 0.000000 
#    y 0.000000 2.115230 0.000000 
#    z 0.000000 0.000000 2.067900 
# 
# From -- ./inp_files/1328.got.cif
#   From: 2010.03.12/outbox.cif.g09.slc.cpg/sg161_cif.got.tgz:1328.got - 2010.04.02 06:27:14.
