data_PCOD8322615
_publ_section_title
;
Structure prediction by ZEFSAII (Michael W. Deem and Ramdas Pophale) SiO2 
 PCOD8322615
Probable space group: R 3 2
;
_chemical_formula_sum "Si O2"
_cell_formula_units_Z 135
_cell_length_a 17.727794
_cell_length_b 17.727794
_cell_length_c 23.291601
_cell_angle_alpha 90.000000
_cell_angle_beta 90.000000
_cell_angle_gamma 120.000000
_cell_volume 6339.271707
_symmetry_space_group_name_H-M "R 3 2"
_symmetry_group_IT_number 155
_symmetry_cell_setting 'hexagonal'
loop_
_space_group_symop_operation_xyz
x,y,z
-y,x-y,z
-x+y,-x,z
x-y,-y,-z
-x,-x+y,-z
y,x,-z
2/3+x,1/3+y,1/3+z
2/3-y,1/3+x-y,1/3+z
2/3-x+y,1/3-x,1/3+z
2/3+x-y,1/3-y,1/3-z
2/3-x,1/3-x+y,1/3-z
2/3+y,1/3+x,1/3-z
1/3+x,2/3+y,2/3+z
1/3-y,2/3+x-y,2/3+z
1/3-x+y,2/3-x,2/3+z
1/3+x-y,2/3-y,2/3-z
1/3-x,2/3-x+y,2/3-z
1/3+y,2/3+x,2/3-z
loop_
_atom_site_type_symbol
_atom_site_label
_atom_site_fract_x
_atom_site_fract_y
_atom_site_fract_z
Si Si1 0.476430 0.379526 0.778262
Si Si2 0.827898 0.855393 0.145749
Si Si3 0.306383 0.808478 0.387319
Si Si4 0.696723 0.970178 0.757954
Si Si5 0.173176 0.146550 0.323902
Si Si6 0.248784 0.937407 0.552711
Si Si7 0.139741 0.638446 0.534283
Si Si8 0.716103 0.666667 0.666667
O O1 0.491746 0.333334 0.833334
O O2 0.372447 0.331539 0.771110
O O3 0.520594 0.359234 0.725509
O O4 0.522716 0.483803 0.782343
O O5 0.832625 0.872650 0.212639
O O6 0.744787 0.764216 0.129287
O O7 0.910974 0.848764 0.127953
O O8 0.821478 0.934061 0.115673
O O9 0.256229 0.713525 0.359816
O O10 0.406725 0.858208 0.368729
O O11 0.262660 0.863941 0.367052
O O12 0.763260 0.972062 0.806373
O O13 0.606611 0.877474 0.753667
O O14 0.748849 0.988793 0.698350
O O15 0.254845 0.000000 0.500000
O O16 0.279120 0.977824 0.616823
#
# Coordination Sequence:
#
# PCOD8322615 Si02
#       8
#    18  18  18  18  18  18  18   9
#     4  12  26  45  69  99 137 182 238 292 345 419
#     4  12  22  42  69 100 138 180 221 288 352 412
#     4  12  25  44  66 103 137 180 230 288 351 425
#     4  11  22  42  64 100 133 177 231 278 340 421
#     4  12  27  44  71 100 140 184 230 291 358 422
#     4  12  27  46  70  99 139 189 230 294 355 420
#     4  11  23  37  70 101 138 172 228 280 342 420
#     4  12  28  44  66 102 140 176 242 278 354 426
#
# _framework density 21.295822000000001
#
# number of rings (size 3 to 8) (size 9 to 14) (size 15 to 20)
#    0.000    0.267    8.000    0.933    7.467    0.000 
#    0.000    0.000    0.000    0.267    0.000    0.000 
#    0.000    0.000    0.000    0.000    0.000    0.000 
#
# Total GULP energy -557845.012202 kJ/mol
# GULP energy per Si atom -12396.555827 kJ/mol
# Density = 2.124735 g / cm^3
# Si number density = 21.295822 Si / 1000 Ang^3
#
#
#
# Elastic Constant Matrix: (Units=GPa)
#
#
# Indices 1 2 3 4 5 6 
#
# 1 83.5902 29.7306 22.7905 0.8092 -0.0005 0.0000
# 2 29.7306 83.5902 22.7905 -0.8092 0.0005 0.0000
# 3 22.7905 22.7905 84.1555 0.0000 0.0000 0.0000
# 4 0.8092 -0.8092 0.0000 28.5149 0.0000 0.0005
# 5 -0.0005 0.0005 0.0000 0.0000 28.5149 0.8092
# 6 0.0000 0.0000 0.0000 0.0005 0.8092 26.9298
#
#
#
# Elastic Compliance Matrix: (Units=1/GPa)
#
#
# Indices 1 2 3 4 5 6 
#
# 1 0.014243 -0.004340 -0.002682 -0.000527 0.000000 0.000000
# 2 -0.004340 0.014243 -0.002682 0.000527 0.000000 0.000000
# 3 -0.002682 -0.002682 0.013335 0.000000 0.000000 0.000000
# 4 -0.000527 0.000527 0.000000 0.035099 0.000000 -0.000001
# 5 0.000000 0.000000 0.000000 0.000000 0.035099 -0.001055
# 6 0.000000 0.000000 0.000000 -0.000001 -0.001055 0.037165
#
#
# Mechanical properties :
#
#
# Convention : Reuss Voigt Hill
#
# Bulk Modulus (GPa) = 44.61470 44.66211 44.63841
# Shear Modulus (GPa) = 28.39884 28.52690 28.46287
#
# Velocity S-wave (km/s) = 3.65573 3.66396 3.65985
# Velocity P-wave (km/s) = 6.23014 6.23837 6.23425
#
# Compressibility (1/GPa) = 0.02241414
#
# Stress axis : x y z
#
# Youngs Moduli (GPa) = 70.21020 70.21020 74.98854
#
# Poissons Ratio (x) = 0.30469 0.20111
# Poissons Ratio (y) = 0.30469 0.20111
# Poissons Ratio (z) = 0.18830 0.18830
#
# Static dielectric constant tensor:
#      x y z
#    x 3.937220 0.000000 0.000000 
#    y 0.000000 3.937220 0.000000 
#    z 0.000000 0.000000 3.966190 
# 
# 
# High freq. dielectric constant tensor:
#      x y z
#    x 1.842410 0.000000 0.000000 
#    y 0.000000 1.842410 0.000000 
#    z 0.000000 0.000000 1.824930 
# 
# From -- ./inp_files/8030.got.cif
#   From: 2010.03.12/outbox.cif.g09.slc.cpg/sg155_5_cif.got.tgz:8030.got - 2010.04.03 13:54:13.
