data_PCOD8322661
_publ_section_title
;
Structure prediction by ZEFSAII (Michael W. Deem and Ramdas Pophale) SiO2 
 PCOD8322661
Probable space group: P 3 M 1
;
_chemical_formula_sum "Si O2"
_cell_formula_units_Z 42
_cell_length_a 12.876209
_cell_length_b 12.876209
_cell_length_c 18.013573
_cell_angle_alpha 90.000000
_cell_angle_beta 90.000000
_cell_angle_gamma 120.000000
_cell_volume 2586.464549
_symmetry_space_group_name_H-M "P 3 M 1"
_symmetry_group_IT_number 156
_symmetry_cell_setting 'hexagonal'
loop_
_space_group_symop_operation_xyz
x,y,z
-y,x-y,z
-x+y,-x,z
-x+y,y,z
x,x-y,z
-y,-x,z
loop_
_atom_site_type_symbol
_atom_site_label
_atom_site_fract_x
_atom_site_fract_y
_atom_site_fract_z
Si Si1 0.666046 0.577274 0.339760
Si Si2 0.422727 0.333955 0.918489
Si Si3 0.766038 0.763818 0.629125
Si Si4 0.997427 0.754982 0.468021
Si Si5 0.571916 0.666646 0.044268
Si Si6 0.757555 0.002573 0.790228
Si Si7 0.094729 0.666646 0.213981
O O1 0.782240 0.564479 0.334445
O O2 0.553236 0.446765 0.350498
O O3 0.669667 0.657222 0.409399
O O4 0.658162 0.640173 0.264630
O O5 0.435520 0.217760 0.923805
O O6 0.553237 0.446764 0.907750
O O7 0.342778 0.330333 0.848850
O O8 0.359830 0.341841 0.993620
O O9 0.908886 0.817771 0.629125
O O10 0.714200 0.694220 0.550795
O O11 0.714200 0.694220 0.707455
O O12 0.737989 0.868995 0.629124
O O13 0.124993 0.875008 0.459888
O O14 0.894265 0.788530 0.452751
O O15 0.586195 0.793098 0.021019
O O16 0.433685 0.566316 0.032314
O O17 0.611547 0.668218 0.129125
O O18 0.750016 0.875008 0.798362
O O19 0.894265 0.105736 0.805499
O O20 0.132629 0.566315 0.225936
O O21 0.206904 0.793097 0.237230
#
# Coordination Sequence:
#
# PCOD8322661 Si02
#       7
#     6   6   6   6   6   6   6
#     4  10  20  32  45  62  88 123 159 190 217 249
#     4  10  20  32  45  62  88 123 159 190 217 249
#     4   8  13  22  39  64  90 112 136 172 222 276
#     4   9  16  27  45  68  91 113 140 179 228 277
#     4   9  17  30  49  71  91 110 136 176 226 274
#     4   9  16  27  45  68  91 113 140 179 228 277
#     4   9  17  30  49  71  91 110 136 176 226 274
#
# _framework density 16.238382000000001
#
# number of rings (size 3 to 8) (size 9 to 14) (size 15 to 20)
#    0.000    2.857    0.000    1.857    0.000    4.000 
#    0.000    0.714    0.000    2.857    0.000    2.000 
#    0.000    0.000    0.000    0.000    0.000    0.000 
#
# Total GULP energy -520453.566834 kJ/mol
# GULP energy per Si atom -12391.751591 kJ/mol
# Density = 1.620142 g / cm^3
# Si number density = 16.238382 Si / 1000 Ang^3
#
#
#
# Elastic Constant Matrix: (Units=GPa)
#
#
# Indices 1 2 3 4 5 6 
#
# 1 79.3694 42.2244 59.9625 -0.0002 -0.0001 0.0000
# 2 42.2244 79.3694 59.9625 0.0002 0.0001 0.0000
# 3 59.9625 59.9625 132.0728 0.0000 0.0000 0.0000
# 4 -0.0002 0.0002 0.0000 23.7632 0.0000 0.0001
# 5 -0.0001 0.0001 0.0000 0.0000 23.7632 -0.0002
# 6 0.0000 0.0000 0.0000 0.0001 -0.0002 18.5725
#
#
#
# Elastic Compliance Matrix: (Units=1/GPa)
#
#
# Indices 1 2 3 4 5 6 
#
# 1 0.020907 -0.006014 -0.006762 0.000000 0.000000 0.000000
# 2 -0.006014 0.020907 -0.006762 0.000000 0.000000 0.000000
# 3 -0.006762 -0.006762 0.013711 0.000000 0.000000 0.000000
# 4 0.000000 0.000000 0.000000 0.042082 0.000000 0.000000
# 5 0.000000 0.000000 0.000000 0.000000 0.042082 0.000000
# 6 0.000000 0.000000 0.000000 0.000000 0.000000 0.053843
#
#
# Mechanical properties :
#
#
# Convention : Reuss Voigt Hill
#
# Bulk Modulus (GPa) = 60.78733 68.34560 64.56647
# Shear Modulus (GPa) = 21.00040 21.79725 21.39883
#
# Velocity S-wave (km/s) = 3.60009 3.66776 3.63408
# Velocity P-wave (km/s) = 7.40246 7.75351 7.58002
#
# Compressibility (1/GPa) = 0.01645080
#
# Stress axis : x y z
#
# Youngs Moduli (GPa) = 47.83045 47.83045 72.93319
#
# Poissons Ratio (x) = 0.28767 0.49314
# Poissons Ratio (y) = 0.28767 0.49314
# Poissons Ratio (z) = 0.32341 0.32341
#
# Static dielectric constant tensor:
#      x y z
#    x 2.883710 0.000000 0.000000 
#    y 0.000000 2.883710 0.000000 
#    z 0.000000 0.000000 3.534780 
# 
# 
# High freq. dielectric constant tensor:
#      x y z
#    x 1.606090 0.000000 0.000000 
#    y 0.000000 1.606090 0.000000 
#    z 0.000000 0.000000 1.644730 
# 
# From -- ./inp_files/1071.got.cif
#   From: 2010.03.12/outbox.cif.g09.slc.cpg/sg156_cif.got.tgz:1071.got - 2010.04.03 13:58:47.
