data_PCOD8322167
_publ_section_title
;
Structure prediction by ZEFSAII (Michael W. Deem and Ramdas Pophale) SiO2 
 PCOD8322167
Probable space group: P 31 2 1
;
_chemical_formula_sum "Si O2"
_cell_formula_units_Z 42
_cell_length_a 8.973684
_cell_length_b 8.973684
_cell_length_c 28.313018
_cell_angle_alpha 90.000000
_cell_angle_beta 90.000000
_cell_angle_gamma 120.000000
_cell_volume 1974.505470
_symmetry_space_group_name_H-M "P 31 2 1"
_symmetry_group_IT_number 152
_symmetry_cell_setting 'hexagonal'
loop_
_space_group_symop_operation_xyz
x,y,z
-y,x-y,1/3+z
-x+y,-x,2/3+z
x-y,-y,2/3-z
-x,-x+y,1/3-z
y,x,-z
loop_
_atom_site_type_symbol
_atom_site_label
_atom_site_fract_x
_atom_site_fract_y
_atom_site_fract_z
Si Si1 0.522029 0.278219 0.308303
Si Si2 0.032752 0.837515 0.000043
Si Si3 0.221675 0.506816 0.274442
Si Si4 0.217026 0.492997 0.869484
Si Si5 0.601463 0.724857 0.749672
Si Si6 0.420886 0.911347 0.784092
Si Si7 0.103817 0.580568 0.776290
O O1 0.337457 0.188806 0.332332
O O2 0.666974 0.353701 0.349919
O O3 0.560824 0.447113 0.277510
O O4 0.527598 0.131283 0.276459
O O5 0.143468 0.830833 0.955891
O O6 0.125327 0.848884 0.048379
O O7 0.997606 0.997606 0.000000
O O8 0.342987 0.569540 0.228744
O O9 0.042715 0.495481 0.259582
O O10 0.183686 0.503534 0.814099
O O11 0.389132 0.483454 0.878805
O O12 0.050664 0.325004 0.889374
O O13 0.514847 0.798369 0.785580
O O14 0.215677 0.787452 0.777666
O O15 0.444099 0.000000 0.833334
#
# Coordination Sequence:
#
# PCOD8322167 Si02
#       7
#     6   6   6   6   6   6   6
#     4  10  22  44  67 100 131 180 232 281 341 420
#     4  11  24  41  67  98 136 171 226 289 341 401
#     4  11  24  43  70  94 137 187 221 285 350 407
#     4  12  25  46  68 100 139 180 230 288 344 424
#     4  10  23  44  66  96 134 177 222 279 347 406
#     4  11  22  43  69  95 135 181 231 275 348 417
#     4  11  26  41  71 101 137 180 236 285 351 418
#
# _framework density 21.271151
#
# number of rings (size 3 to 8) (size 9 to 14) (size 15 to 20)
#    0.000    1.143    4.286    1.714    4.000    0.000 
#    0.000    0.714    0.000    0.000    0.000    0.000 
#    0.000    0.000    0.000    0.000    0.000    0.000 
#
# Total GULP energy -520679.638012 kJ/mol
# GULP energy per Si atom -12397.134238 kJ/mol
# Density = 2.122274 g / cm^3
# Si number density = 21.271151 Si / 1000 Ang^3
#
#
#
# Elastic Constant Matrix: (Units=GPa)
#
#
# Indices 1 2 3 4 5 6 
#
# 1 106.1120 41.8165 29.8436 -6.0971 -0.0001 0.0000
# 2 41.8165 106.1120 29.8436 6.0971 0.0001 0.0000
# 3 29.8436 29.8436 74.5840 0.0000 0.0000 0.0000
# 4 -6.0971 6.0971 0.0000 36.6090 0.0000 0.0001
# 5 -0.0001 0.0001 0.0000 0.0000 36.6090 -6.0971
# 6 0.0000 0.0000 0.0000 0.0001 -6.0971 32.1478
#
#
#
# Elastic Compliance Matrix: (Units=1/GPa)
#
#
# Indices 1 2 3 4 5 6 
#
# 1 0.012061 -0.003999 -0.003226 0.002675 0.000000 0.000000
# 2 -0.003999 0.012061 -0.003226 -0.002675 0.000000 0.000000
# 3 -0.003226 -0.003226 0.015989 0.000000 0.000000 0.000000
# 4 0.002675 -0.002675 0.000000 0.028207 0.000000 0.000000
# 5 0.000000 0.000000 0.000000 0.000000 0.028207 0.005350
# 6 0.000000 0.000000 0.000000 0.000000 0.005350 0.032121
#
#
# Mechanical properties :
#
#
# Convention : Reuss Voigt Hill
#
# Bulk Modulus (GPa) = 52.05778 54.42393 53.24086
# Shear Modulus (GPa) = 32.06150 33.42678 32.74414
#
# Velocity S-wave (km/s) = 3.88658 3.96847 3.92774
# Velocity P-wave (km/s) = 6.68335 6.82932 6.75673
#
# Compressibility (1/GPa) = 0.01920942
#
# Stress axis : x y z
#
# Youngs Moduli (GPa) = 82.91175 82.91175 62.54248
#
# Poissons Ratio (x) = 0.33160 0.20174
# Poissons Ratio (y) = 0.33160 0.20174
# Poissons Ratio (z) = 0.26745 0.26745
#
# Static dielectric constant tensor:
#      x y z
#    x 3.848450 0.000000 0.000000 
#    y 0.000000 3.848450 0.000000 
#    z 0.000000 0.000000 3.837690 
# 
# 
# High freq. dielectric constant tensor:
#      x y z
#    x 1.828850 0.000000 0.000000 
#    y 0.000000 1.828850 0.000000 
#    z 0.000000 0.000000 1.840320 
# 
# From -- ./inp_files/3694.got.cif
#   From: 2010.03.12/outbox.cif.g09.slc.cpg/sg152_2_cif.got.tgz:3694.got - 2010.04.03 13:45:27.
