data_PCOD8322957
_publ_section_title
;
Structure prediction by ZEFSAII (Michael W. Deem and Ramdas Pophale) SiO2 
 PCOD8322957
Probable space group: P -3 1 M 
;
_chemical_formula_sum "Si O2"
_cell_formula_units_Z 72
_cell_length_a 22.393047
_cell_length_b 22.393047
_cell_length_c 10.032625
_cell_angle_alpha 90.000000
_cell_angle_beta 90.000000
_cell_angle_gamma 120.000000
_cell_volume 4356.839831
_symmetry_space_group_name_H-M "P -3 1 M "
_symmetry_group_IT_number 162
_symmetry_cell_setting 'hexagonal'
loop_
_space_group_symop_operation_xyz
x,y,z
-y,x-y,z
-x+y,-x,z
-y,-x,-z
-x+y,y,-z
x,x-y,-z
-x,-y,-z
y,-x+y,-z
x-y,x,-z
y,x,z
x-y,-y,z
-x,-x+y,z
loop_
_atom_site_type_symbol
_atom_site_label
_atom_site_fract_x
_atom_site_fract_y
_atom_site_fract_z
Si Si1 0.920619 0.701130 0.758518
Si Si2 0.487204 0.081261 0.597048
Si Si3 0.408227 0.917827 0.900356
Si Si4 0.923506 0.723665 0.270893
Si Si5 0.361074 0.079696 0.979221
Si Si6 0.258843 0.380465 0.500375
O O1 0.879767 0.742329 0.724571
O O2 0.888197 0.655441 0.891867
O O3 0.911355 0.646461 0.645370
O O4 0.000000 0.759577 0.776034
O O5 0.551642 0.103284 0.500000
O O6 0.514170 0.106049 0.747852
O O7 0.447210 0.118289 0.541584
O O8 0.434991 0.000000 0.593461
O O9 0.448190 0.000000 0.904503
O O10 0.444344 0.888688 0.000000
O O11 0.329523 0.886877 0.951139
O O12 0.922403 0.682934 0.402022
O O13 0.000000 0.791808 0.260074
O O14 0.908401 0.673509 0.147889
O O15 0.331258 0.000000 0.011228
O O16 0.201700 0.403399 0.500000
#
# Coordination Sequence:
#
# PCOD8322957 Si02
#       6
#    12  12  12  12  12  12
#     4  10  20  30  46  72  97 124 166 213 253 301
#     4  10  19  30  48  72  99 127 156 193 237 284
#     4   9  17  28  43  66  95 129 158 182 227 286
#     4  10  18  32  50  66  92 133 168 203 255 308
#     4   9  17  29  45  64  94 126 156 194 237 291
#     4  10  20  33  49  70  99 132 166 200 239 293
#
# _framework density 16.525739999999999
#
# number of rings (size 3 to 8) (size 9 to 14) (size 15 to 20)
#    0.000    2.333    1.667    2.000    2.333    0.000 
#    0.000    0.000    0.000    0.667    0.000    0.000 
#    0.000    8.000    0.000    0.000    0.000    1.333 
#
# Total GULP energy -892581.802034 kJ/mol
# GULP energy per Si atom -12396.969473 kJ/mol
# Density = 1.648813 g / cm^3
# Si number density = 16.525740 Si / 1000 Ang^3
#
#
#
# Elastic Constant Matrix: (Units=GPa)
#
#
# Indices 1 2 3 4 5 6 
#
# 1 77.5041 37.3553 31.6738 0.0000 0.2981 0.0000
# 2 37.3553 77.5041 31.6738 0.0000 -0.2981 0.0000
# 3 31.6738 31.6738 90.5761 0.0000 0.0000 0.0000
# 4 0.0000 0.0000 0.0000 22.4715 0.0000 -0.2981
# 5 0.2981 -0.2981 0.0000 0.0000 22.4715 0.0000
# 6 0.0000 0.0000 0.0000 -0.2981 0.0000 20.0744
#
#
#
# Elastic Compliance Matrix: (Units=1/GPa)
#
#
# Indices 1 2 3 4 5 6 
#
# 1 0.017849 -0.007063 -0.003772 0.000000 -0.000330 0.000000
# 2 -0.007063 0.017849 -0.003772 0.000000 0.000330 0.000000
# 3 -0.003772 -0.003772 0.013679 0.000000 0.000000 0.000000
# 4 0.000000 0.000000 0.000000 0.044510 0.000000 0.000661
# 5 -0.000330 0.000330 0.000000 0.000000 0.044510 0.000000
# 6 0.000000 0.000000 0.000000 0.000661 0.000000 0.049825
#
#
# Mechanical properties :
#
#
# Convention : Reuss Voigt Hill
#
# Bulk Modulus (GPa) = 49.59386 49.66555 49.62970
# Shear Modulus (GPa) = 22.30587 22.66222 22.48405
#
# Velocity S-wave (km/s) = 3.67790 3.70716 3.69256
# Velocity P-wave (km/s) = 6.93622 6.96008 6.94816
#
# Compressibility (1/GPa) = 0.02016379
#
# Stress axis : x y z
#
# Youngs Moduli (GPa) = 56.02406 56.02406 73.10728
#
# Poissons Ratio (x) = 0.39569 0.27576
# Poissons Ratio (y) = 0.39569 0.27576
# Poissons Ratio (z) = 0.21132 0.21132
#
# Static dielectric constant tensor:
#      x y z
#    x 2.942860 0.000000 0.000000 
#    y 0.000000 2.942860 0.000000 
#    z 0.000000 0.000000 3.426260 
# 
# 
# High freq. dielectric constant tensor:
#      x y z
#    x 1.606390 0.000000 0.000000 
#    y 0.000000 1.606390 0.000000 
#    z 0.000000 0.000000 1.662540 
# 
# From -- ./inp_files/1716.got.cif
#   From: 2010.03.12/outbox.cif.g09.slc.cpg/sg162_1_cif.got.tgz:1716.got - 2010.04.02 06:27:41.
