data_PCOD8322325
_publ_section_title
;
Structure prediction by ZEFSAII (Michael W. Deem and Ramdas Pophale) SiO2 
 PCOD8322325
Probable space group: P 32 2 1
;
_chemical_formula_sum "Si O2"
_cell_formula_units_Z 36
_cell_length_a 9.495690
_cell_length_b 9.495690
_cell_length_c 23.577319
_cell_angle_alpha 90.000000
_cell_angle_beta 90.000000
_cell_angle_gamma 120.000000
_cell_volume 1841.103092
_symmetry_space_group_name_H-M "P 32 2 1"
_symmetry_group_IT_number 154
_symmetry_cell_setting 'hexagonal'
loop_
_space_group_symop_operation_xyz
x,y,z
-y,x-y,2/3+z
-x+y,-x,1/3+z
x-y,-y,1/3-z
-x,-x+y,2/3-z
y,x,-z
loop_
_atom_site_type_symbol
_atom_site_label
_atom_site_fract_x
_atom_site_fract_y
_atom_site_fract_z
Si Si1 0.908550 0.708982 0.949115
Si Si2 0.423470 0.000000 0.666667
Si Si3 0.313033 0.037682 0.506076
Si Si4 0.858871 0.018539 0.788323
Si Si5 0.000000 0.957506 0.333334
Si Si6 0.617354 0.127726 0.776736
Si Si7 0.505931 0.379009 0.453454
O O1 0.752209 0.590621 0.987669
O O2 0.834063 0.758427 0.895868
O O3 0.016758 0.628536 0.931096
O O4 0.025113 0.870263 0.983781
O O5 0.506632 0.960587 0.615615
O O6 0.372820 0.907326 0.516344
O O7 0.171925 0.967751 0.459918
O O8 0.453953 0.206190 0.481775
O O9 0.900681 0.061759 0.721592
O O10 0.711777 0.046844 0.805958
O O11 0.000000 0.122464 0.833334
O O12 0.750432 0.314924 0.764752
O O13 0.502780 0.502780 0.500000
#
# Coordination Sequence:
#
# PCOD8322325 Si02
#       7
#     6   3   6   6   3   6   6
#     4   9  18  37  65  82 110 159 209 244 289 360
#     4   9  21  40  56  82 120 166 196 244 308 368
#     4  10  19  39  63  85 116 161 206 240 303 370
#     4  12  22  38  63  92 120 162 207 253 302 364
#     4  11  19  36  64  90 118 154 212 256 282 364
#     4  11  23  37  58  90 128 156 194 256 317 359
#     4  10  19  38  61  88 115 158 206 251 298 365
#
# _framework density 19.553495999999999
#
# number of rings (size 3 to 8) (size 9 to 14) (size 15 to 20)
#    0.000    1.667    3.333    2.500    0.000    0.000 
#    3.000    0.000    0.000    0.000    0.000    0.000 
#    0.000    0.000    0.000    0.000    0.000    0.000 
#
# Total GULP energy -446256.790446 kJ/mol
# GULP energy per Si atom -12396.021957 kJ/mol
# Density = 1.950899 g / cm^3
# Si number density = 19.553496 Si / 1000 Ang^3
#
#
#
# Elastic Constant Matrix: (Units=GPa)
#
#
# Indices 1 2 3 4 5 6 
#
# 1 91.1607 34.6854 20.0652 1.7015 0.0001 0.0000
# 2 34.6854 91.1607 20.0652 -1.7015 -0.0001 0.0000
# 3 20.0652 20.0652 77.6069 0.0000 0.0000 0.0000
# 4 1.7015 -1.7015 0.0000 20.3914 0.0000 -0.0001
# 5 0.0001 -0.0001 0.0000 0.0000 20.3914 1.7015
# 6 0.0000 0.0000 0.0000 -0.0001 1.7015 28.2377
#
#
#
# Elastic Compliance Matrix: (Units=1/GPa)
#
#
# Indices 1 2 3 4 5 6 
#
# 1 0.013228 -0.004568 -0.002239 -0.001485 0.000000 0.000000
# 2 -0.004568 0.013228 -0.002239 0.001485 0.000000 0.000000
# 3 -0.002239 -0.002239 0.014043 0.000000 0.000000 0.000000
# 4 -0.001485 0.001485 0.000000 0.049288 0.000000 0.000000
# 5 0.000000 0.000000 0.000000 0.000000 0.049288 -0.002970
# 6 0.000000 0.000000 0.000000 0.000000 -0.002970 0.035593
#
#
# Mechanical properties :
#
#
# Convention : Reuss Voigt Hill
#
# Bulk Modulus (GPa) = 44.62820 45.50666 45.06743
# Shear Modulus (GPa) = 24.97123 26.14492 25.55808
#
# Velocity S-wave (km/s) = 3.57749 3.66060 3.61928
# Velocity P-wave (km/s) = 6.31964 6.41795 6.36898
#
# Compressibility (1/GPa) = 0.02240736
#
# Stress axis : x y z
#
# Youngs Moduli (GPa) = 75.59564 75.59564 71.20838
#
# Poissons Ratio (x) = 0.34532 0.15944
# Poissons Ratio (y) = 0.34532 0.15944
# Poissons Ratio (z) = 0.16927 0.16927
#
# Static dielectric constant tensor:
#      x y z
#    x 3.529420 0.000000 0.000000 
#    y 0.000000 3.529420 0.000000 
#    z 0.000000 0.000000 3.608330 
# 
# 
# High freq. dielectric constant tensor:
#      x y z
#    x 1.757430 0.000000 0.000000 
#    y 0.000000 1.757430 0.000000 
#    z 0.000000 0.000000 1.754620 
# 
# From -- ./inp_files/3493.got.cif
#   From: 2010.03.12/outbox.cif.g09.slc.cpg/sg154_2_cif.got.tgz:3493.got - 2010.04.03 13:51:21.
