data_PCOD8322880
_publ_section_title
;
Structure prediction by ZEFSAII (Michael W. Deem and Ramdas Pophale) SiO2 
 PCOD8322880
Probable space group: R 3 M
;
_chemical_formula_sum "Si O2"
_cell_formula_units_Z 108
_cell_length_a 23.459310
_cell_length_b 23.459310
_cell_length_c 13.847875
_cell_angle_alpha 90.000000
_cell_angle_beta 90.000000
_cell_angle_gamma 120.000000
_cell_volume 6600.004548
_symmetry_space_group_name_H-M "R 3 M"
_symmetry_group_IT_number 160
_symmetry_cell_setting 'hexagonal'
loop_
_space_group_symop_operation_xyz
x,y,z
-y,x-y,z
-x+y,-x,z
-x+y,y,z
x,x-y,z
-y,-x,z
2/3+x,1/3+y,1/3+z
2/3-y,1/3+x-y,1/3+z
2/3-x+y,1/3-x,1/3+z
2/3-x+y,1/3+y,1/3+z
2/3+x,1/3+x-y,1/3+z
2/3-y,1/3-x,1/3+z
1/3+x,2/3+y,2/3+z
1/3-y,2/3+x-y,2/3+z
1/3-x+y,2/3-x,2/3+z
1/3-x+y,2/3+y,2/3+z
1/3+x,2/3+x-y,2/3+z
1/3-y,2/3-x,2/3+z
loop_
_atom_site_type_symbol
_atom_site_label
_atom_site_fract_x
_atom_site_fract_y
_atom_site_fract_z
Si Si1 0.732364 0.800529 0.968974
Si Si2 0.133998 0.399239 0.079334
Si Si3 0.215383 0.041173 0.096601
Si Si4 0.355230 0.294864 0.121703
Si Si5 0.978191 0.606028 0.926582
Si Si6 0.707726 0.548489 0.618123
O O1 0.731263 0.865631 0.994650
O O2 0.734577 0.790405 0.854333
O O3 0.666562 0.740191 0.024165
O O4 0.800905 0.809952 0.007690
O O5 0.199240 0.398480 0.053267
O O6 0.124019 0.401294 0.194050
O O7 0.143001 0.467695 0.040994
O O8 0.200775 0.100388 0.079386
O O9 0.292979 0.069092 0.102154
O O10 0.177226 0.000429 0.190991
O O11 0.340640 0.340761 0.190911
O O12 0.391913 0.333694 0.024315
O O13 0.040548 0.597338 0.945346
O O14 0.766760 0.533519 0.634649
#
# Coordination Sequence:
#
# PCOD8322880 Si02
#       6
#    18  18  18  18  18  18
#     4  11  20  34  55  76 105 146 184 220 265 322
#     4  11  20  34  55  76 105 146 184 220 265 322
#     4  11  20  32  52  80 110 141 178 218 268 324
#     4  11  18  32  50  76 112 139 172 215 265 323
#     4  11  18  32  50  76 112 139 172 215 265 323
#     4  11  20  32  52  80 110 141 178 218 268 324
#
# _framework density 16.363624999999999
#
# number of rings (size 3 to 8) (size 9 to 14) (size 15 to 20)
#    0.000    1.000   10.000    2.000    0.000    0.000 
#    0.000    5.000    0.000    6.000    0.000    0.000 
#    0.000    1.333    0.000    0.000    0.000    0.000 
#
# Total GULP energy -446134.545318 kJ/mol
# GULP energy per Si atom -12392.626259 kJ/mol
# Density = 1.632638 g / cm^3
# Si number density = 16.363625 Si / 1000 Ang^3
#
#
#
# Elastic Constant Matrix: (Units=GPa)
#
#
# Indices 1 2 3 4 5 6 
#
# 1 65.2622 56.5749 41.8027 6.2459 0.0005 0.0000
# 2 56.5749 65.2622 41.8027 -6.2459 -0.0006 0.0000
# 3 41.8027 41.8027 115.8166 0.0000 0.0000 0.0000
# 4 6.2459 -6.2459 0.0000 13.3616 0.0000 -0.0006
# 5 0.0005 -0.0006 0.0000 0.0000 13.3616 6.2459
# 6 0.0000 0.0000 0.0000 -0.0006 6.2459 4.3437
#
#
#
# Elastic Compliance Matrix: (Units=1/GPa)
#
#
# Indices 1 2 3 4 5 6 
#
# 1 0.181016 -0.170106 -0.003938 -0.164132 -0.000012 -0.000005
# 2 -0.170106 0.181016 -0.003938 0.164132 0.000012 0.000005
# 3 -0.003938 -0.003938 0.011477 0.000000 0.000000 0.000000
# 4 -0.164132 0.164132 0.000000 0.228289 -0.000004 0.000036
# 5 -0.000012 0.000012 0.000000 -0.000004 0.228286 -0.328258
# 6 -0.000005 0.000005 0.000000 0.000036 -0.328258 0.702229
#
#
# Mechanical properties :
#
#
# Convention : Reuss Voigt Hill
#
# Bulk Modulus (GPa) = 56.99484 58.52242 57.75863
# Shear Modulus (GPa) = 2.63974 13.29077 7.96526
#
# Velocity S-wave (km/s) = 1.27149 2.85303 2.20867
# Velocity P-wave (km/s) = 6.08781 6.83333 6.47131
#
# Compressibility (1/GPa) = 0.01754545
#
# Stress axis : x y z
#
# Youngs Moduli (GPa) = 5.52438 5.52438 87.13133
#
# Poissons Ratio (x) = 0.93973 0.34309
# Poissons Ratio (y) = 0.93973 0.34312
# Poissons Ratio (z) = 0.02175 0.02175
#
# Static dielectric constant tensor:
#      x y z
#    x 2.925880 0.000000 0.000000 
#    y 0.000000 2.925880 0.000000 
#    z 0.000000 0.000000 3.415330 
# 
# 
# High freq. dielectric constant tensor:
#      x y z
#    x 1.602200 0.000000 0.000000 
#    y 0.000000 1.602200 0.000000 
#    z 0.000000 0.000000 1.632110 
# 
# From -- ./inp_files/2342.got.cif
#   From: 2010.03.12/outbox.cif.g09.slc.cpg/sg160_2_cif.got.tgz:2342.got - 2010.04.02 06:26:15.
