data_PCOD8322565
_publ_section_title
;
Structure prediction by ZEFSAII (Michael W. Deem and Ramdas Pophale) SiO2 
 PCOD8322565
Probable space group: R 3 2
;
_chemical_formula_sum "Si O2"
_cell_formula_units_Z 75
_cell_length_a 15.248442
_cell_length_b 15.248442
_cell_length_c 16.834763
_cell_angle_alpha 90.000000
_cell_angle_beta 90.000000
_cell_angle_gamma 120.000000
_cell_volume 3389.913237
_symmetry_space_group_name_H-M "R 3 2"
_symmetry_group_IT_number 155
_symmetry_cell_setting 'hexagonal'
loop_
_space_group_symop_operation_xyz
x,y,z
-y,x-y,z
-x+y,-x,z
x-y,-y,-z
-x,-x+y,-z
y,x,-z
2/3+x,1/3+y,1/3+z
2/3-y,1/3+x-y,1/3+z
2/3-x+y,1/3-x,1/3+z
2/3+x-y,1/3-y,1/3-z
2/3-x,1/3-x+y,1/3-z
2/3+y,1/3+x,1/3-z
1/3+x,2/3+y,2/3+z
1/3-y,2/3+x-y,2/3+z
1/3-x+y,2/3-x,2/3+z
1/3+x-y,2/3-y,2/3-z
1/3-x,2/3-x+y,2/3-z
1/3+y,2/3+x,2/3-z
loop_
_atom_site_type_symbol
_atom_site_label
_atom_site_fract_x
_atom_site_fract_y
_atom_site_fract_z
Si Si1 0.666668 0.333334 0.525260
Si Si2 0.666667 0.333334 0.713208
Si Si3 0.480665 0.588360 0.470385
Si Si4 0.137397 0.221092 0.635426
Si Si5 0.333334 0.222983 0.666667
Si Si6 0.876321 0.219911 0.828130
O O1 0.666668 0.333334 0.619002
O O2 0.786222 0.404958 0.499771
O O3 0.628945 0.219876 0.743308
O O4 0.491072 0.491072 0.500000
O O5 0.491111 0.594889 0.374262
O O6 0.572482 0.688270 0.507690
O O7 0.235883 0.234040 0.680305
O O8 0.171948 0.308737 0.569365
O O9 0.349504 0.173914 0.744456
O O10 0.896540 0.333334 0.833334
#
# Coordination Sequence:
#
# PCOD8322565 Si02
#       6
#     6   6  18  18   9  18
#     4   9  18  39  66  92 128 175 218 268 336 396
#     4   9  18  39  64  91 124 161 209 268 339 403
#     4  10  22  39  65  93 128 172 221 272 325 391
#     4  11  23  39  63  91 126 170 214 267 331 394
#     4  12  24  38  60  94 128 160 212 272 332 400
#     4  11  22  39  63  91 123 163 211 268 334 397
#
# _framework density 22.124459999999999
#
# number of rings (size 3 to 8) (size 9 to 14) (size 15 to 20)
#    0.000    1.440    0.000    7.920    0.000    6.720 
#    0.000    2.400    0.000    7.200    0.000    0.000 
#    0.000    0.000    0.000    0.000    0.000    0.000 
#
# Total GULP energy -309861.213259 kJ/mol
# GULP energy per Si atom -12394.448530 kJ/mol
# Density = 2.207410 g / cm^3
# Si number density = 22.124460 Si / 1000 Ang^3
#
#
#
# Elastic Constant Matrix: (Units=GPa)
#
#
# Indices 1 2 3 4 5 6 
#
# 1 116.4415 44.2147 46.6124 -3.9534 0.0000 0.0000
# 2 44.2147 116.4393 46.6127 3.9531 0.0000 0.0000
# 3 46.6124 46.6127 115.9964 -0.0001 0.0000 0.0000
# 4 -3.9534 3.9531 -0.0001 36.6972 0.0000 0.0000
# 5 0.0000 0.0000 0.0000 0.0000 36.6970 -3.9531
# 6 0.0000 0.0000 0.0000 0.0000 -3.9531 36.1132
#
#
#
# Elastic Compliance Matrix: (Units=1/GPa)
#
#
# Indices 1 2 3 4 5 6 
#
# 1 0.011064 -0.002947 -0.003262 0.001509 0.000000 0.000000
# 2 -0.002947 0.011064 -0.003262 -0.001509 0.000000 0.000000
# 3 -0.003262 -0.003262 0.011243 0.000000 0.000000 0.000000
# 4 0.001509 -0.001509 0.000000 0.027575 0.000000 0.000000
# 5 0.000000 0.000000 0.000000 0.000000 0.027575 0.003019
# 6 0.000000 0.000000 0.000000 0.000000 0.003019 0.028021
#
#
# Mechanical properties :
#
#
# Convention : Reuss Voigt Hill
#
# Bulk Modulus (GPa) = 69.30221 69.30633 69.30427
# Shear Modulus (GPa) = 35.63966 35.99730 35.81848
#
# Velocity S-wave (km/s) = 4.01792 4.03803 4.02799
# Velocity P-wave (km/s) = 7.27439 7.28935 7.28187
#
# Compressibility (1/GPa) = 0.01442955
#
# Stress axis : x y z
#
# Youngs Moduli (GPa) = 90.38415 90.38184 88.94800
#
# Poissons Ratio (x) = 0.26633 0.29013
# Poissons Ratio (y) = 0.26633 0.29015
# Poissons Ratio (z) = 0.29482 0.29482
#
# Static dielectric constant tensor:
#      x y z
#    x 4.331800 0.000000 0.000000 
#    y 0.000000 4.331830 0.000000 
#    z 0.000000 0.000000 3.736890 
# 
# 
# High freq. dielectric constant tensor:
#      x y z
#    x 1.873860 0.000000 0.000000 
#    y 0.000000 1.873860 0.000000 
#    z 0.000000 0.000000 1.849110 
# 
# From -- ./inp_files/6815.got.cif
#   From: 2010.03.12/outbox.cif.g09.slc.cpg/sg155_4_cif.got.tgz:6815.got - 2010.04.03 13:54:13.
