data_PCOD8322190
_publ_section_title
;
Structure prediction by ZEFSAII (Michael W. Deem and Ramdas Pophale) SiO2 
 PCOD8322190
Probable space group: P 31 2 1
;
_chemical_formula_sum "Si O2"
_cell_formula_units_Z 36
_cell_length_a 12.937150
_cell_length_b 12.937150
_cell_length_c 12.741218
_cell_angle_alpha 90.000000
_cell_angle_beta 90.000000
_cell_angle_gamma 120.000000
_cell_volume 1846.795490
_symmetry_space_group_name_H-M "P 31 2 1"
_symmetry_group_IT_number 152
_symmetry_cell_setting 'hexagonal'
loop_
_space_group_symop_operation_xyz
x,y,z
-y,x-y,1/3+z
-x+y,-x,2/3+z
x-y,-y,2/3-z
-x,-x+y,1/3-z
y,x,-z
loop_
_atom_site_type_symbol
_atom_site_label
_atom_site_fract_x
_atom_site_fract_y
_atom_site_fract_z
Si Si1 0.995879 0.649943 0.458536
Si Si2 0.314154 0.000000 0.333334
Si Si3 0.264570 0.464809 0.956435
Si Si4 0.970759 0.000000 0.333334
Si Si5 0.835734 0.727837 0.561778
Si Si6 0.545480 0.141646 0.196350
Si Si7 0.238245 0.178233 0.395803
O O1 0.886584 0.669782 0.482477
O O2 0.942744 0.507825 0.447091
O O3 0.077371 0.681911 0.561016
O O4 0.057098 0.727778 0.356117
O O5 0.417796 0.071678 0.250938
O O6 0.283114 0.083244 0.406203
O O7 0.245603 0.549051 0.875310
O O8 0.139921 0.358089 0.003535
O O9 0.353157 0.548527 0.047392
O O10 0.864513 0.940526 0.417847
O O11 0.987393 0.891532 0.291932
O O12 0.727268 0.727268 0.500000
O O13 0.255556 0.255556 0.500000
#
# Coordination Sequence:
#
# PCOD8322190 Si02
#       7
#     6   3   6   3   6   6   6
#     4  11  21  40  62  88 122 165 208 258 299 375
#     4  11  22  39  68  88 124 169 210 235 316 378
#     4  11  23  42  65  88 120 162 221 264 303 370
#     4  11  20  33  58  98 136 161 188 225 322 396
#     4  11  20  34  62  94 127 160 197 246 314 387
#     4  11  23  44  66  90 114 168 222 261 308 370
#     4  11  25  36  58 100 137 158 191 252 321 379
#
# _framework density 19.493224000000001
#
# number of rings (size 3 to 8) (size 9 to 14) (size 15 to 20)
#    0.000    1.000    6.667    1.500    4.667    0.000 
#    3.000    4.167    0.000    0.000    0.000    0.000 
#    0.000    0.000    0.000    0.000    0.000    0.000 
#
# Total GULP energy -446142.128215 kJ/mol
# GULP energy per Si atom -12392.836895 kJ/mol
# Density = 1.944886 g / cm^3
# Si number density = 19.493224 Si / 1000 Ang^3
#
#
#
# Elastic Constant Matrix: (Units=GPa)
#
#
# Indices 1 2 3 4 5 6 
#
# 1 93.8639 45.0246 39.2550 -0.6109 0.0000 0.0000
# 2 45.0246 93.8639 39.2550 0.6109 0.0000 0.0000
# 3 39.2550 39.2550 86.3324 0.0000 0.0000 0.0000
# 4 -0.6109 0.6109 0.0000 24.0315 0.0000 0.0000
# 5 0.0000 0.0000 0.0000 0.0000 24.0315 -0.6109
# 6 0.0000 0.0000 0.0000 0.0000 -0.6109 24.4196
#
#
#
# Elastic Compliance Matrix: (Units=1/GPa)
#
#
# Indices 1 2 3 4 5 6 
#
# 1 0.015090 -0.005399 -0.004406 0.000521 0.000000 0.000000
# 2 -0.005399 0.015090 -0.004406 -0.000521 0.000000 0.000000
# 3 -0.004406 -0.004406 0.015590 0.000000 0.000000 0.000000
# 4 0.000521 -0.000521 0.000000 0.041639 0.000000 0.000000
# 5 0.000000 0.000000 0.000000 0.000000 0.041639 0.001042
# 6 0.000000 0.000000 0.000000 0.000000 0.001042 0.040977
#
#
# Mechanical properties :
#
#
# Convention : Reuss Voigt Hill
#
# Bulk Modulus (GPa) = 57.64884 57.90325 57.77605
# Shear Modulus (GPa) = 24.48238 24.53156 24.50697
#
# Velocity S-wave (km/s) = 3.54777 3.55133 3.54955
# Velocity P-wave (km/s) = 6.81324 6.82530 6.81927
#
# Compressibility (1/GPa) = 0.01734640
#
# Stress axis : x y z
#
# Youngs Moduli (GPa) = 66.27087 66.27087 64.14258
#
# Poissons Ratio (x) = 0.35778 0.28264
# Poissons Ratio (y) = 0.35778 0.28264
# Poissons Ratio (z) = 0.29201 0.29201
#
# Static dielectric constant tensor:
#      x y z
#    x 3.674160 0.000000 0.000000 
#    y 0.000000 3.674160 0.000000 
#    z 0.000000 0.000000 3.610380 
# 
# 
# High freq. dielectric constant tensor:
#      x y z
#    x 1.754860 0.000000 0.000000 
#    y 0.000000 1.754860 0.000000 
#    z 0.000000 0.000000 1.752590 
# 
# From -- ./inp_files/2066.got.cif
#   From: 2010.03.12/outbox.cif.g09.slc.cpg/sg152_2_cif.got.tgz:2066.got - 2010.04.03 13:45:27.
