data_PCOD8322634
_publ_section_title
;
Structure prediction by ZEFSAII (Michael W. Deem and Ramdas Pophale) SiO2 
 PCOD8322634
Probable space group: R 3 2
;
_chemical_formula_sum "Si O2"
_cell_formula_units_Z 51
_cell_length_a 17.643414
_cell_length_b 17.643414
_cell_length_c 7.042768
_cell_angle_alpha 90.000000
_cell_angle_beta 90.000000
_cell_angle_gamma 120.000000
_cell_volume 1898.625300
_symmetry_space_group_name_H-M "R 3 2"
_symmetry_group_IT_number 155
_symmetry_cell_setting 'hexagonal'
loop_
_space_group_symop_operation_xyz
x,y,z
-y,x-y,z
-x+y,-x,z
x-y,-y,-z
-x,-x+y,-z
y,x,-z
2/3+x,1/3+y,1/3+z
2/3-y,1/3+x-y,1/3+z
2/3-x+y,1/3-x,1/3+z
2/3+x-y,1/3-y,1/3-z
2/3-x,1/3-x+y,1/3-z
2/3+y,1/3+x,1/3-z
1/3+x,2/3+y,2/3+z
1/3-y,2/3+x-y,2/3+z
1/3-x+y,2/3-x,2/3+z
1/3+x-y,2/3-y,2/3-z
1/3-x,2/3-x+y,2/3-z
1/3+y,2/3+x,2/3-z
loop_
_atom_site_type_symbol
_atom_site_label
_atom_site_fract_x
_atom_site_fract_y
_atom_site_fract_z
Si Si1 0.537659 0.000000 0.000000
Si Si2 0.205192 0.921104 0.648453
Si Si3 0.493816 0.840083 0.459037
Si Si4 0.666667 0.333334 0.611733
O O1 0.541031 0.910307 0.017563
O O2 0.477693 0.982849 0.812037
O O3 0.113105 0.900658 0.734269
O O4 0.240338 0.000000 0.500000
O O5 0.268698 0.935364 0.833334
O O6 0.536333 0.869666 0.666667
O O7 0.431144 0.735138 0.458846
O O8 0.666668 0.333334 0.833334
#
# Coordination Sequence:
#
# PCOD8322634 Si02
#       4
#     9  18  18   6
#     4  12  26  48  82 122 166 216 268 346 438 506
#     4  12  28  52  81 118 166 224 287 348 430 514
#     4  12  25  49  82 122 164 216 273 350 422 512
#     4  12  25  47  79 117 166 206 274 331 401 496
#
# _framework density 26.861537999999999
#
# number of rings (size 3 to 8) (size 9 to 14) (size 15 to 20)
#    0.000    0.000    3.529    7.412    0.000    5.647 
#    3.176    0.000    0.000    0.000    0.000    0.000 
#    0.000    0.000    0.000    0.000    0.000    0.000 
#
# Total GULP energy -210732.727268 kJ/mol
# GULP energy per Si atom -12396.042780 kJ/mol
# Density = 2.680040 g / cm^3
# Si number density = 26.861538 Si / 1000 Ang^3
#
#
#
# Elastic Constant Matrix: (Units=GPa)
#
#
# Indices 1 2 3 4 5 6 
#
# 1 137.0229 69.3326 52.1065 1.9033 0.0062 0.0057
# 2 69.3326 137.0222 52.1035 -1.9290 0.0109 0.0005
# 3 52.1065 52.1035 212.6291 -0.0398 0.0560 0.0084
# 4 1.9033 -1.9290 -0.0398 19.5884 -0.0425 0.0032
# 5 0.0062 0.0109 0.0560 -0.0425 19.6405 1.9376
# 6 0.0057 0.0005 0.0084 0.0032 1.9376 33.8439
#
#
#
# Elastic Compliance Matrix: (Units=1/GPa)
#
#
# Indices 1 2 3 4 5 6 
#
# 1 0.010193 -0.004663 -0.001356 -0.001452 0.000000 -0.000001
# 2 -0.004663 0.010193 -0.001355 0.001454 0.000003 0.000001
# 3 -0.001356 -0.001355 0.005367 0.000009 -0.000014 0.000000
# 4 -0.001452 0.001454 0.000009 0.051335 0.000112 -0.000011
# 5 0.000000 0.000003 -0.000014 0.000112 0.051205 -0.002932
# 6 -0.000001 0.000001 0.000000 -0.000011 -0.002932 0.029715
#
#
# Mechanical properties :
#
#
# Convention : Reuss Voigt Hill
#
# Bulk Modulus (GPa) = 90.85027 92.63994 91.74510
# Shear Modulus (GPa) = 28.34094 35.49001 31.91547
#
# Velocity S-wave (km/s) = 3.25172 3.63880 3.45069
# Velocity P-wave (km/s) = 6.92772 7.22616 7.07851
#
# Compressibility (1/GPa) = 0.01100712
#
# Stress axis : x y z
#
# Youngs Moduli (GPa) = 98.10709 98.10675 186.31569
#
# Poissons Ratio (x) = 0.45743 0.25257
# Poissons Ratio (y) = 0.45743 0.25243
# Poissons Ratio (z) = 0.13299 0.13292
#
# Static dielectric constant tensor:
#      x y z
#    x 5.284670 -0.000240 0.000010 
#    y -0.000240 5.284750 -0.000290 
#    z 0.000010 -0.000290 5.385450 
# 
# 
# High freq. dielectric constant tensor:
#      x y z
#    x 2.073290 0.000000 0.000000 
#    y 0.000000 2.073290 0.000000 
#    z 0.000000 0.000000 2.111310 
# 
# From -- ./inp_files/1691.got.cif
#   From: 2010.03.12/outbox.cif.g09.slc.cpg/sg155_1_cif.got.tgz:1691.got - 2010.04.03 13:54:13.
