data_PCOD8322117
_publ_section_title
;
Structure prediction by ZEFSAII (Michael W. Deem and Ramdas Pophale) SiO2 
 PCOD8322117
Probable space group: P 31 2 1
;
_chemical_formula_sum "Si O2"
_cell_formula_units_Z 33
_cell_length_a 11.353522
_cell_length_b 11.353522
_cell_length_c 14.210378
_cell_angle_alpha 90.000000
_cell_angle_beta 90.000000
_cell_angle_gamma 120.000000
_cell_volume 1586.344378
_symmetry_space_group_name_H-M "P 31 2 1"
_symmetry_group_IT_number 152
_symmetry_cell_setting 'hexagonal'
loop_
_space_group_symop_operation_xyz
x,y,z
-y,x-y,1/3+z
-x+y,-x,2/3+z
x-y,-y,2/3-z
-x,-x+y,1/3-z
y,x,-z
loop_
_atom_site_type_symbol
_atom_site_label
_atom_site_fract_x
_atom_site_fract_y
_atom_site_fract_z
Si Si1 0.637464 0.201925 0.715595
Si Si2 0.756984 0.029298 0.442387
Si Si3 0.236336 0.886827 0.898327
Si Si4 0.756310 0.719221 0.233585
Si Si5 0.321857 0.321857 0.500000
Si Si6 0.432469 0.860960 0.157812
O O1 0.504659 0.214518 0.738859
O O2 0.658043 0.214093 0.602768
O O3 0.759164 0.328405 0.766131
O O4 0.625119 0.059440 0.749915
O O5 0.637409 0.063107 0.455776
O O6 0.903705 0.152380 0.476240
O O7 0.765438 0.000000 0.333334
O O8 0.723002 0.904921 0.510267
O O9 0.353052 0.000000 0.833334
O O10 0.224671 0.965459 0.988284
O O11 0.615091 0.583114 0.206720
O O12 0.881099 0.703426 0.199654
#
# Coordination Sequence:
#
# PCOD8322117 Si02
#       6
#     6   6   6   6   3   6
#     4  10  22  42  69  94 128 174 227 271 329 406
#     4  12  26  40  66  99 136 171 219 280 331 389
#     4  11  22  41  64  93 128 172 218 266 325 391
#     4  10  24  43  64  92 133 170 222 263 329 397
#     4  10  20  42  66  92 124 180 220 264 324 404
#     4  10  25  42  66  98 132 175 219 278 338 387
#
# _framework density 20.802546
#
# number of rings (size 3 to 8) (size 9 to 14) (size 15 to 20)
#    0.000    1.455    2.727    1.091    6.364    0.000 
#    0.000    6.364    0.000    0.000    0.000    0.000 
#    0.000    0.000    0.000    0.000    0.000    0.000 
#
# Total GULP energy -409136.077092 kJ/mol
# GULP energy per Si atom -12398.062942 kJ/mol
# Density = 2.075520 g / cm^3
# Si number density = 20.802546 Si / 1000 Ang^3
#
#
#
# Elastic Constant Matrix: (Units=GPa)
#
#
# Indices 1 2 3 4 5 6 
#
# 1 89.6352 33.6590 14.3298 4.0892 -0.0001 0.0000
# 2 33.6590 89.6352 14.3298 -4.0892 0.0001 0.0000
# 3 14.3298 14.3298 56.6252 0.0000 0.0000 0.0000
# 4 4.0892 -4.0892 0.0000 24.4120 0.0000 0.0001
# 5 -0.0001 0.0001 0.0000 0.0000 24.4120 4.0892
# 6 0.0000 0.0000 0.0000 0.0001 4.0892 27.9881
#
#
#
# Elastic Compliance Matrix: (Units=1/GPa)
#
#
# Indices 1 2 3 4 5 6 
#
# 1 0.013465 -0.004848 -0.002181 -0.003068 0.000000 0.000000
# 2 -0.004848 0.013465 -0.002181 0.003068 0.000000 0.000000
# 3 -0.002181 -0.002181 0.018764 0.000000 0.000000 0.000000
# 4 -0.003068 0.003068 0.000000 0.041991 0.000000 0.000000
# 5 0.000000 0.000000 0.000000 0.000000 0.041991 -0.006135
# 6 0.000000 0.000000 0.000000 0.000000 -0.006135 0.036626
#
#
# Mechanical properties :
#
#
# Convention : Reuss Voigt Hill
#
# Bulk Modulus (GPa) = 36.66260 40.05918 38.36089
# Shear Modulus (GPa) = 25.79810 26.93423 26.36616
#
# Velocity S-wave (km/s) = 3.52538 3.60218 3.56399
# Velocity P-wave (km/s) = 5.85094 6.04976 5.95118
#
# Compressibility (1/GPa) = 0.02727575
#
# Stress axis : x y z
#
# Youngs Moduli (GPa) = 74.26514 74.26514 53.29427
#
# Poissons Ratio (x) = 0.36001 0.11622
# Poissons Ratio (y) = 0.36001 0.11622
# Poissons Ratio (z) = 0.16196 0.16196
#
# Static dielectric constant tensor:
#      x y z
#    x 3.810730 0.000000 0.000000 
#    y 0.000000 3.810730 0.000000 
#    z 0.000000 0.000000 3.969460 
# 
# 
# High freq. dielectric constant tensor:
#      x y z
#    x 1.815690 0.000000 0.000000 
#    y 0.000000 1.815690 0.000000 
#    z 0.000000 0.000000 1.822270 
# 
# From -- ./inp_files/2024.got.cif
#   From: 2010.03.12/outbox.cif.g09.slc.cpg/sg152_2_cif.got.tgz:2024.got - 2010.04.03 13:45:27.
