data_PCOD8322829
_publ_section_title
;
Structure prediction by ZEFSAII (Michael W. Deem and Ramdas Pophale) SiO2 
 PCOD8322829
Probable space group: P 3 1 C
;
_chemical_formula_sum "Si O2"
_cell_formula_units_Z 40
_cell_length_a 10.622511
_cell_length_b 10.622511
_cell_length_c 18.128366
_cell_angle_alpha 90.000000
_cell_angle_beta 90.000000
_cell_angle_gamma 120.000000
_cell_volume 1771.510258
_symmetry_space_group_name_H-M "P 3 1 C"
_symmetry_group_IT_number 159
_symmetry_cell_setting 'hexagonal'
loop_
_space_group_symop_operation_xyz
x,y,z
-y,x-y,z
-x+y,-x,z
y,x,1/2+z
x-y,-y,1/2+z
-x,-x+y,1/2+z
loop_
_atom_site_type_symbol
_atom_site_label
_atom_site_fract_x
_atom_site_fract_y
_atom_site_fract_z
Si Si1 0.266322 0.022102 0.514950
Si Si2 0.258568 0.227685 0.931647
Si Si3 0.065032 0.339259 0.674763
Si Si4 0.821558 0.175782 0.782988
Si Si5 0.666668 0.333333 0.013227
Si Si6 0.982881 0.593638 0.165630
Si Si7 0.333334 0.666668 0.340422
Si Si8 0.529058 0.005102 0.013938
O O1 0.207580 0.111880 0.468686
O O2 0.175935 0.861793 0.480044
O O3 0.243966 0.010176 0.603350
O O4 0.437932 0.082117 0.499582
O O5 0.248192 0.187104 0.845346
O O6 0.388362 0.394953 0.939699
O O7 0.233428 0.390822 0.678623
O O8 0.051020 0.481617 0.677405
O O9 0.980854 0.243556 0.746552
O O10 0.793403 0.299711 0.816768
O O11 0.699380 0.104001 0.721358
O O12 0.666668 0.333334 0.926677
O O13 0.574428 0.168132 0.042205
O O14 0.053216 0.638551 0.082676
#
# Coordination Sequence:
#
# PCOD8322829 Si02
#       8
#     6   6   6   6   2   6   2   6
#     4  11  25  44  72 100 139 185 241 301 350 430
#     4  12  25  45  69 102 140 185 237 295 364 425
#     4  11  24  45  74 103 143 186 241 297 365 426
#     4  12  26  43  70  98 146 184 232 292 365 436
#     4  12  18  39  78  96 114 172 242 301 330 429
#     4  11  23  43  67 105 135 184 234 295 352 432
#     4  12  21  45  69 102 126 181 230 301 354 423
#     4  11  20  42  73  98 129 177 241 290 352 421
#
# _framework density 22.579602000000001
#
# number of rings (size 3 to 8) (size 9 to 14) (size 15 to 20)
#    0.000    0.600    6.000    2.400    2.100    0.000 
#    1.800    0.000    0.000    0.000    0.000    0.000 
#    0.000    0.000    0.000    0.000    0.000    0.000 
#
# Total GULP energy -495822.307471 kJ/mol
# GULP energy per Si atom -12395.557687 kJ/mol
# Density = 2.252821 g / cm^3
# Si number density = 22.579602 Si / 1000 Ang^3
#
#
#
# Elastic Constant Matrix: (Units=GPa)
#
#
# Indices 1 2 3 4 5 6 
#
# 1 76.7897 19.5834 49.4575 0.0002 -1.4787 0.0000
# 2 19.5834 76.7897 49.4574 -0.0002 1.4787 0.0000
# 3 49.4575 49.4574 156.4482 -0.0003 -0.0002 -0.0001
# 4 0.0002 -0.0002 -0.0003 30.2817 -0.0003 1.4785
# 5 -1.4787 1.4787 -0.0002 -0.0003 30.2821 -0.0002
# 6 0.0000 0.0000 -0.0001 1.4785 -0.0002 28.6031
#
#
#
# Elastic Compliance Matrix: (Units=1/GPa)
#
#
# Indices 1 2 3 4 5 6 
#
# 1 0.016443 -0.001082 -0.004856 0.000000 0.000856 0.000000
# 2 -0.001082 0.016442 -0.004856 0.000000 -0.000856 0.000000
# 3 -0.004856 -0.004856 0.009462 0.000000 0.000000 0.000000
# 4 0.000000 0.000000 0.000000 0.033107 0.000000 -0.001711
# 5 0.000856 -0.000856 0.000000 0.000000 0.033106 0.000000
# 6 0.000000 0.000000 0.000000 -0.001711 0.000000 0.035050
#
#
# Mechanical properties :
#
#
# Convention : Reuss Voigt Hill
#
# Bulk Modulus (GPa) = 48.17128 60.78046 54.47587
# Shear Modulus (GPa) = 29.04996 30.60200 29.82598
#
# Velocity S-wave (km/s) = 3.59075 3.68543 3.63840
# Velocity P-wave (km/s) = 6.21061 6.71465 6.46754
#
# Compressibility (1/GPa) = 0.02075926
#
# Stress axis : x y z
#
# Youngs Moduli (GPa) = 60.81799 60.81806 105.68631
#
# Poissons Ratio (x) = 0.06583 0.51319
# Poissons Ratio (y) = 0.06583 0.51319
# Poissons Ratio (z) = 0.29532 0.29532
#
# Static dielectric constant tensor:
#      x y z
#    x 4.219030 -0.000010 0.000000 
#    y -0.000010 4.219010 -0.000010 
#    z 0.000000 -0.000010 4.361780 
# 
# 
# High freq. dielectric constant tensor:
#      x y z
#    x 1.885200 0.000000 0.000000 
#    y 0.000000 1.885200 0.000000 
#    z 0.000000 0.000000 1.896700 
# 
# From -- ./inp_files/1135.got.cif
#   From: 2010.03.12/outbox.cif.g09.slc.cpg/sg159_cif.got.tgz:1135.got - 2010.04.03 14:00:19.
