data_PCOD8322813
_publ_section_title
;
Structure prediction by ZEFSAII (Michael W. Deem and Ramdas Pophale) SiO2 
 PCOD8322813
Probable space group: P 3 1 C
;
_chemical_formula_sum "Si O2"
_cell_formula_units_Z 42
_cell_length_a 8.569222
_cell_length_b 8.569222
_cell_length_c 29.159810
_cell_angle_alpha 90.000000
_cell_angle_beta 90.000000
_cell_angle_gamma 120.000000
_cell_volume 1854.377332
_symmetry_space_group_name_H-M "P 3 1 C"
_symmetry_group_IT_number 159
_symmetry_cell_setting 'hexagonal'
loop_
_space_group_symop_operation_xyz
x,y,z
-y,x-y,z
-x+y,-x,z
y,x,1/2+z
x-y,-y,1/2+z
-x,-x+y,1/2+z
loop_
_atom_site_type_symbol
_atom_site_label
_atom_site_fract_x
_atom_site_fract_y
_atom_site_fract_z
Si Si1 0.356876 0.359548 0.446150
Si Si2 0.548281 0.101705 0.355499
Si Si3 0.673910 0.006164 0.123195
Si Si4 0.678488 0.674536 0.480566
Si Si5 0.645185 0.641693 0.764444
Si Si6 0.671723 0.668180 0.586462
Si Si7 0.678373 0.005201 0.229580
O O1 0.450868 0.473750 0.399332
O O2 0.474953 0.508353 0.483855
O O3 0.380128 0.185594 0.452061
O O4 0.150445 0.303144 0.453606
O O5 0.766814 0.228746 0.355321
O O6 0.443014 0.975300 0.312176
O O7 0.797945 0.198350 0.099852
O O8 0.727718 0.859755 0.110083
O O9 0.472459 0.941775 0.104963
O O10 0.725408 0.030777 0.176597
O O11 0.729883 0.703544 0.533367
O O12 0.851767 0.700821 0.755792
O O13 0.526598 0.489784 0.727590
O O14 0.618059 0.813258 0.758138
#
# Coordination Sequence:
#
# PCOD8322813 Si02
#       7
#     6   6   6   6   6   6   6
#     4  12  25  45  73 105 142 184 236 296 353 430
#     4  10  20  48  72 100 132 172 224 280 358 414
#     4  12  25  43  67 100 143 191 241 295 350 417
#     4  12  24  44  70 103 141 190 240 291 356 418
#     4  12  25  45  73 105 142 184 236 296 353 430
#     4  12  25  43  67 100 143 191 241 295 350 417
#     4  12  24  44  70 103 141 190 240 291 356 418
#
# _framework density 22.64911
#
# number of rings (size 3 to 8) (size 9 to 14) (size 15 to 20)
#    0.286    0.000    2.857    7.714    0.000    1.143 
#    0.000    0.000    0.000    0.000    0.000    0.000 
#    0.000    0.000    0.000    0.000    0.000    0.000 
#
# Total GULP energy -520456.856738 kJ/mol
# GULP energy per Si atom -12391.829922 kJ/mol
# Density = 2.259756 g / cm^3
# Si number density = 22.649110 Si / 1000 Ang^3
#
#
#
# Elastic Constant Matrix: (Units=GPa)
#
#
# Indices 1 2 3 4 5 6 
#
# 1 99.3497 12.7300 31.7497 0.0000 -6.7759 0.0000
# 2 12.7300 99.3497 31.7497 0.0000 6.7759 0.0000
# 3 31.7497 31.7497 150.5998 0.0000 0.0000 0.0000
# 4 0.0000 0.0000 0.0000 33.9401 0.0000 6.7759
# 5 -6.7759 6.7759 0.0000 0.0000 33.9401 0.0000
# 6 0.0000 0.0000 0.0000 6.7759 0.0000 43.3098
#
#
#
# Elastic Compliance Matrix: (Units=1/GPa)
#
#
# Indices 1 2 3 4 5 6 
#
# 1 0.011025 -0.000892 -0.002136 0.000000 0.002379 0.000000
# 2 -0.000892 0.011025 -0.002136 0.000000 -0.002379 0.000000
# 3 -0.002136 -0.002136 0.007541 0.000000 0.000000 0.000000
# 4 0.000000 0.000000 0.000000 0.030414 0.000000 -0.004758
# 5 0.002379 -0.002379 0.000000 0.000000 0.030414 0.000000
# 6 0.000000 0.000000 0.000000 -0.004758 0.000000 0.023834
#
#
# Mechanical properties :
#
#
# Convention : Reuss Voigt Hill
#
# Bulk Modulus (GPa) = 51.91796 55.75092 53.83444
# Shear Modulus (GPa) = 38.16769 40.44264 39.30516
#
# Velocity S-wave (km/s) = 4.10954 4.23024 4.17033
# Velocity P-wave (km/s) = 6.74465 6.96623 6.85634
#
# Compressibility (1/GPa) = 0.01926116
#
# Stress axis : x y z
#
# Youngs Moduli (GPa) = 90.70537 90.70537 132.61182
#
# Poissons Ratio (x) = 0.08093 0.28328
# Poissons Ratio (y) = 0.08093 0.28328
# Poissons Ratio (z) = 0.19376 0.19376
#
# Static dielectric constant tensor:
#      x y z
#    x 3.696780 0.000000 0.000000 
#    y 0.000000 3.696780 0.000000 
#    z 0.000000 0.000000 4.127580 
# 
# 
# High freq. dielectric constant tensor:
#      x y z
#    x 1.892740 0.000000 0.000000 
#    y 0.000000 1.892740 0.000000 
#    z 0.000000 0.000000 1.904190 
# 
# From -- ./inp_files/1304.got.cif
#   From: 2010.03.12/outbox.cif.g09.slc.cpg/sg159_cif.got.tgz:1304.got - 2010.04.03 14:00:19.
