data_PCOD8322160
_publ_section_title
;
Structure prediction by ZEFSAII (Michael W. Deem and Ramdas Pophale) SiO2 
 PCOD8322160
Probable space group: P 31 2 1
;
_chemical_formula_sum "Si O2"
_cell_formula_units_Z 39
_cell_length_a 8.150141
_cell_length_b 8.150141
_cell_length_c 31.112030
_cell_angle_alpha 90.000000
_cell_angle_beta 90.000000
_cell_angle_gamma 120.000000
_cell_volume 1789.737035
_symmetry_space_group_name_H-M "P 31 2 1"
_symmetry_group_IT_number 152
_symmetry_cell_setting 'hexagonal'
loop_
_space_group_symop_operation_xyz
x,y,z
-y,x-y,1/3+z
-x+y,-x,2/3+z
x-y,-y,2/3-z
-x,-x+y,1/3-z
y,x,-z
loop_
_atom_site_type_symbol
_atom_site_label
_atom_site_fract_x
_atom_site_fract_y
_atom_site_fract_z
Si Si1 0.068839 0.805688 0.868049
Si Si2 0.468411 0.359646 0.043020
Si Si3 0.328451 0.196501 0.350986
Si Si4 0.000000 0.876028 0.166667
Si Si5 0.273540 0.417273 0.424689
Si Si6 0.816512 0.609166 0.552173
Si Si7 0.470080 0.478888 0.274892
O O1 0.150751 0.720564 0.831315
O O2 0.884183 0.811604 0.849677
O O3 0.067702 0.712800 0.912925
O O4 0.186100 0.026358 0.880483
O O5 0.676349 0.542148 0.043980
O O6 0.359476 0.379076 0.083940
O O7 0.495507 0.177804 0.043690
O O8 0.355203 0.355203 0.000000
O O9 0.255805 0.305404 0.380935
O O10 0.455229 0.347456 0.314740
O O11 0.149322 0.000000 0.333334
O O12 0.055353 0.780060 0.129653
O O13 0.475753 0.604710 0.430928
O O14 0.128739 0.492766 0.422748
#
# Coordination Sequence:
#
# PCOD8322160 Si02
#       7
#     6   6   6   3   6   6   6
#     4  10  23  43  64  91 127 166 213 263 317 381
#     4  11  24  43  65  91 127 169 214 265 321 381
#     4  11  24  42  62  91 128 168 213 263 315 381
#     4  10  22  42  62  92 130 168 212 264 316 378
#     4  12  24  39  64  95 127 166 211 262 323 380
#     4  10  22  43  65  92 127 167 213 265 320 381
#     4  12  24  40  65  95 125 168 213 263 323 378
#
# _framework density 21.790911999999999
#
# number of rings (size 3 to 8) (size 9 to 14) (size 15 to 20)
#    0.000    1.231    0.000    8.308    0.000    5.538 
#    0.000    0.000    0.000    0.000    0.000    0.000 
#    0.000    0.000    0.000    0.000    0.000    0.000 
#
# Total GULP energy -483267.758936 kJ/mol
# GULP energy per Si atom -12391.480998 kJ/mol
# Density = 2.174132 g / cm^3
# Si number density = 21.790912 Si / 1000 Ang^3
#
#
#
# Elastic Constant Matrix: (Units=GPa)
#
#
# Indices 1 2 3 4 5 6 
#
# 1 94.1047 19.7838 35.6221 -8.3059 -0.0005 0.0000
# 2 19.7838 94.1047 35.6221 8.3059 0.0005 0.0000
# 3 35.6221 35.6221 98.3205 0.0000 0.0000 0.0000
# 4 -8.3059 8.3059 0.0000 17.0501 0.0000 0.0005
# 5 -0.0005 0.0005 0.0000 0.0000 17.0501 -8.3059
# 6 0.0000 0.0000 0.0000 0.0005 -8.3059 37.1605
#
#
#
# Elastic Compliance Matrix: (Units=1/GPa)
#
#
# Indices 1 2 3 4 5 6 
#
# 1 0.013227 -0.001873 -0.004114 0.007356 0.000000 0.000000
# 2 -0.001873 0.013227 -0.004114 -0.007356 0.000000 0.000000
# 3 -0.004114 -0.004114 0.013152 0.000000 0.000000 0.000000
# 4 0.007356 -0.007356 0.000000 0.065817 0.000000 -0.000001
# 5 0.000000 0.000000 0.000000 0.000000 0.065817 0.014711
# 6 0.000000 0.000000 0.000000 -0.000001 0.014711 0.030198
#
#
# Mechanical properties :
#
#
# Convention : Reuss Voigt Hill
#
# Bulk Modulus (GPa) = 51.53326 52.06510 51.79918
# Shear Modulus (GPa) = 21.91972 27.28560 24.60266
#
# Velocity S-wave (km/s) = 3.17505 3.54242 3.36375
# Velocity P-wave (km/s) = 6.09439 6.37782 6.23771
#
# Compressibility (1/GPa) = 0.01940494
#
# Stress axis : x y z
#
# Youngs Moduli (GPa) = 75.60579 75.60579 76.03674
#
# Poissons Ratio (x) = 0.14159 0.31278
# Poissons Ratio (y) = 0.14159 0.31278
# Poissons Ratio (z) = 0.31101 0.31101
#
# Static dielectric constant tensor:
#      x y z
#    x 3.994790 0.000000 0.000000 
#    y 0.000000 3.994790 0.000000 
#    z 0.000000 0.000000 4.211170 
# 
# 
# High freq. dielectric constant tensor:
#      x y z
#    x 1.858720 0.000000 0.000000 
#    y 0.000000 1.858720 0.000000 
#    z 0.000000 0.000000 1.872860 
# 
# From -- ./inp_files/3634.got.cif
#   From: 2010.03.12/outbox.cif.g09.slc.cpg/sg152_2_cif.got.tgz:3634.got - 2010.04.03 13:45:27.
