data_PCOD8322630
_publ_section_title
;
Structure prediction by ZEFSAII (Michael W. Deem and Ramdas Pophale) SiO2 
 PCOD8322630
Probable space group: R 3 2
;
_chemical_formula_sum "Si O2"
_cell_formula_units_Z 57
_cell_length_a 13.116657
_cell_length_b 13.116657
_cell_length_c 14.195101
_cell_angle_alpha 90.000000
_cell_angle_beta 90.000000
_cell_angle_gamma 120.000000
_cell_volume 2115.024694
_symmetry_space_group_name_H-M "R 3 2"
_symmetry_group_IT_number 155
_symmetry_cell_setting 'hexagonal'
loop_
_space_group_symop_operation_xyz
x,y,z
-y,x-y,z
-x+y,-x,z
x-y,-y,-z
-x,-x+y,-z
y,x,-z
2/3+x,1/3+y,1/3+z
2/3-y,1/3+x-y,1/3+z
2/3-x+y,1/3-x,1/3+z
2/3+x-y,1/3-y,1/3-z
2/3-x,1/3-x+y,1/3-z
2/3+y,1/3+x,1/3-z
1/3+x,2/3+y,2/3+z
1/3-y,2/3+x-y,2/3+z
1/3-x+y,2/3-x,2/3+z
1/3+x-y,2/3-y,2/3-z
1/3-x,2/3-x+y,2/3-z
1/3+y,2/3+x,2/3-z
loop_
_atom_site_type_symbol
_atom_site_label
_atom_site_fract_x
_atom_site_fract_y
_atom_site_fract_z
Si Si1 0.666668 0.333334 0.224171
Si Si2 0.850847 0.263479 0.012520
Si Si3 0.333333 0.666666 0.277548
Si Si4 0.073105 0.739772 0.833334
Si Si5 0.495567 0.574671 0.826819
O O1 0.666668 0.333334 0.333334
O O2 0.782087 0.332634 0.188312
O O3 0.738008 0.271678 0.980362
O O4 0.920452 0.252361 0.922294
O O5 0.806895 0.145389 0.073911
O O6 0.942278 0.380174 0.072957
O O7 0.333334 0.666668 0.166667
O O8 0.051150 0.608846 0.828388
#
# Coordination Sequence:
#
# PCOD8322630 Si02
#       5
#     6  18   6   9  18
#     4  12  22  50  88 123 172 224 290 365 424 531
#     4  12  27  56  86 128 175 232 293 370 440 533
#     4  12  28  62  85 118 182 238 280 377 463 523
#     4  12  24  52  92 134 166 230 304 364 442 528
#     4  12  27  52  92 129 176 228 297 363 446 524
#
# _framework density 26.950040999999999
#
# number of rings (size 3 to 8) (size 9 to 14) (size 15 to 20)
#    0.000    0.000    6.316    2.842    2.211    0.000 
#    8.526    0.000    0.000    0.000    0.000    0.000 
#    0.000    0.000    0.000    0.000    0.000    0.000 
#
# Total GULP energy -235695.711684 kJ/mol
# GULP energy per Si atom -12405.037457 kJ/mol
# Density = 2.688870 g / cm^3
# Si number density = 26.950041 Si / 1000 Ang^3
#
#
#
# Elastic Constant Matrix: (Units=GPa)
#
#
# Indices 1 2 3 4 5 6 
#
# 1 155.0043 65.1959 64.5126 3.1064 0.0014 0.0000
# 2 65.1959 155.0029 64.5120 -3.1060 -0.0023 0.0000
# 3 64.5126 64.5120 204.4434 0.0007 -0.0009 -0.0001
# 4 3.1064 -3.1060 0.0007 33.3425 -0.0003 -0.0012
# 5 0.0014 -0.0023 -0.0009 -0.0003 33.3483 3.1052
# 6 0.0000 0.0000 -0.0001 -0.0012 3.1052 44.9038
#
#
#
# Elastic Compliance Matrix: (Units=1/GPa)
#
#
# Indices 1 2 3 4 5 6 
#
# 1 0.008389 -0.002818 -0.001758 -0.001044 -0.000001 0.000000
# 2 -0.002818 0.008389 -0.001758 0.001044 0.000001 0.000000
# 3 -0.001758 -0.001758 0.006001 0.000000 0.000000 0.000000
# 4 -0.001044 0.001044 0.000000 0.030186 0.000000 0.000001
# 5 -0.000001 0.000001 0.000000 0.000000 0.030181 -0.002087
# 6 0.000000 0.000000 0.000000 0.000001 -0.002087 0.022414
#
#
# Mechanical properties :
#
#
# Convention : Reuss Voigt Hill
#
# Bulk Modulus (GPa) = 98.89754 100.32128 99.60941
# Shear Modulus (GPa) = 41.11869 43.66761 42.39315
#
# Velocity S-wave (km/s) = 3.91031 4.02968 3.97044
# Velocity P-wave (km/s) = 7.56066 7.67834 7.61973
#
# Compressibility (1/GPa) = 0.01011147
#
# Stress axis : x y z
#
# Youngs Moduli (GPa) = 119.19993 119.19902 166.64281
#
# Poissons Ratio (x) = 0.33588 0.29297
# Poissons Ratio (y) = 0.33588 0.29297
# Poissons Ratio (z) = 0.20956 0.20956
#
# Static dielectric constant tensor:
#      x y z
#    x 4.637130 -0.000010 0.000000 
#    y -0.000010 4.637060 0.000020 
#    z 0.000000 0.000020 5.331650 
# 
# 
# High freq. dielectric constant tensor:
#      x y z
#    x 2.105950 0.000000 0.000000 
#    y 0.000000 2.105960 0.000000 
#    z 0.000000 0.000000 2.102080 
# 
# From -- ./inp_files/4776.got.cif
#   From: 2010.03.12/outbox.cif.g09.slc.cpg/sg155_3_cif.got.tgz:4776.got - 2010.04.03 13:54:13.
