data_PCOD8322042
_publ_section_title
;
Structure prediction by ZEFSAII (Michael W. Deem and Ramdas Pophale) SiO2 
 PCOD8322042
Probable space group: P 31 2 1
;
_chemical_formula_sum "Si O2"
_cell_formula_units_Z 36
_cell_length_a 9.325556
_cell_length_b 9.325556
_cell_length_c 26.729425
_cell_angle_alpha 90.000000
_cell_angle_beta 90.000000
_cell_angle_gamma 120.000000
_cell_volume 2013.120247
_symmetry_space_group_name_H-M "P 31 2 1"
_symmetry_group_IT_number 152
_symmetry_cell_setting 'hexagonal'
loop_
_space_group_symop_operation_xyz
x,y,z
-y,x-y,1/3+z
-x+y,-x,2/3+z
x-y,-y,2/3-z
-x,-x+y,1/3-z
y,x,-z
loop_
_atom_site_type_symbol
_atom_site_label
_atom_site_fract_x
_atom_site_fract_y
_atom_site_fract_z
Si Si1 0.440948 0.294760 0.461602
Si Si2 0.508739 0.822198 0.541631
Si Si3 0.821659 0.918644 0.608548
Si Si4 0.235079 0.159816 0.866758
Si Si5 0.165207 0.190368 0.389207
Si Si6 0.702914 0.694352 0.800338
O O1 0.410373 0.410373 0.500000
O O2 0.632476 0.377813 0.447127
O O3 0.354792 0.276145 0.407527
O O4 0.367983 0.112484 0.485307
O O5 0.668087 0.904025 0.577708
O O6 0.574705 0.829441 0.484839
O O7 0.424243 0.932096 0.547903
O O8 0.864736 0.775615 0.590129
O O9 0.772003 0.909513 0.666060
O O10 0.994697 0.088396 0.599585
O O11 0.168660 0.286820 0.857164
O O12 0.118852 0.000000 0.833334
O O13 0.084749 0.277295 0.420304
#
# Coordination Sequence:
#
# PCOD8322042 Si02
#       6
#     6   6   6   6   6   6
#     4  10  19  32  50  74  99 126 161 202 247 293
#     4  11  20  30  50  79 105 125 159 214 258 289
#     4   9  18  34  54  71  94 134 176 202 241 302
#     4   9  17  33  53  71  95 133 172 201 239 302
#     4   9  19  35  54  69  94 137 174 201 240 305
#     4  10  19  32  51  75 101 130 166 206 250 297
#
# _framework density 17.882688999999999
#
# number of rings (size 3 to 8) (size 9 to 14) (size 15 to 20)
#    0.000    2.333    0.000    6.000    0.000    1.333 
#    0.000    0.000    0.000   16.000    0.000    0.000 
#    0.000    0.000    0.000    0.000    0.000    0.000 
#
# Total GULP energy -446025.845774 kJ/mol
# GULP energy per Si atom -12389.606827 kJ/mol
# Density = 1.784199 g / cm^3
# Si number density = 17.882689 Si / 1000 Ang^3
#
#
#
# Elastic Constant Matrix: (Units=GPa)
#
#
# Indices 1 2 3 4 5 6 
#
# 1 96.2163 46.5031 42.7549 -1.6122 0.0000 0.0000
# 2 46.5031 96.2163 42.7549 1.6122 0.0000 0.0000
# 3 42.7549 42.7549 105.7212 0.0000 0.0000 0.0000
# 4 -1.6122 1.6122 0.0000 19.5161 0.0000 0.0000
# 5 0.0000 0.0000 0.0000 0.0000 19.5161 -1.6122
# 6 0.0000 0.0000 0.0000 0.0000 -1.6122 24.8566
#
#
#
# Elastic Compliance Matrix: (Units=1/GPa)
#
#
# Indices 1 2 3 4 5 6 
#
# 1 0.014736 -0.005488 -0.003740 0.001671 0.000000 0.000000
# 2 -0.005488 0.014736 -0.003740 -0.001671 0.000000 0.000000
# 3 -0.003740 -0.003740 0.012484 0.000000 0.000000 0.000000
# 4 0.001671 -0.001671 0.000000 0.051516 0.000000 0.000000
# 5 0.000000 0.000000 0.000000 0.000000 0.051516 0.003341
# 6 0.000000 0.000000 0.000000 0.000000 0.003341 0.040447
#
#
# Mechanical properties :
#
#
# Convention : Reuss Voigt Hill
#
# Bulk Modulus (GPa) = 62.42419 62.46440 62.44430
# Shear Modulus (GPa) = 23.07241 23.85382 23.46312
#
# Velocity S-wave (km/s) = 3.59585 3.65623 3.62616
# Velocity P-wave (km/s) = 7.22658 7.26842 7.24753
#
# Compressibility (1/GPa) = 0.01601943
#
# Stress axis : x y z
#
# Youngs Moduli (GPa) = 67.86296 67.86296 80.10477
#
# Poissons Ratio (x) = 0.37244 0.29957
# Poissons Ratio (y) = 0.37244 0.29957
# Poissons Ratio (z) = 0.25379 0.25379
#
# Static dielectric constant tensor:
#      x y z
#    x 3.272830 0.000000 0.000000 
#    y 0.000000 3.272830 0.000000 
#    z 0.000000 0.000000 3.492470 
# 
# 
# High freq. dielectric constant tensor:
#      x y z
#    x 1.688100 0.000000 0.000000 
#    y 0.000000 1.688100 0.000000 
#    z 0.000000 0.000000 1.677950 
# 
# From -- ./inp_files/3558.got.cif
#   From: 2010.03.12/outbox.cif.g09.slc.cpg/sg152_2_cif.got.tgz:3558.got - 2010.04.03 13:45:27.
