data_PCOD8322560
_publ_section_title
;
Structure prediction by ZEFSAII (Michael W. Deem and Ramdas Pophale) SiO2 
 PCOD8322560
Probable space group: R 3 2
;
_chemical_formula_sum "Si O2"
_cell_formula_units_Z 54
_cell_length_a 12.322105
_cell_length_b 12.322105
_cell_length_c 22.184123
_cell_angle_alpha 90.000000
_cell_angle_beta 90.000000
_cell_angle_gamma 120.000000
_cell_volume 2917.042164
_symmetry_space_group_name_H-M "R 3 2"
_symmetry_group_IT_number 155
_symmetry_cell_setting 'hexagonal'
loop_
_space_group_symop_operation_xyz
x,y,z
-y,x-y,z
-x+y,-x,z
x-y,-y,-z
-x,-x+y,-z
y,x,-z
2/3+x,1/3+y,1/3+z
2/3-y,1/3+x-y,1/3+z
2/3-x+y,1/3-x,1/3+z
2/3+x-y,1/3-y,1/3-z
2/3-x,1/3-x+y,1/3-z
2/3+y,1/3+x,1/3-z
1/3+x,2/3+y,2/3+z
1/3-y,2/3+x-y,2/3+z
1/3-x+y,2/3-x,2/3+z
1/3+x-y,2/3-y,2/3-z
1/3-x,2/3-x+y,2/3-z
1/3+y,2/3+x,2/3-z
loop_
_atom_site_type_symbol
_atom_site_label
_atom_site_fract_x
_atom_site_fract_y
_atom_site_fract_z
Si Si1 0.527957 0.855282 0.314782
Si Si2 0.666667 0.333335 0.066061
Si Si3 0.786117 0.229571 0.373838
Si Si4 0.333334 0.666668 0.790902
Si Si5 0.000000 0.000000 0.429723
O O1 0.439350 0.802971 0.374061
O O2 0.474765 0.747788 0.263148
O O3 0.666667 0.888515 0.333334
O O4 0.526757 0.972672 0.283227
O O5 0.666668 0.333334 0.137331
O O6 0.901656 0.333334 0.333334
O O7 0.666667 0.193693 0.333334
O O8 0.760086 0.282217 0.436154
O O9 0.000000 0.000000 0.500000
#
# Coordination Sequence:
#
# PCOD8322560 Si02
#       5
#    18   6  18   6   6
#     4   9  19  36  54  70 101 142 168 197 253 309
#     4  10  22  34  50  79 106 127 166 218 253 286
#     4   8  15  31  54  76 102 135 167 202 250 300
#     4   9  17  32  54  83 104 120 166 224 247 279
#     4  10  23  37  51  76 104 130 169 215 250 292
#
# _framework density 18.511903
#
# number of rings (size 3 to 8) (size 9 to 14) (size 15 to 20)
#    0.000    3.333    0.000    1.333    0.000    8.000 
#    0.000   13.333    0.000    0.000    0.000    0.000 
#    0.000    0.000    0.000    0.000    0.000    0.000 
#
# Total GULP energy -222990.975246 kJ/mol
# GULP energy per Si atom -12388.387514 kJ/mol
# Density = 1.846977 g / cm^3
# Si number density = 18.511903 Si / 1000 Ang^3
#
#
#
# Elastic Constant Matrix: (Units=GPa)
#
#
# Indices 1 2 3 4 5 6 
#
# 1 90.5229 40.4710 44.8035 3.4640 0.0000 0.0000
# 2 40.4710 90.5235 44.8038 -3.4643 0.0000 0.0000
# 3 44.8035 44.8038 171.4343 -0.0004 0.0000 0.0000
# 4 3.4640 -3.4643 -0.0004 18.5096 0.0000 0.0000
# 5 0.0000 0.0000 0.0000 0.0000 18.5093 3.4641
# 6 0.0000 0.0000 0.0000 0.0000 3.4641 25.0263
#
#
#
# Elastic Compliance Matrix: (Units=1/GPa)
#
#
# Indices 1 2 3 4 5 6 
#
# 1 0.014903 -0.005607 -0.002429 -0.003839 0.000000 0.000000
# 2 -0.005607 0.014903 -0.002429 0.003839 0.000000 0.000000
# 3 -0.002429 -0.002429 0.007103 0.000000 0.000000 0.000000
# 4 -0.003839 0.003839 0.000000 0.055463 0.000000 0.000000
# 5 0.000000 0.000000 0.000000 0.000000 0.055464 -0.007677
# 6 0.000000 0.000000 0.000000 0.000000 -0.007677 0.041021
#
#
# Mechanical properties :
#
#
# Convention : Reuss Voigt Hill
#
# Bulk Modulus (GPa) = 62.59046 68.07083 65.33064
# Shear Modulus (GPa) = 23.24343 27.23586 25.23965
#
# Velocity S-wave (km/s) = 3.54728 3.83986 3.69647
# Velocity P-wave (km/s) = 7.11772 7.51735 7.32026
#
# Compressibility (1/GPa) = 0.01597688
#
# Stress axis : x y z
#
# Youngs Moduli (GPa) = 67.09983 67.10019 140.78608
#
# Poissons Ratio (x) = 0.37625 0.34203
# Poissons Ratio (y) = 0.37625 0.34203
# Poissons Ratio (z) = 0.16301 0.16301
#
# Static dielectric constant tensor:
#      x y z
#    x 3.542490 0.000000 0.000000 
#    y 0.000000 3.542480 0.000010 
#    z 0.000000 0.000010 3.098270 
# 
# 
# High freq. dielectric constant tensor:
#      x y z
#    x 1.715990 0.000000 0.000000 
#    y 0.000000 1.715990 0.000000 
#    z 0.000000 0.000000 1.690360 
# 
# From -- ./inp_files/7257.got.cif
#   From: 2010.03.12/outbox.cif.g09.slc.cpg/sg155_4_cif.got.tgz:7257.got - 2010.04.03 13:54:13.
