data_PCOD8322324
_publ_section_title
;
Structure prediction by ZEFSAII (Michael W. Deem and Ramdas Pophale) SiO2 
 PCOD8322324
Probable space group: P 32 2 1
;
_chemical_formula_sum "Si O2"
_cell_formula_units_Z 42
_cell_length_a 9.303668
_cell_length_b 9.303668
_cell_length_c 29.139695
_cell_angle_alpha 90.000000
_cell_angle_beta 90.000000
_cell_angle_gamma 120.000000
_cell_volume 2184.359129
_symmetry_space_group_name_H-M "P 32 2 1"
_symmetry_group_IT_number 154
_symmetry_cell_setting 'hexagonal'
loop_
_space_group_symop_operation_xyz
x,y,z
-y,x-y,2/3+z
-x+y,-x,1/3+z
x-y,-y,1/3-z
-x,-x+y,2/3-z
y,x,-z
loop_
_atom_site_type_symbol
_atom_site_label
_atom_site_fract_x
_atom_site_fract_y
_atom_site_fract_z
Si Si1 0.587965 0.188262 0.791199
Si Si2 0.678649 0.196542 0.235407
Si Si3 0.064818 0.845176 0.884301
Si Si4 0.071783 0.572807 0.383144
Si Si5 0.859102 0.999842 0.613133
Si Si6 0.302674 0.961617 0.217175
Si Si7 0.503473 0.110746 0.481816
O O1 0.786688 0.297819 0.787312
O O2 0.517921 0.316777 0.790158
O O3 0.498688 0.064118 0.749576
O O4 0.531225 0.074714 0.837268
O O5 0.752832 0.329212 0.277481
O O6 0.764779 0.299472 0.190228
O O7 0.716634 0.047750 0.241436
O O8 0.481416 0.112348 0.231598
O O9 0.256830 0.895116 0.883711
O O10 0.000000 0.852445 0.833334
O O11 0.054729 0.973485 0.917933
O O12 0.000000 0.512794 0.333334
O O13 0.093220 0.753054 0.394116
O O14 0.761337 0.815684 0.592289
O O15 0.900521 0.000000 0.666667
O O16 0.253452 0.000000 0.166667
#
# Coordination Sequence:
#
# PCOD8322324 Si02
#       7
#     6   6   6   6   6   6   6
#     4  10  20  34  59  84 116 146 187 239 291 343
#     4  10  19  37  59  83 112 147 190 242 288 338
#     4  10  20  37  60  84 116 151 189 240 296 339
#     4   9  21  40  60  78 117 156 192 231 290 356
#     4  10  23  40  55  82 118 152 189 240 293 350
#     4  11  19  36  61  85 110 148 196 243 285 345
#     4  10  20  34  56  88 116 144 188 241 295 340
#
# _framework density 19.227608
#
# number of rings (size 3 to 8) (size 9 to 14) (size 15 to 20)
#    0.000    2.000    2.857    0.857    6.000    0.571 
#    5.143    0.000    0.000    0.000    0.000    0.000 
#    0.000    0.000    0.000    0.000    0.000    0.000 
#
# Total GULP energy -520578.664068 kJ/mol
# GULP energy per Si atom -12394.730097 kJ/mol
# Density = 1.918384 g / cm^3
# Si number density = 19.227608 Si / 1000 Ang^3
#
#
#
# Elastic Constant Matrix: (Units=GPa)
#
#
# Indices 1 2 3 4 5 6 
#
# 1 80.5570 25.7418 33.2001 -5.0305 0.0001 0.0000
# 2 25.7418 80.5570 33.2001 5.0305 -0.0001 0.0000
# 3 33.2001 33.2001 84.2745 0.0000 0.0000 0.0000
# 4 -5.0305 5.0305 0.0000 24.2853 0.0000 -0.0001
# 5 0.0001 -0.0001 0.0000 0.0000 24.2853 -5.0305
# 6 0.0000 0.0000 0.0000 -0.0001 -5.0305 27.4076
#
#
#
# Elastic Compliance Matrix: (Units=1/GPa)
#
#
# Indices 1 2 3 4 5 6 
#
# 1 0.015721 -0.003243 -0.004916 0.003928 0.000000 0.000000
# 2 -0.003243 0.015721 -0.004916 -0.003928 0.000000 0.000000
# 3 -0.004916 -0.004916 0.015739 0.000000 0.000000 0.000000
# 4 0.003928 -0.003928 0.000000 0.042805 0.000000 0.000000
# 5 0.000000 0.000000 0.000000 0.000000 0.042805 0.007857
# 6 0.000000 0.000000 0.000000 0.000000 0.007857 0.037928
#
#
# Mechanical properties :
#
#
# Convention : Reuss Voigt Hill
#
# Bulk Modulus (GPa) = 47.54598 47.74137 47.64368
# Shear Modulus (GPa) = 24.52438 25.41207 24.96822
#
# Velocity S-wave (km/s) = 3.57526 3.63939 3.60746
# Velocity P-wave (km/s) = 6.46722 6.52255 6.49495
#
# Compressibility (1/GPa) = 0.02103227
#
# Stress axis : x y z
#
# Youngs Moduli (GPa) = 63.60875 63.60875 63.53592
#
# Poissons Ratio (x) = 0.20628 0.31233
# Poissons Ratio (y) = 0.20628 0.31233
# Poissons Ratio (z) = 0.31269 0.31269
#
# Static dielectric constant tensor:
#      x y z
#    x 3.622200 0.000000 0.000000 
#    y 0.000000 3.622200 0.000000 
#    z 0.000000 0.000000 3.437120 
# 
# 
# High freq. dielectric constant tensor:
#      x y z
#    x 1.748400 0.000000 0.000000 
#    y 0.000000 1.748400 0.000000 
#    z 0.000000 0.000000 1.724510 
# 
# From -- ./inp_files/3757.got.cif
#   From: 2010.03.12/outbox.cif.g09.slc.cpg/sg154_2_cif.got.tgz:3757.got - 2010.04.03 13:51:21.
