data_PCOD8322308
_publ_section_title
;
Structure prediction by ZEFSAII (Michael W. Deem and Ramdas Pophale) SiO2 
 PCOD8322308
Probable space group: P 32 2 1
;
_chemical_formula_sum "Si O2"
_cell_formula_units_Z 42
_cell_length_a 9.357802
_cell_length_b 9.357802
_cell_length_c 27.449536
_cell_angle_alpha 90.000000
_cell_angle_beta 90.000000
_cell_angle_gamma 120.000000
_cell_volume 2081.676996
_symmetry_space_group_name_H-M "P 32 2 1"
_symmetry_group_IT_number 154
_symmetry_cell_setting 'hexagonal'
loop_
_space_group_symop_operation_xyz
x,y,z
-y,x-y,2/3+z
-x+y,-x,1/3+z
x-y,-y,1/3-z
-x,-x+y,2/3-z
y,x,-z
loop_
_atom_site_type_symbol
_atom_site_label
_atom_site_fract_x
_atom_site_fract_y
_atom_site_fract_z
Si Si1 0.086150 0.689161 0.784348
Si Si2 0.225770 0.592969 0.646302
Si Si3 0.137759 0.295401 0.713556
Si Si4 0.125065 0.838795 0.687966
Si Si5 0.547688 0.976245 0.891840
Si Si6 0.627166 0.285735 0.836041
Si Si7 0.846417 0.326482 0.749048
O O1 0.109616 0.834532 0.746978
O O2 0.259296 0.699707 0.796010
O O3 0.000000 0.705377 0.833334
O O4 0.968004 0.519211 0.757278
O O5 0.216855 0.467201 0.685981
O O6 0.161190 0.696319 0.674353
O O7 0.415577 0.694959 0.627846
O O8 0.101509 0.509650 0.600663
O O9 0.136370 0.169084 0.673163
O O10 0.263487 0.314953 0.756804
O O11 0.954917 0.240275 0.734809
O O12 0.281925 0.000000 0.666667
O O13 0.526019 0.119417 0.867017
O O14 0.509827 0.826680 0.855452
O O15 0.741360 0.251862 0.798355
#
# Coordination Sequence:
#
# PCOD8322308 Si02
#       7
#     6   6   6   6   6   6   6
#     4  10  19  35  60  84 115 160 202 239 300 376
#     4  10  19  36  63  89 113 158 213 242 293 368
#     4  11  19  37  62  85 117 156 209 247 297 367
#     4  11  23  38  61  91 126 153 197 266 314 352
#     4  10  21  35  57  93 119 157 199 253 301 360
#     4  10  21  35  58  86 125 154 200 250 306 367
#     4  10  18  34  61  88 108 158 209 245 284 369
#
# _framework density 20.176041000000001
#
# number of rings (size 3 to 8) (size 9 to 14) (size 15 to 20)
#    0.000    1.714    4.286    0.857    0.000    3.429 
#    0.000    2.143    6.286    0.000    0.000    0.000 
#    0.000    0.000    0.000    0.000    0.000    0.000 
#
# Total GULP energy -520526.066126 kJ/mol
# GULP energy per Si atom -12393.477765 kJ/mol
# Density = 2.013012 g / cm^3
# Si number density = 20.176041 Si / 1000 Ang^3
#
#
#
# Elastic Constant Matrix: (Units=GPa)
#
#
# Indices 1 2 3 4 5 6 
#
# 1 93.8225 10.1940 44.7937 17.4396 0.0010 0.0000
# 2 10.1940 93.8225 44.7937 -17.4396 -0.0010 0.0000
# 3 44.7937 44.7937 121.9687 0.0000 0.0000 0.0000
# 4 17.4396 -17.4396 0.0000 30.1168 0.0000 -0.0010
# 5 0.0010 -0.0010 0.0000 0.0000 30.1168 17.4396
# 6 0.0000 0.0000 0.0000 -0.0010 17.4396 41.8142
#
#
#
# Elastic Compliance Matrix: (Units=1/GPa)
#
#
# Indices 1 2 3 4 5 6 
#
# 1 0.014913 -0.000852 -0.005164 -0.009129 -0.000001 0.000000
# 2 -0.000852 0.014913 -0.005164 0.009129 0.000001 0.000000
# 3 -0.005164 -0.005164 0.011992 0.000000 0.000000 0.000000
# 4 -0.009129 0.009129 0.000000 0.043777 0.000000 0.000001
# 5 -0.000001 0.000001 0.000000 0.000000 0.043777 -0.018258
# 6 0.000000 0.000000 0.000000 0.000001 -0.018258 0.031530
#
#
# Mechanical properties :
#
#
# Convention : Reuss Voigt Hill
#
# Bulk Modulus (GPa) = 51.39146 56.57515 53.98330
# Shear Modulus (GPa) = 26.35058 34.39837 30.37447
#
# Velocity S-wave (km/s) = 3.61783 4.13354 3.88425
# Velocity P-wave (km/s) = 6.55579 7.13324 6.85060
#
# Compressibility (1/GPa) = 0.01945849
#
# Stress axis : x y z
#
# Youngs Moduli (GPa) = 67.05365 67.05365 83.38879
#
# Poissons Ratio (x) = 0.05711 0.43064
# Poissons Ratio (y) = 0.05711 0.43064
# Poissons Ratio (z) = 0.34628 0.34628
#
# Static dielectric constant tensor:
#      x y z
#    x 3.390090 0.000000 0.000000 
#    y 0.000000 3.390090 0.000000 
#    z 0.000000 0.000000 4.156300 
# 
# 
# High freq. dielectric constant tensor:
#      x y z
#    x 1.765590 0.000000 0.000000 
#    y 0.000000 1.765590 0.000000 
#    z 0.000000 0.000000 1.806010 
# 
# From -- ./inp_files/3802.got.cif
#   From: 2010.03.12/outbox.cif.g09.slc.cpg/sg154_2_cif.got.tgz:3802.got - 2010.04.03 13:51:21.
