data_PCOD8322605
_publ_section_title
;
Structure prediction by ZEFSAII (Michael W. Deem and Ramdas Pophale) SiO2 
 PCOD8322605
Probable space group: R 3 2
;
_chemical_formula_sum "Si O2"
_cell_formula_units_Z 72
_cell_length_a 20.912651
_cell_length_b 20.912651
_cell_length_c 10.004256
_cell_angle_alpha 90.000000
_cell_angle_beta 90.000000
_cell_angle_gamma 120.000000
_cell_volume 3789.078543
_symmetry_space_group_name_H-M "R 3 2"
_symmetry_group_IT_number 155
_symmetry_cell_setting 'hexagonal'
loop_
_space_group_symop_operation_xyz
x,y,z
-y,x-y,z
-x+y,-x,z
x-y,-y,-z
-x,-x+y,-z
y,x,-z
2/3+x,1/3+y,1/3+z
2/3-y,1/3+x-y,1/3+z
2/3-x+y,1/3-x,1/3+z
2/3+x-y,1/3-y,1/3-z
2/3-x,1/3-x+y,1/3-z
2/3+y,1/3+x,1/3-z
1/3+x,2/3+y,2/3+z
1/3-y,2/3+x-y,2/3+z
1/3-x+y,2/3-x,2/3+z
1/3+x-y,2/3-y,2/3-z
1/3-x,2/3-x+y,2/3-z
1/3+y,2/3+x,2/3-z
loop_
_atom_site_type_symbol
_atom_site_label
_atom_site_fract_x
_atom_site_fract_y
_atom_site_fract_z
Si Si1 0.421527 0.282282 0.952467
Si Si2 0.615321 0.865966 0.458398
Si Si3 0.532788 0.616765 0.288099
Si Si4 0.247685 0.048638 0.878170
O O1 0.474703 0.333334 0.833334
O O2 0.335860 0.249124 0.910580
O O3 0.439647 0.218095 0.983934
O O4 0.436197 0.330970 0.085743
O O5 0.666667 0.869629 0.333334
O O6 0.565241 0.781191 0.506118
O O7 0.532359 0.666667 0.166667
O O8 0.582453 0.581533 0.251222
O O9 0.566806 0.663532 0.419608
O O10 0.195187 0.000000 0.000000
#
# Coordination Sequence:
#
# PCOD8322605 Si02
#       4
#    18  18  18  18
#     4   9  18  34  54  78 107 143 185 228 275 323
#     4   9  18  35  55  76 108 145 183 230 275 321
#     4  11  20  33  57  83 111 145 179 222 273 329
#     4  11  21  34  54  83 115 143 174 218 274 331
#
# _framework density 19.001982000000002
#
# number of rings (size 3 to 8) (size 9 to 14) (size 15 to 20)
#    0.000    2.000    0.000    7.500    0.000    0.000 
#    0.000   28.750    0.000    9.000    0.000    0.000 
#    0.000    0.000    0.000    0.000    0.000    0.000 
#
# Total GULP energy -297627.784178 kJ/mol
# GULP energy per Si atom -12401.157674 kJ/mol
# Density = 1.895873 g / cm^3
# Si number density = 19.001982 Si / 1000 Ang^3
#
#
#
# Elastic Constant Matrix: (Units=GPa)
#
#
# Indices 1 2 3 4 5 6 
#
# 1 106.3741 72.3040 51.7368 -25.0714 0.0110 0.0022
# 2 72.3040 106.3758 51.7423 25.0682 -0.0037 -0.0005
# 3 51.7368 51.7423 101.2903 -0.0106 0.0167 0.0039
# 4 -25.0714 25.0682 -0.0106 -25.1243 0.0286 0.0055
# 5 0.0110 -0.0037 0.0167 0.0286 -24.9904 -25.0349
# 6 0.0022 -0.0005 0.0039 0.0055 -25.0349 17.0446
#
#
#
# Elastic Compliance Matrix: (Units=1/GPa)
#
#
# Indices 1 2 3 4 5 6 
#
# 1 0.009920 -0.001971 -0.004061 -0.011864 -0.000006 -0.000006
# 2 -0.001971 0.009919 -0.004059 0.011865 0.000004 0.000004
# 3 -0.004061 -0.004059 0.014020 -0.000003 0.000004 0.000004
# 4 -0.011864 0.011865 -0.000003 -0.016124 -0.000013 -0.000012
# 5 -0.000006 0.000004 0.000004 -0.000013 -0.016191 -0.023782
# 6 -0.000006 0.000004 0.000004 -0.000012 -0.023782 0.023739
#
#
# Mechanical properties :
#
#
# Convention : Reuss Voigt Hill
#
# Bulk Modulus (GPa) = 73.11755 73.95629 73.53692
# Shear Modulus (GPa) = 99.95557 2.60312 51.27934
#
# Velocity S-wave (km/s) = 7.26064 1.17171 5.20047
# Velocity P-wave (km/s) = 10.43320 6.39025 8.65121
#
# Compressibility (1/GPa) = 0.01367661
#
# Stress axis : x y z
#
# Youngs Moduli (GPa) = 100.81066 100.82153 71.32613
#
# Poissons Ratio (x) = 0.19875 0.28965
# Poissons Ratio (y) = 0.19873 0.28948
# Poissons Ratio (z) = 0.40939 0.40919
#
# Static dielectric constant tensor:
#      x y z
#    x 3.762750 0.000170 0.000000 
#    y 0.000170 3.762140 0.000010 
#    z 0.000000 0.000010 3.616510 
# 
# 
# High freq. dielectric constant tensor:
#      x y z
#    x 1.723400 0.000000 0.000000 
#    y 0.000000 1.723400 0.000000 
#    z 0.000000 0.000000 1.742260 
# 
# From -- ./inp_files/2111.got.cif
#   From: 2010.03.12/outbox.cif.g09.slc.cpg/sg155_2_cif.got.tgz:2111.got - 2010.04.03 13:54:13.
