data_PCOD8322435
_publ_section_title
;
Structure prediction by ZEFSAII (Michael W. Deem and Ramdas Pophale) SiO2 
 PCOD8322435
Probable space group: P 32 2 1
;
_chemical_formula_sum "Si O2"
_cell_formula_units_Z 21
_cell_length_a 8.049786
_cell_length_b 8.049786
_cell_length_c 16.078018
_cell_angle_alpha 90.000000
_cell_angle_beta 90.000000
_cell_angle_gamma 120.000000
_cell_volume 902.260224
_symmetry_space_group_name_H-M "P 32 2 1"
_symmetry_group_IT_number 154
_symmetry_cell_setting 'hexagonal'
loop_
_space_group_symop_operation_xyz
x,y,z
-y,x-y,2/3+z
-x+y,-x,1/3+z
x-y,-y,1/3-z
-x,-x+y,2/3-z
y,x,-z
loop_
_atom_site_type_symbol
_atom_site_label
_atom_site_fract_x
_atom_site_fract_y
_atom_site_fract_z
Si Si1 0.442305 0.000000 0.666667
Si Si2 0.238857 0.876832 0.087845
Si Si3 0.834872 0.305716 0.617206
Si Si4 0.195888 0.037829 0.802812
O O1 0.651819 0.185278 0.676448
O O2 0.345934 0.031725 0.585688
O O3 0.185442 0.657360 0.094388
O O4 0.036302 0.872028 0.083586
O O5 0.362788 0.000000 0.166667
O O6 0.362845 0.972078 0.005050
O O7 0.839933 0.166114 0.546933
O O8 0.000000 0.849049 0.833334
#
# Coordination Sequence:
#
# PCOD8322435 Si02
#       4
#     3   6   6   6
#     4  12  24  40  66  96 128 172 222 272 336 396
#     4  11  25  44  66  96 134 174 224 276 334 403
#     4  12  24  42  67  96 135 177 223 277 335 399
#     4  11  23  42  66  95 131 172 223 277 334 396
#
# _framework density 23.274882999999999
#
# number of rings (size 3 to 8) (size 9 to 14) (size 15 to 20)
#    0.000    0.571    0.000   10.286    0.000    3.429 
#    0.000    0.000    0.000    0.000    0.000    0.000 
#    0.000    0.000    0.000    0.000    0.000    0.000 
#
# Total GULP energy -260523.396693 kJ/mol
# GULP energy per Si atom -12405.876033 kJ/mol
# Density = 2.322191 g / cm^3
# Si number density = 23.274883 Si / 1000 Ang^3
#
#
#
# Elastic Constant Matrix: (Units=GPa)
#
#
# Indices 1 2 3 4 5 6 
#
# 1 119.9559 38.7575 40.5524 -3.9483 -0.0002 0.0000
# 2 38.7575 119.9559 40.5524 3.9483 0.0002 0.0000
# 3 40.5524 40.5524 91.8031 0.0000 0.0000 0.0000
# 4 -3.9483 3.9483 0.0000 38.9333 0.0000 0.0002
# 5 -0.0002 0.0002 0.0000 0.0000 38.9333 -3.9483
# 6 0.0000 0.0000 0.0000 0.0002 -3.9483 40.5992
#
#
#
# Elastic Compliance Matrix: (Units=1/GPa)
#
#
# Indices 1 2 3 4 5 6 
#
# 1 0.010288 -0.002150 -0.003595 0.001261 0.000000 0.000000
# 2 -0.002150 0.010288 -0.003595 -0.001261 0.000000 0.000000
# 3 -0.003595 -0.003595 0.014069 0.000000 0.000000 0.000000
# 4 0.001261 -0.001261 0.000000 0.025941 0.000000 0.000000
# 5 0.000000 0.000000 0.000000 0.000000 0.025941 0.002523
# 6 0.000000 0.000000 0.000000 0.000000 0.002523 0.024876
#
#
# Mechanical properties :
#
#
# Convention : Reuss Voigt Hill
#
# Bulk Modulus (GPa) = 62.63612 63.49329 63.06470
# Shear Modulus (GPa) = 36.92678 37.81668 37.37173
#
# Velocity S-wave (km/s) = 3.98747 4.03524 4.01143
# Velocity P-wave (km/s) = 6.94045 7.00356 6.97207
#
# Compressibility (1/GPa) = 0.01596523
#
# Stress axis : x y z
#
# Youngs Moduli (GPa) = 97.20178 97.20178 71.08028
#
# Poissons Ratio (x) = 0.20901 0.25551
# Poissons Ratio (y) = 0.20901 0.25551
# Poissons Ratio (z) = 0.34940 0.34940
#
# Static dielectric constant tensor:
#      x y z
#    x 4.202030 0.000000 0.000000 
#    y 0.000000 4.202030 0.000000 
#    z 0.000000 0.000000 4.146910 
# 
# 
# High freq. dielectric constant tensor:
#      x y z
#    x 1.926080 0.000000 0.000000 
#    y 0.000000 1.926080 0.000000 
#    z 0.000000 0.000000 1.917370 
# 
# From -- ./inp_files/2295.got.cif
#   From: 2010.03.12/outbox.cif.g09.slc.cpg/sg154_2_cif.got.tgz:2295.got - 2010.04.03 13:51:21.
