data_PCOD8322629
_publ_section_title
;
Structure prediction by ZEFSAII (Michael W. Deem and Ramdas Pophale) SiO2 
 PCOD8322629
Probable space group: R 3 2
;
_chemical_formula_sum "Si O2"
_cell_formula_units_Z 54
_cell_length_a 15.118584
_cell_length_b 15.118584
_cell_length_c 12.877807
_cell_angle_alpha 90.000000
_cell_angle_beta 90.000000
_cell_angle_gamma 120.000000
_cell_volume 2549.146400
_symmetry_space_group_name_H-M "R 3 2"
_symmetry_group_IT_number 155
_symmetry_cell_setting 'hexagonal'
loop_
_space_group_symop_operation_xyz
x,y,z
-y,x-y,z
-x+y,-x,z
x-y,-y,-z
-x,-x+y,-z
y,x,-z
2/3+x,1/3+y,1/3+z
2/3-y,1/3+x-y,1/3+z
2/3-x+y,1/3-x,1/3+z
2/3+x-y,1/3-y,1/3-z
2/3-x,1/3-x+y,1/3-z
2/3+y,1/3+x,1/3-z
1/3+x,2/3+y,2/3+z
1/3-y,2/3+x-y,2/3+z
1/3-x+y,2/3-x,2/3+z
1/3+x-y,2/3-y,2/3-z
1/3-x,2/3-x+y,2/3-z
1/3+y,2/3+x,2/3-z
loop_
_atom_site_type_symbol
_atom_site_label
_atom_site_fract_x
_atom_site_fract_y
_atom_site_fract_z
Si Si1 0.216699 0.452270 0.864184
Si Si2 0.559524 0.610882 0.274296
Si Si3 0.446121 0.857317 0.761818
O O1 0.147099 0.333334 0.833334
O O2 0.337797 0.492621 0.859663
O O3 0.196967 0.521898 0.782309
O O4 0.187579 0.470232 0.980079
O O5 0.565334 0.666667 0.166667
O O6 0.666667 0.662436 0.333334
O O7 0.514371 0.490615 0.254526
O O8 0.474906 0.808240 0.666667
#
# Coordination Sequence:
#
# PCOD8322629 Si02
#       3
#    18  18  18
#     4  12  24  43  68 114 152 190 252 317 383 451
#     4  12  22  44  74 105 151 202 245 310 393 457
#     4  12  22  38  72 108 144 188 254 311 368 452
#
# _framework density 21.183561999999998
#
# number of rings (size 3 to 8) (size 9 to 14) (size 15 to 20)
#    0.000    0.000   10.000    1.667    0.000    1.333 
#    0.000    8.333    0.000    0.000    0.000    0.000 
#    0.000    0.000    0.000    0.000    0.000    0.000 
#
# Total GULP energy -223062.673627 kJ/mol
# GULP energy per Si atom -12392.370757 kJ/mol
# Density = 2.113535 g / cm^3
# Si number density = 21.183562 Si / 1000 Ang^3
#
#
#
# Elastic Constant Matrix: (Units=GPa)
#
#
# Indices 1 2 3 4 5 6 
#
# 1 101.9491 37.9882 46.7758 -8.3165 -0.0005 0.0000
# 2 37.9882 101.9491 46.7758 8.3165 0.0005 0.0000
# 3 46.7758 46.7758 110.1653 0.0000 0.0000 0.0000
# 4 -8.3165 8.3165 0.0000 42.2115 0.0000 0.0005
# 5 -0.0005 0.0005 0.0000 0.0000 42.2115 -8.3165
# 6 0.0000 0.0000 0.0000 0.0005 -8.3165 31.9804
#
#
#
# Elastic Compliance Matrix: (Units=1/GPa)
#
#
# Indices 1 2 3 4 5 6 
#
# 1 0.013229 -0.003250 -0.004237 0.003247 0.000000 0.000000
# 2 -0.003250 0.013229 -0.004237 -0.003247 0.000000 0.000000
# 3 -0.004237 -0.004237 0.012675 0.000000 0.000000 0.000000
# 4 0.003247 -0.003247 0.000000 0.024970 0.000000 0.000000
# 5 0.000000 0.000000 0.000000 0.000000 0.024970 0.006493
# 6 0.000000 0.000000 0.000000 0.000000 0.006493 0.032958
#
#
# Mechanical properties :
#
#
# Convention : Reuss Voigt Hill
#
# Bulk Modulus (GPa) = 63.75596 64.12699 63.94148
# Shear Modulus (GPa) = 33.17733 35.44893 34.31313
#
# Velocity S-wave (km/s) = 3.96180 4.09518 4.02904
# Velocity P-wave (km/s) = 7.14773 7.25937 7.20376
#
# Compressibility (1/GPa) = 0.01568481
#
# Stress axis : x y z
#
# Youngs Moduli (GPa) = 75.59336 75.59336 78.89453
#
# Poissons Ratio (x) = 0.24569 0.33426
# Poissons Ratio (y) = 0.24569 0.33426
# Poissons Ratio (z) = 0.32028 0.32028
#
# Static dielectric constant tensor:
#      x y z
#    x 3.999100 0.000000 0.000000 
#    y 0.000000 3.999100 0.000000 
#    z 0.000000 0.000000 4.357990 
# 
# 
# High freq. dielectric constant tensor:
#      x y z
#    x 1.816010 0.000000 0.000000 
#    y 0.000000 1.816010 0.000000 
#    z 0.000000 0.000000 1.838310 
# 
# From -- ./inp_files/3468.got.cif
#   From: 2010.03.12/outbox.cif.g09.slc.cpg/sg155_2_cif.got.tgz:3468.got - 2010.04.03 13:54:13.
