data_PCOD8322064
_publ_section_title
;
Structure prediction by ZEFSAII (Michael W. Deem and Ramdas Pophale) SiO2 
 PCOD8322064
Probable space group: P 31 2 1
;
_chemical_formula_sum "Si O2"
_cell_formula_units_Z 36
_cell_length_a 8.421198
_cell_length_b 8.421198
_cell_length_c 27.145063
_cell_angle_alpha 90.000000
_cell_angle_beta 90.000000
_cell_angle_gamma 120.000000
_cell_volume 1667.129141
_symmetry_space_group_name_H-M "P 31 2 1"
_symmetry_group_IT_number 152
_symmetry_cell_setting 'hexagonal'
loop_
_space_group_symop_operation_xyz
x,y,z
-y,x-y,1/3+z
-x+y,-x,2/3+z
x-y,-y,2/3-z
-x,-x+y,1/3-z
y,x,-z
loop_
_atom_site_type_symbol
_atom_site_label
_atom_site_fract_x
_atom_site_fract_y
_atom_site_fract_z
Si Si1 0.125238 0.638008 0.940643
Si Si2 0.387083 0.802840 0.853080
Si Si3 0.058565 0.807229 0.313819
Si Si4 0.800182 0.420813 0.663553
Si Si5 0.251145 0.738891 0.437845
Si Si6 0.872392 0.774006 0.124022
O O1 0.284581 0.778161 0.904521
O O2 0.196090 0.522109 0.971763
O O3 0.945258 0.505182 0.908512
O O4 0.094246 0.753133 0.983494
O O5 0.265770 0.626687 0.818658
O O6 0.571192 0.794171 0.855943
O O7 0.426682 0.000000 0.833334
O O8 0.240833 0.790280 0.312725
O O9 0.998431 0.797769 0.256736
O O10 0.095900 0.000000 0.333334
O O11 0.754394 0.385258 0.606060
O O12 0.000000 0.596685 0.666667
O O13 0.204026 0.903117 0.442027
O O14 0.000000 0.918143 0.166667
#
# Coordination Sequence:
#
# PCOD8322064 Si02
#       6
#     6   6   6   6   6   6
#     4  11  22  37  71 100 128 177 234 287 345 424
#     4  11  25  41  64  95 135 181 234 284 344 418
#     4  10  19  42  66  95 131 180 222 278 348 415
#     4  10  19  37  67  94 130 172 228 275 342 410
#     4  11  23  42  66  97 137 176 225 288 353 415
#     4  11  22  41  69  97 134 184 230 278 354 421
#
# _framework density 21.594006
#
# number of rings (size 3 to 8) (size 9 to 14) (size 15 to 20)
#    0.000    1.333    6.667    1.000    4.667    0.667 
#    0.000    0.000    0.000   19.000    0.000    0.000 
#    0.000    0.000    0.000    0.000    0.000    0.000 
#
# Total GULP energy -446115.940305 kJ/mol
# GULP energy per Si atom -12392.109453 kJ/mol
# Density = 2.154486 g / cm^3
# Si number density = 21.594006 Si / 1000 Ang^3
#
#
#
# Elastic Constant Matrix: (Units=GPa)
#
#
# Indices 1 2 3 4 5 6 
#
# 1 79.8569 46.6307 44.5476 -1.4119 0.0002 0.0000
# 2 46.6307 79.8569 44.5476 1.4119 -0.0002 0.0000
# 3 44.5476 44.5476 154.0860 0.0000 0.0000 0.0000
# 4 -1.4119 1.4119 0.0000 27.6197 0.0000 -0.0002
# 5 0.0002 -0.0002 0.0000 0.0000 27.6197 -1.4119
# 6 0.0000 0.0000 0.0000 -0.0002 -1.4119 16.6131
#
#
#
# Elastic Compliance Matrix: (Units=1/GPa)
#
#
# Indices 1 2 3 4 5 6 
#
# 1 0.020078 -0.010150 -0.002870 0.001545 0.000000 0.000000
# 2 -0.010150 0.020078 -0.002870 -0.001545 0.000000 0.000000
# 3 -0.002870 -0.002870 0.008149 0.000000 0.000000 0.000000
# 4 0.001545 -0.001545 0.000000 0.036364 0.000000 0.000000
# 5 0.000000 0.000000 0.000000 0.000000 0.036364 0.003090
# 6 0.000000 0.000000 0.000000 0.000000 0.003090 0.060456
#
#
# Mechanical properties :
#
#
# Convention : Reuss Voigt Hill
#
# Bulk Modulus (GPa) = 60.51796 65.02797 62.77296
# Shear Modulus (GPa) = 22.85421 26.24210 24.54816
#
# Velocity S-wave (km/s) = 3.25677 3.48982 3.37531
# Velocity P-wave (km/s) = 6.49833 6.81306 6.65755
#
# Compressibility (1/GPa) = 0.01652402
#
# Stress axis : x y z
#
# Youngs Moduli (GPa) = 49.80629 49.80629 122.70761
#
# Poissons Ratio (x) = 0.50554 0.35219
# Poissons Ratio (y) = 0.50554 0.35219
# Poissons Ratio (z) = 0.14295 0.14295
#
# Static dielectric constant tensor:
#      x y z
#    x 3.717920 0.000000 0.000000 
#    y 0.000000 3.717920 0.000000 
#    z 0.000000 0.000000 4.280270 
# 
# 
# High freq. dielectric constant tensor:
#      x y z
#    x 1.825850 0.000000 0.000000 
#    y 0.000000 1.825850 0.000000 
#    z 0.000000 0.000000 1.874110 
# 
# From -- ./inp_files/3400.got.cif
#   From: 2010.03.12/outbox.cif.g09.slc.cpg/sg152_2_cif.got.tgz:3400.got - 2010.04.03 13:45:27.
