data_PCOD8322466
_publ_section_title
;
Structure prediction by ZEFSAII (Michael W. Deem and Ramdas Pophale) SiO2 
 PCOD8322466
Probable space group: R 3 2
;
_chemical_formula_sum "Si O2"
_cell_formula_units_Z 81
_cell_length_a 16.814315
_cell_length_b 16.814315
_cell_length_c 18.560004
_cell_angle_alpha 90.000000
_cell_angle_beta 90.000000
_cell_angle_gamma 120.000000
_cell_volume 4544.300641
_symmetry_space_group_name_H-M "R 3 2"
_symmetry_group_IT_number 155
_symmetry_cell_setting 'hexagonal'
loop_
_space_group_symop_operation_xyz
x,y,z
-y,x-y,z
-x+y,-x,z
x-y,-y,-z
-x,-x+y,-z
y,x,-z
2/3+x,1/3+y,1/3+z
2/3-y,1/3+x-y,1/3+z
2/3-x+y,1/3-x,1/3+z
2/3+x-y,1/3-y,1/3-z
2/3-x,1/3-x+y,1/3-z
2/3+y,1/3+x,1/3-z
1/3+x,2/3+y,2/3+z
1/3-y,2/3+x-y,2/3+z
1/3-x+y,2/3-x,2/3+z
1/3+x-y,2/3-y,2/3-z
1/3-x,2/3-x+y,2/3-z
1/3+y,2/3+x,2/3-z
loop_
_atom_site_type_symbol
_atom_site_label
_atom_site_fract_x
_atom_site_fract_y
_atom_site_fract_z
Si Si1 0.964453 0.631120 0.833334
Si Si2 0.250404 0.895435 0.715167
Si Si3 0.163852 0.186875 0.219973
Si Si4 0.950558 0.562567 0.683848
Si Si5 0.478545 0.171522 0.154936
O O1 0.983542 0.732835 0.819810
O O2 0.921196 0.559142 0.767312
O O3 0.333334 0.970213 0.666667
O O4 0.163352 0.829834 0.665182
O O5 0.291875 0.842046 0.760820
O O6 0.220963 0.946520 0.771467
O O7 0.190088 0.195267 0.304890
O O8 0.141700 0.087771 0.192565
O O9 0.077794 0.197757 0.200840
O O10 0.026403 0.666667 0.666667
#
# Coordination Sequence:
#
# PCOD8322466 Si02
#       5
#     9  18  18  18  18
#     4  10  18  32  54  76  98 130 172 212 248 296
#     4  10  20  33  50  74 104 131 161 208 258 302
#     4  10  19  33  53  73  98 131 169 207 248 303
#     4   9  18  32  51  74 100 132 169 209 249 299
#     4  10  20  34  51  73 100 133 168 204 254 307
#
# _framework density 17.824525000000001
#
# number of rings (size 3 to 8) (size 9 to 14) (size 15 to 20)
#    0.000    2.222    0.000    5.778    0.000    2.667 
#    0.000    0.000    0.000    4.444    0.000    0.000 
#    0.000    0.000    0.000    0.000    0.000    0.000 
#
# Total GULP energy -334665.693952 kJ/mol
# GULP energy per Si atom -12395.025702 kJ/mol
# Density = 1.778396 g / cm^3
# Si number density = 17.824525 Si / 1000 Ang^3
#
#
#
# Elastic Constant Matrix: (Units=GPa)
#
#
# Indices 1 2 3 4 5 6 
#
# 1 88.3547 37.4355 33.5387 -3.3642 -0.0001 0.0000
# 2 37.4355 88.3547 33.5387 3.3642 0.0001 0.0000
# 3 33.5387 33.5387 115.7529 0.0000 0.0000 0.0000
# 4 -3.3642 3.3642 0.0000 20.0024 0.0000 0.0001
# 5 -0.0001 0.0001 0.0000 0.0000 20.0024 -3.3642
# 6 0.0000 0.0000 0.0000 0.0001 -3.3642 25.4596
#
#
#
# Elastic Compliance Matrix: (Units=1/GPa)
#
#
# Indices 1 2 3 4 5 6 
#
# 1 0.014744 -0.005341 -0.002724 0.003378 0.000000 0.000000
# 2 -0.005341 0.014744 -0.002724 -0.003378 0.000000 0.000000
# 3 -0.002724 -0.002724 0.010218 0.000000 0.000000 0.000000
# 4 0.003378 -0.003378 0.000000 0.051130 0.000000 0.000000
# 5 0.000000 0.000000 0.000000 0.000000 0.051130 0.006756
# 6 0.000000 0.000000 0.000000 0.000000 0.006756 0.040171
#
#
# Mechanical properties :
#
#
# Convention : Reuss Voigt Hill
#
# Bulk Modulus (GPa) = 55.17085 55.72090 55.44587
# Shear Modulus (GPa) = 23.83685 25.62281 24.72983
#
# Velocity S-wave (km/s) = 3.66089 3.79556 3.72883
# Velocity P-wave (km/s) = 6.99206 7.10894 7.05074
#
# Compressibility (1/GPa) = 0.01812551
#
# Stress axis : x y z
#
# Youngs Moduli (GPa) = 67.82456 67.82456 97.86843
#
# Poissons Ratio (x) = 0.36228 0.26662
# Poissons Ratio (y) = 0.36228 0.26662
# Poissons Ratio (z) = 0.18478 0.18478
#
# Static dielectric constant tensor:
#      x y z
#    x 3.205410 0.000000 0.000000 
#    y 0.000000 3.205410 0.000000 
#    z 0.000000 0.000000 4.020280 
# 
# 
# High freq. dielectric constant tensor:
#      x y z
#    x 1.680190 0.000000 0.000000 
#    y 0.000000 1.680190 0.000000 
#    z 0.000000 0.000000 1.699280 
# 
# From -- ./inp_files/6034.got.cif
#   From: 2010.03.12/outbox.cif.g09.slc.cpg/sg155_4_cif.got.tgz:6034.got - 2010.04.03 13:54:13.
