data_PCOD8322728
_publ_section_title
;
Structure prediction by ZEFSAII (Michael W. Deem and Ramdas Pophale) SiO2 
 PCOD8322728
Probable space group: P 3 1 M
;
_chemical_formula_sum "Si O2"
_cell_formula_units_Z 42
_cell_length_a 13.731966
_cell_length_b 13.731966
_cell_length_c 12.281856
_cell_angle_alpha 90.000000
_cell_angle_beta 90.000000
_cell_angle_gamma 120.000000
_cell_volume 2005.672739
_symmetry_space_group_name_H-M "P 3 1 M"
_symmetry_group_IT_number 157
_symmetry_cell_setting 'hexagonal'
loop_
_space_group_symop_operation_xyz
x,y,z
-y,x-y,z
-x+y,-x,z
y,x,z
x-y,-y,z
-x,-x+y,z
loop_
_atom_site_type_symbol
_atom_site_label
_atom_site_fract_x
_atom_site_fract_y
_atom_site_fract_z
Si Si1 0.252642 0.127787 0.471410
Si Si2 0.867994 0.540857 0.067273
Si Si3 0.337362 0.870452 0.177414
Si Si4 0.455238 0.330390 0.825296
Si Si5 0.867540 0.332722 0.421407
Si Si6 0.810383 0.689696 0.710332
Si Si7 0.874257 0.409353 0.641037
O O1 0.202313 0.202313 0.423738
O O2 0.379995 0.181502 0.427896
O O3 0.254225 0.134220 0.601898
O O4 0.174542 0.000000 0.430890
O O5 0.852123 0.423627 0.107289
O O6 0.789898 0.576454 0.136335
O O7 0.000000 0.639686 0.074828
O O8 0.818867 0.512820 0.944070
O O9 0.357824 0.841424 0.300842
O O10 0.364071 0.000000 0.170987
O O11 0.436482 0.436482 0.839692
O O12 0.337484 0.220654 0.793090
O O13 0.549938 0.362058 0.729103
O O14 0.818171 0.377971 0.518540
O O15 0.000000 0.389833 0.447161
O O16 0.775522 0.775522 0.764648
O O17 0.697930 0.573604 0.686248
O O18 0.000000 0.515447 0.629132
#
# Coordination Sequence:
#
# PCOD8322728 Si02
#       7
#     6   6   6   6   6   6   6
#     4   9  16  28  49  80 115 151 188 228 276 336
#     4  10  23  39  59  89 117 150 204 252 290 356
#     4  10  21  41  64  84 116 160 197 246 306 349
#     4  10  20  34  53  80 112 141 183 234 276 332
#     4   8  16  33  55  77 108 148 189 230 279 342
#     4   9  18  32  51  76 109 146 181 220 276 339
#     4   8  16  33  52  74 106 138 174 224 274 326
#
# _framework density 20.940604
#
# number of rings (size 3 to 8) (size 9 to 14) (size 15 to 20)
#    0.000    2.857    0.000    2.571    2.000    1.143 
#    6.000    0.000    0.000    0.571    0.000    0.000 
#    0.000    0.000    0.000    0.000    0.000    0.000 
#
# Total GULP energy -520304.915522 kJ/mol
# GULP energy per Si atom -12388.212274 kJ/mol
# Density = 2.089294 g / cm^3
# Si number density = 20.940604 Si / 1000 Ang^3
#
#
#
# Elastic Constant Matrix: (Units=GPa)
#
#
# Indices 1 2 3 4 5 6 
#
# 1 66.7566 14.3122 26.7349 0.0000 -1.3554 0.0000
# 2 14.3122 66.7566 26.7349 0.0000 1.3554 0.0000
# 3 26.7349 26.7349 132.5459 0.0000 0.0000 0.0000
# 4 0.0000 0.0000 0.0000 20.5941 0.0000 1.3554
# 5 -1.3554 1.3554 0.0000 0.0000 20.5941 0.0000
# 6 0.0000 0.0000 0.0000 1.3554 0.0000 26.2222
#
#
#
# Elastic Compliance Matrix: (Units=1/GPa)
#
#
# Indices 1 2 3 4 5 6 
#
# 1 0.016680 -0.002452 -0.002870 0.000000 0.001259 0.000000
# 2 -0.002452 0.016680 -0.002870 0.000000 -0.001259 0.000000
# 3 -0.002870 -0.002870 0.008702 0.000000 0.000000 0.000000
# 4 0.000000 0.000000 0.000000 0.048723 0.000000 -0.002518
# 5 0.001259 -0.001259 0.000000 0.000000 0.048723 0.000000
# 6 0.000000 0.000000 0.000000 -0.002518 0.000000 0.038266
#
#
# Mechanical properties :
#
#
# Convention : Reuss Voigt Hill
#
# Bulk Modulus (GPa) = 38.94236 44.62480 41.78358
# Shear Modulus (GPa) = 24.66461 26.70054 25.68257
#
# Velocity S-wave (km/s) = 3.43569 3.57467 3.50587
# Velocity P-wave (km/s) = 5.86307 6.19630 6.03199
#
# Compressibility (1/GPa) = 0.02567898
#
# Stress axis : x y z
#
# Youngs Moduli (GPa) = 59.95035 59.95035 114.91256
#
# Poissons Ratio (x) = 0.14702 0.32978
# Poissons Ratio (y) = 0.14702 0.32978
# Poissons Ratio (z) = 0.17205 0.17205
#
# Static dielectric constant tensor:
#      x y z
#    x 3.680130 0.000000 0.000000 
#    y 0.000000 3.680130 0.000000 
#    z 0.000000 0.000000 3.872360 
# 
# 
# High freq. dielectric constant tensor:
#      x y z
#    x 1.802200 0.000000 0.000000 
#    y 0.000000 1.802200 0.000000 
#    z 0.000000 0.000000 1.812150 
# 
# From -- ./inp_files/579.got.cif
#   From: 2010.03.12/outbox.cif.g09.slc.cpg/sg157_cif.got.tgz:579.got - 2010.04.03 13:59:21.
