data_PCOD8322027
_publ_section_title
;
Structure prediction by ZEFSAII (Michael W. Deem and Ramdas Pophale) SiO2 
 PCOD8322027
Probable space group: P 31 2 1
;
_chemical_formula_sum "Si O2"
_cell_formula_units_Z 42
_cell_length_a 14.847020
_cell_length_b 14.847020
_cell_length_c 11.731706
_cell_angle_alpha 90.000000
_cell_angle_beta 90.000000
_cell_angle_gamma 120.000000
_cell_volume 2239.599644
_symmetry_space_group_name_H-M "P 31 2 1"
_symmetry_group_IT_number 152
_symmetry_cell_setting 'hexagonal'
loop_
_space_group_symop_operation_xyz
x,y,z
-y,x-y,1/3+z
-x+y,-x,2/3+z
x-y,-y,2/3-z
-x,-x+y,1/3-z
y,x,-z
loop_
_atom_site_type_symbol
_atom_site_label
_atom_site_fract_x
_atom_site_fract_y
_atom_site_fract_z
Si Si1 0.514177 0.353951 0.710753
Si Si2 0.946577 0.424347 0.554512
Si Si3 0.163904 0.289434 0.730265
Si Si4 0.928442 0.711025 0.277840
Si Si5 0.964334 0.243891 0.823860
Si Si6 0.483273 0.759421 0.056848
Si Si7 0.360619 0.633795 0.501147
O O1 0.512280 0.444517 0.784791
O O2 0.404912 0.289675 0.651257
O O3 0.540208 0.281216 0.790470
O O4 0.601303 0.400239 0.611074
O O5 0.836497 0.339644 0.601907
O O6 0.000000 0.494728 0.666667
O O7 0.012085 0.374050 0.501166
O O8 0.208483 0.211755 0.708443
O O9 0.104549 0.301040 0.621599
O O10 0.262248 0.404693 0.759245
O O11 0.073959 0.243117 0.826466
O O12 0.829381 0.726764 0.261642
O O13 0.000000 0.733157 0.166667
O O14 0.387968 0.738719 0.139904
O O15 0.456734 0.777332 0.928443
#
# Coordination Sequence:
#
# PCOD8322027 Si02
#       7
#     6   6   6   6   6   6   6
#     4  10  21  34  51  82 114 150 182 226 272 330
#     4  10  18  32  53  78 106 145 195 214 269 338
#     4   9  16  30  50  79 100 131 182 232 272 322
#     4  10  20  33  53  86 113 134 189 241 281 332
#     4   9  16  32  53  74 103 140 176 235 280 323
#     4   9  16  29  50  74 105 139 183 223 257 322
#     4   9  18  32  49  73 113 152 182 214 269 325
#
# _framework density 18.753350999999999
#
# number of rings (size 3 to 8) (size 9 to 14) (size 15 to 20)
#    0.000    2.571    2.857    1.714    0.000    1.143 
#    5.143    1.429    0.000    0.000   29.714    0.000 
#    0.000    0.000    0.000    0.000    0.000    0.000 
#
# Total GULP energy -520387.319627 kJ/mol
# GULP energy per Si atom -12390.174277 kJ/mol
# Density = 1.871067 g / cm^3
# Si number density = 18.753351 Si / 1000 Ang^3
#
#
#
# Elastic Constant Matrix: (Units=GPa)
#
#
# Indices 1 2 3 4 5 6 
#
# 1 88.3785 50.3017 37.1523 2.0095 0.0000 0.0000
# 2 50.3017 88.3785 37.1523 -2.0095 0.0000 0.0000
# 3 37.1523 37.1523 62.6027 0.0000 0.0000 0.0000
# 4 2.0095 -2.0095 0.0000 26.3389 0.0000 0.0000
# 5 0.0000 0.0000 0.0000 0.0000 26.3389 2.0095
# 6 0.0000 0.0000 0.0000 0.0000 2.0095 19.0384
#
#
#
# Elastic Compliance Matrix: (Units=1/GPa)
#
#
# Indices 1 2 3 4 5 6 
#
# 1 0.018524 -0.007952 -0.006275 -0.002020 0.000000 0.000000
# 2 -0.007952 0.018524 -0.006275 0.002020 0.000000 0.000000
# 3 -0.006275 -0.006275 0.023421 0.000000 0.000000 0.000000
# 4 -0.002020 0.002020 0.000000 0.038275 0.000000 0.000000
# 5 0.000000 0.000000 0.000000 0.000000 0.038275 -0.004040
# 6 0.000000 0.000000 0.000000 0.000000 -0.004040 0.052952
#
#
# Mechanical properties :
#
#
# Convention : Reuss Voigt Hill
#
# Bulk Modulus (GPa) = 51.36498 54.28581 52.82540
# Shear Modulus (GPa) = 21.05601 21.99347 21.52474
#
# Velocity S-wave (km/s) = 3.35444 3.42830 3.39157
# Velocity P-wave (km/s) = 6.51554 6.68439 6.60050
#
# Compressibility (1/GPa) = 0.01946852
#
# Stress axis : x y z
#
# Youngs Moduli (GPa) = 53.98311 53.98311 42.69653
#
# Poissons Ratio (x) = 0.42925 0.26790
# Poissons Ratio (y) = 0.42925 0.26790
# Poissons Ratio (z) = 0.33872 0.33872
#
# Static dielectric constant tensor:
#      x y z
#    x 3.699670 0.000000 0.000000 
#    y 0.000000 3.699670 0.000000 
#    z 0.000000 0.000000 3.473960 
# 
# 
# High freq. dielectric constant tensor:
#      x y z
#    x 1.719110 0.000000 0.000000 
#    y 0.000000 1.719110 0.000000 
#    z 0.000000 0.000000 1.700930 
# 
# From -- ./inp_files/1815.got.cif
#   From: 2010.03.12/outbox.cif.g09.slc.cpg/sg152_1_cif.got.tgz:1815.got - 2010.04.03 13:45:27.
