data_PCOD8322537
_publ_section_title
;
Structure prediction by ZEFSAII (Michael W. Deem and Ramdas Pophale) SiO2 
 PCOD8322537
Probable space group: R 3 2
;
_chemical_formula_sum "Si O2"
_cell_formula_units_Z 81
_cell_length_a 16.086190
_cell_length_b 16.086190
_cell_length_c 16.029729
_cell_angle_alpha 90.000000
_cell_angle_beta 90.000000
_cell_angle_gamma 120.000000
_cell_volume 3592.222261
_symmetry_space_group_name_H-M "R 3 2"
_symmetry_group_IT_number 155
_symmetry_cell_setting 'hexagonal'
loop_
_space_group_symop_operation_xyz
x,y,z
-y,x-y,z
-x+y,-x,z
x-y,-y,-z
-x,-x+y,-z
y,x,-z
2/3+x,1/3+y,1/3+z
2/3-y,1/3+x-y,1/3+z
2/3-x+y,1/3-x,1/3+z
2/3+x-y,1/3-y,1/3-z
2/3-x,1/3-x+y,1/3-z
2/3+y,1/3+x,1/3-z
1/3+x,2/3+y,2/3+z
1/3-y,2/3+x-y,2/3+z
1/3-x+y,2/3-x,2/3+z
1/3+x-y,2/3-y,2/3-z
1/3-x,2/3-x+y,2/3-z
1/3+y,2/3+x,2/3-z
loop_
_atom_site_type_symbol
_atom_site_label
_atom_site_fract_x
_atom_site_fract_y
_atom_site_fract_z
Si Si1 0.777515 0.000000 0.000000
Si Si2 0.756695 0.907719 0.161967
Si Si3 0.104909 0.466595 0.973362
Si Si4 0.897048 0.792896 0.531070
Si Si5 0.275849 0.169253 0.242110
O O1 0.863399 0.067969 0.934666
O O2 0.683934 0.937177 0.946689
O O3 0.779063 0.832821 0.209760
O O4 0.640938 0.858891 0.164892
O O5 0.817359 0.006779 0.210982
O O6 0.179220 0.427249 0.978297
O O7 0.129217 0.556241 0.034662
O O8 0.000000 0.380785 0.000000
O O9 0.812746 0.812746 0.500000
O O10 0.000000 0.876847 0.500000
O O11 0.333334 0.151667 0.166667
#
# Coordination Sequence:
#
# PCOD8322537 Si02
#       5
#     9  18  18  18  18
#     4  10  20  38  68  92 122 178 224 266 322 402
#     4  10  23  40  63  95 132 173 221 276 332 405
#     4  10  24  40  63  99 139 174 218 282 344 402
#     4  11  23  39  62  99 135 177 219 275 344 408
#     4  10  22  40  66  95 126 175 223 272 336 403
#
# _framework density 22.548715999999999
#
# number of rings (size 3 to 8) (size 9 to 14) (size 15 to 20)
#    0.000    1.778    0.000    3.556   10.889    5.333 
#    1.333    3.333    0.000    0.000    0.000    0.000 
#    1.111    0.000    0.000    0.000    0.000    0.000 
#
# Total GULP energy -334519.920184 kJ/mol
# GULP energy per Si atom -12389.626673 kJ/mol
# Density = 2.249739 g / cm^3
# Si number density = 22.548716 Si / 1000 Ang^3
#
#
#
# Elastic Constant Matrix: (Units=GPa)
#
#
# Indices 1 2 3 4 5 6 
#
# 1 88.6780 37.5963 27.0028 6.0391 0.0000 0.0000
# 2 37.5963 88.6780 27.0028 -6.0391 0.0000 0.0000
# 3 27.0028 27.0028 119.6692 0.0000 0.0000 0.0000
# 4 6.0391 -6.0391 0.0000 30.6980 0.0000 0.0000
# 5 0.0000 0.0000 0.0000 0.0000 30.6980 6.0391
# 6 0.0000 0.0000 0.0000 0.0000 6.0391 25.5409
#
#
#
# Elastic Compliance Matrix: (Units=1/GPa)
#
#
# Indices 1 2 3 4 5 6 
#
# 1 0.014648 -0.005883 -0.001978 -0.004039 0.000000 0.000000
# 2 -0.005883 0.014648 -0.001978 0.004039 0.000000 0.000000
# 3 -0.001978 -0.001978 0.009249 0.000000 0.000000 0.000000
# 4 -0.004039 0.004039 0.000000 0.034165 0.000000 0.000000
# 5 0.000000 0.000000 0.000000 0.000000 0.034165 -0.008078
# 6 0.000000 0.000000 0.000000 0.000000 -0.008078 0.041063
#
#
# Mechanical properties :
#
#
# Convention : Reuss Voigt Hill
#
# Bulk Modulus (GPa) = 52.99985 53.35877 53.17931
# Shear Modulus (GPa) = 28.75137 31.08227 29.91682
#
# Velocity S-wave (km/s) = 3.57470 3.71678 3.64643
# Velocity P-wave (km/s) = 6.37131 6.49110 6.43148
#
# Compressibility (1/GPa) = 0.01886798
#
# Stress axis : x y z
#
# Youngs Moduli (GPa) = 68.26718 68.26718 108.12056
#
# Poissons Ratio (x) = 0.40163 0.21384
# Poissons Ratio (y) = 0.40163 0.21384
# Poissons Ratio (z) = 0.13502 0.13502
#
# Static dielectric constant tensor:
#      x y z
#    x 3.779740 0.000000 0.000000 
#    y 0.000000 3.779740 0.000000 
#    z 0.000000 0.000000 4.873650 
# 
# 
# High freq. dielectric constant tensor:
#      x y z
#    x 1.868690 0.000000 0.000000 
#    y 0.000000 1.868690 0.000000 
#    z 0.000000 0.000000 1.907220 
# 
# From -- ./inp_files/4949.got.cif
#   From: 2010.03.12/outbox.cif.g09.slc.cpg/sg155_3_cif.got.tgz:4949.got - 2010.04.03 13:54:13.
