data_PCOD8322392
_publ_section_title
;
Structure prediction by ZEFSAII (Michael W. Deem and Ramdas Pophale) SiO2 
 PCOD8322392
Probable space group: P 32 2 1
;
_chemical_formula_sum "Si O2"
_cell_formula_units_Z 30
_cell_length_a 13.329295
_cell_length_b 13.329295
_cell_length_c 9.185826
_cell_angle_alpha 90.000000
_cell_angle_beta 90.000000
_cell_angle_gamma 120.000000
_cell_volume 1413.393878
_symmetry_space_group_name_H-M "P 32 2 1"
_symmetry_group_IT_number 154
_symmetry_cell_setting 'hexagonal'
loop_
_space_group_symop_operation_xyz
x,y,z
-y,x-y,2/3+z
-x+y,-x,1/3+z
x-y,-y,1/3-z
-x,-x+y,2/3-z
y,x,-z
loop_
_atom_site_type_symbol
_atom_site_label
_atom_site_fract_x
_atom_site_fract_y
_atom_site_fract_z
Si Si1 0.052008 0.189973 0.178225
Si Si2 0.884736 0.449239 0.417047
Si Si3 0.114763 0.896042 0.073854
Si Si4 0.764266 0.198386 0.518217
Si Si5 0.973278 0.618866 0.664718
O O1 0.138778 0.140283 0.170951
O O2 0.115334 0.319205 0.106353
O O3 0.000000 0.193076 0.333334
O O4 0.943394 0.104785 0.081747
O O5 0.789727 0.315051 0.434874
O O6 0.827006 0.512202 0.327780
O O7 0.920019 0.496730 0.581932
O O8 0.000000 0.469049 0.333334
O O9 0.120702 0.780704 0.036277
O O10 0.221371 0.000000 0.166667
O O11 0.707138 0.097225 0.400756
O O12 0.000000 0.609892 0.833334
#
# Coordination Sequence:
#
# PCOD8322392 Si02
#       5
#     6   6   6   6   6
#     4  11  20  32  52  82 117 152 186 228 288 357
#     4  10  22  42  63  85 116 155 199 249 299 349
#     4  11  20  32  53  84 121 155 186 226 283 355
#     4  10  22  40  61  84 114 155 200 246 299 351
#     4  10  22  40  61  87 120 157 199 247 298 354
#
# _framework density 21.225505999999999
#
# number of rings (size 3 to 8) (size 9 to 14) (size 15 to 20)
#    0.000    1.600    0.000    6.600    0.000    4.800 
#    0.000    7.000    0.000    0.000    0.000    0.000 
#    0.000    0.000    0.000    0.000    0.000    0.000 
#
# Total GULP energy -371816.179940 kJ/mol
# GULP energy per Si atom -12393.872665 kJ/mol
# Density = 2.117720 g / cm^3
# Si number density = 21.225506 Si / 1000 Ang^3
#
#
#
# Elastic Constant Matrix: (Units=GPa)
#
#
# Indices 1 2 3 4 5 6 
#
# 1 66.6505 16.1831 29.0519 2.7042 0.0001 0.0000
# 2 16.1831 66.6505 29.0519 -2.7042 -0.0001 0.0000
# 3 29.0519 29.0519 133.2063 0.0000 0.0000 0.0000
# 4 2.7042 -2.7042 0.0000 22.2348 0.0000 -0.0001
# 5 0.0001 -0.0001 0.0000 0.0000 22.2348 2.7042
# 6 0.0000 0.0000 0.0000 -0.0001 2.7042 25.2337
#
#
#
# Elastic Compliance Matrix: (Units=1/GPa)
#
#
# Indices 1 2 3 4 5 6 
#
# 1 0.017165 -0.002912 -0.003109 -0.002442 0.000000 0.000000
# 2 -0.002912 0.017165 -0.003109 0.002442 0.000000 0.000000
# 3 -0.003109 -0.003109 0.008863 0.000000 0.000000 0.000000
# 4 -0.002442 0.002442 0.000000 0.045568 0.000000 0.000000
# 5 0.000000 0.000000 0.000000 0.000000 0.045568 -0.004883
# 6 0.000000 0.000000 0.000000 0.000000 -0.004883 0.040153
#
#
# Mechanical properties :
#
#
# Convention : Reuss Voigt Hill
#
# Bulk Modulus (GPa) = 40.10465 46.12013 43.11239
# Shear Modulus (GPa) = 24.86925 26.75534 25.81229
#
# Velocity S-wave (km/s) = 3.42668 3.55424 3.49104
# Velocity P-wave (km/s) = 5.88147 6.21445 6.05025
#
# Compressibility (1/GPa) = 0.02493476
#
# Stress axis : x y z
#
# Youngs Moduli (GPa) = 58.25921 58.25921 112.82769
#
# Poissons Ratio (x) = 0.16964 0.35073
# Poissons Ratio (y) = 0.16964 0.35073
# Poissons Ratio (z) = 0.18110 0.18110
#
# Static dielectric constant tensor:
#      x y z
#    x 3.811840 0.000000 0.000000 
#    y 0.000000 3.811840 0.000000 
#    z 0.000000 0.000000 3.807810 
# 
# 
# High freq. dielectric constant tensor:
#      x y z
#    x 1.817220 0.000000 0.000000 
#    y 0.000000 1.817220 0.000000 
#    z 0.000000 0.000000 1.843220 
# 
# From -- ./inp_files/1028.got.cif
#   From: 2010.03.12/outbox.cif.g09.slc.cpg/sg154_1_cif.got.tgz:1028.got - 2010.04.03 13:51:21.
