data_PCOD8322492
_publ_section_title
;
Structure prediction by ZEFSAII (Michael W. Deem and Ramdas Pophale) SiO2 
 PCOD8322492
Probable space group: R 3 2
;
_chemical_formula_sum "Si O2"
_cell_formula_units_Z 69
_cell_length_a 21.380120
_cell_length_b 21.380120
_cell_length_c 10.253174
_cell_angle_alpha 90.000000
_cell_angle_beta 90.000000
_cell_angle_gamma 120.000000
_cell_volume 4058.908267
_symmetry_space_group_name_H-M "R 3 2"
_symmetry_group_IT_number 155
_symmetry_cell_setting 'hexagonal'
loop_
_space_group_symop_operation_xyz
x,y,z
-y,x-y,z
-x+y,-x,z
x-y,-y,-z
-x,-x+y,-z
y,x,-z
2/3+x,1/3+y,1/3+z
2/3-y,1/3+x-y,1/3+z
2/3-x+y,1/3-x,1/3+z
2/3+x-y,1/3-y,1/3-z
2/3-x,1/3-x+y,1/3-z
2/3+y,1/3+x,1/3-z
1/3+x,2/3+y,2/3+z
1/3-y,2/3+x-y,2/3+z
1/3-x+y,2/3-x,2/3+z
1/3+x-y,2/3-y,2/3-z
1/3-x,2/3-x+y,2/3-z
1/3+y,2/3+x,2/3-z
loop_
_atom_site_type_symbol
_atom_site_label
_atom_site_fract_x
_atom_site_fract_y
_atom_site_fract_z
Si Si1 0.588018 0.449880 0.874739
Si Si2 0.534677 0.316295 0.039337
Si Si3 0.338042 0.421300 0.515868
Si Si4 0.333333 0.666667 0.511078
Si Si5 0.333334 0.202342 0.666667
O O1 0.666667 0.515696 0.833334
O O2 0.561404 0.399860 0.749419
O O3 0.536394 0.480613 0.921324
O O4 0.586577 0.399470 0.993606
O O5 0.467387 0.300643 0.127381
O O6 0.585010 0.295445 0.123140
O O7 0.396570 0.396570 0.500000
O O8 0.333334 0.431310 0.666667
O O9 0.263331 0.366656 0.444480
O O10 0.333334 0.666668 0.666667
#
# Coordination Sequence:
#
# PCOD8322492 Si02
#       5
#    18  18  18   6   9
#     4  10  19  35  58  79 111 143 193 239 284 354
#     4  10  21  33  54  84 110 154 188 231 297 349
#     4  11  20  34  53  80 118 150 183 240 296 342
#     4  12  21  34  50  82 123 150 196 242 280 354
#     4  10  22  34  56  90 108 146 204 238 288 360
#
# _framework density 16.999645999999998
#
# number of rings (size 3 to 8) (size 9 to 14) (size 15 to 20)
#    0.000    1.565    3.913    2.348    3.652    0.000 
#    0.000    0.000    0.000    4.696    0.000    0.000 
#    0.000    0.000    0.000    0.000    0.000    0.000 
#
# Total GULP energy -284955.842606 kJ/mol
# GULP energy per Si atom -12389.384461 kJ/mol
# Density = 1.696095 g / cm^3
# Si number density = 16.999646 Si / 1000 Ang^3
#
#
#
# Elastic Constant Matrix: (Units=GPa)
#
#
# Indices 1 2 3 4 5 6 
#
# 1 106.3895 54.7296 46.1866 -2.1238 0.0002 0.0000
# 2 54.7296 106.3897 46.1866 2.1239 -0.0001 0.0000
# 3 46.1866 46.1866 104.2730 0.0001 0.0003 0.0001
# 4 -2.1238 2.1239 0.0001 28.5590 0.0000 -0.0001
# 5 0.0002 -0.0001 0.0003 0.0000 28.5591 -2.1238
# 6 0.0000 0.0000 0.0001 -0.0001 -2.1238 25.8299
#
#
#
# Elastic Compliance Matrix: (Units=1/GPa)
#
#
# Indices 1 2 3 4 5 6 
#
# 1 0.013898 -0.005579 -0.003685 0.001448 0.000000 0.000000
# 2 -0.005579 0.013898 -0.003685 -0.001448 0.000000 0.000000
# 3 -0.003685 -0.003685 0.012855 0.000000 0.000000 0.000000
# 4 0.001448 -0.001448 0.000000 0.035231 0.000000 0.000000
# 5 0.000000 0.000000 0.000000 0.000000 0.035231 0.002897
# 6 0.000000 0.000000 0.000000 0.000000 0.002897 0.038953
#
#
# Mechanical properties :
#
#
# Convention : Reuss Voigt Hill
#
# Bulk Modulus (GPa) = 67.78099 67.91754 67.84927
# Shear Modulus (GPa) = 27.64277 27.91956 27.78116
#
# Velocity S-wave (km/s) = 4.03684 4.05700 4.04693
# Velocity P-wave (km/s) = 7.85409 7.87304 7.86357
#
# Compressibility (1/GPa) = 0.01475340
#
# Stress axis : x y z
#
# Youngs Moduli (GPa) = 71.95357 71.95373 77.79322
#
# Poissons Ratio (x) = 0.40140 0.28666
# Poissons Ratio (y) = 0.40140 0.28666
# Poissons Ratio (z) = 0.26514 0.26514
#
# Static dielectric constant tensor:
#      x y z
#    x 3.137370 0.000000 0.000000 
#    y 0.000000 3.137370 0.000000 
#    z 0.000000 0.000000 3.234770 
# 
# 
# High freq. dielectric constant tensor:
#      x y z
#    x 1.644760 0.000000 0.000000 
#    y 0.000000 1.644760 0.000000 
#    z 0.000000 0.000000 1.671870 
# 
# From -- ./inp_files/2180.got.cif
#   From: 2010.03.12/outbox.cif.g09.slc.cpg/sg155_2_cif.got.tgz:2180.got - 2010.04.03 13:54:13.
