data_PCOD8322827
_publ_section_title
;
Structure prediction by ZEFSAII (Michael W. Deem and Ramdas Pophale) SiO2 
 PCOD8322827
Probable space group: P 3 1 C
;
_chemical_formula_sum "Si O2"
_cell_formula_units_Z 34
_cell_length_a 10.220997
_cell_length_b 10.220997
_cell_length_c 15.869898
_cell_angle_alpha 90.000000
_cell_angle_beta 90.000000
_cell_angle_gamma 120.000000
_cell_volume 1435.791205
_symmetry_space_group_name_H-M "P 3 1 C"
_symmetry_group_IT_number 159
_symmetry_cell_setting 'hexagonal'
loop_
_space_group_symop_operation_xyz
x,y,z
-y,x-y,z
-x+y,-x,z
y,x,1/2+z
x-y,-y,1/2+z
-x,-x+y,1/2+z
loop_
_atom_site_type_symbol
_atom_site_label
_atom_site_fract_x
_atom_site_fract_y
_atom_site_fract_z
Si Si1 0.115996 0.349652 0.798630
Si Si2 0.333335 0.666668 0.121615
Si Si3 0.997190 0.553860 0.556836
Si Si4 0.440224 0.450194 0.859643
Si Si5 0.666668 0.333335 0.817514
Si Si6 0.999763 0.164216 0.452977
Si Si7 0.766871 0.650397 0.107156
O O1 0.271348 0.356696 0.823703
O O2 0.989852 0.241582 0.866827
O O3 0.073213 0.288278 0.702904
O O4 0.108211 0.501829 0.808004
O O5 0.467495 0.830573 0.095574
O O6 0.333334 0.666667 0.219712
O O7 0.965405 0.521130 0.458476
O O8 0.111350 0.502976 0.596090
O O9 0.085404 0.729318 0.580782
O O10 0.534832 0.364727 0.847667
O O11 0.150744 0.150939 0.452662
O O12 0.989574 0.240207 0.539661
#
# Coordination Sequence:
#
# PCOD8322827 Si02
#       7
#     6   2   6   6   2   6   6
#     4  12  25  46  75 109 148 196 252 306 373 454
#     4  12  27  45  72 114 154 191 250 318 378 438
#     4  12  26  48  75 109 150 198 246 313 379 455
#     4  12  26  48  75 109 150 198 246 313 379 455
#     4  12  27  45  72 114 154 191 250 318 378 438
#     4  10  26  46  66  98 146 188 244 296 366 430
#     4  12  25  46  75 109 148 196 252 306 373 454
#
# _framework density 23.680322
#
# number of rings (size 3 to 8) (size 9 to 14) (size 15 to 20)
#    0.353    0.000    1.765    7.059    4.941    1.412 
#    0.000    0.000    0.000    0.000    0.000    0.000 
#    0.000    0.000    0.000    0.000    0.000    0.000 
#
# Total GULP energy -421363.846355 kJ/mol
# GULP energy per Si atom -12393.054305 kJ/mol
# Density = 2.362642 g / cm^3
# Si number density = 23.680322 Si / 1000 Ang^3
#
#
#
# Elastic Constant Matrix: (Units=GPa)
#
#
# Indices 1 2 3 4 5 6 
#
# 1 91.3929 20.3572 31.0837 -0.0002 3.1009 0.0004
# 2 20.3572 91.3942 31.0832 -0.0001 -3.1011 0.0008
# 3 31.0837 31.0832 217.3114 -0.0009 -0.0005 -0.0004
# 4 -0.0002 -0.0001 -0.0009 26.8819 0.0002 -3.1010
# 5 3.1009 -3.1011 -0.0005 0.0002 26.8817 0.0000
# 6 0.0004 0.0008 -0.0004 -3.1010 0.0000 35.5184
#
#
#
# Elastic Compliance Matrix: (Units=1/GPa)
#
#
# Indices 1 2 3 4 5 6 
#
# 1 0.011971 -0.002249 -0.001391 0.000000 -0.001640 0.000000
# 2 -0.002249 0.011971 -0.001391 0.000000 0.001640 0.000000
# 3 -0.001391 -0.001391 0.005000 0.000000 0.000000 0.000000
# 4 0.000000 0.000000 0.000000 0.037578 0.000000 0.003281
# 5 -0.001640 0.001640 0.000000 0.000000 0.037579 0.000000
# 6 0.000000 0.000000 0.000000 0.003281 0.000000 0.028441
#
#
# Mechanical properties :
#
#
# Convention : Reuss Voigt Hill
#
# Bulk Modulus (GPa) = 52.96268 62.79409 57.87839
# Shear Modulus (GPa) = 33.58088 39.02804 36.30446
#
# Velocity S-wave (km/s) = 3.76984 4.06411 3.91974
# Velocity P-wave (km/s) = 6.43142 6.97120 6.70674
#
# Compressibility (1/GPa) = 0.01888122
#
# Stress axis : x y z
#
# Youngs Moduli (GPa) = 83.53241 83.53380 200.01976
#
# Poissons Ratio (x) = 0.18789 0.27816
# Poissons Ratio (y) = 0.18788 0.27814
# Poissons Ratio (z) = 0.11616 0.11616
#
# Static dielectric constant tensor:
#      x y z
#    x 4.173570 -0.000010 0.000000 
#    y -0.000010 4.173560 0.000000 
#    z 0.000000 0.000000 4.494800 
# 
# 
# High freq. dielectric constant tensor:
#      x y z
#    x 1.939510 0.000000 0.000000 
#    y 0.000000 1.939510 0.000000 
#    z 0.000000 0.000000 1.956680 
# 
# From -- ./inp_files/908.got.cif
#   From: 2010.03.12/outbox.cif.g09.slc.cpg/sg159_cif.got.tgz:908.got - 2010.04.03 14:00:19.
