data_PCOD8322383
_publ_section_title
;
Structure prediction by ZEFSAII (Michael W. Deem and Ramdas Pophale) SiO2 
 PCOD8322383
Probable space group: P 32 2 1
;
_chemical_formula_sum "Si O2"
_cell_formula_units_Z 39
_cell_length_a 8.749588
_cell_length_b 8.749588
_cell_length_c 28.437236
_cell_angle_alpha 90.000000
_cell_angle_beta 90.000000
_cell_angle_gamma 120.000000
_cell_volume 1885.355364
_symmetry_space_group_name_H-M "P 32 2 1"
_symmetry_group_IT_number 154
_symmetry_cell_setting 'hexagonal'
loop_
_space_group_symop_operation_xyz
x,y,z
-y,x-y,2/3+z
-x+y,-x,1/3+z
x-y,-y,1/3-z
-x,-x+y,2/3-z
y,x,-z
loop_
_atom_site_type_symbol
_atom_site_label
_atom_site_fract_x
_atom_site_fract_y
_atom_site_fract_z
Si Si1 0.787597 0.267184 0.796026
Si Si2 0.452730 0.050292 0.738443
Si Si3 0.000000 0.629733 0.833334
Si Si4 0.373885 0.025694 0.031692
Si Si5 0.342570 0.707749 0.681847
Si Si6 0.000000 0.973278 0.333334
Si Si7 0.077314 0.921078 0.760510
Si Si8 0.124893 0.000000 0.166667
O O1 0.591497 0.135076 0.780163
O O2 0.822454 0.439093 0.826135
O O3 0.920636 0.346204 0.752014
O O4 0.829352 0.147481 0.830676
O O5 0.513028 0.187781 0.695671
O O6 0.410462 0.852083 0.724232
O O7 0.285836 0.042131 0.762861
O O8 0.984833 0.720493 0.880902
O O9 0.199749 0.040955 0.023329
O O10 0.365679 0.838951 0.024981
O O11 0.515246 0.162287 0.994698
O O12 0.102190 0.125541 0.372397
O O13 0.994273 0.023263 0.786426
#
# Coordination Sequence:
#
# PCOD8322383 Si02
#       8
#     6   6   3   6   6   3   6   3
#     4  10  21  42  65  87 131 174 214 270 331 399
#     4  10  22  40  61  94 134 166 218 270 328 389
#     4  10  24  42  66  94 132 178 222 272 338 406
#     4  11  23  39  65  96 128 172 220 268 341 388
#     4  10  23  38  62  97 134 164 213 278 330 394
#     4  12  24  40  70  92 134 180 224 278 338 404
#     4  11  24  40  65  95 129 173 224 277 325 397
#     4  10  22  42  62  88 124 176 222 264 334 394
#
# _framework density 20.685755
#
# number of rings (size 3 to 8) (size 9 to 14) (size 15 to 20)
#    0.000    1.538    1.538    3.692    8.615    1.231 
#    0.000    0.000    0.000    0.000    0.000    0.000 
#    0.000    0.000    0.000    0.000    0.000    0.000 
#
# Total GULP energy -483299.110840 kJ/mol
# GULP energy per Si atom -12392.284893 kJ/mol
# Density = 2.063867 g / cm^3
# Si number density = 20.685755 Si / 1000 Ang^3
#
#
#
# Elastic Constant Matrix: (Units=GPa)
#
#
# Indices 1 2 3 4 5 6 
#
# 1 103.3865 46.4605 17.5479 -34.2501 0.0003 0.0000
# 2 46.4605 103.3865 17.5479 34.2501 -0.0003 0.0000
# 3 17.5479 17.5479 66.3935 0.0000 0.0000 0.0000
# 4 -34.2501 34.2501 0.0000 -178.7676 0.0000 -0.0003
# 5 0.0003 -0.0003 0.0000 0.0000 -178.7676 -34.2501
# 6 0.0000 0.0000 0.0000 -0.0003 -34.2501 28.4630
#
#
#
# Elastic Compliance Matrix: (Units=1/GPa)
#
#
# Indices 1 2 3 4 5 6 
#
# 1 0.010695 -0.003581 -0.001880 -0.002735 0.000000 0.000000
# 2 -0.003581 0.010695 -0.001880 0.002735 0.000000 0.000000
# 3 -0.001880 -0.001880 0.016056 0.000000 0.000000 0.000000
# 4 -0.002735 0.002735 0.000000 -0.004546 0.000000 0.000000
# 5 0.000000 0.000000 0.000000 0.000000 -0.004546 -0.005470
# 6 0.000000 0.000000 0.000000 0.000000 -0.005470 0.028551
#
#
# Mechanical properties :
#
#
# Convention : Reuss Voigt Hill
#
# Bulk Modulus (GPa) = 43.93197 48.47546 46.20372
# Shear Modulus (GPa) = 63.15179 -53.04042 5.05568
#
# Velocity S-wave (km/s) = 5.53131 -5.06919 1.56504
# Velocity P-wave (km/s) = 7.87894 3.28286 5.06461
#
# Compressibility (1/GPa) = 0.02276247
#
# Stress axis : x y z
#
# Youngs Moduli (GPa) = 93.50439 93.50439 62.28361
#
# Poissons Ratio (x) = 0.33482 0.11711
# Poissons Ratio (y) = 0.33482 0.11711
# Poissons Ratio (z) = 0.17581 0.17581
#
# Static dielectric constant tensor:
#      x y z
#    x 4.021620 0.000000 0.000000 
#    y 0.000000 4.021620 0.000000 
#    z 0.000000 0.000000 3.798950 
# 
# 
# High freq. dielectric constant tensor:
#      x y z
#    x 1.812480 0.000000 0.000000 
#    y 0.000000 1.812480 0.000000 
#    z 0.000000 0.000000 1.810870 
# 
# From -- ./inp_files/3729.got.cif
#   From: 2010.03.12/outbox.cif.g09.slc.cpg/sg154_2_cif.got.tgz:3729.got - 2010.04.03 13:51:21.
