data_PCOD8322549
_publ_section_title
;
Structure prediction by ZEFSAII (Michael W. Deem and Ramdas Pophale) SiO2 
 PCOD8322549
Probable space group: R 3 2
;
_chemical_formula_sum "Si O2"
_cell_formula_units_Z 54
_cell_length_a 16.722554
_cell_length_b 16.722554
_cell_length_c 10.109856
_cell_angle_alpha 90.000000
_cell_angle_beta 90.000000
_cell_angle_gamma 120.000000
_cell_volume 2448.391232
_symmetry_space_group_name_H-M "R 3 2"
_symmetry_group_IT_number 155
_symmetry_cell_setting 'hexagonal'
loop_
_space_group_symop_operation_xyz
x,y,z
-y,x-y,z
-x+y,-x,z
x-y,-y,-z
-x,-x+y,-z
y,x,-z
2/3+x,1/3+y,1/3+z
2/3-y,1/3+x-y,1/3+z
2/3-x+y,1/3-x,1/3+z
2/3+x-y,1/3-y,1/3-z
2/3-x,1/3-x+y,1/3-z
2/3+y,1/3+x,1/3-z
1/3+x,2/3+y,2/3+z
1/3-y,2/3+x-y,2/3+z
1/3-x+y,2/3-x,2/3+z
1/3+x-y,2/3-y,2/3-z
1/3-x,2/3-x+y,2/3-z
1/3+y,2/3+x,2/3-z
loop_
_atom_site_type_symbol
_atom_site_label
_atom_site_fract_x
_atom_site_fract_y
_atom_site_fract_z
Si Si1 0.585770 0.681225 0.923404
Si Si2 0.270882 0.441815 0.046034
Si Si3 0.937282 0.505952 0.128794
O O1 0.666667 0.760360 0.833334
O O2 0.498018 0.603306 0.839975
O O3 0.632070 0.632070 0.000000
O O4 0.547057 0.728625 0.024483
O O5 0.333334 0.508125 0.166667
O O6 0.235256 0.334386 0.084002
O O7 0.327177 0.468615 0.907423
O O8 0.000000 0.528412 0.000000
#
# Coordination Sequence:
#
# PCOD8322549 Si02
#       3
#    18  18  18
#     4  11  21  39  68  93 130 183 230 274 335 412
#     4  10  21  37  60  94 133 168 219 284 335 402
#     4   9  20  36  60  89 130 167 217 274 336 401
#
# _framework density 22.055298000000001
#
# number of rings (size 3 to 8) (size 9 to 14) (size 15 to 20)
#    0.000    2.000    3.333    0.000    0.000    6.667 
#    2.000    0.000    7.333    0.000    0.000    0.000 
#    0.000    0.000    0.000    0.000    0.000    0.000 
#
# Total GULP energy -223047.374004 kJ/mol
# GULP energy per Si atom -12391.520778 kJ/mol
# Density = 2.200510 g / cm^3
# Si number density = 22.055298 Si / 1000 Ang^3
#
#
#
# Elastic Constant Matrix: (Units=GPa)
#
#
# Indices 1 2 3 4 5 6 
#
# 1 125.8896 62.3598 34.7929 -3.2523 -0.0002 0.0000
# 2 62.3598 125.8896 34.7929 3.2523 0.0002 0.0000
# 3 34.7929 34.7929 43.3148 0.0000 0.0000 0.0000
# 4 -3.2523 3.2523 0.0000 33.1895 0.0000 0.0002
# 5 -0.0002 0.0002 0.0000 0.0000 33.1895 -3.2523
# 6 0.0000 0.0000 0.0000 0.0002 -3.2523 31.7649
#
#
#
# Elastic Compliance Matrix: (Units=1/GPa)
#
#
# Indices 1 2 3 4 5 6 
#
# 1 0.011728 -0.004172 -0.006069 0.001558 0.000000 0.000000
# 2 -0.004172 0.011728 -0.006069 -0.001558 0.000000 0.000000
# 3 -0.006069 -0.006069 0.032837 0.000000 0.000000 0.000000
# 4 0.001558 -0.001558 0.000000 0.030435 0.000000 0.000000
# 5 0.000000 0.000000 0.000000 0.000000 0.030435 0.003116
# 6 0.000000 0.000000 0.000000 0.000000 0.003116 0.031800
#
#
# Mechanical properties :
#
#
# Convention : Reuss Voigt Hill
#
# Bulk Modulus (GPa) = 42.24452 62.10947 52.17699
# Shear Modulus (GPa) = 26.38874 30.50533 28.44704
#
# Velocity S-wave (km/s) = 3.46277 3.72308 3.59528
# Velocity P-wave (km/s) = 5.93154 6.83401 6.39871
#
# Compressibility (1/GPa) = 0.02367171
#
# Stress axis : x y z
#
# Youngs Moduli (GPa) = 85.26721 85.26721 30.45373
#
# Poissons Ratio (x) = 0.35577 0.18482
# Poissons Ratio (y) = 0.35577 0.18482
# Poissons Ratio (z) = 0.51749 0.51749
#
# Static dielectric constant tensor:
#      x y z
#    x 4.182440 0.000000 0.000000 
#    y 0.000000 4.182440 0.000000 
#    z 0.000000 0.000000 3.385360 
# 
# 
# High freq. dielectric constant tensor:
#      x y z
#    x 1.856960 0.000000 0.000000 
#    y 0.000000 1.856960 0.000000 
#    z 0.000000 0.000000 1.834630 
# 
# From -- ./inp_files/1660.got.cif
#   From: 2010.03.12/outbox.cif.g09.slc.cpg/sg155_1_cif.got.tgz:1660.got - 2010.04.03 13:54:13.
