data_PCOD8322589
_publ_section_title
;
Structure prediction by ZEFSAII (Michael W. Deem and Ramdas Pophale) SiO2 
 PCOD8322589
Probable space group: R 3 2
;
_chemical_formula_sum "Si O2"
_cell_formula_units_Z 81
_cell_length_a 19.676332
_cell_length_b 19.676332
_cell_length_c 11.101731
_cell_angle_alpha 90.000000
_cell_angle_beta 90.000000
_cell_angle_gamma 120.000000
_cell_volume 3722.284941
_symmetry_space_group_name_H-M "R 3 2"
_symmetry_group_IT_number 155
_symmetry_cell_setting 'hexagonal'
loop_
_space_group_symop_operation_xyz
x,y,z
-y,x-y,z
-x+y,-x,z
x-y,-y,-z
-x,-x+y,-z
y,x,-z
2/3+x,1/3+y,1/3+z
2/3-y,1/3+x-y,1/3+z
2/3-x+y,1/3-x,1/3+z
2/3+x-y,1/3-y,1/3-z
2/3-x,1/3-x+y,1/3-z
2/3+y,1/3+x,1/3-z
1/3+x,2/3+y,2/3+z
1/3-y,2/3+x-y,2/3+z
1/3-x+y,2/3-x,2/3+z
1/3+x-y,2/3-y,2/3-z
1/3-x,2/3-x+y,2/3-z
1/3+y,2/3+x,2/3-z
loop_
_atom_site_type_symbol
_atom_site_label
_atom_site_fract_x
_atom_site_fract_y
_atom_site_fract_z
Si Si1 0.735816 0.911020 0.502453
Si Si2 0.777890 0.666667 0.666667
Si Si3 0.583541 0.800603 0.901845
Si Si4 0.891372 0.359449 0.203625
Si Si5 0.478832 0.376128 0.207612
O O1 0.737056 0.860745 0.387551
O O2 0.736107 0.865090 0.623049
O O3 0.653266 0.909327 0.499853
O O4 0.807562 0.000000 0.500000
O O5 0.752524 0.703349 0.776337
O O6 0.666667 0.844914 0.833334
O O7 0.528796 0.713993 0.851029
O O8 0.534447 0.845576 0.890820
O O9 0.909432 0.333334 0.333334
O O10 0.873769 0.430383 0.218940
O O11 0.448490 0.333334 0.333334
#
# Coordination Sequence:
#
# PCOD8322589 Si02
#       5
#    18   9  18  18  18
#     4  11  22  38  66  98 133 167 211 282 343 405
#     4  10  24  44  60  96 136 176 224 276 344 412
#     4  12  23  41  69  97 130 178 228 278 338 414
#     4  11  23  44  65  95 135 175 226 282 344 407
#     4  11  21  39  66 103 132 164 221 277 345 413
#
# _framework density 21.760826999999999
#
# number of rings (size 3 to 8) (size 9 to 14) (size 15 to 20)
#    0.000    0.889    4.444    4.667    1.556    0.889 
#   11.333    1.111    0.000    0.000    0.000    0.000 
#    0.000    0.000    0.000    0.000    0.000    0.000 
#
# Total GULP energy -334747.044736 kJ/mol
# GULP energy per Si atom -12398.038694 kJ/mol
# Density = 2.171130 g / cm^3
# Si number density = 21.760827 Si / 1000 Ang^3
#
#
#
# Elastic Constant Matrix: (Units=GPa)
#
#
# Indices 1 2 3 4 5 6 
#
# 1 77.2691 15.2080 25.3117 -2.3536 0.0002 0.0000
# 2 15.2080 77.2691 25.3118 2.3535 -0.0002 0.0000
# 3 25.3117 25.3118 150.7247 0.0000 -0.0001 0.0000
# 4 -2.3536 2.3535 0.0000 39.8976 0.0000 -0.0002
# 5 0.0002 -0.0002 -0.0001 0.0000 39.8976 -2.3535
# 6 0.0000 0.0000 0.0000 -0.0002 -2.3535 31.0306
#
#
#
# Elastic Compliance Matrix: (Units=1/GPa)
#
#
# Indices 1 2 3 4 5 6 
#
# 1 0.014047 -0.002139 -0.002000 0.000955 0.000000 0.000000
# 2 -0.002139 0.014047 -0.002000 -0.000955 0.000000 0.000000
# 3 -0.002000 -0.002000 0.007306 0.000000 0.000000 0.000000
# 4 0.000955 -0.000955 0.000000 0.025177 0.000000 0.000000
# 5 0.000000 0.000000 0.000000 0.000000 0.025177 0.001910
# 6 0.000000 0.000000 0.000000 0.000000 0.001910 0.032371
#
#
# Mechanical properties :
#
#
# Convention : Reuss Voigt Hill
#
# Bulk Modulus (GPa) = 43.24599 48.54733 45.89666
# Shear Modulus (GPa) = 36.20325 38.12725 37.16525
#
# Velocity S-wave (km/s) = 4.08326 4.19036 4.13715
# Velocity P-wave (km/s) = 6.49208 6.76536 6.63013
#
# Compressibility (1/GPa) = 0.02312353
#
# Stress axis : x y z
#
# Youngs Moduli (GPa) = 71.19017 71.19017 136.86865
#
# Poissons Ratio (x) = 0.15225 0.27371
# Poissons Ratio (y) = 0.15225 0.27371
# Poissons Ratio (z) = 0.14237 0.14237
#
# Static dielectric constant tensor:
#      x y z
#    x 3.942920 0.000000 0.000000 
#    y 0.000000 3.942920 0.000000 
#    z 0.000000 0.000000 4.433300 
# 
# 
# High freq. dielectric constant tensor:
#      x y z
#    x 1.833000 0.000000 0.000000 
#    y 0.000000 1.833000 0.000000 
#    z 0.000000 0.000000 1.890310 
# 
# From -- ./inp_files/3783.got.cif
#   From: 2010.03.12/outbox.cif.g09.slc.cpg/sg155_2_cif.got.tgz:3783.got - 2010.04.03 13:54:13.
