data_PCOD8322386
_publ_section_title
;
Structure prediction by ZEFSAII (Michael W. Deem and Ramdas Pophale) SiO2 
 PCOD8322386
Probable space group: P 32 2 1
;
_chemical_formula_sum "Si O2"
_cell_formula_units_Z 42
_cell_length_a 8.904958
_cell_length_b 8.904958
_cell_length_c 29.083250
_cell_angle_alpha 90.000000
_cell_angle_beta 90.000000
_cell_angle_gamma 120.000000
_cell_volume 1997.272485
_symmetry_space_group_name_H-M "P 32 2 1"
_symmetry_group_IT_number 154
_symmetry_cell_setting 'hexagonal'
loop_
_space_group_symop_operation_xyz
x,y,z
-y,x-y,2/3+z
-x+y,-x,1/3+z
x-y,-y,1/3-z
-x,-x+y,2/3-z
y,x,-z
loop_
_atom_site_type_symbol
_atom_site_label
_atom_site_fract_x
_atom_site_fract_y
_atom_site_fract_z
Si Si1 0.538961 0.215436 0.084575
Si Si2 0.258914 0.558002 0.492403
Si Si3 0.287106 0.804305 0.655089
Si Si4 0.758603 0.000784 0.924609
Si Si5 0.081722 0.899072 0.211847
Si Si6 0.832020 0.377158 0.929082
Si Si7 0.355522 0.118714 0.829746
O O1 0.671415 0.224345 0.123717
O O2 0.642466 0.372610 0.050510
O O3 0.380423 0.231064 0.106675
O O4 0.456780 0.033549 0.057430
O O5 0.373316 0.536394 0.453289
O O6 0.284285 0.746597 0.481520
O O7 0.061289 0.407194 0.485767
O O8 0.259952 0.694690 0.700564
O O9 0.107980 0.792545 0.638218
O O10 0.428820 0.000000 0.666667
O O11 0.732493 0.167609 0.925920
O O12 0.964418 0.070528 0.918597
O O13 0.658078 0.872259 0.882536
O O14 0.879088 0.794416 0.199555
O O15 0.193144 0.000000 0.166667
#
# Coordination Sequence:
#
# PCOD8322386 Si02
#       7
#     6   6   6   6   6   6   6
#     4  11  23  44  66  97 131 173 221 271 331 399
#     4  12  23  38  69 101 132 169 222 278 336 399
#     4  12  26  43  66  95 133 180 227 272 328 401
#     4  10  21  44  64  92 134 176 216 272 332 390
#     4   9  20  39  67  94 133 170 218 275 337 394
#     4  11  25  43  68  95 133 178 220 274 335 399
#     4  11  22  37  64 105 132 169 216 281 337 393
#
# _framework density 21.028676999999998
#
# number of rings (size 3 to 8) (size 9 to 14) (size 15 to 20)
#    0.000    1.143    1.429    6.429    2.000    4.571 
#    0.000    2.857    0.000    0.000    0.000    0.000 
#    0.000    0.000    0.000    0.000    0.000    0.000 
#
# Total GULP energy -520810.766024 kJ/mol
# GULP energy per Si atom -12400.256334 kJ/mol
# Density = 2.098081 g / cm^3
# Si number density = 21.028677 Si / 1000 Ang^3
#
#
#
# Elastic Constant Matrix: (Units=GPa)
#
#
# Indices 1 2 3 4 5 6 
#
# 1 105.0640 38.7323 39.3520 -0.5105 0.0001 0.0000
# 2 38.7323 105.0640 39.3520 0.5105 -0.0001 0.0000
# 3 39.3520 39.3520 101.0083 0.0000 0.0000 0.0000
# 4 -0.5105 0.5105 0.0000 31.9465 0.0000 -0.0001
# 5 0.0001 -0.0001 0.0000 0.0000 31.9465 -0.5105
# 6 0.0000 0.0000 0.0000 -0.0001 -0.5105 33.1658
#
#
#
# Elastic Compliance Matrix: (Units=1/GPa)
#
#
# Indices 1 2 3 4 5 6 
#
# 1 0.011959 -0.003120 -0.003444 0.000241 0.000000 0.000000
# 2 -0.003120 0.011959 -0.003444 -0.000241 0.000000 0.000000
# 3 -0.003444 -0.003444 0.012583 0.000000 0.000000 0.000000
# 4 0.000241 -0.000241 0.000000 0.031310 0.000000 0.000000
# 5 0.000000 0.000000 0.000000 0.000000 0.031310 0.000482
# 6 0.000000 0.000000 0.000000 0.000000 0.000482 0.030159
#
#
# Mechanical properties :
#
#
# Convention : Reuss Voigt Hill
#
# Bulk Modulus (GPa) = 60.65375 60.66768 60.66071
# Shear Modulus (GPa) = 32.30152 32.32511 32.31331
#
# Velocity S-wave (km/s) = 3.92352 3.92496 3.92424
# Velocity P-wave (km/s) = 7.03074 7.03228 7.03151
#
# Compressibility (1/GPa) = 0.01648703
#
# Stress axis : x y z
#
# Youngs Moduli (GPa) = 83.61714 83.61714 79.46981
#
# Poissons Ratio (x) = 0.26090 0.27366
# Poissons Ratio (y) = 0.26090 0.27366
# Poissons Ratio (z) = 0.28795 0.28795
#
# Static dielectric constant tensor:
#      x y z
#    x 3.862540 0.000000 0.000000 
#    y 0.000000 3.862540 0.000000 
#    z 0.000000 0.000000 3.728890 
# 
# 
# High freq. dielectric constant tensor:
#      x y z
#    x 1.831060 0.000000 0.000000 
#    y 0.000000 1.831060 0.000000 
#    z 0.000000 0.000000 1.807200 
# 
# From -- ./inp_files/3808.got.cif
#   From: 2010.03.12/outbox.cif.g09.slc.cpg/sg154_2_cif.got.tgz:3808.got - 2010.04.03 13:51:21.
