data_PCOD8322932
_publ_section_title
;
Structure prediction by ZEFSAII (Michael W. Deem and Ramdas Pophale) SiO2 
 PCOD8322932
Probable space group: P -3 1 M 
;
_chemical_formula_sum "Si O2"
_cell_formula_units_Z 96
_cell_length_a 19.151638
_cell_length_b 19.151638
_cell_length_c 20.410307
_cell_angle_alpha 90.000000
_cell_angle_beta 90.000000
_cell_angle_gamma 120.000000
_cell_volume 6483.238782
_symmetry_space_group_name_H-M "P -3 1 M "
_symmetry_group_IT_number 162
_symmetry_cell_setting 'hexagonal'
loop_
_space_group_symop_operation_xyz
x,y,z
-y,x-y,z
-x+y,-x,z
-y,-x,-z
-x+y,y,-z
x,x-y,-z
-x,-y,-z
y,-x+y,-z
x-y,x,-z
y,x,z
x-y,-y,z
-x,-x+y,z
loop_
_atom_site_type_symbol
_atom_site_label
_atom_site_fract_x
_atom_site_fract_y
_atom_site_fract_z
Si Si1 0.625977 0.531926 0.829455
Si Si2 0.341723 0.091603 0.076413
Si Si3 0.468074 0.374023 0.829455
Si Si4 0.331218 0.506672 0.301402
Si Si5 0.658277 0.749879 0.923587
Si Si6 0.371282 0.908704 0.428693
Si Si7 0.331218 0.824547 0.301402
Si Si8 0.628718 0.091296 0.428693
O O1 0.575758 0.575758 0.816314
O O2 0.562966 0.437034 0.845757
O O3 0.677809 0.544356 0.763697
O O4 0.689228 0.573999 0.888231
O O5 0.426001 0.115229 0.111769
O O6 0.313738 0.156869 0.094804
O O7 0.271593 0.000000 0.095569
O O8 0.360950 0.096020 1.000000
O O9 0.424242 0.424242 0.816314
O O10 0.455644 0.322191 0.763697
O O11 0.270196 0.540391 0.297834
O O12 0.421352 0.578648 0.303365
O O13 0.313470 0.454528 0.368146
O O14 0.728407 0.728407 0.904431
O O15 0.313470 0.858942 0.368146
O O16 0.329202 0.875102 0.500000
O O17 0.451986 0.903972 0.426292
O O18 0.391376 0.000000 0.420679
O O19 0.608624 0.000000 0.420679
#
# Coordination Sequence:
#
# PCOD8322932 Si02
#       8
#    12  12  12  12  12  12  12  12
#     4   9  17  28  42  59  77 100 132 167 199 230
#     4   9  17  29  45  64  85 108 134 165 201 241
#     4   9  17  28  42  59  77 100 132 167 199 230
#     4  10  18  26  36  51  73  98 122 150 186 228
#     4   9  17  29  45  64  85 108 134 165 201 241
#     4   8  14  25  39  51  63  84 116 151 184 218
#     4  10  18  26  36  51  73  98 122 150 186 228
#     4   8  14  25  39  51  63  84 116 151 184 218
#
# _framework density 14.807415000000001
#
# number of rings (size 3 to 8) (size 9 to 14) (size 15 to 20)
#    0.000    3.000    0.000    2.500    0.000    4.000 
#    0.000    2.500    0.000    2.250    0.000    1.750 
#    0.000    0.000    0.000    0.000    0.000    0.000 
#
# Total GULP energy -1189406.580205 kJ/mol
# GULP energy per Si atom -12389.651877 kJ/mol
# Density = 1.477371 g / cm^3
# Si number density = 14.807415 Si / 1000 Ang^3
#
#
#
# Elastic Constant Matrix: (Units=GPa)
#
#
# Indices 1 2 3 4 5 6 
#
# 1 55.7791 26.5394 38.1297 0.0000 0.0000 0.0000
# 2 26.5394 55.7791 38.1297 0.0000 0.0000 0.0000
# 3 38.1297 38.1297 88.6997 0.0000 0.0000 0.0000
# 4 0.0000 0.0000 0.0000 14.2707 0.0000 0.0000
# 5 0.0000 0.0000 0.0000 0.0000 14.2707 0.0000
# 6 0.0000 0.0000 0.0000 0.0000 0.0000 14.6199
#
#
#
# Elastic Compliance Matrix: (Units=1/GPa)
#
#
# Indices 1 2 3 4 5 6 
#
# 1 0.027194 -0.007006 -0.008678 0.000000 0.000000 0.000000
# 2 -0.007006 0.027194 -0.008678 0.000000 0.000000 0.000000
# 3 -0.008678 -0.008678 0.018735 0.000000 0.000000 0.000000
# 4 0.000000 0.000000 0.000000 0.070074 0.000000 0.000000
# 5 0.000000 0.000000 0.000000 0.000000 0.070074 0.000000
# 6 0.000000 0.000000 0.000000 0.000000 0.000000 0.068400
#
#
# Mechanical properties :
#
#
# Convention : Reuss Voigt Hill
#
# Bulk Modulus (GPa) = 40.98798 45.09504 43.04151
# Shear Modulus (GPa) = 14.76987 15.12951 14.94969
#
# Velocity S-wave (km/s) = 3.16169 3.19995 3.18088
# Velocity P-wave (km/s) = 6.40853 6.64631 6.52850
#
# Compressibility (1/GPa) = 0.02439739
#
# Stress axis : x y z
#
# Youngs Moduli (GPa) = 36.77336 36.77336 53.37650
#
# Poissons Ratio (x) = 0.25765 0.46320
# Poissons Ratio (y) = 0.25765 0.46320
# Poissons Ratio (z) = 0.31912 0.31912
#
# Static dielectric constant tensor:
#      x y z
#    x 2.723830 0.000000 0.000000 
#    y 0.000000 2.723830 0.000000 
#    z 0.000000 0.000000 3.274150 
# 
# 
# High freq. dielectric constant tensor:
#      x y z
#    x 1.536500 0.000000 0.000000 
#    y 0.000000 1.536500 0.000000 
#    z 0.000000 0.000000 1.584290 
# 
# From -- ./inp_files/3891.got.cif
#   From: 2010.03.12/outbox.cif.g09.slc.cpg/sg162_2_cif.got.tgz:3891.got - 2010.04.02 06:27:41.
