data_PCOD8322208
_publ_section_title
;
Structure prediction by ZEFSAII (Michael W. Deem and Ramdas Pophale) SiO2 
 PCOD8322208
Probable space group: P 31 2 1
;
_chemical_formula_sum "Si O2"
_cell_formula_units_Z 42
_cell_length_a 8.524253
_cell_length_b 8.524253
_cell_length_c 29.079094
_cell_angle_alpha 90.000000
_cell_angle_beta 90.000000
_cell_angle_gamma 120.000000
_cell_volume 1829.886551
_symmetry_space_group_name_H-M "P 31 2 1"
_symmetry_group_IT_number 152
_symmetry_cell_setting 'hexagonal'
loop_
_space_group_symop_operation_xyz
x,y,z
-y,x-y,1/3+z
-x+y,-x,2/3+z
x-y,-y,2/3-z
-x,-x+y,1/3-z
y,x,-z
loop_
_atom_site_type_symbol
_atom_site_label
_atom_site_fract_x
_atom_site_fract_y
_atom_site_fract_z
Si Si1 0.744136 0.773229 0.448171
Si Si2 0.217499 0.186491 0.354155
Si Si3 0.589487 0.133653 0.214983
Si Si4 0.530702 0.823970 0.614432
Si Si5 0.083567 0.914898 0.119374
Si Si6 0.874807 0.406275 0.704597
Si Si7 0.523911 0.070295 0.542767
O O1 0.698849 0.698849 0.500000
O O2 0.595230 0.816974 0.428196
O O3 0.725281 0.610316 0.416822
O O4 0.933713 0.959943 0.446232
O O5 0.234955 0.363851 0.329494
O O6 0.210271 0.216269 0.408276
O O7 0.399550 0.181170 0.345961
O O8 0.048405 0.000000 0.333334
O O9 0.599907 0.322715 0.204650
O O10 0.431647 0.990848 0.248818
O O11 0.579341 0.036677 0.166846
O O12 0.313295 0.713465 0.619099
O O13 0.575942 0.009351 0.589625
O O14 0.295277 0.980607 0.122531
O O15 0.000000 0.806046 0.166667
O O16 0.000000 0.560338 0.666667
#
# Coordination Sequence:
#
# PCOD8322208 Si02
#       7
#     6   6   6   6   6   6   6
#     4  11  24  45  73 109 148 184 242 304 367 447
#     4  11  24  46  71 105 145 190 242 302 371 445
#     4  12  26  47  73 105 147 194 246 307 369 448
#     4  12  26  46  75 105 149 194 243 308 376 448
#     4  11  25  44  73 109 144 195 248 307 373 446
#     4  11  27  47  71 103 144 190 245 307 369 446
#     4  12  26  45  75 105 148 195 246 304 377 440
#
# _framework density 22.952244
#
# number of rings (size 3 to 8) (size 9 to 14) (size 15 to 20)
#    0.000    0.571    2.857    5.143    8.000    0.571 
#    2.571    0.000    0.000    0.000    0.000    0.000 
#    0.000    0.000    0.000    0.000    0.000    0.000 
#
# Total GULP energy -520746.586043 kJ/mol
# GULP energy per Si atom -12398.728239 kJ/mol
# Density = 2.290000 g / cm^3
# Si number density = 22.952244 Si / 1000 Ang^3
#
#
#
# Elastic Constant Matrix: (Units=GPa)
#
#
# Indices 1 2 3 4 5 6 
#
# 1 95.8898 23.1341 42.3244 0.6143 0.0002 0.0000
# 2 23.1341 95.8898 42.3244 -0.6143 -0.0002 0.0000
# 3 42.3244 42.3244 154.5094 0.0000 0.0000 0.0000
# 4 0.6143 -0.6143 0.0000 31.4748 0.0000 -0.0002
# 5 0.0002 -0.0002 0.0000 0.0000 31.4748 0.6143
# 6 0.0000 0.0000 0.0000 -0.0002 0.6143 36.3778
#
#
#
# Elastic Compliance Matrix: (Units=1/GPa)
#
#
# Indices 1 2 3 4 5 6 
#
# 1 0.012092 -0.001657 -0.002858 -0.000268 0.000000 0.000000
# 2 -0.001657 0.012092 -0.002858 0.000268 0.000000 0.000000
# 3 -0.002858 -0.002858 0.008038 0.000000 0.000000 0.000000
# 4 -0.000268 0.000268 0.000000 0.031782 0.000000 0.000000
# 5 0.000000 0.000000 0.000000 0.000000 0.031782 -0.000537
# 6 0.000000 0.000000 0.000000 0.000000 -0.000537 0.027498
#
#
# Mechanical properties :
#
#
# Convention : Reuss Voigt Hill
#
# Bulk Modulus (GPa) = 57.22851 62.42830 59.82841
# Shear Modulus (GPa) = 34.75691 35.76589 35.26140
#
# Velocity S-wave (km/s) = 3.89564 3.95178 3.92381
# Velocity P-wave (km/s) = 6.72477 6.93400 6.83019
#
# Compressibility (1/GPa) = 0.01747381
#
# Stress axis : x y z
#
# Youngs Moduli (GPa) = 82.70055 82.70055 124.40858
#
# Poissons Ratio (x) = 0.13706 0.35560
# Poissons Ratio (y) = 0.13706 0.35560
# Poissons Ratio (z) = 0.23638 0.23638
#
# Static dielectric constant tensor:
#      x y z
#    x 4.079260 0.000000 0.000000 
#    y 0.000000 4.079260 0.000000 
#    z 0.000000 0.000000 4.336880 
# 
# 
# High freq. dielectric constant tensor:
#      x y z
#    x 1.904590 0.000000 0.000000 
#    y 0.000000 1.904590 0.000000 
#    z 0.000000 0.000000 1.919590 
# 
# From -- ./inp_files/3708.got.cif
#   From: 2010.03.12/outbox.cif.g09.slc.cpg/sg152_2_cif.got.tgz:3708.got - 2010.04.03 13:45:27.
