data_PCOD8322389
_publ_section_title
;
Structure prediction by ZEFSAII (Michael W. Deem and Ramdas Pophale) SiO2 
 PCOD8322389
Probable space group: P 32 2 1
;
_chemical_formula_sum "Si O2"
_cell_formula_units_Z 24
_cell_length_a 7.644884
_cell_length_b 7.644884
_cell_length_c 27.608185
_cell_angle_alpha 90.000000
_cell_angle_beta 90.000000
_cell_angle_gamma 120.000000
_cell_volume 1397.366374
_symmetry_space_group_name_H-M "P 32 2 1"
_symmetry_group_IT_number 154
_symmetry_cell_setting 'hexagonal'
loop_
_space_group_symop_operation_xyz
x,y,z
-y,x-y,2/3+z
-x+y,-x,1/3+z
x-y,-y,1/3-z
-x,-x+y,2/3-z
y,x,-z
loop_
_atom_site_type_symbol
_atom_site_label
_atom_site_fract_x
_atom_site_fract_y
_atom_site_fract_z
Si Si1 0.097221 0.702788 0.046141
Si Si2 0.094784 0.083754 0.052833
Si Si3 0.357964 0.968041 0.223127
Si Si4 0.757980 0.557674 0.726461
O O1 0.988604 0.839368 0.045227
O O2 0.939886 0.481812 0.064493
O O3 0.289867 0.813658 0.082814
O O4 0.180168 0.695891 0.992893
O O5 0.281018 0.155296 0.090409
O O6 0.934826 0.141514 0.072802
O O7 0.183690 0.183690 0.000000
O O8 0.353056 0.000000 0.166667
O O9 0.463044 0.835605 0.233129
#
# Coordination Sequence:
#
# PCOD8322389 Si02
#       4
#     6   6   6   6
#     4   9  19  36  59  83 109 145 191 227 271 349
#     4   8  18  36  56  82 108 143 189 227 269 341
#     4  10  22  39  53  87 120 139 190 243 270 333
#     4  11  17  39  61  78 113 152 184 230 285 325
#
# _framework density 17.175165
#
# number of rings (size 3 to 8) (size 9 to 14) (size 15 to 20)
#    1.500    1.000    2.500    0.000    0.000    1.000 
#    9.000    1.250    0.000    0.000    0.000    0.000 
#    0.000    0.000    0.000    0.000    0.000    0.000 
#
# Total GULP energy -297351.649545 kJ/mol
# GULP energy per Si atom -12389.652064 kJ/mol
# Density = 1.713607 g / cm^3
# Si number density = 17.175165 Si / 1000 Ang^3
#
#
#
# Elastic Constant Matrix: (Units=GPa)
#
#
# Indices 1 2 3 4 5 6 
#
# 1 87.7044 37.6580 20.9820 -2.7937 0.0005 0.0000
# 2 37.6580 87.7044 20.9820 2.7937 -0.0005 0.0000
# 3 20.9820 20.9820 87.2380 0.0000 0.0000 0.0000
# 4 -2.7937 2.7937 0.0000 19.4059 0.0000 -0.0005
# 5 0.0005 -0.0005 0.0000 0.0000 19.4059 -2.7937
# 6 0.0000 0.0000 0.0000 -0.0005 -2.7937 25.0232
#
#
#
# Elastic Compliance Matrix: (Units=1/GPa)
#
#
# Indices 1 2 3 4 5 6 
#
# 1 0.014492 -0.005816 -0.002087 0.002924 -0.000001 0.000000
# 2 -0.005816 0.014492 -0.002087 -0.002924 0.000001 0.000000
# 3 -0.002087 -0.002087 0.012467 0.000000 0.000000 0.000000
# 4 0.002924 -0.002924 0.000000 0.052372 0.000000 0.000001
# 5 -0.000001 0.000001 0.000000 0.000000 0.052372 0.005847
# 6 0.000000 0.000000 0.000000 0.000001 0.005847 0.040616
#
#
# Mechanical properties :
#
#
# Convention : Reuss Voigt Hill
#
# Bulk Modulus (GPa) = 46.57428 46.87673 46.72551
# Shear Modulus (GPa) = 23.37038 24.96867 24.16953
#
# Velocity S-wave (km/s) = 3.69278 3.81696 3.75539
# Velocity P-wave (km/s) = 6.73485 6.83946 6.78736
#
# Compressibility (1/GPa) = 0.02147108
#
# Stress axis : x y z
#
# Youngs Moduli (GPa) = 69.00551 69.00551 80.21450
#
# Poissons Ratio (x) = 0.40135 0.16737
# Poissons Ratio (y) = 0.40135 0.16737
# Poissons Ratio (z) = 0.14398 0.14398
#
# Static dielectric constant tensor:
#      x y z
#    x 3.071230 0.000000 0.000000 
#    y 0.000000 3.071230 0.000000 
#    z 0.000000 0.000000 3.019360 
# 
# 
# High freq. dielectric constant tensor:
#      x y z
#    x 1.648730 0.000000 0.000000 
#    y 0.000000 1.648730 0.000000 
#    z 0.000000 0.000000 1.652210 
# 
# From -- ./inp_files/2957.got.cif
#   From: 2010.03.12/outbox.cif.g09.slc.cpg/sg154_2_cif.got.tgz:2957.got - 2010.04.03 13:51:21.
