data_PCOD8322241
_publ_section_title
;
Structure prediction by ZEFSAII (Michael W. Deem and Ramdas Pophale) SiO2 
 PCOD8322241
Probable space group: P 32 1 2
;
_chemical_formula_sum "Si O2"
_cell_formula_units_Z 36
_cell_length_a 8.968984
_cell_length_b 8.968984
_cell_length_c 26.445686
_cell_angle_alpha 90.000000
_cell_angle_beta 90.000000
_cell_angle_gamma 120.000000
_cell_volume 1842.349273
_symmetry_space_group_name_H-M "P 32 1 2"
_symmetry_group_IT_number 153
_symmetry_cell_setting 'hexagonal'
loop_
_space_group_symop_operation_xyz
x,y,z
-y,x-y,2/3+z
-x+y,-x,1/3+z
-y,-x,1/3-z
-x+y,y,2/3-z
x,x-y,-z
loop_
_atom_site_type_symbol
_atom_site_label
_atom_site_fract_x
_atom_site_fract_y
_atom_site_fract_z
Si Si1 0.303953 0.651234 0.279756
Si Si2 0.505304 0.290336 0.942924
Si Si3 0.686666 0.885608 0.558573
Si Si4 0.541529 0.542339 0.109890
Si Si5 0.851740 0.832372 0.070252
Si Si6 0.334993 0.296392 0.368175
O O1 0.375752 0.751504 0.333334
O O2 0.271134 0.772686 0.242045
O O3 0.435037 0.600942 0.254337
O O4 0.127495 0.483319 0.294909
O O5 0.364625 0.298008 0.906562
O O6 0.677386 0.481278 0.947008
O O7 0.562946 0.170977 0.914879
O O8 0.436915 0.218458 0.000000
O O9 0.711771 0.855886 0.500000
O O10 0.837765 0.884774 0.590165
O O11 0.486190 0.513811 0.166667
O O12 0.728301 0.714289 0.114806
O O13 0.838645 0.007170 0.067551
O O14 0.769326 0.706662 0.022180
#
# Coordination Sequence:
#
# PCOD8322241 Si02
#       6
#     6   6   6   6   6   6
#     4  10  18  40  61  84 110 159 209 238 286 368
#     4  11  21  38  61  87 113 156 207 245 295 370
#     4  11  24  38  57  90 128 154 192 257 316 364
#     4  11  20  35  61  86 115 154 197 243 301 362
#     4  10  19  38  57  81 116 153 195 240 307 353
#     4   9  18  37  62  80 107 155 200 242 289 358
#
# _framework density 19.540268000000001
#
# number of rings (size 3 to 8) (size 9 to 14) (size 15 to 20)
#    0.000    1.667    5.000    2.500    2.333    0.000 
#    3.000    0.833    0.000    0.000    0.000    0.000 
#    0.000    0.000    0.000    0.000    0.000    0.000 
#
# Total GULP energy -446098.432326 kJ/mol
# GULP energy per Si atom -12391.623120 kJ/mol
# Density = 1.949579 g / cm^3
# Si number density = 19.540268 Si / 1000 Ang^3
#
#
#
# Elastic Constant Matrix: (Units=GPa)
#
#
# Indices 1 2 3 4 5 6 
#
# 1 91.0909 48.3026 30.0493 0.0002 -7.5748 0.0000
# 2 48.3026 91.0909 30.0493 -0.0002 7.5748 0.0000
# 3 30.0493 30.0493 98.8435 0.0000 0.0000 0.0000
# 4 0.0002 -0.0002 0.0000 1.9946 0.0000 7.5748
# 5 -7.5748 7.5748 0.0000 0.0000 1.9946 0.0002
# 6 0.0000 0.0000 0.0000 7.5748 0.0002 21.3942
#
#
#
# Elastic Compliance Matrix: (Units=1/GPa)
#
#
# Indices 1 2 3 4 5 6 
#
# 1 -0.029780 0.038036 -0.002510 0.000008 -0.257544 0.000000
# 2 0.038036 -0.029780 -0.002510 -0.000008 0.257544 0.000000
# 3 -0.002510 -0.002510 0.011643 0.000000 0.000000 0.000000
# 4 0.000008 -0.000008 0.000000 -1.454806 0.000000 0.515089
# 5 -0.257544 0.257544 0.000000 0.000000 -1.454806 0.000015
# 6 0.000000 0.000000 0.000000 0.515089 0.000015 -0.135631
#
#
# Mechanical properties :
#
#
# Convention : Reuss Voigt Hill
#
# Bulk Modulus (GPa) = 55.20120 55.31418 55.25769
# Shear Modulus (GPa) = -1.58572 16.58494 7.49961
#
# Velocity S-wave (km/s) = -0.90182 2.91650 1.96121
# Velocity P-wave (km/s) = 5.21794 6.30163 5.78522
#
# Compressibility (1/GPa) = 0.01811555
#
# Stress axis : x y z
#
# Youngs Moduli (GPa) = -33.58002 -33.58002 85.88795
#
# Poissons Ratio (x) = 1.27724 0.21557
# Poissons Ratio (y) = 1.27724 0.21557
# Poissons Ratio (z) = -0.08428 -0.08428
#
# Static dielectric constant tensor:
#      x y z
#    x 3.726850 0.000000 0.000000 
#    y 0.000000 3.726850 0.000000 
#    z 0.000000 0.000000 3.737890 
# 
# 
# High freq. dielectric constant tensor:
#      x y z
#    x 1.752370 0.000000 0.000000 
#    y 0.000000 1.752370 0.000000 
#    z 0.000000 0.000000 1.760870 
# 
# From -- ./inp_files/4728.got.cif
#   From: 2010.03.12/outbox.cif.g09.slc.cpg/sg153_3_cif.got.tgz:4728.got - 2010.04.03 13:48:33.
