data_PCOD8322595
_publ_section_title
;
Structure prediction by ZEFSAII (Michael W. Deem and Ramdas Pophale) SiO2 
 PCOD8322595
Probable space group: R 3 2
;
_chemical_formula_sum "Si O2"
_cell_formula_units_Z 63
_cell_length_a 13.211608
_cell_length_b 13.211608
_cell_length_c 16.875340
_cell_angle_alpha 90.000000
_cell_angle_beta 90.000000
_cell_angle_gamma 120.000000
_cell_volume 2550.906392
_symmetry_space_group_name_H-M "R 3 2"
_symmetry_group_IT_number 155
_symmetry_cell_setting 'hexagonal'
loop_
_space_group_symop_operation_xyz
x,y,z
-y,x-y,z
-x+y,-x,z
x-y,-y,-z
-x,-x+y,-z
y,x,-z
2/3+x,1/3+y,1/3+z
2/3-y,1/3+x-y,1/3+z
2/3-x+y,1/3-x,1/3+z
2/3+x-y,1/3-y,1/3-z
2/3-x,1/3-x+y,1/3-z
2/3+y,1/3+x,1/3-z
1/3+x,2/3+y,2/3+z
1/3-y,2/3+x-y,2/3+z
1/3-x+y,2/3-x,2/3+z
1/3+x-y,2/3-y,2/3-z
1/3-x,2/3-x+y,2/3-z
1/3+y,2/3+x,2/3-z
loop_
_atom_site_type_symbol
_atom_site_label
_atom_site_fract_x
_atom_site_fract_y
_atom_site_fract_z
Si Si1 0.787535 0.819233 0.309542
Si Si2 0.366195 0.458253 0.297382
Si Si3 0.333334 0.796254 0.666667
Si Si4 0.466851 0.040906 0.188955
O O1 0.666667 0.703134 0.333334
O O2 0.883810 0.780385 0.309996
O O3 0.780819 0.868295 0.222775
O O4 0.803701 0.916737 0.376010
O O5 0.334256 0.333334 0.333334
O O6 0.438219 0.476880 0.215982
O O7 0.217437 0.666667 0.666667
O O8 0.341748 0.868181 0.745132
O O9 0.333334 0.955091 0.166667
#
# Coordination Sequence:
#
# PCOD8322595 Si02
#       4
#    18  18   9  18
#     4  11  25  48  76 112 159 209 269 336 408 486
#     4  11  26  49  77 116 157 208 278 324 421 484
#     4  10  26  46  72 116 154 208 282 338 416 482
#     4  12  24  47  75 108 161 209 264 343 399 483
#
# _framework density 24.697102999999998
#
# number of rings (size 3 to 8) (size 9 to 14) (size 15 to 20)
#    0.286    0.571    2.857    3.143    4.000    4.571 
#    5.143    0.000    0.000    0.571    0.000    0.000 
#    0.000    0.000    0.000    0.000    0.000    0.000 
#
# Total GULP energy -260215.964156 kJ/mol
# GULP energy per Si atom -12391.236388 kJ/mol
# Density = 2.464089 g / cm^3
# Si number density = 24.697103 Si / 1000 Ang^3
#
#
#
# Elastic Constant Matrix: (Units=GPa)
#
#
# Indices 1 2 3 4 5 6 
#
# 1 153.8555 64.4789 33.1485 1.7456 -0.0001 0.0000
# 2 64.4789 153.8555 33.1485 -1.7456 0.0001 0.0000
# 3 33.1485 33.1485 100.8644 0.0000 0.0000 0.0000
# 4 1.7456 -1.7456 0.0000 34.7649 0.0000 0.0001
# 5 -0.0001 0.0001 0.0000 0.0000 34.7649 1.7456
# 6 0.0000 0.0000 0.0000 0.0001 1.7456 44.6883
#
#
#
# Elastic Compliance Matrix: (Units=1/GPa)
#
#
# Indices 1 2 3 4 5 6 
#
# 1 0.008149 -0.003061 -0.001672 -0.000563 0.000000 0.000000
# 2 -0.003061 0.008149 -0.001672 0.000563 0.000000 0.000000
# 3 -0.001672 -0.001672 0.011013 0.000000 0.000000 0.000000
# 4 -0.000563 0.000563 0.000000 0.028821 0.000000 0.000000
# 5 0.000000 0.000000 0.000000 0.000000 0.028821 -0.001126
# 6 0.000000 0.000000 0.000000 0.000000 -0.001126 0.022421
#
#
# Mechanical properties :
#
#
# Convention : Reuss Voigt Hill
#
# Bulk Modulus (GPa) = 68.96224 74.45858 71.71041
# Shear Modulus (GPa) = 39.99359 41.36359 40.67859
#
# Velocity S-wave (km/s) = 4.02850 4.09692 4.06285
# Velocity P-wave (km/s) = 7.04430 7.25216 7.14899
#
# Compressibility (1/GPa) = 0.01450069
#
# Stress axis : x y z
#
# Youngs Moduli (GPa) = 122.71099 122.71099 90.79890
#
# Poissons Ratio (x) = 0.37566 0.15182
# Poissons Ratio (y) = 0.37566 0.15182
# Poissons Ratio (z) = 0.20518 0.20518
#
# Static dielectric constant tensor:
#      x y z
#    x 4.628560 0.000000 0.000000 
#    y 0.000000 4.628560 0.000000 
#    z 0.000000 0.000000 5.260460 
# 
# 
# High freq. dielectric constant tensor:
#      x y z
#    x 1.991010 0.000000 0.000000 
#    y 0.000000 1.991010 0.000000 
#    z 0.000000 0.000000 1.978640 
# 
# From -- ./inp_files/5828.got.cif
#   From: 2010.03.12/outbox.cif.g09.slc.cpg/sg155_3_cif.got.tgz:5828.got - 2010.04.03 13:54:13.
