data_PCOD8322964
_publ_section_title
;
Structure prediction by ZEFSAII (Michael W. Deem and Ramdas Pophale) SiO2 
 PCOD8322964
Probable space group: P -3 1 M 
;
_chemical_formula_sum "Si O2"
_cell_formula_units_Z 82
_cell_length_a 20.859856
_cell_length_b 20.859856
_cell_length_c 11.526903
_cell_angle_alpha 90.000000
_cell_angle_beta 90.000000
_cell_angle_gamma 120.000000
_cell_volume 4343.760607
_symmetry_space_group_name_H-M "P -3 1 M "
_symmetry_group_IT_number 162
_symmetry_cell_setting 'hexagonal'
loop_
_space_group_symop_operation_xyz
x,y,z
-y,x-y,z
-x+y,-x,z
-y,-x,-z
-x+y,y,-z
x,x-y,-z
-x,-y,-z
y,-x+y,-z
x-y,x,-z
y,x,z
x-y,-y,z
-x,-x+y,z
loop_
_atom_site_type_symbol
_atom_site_label
_atom_site_fract_x
_atom_site_fract_y
_atom_site_fract_z
Si Si1 0.616961 0.084778 0.981206
Si Si2 0.666668 0.333334 0.864683
Si Si3 0.603786 0.761962 0.883216
Si Si4 0.912636 0.825272 0.500000
Si Si5 0.307133 0.511954 0.795549
Si Si6 0.635234 0.916327 0.525768
Si Si7 0.666363 0.477055 0.464993
Si Si8 0.694509 0.861278 0.336814
O O1 0.663244 0.133170 0.874298
O O2 0.580203 0.000000 0.945871
O O3 0.552956 0.105911 0.000000
O O4 0.675776 0.099765 0.085706
O O5 0.597916 0.340281 0.822096
O O6 0.666668 0.333334 0.000000
O O7 0.532434 0.751513 0.812890
O O8 0.676590 0.804147 0.797587
O O9 0.622234 0.811117 0.000000
O O10 0.876531 0.876531 0.507623
O O11 0.894471 0.777631 0.621666
O O12 0.333032 0.507586 0.669334
O O13 0.551444 0.875354 0.477358
O O14 0.681669 0.917442 0.415041
O O15 0.641726 0.867284 0.630050
O O16 0.663369 0.000000 0.567499
O O17 0.588087 0.411914 0.500000
O O18 0.728729 0.457457 0.500000
#
# Coordination Sequence:
#
# PCOD8322964 Si02
#       8
#    12   4  12   6  12  12  12  12
#     4  10  22  38  55  80 113 149 192 244 301 355
#     4  12  21  33  58  80 103 141 204 252 295 362
#     4  10  20  36  58  83 114 154 197 245 296 352
#     4  10  21  38  66 100 130 160 198 252 312 376
#     4  11  21  37  55  81 107 148 191 249 303 350
#     4  10  20  36  59  82 112 154 196 247 303 364
#     4  12  23  39  55  80 114 153 199 249 305 361
#     4  10  18  38  60  90 121 156 201 244 302 371
#
# _framework density 18.877651
#
# number of rings (size 3 to 8) (size 9 to 14) (size 15 to 20)
#    0.000    1.610    2.927    5.488    0.000    3.220 
#    0.000    2.195    0.000    0.000    0.000    0.000 
#    0.000    1.171    0.000    0.000    0.000    0.000 
#
# Total GULP energy -1015957.385790 kJ/mol
# GULP energy per Si atom -12389.724217 kJ/mol
# Density = 1.883469 g / cm^3
# Si number density = 18.877651 Si / 1000 Ang^3
#
#
#
# Elastic Constant Matrix: (Units=GPa)
#
#
# Indices 1 2 3 4 5 6 
#
# 1 88.7506 51.0120 17.1367 -0.0007 0.2553 -0.0001
# 2 51.0120 88.7508 17.1364 0.0005 -0.2554 0.0003
# 3 17.1367 17.1364 85.2919 -0.0001 0.0000 -0.0001
# 4 -0.0007 0.0005 -0.0001 16.3114 0.0000 -0.2556
# 5 0.2553 -0.2554 0.0000 0.0000 16.3115 -0.0009
# 6 -0.0001 0.0003 -0.0001 -0.2556 -0.0009 18.8694
#
#
#
# Elastic Compliance Matrix: (Units=1/GPa)
#
#
# Indices 1 2 3 4 5 6 
#
# 1 0.017015 -0.009489 -0.001512 0.000001 -0.000415 0.000000
# 2 -0.009489 0.017015 -0.001512 -0.000001 0.000415 0.000000
# 3 -0.001512 -0.001512 0.012332 0.000000 0.000000 0.000000
# 4 0.000001 -0.000001 0.000000 0.061320 0.000000 0.000831
# 5 -0.000415 0.000415 0.000000 0.000000 0.061320 0.000003
# 6 0.000000 0.000000 0.000000 0.000831 0.000003 0.053007
#
#
# Mechanical properties :
#
#
# Convention : Reuss Voigt Hill
#
# Bulk Modulus (GPa) = 46.87049 48.15148 47.51098
# Shear Modulus (GPa) = 19.67376 22.13234 20.90305
#
# Velocity S-wave (km/s) = 3.23177 3.42776 3.33121
# Velocity P-wave (km/s) = 6.22963 6.42095 6.32601
#
# Compressibility (1/GPa) = 0.02133539
#
# Stress axis : x y z
#
# Youngs Moduli (GPa) = 58.77258 58.77278 81.08959
#
# Poissons Ratio (x) = 0.55769 0.12262
# Poissons Ratio (y) = 0.55769 0.12261
# Poissons Ratio (z) = 0.08887 0.08886
#
# Static dielectric constant tensor:
#      x y z
#    x 3.474300 0.000000 0.000010 
#    y 0.000000 3.474300 0.000010 
#    z 0.000010 0.000010 3.439300 
# 
# 
# High freq. dielectric constant tensor:
#      x y z
#    x 1.730790 0.000000 0.000000 
#    y 0.000000 1.730790 0.000000 
#    z 0.000000 0.000000 1.717920 
# 
# From -- ./inp_files/2560.got.cif
#   From: 2010.03.12/outbox.cif.g09.slc.cpg/sg162_2_cif.got.tgz:2560.got - 2010.04.02 06:27:41.
