data_PCOD8322191
_publ_section_title
;
Structure prediction by ZEFSAII (Michael W. Deem and Ramdas Pophale) SiO2 
 PCOD8322191
Probable space group: P 31 2 1
;
_chemical_formula_sum "Si O2"
_cell_formula_units_Z 39
_cell_length_a 14.011762
_cell_length_b 14.011762
_cell_length_c 11.450312
_cell_angle_alpha 90.000000
_cell_angle_beta 90.000000
_cell_angle_gamma 120.000000
_cell_volume 1946.854324
_symmetry_space_group_name_H-M "P 31 2 1"
_symmetry_group_IT_number 152
_symmetry_cell_setting 'hexagonal'
loop_
_space_group_symop_operation_xyz
x,y,z
-y,x-y,1/3+z
-x+y,-x,2/3+z
x-y,-y,2/3-z
-x,-x+y,1/3-z
y,x,-z
loop_
_atom_site_type_symbol
_atom_site_label
_atom_site_fract_x
_atom_site_fract_y
_atom_site_fract_z
Si Si1 0.878110 0.670175 0.137850
Si Si2 0.321425 0.998150 0.087317
Si Si3 0.389779 0.567130 0.478985
Si Si4 0.223231 0.400783 0.792624
Si Si5 0.372088 0.000000 0.833334
Si Si6 0.711516 0.321002 0.655878
Si Si7 0.525007 0.453871 0.115956
O O1 0.790256 0.702106 0.183058
O O2 0.862586 0.561532 0.206888
O O3 0.000000 0.769222 0.166667
O O4 0.861061 0.657972 0.998821
O O5 0.423018 0.979456 0.127043
O O6 0.338352 0.118936 0.120275
O O7 0.296408 0.974333 0.948200
O O8 0.512304 0.602394 0.449219
O O9 0.382405 0.593085 0.614750
O O10 0.383160 0.652626 0.392201
O O11 0.233248 0.520536 0.779794
O O12 0.341085 0.417478 0.838772
O O13 0.802127 0.385153 0.756167
O O14 0.491852 0.491852 0.000000
#
# Coordination Sequence:
#
# PCOD8322191 Si02
#       7
#     6   6   6   6   3   6   6
#     4  11  22  42  68  94 124 170 223 274 321 396
#     4  12  23  45  65  92 138 172 226 268 329 407
#     4  11  21  35  55  91 133 167 212 256 319 389
#     4  11  22  41  65  94 127 167 221 269 330 386
#     4  12  26  36  56  96 138 180 202 280 334 372
#     4  11  20  35  60  88 122 173 215 257 314 391
#     4  12  22  39  63  96 130 175 223 267 322 401
#
# _framework density 20.032314
#
# number of rings (size 3 to 8) (size 9 to 14) (size 15 to 20)
#    0.000    0.615    6.923    4.154    0.000    0.000 
#    5.538    0.000    0.000    1.846    2.000    0.000 
#    0.000    0.000    0.000    0.000    0.000    0.000 
#
# Total GULP energy -483257.948779 kJ/mol
# GULP energy per Si atom -12391.229456 kJ/mol
# Density = 1.998672 g / cm^3
# Si number density = 20.032314 Si / 1000 Ang^3
#
#
#
# Elastic Constant Matrix: (Units=GPa)
#
#
# Indices 1 2 3 4 5 6 
#
# 1 84.8931 18.1195 27.3662 -3.5984 -0.0003 0.0000
# 2 18.1195 84.8931 27.3662 3.5984 0.0003 0.0000
# 3 27.3662 27.3662 110.5875 0.0000 0.0000 0.0000
# 4 -3.5984 3.5984 0.0000 32.8815 0.0000 0.0003
# 5 -0.0003 0.0003 0.0000 0.0000 32.8815 -3.5984
# 6 0.0000 0.0000 0.0000 0.0003 -3.5984 33.3868
#
#
#
# Elastic Compliance Matrix: (Units=1/GPa)
#
#
# Indices 1 2 3 4 5 6 
#
# 1 0.013166 -0.001989 -0.002766 0.001658 0.000000 0.000000
# 2 -0.001989 0.013166 -0.002766 -0.001658 0.000000 0.000000
# 3 -0.002766 -0.002766 0.010412 0.000000 0.000000 0.000000
# 4 0.001658 -0.001658 0.000000 0.030775 0.000000 0.000000
# 5 0.000000 0.000000 0.000000 0.000000 0.030775 0.003317
# 6 0.000000 0.000000 0.000000 0.000000 0.003317 0.030309
#
#
# Mechanical properties :
#
#
# Convention : Reuss Voigt Hill
#
# Bulk Modulus (GPa) = 46.07842 47.34194 46.71018
# Shear Modulus (GPa) = 33.13924 33.66476 33.40200
#
# Velocity S-wave (km/s) = 4.07171 4.10387 4.08782
# Velocity P-wave (km/s) = 6.71990 6.79262 6.75636
#
# Compressibility (1/GPa) = 0.02170213
#
# Stress axis : x y z
#
# Youngs Moduli (GPa) = 75.95360 75.95360 96.04741
#
# Poissons Ratio (x) = 0.15106 0.26566
# Poissons Ratio (y) = 0.15106 0.26566
# Poissons Ratio (z) = 0.21008 0.21008
#
# Static dielectric constant tensor:
#      x y z
#    x 3.507360 0.000000 0.000000 
#    y 0.000000 3.507360 0.000000 
#    z 0.000000 0.000000 4.013360 
# 
# 
# High freq. dielectric constant tensor:
#      x y z
#    x 1.763300 0.000000 0.000000 
#    y 0.000000 1.763300 0.000000 
#    z 0.000000 0.000000 1.791480 
# 
# From -- ./inp_files/1780.got.cif
#   From: 2010.03.12/outbox.cif.g09.slc.cpg/sg152_1_cif.got.tgz:1780.got - 2010.04.03 13:45:27.
