data_PCOD8322018
_publ_section_title
;
Structure prediction by ZEFSAII (Michael W. Deem and Ramdas Pophale) SiO2 
 PCOD8322018
Probable space group: P 31 2 1
;
_chemical_formula_sum "Si O2"
_cell_formula_units_Z 24
_cell_length_a 7.276136
_cell_length_b 7.276136
_cell_length_c 18.351146
_cell_angle_alpha 90.000000
_cell_angle_beta 90.000000
_cell_angle_gamma 120.000000
_cell_volume 841.386303
_symmetry_space_group_name_H-M "P 31 2 1"
_symmetry_group_IT_number 152
_symmetry_cell_setting 'hexagonal'
loop_
_space_group_symop_operation_xyz
x,y,z
-y,x-y,1/3+z
-x+y,-x,2/3+z
x-y,-y,2/3-z
-x,-x+y,1/3-z
y,x,-z
loop_
_atom_site_type_symbol
_atom_site_label
_atom_site_fract_x
_atom_site_fract_y
_atom_site_fract_z
Si Si1 0.891398 0.535407 0.595713
Si Si2 0.153104 0.912297 0.982445
Si Si3 0.859542 0.107707 0.518713
Si Si4 0.748621 0.220637 0.866542
O O1 0.724629 0.326182 0.547120
O O2 0.000000 0.492803 0.666667
O O3 0.084587 0.709266 0.548483
O O4 0.734300 0.624847 0.620120
O O5 0.017607 0.730083 0.921856
O O6 0.997214 0.997214 0.000000
O O7 0.185838 0.808873 0.053316
O O8 0.047629 0.360799 0.523243
O O9 0.996971 0.996971 0.500000
O O10 0.558070 0.000000 0.833334
#
# Coordination Sequence:
#
# PCOD8322018 Si02
#       4
#     6   6   6   6
#     4  10  19  33  55  91 126 174 233 290 362 434
#     4  10  16  31  52  85 133 163 223 312 348 416
#     4   9  16  30  51  86 129 166 227 302 356 417
#     4  11  18  29  59  95 123 181 239 291 366 438
#
# _framework density 28.524355
#
# number of rings (size 3 to 8) (size 9 to 14) (size 15 to 20)
#    0.000    2.000   10.000    2.250    0.000    0.000 
#    0.000    0.000    0.000    7.500    0.000    0.000 
#    0.000    0.000    0.000    0.000    0.000    0.000 
#
# Total GULP energy -297435.804237 kJ/mol
# GULP energy per Si atom -12393.158510 kJ/mol
# Density = 2.845943 g / cm^3
# Si number density = 28.524355 Si / 1000 Ang^3
#
#
#
# Elastic Constant Matrix: (Units=GPa)
#
#
# Indices 1 2 3 4 5 6 
#
# 1 119.5858 26.3448 23.1150 -4.1538 0.0000 0.0000
# 2 26.3448 119.5858 23.1150 4.1538 0.0000 0.0000
# 3 23.1150 23.1150 110.7215 0.0000 0.0000 0.0000
# 4 -4.1538 4.1538 0.0000 34.6512 0.0000 0.0000
# 5 0.0000 0.0000 0.0000 0.0000 34.6512 -4.1538
# 6 0.0000 0.0000 0.0000 0.0000 -4.1538 46.6205
#
#
#
# Elastic Compliance Matrix: (Units=1/GPa)
#
#
# Indices 1 2 3 4 5 6 
#
# 1 0.009089 -0.001751 -0.001532 0.001300 0.000000 0.000000
# 2 -0.001751 0.009089 -0.001532 -0.001300 0.000000 0.000000
# 3 -0.001532 -0.001532 0.009671 0.000000 0.000000 0.000000
# 4 0.001300 -0.001300 0.000000 0.029171 0.000000 0.000000
# 5 0.000000 0.000000 0.000000 0.000000 0.029171 0.002599
# 6 0.000000 0.000000 0.000000 0.000000 0.002599 0.021681
#
#
# Mechanical properties :
#
#
# Convention : Reuss Voigt Hill
#
# Bulk Modulus (GPa) = 54.88652 55.00476 54.94564
# Shear Modulus (GPa) = 40.46093 41.67246 41.06669
#
# Velocity S-wave (km/s) = 3.77034 3.82638 3.79846
# Velocity P-wave (km/s) = 6.18367 6.23272 6.20824
#
# Compressibility (1/GPa) = 0.01821941
#
# Stress axis : x y z
#
# Youngs Moduli (GPa) = 110.01980 110.01980 103.39882
#
# Poissons Ratio (x) = 0.19269 0.15840
# Poissons Ratio (y) = 0.19269 0.15840
# Poissons Ratio (z) = 0.16854 0.16854
#
# Static dielectric constant tensor:
#      x y z
#    x 6.353140 0.000000 0.000000 
#    y 0.000000 6.353140 0.000000 
#    z 0.000000 0.000000 8.132940 
# 
# 
# High freq. dielectric constant tensor:
#      x y z
#    x 2.170660 0.000000 0.000000 
#    y 0.000000 2.170660 0.000000 
#    z 0.000000 0.000000 2.170950 
# 
# From -- ./inp_files/2607.got.cif
#   From: 2010.03.12/outbox.cif.g09.slc.cpg/sg152_2_cif.got.tgz:2607.got - 2010.04.03 13:45:27.
