data_PCOD8322033
_publ_section_title
;
Structure prediction by ZEFSAII (Michael W. Deem and Ramdas Pophale) SiO2 
 PCOD8322033
Probable space group: P 31 2 1
;
_chemical_formula_sum "Si O2"
_cell_formula_units_Z 45
_cell_length_a 18.084713
_cell_length_b 18.084713
_cell_length_c 8.976363
_cell_angle_alpha 90.000000
_cell_angle_beta 90.000000
_cell_angle_gamma 120.000000
_cell_volume 2542.460888
_symmetry_space_group_name_H-M "P 31 2 1"
_symmetry_group_IT_number 152
_symmetry_cell_setting 'hexagonal'
loop_
_space_group_symop_operation_xyz
x,y,z
-y,x-y,1/3+z
-x+y,-x,2/3+z
x-y,-y,2/3-z
-x,-x+y,1/3-z
y,x,-z
loop_
_atom_site_type_symbol
_atom_site_label
_atom_site_fract_x
_atom_site_fract_y
_atom_site_fract_z
Si Si1 0.171057 0.543059 0.419414
Si Si2 0.611747 0.446284 0.574462
Si Si3 0.535327 0.556246 0.223483
Si Si4 0.000000 0.326546 0.666667
Si Si5 0.581511 0.908843 0.763875
Si Si6 0.564937 0.921912 0.433205
Si Si7 0.816707 0.220377 0.719147
Si Si8 0.720787 0.235918 0.441448
O O1 0.196105 0.535359 0.249642
O O2 0.179381 0.476521 0.520849
O O3 0.229407 0.637707 0.481838
O O4 0.073342 0.522709 0.414416
O O5 0.592763 0.521882 0.620954
O O6 0.519893 0.359970 0.558699
O O7 0.669877 0.438990 0.702999
O O8 0.611876 0.634709 0.141061
O O9 0.449156 0.519375 0.125748
O O10 0.086262 0.322615 0.633253
O O11 0.609103 0.922458 0.590541
O O12 0.628980 0.868118 0.857792
O O13 0.605005 0.000000 0.833334
O O14 0.534105 0.832880 0.352888
O O15 0.634153 0.000000 0.333334
O O16 0.777685 0.220164 0.559748
#
# Coordination Sequence:
#
# PCOD8322033 Si02
#       8
#     6   6   6   3   6   6   6   6
#     4  11  22  38  53  73 110 142 187 245 280 337
#     4  11  22  35  53  76 103 142 190 237 292 329
#     4  10  18  35  57  76  95 149 189 228 288 344
#     4  10  18  36  58  74 108 140 186 230 282 342
#     4  11  23  40  59  81 109 146 189 236 286 351
#     4  11  19  34  58  77 105 143 188 237 286 337
#     4  11  23  39  53  80 104 148 186 233 289 333
#     4  12  23  35  52  78 105 141 194 240 286 336
#
# _framework density 17.699387000000002
#
# number of rings (size 3 to 8) (size 9 to 14) (size 15 to 20)
#    0.000    1.067    4.667    4.400    1.867    1.067 
#    0.000    0.000    0.000    0.000    0.000    0.000 
#    0.000    0.000    6.800    0.000    0.000    0.000 
#
# Total GULP energy -557938.054653 kJ/mol
# GULP energy per Si atom -12398.623437 kJ/mol
# Density = 1.765910 g / cm^3
# Si number density = 17.699387 Si / 1000 Ang^3
#
#
#
# Elastic Constant Matrix: (Units=GPa)
#
#
# Indices 1 2 3 4 5 6 
#
# 1 75.0932 28.2305 31.7485 -1.0170 0.0000 0.0000
# 2 28.2305 75.0932 31.7485 1.0170 0.0000 0.0000
# 3 31.7485 31.7485 122.9485 0.0000 0.0000 0.0000
# 4 -1.0170 1.0170 0.0000 30.8100 0.0000 0.0000
# 5 0.0000 0.0000 0.0000 0.0000 30.8100 -1.0170
# 6 0.0000 0.0000 0.0000 0.0000 -1.0170 23.4314
#
#
#
# Elastic Compliance Matrix: (Units=1/GPa)
#
#
# Indices 1 2 3 4 5 6 
#
# 1 0.016437 -0.004933 -0.002971 0.000705 0.000000 0.000000
# 2 -0.004933 0.016437 -0.002971 -0.000705 0.000000 0.000000
# 3 -0.002971 -0.002971 0.009668 0.000000 0.000000 0.000000
# 4 0.000705 -0.000705 0.000000 0.032504 0.000000 0.000000
# 5 0.000000 0.000000 0.000000 0.000000 0.032504 0.001411
# 6 0.000000 0.000000 0.000000 0.000000 0.001411 0.042739
#
#
# Mechanical properties :
#
#
# Convention : Reuss Voigt Hill
#
# Bulk Modulus (GPa) = 48.09309 50.73225 49.41267
# Shear Modulus (GPa) = 27.93821 29.10410 28.52116
#
# Velocity S-wave (km/s) = 3.97732 4.05947 4.01861
# Velocity P-wave (km/s) = 6.95150 7.12024 7.03638
#
# Compressibility (1/GPa) = 0.02079301
#
# Stress axis : x y z
#
# Youngs Moduli (GPa) = 60.83940 60.83940 103.43758
#
# Poissons Ratio (x) = 0.30011 0.30727
# Poissons Ratio (y) = 0.30011 0.30727
# Poissons Ratio (z) = 0.18073 0.18073
#
# Static dielectric constant tensor:
#      x y z
#    x 3.230450 0.000000 0.000000 
#    y 0.000000 3.230450 0.000000 
#    z 0.000000 0.000000 3.647140 
# 
# 
# High freq. dielectric constant tensor:
#      x y z
#    x 1.650970 0.000000 0.000000 
#    y 0.000000 1.650970 0.000000 
#    z 0.000000 0.000000 1.713390 
# 
# From -- ./inp_files/1332.got.cif
#   From: 2010.03.12/outbox.cif.g09.slc.cpg/sg152_1_cif.got.tgz:1332.got - 2010.04.03 13:45:27.
