data_PCOD8322056
_publ_section_title
;
Structure prediction by ZEFSAII (Michael W. Deem and Ramdas Pophale) SiO2 
 PCOD8322056
Probable space group: P 31 2 1
;
_chemical_formula_sum "Si O2"
_cell_formula_units_Z 45
_cell_length_a 12.600065
_cell_length_b 12.600065
_cell_length_c 16.124633
_cell_angle_alpha 90.000000
_cell_angle_beta 90.000000
_cell_angle_gamma 120.000000
_cell_volume 2217.001779
_symmetry_space_group_name_H-M "P 31 2 1"
_symmetry_group_IT_number 152
_symmetry_cell_setting 'hexagonal'
loop_
_space_group_symop_operation_xyz
x,y,z
-y,x-y,1/3+z
-x+y,-x,2/3+z
x-y,-y,2/3-z
-x,-x+y,1/3-z
y,x,-z
loop_
_atom_site_type_symbol
_atom_site_label
_atom_site_fract_x
_atom_site_fract_y
_atom_site_fract_z
Si Si1 0.332422 0.422419 0.576055
Si Si2 0.271884 0.896204 0.149201
Si Si3 0.444998 0.793216 0.150314
Si Si4 0.256855 0.391939 0.328899
Si Si5 0.912103 0.086896 0.094222
Si Si6 0.346220 0.698803 0.975053
Si Si7 0.150163 0.283725 0.843051
Si Si8 0.863034 0.000000 0.333334
O O1 0.405837 0.405837 0.500000
O O2 0.188712 0.376171 0.558701
O O3 0.343908 0.351735 0.654692
O O4 0.397096 0.565291 0.600731
O O5 0.396732 0.889947 0.140224
O O6 0.188150 0.839032 0.069887
O O7 0.308972 0.037165 0.156084
O O8 0.403864 0.737140 0.243201
O O9 0.591667 0.862199 0.148390
O O10 0.392699 0.697837 0.070555
O O11 0.177894 0.319905 0.249492
O O12 0.327613 0.535954 0.314642
O O13 0.000000 0.165366 0.166667
O O14 0.000269 0.110500 0.017349
O O15 0.827996 0.941451 0.112412
O O16 0.184511 0.239045 0.928138
#
# Coordination Sequence:
#
# PCOD8322056 Si02
#       8
#     6   6   6   6   6   6   6   3
#     4   9  19  35  62  94 117 157 218 270 322 384
#     4   9  20  39  64  89 119 162 214 269 325 384
#     4  10  23  44  62  94 130 171 226 273 328 403
#     4  10  19  36  61  84 118 161 204 269 316 377
#     4  10  22  35  54  88 121 157 207 250 321 393
#     4  10  22  42  62  91 130 167 224 275 322 391
#     4  11  22  40  64  90 128 173 205 273 337 386
#     4  10  22  40  58  90 130 162 206 274 322 402
#
# _framework density 20.297681999999998
#
# number of rings (size 3 to 8) (size 9 to 14) (size 15 to 20)
#    0.000    2.133    1.333    1.600    1.867    5.333 
#    7.200    0.000    0.000    0.000    0.000    0.000 
#    0.000    0.000    0.000    0.000    0.000    0.000 
#
# Total GULP energy -557462.753167 kJ/mol
# GULP energy per Si atom -12388.061181 kJ/mol
# Density = 2.025148 g / cm^3
# Si number density = 20.297682 Si / 1000 Ang^3
#
#
#
# Elastic Constant Matrix: (Units=GPa)
#
#
# Indices 1 2 3 4 5 6 
#
# 1 80.3900 26.6507 24.9434 -0.7959 0.0000 0.0000
# 2 26.6507 80.3900 24.9434 0.7959 0.0000 0.0000
# 3 24.9434 24.9434 73.2560 0.0000 0.0000 0.0000
# 4 -0.7959 0.7959 0.0000 27.6455 0.0000 0.0000
# 5 0.0000 0.0000 0.0000 0.0000 27.6455 -0.7959
# 6 0.0000 0.0000 0.0000 0.0000 -0.7959 26.8697
#
#
#
# Elastic Compliance Matrix: (Units=1/GPa)
#
#
# Indices 1 2 3 4 5 6 
#
# 1 0.014864 -0.003760 -0.003781 0.000536 0.000000 0.000000
# 2 -0.003760 0.014864 -0.003781 -0.000536 0.000000 0.000000
# 3 -0.003781 -0.003781 0.016226 0.000000 0.000000 0.000000
# 4 0.000536 -0.000536 0.000000 0.036203 0.000000 0.000000
# 5 0.000000 0.000000 0.000000 0.000000 0.036203 0.001072
# 6 0.000000 0.000000 0.000000 0.000000 0.001072 0.037248
#
#
# Mechanical properties :
#
#
# Convention : Reuss Voigt Hill
#
# Bulk Modulus (GPa) = 42.89937 43.01232 42.95585
# Shear Modulus (GPa) = 26.87839 26.93201 26.90520
#
# Velocity S-wave (km/s) = 3.64292 3.64655 3.64473
# Velocity P-wave (km/s) = 6.23502 6.24232 6.23867
#
# Compressibility (1/GPa) = 0.02331037
#
# Stress axis : x y z
#
# Youngs Moduli (GPa) = 67.27522 67.27522 61.63101
#
# Poissons Ratio (x) = 0.25295 0.23303
# Poissons Ratio (y) = 0.25295 0.23303
# Poissons Ratio (z) = 0.25437 0.25437
#
# Static dielectric constant tensor:
#      x y z
#    x 3.661610 0.000000 0.000000 
#    y 0.000000 3.661610 0.000000 
#    z 0.000000 0.000000 3.945740 
# 
# 
# High freq. dielectric constant tensor:
#      x y z
#    x 1.783550 0.000000 0.000000 
#    y 0.000000 1.783550 0.000000 
#    z 0.000000 0.000000 1.799200 
# 
# From -- ./inp_files/2515.got.cif
#   From: 2010.03.12/outbox.cif.g09.slc.cpg/sg152_2_cif.got.tgz:2515.got - 2010.04.03 13:45:27.
