data_PCOD8322906
_publ_section_title
;
Structure prediction by ZEFSAII (Michael W. Deem and Ramdas Pophale) SiO2 
 PCOD8322906
Probable space group: R 3 C
;
_chemical_formula_sum "Si O2"
_cell_formula_units_Z 66
_cell_length_a 13.448533
_cell_length_b 13.448533
_cell_length_c 19.071601
_cell_angle_alpha 90.000000
_cell_angle_beta 90.000000
_cell_angle_gamma 120.000000
_cell_volume 2987.222762
_symmetry_space_group_name_H-M "R 3 C"
_symmetry_group_IT_number 161
_symmetry_cell_setting 'hexagonal'
loop_
_space_group_symop_operation_xyz
x,y,z
-y,x-y,z
-x+y,-x,z
-x+y,y,1/2+z
x,x-y,1/2+z
-y,-x,1/2+z
2/3+x,1/3+y,1/3+z
2/3-y,1/3+x-y,1/3+z
2/3-x+y,1/3-x,1/3+z
2/3-x+y,1/3+y,5/6+z
2/3+x,1/3+x-y,5/6+z
2/3-y,1/3-x,5/6+z
1/3+x,2/3+y,2/3+z
1/3-y,2/3+x-y,2/3+z
1/3-x+y,2/3-x,2/3+z
1/3-x+y,2/3+y,1/6+z
1/3+x,2/3+x-y,1/6+z
1/3-y,2/3-x,1/6+z
loop_
_atom_site_type_symbol
_atom_site_label
_atom_site_fract_x
_atom_site_fract_y
_atom_site_fract_z
Si Si1 0.870773 0.119711 0.736472
Si Si2 0.786383 0.204098 0.849616
Si Si3 0.333335 0.666668 0.458782
Si Si4 0.000000 0.000000 0.460655
Si Si5 0.666659 0.635670 0.959710
O O1 0.878703 0.212045 0.793035
O O2 0.740355 0.009162 0.736431
O O3 0.963401 0.086730 0.761409
O O4 0.905384 0.183294 0.661699
O O5 0.753380 0.296715 0.824697
O O6 0.675848 0.073674 0.849661
O O7 0.849986 0.238708 0.924382
O O8 0.333334 0.666667 0.543052
#
# Coordination Sequence:
#
# PCOD8322906 Si02
#       5
#    18  18   6   6  18
#     4  10  25  43  74 103 143 191 246 299 369 438
#     4  10  25  43  74 103 143 191 246 299 369 438
#     4  12  24  46  71 100 150 198 244 302 376 435
#     4  12  24  46  71 100 150 198 244 302 376 435
#     4  10  24  46  70 108 140 192 242 300 364 438
#
# _framework density 22.094101999999999
#
# number of rings (size 3 to 8) (size 9 to 14) (size 15 to 20)
#    1.636    0.000    0.000    3.273    7.636    4.364 
#    0.000    0.000    0.000    0.000    0.000    0.000 
#    0.000    0.000    0.000    0.000    0.000    0.000 
#
# Total GULP energy -272581.385504 kJ/mol
# GULP energy per Si atom -12390.062977 kJ/mol
# Density = 2.204381 g / cm^3
# Si number density = 22.094102 Si / 1000 Ang^3
#
#
#
# Elastic Constant Matrix: (Units=GPa)
#
#
# Indices 1 2 3 4 5 6 
#
# 1 119.9404 81.6256 72.7727 14.3526 0.0000 0.0000
# 2 81.6256 119.9392 72.7732 -14.3527 0.0000 0.0000
# 3 72.7727 72.7732 102.7678 -0.0002 0.0000 0.0000
# 4 14.3526 -14.3527 -0.0002 45.7817 0.0000 0.0000
# 5 0.0000 0.0000 0.0000 0.0000 45.7822 14.3513
# 6 0.0000 0.0000 0.0000 0.0000 14.3513 19.1595
#
#
#
# Elastic Compliance Matrix: (Units=1/GPa)
#
#
# Indices 1 2 3 4 5 6 
#
# 1 0.022132 -0.011980 -0.007189 -0.010694 0.000000 0.000000
# 2 -0.011980 0.022133 -0.007189 0.010694 0.000000 0.000000
# 3 -0.007189 -0.007189 0.019912 0.000000 0.000000 0.000000
# 4 -0.010694 0.010694 0.000000 0.028548 0.000000 0.000000
# 5 0.000000 0.000000 0.000000 0.000000 0.028545 -0.021381
# 6 0.000000 0.000000 0.000000 0.000000 -0.021381 0.068209
#
#
# Mechanical properties :
#
#
# Convention : Reuss Voigt Hill
#
# Bulk Modulus (GPa) = 87.25713 88.55449 87.90581
# Shear Modulus (GPa) = 20.32392 29.84306 25.08349
#
# Velocity S-wave (km/s) = 3.03624 3.67921 3.37308
# Velocity P-wave (km/s) = 7.20214 7.62997 7.41914
#
# Compressibility (1/GPa) = 0.01146038
#
# Stress axis : x y z
#
# Youngs Moduli (GPa) = 45.18362 45.18241 50.22009
#
# Poissons Ratio (x) = 0.54128 0.36103
# Poissons Ratio (y) = 0.54130 0.36105
# Poissons Ratio (z) = 0.32482 0.32483
#
# Static dielectric constant tensor:
#      x y z
#    x 4.496200 0.000000 0.000000 
#    y 0.000000 4.480090 -0.000270 
#    z 0.000000 -0.000270 3.624410 
# 
# 
# High freq. dielectric constant tensor:
#      x y z
#    x 1.873210 0.000000 0.000000 
#    y 0.000000 1.873210 0.000000 
#    z 0.000000 0.000000 1.844750 
# 
# From -- ./inp_files/1224.got.cif
#   From: 2010.03.12/outbox.cif.g09.slc.cpg/sg161_cif.got.tgz:1224.got - 2010.04.02 06:27:14.
