data_PCOD8322014
_publ_section_title
;
Structure prediction by ZEFSAII (Michael W. Deem and Ramdas Pophale) SiO2 
 PCOD8322014
Probable space group: P 31 2 1
;
_chemical_formula_sum "Si O2"
_cell_formula_units_Z 33
_cell_length_a 10.391210
_cell_length_b 10.391210
_cell_length_c 19.929003
_cell_angle_alpha 90.000000
_cell_angle_beta 90.000000
_cell_angle_gamma 120.000000
_cell_volume 1863.581745
_symmetry_space_group_name_H-M "P 31 2 1"
_symmetry_group_IT_number 152
_symmetry_cell_setting 'hexagonal'
loop_
_space_group_symop_operation_xyz
x,y,z
-y,x-y,1/3+z
-x+y,-x,2/3+z
x-y,-y,2/3-z
-x,-x+y,1/3-z
y,x,-z
loop_
_atom_site_type_symbol
_atom_site_label
_atom_site_fract_x
_atom_site_fract_y
_atom_site_fract_z
Si Si1 0.120343 0.867504 0.613814
Si Si2 0.000000 0.255573 0.166667
Si Si3 0.800405 0.062229 0.525376
Si Si4 0.643005 0.983106 0.656908
Si Si5 0.112256 0.151076 0.572242
Si Si6 0.404335 0.068304 0.694057
O O1 0.282291 0.950391 0.644641
O O2 0.000000 0.750082 0.666667
O O3 0.140088 0.794009 0.544483
O O4 0.067364 0.984199 0.593288
O O5 0.141919 0.237011 0.161732
O O6 0.984117 0.337754 0.102515
O O7 0.680614 0.043928 0.580585
O O8 0.958268 0.150489 0.563595
O O9 0.788637 0.053441 0.703693
O O10 0.547626 0.052275 0.684748
O O11 0.567799 0.802377 0.655450
O O12 0.195995 0.195995 0.500000
#
# Coordination Sequence:
#
# PCOD8322014 Si02
#       6
#     6   3   6   6   6   6
#     4  10  15  29  54  79  98 127 175 228 266 304
#     4  10  16  30  54  84 102 128 178 234 268 312
#     4  10  16  30  55  81 100 126 180 240 269 298
#     4  10  21  34  50  78 110 145 176 219 272 333
#     4   9  16  27  52  83 104 125 172 233 273 302
#     4  10  21  34  53  76 111 142 179 220 273 334
#
# _framework density 17.707837000000001
#
# number of rings (size 3 to 8) (size 9 to 14) (size 15 to 20)
#    0.000    2.182    4.545    2.727    1.273    0.000 
#    0.000    3.636    0.000    0.000    0.000    0.000 
#    0.000    0.000    0.000    0.000    0.000    0.000 
#
# Total GULP energy -408844.106987 kJ/mol
# GULP energy per Si atom -12389.215363 kJ/mol
# Density = 1.766753 g / cm^3
# Si number density = 17.707837 Si / 1000 Ang^3
#
#
#
# Elastic Constant Matrix: (Units=GPa)
#
#
# Indices 1 2 3 4 5 6 
#
# 1 58.5944 26.5014 36.2296 -0.6648 -0.0002 0.0000
# 2 26.5014 58.5944 36.2296 0.6648 0.0002 0.0000
# 3 36.2296 36.2296 135.2399 0.0000 0.0000 0.0000
# 4 -0.6648 0.6648 0.0000 15.8788 0.0000 0.0002
# 5 -0.0002 0.0002 0.0000 0.0000 15.8788 -0.6648
# 6 0.0000 0.0000 0.0000 0.0002 -0.6648 16.0465
#
#
#
# Elastic Compliance Matrix: (Units=1/GPa)
#
#
# Indices 1 2 3 4 5 6 
#
# 1 0.023219 -0.007995 -0.004078 0.001307 0.000000 0.000000
# 2 -0.007995 0.023219 -0.004078 -0.001307 0.000000 0.000000
# 3 -0.004078 -0.004078 0.009579 0.000000 0.000000 0.000000
# 4 0.001307 -0.001307 0.000000 0.063086 0.000000 -0.000001
# 5 0.000000 0.000000 0.000000 0.000000 0.063086 0.002614
# 6 0.000000 0.000000 0.000000 -0.000001 0.002614 0.062427
#
#
# Mechanical properties :
#
#
# Convention : Reuss Voigt Hill
#
# Bulk Modulus (GPa) = 42.16888 50.03888 46.10388
# Shear Modulus (GPa) = 17.55462 19.79202 18.67332
#
# Velocity S-wave (km/s) = 3.15198 3.34683 3.25087
# Velocity P-wave (km/s) = 6.09197 6.57681 6.33902
#
# Compressibility (1/GPa) = 0.02371417
#
# Stress axis : x y z
#
# Youngs Moduli (GPa) = 43.06825 43.06825 104.39027
#
# Poissons Ratio (x) = 0.34432 0.42575
# Poissons Ratio (y) = 0.34432 0.42575
# Poissons Ratio (z) = 0.17565 0.17565
#
# Static dielectric constant tensor:
#      x y z
#    x 2.968150 0.000000 0.000000 
#    y 0.000000 2.968150 0.000000 
#    z 0.000000 0.000000 -2.196540 
# 
# 
# High freq. dielectric constant tensor:
#      x y z
#    x 1.644500 0.000000 0.000000 
#    y 0.000000 1.644500 0.000000 
#    z 0.000000 0.000000 1.721620 
# 
# From -- ./inp_files/2728.got.cif
#   From: 2010.03.12/outbox.cif.g09.slc.cpg/sg152_2_cif.got.tgz:2728.got - 2010.04.03 13:45:27.
