data_PCOD8322946
_publ_section_title
;
Structure prediction by ZEFSAII (Michael W. Deem and Ramdas Pophale) SiO2 
 PCOD8322946
Probable space group: P -3 1 M 
;
_chemical_formula_sum "Si O2"
_cell_formula_units_Z 96
_cell_length_a 20.524752
_cell_length_b 20.524752
_cell_length_c 16.441718
_cell_angle_alpha 90.000000
_cell_angle_beta 90.000000
_cell_angle_gamma 120.000000
_cell_volume 5998.375695
_symmetry_space_group_name_H-M "P -3 1 M "
_symmetry_group_IT_number 162
_symmetry_cell_setting 'hexagonal'
loop_
_space_group_symop_operation_xyz
x,y,z
-y,x-y,z
-x+y,-x,z
-y,-x,-z
-x+y,y,-z
x,x-y,-z
-x,-y,-z
y,-x+y,-z
x-y,x,-z
y,x,z
x-y,-y,z
-x,-x+y,z
loop_
_atom_site_type_symbol
_atom_site_label
_atom_site_fract_x
_atom_site_fract_y
_atom_site_fract_z
Si Si1 0.088324 0.665887 0.112984
Si Si2 0.339805 0.914777 0.070097
Si Si3 0.826493 0.660681 0.096908
Si Si4 0.774002 0.465224 0.419113
Si Si5 0.178918 0.647156 0.651054
Si Si6 0.917746 0.535857 0.506957
Si Si7 0.913857 0.466002 0.801148
Si Si8 0.084824 0.170021 0.096936
O O1 0.130480 0.752697 0.139256
O O2 0.110061 0.619293 0.175453
O O3 0.000000 0.634694 0.115918
O O4 0.114733 0.661541 0.021210
O O5 0.261275 0.870670 0.118684
O O6 0.403489 0.907129 0.116877
O O7 0.357625 0.000000 0.066046
O O8 0.863724 0.745398 0.131327
O O9 0.832439 0.664878 0.000000
O O10 0.722882 0.445763 0.500000
O O11 0.782350 0.394769 0.393239
O O12 0.734473 0.487080 0.346041
O O13 0.858627 0.533976 0.439872
O O14 0.112489 0.646609 0.597959
O O15 0.145455 0.610508 0.737515
O O16 0.925365 0.462683 0.500000
O O17 0.000000 0.609801 0.494306
O O18 0.000000 0.511055 0.767501
O O19 0.134715 0.134715 0.129675
O O20 0.000000 0.119788 0.129783
O O21 0.085300 0.170599 0.000000
#
# Coordination Sequence:
#
# PCOD8322946 Si02
#       8
#    12  12  12  12  12  12  12  12
#     4   9  17  30  46  62  81 109 146 187 229 271
#     4   9  17  30  46  61  79 108 148 190 229 271
#     4   9  16  26  42  60  77 101 139 182 218 258
#     4   9  17  28  44  63  85 113 139 162 193 242
#     4  10  18  28  43  63  87 110 136 170 210 252
#     4   8  14  25  42  62  83 108 136 163 192 232
#     4  10  20  31  44  62  83 108 141 185 233 269
#     4   9  15  22  34  56  85 110 128 152 195 252
#
# _framework density 16.004332999999999
#
# number of rings (size 3 to 8) (size 9 to 14) (size 15 to 20)
#    0.000    2.875    0.000    3.000    0.000    8.000 
#    0.000    0.000    0.000    0.500    0.000    1.750 
#    0.000    0.000    0.000    0.000    0.000    0.000 
#
# Total GULP energy -1189498.635238 kJ/mol
# GULP energy per Si atom -12390.610784 kJ/mol
# Density = 1.596791 g / cm^3
# Si number density = 16.004333 Si / 1000 Ang^3
#
#
#
# Elastic Constant Matrix: (Units=GPa)
#
#
# Indices 1 2 3 4 5 6 
#
# 1 86.2864 39.4688 22.8606 0.0000 4.7390 0.0000
# 2 39.4688 86.2864 22.8606 0.0000 -4.7390 0.0000
# 3 22.8606 22.8606 41.5740 0.0000 0.0000 0.0000
# 4 0.0000 0.0000 0.0000 18.4050 0.0000 -4.7390
# 5 4.7390 -4.7390 0.0000 0.0000 18.4050 0.0000
# 6 0.0000 0.0000 0.0000 -4.7390 0.0000 23.4088
#
#
#
# Elastic Compliance Matrix: (Units=1/GPa)
#
#
# Indices 1 2 3 4 5 6 
#
# 1 0.016237 -0.006298 -0.005465 0.000000 -0.005802 0.000000
# 2 -0.006298 0.016237 -0.005465 0.000000 0.005802 0.000000
# 3 -0.005465 -0.005465 0.030064 0.000000 0.000000 0.000000
# 4 0.000000 0.000000 0.000000 0.057321 0.000000 0.011604
# 5 -0.005802 0.005802 0.000000 0.000000 0.057321 0.000000
# 6 0.000000 0.000000 0.000000 0.011604 0.000000 0.045068
#
#
# Mechanical properties :
#
#
# Convention : Reuss Voigt Hill
#
# Bulk Modulus (GPa) = 35.61134 42.72522 39.16828
# Shear Modulus (GPa) = 18.79252 20.64088 19.71670
#
# Velocity S-wave (km/s) = 3.43040 3.59514 3.51374
# Velocity P-wave (km/s) = 6.16357 6.63230 6.40222
#
# Compressibility (1/GPa) = 0.02808094
#
# Stress axis : x y z
#
# Youngs Moduli (GPa) = 61.58949 61.58949 33.26252
#
# Poissons Ratio (x) = 0.38786 0.18179
# Poissons Ratio (y) = 0.38786 0.18179
# Poissons Ratio (z) = 0.33660 0.33660
#
# Static dielectric constant tensor:
#      x y z
#    x 3.170100 0.000000 0.000000 
#    y 0.000000 3.170100 0.000000 
#    z 0.000000 0.000000 2.671980 
# 
# 
# High freq. dielectric constant tensor:
#      x y z
#    x 1.609400 0.000000 0.000000 
#    y 0.000000 1.609400 0.000000 
#    z 0.000000 0.000000 1.566490 
# 
# From -- ./inp_files/3697.got.cif
#   From: 2010.03.12/outbox.cif.g09.slc.cpg/sg162_2_cif.got.tgz:3697.got - 2010.04.02 06:27:41.
