data_PCOD8322624
_publ_section_title
;
Structure prediction by ZEFSAII (Michael W. Deem and Ramdas Pophale) SiO2 
 PCOD8322624
Probable space group: R 3 2
;
_chemical_formula_sum "Si O2"
_cell_formula_units_Z 60
_cell_length_a 11.175157
_cell_length_b 11.175157
_cell_length_c 23.817813
_cell_angle_alpha 90.000000
_cell_angle_beta 90.000000
_cell_angle_gamma 120.000000
_cell_volume 2575.963941
_symmetry_space_group_name_H-M "R 3 2"
_symmetry_group_IT_number 155
_symmetry_cell_setting 'hexagonal'
loop_
_space_group_symop_operation_xyz
x,y,z
-y,x-y,z
-x+y,-x,z
x-y,-y,-z
-x,-x+y,-z
y,x,-z
2/3+x,1/3+y,1/3+z
2/3-y,1/3+x-y,1/3+z
2/3-x+y,1/3-x,1/3+z
2/3+x-y,1/3-y,1/3-z
2/3-x,1/3-x+y,1/3-z
2/3+y,1/3+x,1/3-z
1/3+x,2/3+y,2/3+z
1/3-y,2/3+x-y,2/3+z
1/3-x+y,2/3-x,2/3+z
1/3+x-y,2/3-y,2/3-z
1/3-x,2/3-x+y,2/3-z
1/3+y,2/3+x,2/3-z
loop_
_atom_site_type_symbol
_atom_site_label
_atom_site_fract_x
_atom_site_fract_y
_atom_site_fract_z
Si Si1 0.610084 0.660008 0.892444
Si Si2 0.333334 0.666668 0.101418
Si Si3 0.190877 0.807643 0.047398
Si Si4 0.567395 0.922509 0.407954
O O1 0.666667 0.635001 0.833334
O O2 0.728452 0.702603 0.941928
O O3 0.466134 0.529754 0.912317
O O4 0.586476 0.790018 0.881928
O O5 0.333334 0.666668 0.166667
O O6 0.301723 0.782486 0.079866
O O7 0.041986 0.736012 0.077679
O O8 0.173547 0.746081 0.985458
#
# Coordination Sequence:
#
# PCOD8322624 Si02
#       4
#    18   6  18  18
#     4  12  27  45  76 105 153 192 244 304 374 432
#     4  12  21  36  72 102 141 174 243 318 358 407
#     4  11  24  44  73 102 140 189 249 301 361 437
#     4  11  26  46  72 104 143 196 244 301 363 447
#
# _framework density 23.292251
#
# number of rings (size 3 to 8) (size 9 to 14) (size 15 to 20)
#    0.000    0.600    3.000    4.200    8.400    0.000 
#    1.800    0.000    0.000    0.000    0.000    0.000 
#    0.000    0.000    0.000    0.000    0.000    0.000 
#
# Total GULP energy -247856.477963 kJ/mol
# GULP energy per Si atom -12392.823898 kJ/mol
# Density = 2.323924 g / cm^3
# Si number density = 23.292251 Si / 1000 Ang^3
#
#
#
# Elastic Constant Matrix: (Units=GPa)
#
#
# Indices 1 2 3 4 5 6 
#
# 1 135.6752 48.8274 42.7407 -8.6915 -0.0002 0.0000
# 2 48.8274 135.6742 42.7407 8.6913 0.0002 0.0000
# 3 42.7407 42.7407 101.3904 0.0000 0.0000 -0.0001
# 4 -8.6915 8.6913 0.0000 33.9004 0.0000 0.0002
# 5 -0.0002 0.0002 0.0000 0.0000 33.9007 -8.6916
# 6 0.0000 0.0000 -0.0001 0.0002 -8.6916 43.4238
#
#
#
# Elastic Compliance Matrix: (Units=1/GPa)
#
#
# Indices 1 2 3 4 5 6 
#
# 1 0.009436 -0.002701 -0.002839 0.003112 0.000000 0.000000
# 2 -0.002701 0.009436 -0.002839 -0.003112 0.000000 0.000000
# 3 -0.002839 -0.002839 0.012257 0.000000 0.000000 0.000000
# 4 0.003112 -0.003112 0.000000 0.031094 0.000000 0.000000
# 5 0.000000 0.000000 0.000000 0.000000 0.031093 0.006224
# 6 0.000000 0.000000 0.000000 0.000000 0.006224 0.024275
#
#
# Mechanical properties :
#
#
# Convention : Reuss Voigt Hill
#
# Bulk Modulus (GPa) = 69.58762 71.26191 70.42476
# Shear Modulus (GPa) = 35.93493 38.14040 37.03766
#
# Velocity S-wave (km/s) = 3.93209 4.05096 3.99197
# Velocity P-wave (km/s) = 7.11026 7.24855 7.17974
#
# Compressibility (1/GPa) = 0.01437037
#
# Stress axis : x y z
#
# Youngs Moduli (GPa) = 105.97322 105.97246 81.58827
#
# Poissons Ratio (x) = 0.28622 0.23165
# Poissons Ratio (y) = 0.28622 0.23166
# Poissons Ratio (z) = 0.30089 0.30089
#
# Static dielectric constant tensor:
#      x y z
#    x 4.385340 0.000000 0.000000 
#    y 0.000000 4.385350 0.000010 
#    z 0.000000 0.000010 4.116700 
# 
# 
# High freq. dielectric constant tensor:
#      x y z
#    x 1.927920 0.000000 0.000000 
#    y 0.000000 1.927920 0.000000 
#    z 0.000000 0.000000 1.919970 
# 
# From -- ./inp_files/7760.got.cif
#   From: 2010.03.12/outbox.cif.g09.slc.cpg/sg155_4_cif.got.tgz:7760.got - 2010.04.03 13:54:13.
