data_PCOD8322534
_publ_section_title
;
Structure prediction by ZEFSAII (Michael W. Deem and Ramdas Pophale) SiO2 
 PCOD8322534
Probable space group: R 3 2
;
_chemical_formula_sum "Si O2"
_cell_formula_units_Z 114
_cell_length_a 20.171118
_cell_length_b 20.171118
_cell_length_c 16.799685
_cell_angle_alpha 90.000000
_cell_angle_beta 90.000000
_cell_angle_gamma 120.000000
_cell_volume 5919.591124
_symmetry_space_group_name_H-M "R 3 2"
_symmetry_group_IT_number 155
_symmetry_cell_setting 'hexagonal'
loop_
_space_group_symop_operation_xyz
x,y,z
-y,x-y,z
-x+y,-x,z
x-y,-y,-z
-x,-x+y,-z
y,x,-z
2/3+x,1/3+y,1/3+z
2/3-y,1/3+x-y,1/3+z
2/3-x+y,1/3-x,1/3+z
2/3+x-y,1/3-y,1/3-z
2/3-x,1/3-x+y,1/3-z
2/3+y,1/3+x,1/3-z
1/3+x,2/3+y,2/3+z
1/3-y,2/3+x-y,2/3+z
1/3-x+y,2/3-x,2/3+z
1/3+x-y,2/3-y,2/3-z
1/3-x,2/3-x+y,2/3-z
1/3+y,2/3+x,2/3-z
loop_
_atom_site_type_symbol
_atom_site_label
_atom_site_fract_x
_atom_site_fract_y
_atom_site_fract_z
Si Si1 0.090406 0.251420 0.000751
Si Si2 0.814675 0.483722 0.738758
Si Si3 0.820008 0.248128 0.010480
Si Si4 0.577089 0.157194 0.489955
Si Si5 0.090678 0.244809 0.321295
Si Si6 0.000000 0.000000 0.405760
Si Si7 0.508948 0.754743 0.509946
O O1 0.119775 0.224788 0.076526
O O2 0.121924 0.340733 0.007543
O O3 0.119414 0.228679 0.921615
O O4 0.000000 0.213087 0.000000
O O5 0.821648 0.488314 0.833334
O O6 0.883199 0.473947 0.704257
O O7 0.813445 0.557889 0.705150
O O8 0.736692 0.411287 0.706271
O O9 0.804739 0.241458 0.104397
O O10 0.859067 0.336451 0.981531
O O11 0.665632 0.195291 0.511114
O O12 0.557087 0.224270 0.476810
O O13 0.117289 0.333334 0.333334
O O14 0.096295 0.231939 0.227964
O O15 0.000000 0.000000 0.500000
#
# Coordination Sequence:
#
# PCOD8322534 Si02
#       7
#    18  18  18  18  18   6  18
#     4  10  22  39  60  88 119 157 200 240 294 355
#     4  11  22  38  63  90 118 155 197 247 299 354
#     4  11  22  39  64  86 120 160 196 242 298 358
#     4  10  20  38  64  89 117 150 198 249 294 349
#     4  11  24  40  60  91 125 153 197 252 302 354
#     4   9  18  36  60  93 114 142 197 244 297 345
#     4  10  21  38  63  91 118 151 194 253 300 344
#
# _framework density 19.258087
#
# number of rings (size 3 to 8) (size 9 to 14) (size 15 to 20)
#    0.000    1.579    3.158    1.737    2.211    0.000 
#    0.000    4.737    0.000    0.000    0.000    0.000 
#    0.000    0.000    0.000    0.000    0.000    0.000 
#
# Total GULP energy -471363.059643 kJ/mol
# GULP energy per Si atom -12404.291043 kJ/mol
# Density = 1.921425 g / cm^3
# Si number density = 19.258087 Si / 1000 Ang^3
#
#
#
# Elastic Constant Matrix: (Units=GPa)
#
#
# Indices 1 2 3 4 5 6 
#
# 1 84.5503 24.4138 24.4202 0.1291 0.0001 0.0000
# 2 24.4138 84.5503 24.4202 -0.1291 -0.0001 0.0000
# 3 24.4202 24.4202 101.2364 0.0000 0.0000 0.0000
# 4 0.1291 -0.1291 0.0000 26.2473 0.0000 -0.0001
# 5 0.0001 -0.0001 0.0000 0.0000 26.2473 0.1291
# 6 0.0000 0.0000 0.0000 -0.0001 0.1291 30.0683
#
#
#
# Elastic Compliance Matrix: (Units=1/GPa)
#
#
# Indices 1 2 3 4 5 6 
#
# 1 0.013460 -0.003170 -0.002482 -0.000082 0.000000 0.000000
# 2 -0.003170 0.013460 -0.002482 0.000082 0.000000 0.000000
# 3 -0.002482 -0.002482 0.011075 0.000000 0.000000 0.000000
# 4 -0.000082 0.000082 0.000000 0.038100 0.000000 0.000000
# 5 0.000000 0.000000 0.000000 0.000000 0.038100 -0.000164
# 6 0.000000 0.000000 0.000000 0.000000 -0.000164 0.033258
#
#
# Mechanical properties :
#
#
# Convention : Reuss Voigt Hill
#
# Bulk Modulus (GPa) = 46.02648 46.31616 46.17132
# Shear Modulus (GPa) = 29.24617 29.65145 29.44881
#
# Velocity S-wave (km/s) = 3.90121 3.92814 3.91470
# Velocity P-wave (km/s) = 6.65163 6.68403 6.66785
#
# Compressibility (1/GPa) = 0.02172662
#
# Stress axis : x y z
#
# Youngs Moduli (GPa) = 74.29681 74.29681 90.29067
#
# Poissons Ratio (x) = 0.23549 0.22411
# Poissons Ratio (y) = 0.23549 0.22411
# Poissons Ratio (z) = 0.18441 0.18441
#
# Static dielectric constant tensor:
#      x y z
#    x 3.386730 0.000000 0.000000 
#    y 0.000000 3.386730 0.000000 
#    z 0.000000 0.000000 3.631000 
# 
# 
# High freq. dielectric constant tensor:
#      x y z
#    x 1.740060 0.000000 0.000000 
#    y 0.000000 1.740060 0.000000 
#    z 0.000000 0.000000 1.761390 
# 
# From -- ./inp_files/5227.got.cif
#   From: 2010.03.12/outbox.cif.g09.slc.cpg/sg155_3_cif.got.tgz:5227.got - 2010.04.03 13:54:13.
