data_PCOD8322743
_publ_section_title
;
Structure prediction by ZEFSAII (Michael W. Deem and Ramdas Pophale) SiO2 
 PCOD8322743
Probable space group: P 3 C 1
;
_chemical_formula_sum "Si O2"
_cell_formula_units_Z 36
_cell_length_a 13.615096
_cell_length_b 13.615096
_cell_length_c 13.981244
_cell_angle_alpha 90.000000
_cell_angle_beta 90.000000
_cell_angle_gamma 120.000000
_cell_volume 2244.490970
_symmetry_space_group_name_H-M "P 3 C 1"
_symmetry_group_IT_number 158
_symmetry_cell_setting 'hexagonal'
loop_
_space_group_symop_operation_xyz
x,y,z
-y,x-y,z
-x+y,-x,z
-x+y,y,1/2+z
x,x-y,1/2+z
-y,-x,1/2+z
loop_
_atom_site_type_symbol
_atom_site_label
_atom_site_fract_x
_atom_site_fract_y
_atom_site_fract_z
Si Si1 0.872428 0.334961 0.676360
Si Si2 0.872428 0.537467 0.588044
Si Si3 0.794239 0.795866 0.088044
Si Si4 0.872153 0.996340 0.382202
Si Si5 0.204134 0.998372 0.676360
Si Si6 0.663007 0.457521 0.882202
O O1 0.918527 0.459264 0.632202
O O2 0.748892 0.251108 0.632202
O O3 0.960783 0.294116 0.648242
O O4 0.864789 0.338448 0.790479
O O5 0.960783 0.666667 0.616162
O O6 0.864789 0.526341 0.473925
O O7 0.917775 0.835549 0.132202
O O8 0.748140 0.874070 0.132202
O O9 0.801877 0.806992 0.973925
O O10 0.889717 0.886578 0.382202
O O11 0.801877 0.994885 0.290479
O O12 0.553244 0.330194 0.882202
#
# Coordination Sequence:
#
# PCOD8322743 Si02
#       6
#     6   6   6   6   6   6
#     4  11  20  33  51  73 103 136 169 207 252 303
#     4  11  20  33  51  73 103 136 169 207 252 303
#     4  11  20  33  51  73 103 136 169 207 252 303
#     4  10  17  30  52  70 107 128 166 208 256 302
#     4  11  20  33  51  73 103 136 169 207 252 303
#     4  10  17  30  52  70 107 128 166 208 256 302
#
# _framework density 16.039270999999999
#
# number of rings (size 3 to 8) (size 9 to 14) (size 15 to 20)
#    0.667    0.667    6.667    1.667    0.000    0.000 
#    0.000    1.667    0.000    0.667    0.000    0.000 
#    0.000    0.000    0.000    0.000    0.000    0.000 
#
# Total GULP energy -446445.842228 kJ/mol
# GULP energy per Si atom -12401.273395 kJ/mol
# Density = 1.600276 g / cm^3
# Si number density = 16.039271 Si / 1000 Ang^3
#
#
#
# Elastic Constant Matrix: (Units=GPa)
#
#
# Indices 1 2 3 4 5 6 
#
# 1 82.8773 42.2209 27.7731 0.0000 0.0000 0.0000
# 2 42.2209 82.8773 27.7731 0.0000 0.0000 0.0000
# 3 27.7731 27.7731 121.1012 0.0000 0.0000 0.0000
# 4 0.0000 0.0000 0.0000 13.3803 0.0000 0.0000
# 5 0.0000 0.0000 0.0000 0.0000 13.3803 0.0000
# 6 0.0000 0.0000 0.0000 0.0000 0.0000 20.3282
#
#
#
# Elastic Compliance Matrix: (Units=1/GPa)
#
#
# Indices 1 2 3 4 5 6 
#
# 1 0.016748 -0.007848 -0.002041 0.000000 0.000000 0.000000
# 2 -0.007848 0.016748 -0.002041 0.000000 0.000000 0.000000
# 3 -0.002041 -0.002041 0.009194 0.000000 0.000000 0.000000
# 4 0.000000 0.000000 0.000000 0.074737 0.000000 0.000000
# 5 0.000000 0.000000 0.000000 0.000000 0.074737 0.000000
# 6 0.000000 0.000000 0.000000 0.000000 0.000000 0.049193
#
#
# Mechanical properties :
#
#
# Convention : Reuss Voigt Hill
#
# Bulk Modulus (GPa) = 53.10855 53.59887 53.35371
# Shear Modulus (GPa) = 18.41664 22.02368 20.22016
#
# Velocity S-wave (km/s) = 3.39222 3.70957 3.55444
# Velocity P-wave (km/s) = 6.96608 7.19984 7.08393
#
# Compressibility (1/GPa) = 0.01882936
#
# Stress axis : x y z
#
# Youngs Moduli (GPa) = 59.70793 59.70793 108.76942
#
# Poissons Ratio (x) = 0.46860 0.22201
# Poissons Ratio (y) = 0.46860 0.22201
# Poissons Ratio (z) = 0.12187 0.12187
#
# Static dielectric constant tensor:
#      x y z
#    x 2.768500 0.000000 0.000000 
#    y 0.000000 2.768500 0.000000 
#    z 0.000000 0.000000 3.064190 
# 
# 
# High freq. dielectric constant tensor:
#      x y z
#    x 1.586510 0.000000 0.000000 
#    y 0.000000 1.586510 0.000000 
#    z 0.000000 0.000000 1.636810 
# 
# From -- ./inp_files/520.got.cif
#   From: 2010.03.12/outbox.cif.g09.slc.cpg/sg158_cif.got.tgz:520.got - 2010.04.03 13:59:47.
