data_PCOD8322408
_publ_section_title
;
Structure prediction by ZEFSAII (Michael W. Deem and Ramdas Pophale) SiO2 
 PCOD8322408
Probable space group: P 32 2 1
;
_chemical_formula_sum "Si O2"
_cell_formula_units_Z 24
_cell_length_a 11.419579
_cell_length_b 11.419579
_cell_length_c 10.369649
_cell_angle_alpha 90.000000
_cell_angle_beta 90.000000
_cell_angle_gamma 120.000000
_cell_volume 1171.102410
_symmetry_space_group_name_H-M "P 32 2 1"
_symmetry_group_IT_number 154
_symmetry_cell_setting 'hexagonal'
loop_
_space_group_symop_operation_xyz
x,y,z
-y,x-y,2/3+z
-x+y,-x,1/3+z
x-y,-y,1/3-z
-x,-x+y,2/3-z
y,x,-z
loop_
_atom_site_type_symbol
_atom_site_label
_atom_site_fract_x
_atom_site_fract_y
_atom_site_fract_z
Si Si1 0.000000 0.226146 0.333334
Si Si2 0.000000 0.803809 0.833334
Si Si3 0.659045 0.091125 0.975261
Si Si4 0.457051 0.716317 0.595790
Si Si5 0.798064 0.535170 0.124105
O O1 0.881307 0.244387 0.393959
O O2 0.056291 0.168234 0.441505
O O3 0.918619 0.686221 0.730038
O O4 0.740134 0.203148 0.864738
O O5 0.561802 0.945456 0.912931
O O6 0.567629 0.131532 0.063611
O O7 0.308669 0.699013 0.598979
O O8 0.542398 0.795667 0.721359
#
# Coordination Sequence:
#
# PCOD8322408 Si02
#       5
#     3   3   6   6   6
#     4  10  24  46  68  88 134 180 214 274 316 394
#     4  10  24  48  66  94 128 176 218 268 330 386
#     4  10  23  40  64  96 133 164 221 268 326 390
#     4  10  23  39  67  99 129 176 217 272 327 399
#     4  10  23  41  66  96 137 175 219 269 334 386
#
# _framework density 20.493513
#
# number of rings (size 3 to 8) (size 9 to 14) (size 15 to 20)
#    0.000    2.000    0.000    0.750   21.000    0.000 
#    9.000    0.000    0.000    0.000    0.000    0.000 
#    0.000    0.000    0.000    0.000    0.000    0.000 
#
# Total GULP energy -297592.677976 kJ/mol
# GULP energy per Si atom -12399.694916 kJ/mol
# Density = 2.044687 g / cm^3
# Si number density = 20.493513 Si / 1000 Ang^3
#
#
#
# Elastic Constant Matrix: (Units=GPa)
#
#
# Indices 1 2 3 4 5 6 
#
# 1 93.5681 48.0783 25.2436 1.3183 0.0002 0.0000
# 2 48.0783 93.5681 25.2436 -1.3183 -0.0002 0.0000
# 3 25.2436 25.2436 77.5433 0.0000 0.0000 0.0000
# 4 1.3183 -1.3183 0.0000 36.5790 0.0000 -0.0002
# 5 0.0002 -0.0002 0.0000 0.0000 36.5790 1.3183
# 6 0.0000 0.0000 0.0000 -0.0002 1.3183 22.7449
#
#
#
# Elastic Compliance Matrix: (Units=1/GPa)
#
#
# Indices 1 2 3 4 5 6 
#
# 1 0.015008 -0.007021 -0.002600 -0.000794 0.000000 0.000000
# 2 -0.007021 0.015008 -0.002600 0.000794 0.000000 0.000000
# 3 -0.002600 -0.002600 0.014589 0.000000 0.000000 0.000000
# 4 -0.000794 0.000794 0.000000 0.027395 0.000000 0.000000
# 5 0.000000 0.000000 0.000000 0.000000 0.027395 -0.001588
# 6 0.000000 0.000000 0.000000 0.000000 -0.001588 0.044058
#
#
# Mechanical properties :
#
#
# Convention : Reuss Voigt Hill
#
# Bulk Modulus (GPa) = 49.59812 51.31232 50.45522
# Shear Modulus (GPa) = 28.63430 30.25486 29.44458
#
# Velocity S-wave (km/s) = 3.74202 3.84645 3.79459
# Velocity P-wave (km/s) = 6.55169 6.69474 6.62360
#
# Compressibility (1/GPa) = 0.02016206
#
# Stress axis : x y z
#
# Youngs Moduli (GPa) = 66.63221 66.63221 68.54570
#
# Poissons Ratio (x) = 0.46784 0.17822
# Poissons Ratio (y) = 0.46784 0.17822
# Poissons Ratio (z) = 0.17324 0.17324
#
# Static dielectric constant tensor:
#      x y z
#    x 3.674200 0.000000 0.000000 
#    y 0.000000 3.674200 0.000000 
#    z 0.000000 0.000000 3.963130 
# 
# 
# High freq. dielectric constant tensor:
#      x y z
#    x 1.799720 0.000000 0.000000 
#    y 0.000000 1.799720 0.000000 
#    z 0.000000 0.000000 1.819120 
# 
# From -- ./inp_files/1613.got.cif
#   From: 2010.03.12/outbox.cif.g09.slc.cpg/sg154_1_cif.got.tgz:1613.got - 2010.04.03 13:51:21.
