data_PCOD8322548
_publ_section_title
;
Structure prediction by ZEFSAII (Michael W. Deem and Ramdas Pophale) SiO2 
 PCOD8322548
Probable space group: R 3 2
;
_chemical_formula_sum "Si O2"
_cell_formula_units_Z 144
_cell_length_a 28.518409
_cell_length_b 28.518409
_cell_length_c 9.842450
_cell_angle_alpha 90.000000
_cell_angle_beta 90.000000
_cell_angle_gamma 120.000000
_cell_volume 6932.413117
_symmetry_space_group_name_H-M "R 3 2"
_symmetry_group_IT_number 155
_symmetry_cell_setting 'hexagonal'
loop_
_space_group_symop_operation_xyz
x,y,z
-y,x-y,z
-x+y,-x,z
x-y,-y,-z
-x,-x+y,-z
y,x,-z
2/3+x,1/3+y,1/3+z
2/3-y,1/3+x-y,1/3+z
2/3-x+y,1/3-x,1/3+z
2/3+x-y,1/3-y,1/3-z
2/3-x,1/3-x+y,1/3-z
2/3+y,1/3+x,1/3-z
1/3+x,2/3+y,2/3+z
1/3-y,2/3+x-y,2/3+z
1/3-x+y,2/3-x,2/3+z
1/3+x-y,2/3-y,2/3-z
1/3-x,2/3-x+y,2/3-z
1/3+y,2/3+x,2/3-z
loop_
_atom_site_type_symbol
_atom_site_label
_atom_site_fract_x
_atom_site_fract_y
_atom_site_fract_z
Si Si1 0.716078 0.810629 0.029447
Si Si2 0.626467 0.148696 0.444892
Si Si3 0.969150 0.819711 0.625783
Si Si4 0.614235 0.490679 0.537037
Si Si5 0.191050 0.454837 0.388967
Si Si6 0.457069 0.061819 0.802288
Si Si7 0.129823 0.766753 0.705695
Si Si8 0.427833 0.391344 0.872448
O O1 0.754791 0.852923 0.143170
O O2 0.669196 0.756968 0.103374
O O3 0.751802 0.800708 0.915253
O O4 0.690617 0.841010 0.947481
O O5 0.666667 0.194250 0.333334
O O6 0.656023 0.153631 0.586310
O O7 0.571142 0.149570 0.481232
O O8 0.612974 0.092317 0.374061
O O9 0.920054 0.826857 0.680157
O O10 0.944523 0.759642 0.565640
O O11 0.000000 0.860820 0.500000
O O12 0.674010 0.503602 0.575595
O O13 0.591878 0.502209 0.675819
O O14 0.159962 0.410795 0.270653
O O15 0.413752 0.080419 0.833334
O O16 0.091297 0.757963 0.833334
O O17 0.100506 0.769191 0.573468
O O18 0.378127 0.333334 0.833334
O O19 0.413256 0.413256 0.000000
#
# Coordination Sequence:
#
# PCOD8322548 Si02
#       8
#    18  18  18  18  18  18  18  18
#     4  11  20  36  59  85 116 154 199 240 288 348
#     4  11  22  38  59  85 115 153 200 244 292 351
#     4  11  22  38  60  87 116 150 196 245 295 352
#     4  10  22  40  61  86 118 156 200 246 296 357
#     4  11  22  38  61  89 119 152 196 248 301 357
#     4  10  21  37  58  87 123 161 198 240 290 347
#     4  11  22  37  57  79 112 154 195 242 288 343
#     4  11  23  36  52  80 117 156 197 241 288 339
#
# _framework density 20.771986999999999
#
# number of rings (size 3 to 8) (size 9 to 14) (size 15 to 20)
#    0.000    1.250    0.000    8.625    0.000    2.000 
#    0.000    5.000    0.000    0.500    0.000    6.125 
#    0.000    0.000    0.000    0.000    0.000    0.000 
#
# Total GULP energy -594896.647026 kJ/mol
# GULP energy per Si atom -12393.680146 kJ/mol
# Density = 2.072471 g / cm^3
# Si number density = 20.771987 Si / 1000 Ang^3
#
#
#
# Elastic Constant Matrix: (Units=GPa)
#
#
# Indices 1 2 3 4 5 6 
#
# 1 92.0741 45.4651 47.4745 0.5039 -0.0553 -0.0008
# 2 45.4651 92.1328 47.5252 -0.5098 -0.0008 -0.0009
# 3 47.4745 47.5252 157.2308 -0.0098 -0.1111 -0.0200
# 4 0.5039 -0.5098 -0.0098 39.6168 0.0049 -0.0148
# 5 -0.0553 -0.0008 -0.1111 0.0049 39.5676 0.5012
# 6 -0.0008 -0.0009 -0.0200 -0.0148 0.5012 23.3095
#
#
#
# Elastic Compliance Matrix: (Units=1/GPa)
#
#
# Indices 1 2 3 4 5 6 
#
# 1 0.015319 -0.006131 -0.002772 -0.000274 0.000014 -0.000003
# 2 -0.006131 0.015314 -0.002778 0.000274 -0.000016 -0.000001
# 3 -0.002772 -0.002778 0.008037 0.000002 0.000019 0.000006
# 4 -0.000274 0.000274 0.000002 0.025249 -0.000004 0.000016
# 5 0.000014 -0.000016 0.000019 -0.000004 0.025280 -0.000544
# 6 -0.000003 -0.000001 0.000006 0.000016 -0.000544 0.042913
#
#
# Mechanical properties :
#
#
# Convention : Reuss Voigt Hill
#
# Bulk Modulus (GPa) = 65.32642 69.15194 67.23918
# Shear Modulus (GPa) = 31.13793 33.89696 32.51745
#
# Velocity S-wave (km/s) = 3.87594 4.04401 3.96087
# Velocity P-wave (km/s) = 7.17970 7.42756 7.30468
#
# Compressibility (1/GPa) = 0.01530774
#
# Stress axis : x y z
#
# Youngs Moduli (GPa) = 65.27744 65.30100 124.42893
#
# Poissons Ratio (x) = 0.40037 0.34496
# Poissons Ratio (y) = 0.40022 0.34561
# Poissons Ratio (z) = 0.18097 0.18138
#
# Static dielectric constant tensor:
#      x y z
#    x 3.952470 -0.000650 -0.000170 
#    y -0.000650 3.952370 -0.000090 
#    z -0.000170 -0.000090 4.161670 
# 
# 
# High freq. dielectric constant tensor:
#      x y z
#    x 1.793920 0.000000 -0.000010 
#    y 0.000000 1.793920 0.000000 
#    z -0.000010 0.000000 1.848100 
# 
# From -- ./inp_files/3072.got.cif
#   From: 2010.03.12/outbox.cif.g09.slc.cpg/sg155_2_cif.got.tgz:3072.got - 2010.04.03 13:54:13.
