data_PCOD8322853
_publ_section_title
;
Structure prediction by ZEFSAII (Michael W. Deem and Ramdas Pophale) SiO2 
 PCOD8322853
Probable space group: R 3 M
;
_chemical_formula_sum "Si O2"
_cell_formula_units_Z 126
_cell_length_a 16.737543
_cell_length_b 16.737543
_cell_length_c 33.701378
_cell_angle_alpha 90.000000
_cell_angle_beta 90.000000
_cell_angle_gamma 120.000000
_cell_volume 8176.391953
_symmetry_space_group_name_H-M "R 3 M"
_symmetry_group_IT_number 160
_symmetry_cell_setting 'hexagonal'
loop_
_space_group_symop_operation_xyz
x,y,z
-y,x-y,z
-x+y,-x,z
-x+y,y,z
x,x-y,z
-y,-x,z
2/3+x,1/3+y,1/3+z
2/3-y,1/3+x-y,1/3+z
2/3-x+y,1/3-x,1/3+z
2/3-x+y,1/3+y,1/3+z
2/3+x,1/3+x-y,1/3+z
2/3-y,1/3-x,1/3+z
1/3+x,2/3+y,2/3+z
1/3-y,2/3+x-y,2/3+z
1/3-x+y,2/3-x,2/3+z
1/3-x+y,2/3+y,2/3+z
1/3+x,2/3+x-y,2/3+z
1/3-y,2/3-x,2/3+z
loop_
_atom_site_type_symbol
_atom_site_label
_atom_site_fract_x
_atom_site_fract_y
_atom_site_fract_z
Si Si1 0.611971 0.565473 0.580732
Si Si2 0.665792 0.154180 0.270313
Si Si3 0.189929 0.999030 0.094774
Si Si4 0.906913 0.628197 0.506916
Si Si5 0.147270 0.480192 0.216654
Si Si6 0.765510 0.054405 0.015262
Si Si7 0.095655 0.372347 0.296584
O O1 0.534560 0.465440 0.596003
O O2 0.571734 0.635438 0.577934
O O3 0.642697 0.557730 0.536711
O O4 0.696544 0.603831 0.611640
O O5 0.567563 0.135126 0.253678
O O6 0.737458 0.262542 0.267654
O O7 0.658541 0.124360 0.315984
O O8 0.187123 0.093562 0.099676
O O9 0.244880 0.998763 0.055624
O O10 0.248467 0.985373 0.129603
O O11 0.085101 0.914900 0.093595
O O12 0.807584 0.615167 0.514533
O O13 0.982993 0.734070 0.517874
O O14 0.253585 0.507170 0.212321
O O15 0.137684 0.568842 0.207503
O O16 0.112920 0.445493 0.261558
O O17 0.839081 0.160920 0.022003
O O18 0.672356 0.052719 0.001668
O O19 0.190386 0.380771 0.311406
#
# Coordination Sequence:
#
# PCOD8322853 Si02
#       7
#    18  18  18  18  18  18  18
#     4   9  16  26  41  60  82 110 142 175 212 252
#     4   9  16  25  39  61  88 115 140 168 207 255
#     4  10  19  31  47  66  88 114 145 179 214 253
#     4   9  18  30  43  61  85 113 142 176 218 258
#     4   9  16  27  45  68  92 115 142 178 219 260
#     4   9  17  28  43  64  88 112 138 172 212 253
#     4   9  17  29  45  64  87 115 143 174 213 257
#
# _framework density 15.410220000000001
#
# number of rings (size 3 to 8) (size 9 to 14) (size 15 to 20)
#    0.000    2.857    0.000    3.000    0.000    4.000 
#    0.000    2.143    0.000    3.429    0.000    0.000 
#    0.000    1.143    0.000    0.286    0.000    0.000 
#
# Total GULP energy -520563.870831 kJ/mol
# GULP energy per Si atom -12394.377877 kJ/mol
# Density = 1.537515 g / cm^3
# Si number density = 15.410220 Si / 1000 Ang^3
#
#
#
# Elastic Constant Matrix: (Units=GPa)
#
#
# Indices 1 2 3 4 5 6 
#
# 1 72.4753 33.9942 35.8092 -0.7644 0.0001 0.0000
# 2 33.9942 72.4753 35.8092 0.7644 -0.0001 0.0000
# 3 35.8092 35.8092 86.0257 0.0000 0.0000 0.0000
# 4 -0.7644 0.7644 0.0000 22.1663 0.0000 -0.0001
# 5 0.0001 -0.0001 0.0000 0.0000 22.1663 -0.7644
# 6 0.0000 0.0000 0.0000 -0.0001 -0.7644 19.2405
#
#
#
# Elastic Compliance Matrix: (Units=1/GPa)
#
#
# Indices 1 2 3 4 5 6 
#
# 1 0.019534 -0.006489 -0.005430 0.000897 0.000000 0.000000
# 2 -0.006489 0.019534 -0.005430 -0.000897 0.000000 0.000000
# 3 -0.005430 -0.005430 0.016145 0.000000 0.000000 0.000000
# 4 0.000897 -0.000897 0.000000 0.045175 0.000000 0.000000
# 5 0.000000 0.000000 0.000000 0.000000 0.045175 0.001795
# 6 0.000000 0.000000 0.000000 0.000000 0.001795 0.052045
#
#
# Mechanical properties :
#
#
# Convention : Reuss Voigt Hill
#
# Bulk Modulus (GPa) = 48.74571 49.13352 48.93961
# Shear Modulus (GPa) = 20.90786 21.07221 20.99003
#
# Velocity S-wave (km/s) = 3.68741 3.70187 3.69465
# Velocity P-wave (km/s) = 7.05904 7.08694 7.07301
#
# Compressibility (1/GPa) = 0.02051463
#
# Stress axis : x y z
#
# Youngs Moduli (GPa) = 51.19347 51.19347 61.93809
#
# Poissons Ratio (x) = 0.33218 0.33633
# Poissons Ratio (y) = 0.33218 0.33633
# Poissons Ratio (z) = 0.27799 0.27799
#
# Static dielectric constant tensor:
#      x y z
#    x 2.981850 0.000000 0.000000 
#    y 0.000000 2.981850 0.000000 
#    z 0.000000 0.000000 2.858470 
# 
# 
# High freq. dielectric constant tensor:
#      x y z
#    x 1.589610 0.000000 0.000000 
#    y 0.000000 1.589610 0.000000 
#    z 0.000000 0.000000 1.566660 
# 
# From -- ./inp_files/4166.got.cif
#   From: 2010.03.12/outbox.cif.g09.slc.cpg/sg160_3_cif.got.tgz:4166.got - 2010.04.02 06:26:15.
