data_PCOD8322147
_publ_section_title
;
Structure prediction by ZEFSAII (Michael W. Deem and Ramdas Pophale) SiO2 
 PCOD8322147
Probable space group: P 31 2 1
;
_chemical_formula_sum "Si O2"
_cell_formula_units_Z 39
_cell_length_a 8.750522
_cell_length_b 8.750522
_cell_length_c 27.946255
_cell_angle_alpha 90.000000
_cell_angle_beta 90.000000
_cell_angle_gamma 120.000000
_cell_volume 1853.199487
_symmetry_space_group_name_H-M "P 31 2 1"
_symmetry_group_IT_number 152
_symmetry_cell_setting 'hexagonal'
loop_
_space_group_symop_operation_xyz
x,y,z
-y,x-y,1/3+z
-x+y,-x,2/3+z
x-y,-y,2/3-z
-x,-x+y,1/3-z
y,x,-z
loop_
_atom_site_type_symbol
_atom_site_label
_atom_site_fract_x
_atom_site_fract_y
_atom_site_fract_z
Si Si1 0.110546 0.776731 0.862805
Si Si2 0.486196 0.288362 0.998532
Si Si3 0.351097 0.196965 0.341501
Si Si4 0.000000 0.949568 0.166667
Si Si5 0.236284 0.348399 0.425930
Si Si6 0.678954 0.565231 0.562440
Si Si7 0.503177 0.508996 0.270935
O O1 0.168513 0.767128 0.808490
O O2 0.036357 0.582056 0.884567
O O3 0.270732 0.915316 0.896118
O O4 0.972419 0.848018 0.859690
O O5 0.474936 0.194823 0.948506
O O6 0.318083 0.318083 0.000000
O O7 0.661152 0.471517 0.006640
O O8 0.485514 0.170888 0.042375
O O9 0.318423 0.261606 0.391660
O O10 0.370613 0.337620 0.301686
O O11 0.185329 0.000000 0.333334
O O12 0.894469 0.796828 0.205102
O O13 0.396468 0.500156 0.456006
O O14 0.149930 0.445198 0.396452
#
# Coordination Sequence:
#
# PCOD8322147 Si02
#       7
#     6   6   6   3   6   6   6
#     4  10  25  43  68  90 137 173 223 281 333 402
#     4  11  25  42  67  98 136 173 231 278 340 410
#     4  11  23  43  65  96 132 174 216 278 335 398
#     4  10  24  46  64 102 132 182 230 270 342 408
#     4  12  24  41  67  95 132 175 220 272 338 402
#     4  10  21  45  64  92 131 178 217 271 344 397
#     4  12  24  42  67 103 128 175 226 279 337 403
#
# _framework density 21.044682999999999
#
# number of rings (size 3 to 8) (size 9 to 14) (size 15 to 20)
#    0.000    1.231    3.077    2.769    6.462    1.846 
#    5.538    0.000    0.000    0.000    0.000    0.000 
#    0.000    0.000    0.000    0.000    0.000    0.000 
#
# Total GULP energy -483501.195504 kJ/mol
# GULP energy per Si atom -12397.466551 kJ/mol
# Density = 2.099678 g / cm^3
# Si number density = 21.044683 Si / 1000 Ang^3
#
#
#
# Elastic Constant Matrix: (Units=GPa)
#
#
# Indices 1 2 3 4 5 6 
#
# 1 80.1489 9.4722 17.3474 5.4548 0.0000 0.0000
# 2 9.4722 80.1489 17.3474 -5.4548 0.0000 0.0000
# 3 17.3474 17.3474 69.7777 0.0000 0.0000 0.0000
# 4 5.4548 -5.4548 0.0000 35.4821 0.0000 0.0000
# 5 0.0000 0.0000 0.0000 0.0000 35.4821 5.4548
# 6 0.0000 0.0000 0.0000 0.0000 5.4548 35.3383
#
#
#
# Elastic Compliance Matrix: (Units=1/GPa)
#
#
# Indices 1 2 3 4 5 6 
#
# 1 0.013420 -0.001073 -0.003069 -0.002228 0.000000 0.000000
# 2 -0.001073 0.013420 -0.003069 0.002228 0.000000 0.000000
# 3 -0.003069 -0.003069 0.015857 0.000000 0.000000 0.000000
# 4 -0.002228 0.002228 0.000000 0.028868 0.000000 0.000000
# 5 0.000000 0.000000 0.000000 0.000000 0.028868 -0.004456
# 6 0.000000 0.000000 0.000000 0.000000 -0.004456 0.028986
#
#
# Mechanical properties :
#
#
# Convention : Reuss Voigt Hill
#
# Bulk Modulus (GPa) = 35.37017 35.37883 35.37450
# Shear Modulus (GPa) = 32.62279 33.65443 33.13861
#
# Velocity S-wave (km/s) = 3.94149 4.00332 3.97253
# Velocity P-wave (km/s) = 6.12841 6.18196 6.15524
#
# Compressibility (1/GPa) = 0.02827241
#
# Stress axis : x y z
#
# Youngs Moduli (GPa) = 74.51793 74.51793 63.06209
#
# Poissons Ratio (x) = 0.07998 0.19356
# Poissons Ratio (y) = 0.07998 0.19356
# Poissons Ratio (z) = 0.22873 0.22873
#
# Static dielectric constant tensor:
#      x y z
#    x 4.020930 0.000000 0.000000 
#    y 0.000000 4.020930 0.000000 
#    z 0.000000 0.000000 3.703830 
# 
# 
# High freq. dielectric constant tensor:
#      x y z
#    x 1.833370 0.000000 0.000000 
#    y 0.000000 1.833370 0.000000 
#    z 0.000000 0.000000 1.819090 
# 
# From -- ./inp_files/3633.got.cif
#   From: 2010.03.12/outbox.cif.g09.slc.cpg/sg152_2_cif.got.tgz:3633.got - 2010.04.03 13:45:27.
