data_PCOD8322550
_publ_section_title
;
Structure prediction by ZEFSAII (Michael W. Deem and Ramdas Pophale) SiO2 
 PCOD8322550
Probable space group: R 3 2
;
_chemical_formula_sum "Si O2"
_cell_formula_units_Z 63
_cell_length_a 21.697133
_cell_length_b 21.697133
_cell_length_c 7.728086
_cell_angle_alpha 90.000000
_cell_angle_beta 90.000000
_cell_angle_gamma 120.000000
_cell_volume 3150.701650
_symmetry_space_group_name_H-M "R 3 2"
_symmetry_group_IT_number 155
_symmetry_cell_setting 'hexagonal'
loop_
_space_group_symop_operation_xyz
x,y,z
-y,x-y,z
-x+y,-x,z
x-y,-y,-z
-x,-x+y,-z
y,x,-z
2/3+x,1/3+y,1/3+z
2/3-y,1/3+x-y,1/3+z
2/3-x+y,1/3-x,1/3+z
2/3+x-y,1/3-y,1/3-z
2/3-x,1/3-x+y,1/3-z
2/3+y,1/3+x,1/3-z
1/3+x,2/3+y,2/3+z
1/3-y,2/3+x-y,2/3+z
1/3-x+y,2/3-x,2/3+z
1/3+x-y,2/3-y,2/3-z
1/3-x,2/3-x+y,2/3-z
1/3+y,2/3+x,2/3-z
loop_
_atom_site_type_symbol
_atom_site_label
_atom_site_fract_x
_atom_site_fract_y
_atom_site_fract_z
Si Si1 0.403182 0.877669 0.578865
Si Si2 0.377423 0.000000 0.500000
Si Si3 0.478688 0.368390 0.655632
Si Si4 0.227397 0.367270 0.509022
O O1 0.333334 0.810619 0.666667
O O2 0.382248 0.928738 0.475938
O O3 0.445799 0.853902 0.447113
O O4 0.450259 0.922323 0.740483
O O5 0.333334 0.997137 0.666667
O O6 0.419867 0.310340 0.529515
O O7 0.448895 0.421291 0.693935
O O8 0.487457 0.333334 0.833334
O O9 0.184147 0.333334 0.333334
#
# Coordination Sequence:
#
# PCOD8322550 Si02
#       4
#    18   9  18  18
#     4  11  22  38  57  87 129 168 207 251 312 375
#     4  10  22  40  60  86 130 174 212 254 304 374
#     4  10  21  38  60  93 126 159 203 255 320 381
#     4  10  21  37  63  93 125 161 203 259 316 382
#
# _framework density 19.995547999999999
#
# number of rings (size 3 to 8) (size 9 to 14) (size 15 to 20)
#    0.000    1.714    2.857    0.857    0.000   18.286 
#    0.000    0.000    0.000    4.571    0.000    0.000 
#    0.000    0.000    0.000    0.000    0.000    0.000 
#
# Total GULP energy -260357.078668 kJ/mol
# GULP energy per Si atom -12397.956127 kJ/mol
# Density = 1.995004 g / cm^3
# Si number density = 19.995548 Si / 1000 Ang^3
#
#
#
# Elastic Constant Matrix: (Units=GPa)
#
#
# Indices 1 2 3 4 5 6 
#
# 1 105.1072 44.6021 62.0584 -4.3579 -0.0265 0.0103
# 2 44.6021 105.1179 62.1275 4.3551 0.0026 -0.0083
# 3 62.0584 62.1275 132.1741 -0.0168 -0.1451 0.0231
# 4 -4.3579 4.3551 -0.0168 33.7068 -0.0198 -0.0211
# 5 -0.0265 0.0026 -0.1451 -0.0198 33.6763 -4.3358
# 6 0.0103 -0.0083 0.0231 -0.0211 -4.3358 30.2460
#
#
#
# Elastic Compliance Matrix: (Units=1/GPa)
#
#
# Indices 1 2 3 4 5 6 
#
# 1 0.013886 -0.002948 -0.005134 0.002174 -0.000010 -0.000002
# 2 -0.002948 0.013897 -0.005149 -0.002179 -0.000026 0.000003
# 3 -0.005134 -0.005149 0.012396 0.000008 0.000050 -0.000002
# 4 0.002174 -0.002179 0.000008 0.030230 0.000023 0.000023
# 5 -0.000010 -0.000026 0.000050 0.000023 0.030253 0.004337
# 6 -0.000002 0.000003 -0.000002 0.000023 0.004337 0.033684
#
#
# Mechanical properties :
#
#
# Convention : Reuss Voigt Hill
#
# Bulk Modulus (GPa) = 72.89064 75.55280 74.22172
# Shear Modulus (GPa) = 30.23325 31.09991 30.66658
#
# Velocity S-wave (km/s) = 3.89266 3.94806 3.92046
# Velocity P-wave (km/s) = 7.53235 7.65831 7.59559
#
# Compressibility (1/GPa) = 0.01371918
#
# Stress axis : x y z
#
# Youngs Moduli (GPa) = 72.01277 71.95757 80.66837
#
# Poissons Ratio (x) = 0.21211 0.41416
# Poissons Ratio (y) = 0.21228 0.41532
# Poissons Ratio (z) = 0.36972 0.37047
#
# Static dielectric constant tensor:
#      x y z
#    x 3.574680 0.000000 0.004630 
#    y 0.000000 3.574770 -0.000600 
#    z 0.004630 -0.000600 1.711000 
# 
# 
# High freq. dielectric constant tensor:
#      x y z
#    x 1.760470 0.000000 -0.000010 
#    y 0.000000 1.760470 0.000000 
#    z -0.000010 0.000000 1.798970 
# 
# From -- ./inp_files/1975.got.cif
#   From: 2010.03.12/outbox.cif.g09.slc.cpg/sg155_1_cif.got.tgz:1975.got - 2010.04.03 13:54:13.
