data_PCOD8322577
_publ_section_title
;
Structure prediction by ZEFSAII (Michael W. Deem and Ramdas Pophale) SiO2 
 PCOD8322577
Probable space group: R 3 2
;
_chemical_formula_sum "Si O2"
_cell_formula_units_Z 144
_cell_length_a 29.962845
_cell_length_b 29.962845
_cell_length_c 9.689920
_cell_angle_alpha 90.000000
_cell_angle_beta 90.000000
_cell_angle_gamma 120.000000
_cell_volume 7533.849123
_symmetry_space_group_name_H-M "R 3 2"
_symmetry_group_IT_number 155
_symmetry_cell_setting 'hexagonal'
loop_
_space_group_symop_operation_xyz
x,y,z
-y,x-y,z
-x+y,-x,z
x-y,-y,-z
-x,-x+y,-z
y,x,-z
2/3+x,1/3+y,1/3+z
2/3-y,1/3+x-y,1/3+z
2/3-x+y,1/3-x,1/3+z
2/3+x-y,1/3-y,1/3-z
2/3-x,1/3-x+y,1/3-z
2/3+y,1/3+x,1/3-z
1/3+x,2/3+y,2/3+z
1/3-y,2/3+x-y,2/3+z
1/3-x+y,2/3-x,2/3+z
1/3+x-y,2/3-y,2/3-z
1/3-x,2/3-x+y,2/3-z
1/3+y,2/3+x,2/3-z
loop_
_atom_site_type_symbol
_atom_site_label
_atom_site_fract_x
_atom_site_fract_y
_atom_site_fract_z
Si Si1 0.534550 0.803120 0.536586
Si Si2 0.798586 0.946389 0.815063
Si Si3 0.564025 0.970954 0.876206
Si Si4 0.569812 0.597777 0.370535
Si Si5 0.090445 0.374883 0.443548
Si Si6 0.065861 0.202160 0.627844
Si Si7 0.857449 0.806428 0.688694
Si Si8 0.042417 0.749505 0.717711
O O1 0.502290 0.828633 0.479873
O O2 0.531244 0.791932 0.699134
O O3 0.595164 0.842164 0.513680
O O4 0.509862 0.749285 0.454936
O O5 0.814336 0.916883 0.705009
O O6 0.741622 0.933662 0.770902
O O7 0.591940 0.944368 0.957729
O O8 0.598551 0.010932 0.757224
O O9 0.552621 0.000000 0.000000
O O10 0.560514 0.560514 0.500000
O O11 0.606611 0.656296 0.416451
O O12 0.600304 0.584130 0.258906
O O13 0.514530 0.587483 0.322318
O O14 0.084184 0.333334 0.333334
O O15 0.147577 0.421440 0.426062
O O16 0.073514 0.200423 0.464887
O O17 0.009196 0.161099 0.681942
O O18 0.050997 0.717664 0.833334
#
# Coordination Sequence:
#
# PCOD8322577 Si02
#       8
#    18  18  18  18  18  18  18  18
#     4  10  23  42  60  86 116 150 188 240 293 351
#     4  10  23  41  62  85 116 148 190 238 296 350
#     4  11  22  34  54  83 117 162 209 242 283 325
#     4  11  22  34  54  83 117 162 209 242 283 325
#     4  11  20  36  54  80 118 162 202 247 281 324
#     4  10  23  42  60  86 116 150 188 240 293 351
#     4  10  23  41  62  85 116 148 190 238 296 350
#     4  11  20  36  54  80 118 162 202 247 281 324
#
# _framework density 19.113735999999999
#
# number of rings (size 3 to 8) (size 9 to 14) (size 15 to 20)
#    0.000    1.500    2.500    3.000    3.500    3.000 
#    0.000    0.000    0.000    0.500    0.000    0.000 
#    0.000    0.000    0.000    0.000    0.000    0.000 
#
# Total GULP energy -595061.285249 kJ/mol
# GULP energy per Si atom -12397.110109 kJ/mol
# Density = 1.907023 g / cm^3
# Si number density = 19.113736 Si / 1000 Ang^3
#
#
#
# Elastic Constant Matrix: (Units=GPa)
#
#
# Indices 1 2 3 4 5 6 
#
# 1 65.0007 36.0482 43.7873 -1.2122 -0.0225 -0.0095
# 2 36.0482 64.9311 43.8467 1.1666 0.0553 -0.0211
# 3 43.7873 43.8467 125.0208 -0.0487 0.0518 -0.0261
# 4 -1.2122 1.1666 -0.0487 32.2928 0.0047 0.0591
# 5 -0.0225 0.0553 0.0518 0.0047 32.1693 -1.0532
# 6 -0.0095 -0.0211 -0.0261 0.0591 -1.0532 14.3418
#
#
#
# Elastic Compliance Matrix: (Units=1/GPa)
#
#
# Indices 1 2 3 4 5 6 
#
# 1 0.024428 -0.010231 -0.004967 0.001279 0.000042 -0.000010
# 2 -0.010231 0.024483 -0.005004 -0.001276 -0.000040 0.000022
# 3 -0.004967 -0.005004 0.011493 0.000012 -0.000013 0.000009
# 4 0.001279 -0.001276 0.000012 0.031061 -0.000006 -0.000129
# 5 0.000042 -0.000040 -0.000013 -0.000006 0.031161 0.002288
# 6 -0.000010 0.000022 0.000009 -0.000129 0.002288 0.069895
#
#
# Mechanical properties :
#
#
# Convention : Reuss Voigt Hill
#
# Bulk Modulus (GPa) = 49.99777 55.81299 52.90538
# Shear Modulus (GPa) = 20.86891 24.51214 22.69053
#
# Velocity S-wave (km/s) = 3.30787 3.58500 3.44922
# Velocity P-wave (km/s) = 6.38781 6.81176 6.60319
#
# Compressibility (1/GPa) = 0.02000089
#
# Stress axis : x y z
#
# Youngs Moduli (GPa) = 40.93627 40.84518 87.00755
#
# Poissons Ratio (x) = 0.41788 0.43218
# Poissons Ratio (y) = 0.41881 0.43536
# Poissons Ratio (z) = 0.20334 0.20438
#
# Static dielectric constant tensor:
#      x y z
#    x 3.370390 -0.000050 -0.001290 
#    y -0.000050 3.372790 0.001710 
#    z -0.001290 0.001710 3.958980 
# 
# 
# High freq. dielectric constant tensor:
#      x y z
#    x 1.728910 0.000000 -0.000030 
#    y 0.000000 1.728920 0.000000 
#    z -0.000030 0.000000 1.762280 
# 
# From -- ./inp_files/3063.got.cif
#   From: 2010.03.12/outbox.cif.g09.slc.cpg/sg155_2_cif.got.tgz:3063.got - 2010.04.03 13:54:13.
