data_PCOD8322103
_publ_section_title
;
Structure prediction by ZEFSAII (Michael W. Deem and Ramdas Pophale) SiO2 
 PCOD8322103
Probable space group: P 31 2 1
;
_chemical_formula_sum "Si O2"
_cell_formula_units_Z 36
_cell_length_a 8.635996
_cell_length_b 8.635996
_cell_length_c 26.510008
_cell_angle_alpha 90.000000
_cell_angle_beta 90.000000
_cell_angle_gamma 120.000000
_cell_volume 1712.242827
_symmetry_space_group_name_H-M "P 31 2 1"
_symmetry_group_IT_number 152
_symmetry_cell_setting 'hexagonal'
loop_
_space_group_symop_operation_xyz
x,y,z
-y,x-y,1/3+z
-x+y,-x,2/3+z
x-y,-y,2/3-z
-x,-x+y,1/3-z
y,x,-z
loop_
_atom_site_type_symbol
_atom_site_label
_atom_site_fract_x
_atom_site_fract_y
_atom_site_fract_z
Si Si1 0.947518 0.358810 0.223011
Si Si2 0.763518 0.105665 0.928648
Si Si3 0.984222 0.466463 0.891992
Si Si4 0.609812 0.448989 0.878803
Si Si5 0.119812 0.393918 0.618046
Si Si6 0.749855 0.496974 0.369764
O O1 0.960208 0.550366 0.226822
O O2 0.743308 0.206376 0.234857
O O3 0.000000 0.332052 0.166667
O O4 0.082241 0.354531 0.264716
O O5 0.932294 0.257843 0.897659
O O6 0.772473 0.927203 0.941049
O O7 0.756365 0.205929 0.978792
O O8 0.808833 0.483803 0.885093
O O9 0.123877 0.553619 0.846949
O O10 0.081580 0.569042 0.942654
O O11 0.583449 0.602200 0.904010
O O12 0.305316 0.572635 0.627662
O O13 0.000000 0.353198 0.666667
#
# Coordination Sequence:
#
# PCOD8322103 Si02
#       6
#     6   6   6   6   6   6
#     4  10  20  39  64  92 124 175 217 257 322 400
#     4  10  23  37  65  89 128 169 212 260 317 402
#     4  11  22  40  62  93 127 165 220 264 324 390
#     4  11  23  39  63  94 126 168 217 271 322 392
#     4  11  23  41  63  92 127 167 213 268 328 387
#     4  11  21  42  67  94 124 173 218 265 330 394
#
# _framework density 21.025054999999998
#
# number of rings (size 3 to 8) (size 9 to 14) (size 15 to 20)
#    0.000    1.333    1.667    6.000    7.000    0.000 
#    0.000    9.167    0.000    0.000    0.000    0.000 
#    0.000    0.000    0.000    0.000    0.000    0.000 
#
# Total GULP energy -446363.398150 kJ/mol
# GULP energy per Si atom -12398.983282 kJ/mol
# Density = 2.097720 g / cm^3
# Si number density = 21.025055 Si / 1000 Ang^3
#
#
#
# Elastic Constant Matrix: (Units=GPa)
#
#
# Indices 1 2 3 4 5 6 
#
# 1 101.7989 33.6041 15.2838 6.7549 0.0003 0.0000
# 2 33.6041 101.7989 15.2838 -6.7549 -0.0003 0.0000
# 3 15.2838 15.2838 59.3601 0.0000 0.0000 0.0000
# 4 6.7549 -6.7549 0.0000 36.9189 0.0000 -0.0003
# 5 0.0003 -0.0003 0.0000 0.0000 36.9189 6.7549
# 6 0.0000 0.0000 0.0000 -0.0003 6.7549 34.0974
#
#
#
# Elastic Compliance Matrix: (Units=1/GPa)
#
#
# Indices 1 2 3 4 5 6 
#
# 1 0.011528 -0.003687 -0.002019 -0.002784 0.000000 0.000000
# 2 -0.003687 0.011528 -0.002019 0.002784 0.000000 0.000000
# 3 -0.002019 -0.002019 0.017886 0.000000 0.000000 0.000000
# 4 -0.002784 0.002784 0.000000 0.028105 0.000000 0.000000
# 5 0.000000 0.000000 0.000000 0.000000 0.028105 -0.005568
# 6 0.000000 0.000000 0.000000 0.000000 -0.005568 0.030431
#
#
# Mechanical properties :
#
#
# Convention : Reuss Voigt Hill
#
# Bulk Modulus (GPa) = 39.22701 43.47791 41.35246
# Shear Modulus (GPa) = 32.99660 34.83948 33.91804
#
# Velocity S-wave (km/s) = 3.96586 4.07510 4.02085
# Velocity P-wave (km/s) = 6.29829 6.54721 6.42395
#
# Compressibility (1/GPa) = 0.02549264
#
# Stress axis : x y z
#
# Youngs Moduli (GPa) = 86.74343 86.74343 55.90974
#
# Poissons Ratio (x) = 0.31983 0.11288
# Poissons Ratio (y) = 0.31983 0.11288
# Poissons Ratio (z) = 0.17513 0.17513
#
# Static dielectric constant tensor:
#      x y z
#    x 3.935010 0.000000 0.000000 
#    y 0.000000 3.935010 0.000000 
#    z 0.000000 0.000000 3.870490 
# 
# 
# High freq. dielectric constant tensor:
#      x y z
#    x 1.816280 0.000000 0.000000 
#    y 0.000000 1.816280 0.000000 
#    z 0.000000 0.000000 1.837630 
# 
# From -- ./inp_files/3363.got.cif
#   From: 2010.03.12/outbox.cif.g09.slc.cpg/sg152_2_cif.got.tgz:3363.got - 2010.04.03 13:45:27.
