data_PCOD8322149
_publ_section_title
;
Structure prediction by ZEFSAII (Michael W. Deem and Ramdas Pophale) SiO2 
 PCOD8322149
Probable space group: P 31 2 1
;
_chemical_formula_sum "Si O2"
_cell_formula_units_Z 42
_cell_length_a 9.213180
_cell_length_b 9.213180
_cell_length_c 29.924647
_cell_angle_alpha 90.000000
_cell_angle_beta 90.000000
_cell_angle_gamma 120.000000
_cell_volume 2199.777624
_symmetry_space_group_name_H-M "P 31 2 1"
_symmetry_group_IT_number 152
_symmetry_cell_setting 'hexagonal'
loop_
_space_group_symop_operation_xyz
x,y,z
-y,x-y,1/3+z
-x+y,-x,2/3+z
x-y,-y,2/3-z
-x,-x+y,1/3-z
y,x,-z
loop_
_atom_site_type_symbol
_atom_site_label
_atom_site_fract_x
_atom_site_fract_y
_atom_site_fract_z
Si Si1 0.593091 0.190043 0.668317
Si Si2 0.263743 0.331951 0.896851
Si Si3 0.954487 0.975744 0.882805
Si Si4 0.109924 0.286492 0.626899
Si Si5 0.629198 0.922883 0.128134
Si Si6 0.577545 0.458633 0.725056
Si Si7 0.610578 0.464051 0.930379
O O1 0.701377 0.118128 0.692188
O O2 0.525097 0.278147 0.702434
O O3 0.710555 0.334763 0.633866
O O4 0.447085 0.029273 0.642340
O O5 0.320594 0.406061 0.847246
O O6 0.217021 0.448299 0.926086
O O7 0.421981 0.329234 0.917979
O O8 0.117563 0.142393 0.898043
O O9 0.897568 0.000000 0.833334
O O10 0.808589 0.938199 0.917823
O O11 0.994467 0.824926 0.882381
O O12 0.000000 0.155598 0.666667
O O13 0.016775 0.389087 0.615316
O O14 0.576679 0.042169 0.102541
O O15 0.516639 0.732623 0.112023
#
# Coordination Sequence:
#
# PCOD8322149 Si02
#       7
#     6   6   6   6   6   6   6
#     4  10  22  37  54  81 122 149 186 236 293 349
#     4  11  20  35  61  88 109 144 201 242 281 342
#     4   9  20  36  58  84 113 146 195 239 281 344
#     4   9  17  36  57  76 108 155 188 222 286 349
#     4   9  20  39  58  80 115 154 188 237 291 346
#     4  11  23  37  58  87 116 152 190 241 295 345
#     4   9  18  36  57  79 109 152 190 229 279 347
#
# _framework density 19.092839999999999
#
# number of rings (size 3 to 8) (size 9 to 14) (size 15 to 20)
#    0.000    2.286    1.429    1.714    2.000    1.143 
#    2.571    0.000    0.000    0.857    0.000    0.000 
#    0.000    0.000    0.000    0.000    0.000    0.000 
#
# Total GULP energy -520740.620220 kJ/mol
# GULP energy per Si atom -12398.586196 kJ/mol
# Density = 1.904938 g / cm^3
# Si number density = 19.092840 Si / 1000 Ang^3
#
#
#
# Elastic Constant Matrix: (Units=GPa)
#
#
# Indices 1 2 3 4 5 6 
#
# 1 75.4653 36.2601 42.7755 5.0661 -0.0002 0.0000
# 2 36.2601 75.4653 42.7755 -5.0661 0.0002 0.0000
# 3 42.7755 42.7755 105.2208 0.0000 0.0000 0.0000
# 4 5.0661 -5.0661 0.0000 28.2599 0.0000 0.0002
# 5 -0.0002 0.0002 0.0000 0.0000 28.2599 5.0661
# 6 0.0000 0.0000 0.0000 0.0002 5.0661 19.6026
#
#
#
# Elastic Compliance Matrix: (Units=1/GPa)
#
#
# Indices 1 2 3 4 5 6 
#
# 1 0.019871 -0.006875 -0.005283 -0.004795 0.000000 0.000000
# 2 -0.006875 0.019871 -0.005283 0.004795 0.000000 0.000000
# 3 -0.005283 -0.005283 0.013800 0.000000 0.000000 0.000000
# 4 -0.004795 0.004795 0.000000 0.037105 0.000000 0.000000
# 5 0.000000 0.000000 0.000000 0.000000 0.037105 -0.009589
# 6 0.000000 0.000000 0.000000 0.000000 -0.009589 0.053492
#
#
# Mechanical properties :
#
#
# Convention : Reuss Voigt Hill
#
# Bulk Modulus (GPa) = 53.59513 55.53040 54.56277
# Shear Modulus (GPa) = 22.48746 24.18048 23.33397
#
# Velocity S-wave (km/s) = 3.43563 3.56261 3.49969
# Velocity P-wave (km/s) = 6.62343 6.78752 6.70598
#
# Compressibility (1/GPa) = 0.01865841
#
# Stress axis : x y z
#
# Youngs Moduli (GPa) = 50.32445 50.32445 72.46639
#
# Poissons Ratio (x) = 0.34598 0.38286
# Poissons Ratio (y) = 0.34598 0.38286
# Poissons Ratio (z) = 0.26588 0.26588
#
# Static dielectric constant tensor:
#      x y z
#    x 3.301380 0.000000 0.000000 
#    y 0.000000 3.301380 0.000000 
#    z 0.000000 0.000000 3.753890 
# 
# 
# High freq. dielectric constant tensor:
#      x y z
#    x 1.729830 0.000000 0.000000 
#    y 0.000000 1.729830 0.000000 
#    z 0.000000 0.000000 1.757250 
# 
# From -- ./inp_files/3705.got.cif
#   From: 2010.03.12/outbox.cif.g09.slc.cpg/sg152_2_cif.got.tgz:3705.got - 2010.04.03 13:45:27.
