data_PCOD8322931
_publ_section_title
;
Structure prediction by ZEFSAII (Michael W. Deem and Ramdas Pophale) SiO2 
 PCOD8322931
Probable space group: P -3 1 M 
;
_chemical_formula_sum "Si O2"
_cell_formula_units_Z 84
_cell_length_a 20.338000
_cell_length_b 20.338000
_cell_length_c 18.206312
_cell_angle_alpha 90.000000
_cell_angle_beta 90.000000
_cell_angle_gamma 120.000000
_cell_volume 6521.824360
_symmetry_space_group_name_H-M "P -3 1 M "
_symmetry_group_IT_number 162
_symmetry_cell_setting 'hexagonal'
loop_
_space_group_symop_operation_xyz
x,y,z
-y,x-y,z
-x+y,-x,z
-y,-x,-z
-x+y,y,-z
x,x-y,-z
-x,-y,-z
y,-x+y,-z
x-y,x,-z
y,x,z
x-y,-y,z
-x,-x+y,z
loop_
_atom_site_type_symbol
_atom_site_label
_atom_site_fract_x
_atom_site_fract_y
_atom_site_fract_z
Si Si1 0.667619 0.488712 0.218433
Si Si2 0.488711 0.667619 0.781567
Si Si3 0.464403 0.084972 0.918696
Si Si4 0.084972 0.464403 0.081304
Si Si5 0.914797 0.535449 0.641130
Si Si6 0.464551 0.085203 0.641130
Si Si7 0.332876 0.510727 0.500000
O O1 0.593488 0.406512 0.218033
O O2 0.738339 0.476678 0.228384
O O3 0.676378 0.534264 0.142904
O O4 0.665607 0.539450 0.285042
O O5 0.534264 0.676378 0.857096
O O6 0.539450 0.665607 0.714958
O O7 0.541444 0.082888 0.914028
O O8 0.394904 0.000000 0.903786
O O9 0.456027 0.112686 1.000000
O O10 0.000000 0.394904 0.096214
O O11 0.918909 0.459455 0.639885
O O12 0.868005 0.537333 0.570998
O O13 0.000000 0.607369 0.638743
O O14 0.462667 0.131994 0.570997
O O15 0.392631 0.000000 0.638743
O O16 0.406241 0.593760 0.500000
O O17 0.260717 0.521433 0.500000
#
# Coordination Sequence:
#
# PCOD8322931 Si02
#       7
#    12  12  12  12  12  12  12
#     4  10  18  26  36  51  71  91 111 140 182 225
#     4  10  18  26  36  51  71  91 111 140 182 225
#     4   8  14  25  39  51  63  84 115 145 171 205
#     4   8  14  25  39  51  63  84 115 145 171 205
#     4   9  17  28  40  51  64  87 118 145 167 199
#     4   9  17  28  40  51  64  87 118 145 167 199
#     4  10  18  27  39  55  74  91 108 136 179 224
#
# _framework density 12.879832
#
# number of rings (size 3 to 8) (size 9 to 14) (size 15 to 20)
#    0.000    2.857    0.000    3.429    0.000    5.714 
#    0.000    2.857    0.000    1.714    0.000    0.000 
#    0.000    0.000    0.000    0.000    0.000    0.000 
#
# Total GULP energy -1041240.368408 kJ/mol
# GULP energy per Si atom -12395.718672 kJ/mol
# Density = 1.285052 g / cm^3
# Si number density = 12.879832 Si / 1000 Ang^3
#
#
#
# Elastic Constant Matrix: (Units=GPa)
#
#
# Indices 1 2 3 4 5 6 
#
# 1 45.7020 24.6723 38.4128 0.0000 0.0001 0.0000
# 2 24.6723 45.7020 38.4128 0.0000 -0.0001 0.0000
# 3 38.4128 38.4128 124.2651 0.0000 0.0000 0.0000
# 4 0.0000 0.0000 0.0000 15.1806 0.0000 -0.0001
# 5 0.0001 -0.0001 0.0000 0.0000 15.1806 0.0000
# 6 0.0000 0.0000 0.0000 -0.0001 0.0000 10.5148
#
#
#
# Elastic Compliance Matrix: (Units=1/GPa)
#
#
# Indices 1 2 3 4 5 6 
#
# 1 0.034500 -0.013052 -0.006630 0.000000 0.000000 0.000000
# 2 -0.013052 0.034500 -0.006630 0.000000 0.000000 0.000000
# 3 -0.006630 -0.006630 0.012146 0.000000 0.000000 0.000000
# 4 0.000000 0.000000 0.000000 0.065873 0.000000 0.000000
# 5 0.000000 0.000000 0.000000 0.000000 0.065873 0.000000
# 6 0.000000 0.000000 0.000000 0.000000 0.000000 0.095104
#
#
# Mechanical properties :
#
#
# Convention : Reuss Voigt Hill
#
# Bulk Modulus (GPa) = 35.06121 46.51834 40.78977
# Shear Modulus (GPa) = 13.50888 15.78662 14.64775
#
# Velocity S-wave (km/s) = 3.24209 3.50478 3.37599
# Velocity P-wave (km/s) = 6.42618 7.25076 6.85089
#
# Compressibility (1/GPa) = 0.02852155
#
# Stress axis : x y z
#
# Youngs Moduli (GPa) = 28.98585 28.98585 82.33086
#
# Poissons Ratio (x) = 0.37833 0.54584
# Poissons Ratio (y) = 0.37833 0.54584
# Poissons Ratio (z) = 0.19217 0.19217
#
# Static dielectric constant tensor:
#      x y z
#    x 2.368470 0.000000 0.000000 
#    y 0.000000 2.368470 0.000000 
#    z 0.000000 0.000000 2.991320 
# 
# 
# High freq. dielectric constant tensor:
#      x y z
#    x 1.450300 0.000000 0.000000 
#    y 0.000000 1.450300 0.000000 
#    z 0.000000 0.000000 1.515680 
# 
# From -- ./inp_files/3865.got.cif
#   From: 2010.03.12/outbox.cif.g09.slc.cpg/sg162_2_cif.got.tgz:3865.got - 2010.04.02 06:27:41.
