data_PCOD8322004
_publ_section_title
;
Structure prediction by ZEFSAII (Michael W. Deem and Ramdas Pophale) SiO2 
 PCOD8322004
Probable space group: P 31 1 2
;
_chemical_formula_sum "Si O2"
_cell_formula_units_Z 24
_cell_length_a 7.884562
_cell_length_b 7.884562
_cell_length_c 20.004202
_cell_angle_alpha 90.000000
_cell_angle_beta 90.000000
_cell_angle_gamma 120.000000
_cell_volume 1076.978437
_symmetry_space_group_name_H-M "P 31 1 2"
_symmetry_group_IT_number 151
_symmetry_cell_setting 'hexagonal'
loop_
_space_group_symop_operation_xyz
x,y,z
-y,x-y,1/3+z
-x+y,-x,2/3+z
-y,-x,2/3-z
-x+y,y,1/3-z
x,x-y,-z
loop_
_atom_site_type_symbol
_atom_site_label
_atom_site_fract_x
_atom_site_fract_y
_atom_site_fract_z
Si Si1 0.312607 0.402479 0.607766
Si Si2 0.115108 0.245932 0.478055
Si Si3 0.703372 0.017430 0.681735
Si Si4 0.695830 0.943276 0.436015
O O1 0.250223 0.500445 0.666667
O O2 0.175154 0.382720 0.543860
O O3 0.294817 0.205360 0.636337
O O4 0.539229 0.540783 0.590354
O O5 0.242062 0.365496 0.413625
O O6 0.174303 0.087152 0.500000
O O7 0.886635 0.144796 0.459059
O O8 0.535396 0.070791 0.666667
O O9 0.748920 0.916323 0.620200
O O10 0.606919 0.803460 0.500000
#
# Coordination Sequence:
#
# PCOD8322004 Si02
#       4
#     6   6   6   6
#     4  11  23  40  64  96 129 166 210 260 318 379
#     4   9  20  39  63  88 124 167 207 254 311 368
#     4  11  22  39  63  93 128 167 210 258 311 377
#     4  11  22  40  65  91 125 170 212 260 317 376
#
# _framework density 22.284566000000002
#
# number of rings (size 3 to 8) (size 9 to 14) (size 15 to 20)
#    0.000    1.500    0.000    7.500    0.000    2.000 
#    0.000    0.000    0.000   15.000    0.000    0.000 
#    0.000    0.000    0.000    0.000    0.000    0.000 
#
# Total GULP energy -297570.119597 kJ/mol
# GULP energy per Si atom -12398.754983 kJ/mol
# Density = 2.223385 g / cm^3
# Si number density = 22.284566 Si / 1000 Ang^3
#
#
#
# Elastic Constant Matrix: (Units=GPa)
#
#
# Indices 1 2 3 4 5 6 
#
# 1 92.6401 38.8728 57.5449 -0.0001 10.6379 0.0000
# 2 38.8728 92.6401 57.5449 0.0001 -10.6379 0.0000
# 3 57.5449 57.5449 188.7048 0.0000 0.0000 0.0000
# 4 -0.0001 0.0001 0.0000 35.3829 0.0000 -10.6379
# 5 10.6379 -10.6379 0.0000 0.0000 35.3829 -0.0001
# 6 0.0000 0.0000 0.0000 -10.6379 -0.0001 26.8836
#
#
#
# Elastic Compliance Matrix: (Units=1/GPa)
#
#
# Indices 1 2 3 4 5 6 
#
# 1 0.015741 -0.005369 -0.003163 0.000000 -0.006347 0.000000
# 2 -0.005369 0.015741 -0.003163 0.000000 0.006347 0.000000
# 3 -0.003163 -0.003163 0.007228 0.000000 0.000000 0.000000
# 4 0.000000 0.000000 0.000000 0.032079 0.000000 0.012694
# 5 -0.006347 0.006347 0.000000 0.000000 0.032079 0.000000
# 6 0.000000 0.000000 0.000000 0.012694 0.000000 0.042220
#
#
# Mechanical properties :
#
#
# Convention : Reuss Voigt Hill
#
# Bulk Modulus (GPa) = 65.27264 75.76778 70.52021
# Shear Modulus (GPa) = 28.80451 34.19804 31.50127
#
# Velocity S-wave (km/s) = 3.59914 3.92166 3.76385
# Velocity P-wave (km/s) = 6.82831 7.38781 7.11357
#
# Compressibility (1/GPa) = 0.01532036
#
# Stress axis : x y z
#
# Youngs Moduli (GPa) = 63.52882 63.52882 138.34607
#
# Poissons Ratio (x) = 0.34110 0.43756
# Poissons Ratio (y) = 0.34110 0.43756
# Poissons Ratio (z) = 0.20093 0.20093
#
# Static dielectric constant tensor:
#      x y z
#    x 3.718900 0.000000 0.000000 
#    y 0.000000 3.718900 0.000000 
#    z 0.000000 0.000000 4.729820 
# 
# 
# High freq. dielectric constant tensor:
#      x y z
#    x 1.859890 0.000000 0.000000 
#    y 0.000000 1.859890 0.000000 
#    z 0.000000 0.000000 1.913650 
# 
# From -- ./inp_files/3717.got.cif
#   From: 2010.03.12/outbox.cif.g09.slc.cpg/sg151_2_cif.got.tgz:3717.got - 2010.04.03 13:42:29.
