data_PCOD8322477
_publ_section_title
;
Structure prediction by ZEFSAII (Michael W. Deem and Ramdas Pophale) SiO2 
 PCOD8322477
Probable space group: R 3 2
;
_chemical_formula_sum "Si O2"
_cell_formula_units_Z 36
_cell_length_a 16.984212
_cell_length_b 16.984212
_cell_length_c 7.299429
_cell_angle_alpha 90.000000
_cell_angle_beta 90.000000
_cell_angle_gamma 120.000000
_cell_volume 1823.519134
_symmetry_space_group_name_H-M "R 3 2"
_symmetry_group_IT_number 155
_symmetry_cell_setting 'hexagonal'
loop_
_space_group_symop_operation_xyz
x,y,z
-y,x-y,z
-x+y,-x,z
x-y,-y,-z
-x,-x+y,-z
y,x,-z
2/3+x,1/3+y,1/3+z
2/3-y,1/3+x-y,1/3+z
2/3-x+y,1/3-x,1/3+z
2/3+x-y,1/3-y,1/3-z
2/3-x,1/3-x+y,1/3-z
2/3+y,1/3+x,1/3-z
1/3+x,2/3+y,2/3+z
1/3-y,2/3+x-y,2/3+z
1/3-x+y,2/3-x,2/3+z
1/3+x-y,2/3-y,2/3-z
1/3-x,2/3-x+y,2/3-z
1/3+y,2/3+x,2/3-z
loop_
_atom_site_type_symbol
_atom_site_label
_atom_site_fract_x
_atom_site_fract_y
_atom_site_fract_z
Si Si1 0.596142 0.666667 0.666667
Si Si2 0.429715 0.333334 0.833334
Si Si3 0.503455 0.409308 0.203235
O O1 0.626483 0.626483 0.500000
O O2 0.504628 0.591557 0.760779
O O3 0.416527 0.414224 0.754035
O O4 0.460852 0.290262 0.671704
O O5 0.503627 0.333334 0.333334
#
# Coordination Sequence:
#
# PCOD8322477 Si02
#       3
#     9   9  18
#     4  12  26  40  60  98 140 170 202 264 332 386
#     4  10  18  36  68  92 112 160 230 268 294 366
#     4  11  20  38  64  93 120 163 217 263 309 374
#
# _framework density 19.742048
#
# number of rings (size 3 to 8) (size 9 to 14) (size 15 to 20)
#    0.000    1.000    5.000    6.000    0.000    0.000 
#    1.500    0.000    0.000    0.000    6.500    0.000 
#    0.000    0.000    0.000    0.000    0.000    0.000 
#
# Total GULP energy -148750.806843 kJ/mol
# GULP energy per Si atom -12395.900570 kJ/mol
# Density = 1.969711 g / cm^3
# Si number density = 19.742048 Si / 1000 Ang^3
#
#
#
# Elastic Constant Matrix: (Units=GPa)
#
#
# Indices 1 2 3 4 5 6 
#
# 1 113.5060 72.7860 70.3150 -16.4761 0.0002 -0.0001
# 2 72.7860 113.5072 70.3166 16.4735 0.0053 0.0014
# 3 70.3150 70.3166 192.6061 -0.0044 0.0197 0.0050
# 4 -16.4761 16.4735 -0.0044 -12.0355 -0.0092 -0.0027
# 5 0.0002 0.0053 0.0197 -0.0092 -12.0344 -16.4772
# 6 -0.0001 0.0014 0.0050 -0.0027 -16.4772 20.3580
#
#
#
# Elastic Compliance Matrix: (Units=1/GPa)
#
#
# Indices 1 2 3 4 5 6 
#
# 1 0.009531 -0.002121 -0.002706 -0.015949 0.000004 0.000002
# 2 -0.002121 0.009531 -0.002705 0.015950 -0.000007 -0.000004
# 3 -0.002706 -0.002705 0.007167 -0.000001 0.000006 0.000003
# 4 -0.015949 0.015950 -0.000001 -0.039422 0.000022 0.000011
# 5 0.000004 -0.000007 0.000006 0.000022 -0.039416 -0.031902
# 6 0.000002 -0.000004 0.000003 0.000011 -0.031902 0.023300
#
#
# Mechanical properties :
#
#
# Convention : Reuss Voigt Hill
#
# Bulk Modulus (GPa) = 89.55457 94.05048 91.80252
# Shear Modulus (GPa) = -475.10695 13.00438 -231.05128
#
# Velocity S-wave (km/s) = -15.52997 2.56933 -10.83001
# Velocity P-wave (km/s) = 16.61663 7.51964 10.47777
#
# Compressibility (1/GPa) = 0.01116638
#
# Stress axis : x y z
#
# Youngs Moduli (GPa) = 104.92062 104.92212 139.52498
#
# Poissons Ratio (x) = 0.22253 0.37750
# Poissons Ratio (y) = 0.22252 0.37740
# Poissons Ratio (z) = 0.28387 0.28380
#
# Static dielectric constant tensor:
#      x y z
#    x 3.553490 0.000000 -0.000020 
#    y 0.000000 3.553500 0.000000 
#    z -0.000020 0.000000 3.876220 
# 
# 
# High freq. dielectric constant tensor:
#      x y z
#    x 1.750720 0.000000 0.000000 
#    y 0.000000 1.750720 0.000000 
#    z 0.000000 0.000000 1.795120 
# 
# From -- ./inp_files/1448.got.cif
#   From: 2010.03.12/outbox.cif.g09.slc.cpg/sg155_1_cif.got.tgz:1448.got - 2010.04.03 13:54:13.
