data_PCOD8322092
_publ_section_title
;
Structure prediction by ZEFSAII (Michael W. Deem and Ramdas Pophale) SiO2 
 PCOD8322092
Probable space group: P 31 2 1
;
_chemical_formula_sum "Si O2"
_cell_formula_units_Z 36
_cell_length_a 9.382431
_cell_length_b 9.382431
_cell_length_c 23.659150
_cell_angle_alpha 90.000000
_cell_angle_beta 90.000000
_cell_angle_gamma 120.000000
_cell_volume 1803.684312
_symmetry_space_group_name_H-M "P 31 2 1"
_symmetry_group_IT_number 152
_symmetry_cell_setting 'hexagonal'
loop_
_space_group_symop_operation_xyz
x,y,z
-y,x-y,1/3+z
-x+y,-x,2/3+z
x-y,-y,2/3-z
-x,-x+y,1/3-z
y,x,-z
loop_
_atom_site_type_symbol
_atom_site_label
_atom_site_fract_x
_atom_site_fract_y
_atom_site_fract_z
Si Si1 0.798995 0.131470 0.428211
Si Si2 0.361428 0.878840 0.282419
Si Si3 0.019808 0.198757 0.106393
Si Si4 0.107228 0.262939 0.779950
Si Si5 0.589246 0.947579 0.013235
Si Si6 0.666777 0.742984 0.677547
O O1 0.657227 0.173503 0.412864
O O2 0.859425 0.200160 0.491024
O O3 0.947956 0.183997 0.383229
O O4 0.721699 0.935643 0.429525
O O5 0.204982 0.714610 0.303965
O O6 0.459755 0.000000 0.333334
O O7 0.282683 0.956271 0.240942
O O8 0.000000 0.270282 0.166667
O O9 0.925031 0.997251 0.112105
O O10 0.953782 0.261712 0.056048
O O11 0.261088 0.357362 0.738382
O O12 0.437631 0.969216 0.030832
O O13 0.736494 0.106937 0.981007
#
# Coordination Sequence:
#
# PCOD8322092 Si02
#       6
#     6   6   6   6   6   6
#     4  11  21  34  62  87 114 148 198 244 291 358
#     4  10  20  37  57  83 113 152 194 236 290 355
#     4   9  19  38  57  84 113 151 194 241 294 349
#     4   9  21  38  59  82 116 154 193 243 293 356
#     4  10  22  39  58  83 119 157 194 241 300 352
#     4  11  21  36  60  84 117 155 194 242 297 357
#
# _framework density 19.959147999999999
#
# number of rings (size 3 to 8) (size 9 to 14) (size 15 to 20)
#    0.000    2.000    0.000    3.500    2.333    4.000 
#    3.000    1.667    0.000    0.000    0.000    0.000 
#    0.000    0.000    0.000    0.000    0.000    0.000 
#
# Total GULP energy -446099.951461 kJ/mol
# GULP energy per Si atom -12391.665318 kJ/mol
# Density = 1.991372 g / cm^3
# Si number density = 19.959148 Si / 1000 Ang^3
#
#
#
# Elastic Constant Matrix: (Units=GPa)
#
#
# Indices 1 2 3 4 5 6 
#
# 1 68.0088 7.8651 23.3064 -3.6876 0.0003 0.0000
# 2 7.8651 68.0088 23.3064 3.6876 -0.0003 0.0000
# 3 23.3064 23.3064 108.3844 0.0000 0.0000 0.0000
# 4 -3.6876 3.6876 0.0000 22.4879 0.0000 -0.0003
# 5 0.0003 -0.0003 0.0000 0.0000 22.4879 -3.6876
# 6 0.0000 0.0000 0.0000 -0.0003 -3.6876 30.0718
#
#
#
# Elastic Compliance Matrix: (Units=1/GPa)
#
#
# Indices 1 2 3 4 5 6 
#
# 1 0.016077 -0.000891 -0.003265 0.002782 0.000000 0.000000
# 2 -0.000891 0.016077 -0.003265 -0.002782 0.000000 0.000000
# 3 -0.003265 -0.003265 0.010631 0.000000 0.000000 0.000000
# 4 0.002782 -0.002782 0.000000 0.045381 0.000000 0.000000
# 5 0.000000 0.000000 0.000000 0.000000 0.045381 0.005565
# 6 0.000000 0.000000 0.000000 0.000000 0.005565 0.033936
#
#
# Mechanical properties :
#
#
# Convention : Reuss Voigt Hill
#
# Bulk Modulus (GPa) = 35.79018 39.26198 37.52608
# Shear Modulus (GPa) = 26.09056 27.67114 26.88085
#
# Velocity S-wave (km/s) = 3.61944 3.72746 3.67385
# Velocity P-wave (km/s) = 5.95296 6.18378 6.06947
#
# Compressibility (1/GPa) = 0.02794063
#
# Stress axis : x y z
#
# Youngs Moduli (GPa) = 62.20080 62.20080 94.06629
#
# Poissons Ratio (x) = 0.05543 0.30717
# Poissons Ratio (y) = 0.05543 0.30717
# Poissons Ratio (z) = 0.20312 0.20312
#
# Static dielectric constant tensor:
#      x y z
#    x 3.484720 0.000000 0.000000 
#    y 0.000000 3.484720 0.000000 
#    z 0.000000 0.000000 3.779110 
# 
# 
# High freq. dielectric constant tensor:
#      x y z
#    x 1.770940 0.000000 0.000000 
#    y 0.000000 1.770940 0.000000 
#    z 0.000000 0.000000 1.788470 
# 
# From -- ./inp_files/3342.got.cif
#   From: 2010.03.12/outbox.cif.g09.slc.cpg/sg152_2_cif.got.tgz:3342.got - 2010.04.03 13:45:27.
