data_PCOD8322076
_publ_section_title
;
Structure prediction by ZEFSAII (Michael W. Deem and Ramdas Pophale) SiO2 
 PCOD8322076
Probable space group: P 31 2 1
;
_chemical_formula_sum "Si O2"
_cell_formula_units_Z 42
_cell_length_a 9.118528
_cell_length_b 9.118528
_cell_length_c 28.950100
_cell_angle_alpha 90.000000
_cell_angle_beta 90.000000
_cell_angle_gamma 120.000000
_cell_volume 2084.635705
_symmetry_space_group_name_H-M "P 31 2 1"
_symmetry_group_IT_number 152
_symmetry_cell_setting 'hexagonal'
loop_
_space_group_symop_operation_xyz
x,y,z
-y,x-y,1/3+z
-x+y,-x,2/3+z
x-y,-y,2/3-z
-x,-x+y,1/3-z
y,x,-z
loop_
_atom_site_type_symbol
_atom_site_label
_atom_site_fract_x
_atom_site_fract_y
_atom_site_fract_z
Si Si1 0.644981 0.437063 0.084462
Si Si2 0.503565 0.187229 0.823788
Si Si3 0.712990 0.119491 0.244808
Si Si4 0.454867 0.659236 0.333779
Si Si5 0.195511 0.065438 0.382649
Si Si6 0.919703 0.129836 0.088743
Si Si7 0.659610 0.785759 0.678598
O O1 0.701693 0.374623 0.128772
O O2 0.458109 0.402358 0.094313
O O3 0.644127 0.339324 0.039001
O O4 0.786593 0.630778 0.076754
O O5 0.530415 0.283759 0.872321
O O6 0.338415 0.170340 0.797629
O O7 0.475251 0.000000 0.833334
O O8 0.720274 0.188666 0.296311
O O9 0.877461 0.099396 0.237036
O O10 0.310213 0.493530 0.359877
O O11 0.599273 0.629968 0.309618
O O12 0.108098 0.178938 0.372631
O O13 0.224066 0.000000 0.333334
O O14 0.070092 0.914104 0.416482
O O15 0.878703 0.200919 0.043048
#
# Coordination Sequence:
#
# PCOD8322076 Si02
#       7
#     6   6   6   6   6   6   6
#     4  12  23  41  63  96 124 158 211 258 310 369
#     4  10  23  44  64  82 125 175 206 249 315 380
#     4  10  23  40  64  88 125 164 205 256 311 366
#     4  11  21  38  64  95 125 162 205 263 314 369
#     4  10  21  35  62  94 126 156 206 264 311 368
#     4   9  19  42  62  84 125 169 203 246 317 372
#     4  10  20  34  62  98 124 159 208 257 315 366
#
# _framework density 20.147404999999999
#
# number of rings (size 3 to 8) (size 9 to 14) (size 15 to 20)
#    0.000    1.714    1.429    3.000    4.000    4.571 
#    2.571    3.571    0.000    0.000    0.000    0.000 
#    0.000    0.000    0.000    0.000    0.000    0.000 
#
# Total GULP energy -520808.792492 kJ/mol
# GULP energy per Si atom -12400.209345 kJ/mol
# Density = 2.010155 g / cm^3
# Si number density = 20.147405 Si / 1000 Ang^3
#
#
#
# Elastic Constant Matrix: (Units=GPa)
#
#
# Indices 1 2 3 4 5 6 
#
# 1 93.9955 40.3665 16.9416 -4.1089 -0.0001 0.0000
# 2 40.3665 93.9955 16.9416 4.1089 0.0001 0.0000
# 3 16.9416 16.9416 52.1593 0.0000 0.0000 0.0000
# 4 -4.1089 4.1089 0.0000 26.1944 0.0000 0.0001
# 5 -0.0001 0.0001 0.0000 0.0000 26.1944 -4.1089
# 6 0.0000 0.0000 0.0000 0.0001 -4.1089 26.8145
#
#
#
# Elastic Compliance Matrix: (Units=1/GPa)
#
#
# Indices 1 2 3 4 5 6 
#
# 1 0.013606 -0.005500 -0.002633 0.002997 0.000000 0.000000
# 2 -0.005500 0.013606 -0.002633 -0.002997 0.000000 0.000000
# 3 -0.002633 -0.002633 0.020883 0.000000 0.000000 0.000000
# 4 0.002997 -0.002997 0.000000 0.039116 0.000000 0.000000
# 5 0.000000 0.000000 0.000000 0.000000 0.039116 0.005994
# 6 0.000000 0.000000 0.000000 0.000000 0.005994 0.038212
#
#
# Mechanical properties :
#
#
# Convention : Reuss Voigt Hill
#
# Bulk Modulus (GPa) = 37.64576 43.18332 40.41454
# Shear Modulus (GPa) = 25.65084 26.90069 26.27577
#
# Velocity S-wave (km/s) = 3.57201 3.65799 3.61526
# Velocity P-wave (km/s) = 5.97813 6.27068 6.12615
#
# Compressibility (1/GPa) = 0.02656342
#
# Stress axis : x y z
#
# Youngs Moduli (GPa) = 73.49574 73.49574 47.88696
#
# Poissons Ratio (x) = 0.40420 0.12609
# Poissons Ratio (y) = 0.40420 0.12609
# Poissons Ratio (z) = 0.19352 0.19352
#
# Static dielectric constant tensor:
#      x y z
#    x 3.619240 0.000000 0.000000 
#    y 0.000000 3.619240 0.000000 
#    z 0.000000 0.000000 3.594490 
# 
# 
# High freq. dielectric constant tensor:
#      x y z
#    x 1.786360 0.000000 0.000000 
#    y 0.000000 1.786360 0.000000 
#    z 0.000000 0.000000 1.776290 
# 
# From -- ./inp_files/3729.got.cif
#   From: 2010.03.12/outbox.cif.g09.slc.cpg/sg152_2_cif.got.tgz:3729.got - 2010.04.03 13:45:27.
