data_PCOD8322225
_publ_section_title
;
Structure prediction by ZEFSAII (Michael W. Deem and Ramdas Pophale) SiO2 
 PCOD8322225
Probable space group: P 31 2 1
;
_chemical_formula_sum "Si O2"
_cell_formula_units_Z 18
_cell_length_a 13.365228
_cell_length_b 13.365228
_cell_length_c 5.195674
_cell_angle_alpha 90.000000
_cell_angle_beta 90.000000
_cell_angle_gamma 120.000000
_cell_volume 803.757927
_symmetry_space_group_name_H-M "P 31 2 1"
_symmetry_group_IT_number 152
_symmetry_cell_setting 'hexagonal'
loop_
_space_group_symop_operation_xyz
x,y,z
-y,x-y,1/3+z
-x+y,-x,2/3+z
x-y,-y,2/3-z
-x,-x+y,1/3-z
y,x,-z
loop_
_atom_site_type_symbol
_atom_site_label
_atom_site_fract_x
_atom_site_fract_y
_atom_site_fract_z
Si Si1 0.363663 0.574588 0.636791
Si Si2 0.000000 0.280451 0.666667
Si Si3 0.755337 0.076068 0.582046
Si Si4 0.413359 0.000000 0.833334
O O1 0.426472 0.687844 0.810533
O O2 0.303880 0.458055 0.807621
O O3 0.461327 0.574544 0.453962
O O4 0.891380 0.154108 0.627052
O O5 0.020371 0.358403 0.418272
O O6 0.738719 0.000000 0.333334
O O7 0.697441 0.000000 0.833334
#
# Coordination Sequence:
#
# PCOD8322225 Si02
#       4
#     6   3   6   3
#     4  12  27  45  77 116 154 200 249 308 389 468
#     4  12  26  52  72 104 150 196 252 310 378 436
#     4  12  28  48  76 108 149 198 252 313 374 447
#     4  12  26  44  76 108 150 198 238 308 374 460
#
# _framework density 22.394804000000001
#
# number of rings (size 3 to 8) (size 9 to 14) (size 15 to 20)
#    0.000    0.000    5.000    4.000    7.000    0.000 
#    3.000    0.000    0.000    0.000    0.000    0.000 
#    0.000    0.000    0.000    0.000    0.000    0.000 
#
# Total GULP energy -223315.034316 kJ/mol
# GULP energy per Si atom -12406.390795 kJ/mol
# Density = 2.234383 g / cm^3
# Si number density = 22.394804 Si / 1000 Ang^3
#
#
#
# Elastic Constant Matrix: (Units=GPa)
#
#
# Indices 1 2 3 4 5 6 
#
# 1 205.2419 40.5953 58.7741 -3.9912 0.0000 0.0000
# 2 40.5953 205.2419 58.7741 3.9912 0.0000 0.0000
# 3 58.7741 58.7741 140.4685 0.0000 0.0000 0.0000
# 4 -3.9912 3.9912 0.0000 38.3717 0.0000 0.0000
# 5 0.0000 0.0000 0.0000 0.0000 38.3717 -3.9912
# 6 0.0000 0.0000 0.0000 0.0000 -3.9912 82.3233
#
#
#
# Elastic Compliance Matrix: (Units=1/GPa)
#
#
# Indices 1 2 3 4 5 6 
#
# 1 0.005595 -0.000510 -0.002128 0.000635 0.000000 0.000000
# 2 -0.000510 0.005595 -0.002128 -0.000635 0.000000 0.000000
# 3 -0.002128 -0.002128 0.008900 0.000000 0.000000 0.000000
# 4 0.000635 -0.000635 0.000000 0.026193 0.000000 0.000000
# 5 0.000000 0.000000 0.000000 0.000000 0.026193 0.001270
# 6 0.000000 0.000000 0.000000 0.000000 0.001270 0.012209
#
#
# Mechanical properties :
#
#
# Convention : Reuss Voigt Hill
#
# Bulk Modulus (GPa) = 94.70586 96.35993 95.53289
# Shear Modulus (GPa) = 51.15955 58.00057 54.58006
#
# Velocity S-wave (km/s) = 4.78477 5.09464 4.94213
# Velocity P-wave (km/s) = 8.53852 8.81637 8.67856
#
# Compressibility (1/GPa) = 0.01055901
#
# Stress axis : x y z
#
# Youngs Moduli (GPa) = 178.73910 178.73910 112.36537
#
# Poissons Ratio (x) = 0.09109 0.23908
# Poissons Ratio (y) = 0.09109 0.23908
# Poissons Ratio (z) = 0.38030 0.38030
#
# Static dielectric constant tensor:
#      x y z
#    x 4.283550 0.000000 0.000000 
#    y 0.000000 4.283550 0.000000 
#    z 0.000000 0.000000 4.061280 
# 
# 
# High freq. dielectric constant tensor:
#      x y z
#    x 1.900120 0.000000 0.000000 
#    y 0.000000 1.900120 0.000000 
#    z 0.000000 0.000000 1.875160 
# 
# From -- ./inp_files/110.got.cif
#   From: 2010.03.12/outbox.cif.g09.slc.cpg/sg152_1_cif.got.tgz:110.got - 2010.04.03 13:45:27.
