data_PCOD8322845
_publ_section_title
;
Structure prediction by ZEFSAII (Michael W. Deem and Ramdas Pophale) SiO2 
 PCOD8322845
Probable space group: R 3 M
;
_chemical_formula_sum "Si O2"
_cell_formula_units_Z 108
_cell_length_a 17.079566
_cell_length_b 17.079566
_cell_length_c 27.483906
_cell_angle_alpha 90.000000
_cell_angle_beta 90.000000
_cell_angle_gamma 120.000000
_cell_volume 6943.249122
_symmetry_space_group_name_H-M "R 3 M"
_symmetry_group_IT_number 160
_symmetry_cell_setting 'hexagonal'
loop_
_space_group_symop_operation_xyz
x,y,z
-y,x-y,z
-x+y,-x,z
-x+y,y,z
x,x-y,z
-y,-x,z
2/3+x,1/3+y,1/3+z
2/3-y,1/3+x-y,1/3+z
2/3-x+y,1/3-x,1/3+z
2/3-x+y,1/3+y,1/3+z
2/3+x,1/3+x-y,1/3+z
2/3-y,1/3-x,1/3+z
1/3+x,2/3+y,2/3+z
1/3-y,2/3+x-y,2/3+z
1/3-x+y,2/3-x,2/3+z
1/3-x+y,2/3+y,2/3+z
1/3+x,2/3+x-y,2/3+z
1/3-y,2/3-x,2/3+z
loop_
_atom_site_type_symbol
_atom_site_label
_atom_site_fract_x
_atom_site_fract_y
_atom_site_fract_z
Si Si1 0.725165 0.097404 0.433375
Si Si2 0.580473 0.976295 0.500024
Si Si3 0.486292 0.151826 0.982453
Si Si4 0.275303 0.372392 0.413874
Si Si5 0.001593 0.176971 0.006714
Si Si6 0.981889 0.402142 0.256585
O O1 0.829344 0.170657 0.445150
O O2 0.662129 0.073898 0.481579
O O3 0.683290 0.134920 0.394239
O O4 0.717332 0.003513 0.413319
O O5 0.489691 0.979381 0.509173
O O6 0.564144 0.901130 0.458723
O O7 0.612268 0.954185 0.550097
O O8 0.582182 0.164364 0.967000
O O9 0.496810 0.248405 0.993700
O O10 0.419356 0.103691 0.936953
O O11 0.448552 0.093062 0.030866
O O12 0.170807 0.341614 0.422829
O O13 0.092964 0.185928 0.984913
O O14 0.971169 0.232399 0.972898
O O15 0.927734 0.072267 0.008960
O O16 0.970291 0.485146 0.237356
#
# Coordination Sequence:
#
# PCOD8322845 Si02
#       6
#    18  18  18  18  18  18
#     4   9  19  32  51  71  95 127 163 203 242 285
#     4  10  19  31  50  73  99 130 161 198 240 289
#     4  10  19  32  50  73  99 129 165 206 245 286
#     4   9  18  32  53  74  98 129 159 197 245 294
#     4  10  18  30  47  69  94 123 157 196 239 287
#     4  10  19  31  47  68  99 132 161 194 237 289
#
# _framework density 15.554677
#
# number of rings (size 3 to 8) (size 9 to 14) (size 15 to 20)
#    1.000    1.333    1.667    2.333    0.000    0.667 
#    0.000    0.000    0.000    5.333    0.000    0.000 
#    0.000    1.333    0.000    0.000    0.000    0.000 
#
# Total GULP energy -446103.750809 kJ/mol
# GULP energy per Si atom -12391.770856 kJ/mol
# Density = 1.551927 g / cm^3
# Si number density = 15.554677 Si / 1000 Ang^3
#
#
#
# Elastic Constant Matrix: (Units=GPa)
#
#
# Indices 1 2 3 4 5 6 
#
# 1 102.2788 54.6319 36.4069 -1.8119 -0.0001 0.0000
# 2 54.6319 102.2788 36.4069 1.8119 0.0001 0.0000
# 3 36.4069 36.4069 67.8922 0.0000 0.0000 0.0000
# 4 -1.8119 1.8119 0.0000 21.0145 0.0000 0.0001
# 5 -0.0001 0.0001 0.0000 0.0000 21.0145 -1.8119
# 6 0.0000 0.0000 0.0000 0.0001 -1.8119 23.8235
#
#
#
# Elastic Compliance Matrix: (Units=1/GPa)
#
#
# Indices 1 2 3 4 5 6 
#
# 1 0.014805 -0.006321 -0.004550 0.001822 0.000000 0.000000
# 2 -0.006321 0.014805 -0.004550 -0.001822 0.000000 0.000000
# 3 -0.004550 -0.004550 0.019609 0.000000 0.000000 0.000000
# 4 0.001822 -0.001822 0.000000 0.047900 0.000000 0.000000
# 5 0.000000 0.000000 0.000000 0.000000 0.047900 0.003643
# 6 0.000000 0.000000 0.000000 0.000000 0.003643 0.042253
#
#
# Mechanical properties :
#
#
# Convention : Reuss Voigt Hill
#
# Bulk Modulus (GPa) = 54.41101 58.59349 56.50225
# Shear Modulus (GPa) = 22.29762 22.83744 22.56753
#
# Velocity S-wave (km/s) = 3.79027 3.83587 3.81314
# Velocity P-wave (km/s) = 7.36283 7.57428 7.46930
#
# Compressibility (1/GPa) = 0.01837863
#
# Stress axis : x y z
#
# Youngs Moduli (GPa) = 67.54347 67.54347 50.99773
#
# Poissons Ratio (x) = 0.42694 0.23202
# Poissons Ratio (y) = 0.42694 0.23202
# Poissons Ratio (z) = 0.30730 0.30730
#
# Static dielectric constant tensor:
#      x y z
#    x 2.977650 0.000000 0.000000 
#    y 0.000000 2.977650 0.000000 
#    z 0.000000 0.000000 2.826160 
# 
# 
# High freq. dielectric constant tensor:
#      x y z
#    x 1.590460 0.000000 0.000000 
#    y 0.000000 1.590460 0.000000 
#    z 0.000000 0.000000 1.591460 
# 
# From -- ./inp_files/4085.got.cif
#   From: 2010.03.12/outbox.cif.g09.slc.cpg/sg160_3_cif.got.tgz:4085.got - 2010.04.02 06:26:15.
