data_PCOD8322005
_publ_section_title
;
Structure prediction by ZEFSAII (Michael W. Deem and Ramdas Pophale) SiO2 
 PCOD8322005
Probable space group: P 31 1 2
;
_chemical_formula_sum "Si O2"
_cell_formula_units_Z 18
_cell_length_a 10.243357
_cell_length_b 10.243357
_cell_length_c 9.870043
_cell_angle_alpha 90.000000
_cell_angle_beta 90.000000
_cell_angle_gamma 120.000000
_cell_volume 896.879907
_symmetry_space_group_name_H-M "P 31 1 2"
_symmetry_group_IT_number 151
_symmetry_cell_setting 'hexagonal'
loop_
_space_group_symop_operation_xyz
x,y,z
-y,x-y,1/3+z
-x+y,-x,2/3+z
-y,-x,2/3-z
-x+y,y,1/3-z
x,x-y,-z
loop_
_atom_site_type_symbol
_atom_site_label
_atom_site_fract_x
_atom_site_fract_y
_atom_site_fract_z
Si Si1 0.422391 0.301049 0.383991
Si Si2 0.796724 0.907206 0.844216
Si Si3 0.709552 0.586242 0.794827
O O1 0.531045 0.468956 0.333334
O O2 0.502652 0.251326 0.500000
O O3 0.275280 0.292085 0.446320
O O4 0.376100 0.192903 0.256379
O O5 0.733215 0.751073 0.760789
O O6 0.747835 0.873918 0.000000
O O7 0.978453 0.021548 0.833334
O O8 0.538237 0.461764 0.833334
O O9 0.763207 0.526413 0.666667
#
# Coordination Sequence:
#
# PCOD8322005 Si02
#       3
#     6   6   6
#     4  11  22  41  68  97 136 175 223 282 342 408
#     4  11  22  43  70  99 134 178 229 283 337 414
#     4  12  25  40  68 102 136 175 231 284 345 410
#
# _framework density 20.069575
#
# number of rings (size 3 to 8) (size 9 to 14) (size 15 to 20)
#    0.000    0.667    6.667    5.000    0.000    0.000 
#    0.000    1.667    0.000    0.000    0.000    0.000 
#    0.000    0.000    0.000    0.000    0.000    0.000 
#
# Total GULP energy -223172.210297 kJ/mol
# GULP energy per Si atom -12398.456128 kJ/mol
# Density = 2.002390 g / cm^3
# Si number density = 20.069575 Si / 1000 Ang^3
#
#
#
# Elastic Constant Matrix: (Units=GPa)
#
#
# Indices 1 2 3 4 5 6 
#
# 1 129.6308 88.2544 42.3793 -0.0002 5.2486 0.0000
# 2 88.2544 129.6308 42.3793 0.0002 -5.2486 0.0000
# 3 42.3793 42.3793 126.6252 0.0000 0.0000 0.0000
# 4 -0.0002 0.0002 0.0000 35.9467 0.0000 -5.2486
# 5 5.2486 -5.2486 0.0000 0.0000 35.9467 -0.0002
# 6 0.0000 0.0000 0.0000 -5.2486 -0.0002 20.6882
#
#
#
# Elastic Compliance Matrix: (Units=1/GPa)
#
#
# Indices 1 2 3 4 5 6 
#
# 1 0.015187 -0.009911 -0.001766 0.000000 -0.003665 0.000000
# 2 -0.009911 0.015187 -0.001766 0.000000 0.003665 0.000000
# 3 -0.001766 -0.001766 0.009079 0.000000 0.000000 0.000000
# 4 0.000000 0.000000 0.000000 0.028889 0.000000 0.007329
# 5 -0.003665 0.003665 0.000000 0.000000 0.028889 0.000000
# 6 0.000000 0.000000 0.000000 0.007329 0.000000 0.050196
#
#
# Mechanical properties :
#
#
# Convention : Reuss Voigt Hill
#
# Bulk Modulus (GPa) = 79.56327 81.32364 80.44345
# Shear Modulus (GPa) = 28.01066 32.70791 30.35929
#
# Velocity S-wave (km/s) = 3.73993 4.04137 3.89357
# Velocity P-wave (km/s) = 7.64063 7.89846 7.77061
#
# Compressibility (1/GPa) = 0.01256861
#
# Stress axis : x y z
#
# Youngs Moduli (GPa) = 65.84437 65.84437 110.13945
#
# Poissons Ratio (x) = 0.65257 0.19450
# Poissons Ratio (y) = 0.65257 0.19450
# Poissons Ratio (z) = 0.11628 0.11628
#
# Static dielectric constant tensor:
#      x y z
#    x 3.666350 0.000000 0.000000 
#    y 0.000000 3.666350 0.000000 
#    z 0.000000 0.000000 3.910830 
# 
# 
# High freq. dielectric constant tensor:
#      x y z
#    x 1.773270 0.000000 0.000000 
#    y 0.000000 1.773270 0.000000 
#    z 0.000000 0.000000 1.804950 
# 
# From -- ./inp_files/1151.got.cif
#   From: 2010.03.12/outbox.cif.g09.slc.cpg/sg151_1_cif.got.tgz:1151.got - 2010.04.03 13:42:29.
