data_PCOD8322576
_publ_section_title
;
Structure prediction by ZEFSAII (Michael W. Deem and Ramdas Pophale) SiO2 
 PCOD8322576
Probable space group: R 3 2
;
_chemical_formula_sum "Si O2"
_cell_formula_units_Z 69
_cell_length_a 14.376233
_cell_length_b 14.376233
_cell_length_c 16.452147
_cell_angle_alpha 90.000000
_cell_angle_beta 90.000000
_cell_angle_gamma 120.000000
_cell_volume 2944.716018
_symmetry_space_group_name_H-M "R 3 2"
_symmetry_group_IT_number 155
_symmetry_cell_setting 'hexagonal'
loop_
_space_group_symop_operation_xyz
x,y,z
-y,x-y,z
-x+y,-x,z
x-y,-y,-z
-x,-x+y,-z
y,x,-z
2/3+x,1/3+y,1/3+z
2/3-y,1/3+x-y,1/3+z
2/3-x+y,1/3-x,1/3+z
2/3+x-y,1/3-y,1/3-z
2/3-x,1/3-x+y,1/3-z
2/3+y,1/3+x,1/3-z
1/3+x,2/3+y,2/3+z
1/3-y,2/3+x-y,2/3+z
1/3-x+y,2/3-x,2/3+z
1/3+x-y,2/3-y,2/3-z
1/3-x,2/3-x+y,2/3-z
1/3+y,2/3+x,2/3-z
loop_
_atom_site_type_symbol
_atom_site_label
_atom_site_fract_x
_atom_site_fract_y
_atom_site_fract_z
Si Si1 0.547520 0.333334 0.833334
Si Si2 0.076921 0.776328 0.615896
Si Si3 0.666667 0.333334 0.240438
Si Si4 0.089765 0.250140 0.760107
Si Si5 0.201530 0.121135 0.814465
O O1 0.560328 0.226994 0.833334
O O2 0.486701 0.333941 0.916417
O O3 0.173130 0.863309 0.673686
O O4 0.125733 0.762013 0.531509
O O5 0.008087 0.666667 0.666667
O O6 0.666668 0.333334 0.333334
O O7 0.785884 0.368718 0.212233
O O8 0.125817 0.333334 0.833334
O O9 0.147350 0.177561 0.765142
O O10 0.959102 0.180156 0.756090
#
# Coordination Sequence:
#
# PCOD8322576 Si02
#       5
#     9  18   6  18  18
#     4  10  28  50  70 102 142 194 244 296 376 440
#     4  12  23  45  76 100 142 188 246 298 351 449
#     4   9  18  33  63  93 138 172 206 286 372 411
#     4  11  24  42  71 107 139 184 234 297 379 432
#     4  10  23  40  64 106 138 174 236 293 360 436
#
# _framework density 23.431801
#
# number of rings (size 3 to 8) (size 9 to 14) (size 15 to 20)
#    0.261    1.043    2.609    2.870    7.304    1.043 
#    0.000    0.000    0.000    0.000    0.000    0.000 
#    0.000    0.000    0.000    0.000    0.000    0.000 
#
# Total GULP energy -285007.514792 kJ/mol
# GULP energy per Si atom -12391.631078 kJ/mol
# Density = 2.337847 g / cm^3
# Si number density = 23.431801 Si / 1000 Ang^3
#
#
#
# Elastic Constant Matrix: (Units=GPa)
#
#
# Indices 1 2 3 4 5 6 
#
# 1 106.1015 25.0772 15.8753 -12.4613 0.0006 0.0001
# 2 25.0772 106.1013 15.8750 12.4610 -0.0006 0.0000
# 3 15.8753 15.8750 64.9173 -0.0002 0.0000 0.0000
# 4 -12.4613 12.4610 -0.0002 33.9622 0.0000 -0.0006
# 5 0.0006 -0.0006 0.0000 0.0000 33.9623 -12.4613
# 6 0.0001 0.0000 0.0000 -0.0006 -12.4613 40.5122
#
#
#
# Elastic Compliance Matrix: (Units=1/GPa)
#
#
# Indices 1 2 3 4 5 6 
#
# 1 0.011007 -0.002905 -0.001982 0.005105 0.000000 0.000000
# 2 -0.002905 0.011007 -0.001981 -0.005105 0.000000 0.000000
# 3 -0.001982 -0.001981 0.016373 0.000000 0.000000 0.000000
# 4 0.005105 -0.005105 0.000000 0.033190 0.000000 0.000001
# 5 0.000000 0.000000 0.000000 0.000000 0.033190 0.010209
# 6 0.000000 0.000000 0.000000 0.000001 0.010209 0.027824
#
#
# Mechanical properties :
#
#
# Convention : Reuss Voigt Hill
#
# Bulk Modulus (GPa) = 40.56309 43.41946 41.99128
# Shear Modulus (GPa) = 32.35283 36.37350 34.36317
#
# Velocity S-wave (km/s) = 3.71984 3.94422 3.83367
# Velocity P-wave (km/s) = 5.98317 6.26999 6.12826
#
# Compressibility (1/GPa) = 0.02465296
#
# Stress axis : x y z
#
# Youngs Moduli (GPa) = 90.84753 90.84761 61.07492
#
# Poissons Ratio (x) = 0.26388 0.12102
# Poissons Ratio (y) = 0.26388 0.12102
# Poissons Ratio (z) = 0.18001 0.18001
#
# Static dielectric constant tensor:
#      x y z
#    x 4.206080 0.000000 0.000000 
#    y 0.000000 4.206060 0.000010 
#    z 0.000000 0.000010 4.241480 
# 
# 
# High freq. dielectric constant tensor:
#      x y z
#    x 1.920250 0.000000 0.000000 
#    y 0.000000 1.920250 0.000000 
#    z 0.000000 0.000000 1.927010 
# 
# From -- ./inp_files/5927.got.cif
#   From: 2010.03.12/outbox.cif.g09.slc.cpg/sg155_3_cif.got.tgz:5927.got - 2010.04.03 13:54:13.
