data_PCOD8322458
_publ_section_title
;
Structure prediction by ZEFSAII (Michael W. Deem and Ramdas Pophale) SiO2 
 PCOD8322458
Probable space group: R 3 2
;
_chemical_formula_sum "Si O2"
_cell_formula_units_Z 117
_cell_length_a 17.207861
_cell_length_b 17.207861
_cell_length_c 25.937336
_cell_angle_alpha 90.000000
_cell_angle_beta 90.000000
_cell_angle_gamma 120.000000
_cell_volume 6651.349647
_symmetry_space_group_name_H-M "R 3 2"
_symmetry_group_IT_number 155
_symmetry_cell_setting 'hexagonal'
loop_
_space_group_symop_operation_xyz
x,y,z
-y,x-y,z
-x+y,-x,z
x-y,-y,-z
-x,-x+y,-z
y,x,-z
2/3+x,1/3+y,1/3+z
2/3-y,1/3+x-y,1/3+z
2/3-x+y,1/3-x,1/3+z
2/3+x-y,1/3-y,1/3-z
2/3-x,1/3-x+y,1/3-z
2/3+y,1/3+x,1/3-z
1/3+x,2/3+y,2/3+z
1/3-y,2/3+x-y,2/3+z
1/3-x+y,2/3-x,2/3+z
1/3+x-y,2/3-y,2/3-z
1/3-x,2/3-x+y,2/3-z
1/3+y,2/3+x,2/3-z
loop_
_atom_site_type_symbol
_atom_site_label
_atom_site_fract_x
_atom_site_fract_y
_atom_site_fract_z
Si Si1 0.265712 0.202405 0.235637
Si Si2 0.863298 0.386343 0.232312
Si Si3 0.481425 0.867259 0.544019
Si Si4 0.910707 0.246350 0.521379
Si Si5 0.000000 0.260518 0.000000
Si Si6 0.876919 0.305582 0.063651
Si Si7 0.499185 0.958299 0.944602
O O1 0.372163 0.239825 0.241602
O O2 0.225310 0.192226 0.178933
O O3 0.214016 0.105040 0.261776
O O4 0.241528 0.266537 0.267345
O O5 0.826786 0.456024 0.237102
O O6 0.788631 0.291143 0.209282
O O7 0.946576 0.432980 0.193241
O O8 0.892496 0.372939 0.288686
O O9 0.945565 0.343225 0.550162
O O10 0.857255 0.167933 0.564475
O O11 0.000000 0.247440 0.500000
O O12 0.920603 0.277044 0.018276
O O13 0.874203 0.396988 0.052029
O O14 0.517152 0.000000 0.000000
#
# Coordination Sequence:
#
# PCOD8322458 Si02
#       7
#    18  18  18  18   9  18  18
#     4  11  21  37  60  86 115 158 194 244 303 354
#     4  12  22  37  56  84 117 157 203 237 287 360
#     4  11  22  38  58  83 119 157 203 241 288 362
#     4  10  17  33  60  81 105 150 191 240 284 342
#     4  12  22  34  60  84 112 160 202 236 296 352
#     4  10  19  37  57  83 113 148 195 243 286 357
#     4  10  21  36  58  88 117 143 193 251 300 348
#
# _framework density 17.590416000000001
#
# number of rings (size 3 to 8) (size 9 to 14) (size 15 to 20)
#    0.923    0.308    6.923    0.308    0.000    1.846 
#    0.923    0.000    0.000    0.000    0.000    0.000 
#    0.000    0.000    0.000    0.000    0.000    0.000 
#
# Total GULP energy -483222.768313 kJ/mol
# GULP energy per Si atom -12390.327393 kJ/mol
# Density = 1.755038 g / cm^3
# Si number density = 17.590416 Si / 1000 Ang^3
#
#
#
# Elastic Constant Matrix: (Units=GPa)
#
#
# Indices 1 2 3 4 5 6 
#
# 1 76.5985 30.3517 18.3818 5.9719 0.0000 0.0000
# 2 30.3517 76.5985 18.3818 -5.9719 0.0000 0.0000
# 3 18.3818 18.3818 93.3760 0.0000 0.0000 0.0000
# 4 5.9719 -5.9719 0.0000 25.3811 0.0000 0.0000
# 5 0.0000 0.0000 0.0000 0.0000 25.3811 5.9719
# 6 0.0000 0.0000 0.0000 0.0000 5.9719 23.1234
#
#
#
# Elastic Compliance Matrix: (Units=1/GPa)
#
#
# Indices 1 2 3 4 5 6 
#
# 1 0.016525 -0.006497 -0.001974 -0.005417 0.000000 0.000000
# 2 -0.006497 0.016525 -0.001974 0.005417 0.000000 0.000000
# 3 -0.001974 -0.001974 0.011487 0.000000 0.000000 0.000000
# 4 -0.005417 0.005417 0.000000 0.041948 0.000000 0.000000
# 5 0.000000 0.000000 0.000000 0.000000 0.041948 -0.010834
# 6 0.000000 0.000000 0.000000 0.000000 -0.010834 0.046044
#
#
# Mechanical properties :
#
#
# Convention : Reuss Voigt Hill
#
# Bulk Modulus (GPa) = 42.28817 42.31150 42.29983
# Shear Modulus (GPa) = 24.60008 26.74097 25.67053
#
# Velocity S-wave (km/s) = 3.74370 3.90321 3.82428
# Velocity P-wave (km/s) = 6.54062 6.66478 6.60299
#
# Compressibility (1/GPa) = 0.02364727
#
# Stress axis : x y z
#
# Youngs Moduli (GPa) = 60.51271 60.51271 87.05739
#
# Poissons Ratio (x) = 0.39313 0.17187
# Poissons Ratio (y) = 0.39313 0.17187
# Poissons Ratio (z) = 0.11947 0.11947
#
# Static dielectric constant tensor:
#      x y z
#    x 3.121260 0.000000 0.000000 
#    y 0.000000 3.121260 0.000000 
#    z 0.000000 0.000000 3.294140 
# 
# 
# High freq. dielectric constant tensor:
#      x y z
#    x 1.661700 0.000000 0.000000 
#    y 0.000000 1.661700 0.000000 
#    z 0.000000 0.000000 1.684170 
# 
# From -- ./inp_files/8539.got.cif
#   From: 2010.03.12/outbox.cif.g09.slc.cpg/sg155_5_cif.got.tgz:8539.got - 2010.04.03 13:54:13.
