data_PCOD8322162
_publ_section_title
;
Structure prediction by ZEFSAII (Michael W. Deem and Ramdas Pophale) SiO2 
 PCOD8322162
Probable space group: P 31 2 1
;
_chemical_formula_sum "Si O2"
_cell_formula_units_Z 33
_cell_length_a 13.883304
_cell_length_b 13.883304
_cell_length_c 9.397761
_cell_angle_alpha 90.000000
_cell_angle_beta 90.000000
_cell_angle_gamma 120.000000
_cell_volume 1568.702883
_symmetry_space_group_name_H-M "P 31 2 1"
_symmetry_group_IT_number 152
_symmetry_cell_setting 'hexagonal'
loop_
_space_group_symop_operation_xyz
x,y,z
-y,x-y,1/3+z
-x+y,-x,2/3+z
x-y,-y,2/3-z
-x,-x+y,1/3-z
y,x,-z
loop_
_atom_site_type_symbol
_atom_site_label
_atom_site_fract_x
_atom_site_fract_y
_atom_site_fract_z
Si Si1 0.288767 0.288767 0.000000
Si Si2 0.239214 0.706754 0.284726
Si Si3 0.726139 0.237118 0.031166
Si Si4 0.446613 0.432715 0.228391
Si Si5 0.223614 0.890280 0.755167
Si Si6 0.664731 0.593024 0.880725
O O1 0.328439 0.380084 0.875987
O O2 0.267474 0.175208 0.932152
O O3 0.307880 0.639994 0.275905
O O4 0.297132 0.803389 0.401409
O O5 0.109752 0.615282 0.318416
O O6 0.246639 0.765078 0.132989
O O7 0.625015 0.111607 0.045483
O O8 0.822940 0.263787 0.144871
O O9 0.542775 0.532353 0.139639
O O10 0.280124 0.919754 0.602740
O O11 0.246116 0.000000 0.833334
O O12 0.689235 0.689235 0.000000
#
# Coordination Sequence:
#
# PCOD8322162 Si02
#       6
#     3   6   6   6   6   6
#     4  10  22  42  66  92 124 178 212 288 346 404
#     4  12  23  42  61  99 137 179 233 279 337 411
#     4  11  25  38  64  95 134 182 222 276 334 404
#     4  11  22  40  63  94 137 175 223 274 342 403
#     4  11  23  44  67  95 129 174 229 283 347 412
#     4  12  24  39  68  96 135 178 225 275 338 418
#
# _framework density 21.036489
#
# number of rings (size 3 to 8) (size 9 to 14) (size 15 to 20)
#    0.000    0.727    2.727    6.000    0.000    1.455 
#    0.000    0.000    2.000    0.000    0.000    0.000 
#    0.000    0.000    0.000    0.000    0.000    0.000 
#
# Total GULP energy -409033.719440 kJ/mol
# GULP energy per Si atom -12394.961195 kJ/mol
# Density = 2.098861 g / cm^3
# Si number density = 21.036489 Si / 1000 Ang^3
#
#
#
# Elastic Constant Matrix: (Units=GPa)
#
#
# Indices 1 2 3 4 5 6 
#
# 1 74.1400 38.4951 39.1317 1.8751 0.0001 0.0000
# 2 38.4951 74.1400 39.1317 -1.8751 -0.0001 0.0000
# 3 39.1317 39.1317 157.4953 0.0000 0.0000 0.0000
# 4 1.8751 -1.8751 0.0000 32.6833 0.0000 -0.0001
# 5 0.0001 -0.0001 0.0000 0.0000 32.6833 1.8751
# 6 0.0000 0.0000 0.0000 -0.0001 1.8751 17.8225
#
#
#
# Elastic Compliance Matrix: (Units=1/GPa)
#
#
# Indices 1 2 3 4 5 6 
#
# 1 0.019478 -0.008747 -0.002666 -0.001619 0.000000 0.000000
# 2 -0.008747 0.019478 -0.002666 0.001619 0.000000 0.000000
# 3 -0.002666 -0.002666 0.007674 0.000000 0.000000 0.000000
# 4 -0.001619 0.001619 0.000000 0.030782 0.000000 0.000000
# 5 0.000000 0.000000 0.000000 0.000000 0.030782 -0.003239
# 6 0.000000 0.000000 0.000000 0.000000 -0.003239 0.056450
#
#
# Mechanical properties :
#
#
# Convention : Reuss Voigt Hill
#
# Bulk Modulus (GPa) = 54.13859 59.92134 57.02996
# Shear Modulus (GPa) = 25.13062 29.23894 27.18478
#
# Velocity S-wave (km/s) = 3.46008 3.73220 3.59871
# Velocity P-wave (km/s) = 6.46176 6.86431 6.66607
#
# Compressibility (1/GPa) = 0.01847111
#
# Stress axis : x y z
#
# Youngs Moduli (GPa) = 51.34039 51.34039 130.30499
#
# Poissons Ratio (x) = 0.44908 0.34742
# Poissons Ratio (y) = 0.44908 0.34742
# Poissons Ratio (z) = 0.13688 0.13688
#
# Static dielectric constant tensor:
#      x y z
#    x 3.730610 0.000000 0.000000 
#    y 0.000000 3.730610 0.000000 
#    z 0.000000 0.000000 4.125440 
# 
# 
# High freq. dielectric constant tensor:
#      x y z
#    x 1.810230 0.000000 0.000000 
#    y 0.000000 1.810230 0.000000 
#    z 0.000000 0.000000 1.853250 
# 
# From -- ./inp_files/1150.got.cif
#   From: 2010.03.12/outbox.cif.g09.slc.cpg/sg152_1_cif.got.tgz:1150.got - 2010.04.03 13:45:27.
