data_PCOD8322611
_publ_section_title
;
Structure prediction by ZEFSAII (Michael W. Deem and Ramdas Pophale) SiO2 
 PCOD8322611
Probable space group: R 3 2
;
_chemical_formula_sum "Si O2"
_cell_formula_units_Z 144
_cell_length_a 28.110222
_cell_length_b 28.110222
_cell_length_c 9.822878
_cell_angle_alpha 90.000000
_cell_angle_beta 90.000000
_cell_angle_gamma 120.000000
_cell_volume 6721.991094
_symmetry_space_group_name_H-M "R 3 2"
_symmetry_group_IT_number 155
_symmetry_cell_setting 'hexagonal'
loop_
_space_group_symop_operation_xyz
x,y,z
-y,x-y,z
-x+y,-x,z
x-y,-y,-z
-x,-x+y,-z
y,x,-z
2/3+x,1/3+y,1/3+z
2/3-y,1/3+x-y,1/3+z
2/3-x+y,1/3-x,1/3+z
2/3+x-y,1/3-y,1/3-z
2/3-x,1/3-x+y,1/3-z
2/3+y,1/3+x,1/3-z
1/3+x,2/3+y,2/3+z
1/3-y,2/3+x-y,2/3+z
1/3-x+y,2/3-x,2/3+z
1/3+x-y,2/3-y,2/3-z
1/3-x,2/3-x+y,2/3-z
1/3+y,2/3+x,2/3-z
loop_
_atom_site_type_symbol
_atom_site_label
_atom_site_fract_x
_atom_site_fract_y
_atom_site_fract_z
Si Si1 0.940862 0.121866 0.552256
Si Si2 0.762825 0.726586 0.619776
Si Si3 0.570505 0.630428 0.546877
Si Si4 0.729654 0.100507 0.048037
Si Si5 0.878144 0.819003 0.052273
Si Si6 0.517613 0.789860 0.967723
Si Si7 0.210132 0.727772 0.467697
Si Si8 0.962475 0.566207 0.118687
O O1 0.936666 0.177210 0.549357
O O2 0.896473 0.072994 0.457086
O O3 0.928468 0.100666 0.706840
O O4 0.000000 0.134089 0.500000
O O5 0.719897 0.719897 0.500000
O O6 0.750065 0.666667 0.666667
O O7 0.760248 0.760246 0.749992
O O8 0.583274 0.583274 0.500000
O O9 0.613423 0.666667 0.666667
O O10 0.510532 0.603327 0.617248
O O11 0.768957 0.102290 0.166667
O O12 0.742257 0.162128 0.036471
O O13 0.666706 0.059356 0.083497
O O14 0.745030 0.078368 0.916689
O O15 0.899366 0.827838 0.206836
O O16 0.865913 0.865913 0.000000
O O17 0.926995 0.823455 0.957068
O O18 0.476625 0.809970 0.916690
O O19 0.162102 0.742252 0.463455
O O20 0.000000 0.564491 0.000000
#
# Coordination Sequence:
#
# PCOD8322611 Si02
#       8
#    18  18  18  18  18  18  18  18
#     4  11  23  42  65  89 118 156 199 248 308 365
#     4  11  22  37  59  89 127 169 209 245 285 339
#     4  11  22  37  59  89 127 169 209 245 285 339
#     4  11  22  37  59  89 126 167 206 241 283 339
#     4  11  23  42  65  89 118 156 199 248 308 365
#     4  11  24  42  64  89 119 156 197 248 309 365
#     4  11  24  42  64  89 119 156 197 248 309 365
#     4  11  22  37  59  89 126 167 206 241 283 339
#
# _framework density 21.422224
#
# number of rings (size 3 to 8) (size 9 to 14) (size 15 to 20)
#    0.000    1.000    0.000    9.000    0.000    7.000 
#    0.000    2.500    0.000   10.000    0.000    0.000 
#    0.000    0.000    0.000    0.000    0.000    0.000 
#
# Total GULP energy -595218.950995 kJ/mol
# GULP energy per Si atom -12400.394812 kJ/mol
# Density = 2.137347 g / cm^3
# Si number density = 21.422224 Si / 1000 Ang^3
#
#
#
# Elastic Constant Matrix: (Units=GPa)
#
#
# Indices 1 2 3 4 5 6 
#
# 1 79.0170 39.6460 22.1956 -2.3826 -0.0993 0.0121
# 2 39.6460 79.0286 22.4254 2.3903 0.0557 0.0138
# 3 22.1956 22.4254 122.1932 0.0101 0.0760 0.0717
# 4 -2.3826 2.3903 0.0101 46.3362 0.0056 -0.0138
# 5 -0.0993 0.0557 0.0760 0.0056 46.3575 -2.3414
# 6 0.0121 0.0138 0.0717 -0.0138 -2.3414 19.6495
#
#
#
# Elastic Compliance Matrix: (Units=1/GPa)
#
#
# Indices 1 2 3 4 5 6 
#
# 1 0.017293 -0.008254 -0.001627 0.001315 0.000050 0.000008
# 2 -0.008254 0.017310 -0.001677 -0.001317 -0.000036 -0.000006
# 3 -0.001627 -0.001677 0.008787 0.000001 -0.000017 -0.000032
# 4 0.001315 -0.001317 0.000001 0.021717 0.000003 0.000016
# 5 0.000050 -0.000036 -0.000017 0.000003 0.021702 0.002586
# 6 0.000008 -0.000006 -0.000032 0.000016 0.002586 0.051200
#
#
# Mechanical properties :
#
#
# Convention : Reuss Voigt Hill
#
# Bulk Modulus (GPa) = 49.32186 49.86365 49.59275
# Shear Modulus (GPa) = 29.78246 35.53342 32.65794
#
# Velocity S-wave (km/s) = 3.73266 4.07715 3.90871
# Velocity P-wave (km/s) = 6.45374 6.74473 6.60084
#
# Compressibility (1/GPa) = 0.02027498
#
# Stress axis : x y z
#
# Youngs Moduli (GPa) = 57.82563 57.76968 113.80305
#
# Poissons Ratio (x) = 0.47682 0.18511
# Poissons Ratio (y) = 0.47728 0.19090
# Poissons Ratio (z) = 0.09406 0.09691
#
# Static dielectric constant tensor:
#      x y z
#    x 3.772120 -0.000020 -0.000080 
#    y -0.000020 3.772180 -0.000040 
#    z -0.000080 -0.000040 4.112140 
# 
# 
# High freq. dielectric constant tensor:
#      x y z
#    x 1.832120 0.000000 -0.000010 
#    y 0.000000 1.832130 0.000000 
#    z -0.000010 0.000000 1.865590 
# 
# From -- ./inp_files/3087.got.cif
#   From: 2010.03.12/outbox.cif.g09.slc.cpg/sg155_2_cif.got.tgz:3087.got - 2010.04.03 13:54:13.
