data_PCOD8322976
_publ_section_title
;
Structure prediction by ZEFSAII (Michael W. Deem and Ramdas Pophale) SiO2 
 PCOD8322976
Probable space group: P -3 1 M 
;
_chemical_formula_sum "Si O2"
_cell_formula_units_Z 48
_cell_length_a 18.023740
_cell_length_b 18.023740
_cell_length_c 10.239855
_cell_angle_alpha 90.000000
_cell_angle_beta 90.000000
_cell_angle_gamma 120.000000
_cell_volume 2880.807681
_symmetry_space_group_name_H-M "P -3 1 M "
_symmetry_group_IT_number 162
_symmetry_cell_setting 'hexagonal'
loop_
_space_group_symop_operation_xyz
x,y,z
-y,x-y,z
-x+y,-x,z
-y,-x,-z
-x+y,y,-z
x,x-y,-z
-x,-y,-z
y,-x+y,-z
x-y,x,-z
y,x,z
x-y,-y,z
-x,-x+y,z
loop_
_atom_site_type_symbol
_atom_site_label
_atom_site_fract_x
_atom_site_fract_y
_atom_site_fract_z
Si Si1 0.496110 0.330944 0.775564
Si Si2 0.503890 0.669056 0.775563
Si Si3 0.363622 0.267306 0.000000
Si Si4 0.540257 0.635254 0.500000
O O1 0.573013 0.426987 0.797075
O O2 0.530137 0.265069 0.803943
O O3 0.420130 0.313627 0.873166
O O4 0.458423 0.313885 0.629188
O O5 0.541577 0.686115 0.629188
O O6 0.579870 0.686373 0.873166
O O7 0.281989 0.281989 1.000000
O O8 0.331189 0.165595 0.000000
O O9 0.455517 0.544484 0.500000
O O10 0.622662 0.622662 0.500000
#
# Coordination Sequence:
#
# PCOD8322976 Si02
#       4
#    12  12  12  12
#     4  10  19  30  45  66  94 127 161 194 227 265
#     4  10  19  30  45  66  94 127 161 194 227 265
#     4  10  21  35  51  70  91 117 148 186 231 277
#     4   9  17  28  42  60  84 119 163 205 237 264
#
# _framework density 16.661994
#
# number of rings (size 3 to 8) (size 9 to 14) (size 15 to 20)
#    0.000    2.250    0.000    3.500    0.000    4.000 
#    0.000    5.000    0.000    0.250    0.000    0.000 
#    0.000    0.000    0.000    0.000    0.000   52.000 
#
# Total GULP energy -595128.944350 kJ/mol
# GULP energy per Si atom -12398.519674 kJ/mol
# Density = 1.662407 g / cm^3
# Si number density = 16.661994 Si / 1000 Ang^3
#
#
#
# Elastic Constant Matrix: (Units=GPa)
#
#
# Indices 1 2 3 4 5 6 
#
# 1 80.4867 50.3638 31.3354 0.0000 0.0000 0.0000
# 2 50.3638 80.4867 31.3354 0.0000 0.0000 0.0000
# 3 31.3354 31.3354 116.3947 0.0000 0.0000 0.0000
# 4 0.0000 0.0000 0.0000 18.7204 0.0000 0.0000
# 5 0.0000 0.0000 0.0000 0.0000 18.7204 0.0000
# 6 0.0000 0.0000 0.0000 0.0000 0.0000 15.0614
#
#
#
# Elastic Compliance Matrix: (Units=1/GPa)
#
#
# Indices 1 2 3 4 5 6 
#
# 1 0.020985 -0.012212 -0.002362 0.000000 0.000000 0.000000
# 2 -0.012212 0.020985 -0.002362 0.000000 0.000000 0.000000
# 3 -0.002362 -0.002362 0.009863 0.000000 0.000000 0.000000
# 4 0.000000 0.000000 0.000000 0.053418 0.000000 0.000000
# 5 0.000000 0.000000 0.000000 0.000000 0.053418 0.000000
# 6 0.000000 0.000000 0.000000 0.000000 0.000000 0.066395
#
#
# Mechanical properties :
#
#
# Convention : Reuss Voigt Hill
#
# Bulk Modulus (GPa) = 55.67178 55.93748 55.80463
# Shear Modulus (GPa) = 18.87337 21.45601 20.16469
#
# Velocity S-wave (km/s) = 3.36924 3.59238 3.48260
# Velocity P-wave (km/s) = 6.97285 7.13104 7.05239
#
# Compressibility (1/GPa) = 0.01796242
#
# Stress axis : x y z
#
# Youngs Moduli (GPa) = 47.65204 47.65204 101.38666
#
# Poissons Ratio (x) = 0.58192 0.23947
# Poissons Ratio (y) = 0.58192 0.23947
# Poissons Ratio (z) = 0.11255 0.11255
#
# Static dielectric constant tensor:
#      x y z
#    x 2.912580 0.000000 0.000000 
#    y 0.000000 2.912580 0.000000 
#    z 0.000000 0.000000 3.487180 
# 
# 
# High freq. dielectric constant tensor:
#      x y z
#    x 1.613670 0.000000 0.000000 
#    y 0.000000 1.613670 0.000000 
#    z 0.000000 0.000000 1.666230 
# 
# From -- ./inp_files/1184.got.cif
#   From: 2010.03.12/outbox.cif.g09.slc.cpg/sg162_1_cif.got.tgz:1184.got - 2010.04.02 06:27:41.
