data_PCOD8322365
_publ_section_title
;
Structure prediction by ZEFSAII (Michael W. Deem and Ramdas Pophale) SiO2 
 PCOD8322365
Probable space group: P 32 2 1
;
_chemical_formula_sum "Si O2"
_cell_formula_units_Z 36
_cell_length_a 9.048592
_cell_length_b 9.048592
_cell_length_c 25.908056
_cell_angle_alpha 90.000000
_cell_angle_beta 90.000000
_cell_angle_gamma 120.000000
_cell_volume 1837.077472
_symmetry_space_group_name_H-M "P 32 2 1"
_symmetry_group_IT_number 154
_symmetry_cell_setting 'hexagonal'
loop_
_space_group_symop_operation_xyz
x,y,z
-y,x-y,2/3+z
-x+y,-x,1/3+z
x-y,-y,1/3-z
-x,-x+y,2/3-z
y,x,-z
loop_
_atom_site_type_symbol
_atom_site_label
_atom_site_fract_x
_atom_site_fract_y
_atom_site_fract_z
Si Si1 0.000000 0.786088 0.333334
Si Si2 0.165124 0.939326 0.929319
Si Si3 0.000000 0.709245 0.833334
Si Si4 0.784492 0.570445 0.642041
Si Si5 0.505777 0.465857 0.222622
Si Si6 0.315252 0.677228 0.850349
Si Si7 0.500711 0.667994 0.624962
O O1 0.952637 0.860865 0.282962
O O2 0.860173 0.611896 0.357563
O O3 0.043346 0.837436 0.881711
O O4 0.366464 0.019851 0.917434
O O5 0.112853 0.816261 0.978990
O O6 0.832887 0.527077 0.846761
O O7 0.914015 0.605195 0.594735
O O8 0.612943 0.572743 0.626031
O O9 0.740964 0.391081 0.666735
O O10 0.381852 0.520424 0.194925
O O11 0.579989 0.389420 0.181356
O O12 0.223602 0.574811 0.901722
#
# Coordination Sequence:
#
# PCOD8322365 Si02
#       7
#     3   6   3   6   6   6   6
#     4  10  22  40  64  98 126 166 208 270 324 374
#     4  10  22  41  63  91 128 165 205 269 315 380
#     4  10  20  44  66  86 128 170 212 260 324 378
#     4  11  19  40  68  90 116 168 211 263 307 385
#     4  11  23  39  65  92 129 165 214 264 320 375
#     4  11  24  41  61  95 126 168 213 265 318 390
#     4  11  21  40  67  92 126 161 217 258 321 383
#
# _framework density 19.596344999999999
#
# number of rings (size 3 to 8) (size 9 to 14) (size 15 to 20)
#    0.000    1.333    6.667    1.000    2.333    0.000 
#   12.000    0.833    0.000    2.000    0.000    0.000 
#    0.000    0.000    0.000    0.000    0.000    0.000 
#
# Total GULP energy -446034.178738 kJ/mol
# GULP energy per Si atom -12389.838298 kJ/mol
# Density = 1.955174 g / cm^3
# Si number density = 19.596345 Si / 1000 Ang^3
#
#
#
# Elastic Constant Matrix: (Units=GPa)
#
#
# Indices 1 2 3 4 5 6 
#
# 1 13.2358 -31.8376 -43.6949 -8.3835 0.0001 0.0000
# 2 -31.8376 13.2358 -43.6949 8.3835 -0.0001 0.0000
# 3 -43.6949 -43.6949 6.2429 0.0000 0.0000 0.0000
# 4 -8.3835 8.3835 0.0000 16.5611 0.0000 -0.0001
# 5 0.0001 -0.0001 0.0000 0.0000 16.5611 -8.3835
# 6 0.0000 0.0000 0.0000 -0.0001 -8.3835 22.5367
#
#
#
# Elastic Compliance Matrix: (Units=1/GPa)
#
#
# Indices 1 2 3 4 5 6 
#
# 1 0.012873 -0.014460 -0.011105 0.013837 0.000000 0.000000
# 2 -0.014460 0.012873 -0.011105 -0.013837 0.000000 0.000000
# 3 -0.011105 -0.011105 0.004728 0.000000 0.000000 0.000000
# 4 0.013837 -0.013837 0.000000 0.074391 0.000000 0.000000
# 5 0.000000 0.000000 0.000000 0.000000 0.074391 0.027673
# 6 0.000000 0.000000 0.000000 0.000000 0.027673 0.054666
#
#
# Mechanical properties :
#
#
# Convention : Reuss Voigt Hill
#
# Bulk Modulus (GPa) = -23.32821 -22.86004 -23.09412
# Shear Modulus (GPa) = 17.06629 21.26123 19.16376
#
# Velocity S-wave (km/s) = 2.95429 3.29745 3.13057
# Velocity P-wave (km/s) = 0.54140 1.67533 1.12108
#
# Compressibility (1/GPa) = -0.04286656
#
# Stress axis : x y z
#
# Youngs Moduli (GPa) = 77.68046 77.68045 211.51775
#
# Poissons Ratio (x) = 1.12325 2.34896
# Poissons Ratio (y) = 1.12325 2.34896
# Poissons Ratio (z) = 0.86266 0.86266
#
# Static dielectric constant tensor:
#      x y z
#    x 4.725670 0.000000 0.000000 
#    y 0.000000 4.725670 0.000000 
#    z 0.000000 0.000000 3.812820 
# 
# 
# High freq. dielectric constant tensor:
#      x y z
#    x 1.758930 0.000000 0.000000 
#    y 0.000000 1.758930 0.000000 
#    z 0.000000 0.000000 1.777470 
# 
# From -- ./inp_files/3501.got.cif
#   From: 2010.03.12/outbox.cif.g09.slc.cpg/sg154_2_cif.got.tgz:3501.got - 2010.04.03 13:51:21.
