data_PCOD8322349
_publ_section_title
;
Structure prediction by ZEFSAII (Michael W. Deem and Ramdas Pophale) SiO2 
 PCOD8322349
Probable space group: P 32 2 1
;
_chemical_formula_sum "Si O2"
_cell_formula_units_Z 36
_cell_length_a 9.147646
_cell_length_b 9.147646
_cell_length_c 23.124854
_cell_angle_alpha 90.000000
_cell_angle_beta 90.000000
_cell_angle_gamma 120.000000
_cell_volume 1675.823710
_symmetry_space_group_name_H-M "P 32 2 1"
_symmetry_group_IT_number 154
_symmetry_cell_setting 'hexagonal'
loop_
_space_group_symop_operation_xyz
x,y,z
-y,x-y,2/3+z
-x+y,-x,1/3+z
x-y,-y,1/3-z
-x,-x+y,2/3-z
y,x,-z
loop_
_atom_site_type_symbol
_atom_site_label
_atom_site_fract_x
_atom_site_fract_y
_atom_site_fract_z
Si Si1 0.074667 0.345015 0.581437
Si Si2 0.609395 0.157373 0.207840
Si Si3 0.709455 0.393169 0.432462
Si Si4 0.026780 0.026757 0.768779
Si Si5 0.337627 0.002182 0.545965
Si Si6 0.302538 0.979688 0.291859
O O1 0.252122 0.519804 0.586583
O O2 0.083832 0.173463 0.577347
O O3 0.981379 0.352223 0.523327
O O4 0.976356 0.332987 0.639937
O O5 0.572330 0.278484 0.167462
O O6 0.802047 0.260809 0.230827
O O7 0.582862 0.000000 0.166667
O O8 0.480932 0.104800 0.261075
O O9 0.767198 0.559007 0.395567
O O10 0.867696 0.368729 0.420481
O O11 0.000000 0.077938 0.833334
O O12 0.214607 0.063613 0.765581
O O13 0.018632 0.152775 0.722159
#
# Coordination Sequence:
#
# PCOD8322349 Si02
#       6
#     6   6   6   6   6   6
#     4  10  23  41  62  88 123 159 200 250 299 356
#     4   9  19  39  62  86 123 164 200 240 299 370
#     4  10  22  39  61  90 121 158 202 247 299 358
#     4  10  20  38  64  88 118 163 204 238 295 370
#     4  10  21  40  64  86 116 164 208 240 290 364
#     4  11  22  39  64  94 122 154 197 253 306 352
#
# _framework density 21.481973
#
# number of rings (size 3 to 8) (size 9 to 14) (size 15 to 20)
#    0.000    2.000    0.000    5.500    0.000   10.667 
#    0.000    4.167    0.000    6.000    0.000    0.000 
#    0.000    0.000    0.000    0.000    0.000    0.000 
#
# Total GULP energy -446000.273265 kJ/mol
# GULP energy per Si atom -12388.896480 kJ/mol
# Density = 2.143308 g / cm^3
# Si number density = 21.481973 Si / 1000 Ang^3
#
#
#
# Elastic Constant Matrix: (Units=GPa)
#
#
# Indices 1 2 3 4 5 6 
#
# 1 117.1888 66.9731 31.0504 -0.9998 -0.0001 0.0000
# 2 66.9731 117.1888 31.0504 0.9998 0.0001 0.0000
# 3 31.0504 31.0504 72.1067 0.0000 0.0000 0.0000
# 4 -0.9998 0.9998 0.0000 11.6914 0.0000 0.0001
# 5 -0.0001 0.0001 0.0000 0.0000 11.6914 -0.9998
# 6 0.0000 0.0000 0.0000 0.0001 -0.9998 25.1078
#
#
#
# Elastic Compliance Matrix: (Units=1/GPa)
#
#
# Indices 1 2 3 4 5 6 
#
# 1 0.013167 -0.006815 -0.002735 0.001709 0.000000 0.000000
# 2 -0.006815 0.013167 -0.002735 -0.001709 0.000000 0.000000
# 3 -0.002735 -0.002735 0.016224 0.000000 0.000000 0.000000
# 4 0.001709 -0.001709 0.000000 0.085825 0.000000 0.000000
# 5 0.000000 0.000000 0.000000 0.000000 0.085825 0.003417
# 6 0.000000 0.000000 0.000000 0.000000 0.003417 0.039964
#
#
# Mechanical properties :
#
#
# Convention : Reuss Voigt Hill
#
# Bulk Modulus (GPa) = 55.59505 62.73688 59.16597
# Shear Modulus (GPa) = 17.55986 21.52550 19.54268
#
# Velocity S-wave (km/s) = 2.86216 3.16891 3.01944
# Velocity P-wave (km/s) = 6.07114 6.53125 6.30539
#
# Compressibility (1/GPa) = 0.01798721
#
# Stress axis : x y z
#
# Youngs Moduli (GPa) = 75.94583 75.94583 61.63626
#
# Poissons Ratio (x) = 0.51756 0.16860
# Poissons Ratio (y) = 0.51756 0.16860
# Poissons Ratio (z) = 0.20775 0.20775
#
# Static dielectric constant tensor:
#      x y z
#    x 3.790530 0.000000 0.000000 
#    y 0.000000 3.790530 0.000000 
#    z 0.000000 0.000000 3.929840 
# 
# 
# High freq. dielectric constant tensor:
#      x y z
#    x 1.842510 0.000000 0.000000 
#    y 0.000000 1.842510 0.000000 
#    z 0.000000 0.000000 1.829550 
# 
# From -- ./inp_files/3413.got.cif
#   From: 2010.03.12/outbox.cif.g09.slc.cpg/sg154_2_cif.got.tgz:3413.got - 2010.04.03 13:51:21.
