data_PCOD8322529
_publ_section_title
;
Structure prediction by ZEFSAII (Michael W. Deem and Ramdas Pophale) SiO2 
 PCOD8322529
Probable space group: R 3 2
;
_chemical_formula_sum "Si O2"
_cell_formula_units_Z 75
_cell_length_a 14.072883
_cell_length_b 14.072883
_cell_length_c 21.001673
_cell_angle_alpha 90.000000
_cell_angle_beta 90.000000
_cell_angle_gamma 120.000000
_cell_volume 3602.057804
_symmetry_space_group_name_H-M "R 3 2"
_symmetry_group_IT_number 155
_symmetry_cell_setting 'hexagonal'
loop_
_space_group_symop_operation_xyz
x,y,z
-y,x-y,z
-x+y,-x,z
x-y,-y,-z
-x,-x+y,-z
y,x,-z
2/3+x,1/3+y,1/3+z
2/3-y,1/3+x-y,1/3+z
2/3-x+y,1/3-x,1/3+z
2/3+x-y,1/3-y,1/3-z
2/3-x,1/3-x+y,1/3-z
2/3+y,1/3+x,1/3-z
1/3+x,2/3+y,2/3+z
1/3-y,2/3+x-y,2/3+z
1/3-x+y,2/3-x,2/3+z
1/3+x-y,2/3-y,2/3-z
1/3-x,2/3-x+y,2/3-z
1/3+y,2/3+x,2/3-z
loop_
_atom_site_type_symbol
_atom_site_label
_atom_site_fract_x
_atom_site_fract_y
_atom_site_fract_z
Si Si1 0.666668 0.333334 0.671239
Si Si2 0.242051 0.090955 0.337273
Si Si3 0.344906 0.972503 0.570044
Si Si4 0.940688 0.780324 0.127484
Si Si5 0.000000 0.728261 0.000000
Si Si6 0.666668 0.333334 0.521916
O O1 0.785509 0.362273 0.696421
O O2 0.666668 0.333334 0.596507
O O3 0.316063 0.083025 0.391875
O O4 0.254985 0.033252 0.273084
O O5 0.278961 0.219554 0.325632
O O6 0.385478 0.885176 0.564623
O O7 0.319376 0.000000 0.500000
O O8 0.906004 0.666667 0.166667
O O9 0.013948 0.794603 0.065345
O O10 0.005028 0.891153 0.168637
#
# Coordination Sequence:
#
# PCOD8322529 Si02
#       6
#     6  18  18  18   9   6
#     4  12  24  39  53  80 117 162 207 229 266 352
#     4  10  22  37  59  84 115 151 190 236 287 343
#     4   9  18  39  62  83 111 144 185 243 298 341
#     4  10  21  37  61  90 116 147 192 241 300 362
#     4  10  20  38  58  86 120 144 184 248 300 350
#     4  12  21  34  61  85 115 156 189 241 302 349
#
# _framework density 20.821431
#
# number of rings (size 3 to 8) (size 9 to 14) (size 15 to 20)
#    0.000    1.920    0.000    5.760    0.000    4.800 
#    0.000    8.400    0.000    0.000    0.000    0.000 
#    0.000    0.000    0.000    0.000    0.000    0.000 
#
# Total GULP energy -309745.999773 kJ/mol
# GULP energy per Si atom -12389.839991 kJ/mol
# Density = 2.077404 g / cm^3
# Si number density = 20.821431 Si / 1000 Ang^3
#
#
#
# Elastic Constant Matrix: (Units=GPa)
#
#
# Indices 1 2 3 4 5 6 
#
# 1 79.5274 35.7529 20.7341 -1.3809 -0.0001 0.0000
# 2 35.7529 79.5274 20.7340 1.3803 0.0001 0.0000
# 3 20.7341 20.7340 111.9041 -0.0005 0.0000 0.0000
# 4 -1.3809 1.3803 -0.0005 23.9304 0.0000 0.0001
# 5 -0.0001 0.0001 0.0000 0.0000 23.9299 -1.3806
# 6 0.0000 0.0000 0.0000 0.0001 -1.3806 21.8877
#
#
#
# Elastic Compliance Matrix: (Units=1/GPa)
#
#
# Indices 1 2 3 4 5 6 
#
# 1 0.016111 -0.006817 -0.001722 0.001323 0.000000 0.000000
# 2 -0.006817 0.016111 -0.001722 -0.001323 0.000000 0.000000
# 3 -0.001722 -0.001722 0.009574 0.000000 0.000000 0.000000
# 4 0.001323 -0.001323 0.000000 0.041941 0.000000 0.000000
# 5 0.000000 0.000000 0.000000 0.000000 0.041941 0.002646
# 6 0.000000 0.000000 0.000000 0.000000 0.002646 0.045855
#
#
# Mechanical properties :
#
#
# Convention : Reuss Voigt Hill
#
# Bulk Modulus (GPa) = 47.00540 47.26678 47.13609
# Shear Modulus (GPa) = 25.10723 26.86546 25.98635
#
# Velocity S-wave (km/s) = 3.47628 3.59594 3.53662
# Velocity P-wave (km/s) = 6.22392 6.32387 6.27410
#
# Compressibility (1/GPa) = 0.02127415
#
# Stress axis : x y z
#
# Youngs Moduli (GPa) = 62.06986 62.06991 104.44569
#
# Poissons Ratio (x) = 0.42313 0.17986
# Poissons Ratio (y) = 0.42313 0.17986
# Poissons Ratio (z) = 0.10689 0.10689
#
# Static dielectric constant tensor:
#      x y z
#    x 3.640370 0.000000 0.000000 
#    y 0.000000 3.640380 0.000000 
#    z 0.000000 0.000000 3.986500 
# 
# 
# High freq. dielectric constant tensor:
#      x y z
#    x 1.798330 0.000000 0.000000 
#    y 0.000000 1.798330 0.000000 
#    z 0.000000 0.000000 1.821580 
# 
# From -- ./inp_files/6842.got.cif
#   From: 2010.03.12/outbox.cif.g09.slc.cpg/sg155_4_cif.got.tgz:6842.got - 2010.04.03 13:54:13.
