data_PCOD8322231
_publ_section_title
;
Structure prediction by ZEFSAII (Michael W. Deem and Ramdas Pophale) SiO2 
 PCOD8322231
Probable space group: P 31 2 1
;
_chemical_formula_sum "Si O2"
_cell_formula_units_Z 12
_cell_length_a 7.509298
_cell_length_b 7.509298
_cell_length_c 8.176132
_cell_angle_alpha 90.000000
_cell_angle_beta 90.000000
_cell_angle_gamma 120.000000
_cell_volume 399.279676
_symmetry_space_group_name_H-M "P 31 2 1"
_symmetry_group_IT_number 152
_symmetry_cell_setting 'hexagonal'
loop_
_space_group_symop_operation_xyz
x,y,z
-y,x-y,1/3+z
-x+y,-x,2/3+z
x-y,-y,2/3-z
-x,-x+y,1/3-z
y,x,-z
loop_
_atom_site_type_symbol
_atom_site_label
_atom_site_fract_x
_atom_site_fract_y
_atom_site_fract_z
Si Si1 0.765267 0.924713 0.627852
Si Si2 0.596816 0.209856 0.530605
O O1 0.757370 0.757370 0.500000
O O2 0.646544 0.789786 0.790075
O O3 0.640154 0.023380 0.545131
O O4 0.000000 0.089315 0.666667
O O5 0.669247 0.303551 0.350736
#
# Coordination Sequence:
#
# PCOD8322231 Si02
#       2
#     6   6
#     4  12  29  54  86 130 176 231 298 360 442 530
#     4  12  30  56  87 130 177 232 295 364 448 526
#
# _framework density 30.054123000000001
#
# number of rings (size 3 to 8) (size 9 to 14) (size 15 to 20)
#    0.000    0.000    0.000    7.500   21.000    0.000 
#    0.000    0.000    0.000    0.000    0.000    0.000 
#    0.000    0.000    0.000    0.000    0.000    0.000 
#
# Total GULP energy -148761.468975 kJ/mol
# GULP energy per Si atom -12396.789081 kJ/mol
# Density = 2.998572 g / cm^3
# Si number density = 30.054123 Si / 1000 Ang^3
#
#
#
# Elastic Constant Matrix: (Units=GPa)
#
#
# Indices 1 2 3 4 5 6 
#
# 1 170.0657 74.2686 29.7365 10.2385 0.0001 0.0000
# 2 74.2686 170.0657 29.7365 -10.2385 -0.0001 0.0000
# 3 29.7365 29.7365 163.8289 0.0000 0.0000 0.0000
# 4 10.2385 -10.2385 0.0000 38.6227 0.0000 -0.0001
# 5 0.0001 -0.0001 0.0000 0.0000 38.6227 10.2385
# 6 0.0000 0.0000 0.0000 -0.0001 10.2385 47.8985
#
#
#
# Elastic Compliance Matrix: (Units=1/GPa)
#
#
# Indices 1 2 3 4 5 6 
#
# 1 0.007674 -0.003392 -0.000777 -0.002933 0.000000 0.000000
# 2 -0.003392 0.007674 -0.000777 0.002933 0.000000 0.000000
# 3 -0.000777 -0.000777 0.006386 0.000000 0.000000 0.000000
# 4 -0.002933 0.002933 0.000000 0.027447 0.000000 0.000000
# 5 0.000000 0.000000 0.000000 0.000000 0.027447 -0.005867
# 6 0.000000 0.000000 0.000000 0.000000 -0.005867 0.022132
#
#
# Mechanical properties :
#
#
# Convention : Reuss Voigt Hill
#
# Bulk Modulus (GPa) = 84.45167 85.71594 85.08381
# Shear Modulus (GPa) = 44.40555 49.71003 47.05779
#
# Velocity S-wave (km/s) = 3.84802 4.07137 3.96127
# Velocity P-wave (km/s) = 6.92126 7.11926 7.02096
#
# Compressibility (1/GPa) = 0.01184109
#
# Stress axis : x y z
#
# Youngs Moduli (GPa) = 130.31262 130.31262 156.59077
#
# Poissons Ratio (x) = 0.44201 0.12170
# Poissons Ratio (y) = 0.44201 0.12170
# Poissons Ratio (z) = 0.10128 0.10128
#
# Static dielectric constant tensor:
#      x y z
#    x 5.670630 0.000000 0.000000 
#    y 0.000000 5.670630 0.000000 
#    z 0.000000 0.000000 6.395320 
# 
# 
# High freq. dielectric constant tensor:
#      x y z
#    x 2.238880 0.000000 0.000000 
#    y 0.000000 2.238880 0.000000 
#    z 0.000000 0.000000 2.250690 
# 
# From -- ./inp_files/630.got.cif
#   From: 2010.03.12/outbox.cif.g09.slc.cpg/sg152_1_cif.got.tgz:630.got - 2010.04.03 13:45:27.
