data_PCOD8322760
_publ_section_title
;
Structure prediction by ZEFSAII (Michael W. Deem and Ramdas Pophale) SiO2 
 PCOD8322760
Probable space group: P 3 C 1
;
_chemical_formula_sum "Si O2"
_cell_formula_units_Z 30
_cell_length_a 8.343131
_cell_length_b 8.343131
_cell_length_c 23.975447
_cell_angle_alpha 90.000000
_cell_angle_beta 90.000000
_cell_angle_gamma 120.000000
_cell_volume 1445.291572
_symmetry_space_group_name_H-M "P 3 C 1"
_symmetry_group_IT_number 158
_symmetry_cell_setting 'hexagonal'
loop_
_space_group_symop_operation_xyz
x,y,z
-y,x-y,z
-x+y,-x,z
-x+y,y,1/2+z
x,x-y,1/2+z
-y,-x,1/2+z
loop_
_atom_site_type_symbol
_atom_site_label
_atom_site_fract_x
_atom_site_fract_y
_atom_site_fract_z
Si Si1 0.998790 0.666017 0.900270
Si Si2 0.667227 0.001210 0.353272
Si Si3 0.977339 0.194174 0.626771
Si Si4 0.866046 0.546644 0.019305
Si Si5 0.680598 0.133954 0.234237
O O1 0.792743 0.585485 0.876771
O O2 0.077718 0.538859 0.876771
O O3 0.128223 0.871777 0.876771
O O4 0.988397 0.666278 0.967195
O O5 0.677880 0.011602 0.286347
O O6 0.969243 0.305477 0.573528
O O7 0.969243 0.305477 0.680014
O O8 0.170853 0.191344 0.626771
O O9 0.654114 0.508677 0.018496
O O10 0.854563 0.345886 0.235046
#
# Coordination Sequence:
#
# PCOD8322760 Si02
#       5
#     6   6   6   6   6
#     4  12  24  42  65 101 136 181 232 292 351 418
#     4  12  24  42  65 101 136 181 232 292 351 418
#     4  10  24  36  62 102 126 162 232 288 332 404
#     4  10  21  42  68  87 130 183 229 269 347 419
#     4  10  21  42  68  87 130 183 229 269 347 419
#
# _framework density 20.757059000000002
#
# number of rings (size 3 to 8) (size 9 to 14) (size 15 to 20)
#    1.200    0.000    4.000    2.400    5.600    0.000 
#    0.000    0.000    0.000    6.400    0.000    0.000 
#    0.000    0.000    0.000    0.000    0.000    0.000 
#
# Total GULP energy -371900.573395 kJ/mol
# GULP energy per Si atom -12396.685780 kJ/mol
# Density = 2.070981 g / cm^3
# Si number density = 20.757059 Si / 1000 Ang^3
#
#
#
# Elastic Constant Matrix: (Units=GPa)
#
#
# Indices 1 2 3 4 5 6 
#
# 1 69.4186 15.1102 45.7381 0.0000 0.0000 0.0000
# 2 15.1102 69.4186 45.7381 0.0000 0.0000 0.0000
# 3 45.7381 45.7381 220.4743 0.0000 0.0000 0.0000
# 4 0.0000 0.0000 0.0000 33.9361 0.0000 0.0000
# 5 0.0000 0.0000 0.0000 0.0000 33.9361 0.0000
# 6 0.0000 0.0000 0.0000 0.0000 0.0000 27.1542
#
#
#
# Elastic Compliance Matrix: (Units=1/GPa)
#
#
# Indices 1 2 3 4 5 6 
#
# 1 0.016834 -0.001579 -0.003165 0.000000 0.000000 0.000000
# 2 -0.001579 0.016834 -0.003165 0.000000 0.000000 0.000000
# 3 -0.003165 -0.003165 0.005849 0.000000 0.000000 0.000000
# 4 0.000000 0.000000 0.000000 0.029467 0.000000 0.000000
# 5 0.000000 0.000000 0.000000 0.000000 0.029467 0.000000
# 6 0.000000 0.000000 0.000000 0.000000 0.000000 0.036827
#
#
# Mechanical properties :
#
#
# Convention : Reuss Voigt Hill
#
# Bulk Modulus (GPa) = 42.19397 63.60939 52.90168
# Shear Modulus (GPa) = 31.44747 35.85363 33.65055
#
# Velocity S-wave (km/s) = 3.89656 4.16059 4.03073
# Velocity P-wave (km/s) = 6.37306 7.33429 6.87051
#
# Compressibility (1/GPa) = 0.02370007
#
# Stress axis : x y z
#
# Youngs Moduli (GPa) = 59.40276 59.40276 170.97698
#
# Poissons Ratio (x) = 0.09380 0.54109
# Poissons Ratio (y) = 0.09380 0.54109
# Poissons Ratio (z) = 0.18799 0.18799
#
# Static dielectric constant tensor:
#      x y z
#    x 3.414910 0.000000 0.000000 
#    y 0.000000 3.414910 0.000000 
#    z 0.000000 0.000000 3.710820 
# 
# 
# High freq. dielectric constant tensor:
#      x y z
#    x 1.793820 0.000000 0.000000 
#    y 0.000000 1.793820 0.000000 
#    z 0.000000 0.000000 1.824420 
# 
# From -- ./inp_files/727.got.cif
#   From: 2010.03.12/outbox.cif.g09.slc.cpg/sg158_cif.got.tgz:727.got - 2010.04.03 13:59:47.
