data_PCOD8322622
_publ_section_title
;
Structure prediction by ZEFSAII (Michael W. Deem and Ramdas Pophale) SiO2 
 PCOD8322622
Probable space group: R 3 2
;
_chemical_formula_sum "Si O2"
_cell_formula_units_Z 69
_cell_length_a 21.448746
_cell_length_b 21.448746
_cell_length_c 7.494966
_cell_angle_alpha 90.000000
_cell_angle_beta 90.000000
_cell_angle_gamma 120.000000
_cell_volume 2986.098376
_symmetry_space_group_name_H-M "R 3 2"
_symmetry_group_IT_number 155
_symmetry_cell_setting 'hexagonal'
loop_
_space_group_symop_operation_xyz
x,y,z
-y,x-y,z
-x+y,-x,z
x-y,-y,-z
-x,-x+y,-z
y,x,-z
2/3+x,1/3+y,1/3+z
2/3-y,1/3+x-y,1/3+z
2/3-x+y,1/3-x,1/3+z
2/3+x-y,1/3-y,1/3-z
2/3-x,1/3-x+y,1/3-z
2/3+y,1/3+x,1/3-z
1/3+x,2/3+y,2/3+z
1/3-y,2/3+x-y,2/3+z
1/3-x+y,2/3-x,2/3+z
1/3+x-y,2/3-y,2/3-z
1/3-x,2/3-x+y,2/3-z
1/3+y,2/3+x,2/3-z
loop_
_atom_site_type_symbol
_atom_site_label
_atom_site_fract_x
_atom_site_fract_y
_atom_site_fract_z
Si Si1 0.237630 0.290779 0.159774
Si Si2 0.490393 0.540016 0.342225
Si Si3 0.000000 0.000000 0.287166
Si Si4 0.865214 0.012555 0.291130
Si Si5 0.666667 0.616027 0.833334
O O1 0.287222 0.333334 0.333334
O O2 0.170084 0.211961 0.204037
O O3 0.284341 0.284341 0.000000
O O4 0.210485 0.342561 0.091091
O O5 0.541769 0.541769 0.500000
O O6 0.427597 0.552548 0.420911
O O7 0.536829 0.600747 0.200075
O O8 0.928138 0.998991 0.214803
O O9 0.000000 0.000000 0.500000
O O10 0.858262 0.000000 0.500000
O O11 0.681233 0.666667 0.666667
#
# Coordination Sequence:
#
# PCOD8322622 Si02
#       5
#    18  18   6  18   9
#     4  12  26  46  73 113 155 197 251 317 396 461
#     4  12  26  46  75 109 149 195 253 314 389 464
#     4   9  24  45  70 104 139 198 256 299 377 446
#     4  11  24  44  71 106 146 197 246 313 375 454
#     4  12  28  50  72 104 144 202 254 314 380 454
#
# _framework density 23.107073
#
# number of rings (size 3 to 8) (size 9 to 14) (size 15 to 20)
#    0.000    0.522    6.522    0.783    5.478    3.130 
#    0.000    1.304    0.000    0.000    0.000    0.000 
#    0.000    0.000    0.000    0.000    0.000    0.000 
#
# Total GULP energy -285191.437472 kJ/mol
# GULP energy per Si atom -12399.627716 kJ/mol
# Density = 2.305448 g / cm^3
# Si number density = 23.107073 Si / 1000 Ang^3
#
#
#
# Elastic Constant Matrix: (Units=GPa)
#
#
# Indices 1 2 3 4 5 6 
#
# 1 163.5413 83.6019 38.4990 9.1763 -0.0200 0.0038
# 2 83.6019 163.5689 38.5781 -9.1479 0.0003 0.0082
# 3 38.4990 38.5781 119.6422 0.0640 0.0606 0.0175
# 4 9.1763 -9.1479 0.0640 20.6333 0.0384 -0.0030
# 5 -0.0200 0.0003 0.0606 0.0384 20.6832 9.1627
# 6 0.0038 0.0082 0.0175 -0.0030 9.1627 39.9623
#
#
#
# Elastic Compliance Matrix: (Units=1/GPa)
#
#
# Indices 1 2 3 4 5 6 
#
# 1 0.009210 -0.004713 -0.001441 -0.006181 0.000027 -0.000006
# 2 -0.004713 0.009212 -0.001457 0.006185 -0.000013 0.000003
# 3 -0.001441 -0.001457 0.009292 -0.000034 -0.000030 0.000003
# 4 -0.006181 0.006185 -0.000034 0.053957 -0.000120 0.000031
# 5 0.000027 -0.000013 -0.000030 -0.000120 0.053815 -0.012339
# 6 -0.000006 0.000003 0.000003 0.000031 -0.012339 0.027853
#
#
# Mechanical properties :
#
#
# Convention : Reuss Voigt Hill
#
# Bulk Modulus (GPa) = 80.05098 85.34560 82.69829
# Shear Modulus (GPa) = 27.36363 35.32732 31.34547
#
# Velocity S-wave (km/s) = 3.44497 3.91430 3.68711
# Velocity P-wave (km/s) = 7.10932 7.57918 7.34801
#
# Compressibility (1/GPa) = 0.01249204
#
# Stress axis : x y z
#
# Youngs Moduli (GPa) = 108.57707 108.55156 107.62332
#
# Poissons Ratio (x) = 0.51164 0.15504
# Poissons Ratio (y) = 0.51176 0.15681
# Poissons Ratio (z) = 0.15641 0.15817
#
# Static dielectric constant tensor:
#      x y z
#    x 4.454290 -0.000080 -0.000600 
#    y -0.000080 4.454340 -0.000200 
#    z -0.000600 -0.000200 4.464780 
# 
# 
# High freq. dielectric constant tensor:
#      x y z
#    x 1.922360 0.000000 -0.000010 
#    y 0.000000 1.922370 0.000000 
#    z -0.000010 0.000000 1.914490 
# 
# From -- ./inp_files/2172.got.cif
#   From: 2010.03.12/outbox.cif.g09.slc.cpg/sg155_2_cif.got.tgz:2172.got - 2010.04.03 13:54:13.
