data_PCOD8322253
_publ_section_title
;
Structure prediction by ZEFSAII (Michael W. Deem and Ramdas Pophale) SiO2 
 PCOD8322253
Probable space group: P 32 1 2
;
_chemical_formula_sum "Si O2"
_cell_formula_units_Z 36
_cell_length_a 16.623655
_cell_length_b 16.623655
_cell_length_c 9.797563
_cell_angle_alpha 90.000000
_cell_angle_beta 90.000000
_cell_angle_gamma 120.000000
_cell_volume 2344.778000
_symmetry_space_group_name_H-M "P 32 1 2"
_symmetry_group_IT_number 153
_symmetry_cell_setting 'hexagonal'
loop_
_space_group_symop_operation_xyz
x,y,z
-y,x-y,2/3+z
-x+y,-x,1/3+z
-y,-x,1/3-z
-x+y,y,2/3-z
x,x-y,-z
loop_
_atom_site_type_symbol
_atom_site_label
_atom_site_fract_x
_atom_site_fract_y
_atom_site_fract_z
Si Si1 0.642703 0.470501 0.794377
Si Si2 0.534881 0.360163 0.040412
Si Si3 0.769552 0.651575 0.205792
Si Si4 0.834633 0.859790 0.623409
Si Si5 0.335994 0.221904 0.624916
Si Si6 0.869400 0.852824 0.202857
O O1 0.593332 0.406669 0.666667
O O2 0.729008 0.458016 0.833334
O O3 0.678940 0.579077 0.760627
O O4 0.569432 0.435572 0.919362
O O5 0.603485 0.396516 0.166667
O O6 0.430902 0.334660 0.090504
O O7 0.527861 0.263931 0.000000
O O8 0.835563 0.671125 0.333334
O O9 0.777766 0.751521 0.175681
O O10 0.806851 0.620643 0.075005
O O11 0.796765 0.898383 0.500000
O O12 0.767506 0.748847 0.646228
O O13 0.939058 0.879592 0.590631
O O14 0.837056 0.909359 0.767090
O O15 0.297783 0.148892 0.500000
O O16 0.925656 0.851312 0.333334
#
# Coordination Sequence:
#
# PCOD8322253 Si02
#       6
#     6   6   6   6   6   6
#     4  11  20  29  41  60  85 114 149 183 216 255
#     4  11  19  27  42  60  80 111 149 183 211 254
#     4   9  17  30  43  57  81 112 143 177 219 264
#     4   9  17  28  43  60  81 111 146 181 216 263
#     4  10  20  31  42  61  90 114 139 187 239 259
#     4   8  15  27  41  58  77 102 140 177 207 251
#
# _framework density 15.353265
#
# number of rings (size 3 to 8) (size 9 to 14) (size 15 to 20)
#    0.000    2.333    0.000    7.000    0.000    3.333 
#    0.000    2.500    0.000    0.000    0.000    0.000 
#    0.000    0.000    0.000    4.500    0.000   14.333 
#
# Total GULP energy -446004.083447 kJ/mol
# GULP energy per Si atom -12389.002318 kJ/mol
# Density = 1.531832 g / cm^3
# Si number density = 15.353265 Si / 1000 Ang^3
#
#
#
# Elastic Constant Matrix: (Units=GPa)
#
#
# Indices 1 2 3 4 5 6 
#
# 1 100.7062 31.5551 29.4052 -0.0003 6.3556 0.0000
# 2 31.5551 100.7062 29.4052 0.0003 -6.3556 0.0000
# 3 29.4052 29.4052 78.8342 0.0000 0.0000 0.0000
# 4 -0.0003 0.0003 0.0000 22.8286 0.0000 -6.3556
# 5 6.3556 -6.3556 0.0000 0.0000 22.8286 -0.0003
# 6 0.0000 0.0000 0.0000 -6.3556 -0.0003 34.5755
#
#
#
# Elastic Compliance Matrix: (Units=1/GPa)
#
#
# Indices 1 2 3 4 5 6 
#
# 1 0.012153 -0.003088 -0.003381 0.000000 -0.004243 0.000000
# 2 -0.003088 0.012153 -0.003381 0.000000 0.004243 0.000000
# 3 -0.003381 -0.003381 0.015207 0.000000 0.000000 0.000000
# 4 0.000000 0.000000 0.000000 0.046167 0.000000 0.008486
# 5 -0.004243 0.004243 0.000000 0.000000 0.046167 0.000000
# 6 0.000000 0.000000 0.000000 0.008486 0.000000 0.030482
#
#
# Mechanical properties :
#
#
# Convention : Reuss Voigt Hill
#
# Bulk Modulus (GPa) = 50.47552 51.21973 50.84763
# Shear Modulus (GPa) = 26.50643 28.70528 27.60585
#
# Velocity S-wave (km/s) = 4.15955 4.32864 4.24494
# Velocity P-wave (km/s) = 7.48442 7.64304 7.56415
#
# Compressibility (1/GPa) = 0.01981158
#
# Stress axis : x y z
#
# Youngs Moduli (GPa) = 82.28693 82.28693 65.75901
#
# Poissons Ratio (x) = 0.25414 0.22233
# Poissons Ratio (y) = 0.25414 0.22233
# Poissons Ratio (z) = 0.27821 0.27821
#
# Static dielectric constant tensor:
#      x y z
#    x 3.012590 0.000000 0.000000 
#    y 0.000000 3.012590 0.000000 
#    z 0.000000 0.000000 3.393080 
# 
# 
# High freq. dielectric constant tensor:
#      x y z
#    x 1.551360 0.000000 0.000000 
#    y 0.000000 1.551360 0.000000 
#    z 0.000000 0.000000 1.611480 
# 
# From -- ./inp_files/1844.got.cif
#   From: 2010.03.12/outbox.cif.g09.slc.cpg/sg153_1_cif.got.tgz:1844.got - 2010.04.03 13:48:33.
