data_PCOD8322747
_publ_section_title
;
Structure prediction by ZEFSAII (Michael W. Deem and Ramdas Pophale) SiO2 
 PCOD8322747
Probable space group: P 3 C 1
;
_chemical_formula_sum "Si O2"
_cell_formula_units_Z 48
_cell_length_a 18.767005
_cell_length_b 18.767005
_cell_length_c 8.634442
_cell_angle_alpha 90.000000
_cell_angle_beta 90.000000
_cell_angle_gamma 120.000000
_cell_volume 2633.630528
_symmetry_space_group_name_H-M "P 3 C 1"
_symmetry_group_IT_number 158
_symmetry_cell_setting 'hexagonal'
loop_
_space_group_symop_operation_xyz
x,y,z
-y,x-y,z
-x+y,-x,z
-x+y,y,1/2+z
x,x-y,1/2+z
-y,-x,1/2+z
loop_
_atom_site_type_symbol
_atom_site_label
_atom_site_fract_x
_atom_site_fract_y
_atom_site_fract_z
Si Si1 0.332722 0.515107 0.216790
Si Si2 0.334955 0.241340 0.714737
Si Si3 0.148937 0.999348 0.849560
Si Si4 0.758660 0.093615 0.350807
Si Si5 0.484893 0.817615 0.848753
Si Si6 0.148937 0.149589 0.715984
Si Si7 0.422792 0.427408 0.348826
Si Si8 0.422792 0.995384 0.216717
O O1 0.394558 0.605442 0.282772
O O2 0.242252 0.484505 0.282772
O O3 0.359162 0.450597 0.273712
O O4 0.333019 0.518399 0.032772
O O5 0.334550 0.233500 0.532772
O O6 0.369237 0.184618 0.782772
O O7 0.242196 0.210704 0.773359
O O8 0.394911 0.334767 0.767820
O O9 0.242196 0.031492 0.792184
O O10 0.117603 0.058802 0.782772
O O11 0.091999 0.908001 0.782772
O O12 0.142217 0.997144 0.032772
O O13 0.665233 0.060144 0.297724
O O14 0.549403 0.908565 0.791831
O O15 0.514173 0.485827 0.282772
O O16 0.422206 0.437736 0.532772
#
# Coordination Sequence:
#
# PCOD8322747 Si02
#       8
#     6   6   6   6   6   6   6   6
#     4  11  21  34  51  74 104 141 180 219 257 300
#     4   9  20  36  55  77 103 131 167 208 252 304
#     4  10  19  32  48  70  99 135 172 210 247 287
#     4   9  20  36  55  77 103 131 167 208 252 304
#     4  11  21  34  51  74 104 141 180 219 257 300
#     4  10  19  32  48  70  99 135 172 210 247 287
#     4  10  20  36  55  79 105 133 168 209 255 309
#     4  10  20  36  55  79 105 133 168 209 255 309
#
# _framework density 18.22579
#
# number of rings (size 3 to 8) (size 9 to 14) (size 15 to 20)
#    0.000    2.000    0.000    5.750    0.000    4.000 
#    0.000    2.500    0.000    0.500    0.000    0.000 
#    0.000    0.000    0.000    0.000    0.000    0.000 
#
# Total GULP energy -595315.519485 kJ/mol
# GULP energy per Si atom -12402.406656 kJ/mol
# Density = 1.818431 g / cm^3
# Si number density = 18.225790 Si / 1000 Ang^3
#
#
#
# Elastic Constant Matrix: (Units=GPa)
#
#
# Indices 1 2 3 4 5 6 
#
# 1 128.6356 83.1541 45.9764 0.0000 0.0000 0.0000
# 2 83.1541 128.6356 45.9764 0.0000 0.0000 0.0000
# 3 45.9764 45.9764 101.3129 0.0000 0.0000 0.0000
# 4 0.0000 0.0000 0.0000 28.5743 0.0000 0.0000
# 5 0.0000 0.0000 0.0000 0.0000 28.5743 0.0000
# 6 0.0000 0.0000 0.0000 0.0000 0.0000 22.7407
#
#
#
# Elastic Compliance Matrix: (Units=1/GPa)
#
#
# Indices 1 2 3 4 5 6 
#
# 1 0.013934 -0.008053 -0.002668 0.000000 0.000000 0.000000
# 2 -0.008053 0.013934 -0.002668 0.000000 0.000000 0.000000
# 3 -0.002668 -0.002668 0.012292 0.000000 0.000000 0.000000
# 4 0.000000 0.000000 0.000000 0.034997 0.000000 0.000000
# 5 0.000000 0.000000 0.000000 0.000000 0.034997 0.000000
# 6 0.000000 0.000000 0.000000 0.000000 0.000000 0.043974
#
#
# Mechanical properties :
#
#
# Convention : Reuss Voigt Hill
#
# Bulk Modulus (GPa) = 74.74457 78.75530 76.74994
# Shear Modulus (GPa) = 26.97352 28.20966 27.59159
#
# Velocity S-wave (km/s) = 3.85120 3.93846 3.89508
# Velocity P-wave (km/s) = 7.80225 7.99917 7.90132
#
# Compressibility (1/GPa) = 0.01337890
#
# Stress axis : x y z
#
# Youngs Moduli (GPa) = 71.76887 71.76887 81.35134
#
# Poissons Ratio (x) = 0.57798 0.21708
# Poissons Ratio (y) = 0.57798 0.21708
# Poissons Ratio (z) = 0.19151 0.19151
#
# Static dielectric constant tensor:
#      x y z
#    x 3.393030 0.000000 0.000000 
#    y 0.000000 3.393030 0.000000 
#    z 0.000000 0.000000 3.404630 
# 
# 
# High freq. dielectric constant tensor:
#      x y z
#    x 1.695500 0.000000 0.000000 
#    y 0.000000 1.695500 0.000000 
#    z 0.000000 0.000000 1.719310 
# 
# From -- ./inp_files/233.got.cif
#   From: 2010.03.12/outbox.cif.g09.slc.cpg/sg158_cif.got.tgz:233.got - 2010.04.03 13:59:47.
