data_PCOD8322793
_publ_section_title
;
Structure prediction by ZEFSAII (Michael W. Deem and Ramdas Pophale) SiO2 
 PCOD8322793
Probable space group: P 3 1 C
;
_chemical_formula_sum "Si O2"
_cell_formula_units_Z 28
_cell_length_a 13.795238
_cell_length_b 13.795238
_cell_length_c 8.994035
_cell_angle_alpha 90.000000
_cell_angle_beta 90.000000
_cell_angle_gamma 120.000000
_cell_volume 1482.325569
_symmetry_space_group_name_H-M "P 3 1 C"
_symmetry_group_IT_number 159
_symmetry_cell_setting 'hexagonal'
loop_
_space_group_symop_operation_xyz
x,y,z
-y,x-y,z
-x+y,-x,z
y,x,1/2+z
x-y,-y,1/2+z
-x,-x+y,1/2+z
loop_
_atom_site_type_symbol
_atom_site_label
_atom_site_fract_x
_atom_site_fract_y
_atom_site_fract_z
Si Si1 0.664318 0.114159 0.356090
Si Si2 0.772734 0.884328 0.507752
Si Si3 0.664318 0.114159 0.008844
Si Si4 0.333334 0.666668 0.505107
Si Si5 0.333334 0.666668 0.859824
Si Si6 0.111595 0.227267 0.857182
O O1 0.639436 0.098162 0.182467
O O2 0.652456 0.216853 0.419671
O O3 0.789415 0.141233 0.392425
O O4 0.572257 0.000000 0.432467
O O5 0.648183 0.858768 0.472509
O O6 0.796387 0.890311 0.682467
O O7 0.785267 0.785267 0.432467
O O8 0.862918 0.000000 0.432467
O O9 0.652457 0.216853 0.945262
O O10 0.333334 0.666667 0.682466
#
# Coordination Sequence:
#
# PCOD8322793 Si02
#       6
#     6   6   6   2   2   6
#     4   9  19  35  54  75 102 133 167 206 249 296
#     4  10  19  31  48  72 101 134 169 208 251 297
#     4   9  19  35  54  75 102 133 167 206 249 296
#     4   9  18  36  58  77 100 135 169 200 247 303
#     4   9  18  36  58  77 100 135 169 200 247 303
#     4  10  19  31  48  72 101 134 169 208 251 297
#
# _framework density 18.889239
#
# number of rings (size 3 to 8) (size 9 to 14) (size 15 to 20)
#    0.000    2.571    0.000    1.714    0.000    3.429 
#    0.000    2.143    0.000    0.000    0.000    0.000 
#    0.000    0.000    0.000    0.000    0.000    0.000 
#
# Total GULP energy -347251.998699 kJ/mol
# GULP energy per Si atom -12401.857096 kJ/mol
# Density = 1.884625 g / cm^3
# Si number density = 18.889239 Si / 1000 Ang^3
#
#
#
# Elastic Constant Matrix: (Units=GPa)
#
#
# Indices 1 2 3 4 5 6 
#
# 1 140.6966 86.3024 44.7879 0.0001 0.0001 0.0000
# 2 86.3024 140.6976 44.7879 0.0000 0.0000 0.0009
# 3 44.7879 44.7879 59.3612 0.0000 0.0000 0.0001
# 4 0.0001 0.0000 0.0000 24.2572 -0.0001 0.0000
# 5 0.0001 0.0000 0.0000 -0.0001 24.2573 0.0000
# 6 0.0000 0.0009 0.0001 0.0000 0.0000 27.1978
#
#
#
# Elastic Compliance Matrix: (Units=1/GPa)
#
#
# Indices 1 2 3 4 5 6 
#
# 1 0.012329 -0.006056 -0.004733 0.000000 0.000000 0.000000
# 2 -0.006056 0.012328 -0.004733 0.000000 0.000000 0.000000
# 3 -0.004733 -0.004733 0.023988 0.000000 0.000000 0.000000
# 4 0.000000 0.000000 0.000000 0.041225 0.000000 0.000000
# 5 0.000000 0.000000 0.000000 0.000000 0.041225 0.000000
# 6 0.000000 0.000000 0.000000 0.000000 0.000000 0.036768
#
#
# Mechanical properties :
#
#
# Convention : Reuss Voigt Hill
#
# Bulk Modulus (GPa) = 56.81118 76.94576 66.87847
# Shear Modulus (GPa) = 24.41733 26.13427 25.27580
#
# Velocity S-wave (km/s) = 3.59926 3.72365 3.66198
# Velocity P-wave (km/s) = 6.88579 7.70137 7.30497
#
# Compressibility (1/GPa) = 0.01760217
#
# Stress axis : x y z
#
# Youngs Moduli (GPa) = 81.11219 81.11288 41.68759
#
# Poissons Ratio (x) = 0.49119 0.19731
# Poissons Ratio (y) = 0.49118 0.19730
# Poissons Ratio (z) = 0.38390 0.38390
#
# Static dielectric constant tensor:
#      x y z
#    x 3.527290 -0.000010 0.000000 
#    y -0.000010 3.527280 0.000000 
#    z 0.000000 0.000000 3.316330 
# 
# 
# High freq. dielectric constant tensor:
#      x y z
#    x 1.733400 0.000000 0.000000 
#    y 0.000000 1.733400 0.000000 
#    z 0.000000 0.000000 1.720230 
# 
# From -- ./inp_files/365.got.cif
#   From: 2010.03.12/outbox.cif.g09.slc.cpg/sg159_cif.got.tgz:365.got - 2010.04.03 14:00:19.
