data_PCOD8322597
_publ_section_title
;
Structure prediction by ZEFSAII (Michael W. Deem and Ramdas Pophale) SiO2 
 PCOD8322597
Probable space group: R 3 2
;
_chemical_formula_sum "Si O2"
_cell_formula_units_Z 60
_cell_length_a 13.928918
_cell_length_b 13.928918
_cell_length_c 15.304053
_cell_angle_alpha 90.000000
_cell_angle_beta 90.000000
_cell_angle_gamma 120.000000
_cell_volume 2571.413124
_symmetry_space_group_name_H-M "R 3 2"
_symmetry_group_IT_number 155
_symmetry_cell_setting 'hexagonal'
loop_
_space_group_symop_operation_xyz
x,y,z
-y,x-y,z
-x+y,-x,z
x-y,-y,-z
-x,-x+y,-z
y,x,-z
2/3+x,1/3+y,1/3+z
2/3-y,1/3+x-y,1/3+z
2/3-x+y,1/3-x,1/3+z
2/3+x-y,1/3-y,1/3-z
2/3-x,1/3-x+y,1/3-z
2/3+y,1/3+x,1/3-z
1/3+x,2/3+y,2/3+z
1/3-y,2/3+x-y,2/3+z
1/3-x+y,2/3-x,2/3+z
1/3+x-y,2/3-y,2/3-z
1/3-x,2/3-x+y,2/3-z
1/3+y,2/3+x,2/3-z
loop_
_atom_site_type_symbol
_atom_site_label
_atom_site_fract_x
_atom_site_fract_y
_atom_site_fract_z
Si Si1 0.333334 0.666668 0.771711
Si Si2 0.739318 0.957143 0.632376
Si Si3 0.494405 0.041033 0.865377
Si Si4 0.549269 0.726519 0.876644
O O1 0.333334 0.666668 0.666667
O O2 0.456620 0.710022 0.807268
O O3 0.676969 0.872607 0.553942
O O4 0.792039 0.911011 0.702587
O O5 0.640148 0.973482 0.666667
O O6 0.841353 0.075763 0.603198
O O7 0.465154 0.131820 0.833334
O O8 0.390421 0.929913 0.903653
O O9 0.666667 0.805678 0.833334
#
# Coordination Sequence:
#
# PCOD8322597 Si02
#       4
#     6  18  18  18
#     4  12  30  48  72 118 152 193 258 312 384 450
#     4  11  26  47  78 107 152 193 255 307 380 445
#     4  10  26  49  74 109 150 199 247 316 374 449
#     4  11  28  48  79 108 150 203 249 311 381 455
#
# _framework density 23.333475
#
# number of rings (size 3 to 8) (size 9 to 14) (size 15 to 20)
#    0.000    1.200    0.000    1.800   21.000    2.400 
#    7.200    0.000    0.000    0.000    0.000    0.000 
#    0.000    0.000    0.000    0.000    0.000    0.000 
#
# Total GULP energy -248053.738015 kJ/mol
# GULP energy per Si atom -12402.686901 kJ/mol
# Density = 2.328037 g / cm^3
# Si number density = 23.333475 Si / 1000 Ang^3
#
#
#
# Elastic Constant Matrix: (Units=GPa)
#
#
# Indices 1 2 3 4 5 6 
#
# 1 149.7682 78.0974 69.6499 2.7600 0.0002 0.0000
# 2 78.0974 149.7672 69.6500 -2.7596 -0.0002 0.0000
# 3 69.6499 69.6500 133.1885 -0.0005 0.0000 0.0000
# 4 2.7600 -2.7596 -0.0005 42.5960 0.0000 -0.0002
# 5 0.0002 -0.0002 0.0000 0.0000 42.5964 2.7600
# 6 0.0000 0.0000 0.0000 -0.0002 2.7600 35.8347
#
#
#
# Elastic Compliance Matrix: (Units=1/GPa)
#
#
# Indices 1 2 3 4 5 6 
#
# 1 0.010237 -0.003786 -0.003373 -0.000909 0.000000 0.000000
# 2 -0.003786 0.010237 -0.003373 0.000908 0.000000 0.000000
# 3 -0.003373 -0.003373 0.011036 0.000000 0.000000 0.000000
# 4 -0.000909 0.000908 0.000000 0.023594 0.000000 0.000000
# 5 0.000000 0.000000 0.000000 0.000000 0.023594 -0.001817
# 6 0.000000 0.000000 0.000000 0.000000 -0.001817 0.028046
#
#
# Mechanical properties :
#
#
# Convention : Reuss Voigt Hill
#
# Bulk Modulus (GPa) = 95.74552 96.39096 96.06824
# Shear Modulus (GPa) = 38.08340 38.56053 38.32196
#
# Velocity S-wave (km/s) = 4.04435 4.06961 4.05700
# Velocity P-wave (km/s) = 7.93295 7.96757 7.95028
#
# Compressibility (1/GPa) = 0.01044435
#
# Stress axis : x y z
#
# Youngs Moduli (GPa) = 97.68734 97.68648 90.60970
#
# Poissons Ratio (x) = 0.36984 0.30566
# Poissons Ratio (y) = 0.36984 0.30567
# Poissons Ratio (z) = 0.32954 0.32954
#
# Static dielectric constant tensor:
#      x y z
#    x 4.363410 0.000000 0.000000 
#    y 0.000000 4.363440 0.000000 
#    z 0.000000 0.000000 4.237480 
# 
# 
# High freq. dielectric constant tensor:
#      x y z
#    x 1.934320 0.000000 0.000000 
#    y 0.000000 1.934320 0.000000 
#    z 0.000000 0.000000 1.934750 
# 
# From -- ./inp_files/4748.got.cif
#   From: 2010.03.12/outbox.cif.g09.slc.cpg/sg155_3_cif.got.tgz:4748.got - 2010.04.03 13:54:13.
