data_PCOD8322381
_publ_section_title
;
Structure prediction by ZEFSAII (Michael W. Deem and Ramdas Pophale) SiO2 
 PCOD8322381
Probable space group: P 32 2 1
;
_chemical_formula_sum "Si O2"
_cell_formula_units_Z 48
_cell_length_a 11.392375
_cell_length_b 11.392375
_cell_length_c 18.806544
_cell_angle_alpha 90.000000
_cell_angle_beta 90.000000
_cell_angle_gamma 120.000000
_cell_volume 2113.820816
_symmetry_space_group_name_H-M "P 32 2 1"
_symmetry_group_IT_number 154
_symmetry_cell_setting 'hexagonal'
loop_
_space_group_symop_operation_xyz
x,y,z
-y,x-y,2/3+z
-x+y,-x,1/3+z
x-y,-y,1/3-z
-x,-x+y,2/3-z
y,x,-z
loop_
_atom_site_type_symbol
_atom_site_label
_atom_site_fract_x
_atom_site_fract_y
_atom_site_fract_z
Si Si1 0.459596 0.556813 0.714453
Si Si2 0.692084 0.545512 0.973591
Si Si3 0.240654 0.973279 0.958678
Si Si4 0.597598 0.294008 0.071989
Si Si5 0.259009 0.279545 0.310786
Si Si6 0.688861 0.797811 0.556563
Si Si7 0.661451 0.222044 0.527298
Si Si8 0.251437 0.163734 0.837934
O O1 0.616904 0.590574 0.717700
O O2 0.418001 0.580900 0.635816
O O3 0.364728 0.399520 0.732158
O O4 0.426015 0.646214 0.767193
O O5 0.614564 0.413854 0.021981
O O6 0.855792 0.618937 0.971701
O O7 0.656733 0.656733 0.000000
O O8 0.632680 0.487108 0.896216
O O9 0.220706 0.031604 0.883792
O O10 0.102470 0.833651 0.975241
O O11 0.272325 0.066974 0.028021
O O12 0.458978 0.240996 0.115983
O O13 0.728965 0.356561 0.121134
O O14 0.142935 0.226508 0.248259
O O15 0.691596 0.691596 0.500000
O O16 0.801376 0.943237 0.531681
O O17 0.714062 0.117226 0.517304
#
# Coordination Sequence:
#
# PCOD8322381 Si02
#       8
#     6   6   6   6   6   6   6   6
#     4   9  23  39  68 101 138 173 229 293 346 408
#     4  11  25  43  64  97 139 182 228 285 341 417
#     4  10  24  42  65 103 140 176 231 293 341 414
#     4  10  21  41  66 100 134 176 230 288 350 405
#     4  12  24  44  70  98 138 190 231 280 351 420
#     4  11  21  37  67 100 134 180 231 291 344 407
#     4  10  21  41  70 100 132 177 231 289 345 417
#     4  11  22  42  67  99 133 188 229 279 346 413
#
# _framework density 22.707697
#
# number of rings (size 3 to 8) (size 9 to 14) (size 15 to 20)
#    0.000    1.500    2.500    2.625    3.500    2.000 
#    2.250    0.000    0.000    0.000    0.000    0.000 
#    0.000    0.000    0.000    0.000    0.000    0.000 
#
# Total GULP energy -594744.558678 kJ/mol
# GULP energy per Si atom -12390.511639 kJ/mol
# Density = 2.265601 g / cm^3
# Si number density = 22.707697 Si / 1000 Ang^3
#
#
#
# Elastic Constant Matrix: (Units=GPa)
#
#
# Indices 1 2 3 4 5 6 
#
# 1 78.3822 26.6789 15.0771 -0.4307 0.0000 0.0000
# 2 26.6789 78.3822 15.0771 0.4307 0.0000 0.0000
# 3 15.0771 15.0771 73.8873 0.0000 0.0000 0.0000
# 4 -0.4307 0.4307 0.0000 21.0322 0.0000 0.0000
# 5 0.0000 0.0000 0.0000 0.0000 21.0322 -0.4307
# 6 0.0000 0.0000 0.0000 0.0000 -0.4307 25.8516
#
#
#
# Elastic Compliance Matrix: (Units=1/GPa)
#
#
# Indices 1 2 3 4 5 6 
#
# 1 0.014729 -0.004619 -0.002063 0.000396 0.000000 0.000000
# 2 -0.004619 0.014729 -0.002063 -0.000396 0.000000 0.000000
# 3 -0.002063 -0.002063 0.014376 0.000000 0.000000 0.000000
# 4 0.000396 -0.000396 0.000000 0.047562 0.000000 0.000000
# 5 0.000000 0.000000 0.000000 0.000000 0.047562 0.000792
# 6 0.000000 0.000000 0.000000 0.000000 0.000792 0.038695
#
#
# Mechanical properties :
#
#
# Convention : Reuss Voigt Hill
#
# Bulk Modulus (GPa) = 37.95845 38.25752 38.10798
# Shear Modulus (GPa) = 24.51876 25.17113 24.84494
#
# Velocity S-wave (km/s) = 3.28953 3.33300 3.31134
# Velocity P-wave (km/s) = 5.58394 5.62994 5.60699
#
# Compressibility (1/GPa) = 0.02634460
#
# Stress axis : x y z
#
# Youngs Moduli (GPa) = 67.89293 67.89293 69.55990
#
# Poissons Ratio (x) = 0.31357 0.14351
# Poissons Ratio (y) = 0.31357 0.14351
# Poissons Ratio (z) = 0.14007 0.14007
#
# Static dielectric constant tensor:
#      x y z
#    x 4.087800 0.000000 0.000000 
#    y 0.000000 4.087800 0.000000 
#    z 0.000000 0.000000 3.874970 
# 
# 
# High freq. dielectric constant tensor:
#      x y z
#    x 1.890380 0.000000 0.000000 
#    y 0.000000 1.890380 0.000000 
#    z 0.000000 0.000000 1.899020 
# 
# From -- ./inp_files/2881.got.cif
#   From: 2010.03.12/outbox.cif.g09.slc.cpg/sg154_2_cif.got.tgz:2881.got - 2010.04.03 13:51:21.
