data_PCOD8322284
_publ_section_title
;
Structure prediction by ZEFSAII (Michael W. Deem and Ramdas Pophale) SiO2 
 PCOD8322284
Probable space group: P 32 1 2
;
_chemical_formula_sum "Si O2"
_cell_formula_units_Z 36
_cell_length_a 8.741352
_cell_length_b 8.741352
_cell_length_c 26.109991
_cell_angle_alpha 90.000000
_cell_angle_beta 90.000000
_cell_angle_gamma 120.000000
_cell_volume 1727.804384
_symmetry_space_group_name_H-M "P 32 1 2"
_symmetry_group_IT_number 153
_symmetry_cell_setting 'hexagonal'
loop_
_space_group_symop_operation_xyz
x,y,z
-y,x-y,2/3+z
-x+y,-x,1/3+z
-y,-x,1/3-z
-x+y,y,2/3-z
x,x-y,-z
loop_
_atom_site_type_symbol
_atom_site_label
_atom_site_fract_x
_atom_site_fract_y
_atom_site_fract_z
Si Si1 0.641116 0.820558 0.000000
Si Si2 0.131753 0.670900 0.371652
Si Si3 0.819569 0.409785 0.500000
Si Si4 0.048843 0.524422 0.000000
Si Si5 0.759679 0.519357 0.333334
Si Si6 0.188515 0.165882 0.433241
Si Si7 0.718352 0.801940 0.196785
Si Si8 0.558587 0.321569 0.587629
O O1 0.517470 0.881042 0.970905
O O2 0.773692 0.819435 0.957552
O O3 0.264140 0.820950 0.332537
O O4 0.193542 0.750127 0.429460
O O5 0.939154 0.645369 0.363159
O O6 0.709844 0.420869 0.546749
O O7 0.916764 0.305179 0.518677
O O8 0.930647 0.453499 0.949713
O O9 0.792012 0.397267 0.293550
O O10 0.174012 0.295065 0.474951
O O11 0.378873 0.185018 0.441422
O O12 0.050438 0.955145 0.443839
#
# Coordination Sequence:
#
# PCOD8322284 Si02
#       8
#     3   6   3   3   3   6   6   6
#     4  11  24  42  73 100 136 188 231 282 354 407
#     4  11  22  44  67 102 137 177 231 285 338 418
#     4  12  24  44  70  92 136 182 228 280 346 418
#     4  10  24  42  67  99 132 180 232 280 342 409
#     4  11  22  42  70 101 132 176 227 280 342 398
#     4  11  24  45  69 100 139 183 228 287 346 411
#     4  11  24  43  66 100 135 178 226 284 343 407
#     4  11  23  43  67  96 134 184 223 277 344 418
#
# _framework density 20.835694
#
# number of rings (size 3 to 8) (size 9 to 14) (size 15 to 20)
#    0.000    1.000    5.000    2.000    0.000    0.667 
#    6.000    0.000    0.000    2.000    0.000    0.000 
#    0.000    0.000    0.000    0.000    0.000    0.000 
#
# Total GULP energy -446013.478441 kJ/mol
# GULP energy per Si atom -12389.263290 kJ/mol
# Density = 2.078827 g / cm^3
# Si number density = 20.835694 Si / 1000 Ang^3
#
#
#
# Elastic Constant Matrix: (Units=GPa)
#
#
# Indices 1 2 3 4 5 6 
#
# 1 106.2225 65.3630 53.4041 0.0003 0.3919 0.0000
# 2 65.3630 106.2225 53.4041 -0.0003 -0.3919 0.0000
# 3 53.4041 53.4041 126.9244 0.0000 0.0000 0.0000
# 4 0.0003 -0.0003 0.0000 41.6944 0.0000 -0.3919
# 5 0.3919 -0.3919 0.0000 0.0000 41.6944 0.0003
# 6 0.0000 0.0000 0.0000 -0.3919 0.0003 20.4297
#
#
#
# Elastic Compliance Matrix: (Units=1/GPa)
#
#
# Indices 1 2 3 4 5 6 
#
# 1 0.016187 -0.008291 -0.003322 0.000000 -0.000230 0.000000
# 2 -0.008291 0.016187 -0.003322 0.000000 0.000230 0.000000
# 3 -0.003322 -0.003322 0.010674 0.000000 0.000000 0.000000
# 4 0.000000 0.000000 0.000000 0.023988 0.000000 0.000460
# 5 -0.000230 0.000230 0.000000 0.000000 0.023988 0.000000
# 6 0.000000 0.000000 0.000000 0.000460 0.000000 0.048957
#
#
# Mechanical properties :
#
#
# Convention : Reuss Voigt Hill
#
# Bulk Modulus (GPa) = 75.88778 75.96797 75.92787
# Shear Modulus (GPa) = 28.69490 31.91027 30.30259
#
# Velocity S-wave (km/s) = 3.71509 3.91771 3.81774
# Velocity P-wave (km/s) = 7.40970 7.55011 7.48023
#
# Compressibility (1/GPa) = 0.01317735
#
# Stress axis : x y z
#
# Youngs Moduli (GPa) = 61.77682 61.77682 93.68155
#
# Poissons Ratio (x) = 0.51221 0.31124
# Poissons Ratio (y) = 0.51221 0.31124
# Poissons Ratio (z) = 0.20524 0.20524
#
# Static dielectric constant tensor:
#      x y z
#    x 3.767280 0.000000 0.000000 
#    y 0.000000 3.767280 0.000000 
#    z 0.000000 0.000000 4.095890 
# 
# 
# High freq. dielectric constant tensor:
#      x y z
#    x 1.806940 0.000000 0.000000 
#    y 0.000000 1.806940 0.000000 
#    z 0.000000 0.000000 1.834150 
# 
# From -- ./inp_files/4819.got.cif
#   From: 2010.03.12/outbox.cif.g09.slc.cpg/sg153_3_cif.got.tgz:4819.got - 2010.04.03 13:48:33.
