data_PCOD8322786
_publ_section_title
;
Structure prediction by ZEFSAII (Michael W. Deem and Ramdas Pophale) SiO2 
 PCOD8322786
Probable space group: P 3 1 C
;
_chemical_formula_sum "Si O2"
_cell_formula_units_Z 36
_cell_length_a 16.284212
_cell_length_b 16.284212
_cell_length_c 8.727448
_cell_angle_alpha 90.000000
_cell_angle_beta 90.000000
_cell_angle_gamma 120.000000
_cell_volume 2004.247714
_symmetry_space_group_name_H-M "P 3 1 C"
_symmetry_group_IT_number 159
_symmetry_cell_setting 'hexagonal'
loop_
_space_group_symop_operation_xyz
x,y,z
-y,x-y,z
-x+y,-x,z
y,x,1/2+z
x-y,-y,1/2+z
-x,-x+y,1/2+z
loop_
_atom_site_type_symbol
_atom_site_label
_atom_site_fract_x
_atom_site_fract_y
_atom_site_fract_z
Si Si1 0.285209 0.386087 0.635050
Si Si2 0.386088 0.100878 0.135050
Si Si3 0.100878 0.386088 0.989636
Si Si4 0.895514 0.447757 0.630696
Si Si5 0.447757 0.895514 0.493989
Si Si6 0.386087 0.285210 0.489635
O O1 0.173264 0.346528 0.612222
O O2 0.340677 0.490860 0.556950
O O3 0.311120 0.311120 0.562343
O O4 0.313694 0.397426 0.812343
O O5 0.397427 0.083733 0.312343
O O6 0.490860 0.150182 0.056950
O O7 0.311120 1.000000 0.062343
O O8 0.150183 0.490860 0.067736
O O9 0.173264 0.346528 0.012463
O O10 0.849817 0.509140 0.567735
O O11 1.000000 0.500000 0.562343
O O12 0.892859 0.446430 0.812343
#
# Coordination Sequence:
#
# PCOD8322786 Si02
#       6
#     6   6   6   6   6   6
#     4  10  20  34  53  76 103 136 171 210 256 302
#     4  10  20  34  53  76 103 136 171 210 256 302
#     4  10  20  34  53  76 103 136 171 210 256 302
#     4  10  18  30  50  72  98 130 164 204 248 296
#     4  10  18  30  50  72  98 130 164 204 248 296
#     4  10  20  34  53  76 103 136 171 210 256 302
#
# _framework density 17.961852
#
# number of rings (size 3 to 8) (size 9 to 14) (size 15 to 20)
#    0.000    2.000    0.000    9.000    0.000    5.333 
#    2.000    0.000    0.000    0.667    0.000    0.000 
#    0.000    0.000    0.000    0.000    0.000    0.000 
#
# Total GULP energy -446133.391102 kJ/mol
# GULP energy per Si atom -12392.594197 kJ/mol
# Density = 1.792097 g / cm^3
# Si number density = 17.961852 Si / 1000 Ang^3
#
#
#
# Elastic Constant Matrix: (Units=GPa)
#
#
# Indices 1 2 3 4 5 6 
#
# 1 93.8483 46.7599 56.1964 0.0000 0.0000 0.0000
# 2 46.7599 93.8483 56.1964 0.0000 0.0000 0.0000
# 3 56.1964 56.1964 177.0795 0.0000 0.0000 0.0000
# 4 0.0000 0.0000 0.0000 27.8424 0.0000 0.0000
# 5 0.0000 0.0000 0.0000 0.0000 27.8424 0.0000
# 6 0.0000 0.0000 0.0000 0.0000 0.0000 23.5442
#
#
#
# Elastic Compliance Matrix: (Units=1/GPa)
#
#
# Indices 1 2 3 4 5 6 
#
# 1 0.015383 -0.005854 -0.003024 0.000000 0.000000 0.000000
# 2 -0.005854 0.015383 -0.003024 0.000000 0.000000 0.000000
# 3 -0.003024 -0.003024 0.007567 0.000000 0.000000 0.000000
# 4 0.000000 0.000000 0.000000 0.035916 0.000000 0.000000
# 5 0.000000 0.000000 0.000000 0.000000 0.035916 0.000000
# 6 0.000000 0.000000 0.000000 0.000000 0.000000 0.042473
#
#
# Mechanical properties :
#
#
# Convention : Reuss Voigt Hill
#
# Bulk Modulus (GPa) = 68.82972 75.89794 72.36383
# Shear Modulus (GPa) = 27.58081 29.55402 28.56741
#
# Velocity S-wave (km/s) = 3.92282 4.06073 3.99237
# Velocity P-wave (km/s) = 7.67601 8.02077 7.85029
#
# Compressibility (1/GPa) = 0.01452861
#
# Stress axis : x y z
#
# Youngs Moduli (GPa) = 65.00702 65.00702 132.15988
#
# Poissons Ratio (x) = 0.38053 0.39967
# Poissons Ratio (y) = 0.38053 0.39967
# Poissons Ratio (z) = 0.19659 0.19659
#
# Static dielectric constant tensor:
#      x y z
#    x 3.502220 0.000000 0.000000 
#    y 0.000000 3.502220 0.000000 
#    z 0.000000 0.000000 3.520080 
# 
# 
# High freq. dielectric constant tensor:
#      x y z
#    x 1.676330 0.000000 0.000000 
#    y 0.000000 1.676330 0.000000 
#    z 0.000000 0.000000 1.720200 
# 
# From -- ./inp_files/424.got.cif
#   From: 2010.03.12/outbox.cif.g09.slc.cpg/sg159_cif.got.tgz:424.got - 2010.04.03 14:00:19.
