data_PCOD8322561
_publ_section_title
;
Structure prediction by ZEFSAII (Michael W. Deem and Ramdas Pophale) SiO2 
 PCOD8322561
Probable space group: R 3 2
;
_chemical_formula_sum "Si O2"
_cell_formula_units_Z 90
_cell_length_a 23.479100
_cell_length_b 23.479100
_cell_length_c 8.946850
_cell_angle_alpha 90.000000
_cell_angle_beta 90.000000
_cell_angle_gamma 120.000000
_cell_volume 4271.335438
_symmetry_space_group_name_H-M "R 3 2"
_symmetry_group_IT_number 155
_symmetry_cell_setting 'hexagonal'
loop_
_space_group_symop_operation_xyz
x,y,z
-y,x-y,z
-x+y,-x,z
x-y,-y,-z
-x,-x+y,-z
y,x,-z
2/3+x,1/3+y,1/3+z
2/3-y,1/3+x-y,1/3+z
2/3-x+y,1/3-x,1/3+z
2/3+x-y,1/3-y,1/3-z
2/3-x,1/3-x+y,1/3-z
2/3+y,1/3+x,1/3-z
1/3+x,2/3+y,2/3+z
1/3-y,2/3+x-y,2/3+z
1/3-x+y,2/3-x,2/3+z
1/3+x-y,2/3-y,2/3-z
1/3-x,2/3-x+y,2/3-z
1/3+y,2/3+x,2/3-z
loop_
_atom_site_type_symbol
_atom_site_label
_atom_site_fract_x
_atom_site_fract_y
_atom_site_fract_z
Si Si1 0.524802 0.457652 0.932440
Si Si2 0.312444 0.542906 0.327768
Si Si3 0.116007 0.021503 0.160427
Si Si4 0.544209 0.560100 0.343639
Si Si5 0.761921 0.784892 0.201031
O O1 0.516116 0.386081 0.970566
O O2 0.534238 0.478236 0.757090
O O3 0.463552 0.463552 0.000000
O O4 0.592872 0.510655 0.002080
O O5 0.333334 0.575575 0.166667
O O6 0.372195 0.572590 0.448820
O O7 0.261272 0.564110 0.381767
O O8 0.182847 0.019900 0.145883
O O9 0.078292 0.000000 0.000000
O O10 0.519669 0.519669 0.500000
O O11 0.601961 0.551265 0.270935
O O12 0.585429 0.637167 0.385665
#
# Coordination Sequence:
#
# PCOD8322561 Si02
#       5
#    18  18  18  18  18
#     4   9  21  39  56  80 116 157 204 254 304 369
#     4  11  22  37  61  87 117 162 209 259 320 388
#     4  11  22  39  57  85 122 159 204 259 316 379
#     4  11  20  32  51  79 114 157 194 234 290 355
#     4  10  22  35  53  81 120 159 195 238 297 373
#
# _framework density 21.070692999999999
#
# number of rings (size 3 to 8) (size 9 to 14) (size 15 to 20)
#    0.000    1.600    0.000    5.200    0.000    9.600 
#    0.000    2.000    0.000    0.000    0.000   16.800 
#    0.000    0.000    0.000    0.000    0.000    0.000 
#
# Total GULP energy -371670.300652 kJ/mol
# GULP energy per Si atom -12389.010022 kJ/mol
# Density = 2.102274 g / cm^3
# Si number density = 21.070693 Si / 1000 Ang^3
#
#
#
# Elastic Constant Matrix: (Units=GPa)
#
#
# Indices 1 2 3 4 5 6 
#
# 1 107.5616 52.3855 52.6772 -2.4099 0.0129 -0.0019
# 2 52.3855 107.5484 52.6553 2.4107 -0.0016 0.0000
# 3 52.6772 52.6553 170.9351 0.0036 0.0209 -0.0092
# 4 -2.4099 2.4107 0.0036 24.8223 0.0039 -0.0026
# 5 0.0129 -0.0016 0.0209 0.0039 24.8348 -2.4188
# 6 -0.0019 0.0000 -0.0092 -0.0026 -2.4188 27.5792
#
#
#
# Elastic Compliance Matrix: (Units=1/GPa)
#
#
# Indices 1 2 3 4 5 6 
#
# 1 0.013063 -0.005219 -0.002418 0.001775 -0.000005 0.000000
# 2 -0.005219 0.013062 -0.002416 -0.001775 0.000006 -0.000001
# 3 -0.002418 -0.002416 0.007339 -0.000001 -0.000005 0.000002
# 4 0.001775 -0.001775 -0.000001 0.040631 -0.000007 0.000003
# 5 -0.000005 0.000006 -0.000005 -0.000007 0.040613 0.003562
# 6 0.000000 -0.000001 0.000002 0.000003 0.003562 0.036572
#
#
# Mechanical properties :
#
#
# Convention : Reuss Voigt Hill
#
# Bulk Modulus (GPa) = 74.84904 77.94234 76.39569
# Shear Modulus (GPa) = 28.43530 30.66906 29.55218
#
# Velocity S-wave (km/s) = 3.67757 3.81928 3.74909
# Velocity P-wave (km/s) = 7.32343 7.51801 7.42135
#
# Compressibility (1/GPa) = 0.01336022
#
# Stress axis : x y z
#
# Youngs Moduli (GPa) = 76.55470 76.55520 136.25048
#
# Poissons Ratio (x) = 0.39951 0.32945
# Poissons Ratio (y) = 0.39951 0.32912
# Poissons Ratio (z) = 0.18511 0.18492
#
# Static dielectric constant tensor:
#      x y z
#    x 3.897190 0.000010 -0.000010 
#    y 0.000010 3.897170 0.000000 
#    z -0.000010 0.000000 4.203370 
# 
# 
# High freq. dielectric constant tensor:
#      x y z
#    x 1.801660 0.000000 0.000000 
#    y 0.000000 1.801660 0.000000 
#    z 0.000000 0.000000 1.854160 
# 
# From -- ./inp_files/2787.got.cif
#   From: 2010.03.12/outbox.cif.g09.slc.cpg/sg155_2_cif.got.tgz:2787.got - 2010.04.03 13:54:13.
