data_PCOD8322397
_publ_section_title
;
Structure prediction by ZEFSAII (Michael W. Deem and Ramdas Pophale) SiO2 
 PCOD8322397
Probable space group: P 32 2 1
;
_chemical_formula_sum "Si O2"
_cell_formula_units_Z 42
_cell_length_a 9.173388
_cell_length_b 9.173388
_cell_length_c 28.133354
_cell_angle_alpha 90.000000
_cell_angle_beta 90.000000
_cell_angle_gamma 120.000000
_cell_volume 2050.272887
_symmetry_space_group_name_H-M "P 32 2 1"
_symmetry_group_IT_number 154
_symmetry_cell_setting 'hexagonal'
loop_
_space_group_symop_operation_xyz
x,y,z
-y,x-y,2/3+z
-x+y,-x,1/3+z
x-y,-y,1/3-z
-x,-x+y,2/3-z
y,x,-z
loop_
_atom_site_type_symbol
_atom_site_label
_atom_site_fract_x
_atom_site_fract_y
_atom_site_fract_z
Si Si1 0.510551 0.974927 0.392903
Si Si2 0.830994 0.259309 0.526328
Si Si3 0.849378 0.061929 0.445012
Si Si4 0.322482 0.032898 0.113975
Si Si5 0.344330 0.064140 0.615972
Si Si6 0.832437 0.387202 0.963997
Si Si7 0.418918 0.480234 0.886691
O O1 0.357309 0.945685 0.428016
O O2 0.470874 0.798422 0.369982
O O3 0.685647 0.060163 0.421968
O O4 0.516349 0.094631 0.350571
O O5 0.884284 0.138368 0.498566
O O6 0.639220 0.136337 0.541770
O O7 0.839320 0.400802 0.490920
O O8 0.020409 0.182705 0.416566
O O9 0.822059 0.877889 0.445486
O O10 0.383528 0.224158 0.100659
O O11 0.372892 0.000000 0.166667
O O12 0.400930 0.967777 0.074447
O O13 0.476311 0.259624 0.614511
O O14 0.417053 0.944034 0.598753
O O15 0.265528 0.000000 0.666667
#
# Coordination Sequence:
#
# PCOD8322397 Si02
#       7
#     6   6   6   6   6   6   6
#     4  11  22  42  63  94 132 167 217 267 323 394
#     4  11  20  40  66  96 121 172 213 265 321 387
#     4  10  22  42  68  92 129 171 212 272 337 375
#     4  11  23  44  65  93 135 172 210 281 332 389
#     4  11  23  42  65  93 125 169 217 269 313 406
#     4  11  25  42  65  94 129 173 213 265 338 382
#     4  11  23  38  69  93 124 168 224 263 327 388
#
# _framework density 20.485078000000001
#
# number of rings (size 3 to 8) (size 9 to 14) (size 15 to 20)
#    0.000    1.143    5.714    0.857    2.000    0.000 
#    2.571    1.429    0.000    0.000    0.000    0.000 
#    0.000    0.000    0.000    0.000    0.000    0.000 
#
# Total GULP energy -520635.409547 kJ/mol
# GULP energy per Si atom -12396.081180 kJ/mol
# Density = 2.043845 g / cm^3
# Si number density = 20.485078 Si / 1000 Ang^3
#
#
#
# Elastic Constant Matrix: (Units=GPa)
#
#
# Indices 1 2 3 4 5 6 
#
# 1 90.4900 45.4183 38.3464 -3.1354 0.0003 0.0000
# 2 45.4183 90.4900 38.3464 3.1354 -0.0003 0.0000
# 3 38.3464 38.3464 107.8229 0.0000 0.0000 0.0000
# 4 -3.1354 3.1354 0.0000 25.5555 0.0000 -0.0003
# 5 0.0003 -0.0003 0.0000 0.0000 25.5555 -3.1354
# 6 0.0000 0.0000 0.0000 -0.0003 -3.1354 22.5358
#
#
#
# Elastic Compliance Matrix: (Units=1/GPa)
#
#
# Indices 1 2 3 4 5 6 
#
# 1 0.015889 -0.006683 -0.003274 0.002769 0.000000 0.000000
# 2 -0.006683 0.015889 -0.003274 -0.002769 0.000000 0.000000
# 3 -0.003274 -0.003274 0.011603 0.000000 0.000000 0.000000
# 4 0.002769 -0.002769 0.000000 0.039810 0.000000 0.000001
# 5 0.000000 0.000000 0.000000 0.000000 0.039810 0.005539
# 6 0.000000 0.000000 0.000000 0.000001 0.005539 0.045144
#
#
# Mechanical properties :
#
#
# Convention : Reuss Voigt Hill
#
# Bulk Modulus (GPa) = 59.10695 59.22502 59.16599
# Shear Modulus (GPa) = 24.96919 25.84215 25.40567
#
# Velocity S-wave (km/s) = 3.49506 3.55563 3.52547
# Velocity P-wave (km/s) = 6.72336 6.76984 6.74664
#
# Compressibility (1/GPa) = 0.01691848
#
# Stress axis : x y z
#
# Youngs Moduli (GPa) = 62.93758 62.93758 86.18414
#
# Poissons Ratio (x) = 0.42064 0.28215
# Poissons Ratio (y) = 0.42064 0.28215
# Poissons Ratio (z) = 0.20604 0.20604
#
# Static dielectric constant tensor:
#      x y z
#    x 3.737850 0.000000 0.000000 
#    y 0.000000 3.737850 0.000000 
#    z 0.000000 0.000000 3.934500 
# 
# 
# High freq. dielectric constant tensor:
#      x y z
#    x 1.796520 0.000000 0.000000 
#    y 0.000000 1.796520 0.000000 
#    z 0.000000 0.000000 1.813170 
# 
# From -- ./inp_files/3765.got.cif
#   From: 2010.03.12/outbox.cif.g09.slc.cpg/sg154_2_cif.got.tgz:3765.got - 2010.04.03 13:51:21.
