data_PCOD8322146
_publ_section_title
;
Structure prediction by ZEFSAII (Michael W. Deem and Ramdas Pophale) SiO2 
 PCOD8322146
Probable space group: P 31 2 1
;
_chemical_formula_sum "Si O2"
_cell_formula_units_Z 33
_cell_length_a 11.520584
_cell_length_b 11.520584
_cell_length_c 14.310981
_cell_angle_alpha 90.000000
_cell_angle_beta 90.000000
_cell_angle_gamma 120.000000
_cell_volume 1644.936080
_symmetry_space_group_name_H-M "P 31 2 1"
_symmetry_group_IT_number 152
_symmetry_cell_setting 'hexagonal'
loop_
_space_group_symop_operation_xyz
x,y,z
-y,x-y,1/3+z
-x+y,-x,2/3+z
x-y,-y,2/3-z
-x,-x+y,1/3-z
y,x,-z
loop_
_atom_site_type_symbol
_atom_site_label
_atom_site_fract_x
_atom_site_fract_y
_atom_site_fract_z
Si Si1 0.487901 0.211228 0.485302
Si Si2 0.149187 0.122299 0.893825
Si Si3 0.468995 0.468995 0.500000
Si Si4 0.729770 0.321981 0.613204
Si Si5 0.088452 0.346533 0.844393
Si Si6 0.142723 0.420861 0.054366
O O1 0.443222 0.321491 0.485155
O O2 0.579831 0.218283 0.574219
O O3 0.575740 0.245954 0.390925
O O4 0.350558 0.069394 0.489342
O O5 0.146461 0.245282 0.843678
O O6 0.292295 0.130132 0.892690
O O7 0.044148 0.000000 0.833334
O O8 0.099074 0.099074 0.000000
O O9 0.541905 0.571891 0.415266
O O10 0.837186 0.290185 0.569285
O O11 0.757663 0.466960 0.581089
O O12 0.127519 0.414472 0.944319
#
# Coordination Sequence:
#
# PCOD8322146 Si02
#       6
#     6   6   3   6   6   6
#     4  11  24  41  64  96 133 167 217 273 325 392
#     4  10  23  42  66  93 129 170 213 257 322 397
#     4  10  22  42  64  92 128 168 210 260 332 374
#     4  11  23  42  67  93 128 168 220 269 324 381
#     4  11  24  39  65  96 131 166 216 265 326 383
#     4  10  21  44  68  91 126 173 217 262 322 404
#
# _framework density 20.061568999999999
#
# number of rings (size 3 to 8) (size 9 to 14) (size 15 to 20)
#    0.000    1.455    2.727    1.636    3.818    2.909 
#    3.273    0.000    0.000    0.000    0.000    0.000 
#    0.000    0.000    0.000    0.000    0.000    0.000 
#
# Total GULP energy -408959.815646 kJ/mol
# GULP energy per Si atom -12392.721686 kJ/mol
# Density = 2.001591 g / cm^3
# Si number density = 20.061569 Si / 1000 Ang^3
#
#
#
# Elastic Constant Matrix: (Units=GPa)
#
#
# Indices 1 2 3 4 5 6 
#
# 1 93.9157 66.0357 28.8627 -7.5817 0.0001 0.0000
# 2 66.0357 93.9157 28.8627 7.5817 -0.0001 0.0000
# 3 28.8627 28.8627 58.4587 0.0000 0.0000 0.0000
# 4 -7.5817 7.5817 0.0000 25.8328 0.0000 -0.0001
# 5 0.0001 -0.0001 0.0000 0.0000 25.8328 -7.5817
# 6 0.0000 0.0000 0.0000 -0.0001 -7.5817 13.9400
#
#
#
# Elastic Compliance Matrix: (Units=1/GPa)
#
#
# Indices 1 2 3 4 5 6 
#
# 1 0.025144 -0.017537 -0.003756 0.012526 0.000000 0.000000
# 2 -0.017537 0.025144 -0.003756 -0.012526 0.000000 0.000000
# 3 -0.003756 -0.003756 0.020815 0.000000 0.000000 0.000000
# 4 0.012526 -0.012526 0.000000 0.046063 0.000000 0.000000
# 5 0.000000 0.000000 0.000000 0.000000 0.046063 0.025053
# 6 0.000000 0.000000 0.000000 0.000000 0.025053 0.085362
#
#
# Mechanical properties :
#
#
# Convention : Reuss Voigt Hill
#
# Bulk Modulus (GPa) = 47.60587 54.86806 51.23696
# Shear Modulus (GPa) = 16.35636 21.28970 18.82303
#
# Velocity S-wave (km/s) = 2.85846 3.26117 3.06643
# Velocity P-wave (km/s) = 5.88861 6.44899 6.17516
#
# Compressibility (1/GPa) = 0.02100581
#
# Stress axis : x y z
#
# Youngs Moduli (GPa) = 39.77062 39.77062 48.04235
#
# Poissons Ratio (x) = 0.69745 0.18045
# Poissons Ratio (y) = 0.69745 0.18045
# Poissons Ratio (z) = 0.14938 0.14938
#
# Static dielectric constant tensor:
#      x y z
#    x 3.707250 0.000000 0.000000 
#    y 0.000000 3.707250 0.000000 
#    z 0.000000 0.000000 3.580310 
# 
# 
# High freq. dielectric constant tensor:
#      x y z
#    x 1.789750 0.000000 0.000000 
#    y 0.000000 1.789750 0.000000 
#    z 0.000000 0.000000 1.786390 
# 
# From -- ./inp_files/2039.got.cif
#   From: 2010.03.12/outbox.cif.g09.slc.cpg/sg152_2_cif.got.tgz:2039.got - 2010.04.03 13:45:27.
