data_PCOD8322546
_publ_section_title
;
Structure prediction by ZEFSAII (Michael W. Deem and Ramdas Pophale) SiO2 
 PCOD8322546
Probable space group: R 3 2
;
_chemical_formula_sum "Si O2"
_cell_formula_units_Z 144
_cell_length_a 31.341607
_cell_length_b 31.341607
_cell_length_c 9.332007
_cell_angle_alpha 90.000000
_cell_angle_beta 90.000000
_cell_angle_gamma 120.000000
_cell_volume 7938.678399
_symmetry_space_group_name_H-M "R 3 2"
_symmetry_group_IT_number 155
_symmetry_cell_setting 'hexagonal'
loop_
_space_group_symop_operation_xyz
x,y,z
-y,x-y,z
-x+y,-x,z
x-y,-y,-z
-x,-x+y,-z
y,x,-z
2/3+x,1/3+y,1/3+z
2/3-y,1/3+x-y,1/3+z
2/3-x+y,1/3-x,1/3+z
2/3+x-y,1/3-y,1/3-z
2/3-x,1/3-x+y,1/3-z
2/3+y,1/3+x,1/3-z
1/3+x,2/3+y,2/3+z
1/3-y,2/3+x-y,2/3+z
1/3-x+y,2/3-x,2/3+z
1/3+x-y,2/3-y,2/3-z
1/3-x,2/3-x+y,2/3-z
1/3+y,2/3+x,2/3-z
loop_
_atom_site_type_symbol
_atom_site_label
_atom_site_fract_x
_atom_site_fract_y
_atom_site_fract_z
Si Si1 0.809595 0.522611 0.746350
Si Si2 0.059965 0.481754 0.308405
Si Si3 0.880903 0.545483 0.491495
Si Si4 0.286979 0.809616 0.253663
Si Si5 0.993106 0.607703 0.158051
Si Si6 0.606686 0.851585 0.024909
Si Si7 0.880925 0.335429 0.491503
Si Si8 0.941036 0.281257 0.508618
O O1 0.813544 0.480210 0.833334
O O2 0.834613 0.533341 0.591250
O O3 0.752174 0.504361 0.726879
O O4 0.837759 0.572902 0.834916
O O5 0.093726 0.495577 0.168175
O O6 0.042202 0.521108 0.337508
O O7 0.090083 0.480970 0.447112
O O8 0.013148 0.428326 0.277558
O O9 0.859044 0.525710 0.333334
O O10 0.919935 0.602979 0.478036
O O11 0.909917 0.519034 0.552834
O O12 0.333334 0.813587 0.166667
O O13 0.301263 0.834635 0.408761
O O14 0.022098 0.666667 0.166667
O O15 0.013169 0.584849 0.277555
O O16 0.000000 0.591335 0.000000
O O17 0.859066 0.333334 0.333334
O O18 0.919975 0.316984 0.478055
O O19 0.924662 0.257995 0.666667
O O20 0.000000 0.311191 0.500000
#
# Coordination Sequence:
#
# PCOD8322546 Si02
#       8
#    18  18  18  18  18  18  18  18
#     4   9  18  36  58  80 106 140 178 215 259 316
#     4  10  21  37  54  76 105 138 181 226 265 311
#     4  11  23  35  53  80 108 140 178 221 268 319
#     4   9  18  36  58  80 106 140 178 215 259 316
#     4  12  20  35  57  74 101 138 188 226 265 313
#     4  10  21  37  54  76 105 138 181 226 265 311
#     4  11  23  35  53  80 108 140 178 221 268 319
#     4  12  20  35  57  74 101 138 188 226 265 313
#
# _framework density 18.139037999999999
#
# number of rings (size 3 to 8) (size 9 to 14) (size 15 to 20)
#    0.000    1.500    5.000    1.500    0.000    2.500 
#    0.000    1.250    0.000    0.250    0.000    0.000 
#    0.000    1.000    0.000    0.000    0.000    0.000 
#
# Total GULP energy -595256.051678 kJ/mol
# GULP energy per Si atom -12401.167743 kJ/mol
# Density = 1.809775 g / cm^3
# Si number density = 18.139038 Si / 1000 Ang^3
#
#
#
# Elastic Constant Matrix: (Units=GPa)
#
#
# Indices 1 2 3 4 5 6 
#
# 1 96.4388 66.7264 35.1423 -2.6392 0.1173 -0.0364
# 2 66.7264 96.3538 34.9214 2.5896 -0.0069 -0.0048
# 3 35.1423 34.9214 134.0112 -0.0763 0.3025 -0.0491
# 4 -2.6392 2.5896 -0.0763 16.2922 -0.0537 0.0628
# 5 0.1173 -0.0069 0.3025 -0.0537 16.3437 -2.6343
# 6 -0.0364 -0.0048 -0.0491 0.0628 -2.6343 14.8419
#
#
#
# Elastic Compliance Matrix: (Units=1/GPa)
#
#
# Indices 1 2 3 4 5 6 
#
# 1 0.020800 -0.013890 -0.001831 0.005568 -0.000103 -0.000001
# 2 -0.013890 0.020792 -0.001779 -0.005563 0.000125 0.000013
# 3 -0.001831 -0.001779 0.008406 0.000025 -0.000144 -0.000003
# 4 0.005568 -0.005563 0.000025 0.063167 0.000127 -0.000233
# 5 -0.000103 0.000125 -0.000144 0.000127 0.062992 0.011179
# 6 -0.000001 0.000013 -0.000003 -0.000233 0.011179 0.069362
#
#
# Mechanical properties :
#
#
# Convention : Reuss Voigt Hill
#
# Bulk Modulus (GPa) = 66.68123 66.70933 66.69528
# Shear Modulus (GPa) = 17.51204 22.16313 19.83758
#
# Velocity S-wave (km/s) = 3.11051 3.49928 3.31061
# Velocity P-wave (km/s) = 7.05276 7.29268 7.17372
#
# Compressibility (1/GPa) = 0.01499672
#
# Stress axis : x y z
#
# Youngs Moduli (GPa) = 48.07760 48.09609 118.95890
#
# Poissons Ratio (x) = 0.66805 0.21787
# Poissons Ratio (y) = 0.66780 0.21163
# Poissons Ratio (z) = 0.08805 0.08556
#
# Static dielectric constant tensor:
#      x y z
#    x 3.239630 0.000000 -0.000230 
#    y 0.000000 3.239800 0.000070 
#    z -0.000230 0.000070 3.695570 
# 
# 
# High freq. dielectric constant tensor:
#      x y z
#    x 1.681150 0.000000 -0.000030 
#    y 0.000000 1.681160 0.000000 
#    z -0.000030 0.000000 1.714130 
# 
# From -- ./inp_files/3073.got.cif
#   From: 2010.03.12/outbox.cif.g09.slc.cpg/sg155_2_cif.got.tgz:3073.got - 2010.04.03 13:54:13.
