data_PCOD8322857
_publ_section_title
;
Structure prediction by ZEFSAII (Michael W. Deem and Ramdas Pophale) SiO2 
 PCOD8322857
Probable space group: R 3 M
;
_chemical_formula_sum "Si O2"
_cell_formula_units_Z 126
_cell_length_a 17.712948
_cell_length_b 17.712948
_cell_length_c 24.432735
_cell_angle_alpha 90.000000
_cell_angle_beta 90.000000
_cell_angle_gamma 120.000000
_cell_volume 6638.720914
_symmetry_space_group_name_H-M "R 3 M"
_symmetry_group_IT_number 160
_symmetry_cell_setting 'hexagonal'
loop_
_space_group_symop_operation_xyz
x,y,z
-y,x-y,z
-x+y,-x,z
-x+y,y,z
x,x-y,z
-y,-x,z
2/3+x,1/3+y,1/3+z
2/3-y,1/3+x-y,1/3+z
2/3-x+y,1/3-x,1/3+z
2/3-x+y,1/3+y,1/3+z
2/3+x,1/3+x-y,1/3+z
2/3-y,1/3-x,1/3+z
1/3+x,2/3+y,2/3+z
1/3-y,2/3+x-y,2/3+z
1/3-x+y,2/3-x,2/3+z
1/3-x+y,2/3+y,2/3+z
1/3+x,2/3+x-y,2/3+z
1/3-y,2/3-x,2/3+z
loop_
_atom_site_type_symbol
_atom_site_label
_atom_site_fract_x
_atom_site_fract_y
_atom_site_fract_z
Si Si1 0.171083 0.171407 0.682125
Si Si2 0.501584 0.834522 0.806102
Si Si3 0.464508 0.367398 0.592639
Si Si4 0.614906 0.893762 0.243869
Si Si5 0.694872 0.762904 0.776184
Si Si6 0.666909 0.502016 0.712485
Si Si7 0.725196 0.101586 0.810432
O O1 0.186777 0.093388 0.703632
O O2 0.205814 0.198617 0.621169
O O3 0.222171 0.258939 0.717748
O O4 0.067994 0.135988 0.682766
O O5 0.429072 0.858143 0.786455
O O6 0.470031 0.735016 0.790149
O O7 0.510490 0.843778 0.871802
O O8 0.591263 0.897527 0.773759
O O9 0.525597 0.474404 0.593841
O O10 0.359957 0.326120 0.589582
O O11 0.480181 0.328389 0.647878
O O12 0.650348 0.825174 0.242913
O O13 0.572068 0.891125 0.185641
O O14 0.709380 0.854690 0.800696
O O15 0.736623 0.720154 0.815278
O O16 0.734336 0.468672 0.725396
O O17 0.571554 0.428447 0.731129
O O18 0.694442 0.588424 0.748523
O O19 0.816273 0.183728 0.826452
#
# Coordination Sequence:
#
# PCOD8322857 Si02
#       7
#    18  18  18  18  18  18  18
#     4  10  21  38  59  82 106 138 182 232 280 325
#     4  10  19  32  52  79 110 145 184 224 266 316
#     4  10  20  33  52  77 106 145 187 221 256 306
#     4  11  21  35  56  79 110 147 180 220 268 317
#     4  10  21  36  55  76 102 136 176 226 278 321
#     4  10  20  33  50  76 111 148 182 213 251 306
#     4  11  22  35  53  79 108 141 179 218 265 323
#
# _framework density 18.979558999999998
#
# number of rings (size 3 to 8) (size 9 to 14) (size 15 to 20)
#    0.000    1.714    1.429    3.857    0.000    2.857 
#    0.000    2.143    0.000    5.143    0.000    0.000 
#    0.000    0.000    0.000    0.000    0.000    0.000 
#
# Total GULP energy -520421.371365 kJ/mol
# GULP energy per Si atom -12390.985033 kJ/mol
# Density = 1.893636 g / cm^3
# Si number density = 18.979559 Si / 1000 Ang^3
#
#
#
# Elastic Constant Matrix: (Units=GPa)
#
#
# Indices 1 2 3 4 5 6 
#
# 1 112.7685 55.3332 42.4557 -1.7683 -0.0001 0.0000
# 2 55.3332 112.7685 42.4557 1.7683 0.0001 0.0000
# 3 42.4557 42.4557 85.4384 0.0000 0.0000 0.0000
# 4 -1.7683 1.7683 0.0000 23.7444 0.0000 0.0001
# 5 -0.0001 0.0001 0.0000 0.0000 23.7444 -1.7683
# 6 0.0000 0.0000 0.0000 0.0001 -1.7683 28.7176
#
#
#
# Elastic Compliance Matrix: (Units=1/GPa)
#
#
# Indices 1 2 3 4 5 6 
#
# 1 0.012717 -0.004774 -0.003947 0.001303 0.000000 0.000000
# 2 -0.004774 0.012717 -0.003947 -0.001303 0.000000 0.000000
# 3 -0.003947 -0.003947 0.015627 0.000000 0.000000 0.000000
# 4 0.001303 -0.001303 0.000000 0.042309 0.000000 0.000000
# 5 0.000000 0.000000 0.000000 0.000000 0.042309 0.002605
# 6 0.000000 0.000000 0.000000 0.000000 0.002605 0.034982
#
#
# Mechanical properties :
#
#
# Convention : Reuss Voigt Hill
#
# Bulk Modulus (GPa) = 63.59448 65.71829 64.65638
# Shear Modulus (GPa) = 26.14548 26.62335 26.38441
#
# Velocity S-wave (km/s) = 3.71558 3.74938 3.73251
# Velocity P-wave (km/s) = 7.21019 7.31059 7.26057
#
# Compressibility (1/GPa) = 0.01572464
#
# Stress axis : x y z
#
# Youngs Moduli (GPa) = 78.63664 78.63664 63.99320
#
# Poissons Ratio (x) = 0.37544 0.25256
# Poissons Ratio (y) = 0.37544 0.25256
# Poissons Ratio (z) = 0.31035 0.31035
#
# Static dielectric constant tensor:
#      x y z
#    x 3.574130 0.000000 0.000000 
#    y 0.000000 3.574130 0.000000 
#    z 0.000000 0.000000 3.381130 
# 
# 
# High freq. dielectric constant tensor:
#      x y z
#    x 1.735970 0.000000 0.000000 
#    y 0.000000 1.735970 0.000000 
#    z 0.000000 0.000000 1.723030 
# 
# From -- ./inp_files/3753.got.cif
#   From: 2010.03.12/outbox.cif.g09.slc.cpg/sg160_2_cif.got.tgz:3753.got - 2010.04.02 06:26:15.
