data_PCOD8322554
_publ_section_title
;
Structure prediction by ZEFSAII (Michael W. Deem and Ramdas Pophale) SiO2 
 PCOD8322554
Probable space group: R 3 2
;
_chemical_formula_sum "Si O2"
_cell_formula_units_Z 81
_cell_length_a 23.109972
_cell_length_b 23.109972
_cell_length_c 7.983743
_cell_angle_alpha 90.000000
_cell_angle_beta 90.000000
_cell_angle_gamma 120.000000
_cell_volume 3692.631913
_symmetry_space_group_name_H-M "R 3 2"
_symmetry_group_IT_number 155
_symmetry_cell_setting 'hexagonal'
loop_
_space_group_symop_operation_xyz
x,y,z
-y,x-y,z
-x+y,-x,z
x-y,-y,-z
-x,-x+y,-z
y,x,-z
2/3+x,1/3+y,1/3+z
2/3-y,1/3+x-y,1/3+z
2/3-x+y,1/3-x,1/3+z
2/3+x-y,1/3-y,1/3-z
2/3-x,1/3-x+y,1/3-z
2/3+y,1/3+x,1/3-z
1/3+x,2/3+y,2/3+z
1/3-y,2/3+x-y,2/3+z
1/3-x+y,2/3-x,2/3+z
1/3+x-y,2/3-y,2/3-z
1/3-x,2/3-x+y,2/3-z
1/3+y,2/3+x,2/3-z
loop_
_atom_site_type_symbol
_atom_site_label
_atom_site_fract_x
_atom_site_fract_y
_atom_site_fract_z
Si Si1 0.635107 0.496817 0.503637
Si Si2 0.787316 0.047059 0.749238
Si Si3 0.598488 0.840908 0.772542
Si Si4 0.666667 0.702372 0.833334
Si Si5 0.527881 0.333334 0.833334
Si Si6 0.000000 0.126082 0.500000
O O1 0.666667 0.487037 0.333334
O O2 0.560496 0.431503 0.515591
O O3 0.624751 0.559530 0.485502
O O4 0.679839 0.504554 0.666723
O O5 0.746473 0.079807 0.666667
O O6 0.735365 0.974158 0.820394
O O7 0.837608 0.037614 0.629505
O O8 0.830018 0.092948 0.904146
O O9 0.666667 0.845671 0.833334
O O10 0.673557 0.666667 0.666667
O O11 0.601718 0.390459 0.778436
#
# Coordination Sequence:
#
# PCOD8322554 Si02
#       6
#    18  18  18   9   9   9
#     4  11  23  44  69  99 136 189 241 305 366 434
#     4  11  25  41  71 104 144 193 242 311 392 467
#     4  11  23  42  65 101 150 186 240 312 388 467
#     4  10  21  38  63  95 132 173 226 284 358 430
#     4  12  25  48  69 107 144 203 264 308 382 452
#     4  12  26  46  72  98 146 196 254 310 360 452
#
# _framework density 21.935575
#
# number of rings (size 3 to 8) (size 9 to 14) (size 15 to 20)
#    0.000    0.889    3.333    3.556    4.667    0.000 
#    0.000    2.222    0.000    0.000    0.000    0.000 
#    0.000    0.000    0.000    0.000    0.000    0.000 
#
# Total GULP energy -334528.848262 kJ/mol
# GULP energy per Si atom -12389.957343 kJ/mol
# Density = 2.188565 g / cm^3
# Si number density = 21.935575 Si / 1000 Ang^3
#
#
#
# Elastic Constant Matrix: (Units=GPa)
#
#
# Indices 1 2 3 4 5 6 
#
# 1 97.8120 42.4024 42.6292 4.5381 -0.0480 0.0005
# 2 42.4024 97.8596 42.7168 -4.5468 0.0228 -0.0013
# 3 42.6292 42.7168 166.0584 -0.0859 -0.1509 -0.0073
# 4 4.5381 -4.5468 -0.0859 29.0771 -0.1399 -0.0120
# 5 -0.0480 0.0228 -0.1509 -0.1399 29.0219 4.5634
# 6 0.0005 -0.0013 -0.0073 -0.0120 4.5634 27.7081
#
#
#
# Elastic Compliance Matrix: (Units=1/GPa)
#
#
# Indices 1 2 3 4 5 6 
#
# 1 0.013484 -0.005031 -0.002169 -0.002898 0.000001 -0.000003
# 2 -0.005031 0.013482 -0.002175 0.002887 -0.000017 0.000004
# 3 -0.002169 -0.002175 0.007138 0.000020 0.000036 -0.000004
# 4 -0.002898 0.002887 0.000020 0.035296 0.000165 -0.000012
# 5 0.000001 -0.000017 0.000036 0.000165 0.035374 -0.005826
# 6 -0.000003 0.000004 -0.000004 -0.000012 -0.005826 0.037050
#
#
# Mechanical properties :
#
#
# Convention : Reuss Voigt Hill
#
# Bulk Modulus (GPa) = 65.12479 68.58075 66.85277
# Shear Modulus (GPa) = 30.17645 32.76021 31.46833
#
# Velocity S-wave (km/s) = 3.71305 3.86874 3.79169
# Velocity P-wave (km/s) = 6.93800 7.16161 7.05069
#
# Compressibility (1/GPa) = 0.01535514
#
# Stress axis : x y z
#
# Youngs Moduli (GPa) = 74.16079 74.17249 140.08753
#
# Poissons Ratio (x) = 0.37313 0.30385
# Poissons Ratio (y) = 0.37307 0.30473
# Poissons Ratio (z) = 0.16086 0.16134
#
# Static dielectric constant tensor:
#      x y z
#    x 3.857970 -0.000080 0.000040 
#    y -0.000080 3.858000 -0.000110 
#    z 0.000040 -0.000110 4.203080 
# 
# 
# High freq. dielectric constant tensor:
#      x y z
#    x 1.858410 0.000000 -0.000010 
#    y 0.000000 1.858420 0.000000 
#    z -0.000010 0.000000 1.874510 
# 
# From -- ./inp_files/2617.got.cif
#   From: 2010.03.12/outbox.cif.g09.slc.cpg/sg155_2_cif.got.tgz:2617.got - 2010.04.03 13:54:13.
