data_PCOD8322859
_publ_section_title
;
Structure prediction by ZEFSAII (Michael W. Deem and Ramdas Pophale) SiO2 
 PCOD8322859
Probable space group: R 3 M
;
_chemical_formula_sum "Si O2"
_cell_formula_units_Z 126
_cell_length_a 21.910045
_cell_length_b 21.910045
_cell_length_c 17.226038
_cell_angle_alpha 90.000000
_cell_angle_beta 90.000000
_cell_angle_gamma 120.000000
_cell_volume 7161.476509
_symmetry_space_group_name_H-M "R 3 M"
_symmetry_group_IT_number 160
_symmetry_cell_setting 'hexagonal'
loop_
_space_group_symop_operation_xyz
x,y,z
-y,x-y,z
-x+y,-x,z
-x+y,y,z
x,x-y,z
-y,-x,z
2/3+x,1/3+y,1/3+z
2/3-y,1/3+x-y,1/3+z
2/3-x+y,1/3-x,1/3+z
2/3-x+y,1/3+y,1/3+z
2/3+x,1/3+x-y,1/3+z
2/3-y,1/3-x,1/3+z
1/3+x,2/3+y,2/3+z
1/3-y,2/3+x-y,2/3+z
1/3-x+y,2/3-x,2/3+z
1/3-x+y,2/3+y,2/3+z
1/3+x,2/3+x-y,2/3+z
1/3-y,2/3-x,2/3+z
loop_
_atom_site_type_symbol
_atom_site_label
_atom_site_fract_x
_atom_site_fract_y
_atom_site_fract_z
Si Si1 0.077355 0.287774 0.756194
Si Si2 0.488155 0.376488 0.359715
Si Si3 0.855500 0.855735 0.456869
Si Si4 0.474536 0.386184 0.648049
Si Si5 0.375717 0.324546 0.244445
Si Si6 0.750533 0.945559 0.592326
Si Si7 0.194432 0.527806 0.841053
O O1 0.135324 0.270648 0.791703
O O2 0.116086 0.364988 0.720442
O O3 0.028047 0.286512 0.823350
O O4 0.035698 0.234038 0.684604
O O5 0.568532 0.431469 0.336453
O O6 0.445937 0.332404 0.284774
O O7 0.486694 0.325432 0.427534
O O8 0.858674 0.929337 0.437401
O O9 0.808976 0.798082 0.391314
O O10 0.819628 0.825810 0.540661
O O11 0.934648 0.869296 0.458306
O O12 0.530715 0.469285 0.657454
O O13 0.397572 0.374734 0.630590
O O14 0.493658 0.355923 0.574266
O O15 0.373280 0.395578 0.233603
O O16 0.726092 0.863046 0.579825
O O17 0.276479 0.552958 0.831457
O O18 0.185825 0.592913 0.865089
#
# Coordination Sequence:
#
# PCOD8322859 Si02
#       7
#    18  18  18  18  18  18  18
#     4   9  17  33  53  74 102 138 174 210 259 317
#     4   9  19  34  49  71 103 137 176 215 254 314
#     4  10  21  39  58  78 106 144 185 227 270 316
#     4  10  21  33  51  81 112 137 176 220 261 322
#     4  11  19  31  57  77 104 143 171 210 275 321
#     4   9  21  37  54  77 106 138 179 223 261 315
#     4  10  19  33  50  72 103 141 180 217 254 305
#
# _framework density 17.594138000000001
#
# number of rings (size 3 to 8) (size 9 to 14) (size 15 to 20)
#    0.000    2.286    1.429    2.429    4.000    1.143 
#    0.000    5.714    0.000    0.000    0.000    0.000 
#    0.000    5.714    0.000    0.000    0.000    0.000 
#
# Total GULP energy -520539.414148 kJ/mol
# GULP energy per Si atom -12393.795575 kJ/mol
# Density = 1.755409 g / cm^3
# Si number density = 17.594138 Si / 1000 Ang^3
#
#
#
# Elastic Constant Matrix: (Units=GPa)
#
#
# Indices 1 2 3 4 5 6 
#
# 1 70.7871 37.2112 36.9158 1.0325 -0.0003 0.0000
# 2 37.2112 70.7871 36.9158 -1.0325 0.0003 0.0000
# 3 36.9158 36.9158 77.9202 0.0000 0.0000 0.0000
# 4 1.0325 -1.0325 0.0000 22.8431 0.0000 0.0003
# 5 -0.0003 0.0003 0.0000 0.0000 22.8431 1.0325
# 6 0.0000 0.0000 0.0000 0.0003 1.0325 16.7879
#
#
#
# Elastic Compliance Matrix: (Units=1/GPa)
#
#
# Indices 1 2 3 4 5 6 
#
# 1 0.021781 -0.008086 -0.006488 -0.001350 0.000000 0.000000
# 2 -0.008086 0.021781 -0.006488 0.001350 0.000000 0.000000
# 3 -0.006488 -0.006488 0.018981 0.000000 0.000000 0.000000
# 4 -0.001350 0.001350 0.000000 0.043899 0.000000 -0.000001
# 5 0.000000 0.000000 0.000000 0.000000 0.043899 -0.002700
# 6 0.000000 0.000000 0.000000 -0.000001 -0.002700 0.059733
#
#
# Mechanical properties :
#
#
# Convention : Reuss Voigt Hill
#
# Bulk Modulus (GPa) = 48.97501 49.06444 49.01972
# Shear Modulus (GPa) = 19.30478 19.72496 19.51487
#
# Velocity S-wave (km/s) = 3.31604 3.35193 3.33403
# Velocity P-wave (km/s) = 6.52364 6.55194 6.53781
#
# Compressibility (1/GPa) = 0.02041858
#
# Stress axis : x y z
#
# Youngs Moduli (GPa) = 45.91236 45.91236 52.68323
#
# Poissons Ratio (x) = 0.37123 0.34182
# Poissons Ratio (y) = 0.37123 0.34182
# Poissons Ratio (z) = 0.29789 0.29789
#
# Static dielectric constant tensor:
#      x y z
#    x 3.293330 0.000000 0.000000 
#    y 0.000000 3.293330 0.000000 
#    z 0.000000 0.000000 3.560140 
# 
# 
# High freq. dielectric constant tensor:
#      x y z
#    x 1.669470 0.000000 0.000000 
#    y 0.000000 1.669470 0.000000 
#    z 0.000000 0.000000 1.689680 
# 
# From -- ./inp_files/2884.got.cif
#   From: 2010.03.12/outbox.cif.g09.slc.cpg/sg160_2_cif.got.tgz:2884.got - 2010.04.02 06:26:15.
