data_PCOD8322507
_publ_section_title
;
Structure prediction by ZEFSAII (Michael W. Deem and Ramdas Pophale) SiO2 
 PCOD8322507
Probable space group: R 3 2
;
_chemical_formula_sum "Si O2"
_cell_formula_units_Z 54
_cell_length_a 21.228280
_cell_length_b 21.228280
_cell_length_c 7.939396
_cell_angle_alpha 90.000000
_cell_angle_beta 90.000000
_cell_angle_gamma 120.000000
_cell_volume 3098.472960
_symmetry_space_group_name_H-M "R 3 2"
_symmetry_group_IT_number 155
_symmetry_cell_setting 'hexagonal'
loop_
_space_group_symop_operation_xyz
x,y,z
-y,x-y,z
-x+y,-x,z
x-y,-y,-z
-x,-x+y,-z
y,x,-z
2/3+x,1/3+y,1/3+z
2/3-y,1/3+x-y,1/3+z
2/3-x+y,1/3-x,1/3+z
2/3+x-y,1/3-y,1/3-z
2/3-x,1/3-x+y,1/3-z
2/3+y,1/3+x,1/3-z
1/3+x,2/3+y,2/3+z
1/3-y,2/3+x-y,2/3+z
1/3-x+y,2/3-x,2/3+z
1/3+x-y,2/3-y,2/3-z
1/3-x,2/3-x+y,2/3-z
1/3+y,2/3+x,2/3-z
loop_
_atom_site_type_symbol
_atom_site_label
_atom_site_fract_x
_atom_site_fract_y
_atom_site_fract_z
Si Si1 0.106881 0.480075 0.334821
Si Si2 0.038469 0.476792 0.834509
Si Si3 0.165627 0.582402 0.626672
O O1 0.154008 0.487341 0.166667
O O2 0.103783 0.417430 0.453919
O O3 0.141242 0.557850 0.431949
O O4 0.023388 0.452030 0.297334
O O5 0.094712 0.552202 0.746327
O O6 0.000000 0.487934 0.000000
O O7 0.206945 0.666667 0.666667
O O8 0.220020 0.553354 0.666667
#
# Coordination Sequence:
#
# PCOD8322507 Si02
#       3
#    18  18  18
#     4   9  18  31  52  81 106 128 162 211 265 312
#     4   9  18  31  51  80 105 128 162 211 266 313
#     4  10  20  34  51  71 100 140 175 208 250 301
#
# _framework density 17.427938999999999
#
# number of rings (size 3 to 8) (size 9 to 14) (size 15 to 20)
#    0.000    2.667    0.000    1.333    0.000   22.667 
#    0.000   15.000    0.000    8.000    0.000    0.000 
#    0.000    0.000    0.000    0.000    0.000    0.000 
#
# Total GULP energy -223014.864728 kJ/mol
# GULP energy per Si atom -12389.714707 kJ/mol
# Density = 1.738827 g / cm^3
# Si number density = 17.427939 Si / 1000 Ang^3
#
#
#
# Elastic Constant Matrix: (Units=GPa)
#
#
# Indices 1 2 3 4 5 6 
#
# 1 97.1123 46.6962 66.7045 -2.7870 -0.0425 -0.0014
# 2 46.6962 97.1226 66.7106 2.7599 -0.0045 -0.0067
# 3 66.7045 66.7106 119.2458 -0.0599 -0.1147 0.0022
# 4 -2.7870 2.7599 -0.0599 20.1909 -0.0396 -0.0038
# 5 -0.0425 -0.0045 -0.1147 -0.0396 20.1151 -2.7744
# 6 -0.0014 -0.0067 0.0022 -0.0038 -2.7744 25.2094
#
#
#
# Elastic Compliance Matrix: (Units=1/GPa)
#
#
# Indices 1 2 3 4 5 6 
#
# 1 0.017295 -0.002841 -0.008084 0.002752 -0.000005 0.000001
# 2 -0.002841 0.017297 -0.008089 -0.002781 -0.000054 -0.000001
# 3 -0.008084 -0.008089 0.017433 0.000042 0.000081 0.000005
# 4 0.002752 -0.002781 0.000042 0.050287 0.000107 0.000019
# 5 -0.000005 -0.000054 0.000081 0.000107 0.050481 0.005556
# 6 0.000001 -0.000001 0.000005 0.000019 0.005556 0.040279
#
#
# Mechanical properties :
#
#
# Convention : Reuss Voigt Hill
#
# Bulk Modulus (GPa) = 71.43856 74.85592 73.14724
# Shear Modulus (GPa) = 21.20738 21.99438 21.60088
#
# Velocity S-wave (km/s) = 3.49214 3.55634 3.52439
# Velocity P-wave (km/s) = 7.57231 7.74005 7.65664
#
# Compressibility (1/GPa) = 0.01399804
#
# Stress axis : x y z
#
# Youngs Moduli (GPa) = 57.81995 57.81243 57.36111
#
# Poissons Ratio (x) = 0.16425 0.46370
# Poissons Ratio (y) = 0.16427 0.46399
# Poissons Ratio (z) = 0.46741 0.46764
#
# Static dielectric constant tensor:
#      x y z
#    x 3.039640 0.000010 0.000000 
#    y 0.000010 3.039640 -0.000020 
#    z 0.000000 -0.000020 3.657540 
# 
# 
# High freq. dielectric constant tensor:
#      x y z
#    x 1.646800 0.000000 0.000000 
#    y 0.000000 1.646810 0.000000 
#    z 0.000000 0.000000 1.693580 
# 
# From -- ./inp_files/1853.got.cif
#   From: 2010.03.12/outbox.cif.g09.slc.cpg/sg155_1_cif.got.tgz:1853.got - 2010.04.03 13:54:13.
