data_PCOD8322989
_publ_section_title
;
Structure prediction by ZEFSAII (Michael W. Deem and Ramdas Pophale) SiO2 
 PCOD8322989
Probable space group: P -3 1 M 
;
_chemical_formula_sum "Si O2"
_cell_formula_units_Z 96
_cell_length_a 24.252629
_cell_length_b 24.252629
_cell_length_c 12.024696
_cell_angle_alpha 90.000000
_cell_angle_beta 90.000000
_cell_angle_gamma 120.000000
_cell_volume 6125.229760
_symmetry_space_group_name_H-M "P -3 1 M "
_symmetry_group_IT_number 162
_symmetry_cell_setting 'hexagonal'
loop_
_space_group_symop_operation_xyz
x,y,z
-y,x-y,z
-x+y,-x,z
-y,-x,-z
-x+y,y,-z
x,x-y,-z
-x,-y,-z
y,-x+y,-z
x-y,x,-z
y,x,z
x-y,-y,z
-x,-x+y,z
loop_
_atom_site_type_symbol
_atom_site_label
_atom_site_fract_x
_atom_site_fract_y
_atom_site_fract_z
Si Si1 0.195017 0.927849 0.239799
Si Si2 0.924206 0.399232 0.767568
Si Si3 0.403289 0.924241 0.237104
Si Si4 0.241054 0.312939 0.002561
Si Si5 0.266818 0.192672 0.231638
Si Si6 0.923991 0.563442 0.995193
Si Si7 0.299936 0.374425 0.376745
Si Si8 0.924304 0.300505 0.375221
O O1 0.204051 0.924738 0.108560
O O2 0.120553 0.880531 0.270521
O O3 0.237071 0.903317 0.303852
O O4 0.215048 0.000000 0.275286
O O5 0.902013 0.448619 0.725268
O O6 0.899070 0.377362 0.893063
O O7 0.895444 0.337634 0.687145
O O8 0.000000 0.432842 0.768495
O O9 0.342808 0.896728 0.319948
O O10 0.437556 0.000000 0.237478
O O11 0.380252 0.898311 0.112295
O O12 0.289338 0.289338 0.039003
O O13 0.193828 0.293693 0.107507
O O14 0.284138 0.388985 0.989033
O O15 0.211017 0.211017 0.237142
O O16 0.325661 0.237597 0.309901
O O17 0.000000 0.602678 0.991161
O O18 0.347140 0.347140 0.388238
O O19 0.281101 0.385214 0.500371
O O20 0.000000 0.340783 0.376075
#
# Coordination Sequence:
#
# PCOD8322989 Si02
#       8
#    12  12  12  12  12  12  12  12
#     4  10  19  31  47  65  84 108 142 186 236 290
#     4   9  15  22  35  56  82 113 145 172 195 222
#     4   9  15  22  35  56  82 113 145 172 195 222
#     4   9  15  26  44  62  82 108 138 176 221 269
#     4  10  19  31  47  65  84 108 142 186 236 290
#     4   9  13  21  36  55  80 109 142 174 202 235
#     4   9  17  28  40  56  81 112 144 175 208 252
#     4   9  17  28  40  56  81 112 144 175 208 252
#
# _framework density 15.672881
#
# number of rings (size 3 to 8) (size 9 to 14) (size 15 to 20)
#    0.000    2.750    2.500    0.750    0.000    2.500 
#    0.000    2.500    0.000    0.250    0.000    0.000 
#    0.000    3.000    0.000    7.000    0.000    7.000 
#
# Total GULP energy -1189500.074618 kJ/mol
# GULP energy per Si atom -12390.625777 kJ/mol
# Density = 1.563721 g / cm^3
# Si number density = 15.672881 Si / 1000 Ang^3
#
#
#
# Elastic Constant Matrix: (Units=GPa)
#
#
# Indices 1 2 3 4 5 6 
#
# 1 61.6970 36.8991 22.6599 0.0000 -0.0974 0.0000
# 2 36.8991 61.6970 22.6599 0.0000 0.0974 0.0000
# 3 22.6599 22.6599 105.1215 0.0000 0.0000 0.0000
# 4 0.0000 0.0000 0.0000 6.1702 0.0000 0.0974
# 5 -0.0974 0.0974 0.0000 0.0000 6.1702 0.0000
# 6 0.0000 0.0000 0.0000 0.0974 0.0000 12.3990
#
#
#
# Elastic Compliance Matrix: (Units=1/GPa)
#
#
# Indices 1 2 3 4 5 6 
#
# 1 0.025794 -0.014537 -0.002427 0.000000 0.000637 0.000000
# 2 -0.014537 0.025794 -0.002427 0.000000 -0.000637 0.000000
# 3 -0.002427 -0.002427 0.010559 0.000000 0.000000 0.000000
# 4 0.000000 0.000000 0.000000 0.162090 0.000000 -0.001273
# 5 0.000637 -0.000637 0.000000 0.000000 0.162090 0.000000
# 6 0.000000 0.000000 0.000000 -0.001273 0.000000 0.080662
#
#
# Mechanical properties :
#
#
# Convention : Reuss Voigt Hill
#
# Bulk Modulus (GPa) = 42.79401 43.66149 43.22775
# Shear Modulus (GPa) = 9.73597 14.70097 12.21847
#
# Velocity S-wave (km/s) = 2.49509 3.06598 2.79515
# Velocity P-wave (km/s) = 5.97197 6.36020 6.16914
#
# Compressibility (1/GPa) = 0.02336776
#
# Stress axis : x y z
#
# Youngs Moduli (GPa) = 38.76816 38.76816 94.70580
#
# Poissons Ratio (x) = 0.56355 0.22983
# Poissons Ratio (y) = 0.56355 0.22983
# Poissons Ratio (z) = 0.09408 0.09408
#
# Static dielectric constant tensor:
#      x y z
#    x 2.713900 0.000000 0.000000 
#    y 0.000000 2.713900 0.000000 
#    z 0.000000 0.000000 3.229290 
# 
# 
# High freq. dielectric constant tensor:
#      x y z
#    x 1.556760 0.000000 0.000000 
#    y 0.000000 1.556760 0.000000 
#    z 0.000000 0.000000 1.614150 
# 
# From -- ./inp_files/2692.got.cif
#   From: 2010.03.12/outbox.cif.g09.slc.cpg/sg162_2_cif.got.tgz:2692.got - 2010.04.02 06:27:41.
