data_PCOD8322514
_publ_section_title
;
Structure prediction by ZEFSAII (Michael W. Deem and Ramdas Pophale) SiO2 
 PCOD8322514
Probable space group: R 3 2
;
_chemical_formula_sum "Si O2"
_cell_formula_units_Z 81
_cell_length_a 15.604826
_cell_length_b 15.604826
_cell_length_c 19.347913
_cell_angle_alpha 90.000000
_cell_angle_beta 90.000000
_cell_angle_gamma 120.000000
_cell_volume 4080.210964
_symmetry_space_group_name_H-M "R 3 2"
_symmetry_group_IT_number 155
_symmetry_cell_setting 'hexagonal'
loop_
_space_group_symop_operation_xyz
x,y,z
-y,x-y,z
-x+y,-x,z
x-y,-y,-z
-x,-x+y,-z
y,x,-z
2/3+x,1/3+y,1/3+z
2/3-y,1/3+x-y,1/3+z
2/3-x+y,1/3-x,1/3+z
2/3+x-y,1/3-y,1/3-z
2/3-x,1/3-x+y,1/3-z
2/3+y,1/3+x,1/3-z
1/3+x,2/3+y,2/3+z
1/3-y,2/3+x-y,2/3+z
1/3-x+y,2/3-x,2/3+z
1/3+x-y,2/3-y,2/3-z
1/3-x,2/3-x+y,2/3-z
1/3+y,2/3+x,2/3-z
loop_
_atom_site_type_symbol
_atom_site_label
_atom_site_fract_x
_atom_site_fract_y
_atom_site_fract_z
Si Si1 0.325720 0.992387 0.333334
Si Si2 0.886185 0.396539 0.259242
Si Si3 0.449370 0.278501 0.092661
Si Si4 0.820934 0.278780 0.570854
Si Si5 0.829014 0.558007 0.256713
O O1 0.426987 0.012377 0.294952
O O2 0.283903 0.915436 0.395056
O O3 0.894018 0.398822 0.177367
O O4 0.869789 0.486432 0.286970
O O5 0.798816 0.285097 0.281537
O O6 0.508724 0.221951 0.074166
O O7 0.517845 0.389981 0.065411
O O8 0.445157 0.279568 0.174933
O O9 0.341120 0.230253 0.057247
#
# Coordination Sequence:
#
# PCOD8322514 Si02
#       5
#     9  18  18  18  18
#     4  12  22  34  52  82 112 146 176 226 286 334
#     4  10  20  35  56  81 116 142 181 226 290 348
#     4   9  17  34  58  77 106 144 194 226 278 330
#     4  10  20  37  56  80 107 149 188 234 275 334
#     4   9  17  33  57  82 107 146 177 232 283 345
#
# _framework density 19.851915000000002
#
# number of rings (size 3 to 8) (size 9 to 14) (size 15 to 20)
#    0.000    2.222    2.222    1.556    0.000    4.444 
#    4.000    0.000    0.000    0.000    0.000    0.000 
#    0.000    0.000    0.000    0.000    0.000    0.000 
#
# Total GULP energy -334628.056779 kJ/mol
# GULP energy per Si atom -12393.631733 kJ/mol
# Density = 1.980673 g / cm^3
# Si number density = 19.851915 Si / 1000 Ang^3
#
#
#
# Elastic Constant Matrix: (Units=GPa)
#
#
# Indices 1 2 3 4 5 6 
#
# 1 156.3754 86.8339 56.3246 5.4593 -0.0001 0.0000
# 2 86.8339 156.3754 56.3246 -5.4593 0.0001 0.0000
# 3 56.3246 56.3246 57.2218 0.0000 0.0000 0.0000
# 4 5.4593 -5.4593 0.0000 33.2585 0.0000 0.0001
# 5 -0.0001 0.0001 0.0000 0.0000 33.2585 5.4593
# 6 0.0000 0.0000 0.0000 0.0001 5.4593 34.7707
#
#
#
# Elastic Compliance Matrix: (Units=1/GPa)
#
#
# Indices 1 2 3 4 5 6 
#
# 1 0.011159 -0.003602 -0.007439 -0.002423 0.000000 0.000000
# 2 -0.003602 0.011159 -0.007439 0.002423 0.000000 0.000000
# 3 -0.007439 -0.007439 0.032120 0.000000 0.000000 0.000000
# 4 -0.002423 0.002423 0.000000 0.030863 0.000000 0.000000
# 5 0.000000 0.000000 0.000000 0.000000 0.030863 -0.004846
# 6 0.000000 0.000000 0.000000 0.000000 -0.004846 0.029521
#
#
# Mechanical properties :
#
#
# Convention : Reuss Voigt Hill
#
# Bulk Modulus (GPa) = 57.20965 85.43767 71.32366
# Shear Modulus (GPa) = 26.52974 31.62351 29.07662
#
# Velocity S-wave (km/s) = 3.65962 3.99553 3.83126
# Velocity P-wave (km/s) = 6.83651 8.02600 7.45502
#
# Compressibility (1/GPa) = 0.01747957
#
# Stress axis : x y z
#
# Youngs Moduli (GPa) = 89.61623 89.61623 31.13350
#
# Poissons Ratio (x) = 0.32276 0.23159
# Poissons Ratio (y) = 0.32276 0.23159
# Poissons Ratio (z) = 0.66662 0.66662
#
# Static dielectric constant tensor:
#      x y z
#    x 3.873020 0.000000 0.000000 
#    y 0.000000 3.873020 0.000000 
#    z 0.000000 0.000000 3.908690 
# 
# 
# High freq. dielectric constant tensor:
#      x y z
#    x 1.768710 0.000000 0.000000 
#    y 0.000000 1.768710 0.000000 
#    z 0.000000 0.000000 1.790620 
# 
# From -- ./inp_files/7362.got.cif
#   From: 2010.03.12/outbox.cif.g09.slc.cpg/sg155_4_cif.got.tgz:7362.got - 2010.04.03 13:54:13.
