data_PCOD8322947
_publ_section_title
;
Structure prediction by ZEFSAII (Michael W. Deem and Ramdas Pophale) SiO2 
 PCOD8322947
Probable space group: P -3 1 M 
;
_chemical_formula_sum "Si O2"
_cell_formula_units_Z 72
_cell_length_a 25.721477
_cell_length_b 25.721477
_cell_length_c 7.888204
_cell_angle_alpha 90.000000
_cell_angle_beta 90.000000
_cell_angle_gamma 120.000000
_cell_volume 4519.605953
_symmetry_space_group_name_H-M "P -3 1 M "
_symmetry_group_IT_number 162
_symmetry_cell_setting 'hexagonal'
loop_
_space_group_symop_operation_xyz
x,y,z
-y,x-y,z
-x+y,-x,z
-y,-x,-z
-x+y,y,-z
x,x-y,-z
-x,-y,-z
y,-x+y,-z
x-y,x,-z
y,x,z
x-y,-y,z
-x,-x+y,z
loop_
_atom_site_type_symbol
_atom_site_label
_atom_site_fract_x
_atom_site_fract_y
_atom_site_fract_z
Si Si1 0.812822 0.066860 1.000000
Si Si2 0.465823 0.931645 0.300868
Si Si3 0.643976 0.068702 0.804559
Si Si4 0.229069 0.340474 0.310329
Si Si5 0.111404 0.770931 0.689670
Si Si6 0.575275 0.643977 0.804560
O O1 0.780222 0.071842 0.831139
O O2 0.804125 0.000000 1.000000
O O3 0.883557 0.116444 0.000000
O O4 0.780222 0.071842 0.168861
O O5 0.463139 0.926278 0.500000
O O6 0.397931 0.901557 0.229110
O O7 0.503627 0.901557 0.229109
O O8 0.500000 0.000000 0.235379
O O9 0.705744 0.105129 0.702892
O O10 0.609877 0.000000 0.738724
O O11 0.660176 0.072406 0.999999
O O12 0.221647 0.312819 0.500000
O O13 0.181025 0.362051 0.279255
O O14 0.294256 0.399385 0.297106
O O15 0.609877 0.609877 0.738725
#
# Coordination Sequence:
#
# PCOD8322947 Si02
#       6
#    12  12  12  12  12  12
#     4  10  20  34  50  70  95 123 155 191 233 281
#     4   9  17  27  39  59  87 119 153 186 219 261
#     4  10  18  28  43  63  89 121 154 187 225 269
#     4  10  20  32  47  68  94 124 158 194 232 279
#     4  10  20  32  47  68  94 124 158 194 232 279
#     4  10  18  28  43  63  89 121 154 187 225 269
#
# _framework density 15.930592000000001
#
# number of rings (size 3 to 8) (size 9 to 14) (size 15 to 20)
#    0.000    2.167    1.667    2.500    0.000    6.000 
#    0.000    0.000    0.000    0.167    0.000    0.000 
#    1.667    0.000    3.000    8.333    3.000    0.000 
#
# Total GULP energy -892526.831425 kJ/mol
# GULP energy per Si atom -12396.205992 kJ/mol
# Density = 1.589433 g / cm^3
# Si number density = 15.930592 Si / 1000 Ang^3
#
#
#
# Elastic Constant Matrix: (Units=GPa)
#
#
# Indices 1 2 3 4 5 6 
#
# 1 89.5407 43.7303 31.4518 0.0000 0.0000 0.0000
# 2 43.7303 89.5407 31.4518 0.0000 0.0000 0.0000
# 3 31.4518 31.4518 91.2483 0.0000 0.0000 0.0000
# 4 0.0000 0.0000 0.0000 17.2558 0.0000 0.0000
# 5 0.0000 0.0000 0.0000 0.0000 17.2558 0.0000
# 6 0.0000 0.0000 0.0000 0.0000 0.0000 22.9052
#
#
#
# Elastic Compliance Matrix: (Units=1/GPa)
#
#
# Indices 1 2 3 4 5 6 
#
# 1 0.015395 -0.006434 -0.003089 0.000000 0.000000 0.000000
# 2 -0.006434 0.015395 -0.003089 0.000000 0.000000 0.000000
# 3 -0.003089 -0.003089 0.013088 0.000000 0.000000 0.000000
# 4 0.000000 0.000000 0.000000 0.057952 0.000000 0.000000
# 5 0.000000 0.000000 0.000000 0.000000 0.057952 0.000000
# 6 0.000000 0.000000 0.000000 0.000000 0.000000 0.043658
#
#
# Mechanical properties :
#
#
# Convention : Reuss Voigt Hill
#
# Bulk Modulus (GPa) = 53.60231 53.73303 53.66767
# Shear Modulus (GPa) = 21.28729 22.39643 21.84186
#
# Velocity S-wave (km/s) = 3.65944 3.75357 3.70680
# Velocity P-wave (km/s) = 7.18163 7.25178 7.21679
#
# Compressibility (1/GPa) = 0.01865591
#
# Stress axis : x y z
#
# Youngs Moduli (GPa) = 64.95506 64.95506 76.40319
#
# Poissons Ratio (x) = 0.41791 0.23600
# Poissons Ratio (y) = 0.41791 0.23600
# Poissons Ratio (z) = 0.20064 0.20064
#
# Static dielectric constant tensor:
#      x y z
#    x 2.910560 0.000000 0.000000 
#    y 0.000000 2.910560 0.000000 
#    z 0.000000 0.000000 3.217390 
# 
# 
# High freq. dielectric constant tensor:
#      x y z
#    x 1.582900 0.000000 0.000000 
#    y 0.000000 1.582900 0.000000 
#    z 0.000000 0.000000 1.634870 
# 
# From -- ./inp_files/1709.got.cif
#   From: 2010.03.12/outbox.cif.g09.slc.cpg/sg162_1_cif.got.tgz:1709.got - 2010.04.02 06:27:41.
