data_PCOD8322682
_publ_section_title
;
Structure prediction by ZEFSAII (Michael W. Deem and Ramdas Pophale) SiO2 
 PCOD8322682
Probable space group: P 3 M 1
;
_chemical_formula_sum "Si O2"
_cell_formula_units_Z 48
_cell_length_a 12.525007
_cell_length_b 12.525007
_cell_length_c 20.716271
_cell_angle_alpha 90.000000
_cell_angle_beta 90.000000
_cell_angle_gamma 120.000000
_cell_volume 2814.480019
_symmetry_space_group_name_H-M "P 3 M 1"
_symmetry_group_IT_number 156
_symmetry_cell_setting 'hexagonal'
loop_
_space_group_symop_operation_xyz
x,y,z
-y,x-y,z
-x+y,-x,z
-x+y,y,z
x,x-y,z
-y,-x,z
loop_
_atom_site_type_symbol
_atom_site_label
_atom_site_fract_x
_atom_site_fract_y
_atom_site_fract_z
Si Si1 0.749476 0.751850 0.010700
Si Si2 0.001625 0.760447 0.150535
Si Si3 0.418592 0.334066 0.407609
Si Si4 0.334895 0.916667 0.528897
Si Si5 0.667546 0.582447 0.893264
Si Si6 0.751366 0.001486 0.772200
Si Si7 0.416100 0.082854 0.650389
Si Si8 0.002335 0.752106 0.290247
O O1 0.751540 0.875770 0.988162
O O2 0.686180 0.708961 0.082459
O O3 0.890297 0.780593 0.011331
O O4 0.667393 0.642132 0.961910
O O5 0.091658 0.908343 0.150547
O O6 0.022988 0.708899 0.218566
O O7 0.862003 0.724006 0.150360
O O8 0.413083 0.206542 0.422481
O O9 0.560150 0.439851 0.405629
O O10 0.343944 0.357078 0.462962
O O11 0.356825 0.332333 0.339389
O O12 0.439042 0.878083 0.532438
O O13 0.203619 0.796382 0.532297
O O14 0.346351 0.003531 0.588071
O O15 0.771928 0.543855 0.890428
O O16 0.537325 0.462676 0.882189
O O17 0.688955 0.680261 0.838110
O O18 0.894145 0.105856 0.769717
O O19 0.676753 0.014239 0.713031
O O20 0.741193 0.870597 0.767798
O O21 0.549753 0.099505 0.658771
O O22 0.433291 0.216646 0.641546
O O23 0.124053 0.875948 0.312800
O O24 0.890261 0.780522 0.288390
#
# Coordination Sequence:
#
# PCOD8322682 Si02
#       8
#     6   6   6   6   6   6   6   6
#     4   9  16  27  46  71  96 120 149 190 239 288
#     4   8  13  22  39  65  94 121 149 184 231 284
#     4  10  20  33  49  68  93 126 162 199 236 279
#     4  10  20  34  52  73  97 125 158 197 240 283
#     4  10  20  33  49  68  93 126 162 199 236 279
#     4  10  20  34  53  76 101 127 156 195 243 290
#     4  10  20  34  54  78 104 134 166 198 228 266
#     4   9  16  27  45  69  96 123 152 190 237 287
#
# _framework density 17.054660999999999
#
# number of rings (size 3 to 8) (size 9 to 14) (size 15 to 20)
#    0.000    2.500    0.000    2.875    0.000    2.000 
#    0.000    4.375    0.000    9.000    0.000    1.750 
#    0.000    0.000    0.000    0.000    0.000    0.000 
#
# Total GULP energy -594955.827151 kJ/mol
# GULP energy per Si atom -12394.913066 kJ/mol
# Density = 1.701584 g / cm^3
# Si number density = 17.054661 Si / 1000 Ang^3
#
#
#
# Elastic Constant Matrix: (Units=GPa)
#
#
# Indices 1 2 3 4 5 6 
#
# 1 82.5772 48.7258 49.5100 0.8488 0.0001 0.0000
# 2 48.7258 82.5772 49.5100 -0.8488 -0.0001 0.0000
# 3 49.5100 49.5100 134.2810 0.0000 0.0000 0.0000
# 4 0.8488 -0.8488 0.0000 19.8853 0.0000 -0.0001
# 5 0.0001 -0.0001 0.0000 0.0000 19.8853 0.8488
# 6 0.0000 0.0000 0.0000 -0.0001 0.8488 16.9257
#
#
#
# Elastic Compliance Matrix: (Units=1/GPa)
#
#
# Indices 1 2 3 4 5 6 
#
# 1 0.020077 -0.009528 -0.003890 -0.001264 0.000000 0.000000
# 2 -0.009528 0.020077 -0.003890 0.001264 0.000000 0.000000
# 3 -0.003890 -0.003890 0.010315 0.000000 0.000000 0.000000
# 4 -0.001264 0.001264 0.000000 0.050396 0.000000 0.000000
# 5 0.000000 0.000000 0.000000 0.000000 0.050396 -0.002527
# 6 0.000000 0.000000 0.000000 0.000000 -0.002527 0.059208
#
#
# Mechanical properties :
#
#
# Convention : Reuss Voigt Hill
#
# Bulk Modulus (GPa) = 63.06957 66.10299 64.58628
# Shear Modulus (GPa) = 19.97061 21.45192 20.71126
#
# Velocity S-wave (km/s) = 3.42567 3.55044 3.48861
# Velocity P-wave (km/s) = 7.26003 7.45997 7.36068
#
# Compressibility (1/GPa) = 0.01585551
#
# Stress axis : x y z
#
# Youngs Moduli (GPa) = 49.80897 49.80897 96.94394
#
# Poissons Ratio (x) = 0.47456 0.37707
# Poissons Ratio (y) = 0.47456 0.37707
# Poissons Ratio (z) = 0.19373 0.19373
#
# Static dielectric constant tensor:
#      x y z
#    x 2.977140 0.000000 0.000000 
#    y 0.000000 2.977140 0.000000 
#    z 0.000000 0.000000 3.654240 
# 
# 
# High freq. dielectric constant tensor:
#      x y z
#    x 1.640460 0.000000 0.000000 
#    y 0.000000 1.640460 0.000000 
#    z 0.000000 0.000000 1.684260 
# 
# From -- ./inp_files/1096.got.cif
#   From: 2010.03.12/outbox.cif.g09.slc.cpg/sg156_cif.got.tgz:1096.got - 2010.04.03 13:58:47.
