data_PCOD8322742
_publ_section_title
;
Structure prediction by ZEFSAII (Michael W. Deem and Ramdas Pophale) SiO2 
 PCOD8322742
Probable space group: P 3 C 1
;
_chemical_formula_sum "Si O2"
_cell_formula_units_Z 42
_cell_length_a 22.234598
_cell_length_b 22.234598
_cell_length_c 5.320275
_cell_angle_alpha 90.000000
_cell_angle_beta 90.000000
_cell_angle_gamma 120.000000
_cell_volume 2277.840322
_symmetry_space_group_name_H-M "P 3 C 1"
_symmetry_group_IT_number 158
_symmetry_cell_setting 'hexagonal'
loop_
_space_group_symop_operation_xyz
x,y,z
-y,x-y,z
-x+y,-x,z
-x+y,y,1/2+z
x,x-y,1/2+z
-y,-x,1/2+z
loop_
_atom_site_type_symbol
_atom_site_label
_atom_site_fract_x
_atom_site_fract_y
_atom_site_fract_z
Si Si1 0.333178 0.355436 0.195390
Si Si2 0.147874 0.237543 0.695554
Si Si3 0.175652 0.392860 0.675484
Si Si4 0.973318 0.270530 0.199042
Si Si5 0.468983 0.494158 0.171510
Si Si6 0.873909 0.405715 0.163049
Si Si7 0.416971 0.171041 0.145438
O O1 0.284691 0.387149 0.133463
O O2 0.318623 0.326406 0.476779
O O3 0.412662 0.413806 0.177688
O O4 0.320326 0.300133 0.980066
O O5 0.101242 0.203059 0.446447
O O6 0.173923 0.319424 0.706292
O O7 0.213281 0.224443 0.693858
O O8 0.223329 0.433702 0.434805
O O9 0.890899 0.227170 0.148130
O O10 0.467054 0.535712 0.419709
O O11 0.545164 0.502064 0.163021
O O12 0.841501 0.420468 0.413624
O O13 0.859693 0.327920 0.162752
O O14 0.431557 0.220853 0.382012
#
# Coordination Sequence:
#
# PCOD8322742 Si02
#       7
#     6   6   6   6   6   6   6
#     4  12  19  30  54  78 105 145 180 214 265 323
#     4  10  16  29  44  75 109 140 177 199 230 311
#     4  10  16  28  42  74 114 140 172 196 235 314
#     4  12  20  32  54  74 107 148 181 215 258 332
#     4  10  20  32  46  73  99 126 179 219 265 324
#     4  10  19  38  60  76  97 125 174 233 289 357
#     4  12  26  41  56  82 109 144 193 238 304 367
#
# _framework density 18.438516
#
# number of rings (size 3 to 8) (size 9 to 14) (size 15 to 20)
#    0.000    1.143    5.714    6.000    0.000    0.000 
#    0.000    0.000    0.000    5.714    0.000    0.000 
#    0.000    0.000    0.000   17.143    1.714    0.000 
#
# Total GULP energy -520450.738400 kJ/mol
# GULP energy per Si atom -12391.684248 kJ/mol
# Density = 1.839655 g / cm^3
# Si number density = 18.438516 Si / 1000 Ang^3
#
#
#
# Elastic Constant Matrix: (Units=GPa)
#
#
# Indices 1 2 3 4 5 6 
#
# 1 54.7662 15.7694 12.0163 0.8253 0.0000 0.0000
# 2 15.7694 54.7662 12.0163 -0.8253 0.0000 0.0000
# 3 12.0163 12.0163 165.7124 0.0000 0.0000 0.0000
# 4 0.8253 -0.8253 0.0000 19.0057 0.0000 0.0000
# 5 0.0000 0.0000 0.0000 0.0000 19.0057 0.8253
# 6 0.0000 0.0000 0.0000 0.0000 0.8253 19.4984
#
#
#
# Elastic Compliance Matrix: (Units=1/GPa)
#
#
# Indices 1 2 3 4 5 6 
#
# 1 0.020113 -0.005577 -0.001054 -0.001116 0.000000 0.000000
# 2 -0.005577 0.020113 -0.001054 0.001116 0.000000 0.000000
# 3 -0.001054 -0.001054 0.006187 0.000000 0.000000 0.000000
# 4 -0.001116 0.001116 0.000000 0.052713 0.000000 0.000000
# 5 0.000000 0.000000 0.000000 0.000000 0.052713 -0.002231
# 6 0.000000 0.000000 0.000000 0.000000 -0.002231 0.051381
#
#
# Mechanical properties :
#
#
# Convention : Reuss Voigt Hill
#
# Bulk Modulus (GPa) = 32.21248 39.42764 35.82006
# Shear Modulus (GPa) = 21.83994 27.19815 24.51905
#
# Velocity S-wave (km/s) = 3.44535 3.84483 3.65056
# Velocity P-wave (km/s) = 5.77368 6.41405 6.10227
#
# Compressibility (1/GPa) = 0.03104387
#
# Stress axis : x y z
#
# Youngs Moduli (GPa) = 49.71818 49.71818 161.61829
#
# Poissons Ratio (x) = 0.27728 0.17036
# Poissons Ratio (y) = 0.27728 0.17036
# Poissons Ratio (z) = 0.05241 0.05241
#
# Static dielectric constant tensor:
#      x y z
#    x 3.097300 0.000000 0.000000 
#    y 0.000000 3.097300 0.000000 
#    z 0.000000 0.000000 4.885920 
# 
# 
# High freq. dielectric constant tensor:
#      x y z
#    x 1.665600 0.000000 0.000000 
#    y 0.000000 1.665600 0.000000 
#    z 0.000000 0.000000 1.766240 
# 
# From -- ./inp_files/25.got.cif
#   From: 2010.03.12/outbox.cif.g09.slc.cpg/sg158_cif.got.tgz:25.got - 2010.04.03 13:59:47.
