data_PCOD8322168
_publ_section_title
;
Structure prediction by ZEFSAII (Michael W. Deem and Ramdas Pophale) SiO2 
 PCOD8322168
Probable space group: P 31 2 1
;
_chemical_formula_sum "Si O2"
_cell_formula_units_Z 45
_cell_length_a 11.646767
_cell_length_b 11.646767
_cell_length_c 17.214529
_cell_angle_alpha 90.000000
_cell_angle_beta 90.000000
_cell_angle_gamma 120.000000
_cell_volume 2022.257947
_symmetry_space_group_name_H-M "P 31 2 1"
_symmetry_group_IT_number 152
_symmetry_cell_setting 'hexagonal'
loop_
_space_group_symop_operation_xyz
x,y,z
-y,x-y,1/3+z
-x+y,-x,2/3+z
x-y,-y,2/3-z
-x,-x+y,1/3-z
y,x,-z
loop_
_atom_site_type_symbol
_atom_site_label
_atom_site_fract_x
_atom_site_fract_y
_atom_site_fract_z
Si Si1 0.000000 0.642221 0.166667
Si Si2 0.057305 0.219956 0.948697
Si Si3 0.756866 0.614988 0.961515
Si Si4 0.217267 0.254766 0.341280
Si Si5 0.523666 0.837632 0.561971
Si Si6 0.000695 0.405780 0.485807
Si Si7 0.732452 0.448333 0.104889
Si Si8 0.882220 0.747904 0.551526
O O1 0.130846 0.631192 0.179486
O O2 0.000991 0.724833 0.240300
O O3 0.990789 0.289938 0.901771
O O4 0.151457 0.191920 0.893258
O O5 0.125665 0.299413 0.027818
O O6 0.937007 0.083394 0.983347
O O7 0.674690 0.558029 0.882336
O O8 0.913559 0.716595 0.948124
O O9 0.700130 0.700130 0.000000
O O10 0.746523 0.497329 0.015853
O O11 0.240064 0.393416 0.305731
O O12 0.497285 0.960772 0.562981
O O13 0.379084 0.708149 0.563453
O O14 0.609906 0.848942 0.486920
O O15 0.144984 0.505756 0.519610
O O16 0.816148 0.816148 0.500000
#
# Coordination Sequence:
#
# PCOD8322168 Si02
#       8
#     3   6   6   6   6   6   6   6
#     4  10  22  44  68 102 142 170 242 290 352 424
#     4  11  25  44  74 107 142 186 241 301 372 433
#     4   9  22  43  70 101 135 176 242 295 359 426
#     4  11  23  41  70 108 133 185 231 302 361 423
#     4  12  28  44  73  97 150 189 243 289 367 444
#     4  11  25  46  70 103 140 190 245 294 358 444
#     4  10  24  43  70 101 137 189 232 302 353 425
#     4  11  26  46  69 110 147 186 233 313 372 429
#
# _framework density 22.252354
#
# number of rings (size 3 to 8) (size 9 to 14) (size 15 to 20)
#    0.000    1.333    2.667    0.800    7.467    5.333 
#    4.800    0.000    0.000    0.000    0.000    0.000 
#    0.000    0.000    0.000    0.000    0.000    0.000 
#
# Total GULP energy -557814.862352 kJ/mol
# GULP energy per Si atom -12395.885830 kJ/mol
# Density = 2.220171 g / cm^3
# Si number density = 22.252354 Si / 1000 Ang^3
#
#
#
# Elastic Constant Matrix: (Units=GPa)
#
#
# Indices 1 2 3 4 5 6 
#
# 1 103.7938 44.8127 24.1229 -3.9985 -0.0001 0.0000
# 2 44.8127 103.7938 24.1229 3.9985 0.0001 0.0000
# 3 24.1229 24.1229 85.0610 0.0000 0.0000 0.0000
# 4 -3.9985 3.9985 0.0000 28.2119 0.0000 0.0001
# 5 -0.0001 0.0001 0.0000 0.0000 28.2119 -3.9985
# 6 0.0000 0.0000 0.0000 0.0001 -3.9985 29.4905
#
#
#
# Elastic Compliance Matrix: (Units=1/GPa)
#
#
# Indices 1 2 3 4 5 6 
#
# 1 0.012349 -0.004938 -0.002102 0.002450 0.000000 0.000000
# 2 -0.004938 0.012349 -0.002102 -0.002450 0.000000 0.000000
# 3 -0.002102 -0.002102 0.012948 0.000000 0.000000 0.000000
# 4 0.002450 -0.002450 0.000000 0.036141 0.000000 0.000000
# 5 0.000000 0.000000 0.000000 0.000000 0.036141 0.004900
# 6 0.000000 0.000000 0.000000 0.000000 0.004900 0.034574
#
#
# Mechanical properties :
#
#
# Convention : Reuss Voigt Hill
#
# Bulk Modulus (GPa) = 51.64216 53.19619 52.41917
# Shear Modulus (GPa) = 29.54403 30.48887 30.01645
#
# Velocity S-wave (km/s) = 3.64769 3.70556 3.67674
# Velocity P-wave (km/s) = 6.40302 6.50123 6.45231
#
# Compressibility (1/GPa) = 0.01936402
#
# Stress axis : x y z
#
# Youngs Moduli (GPa) = 80.97701 80.97701 77.22941
#
# Poissons Ratio (x) = 0.39983 0.16233
# Poissons Ratio (y) = 0.39983 0.16233
# Poissons Ratio (z) = 0.17020 0.17020
#
# Static dielectric constant tensor:
#      x y z
#    x 3.968370 0.000000 0.000000 
#    y 0.000000 3.968370 0.000000 
#    z 0.000000 0.000000 4.213060 
# 
# 
# High freq. dielectric constant tensor:
#      x y z
#    x 1.873990 0.000000 0.000000 
#    y 0.000000 1.873990 0.000000 
#    z 0.000000 0.000000 1.884800 
# 
# From -- ./inp_files/2518.got.cif
#   From: 2010.03.12/outbox.cif.g09.slc.cpg/sg152_2_cif.got.tgz:2518.got - 2010.04.03 13:45:27.
