data_PCOD8322579
_publ_section_title
;
Structure prediction by ZEFSAII (Michael W. Deem and Ramdas Pophale) SiO2 
 PCOD8322579
Probable space group: R 3 2
;
_chemical_formula_sum "Si O2"
_cell_formula_units_Z 144
_cell_length_a 29.398728
_cell_length_b 29.398728
_cell_length_c 9.461405
_cell_angle_alpha 90.000000
_cell_angle_beta 90.000000
_cell_angle_gamma 120.000000
_cell_volume 7081.794904
_symmetry_space_group_name_H-M "R 3 2"
_symmetry_group_IT_number 155
_symmetry_cell_setting 'hexagonal'
loop_
_space_group_symop_operation_xyz
x,y,z
-y,x-y,z
-x+y,-x,z
x-y,-y,-z
-x,-x+y,-z
y,x,-z
2/3+x,1/3+y,1/3+z
2/3-y,1/3+x-y,1/3+z
2/3-x+y,1/3-x,1/3+z
2/3+x-y,1/3-y,1/3-z
2/3-x,1/3-x+y,1/3-z
2/3+y,1/3+x,1/3-z
1/3+x,2/3+y,2/3+z
1/3-y,2/3+x-y,2/3+z
1/3-x+y,2/3-x,2/3+z
1/3+x-y,2/3-y,2/3-z
1/3-x,2/3-x+y,2/3-z
1/3+y,2/3+x,2/3-z
loop_
_atom_site_type_symbol
_atom_site_label
_atom_site_fract_x
_atom_site_fract_y
_atom_site_fract_z
Si Si1 0.310382 0.745866 0.819754
Si Si2 0.291166 0.060444 0.272925
Si Si3 0.545322 0.819586 0.632721
Si Si4 0.573137 0.448509 0.572667
Si Si5 0.909942 0.276351 0.532377
Si Si6 0.054267 0.861344 0.481387
Si Si7 0.882649 0.968407 0.235620
Si Si8 0.055741 0.537166 0.935039
O O1 0.333334 0.747106 0.666667
O O2 0.295502 0.791068 0.846684
O O3 0.256535 0.692403 0.845926
O O4 0.356494 0.754701 0.925579
O O5 0.333334 0.101864 0.166667
O O6 0.253112 0.083490 0.305081
O O7 0.323854 0.061840 0.409302
O O8 0.258464 0.003825 0.195234
O O9 0.532872 0.866205 0.666667
O O10 0.560817 0.801632 0.777050
O O11 0.496204 0.771482 0.551542
O O12 0.595534 0.840562 0.527657
O O13 0.552882 0.406593 0.698550
O O14 0.938476 0.271809 0.666667
O O15 0.846919 0.238197 0.542967
O O16 0.032104 0.892411 0.389563
O O17 0.102357 0.862829 0.400264
O O18 0.000000 0.804096 0.500000
O O19 0.000000 0.522287 0.000000
#
# Coordination Sequence:
#
# PCOD8322579 Si02
#       8
#    18  18  18  18  18  18  18  18
#     4  12  22  37  62  90 128 172 233 274 319 386
#     4  12  26  41  63  92 130 170 219 277 330 391
#     4  11  20  41  65  93 128 171 218 269 329 397
#     4  12  24  38  62  95 124 168 229 273 325 386
#     4  11  23  44  64  90 125 173 216 265 328 391
#     4  11  23  44  65  91 134 173 210 270 340 405
#     4  11  23  41  60  89 129 177 221 273 328 386
#     4  10  23  42  69  97 129 167 218 271 337 404
#
# _framework density 20.333828
#
# number of rings (size 3 to 8) (size 9 to 14) (size 15 to 20)
#    0.000    0.750    3.750    5.125    3.500    1.500 
#    0.000    0.000    0.000    0.750    0.000    0.000 
#    0.000    0.000    0.000    0.000    0.000    0.000 
#
# Total GULP energy -594892.231089 kJ/mol
# GULP energy per Si atom -12393.588148 kJ/mol
# Density = 2.028755 g / cm^3
# Si number density = 20.333828 Si / 1000 Ang^3
#
#
#
# Elastic Constant Matrix: (Units=GPa)
#
#
# Indices 1 2 3 4 5 6 
#
# 1 104.5866 52.7768 44.5073 -1.8689 0.0135 -0.0020
# 2 52.7768 104.5103 44.6204 1.8862 0.0093 -0.0019
# 3 44.5073 44.6204 139.2743 0.0448 -0.1159 -0.1255
# 4 -1.8689 1.8862 0.0448 36.5015 0.0349 -0.0377
# 5 0.0135 0.0093 -0.1159 0.0349 36.4738 -1.8727
# 6 -0.0020 -0.0019 -0.1255 -0.0377 -1.8727 25.8189
#
#
#
# Elastic Compliance Matrix: (Units=1/GPa)
#
#
# Indices 1 2 3 4 5 6 
#
# 1 0.013565 -0.005812 -0.002473 0.000998 -0.000013 -0.000011
# 2 -0.005812 0.013587 -0.002495 -0.000997 -0.000009 -0.000014
# 3 -0.002473 -0.002495 0.008770 -0.000008 0.000032 0.000045
# 4 0.000998 -0.000997 -0.000008 0.027499 -0.000024 0.000038
# 5 -0.000013 -0.000009 0.000032 -0.000024 0.027520 0.001996
# 6 -0.000011 -0.000014 0.000045 0.000038 0.001996 0.038876
#
#
# Mechanical properties :
#
#
# Convention : Reuss Voigt Hill
#
# Bulk Modulus (GPa) = 69.63584 70.24226 69.93905
# Shear Modulus (GPa) = 32.01763 33.52329 32.77046
#
# Velocity S-wave (km/s) = 3.97243 4.06476 4.01886
# Velocity P-wave (km/s) = 7.44049 7.52657 7.48365
#
# Compressibility (1/GPa) = 0.01436042
#
# Stress axis : x y z
#
# Youngs Moduli (GPa) = 73.72090 73.60042 114.02675
#
# Poissons Ratio (x) = 0.42778 0.28199
# Poissons Ratio (y) = 0.42848 0.28453
# Poissons Ratio (z) = 0.18232 0.18365
#
# Static dielectric constant tensor:
#      x y z
#    x 3.748350 0.000090 -0.000200 
#    y 0.000090 3.748140 0.000250 
#    z -0.000200 0.000250 3.704850 
# 
# 
# High freq. dielectric constant tensor:
#      x y z
#    x 1.784360 0.000000 -0.000020 
#    y 0.000000 1.784370 0.000000 
#    z -0.000020 0.000000 1.814330 
# 
# From -- ./inp_files/3048.got.cif
#   From: 2010.03.12/outbox.cif.g09.slc.cpg/sg155_2_cif.got.tgz:3048.got - 2010.04.03 13:54:13.
