data_PCOD8322385
_publ_section_title
;
Structure prediction by ZEFSAII (Michael W. Deem and Ramdas Pophale) SiO2 
 PCOD8322385
Probable space group: P 32 2 1
;
_chemical_formula_sum "Si O2"
_cell_formula_units_Z 48
_cell_length_a 13.976816
_cell_length_b 13.976816
_cell_length_c 12.865857
_cell_angle_alpha 90.000000
_cell_angle_beta 90.000000
_cell_angle_gamma 120.000000
_cell_volume 2176.636199
_symmetry_space_group_name_H-M "P 32 2 1"
_symmetry_group_IT_number 154
_symmetry_cell_setting 'hexagonal'
loop_
_space_group_symop_operation_xyz
x,y,z
-y,x-y,2/3+z
-x+y,-x,1/3+z
x-y,-y,1/3-z
-x,-x+y,2/3-z
y,x,-z
loop_
_atom_site_type_symbol
_atom_site_label
_atom_site_fract_x
_atom_site_fract_y
_atom_site_fract_z
Si Si1 0.850889 0.127091 0.132316
Si Si2 0.561975 0.226099 0.107972
Si Si3 0.168669 0.779401 0.661770
Si Si4 0.694912 0.784831 0.789085
Si Si5 0.293192 0.370113 0.726230
Si Si6 0.889216 0.619746 0.378868
Si Si7 0.215968 0.592807 0.657874
Si Si8 0.960395 0.440896 0.627457
O O1 0.837745 0.195326 0.226376
O O2 0.981250 0.185357 0.110213
O O3 0.804334 0.000000 0.166667
O O4 0.796703 0.148522 0.028810
O O5 0.504309 0.288281 0.050389
O O6 0.550339 0.230976 0.230687
O O7 0.691667 0.282901 0.081500
O O8 0.495738 0.096117 0.074970
O O9 0.183551 0.863903 0.571616
O O10 0.240494 0.718777 0.653289
O O11 0.042030 0.686036 0.659755
O O12 0.694197 0.866286 0.701348
O O13 0.591267 0.662898 0.778090
O O14 0.236223 0.324983 0.838696
O O15 0.393758 0.494140 0.749598
O O16 0.000000 0.622542 0.333334
O O17 0.092147 0.509873 0.622783
#
# Coordination Sequence:
#
# PCOD8322385 Si02
#       8
#     6   6   6   6   6   6   6   6
#     4  10  23  44  72  96 126 182 230 286 344 412
#     4  11  25  40  67  97 137 171 235 274 342 423
#     4  10  22  42  66  95 136 170 225 280 340 409
#     4  11  24  42  65 104 137 170 230 284 351 417
#     4  10  21  43  70  89 131 182 222 272 347 407
#     4  11  24  43  67  92 140 181 217 286 346 413
#     4  11  25  42  66  97 133 177 225 283 341 423
#     4  10  24  41  65  97 134 175 226 284 337 413
#
# _framework density 22.052377
#
# number of rings (size 3 to 8) (size 9 to 14) (size 15 to 20)
#    0.000    1.500    1.250    2.250   10.500    2.500 
#    0.000    2.500    0.000    0.000    0.000    0.000 
#    0.000    0.000    0.000    0.000    0.000    0.000 
#
# Total GULP energy -594854.777415 kJ/mol
# GULP energy per Si atom -12392.807863 kJ/mol
# Density = 2.200218 g / cm^3
# Si number density = 22.052377 Si / 1000 Ang^3
#
#
#
# Elastic Constant Matrix: (Units=GPa)
#
#
# Indices 1 2 3 4 5 6 
#
# 1 71.9307 15.8281 11.9494 1.5473 0.0000 0.0000
# 2 15.8281 71.9307 11.9494 -1.5473 0.0000 0.0000
# 3 11.9494 11.9494 134.9048 0.0000 0.0000 0.0000
# 4 1.5473 -1.5473 0.0000 29.5127 0.0000 0.0000
# 5 0.0000 0.0000 0.0000 0.0000 29.5127 1.5473
# 6 0.0000 0.0000 0.0000 0.0000 1.5473 28.0513
#
#
#
# Elastic Compliance Matrix: (Units=1/GPa)
#
#
# Indices 1 2 3 4 5 6 
#
# 1 0.014776 -0.003100 -0.001034 -0.000937 0.000000 0.000000
# 2 -0.003100 0.014776 -0.001034 0.000937 0.000000 0.000000
# 3 -0.001034 -0.001034 0.007596 0.000000 0.000000 0.000000
# 4 -0.000937 0.000937 0.000000 0.033982 0.000000 0.000000
# 5 0.000000 0.000000 0.000000 0.000000 0.033982 -0.001874
# 6 0.000000 0.000000 0.000000 0.000000 -0.001874 0.035752
#
#
# Mechanical properties :
#
#
# Convention : Reuss Voigt Hill
#
# Bulk Modulus (GPa) = 37.29694 39.80220 38.54957
# Shear Modulus (GPa) = 31.22287 33.35128 32.28708
#
# Velocity S-wave (km/s) = 3.76686 3.89313 3.83052
# Velocity P-wave (km/s) = 5.98904 6.18844 6.08956
#
# Compressibility (1/GPa) = 0.02681185
#
# Stress axis : x y z
#
# Youngs Moduli (GPa) = 67.67563 67.67563 131.65068
#
# Poissons Ratio (x) = 0.20978 0.13616
# Poissons Ratio (y) = 0.20978 0.13616
# Poissons Ratio (z) = 0.06999 0.06999
#
# Static dielectric constant tensor:
#      x y z
#    x 3.998150 0.000000 0.000000 
#    y 0.000000 3.998150 0.000000 
#    z 0.000000 0.000000 3.954080 
# 
# 
# High freq. dielectric constant tensor:
#      x y z
#    x 1.863220 0.000000 0.000000 
#    y 0.000000 1.863220 0.000000 
#    z 0.000000 0.000000 1.871910 
# 
# From -- ./inp_files/1793.got.cif
#   From: 2010.03.12/outbox.cif.g09.slc.cpg/sg154_1_cif.got.tgz:1793.got - 2010.04.03 13:51:21.
