data_PCOD8322972
_publ_section_title
;
Structure prediction by ZEFSAII (Michael W. Deem and Ramdas Pophale) SiO2 
 PCOD8322972
Probable space group: P -3 1 M 
;
_chemical_formula_sum "Si O2"
_cell_formula_units_Z 84
_cell_length_a 18.400324
_cell_length_b 18.400324
_cell_length_c 17.369910
_cell_angle_alpha 90.000000
_cell_angle_beta 90.000000
_cell_angle_gamma 120.000000
_cell_volume 5093.064081
_symmetry_space_group_name_H-M "P -3 1 M "
_symmetry_group_IT_number 162
_symmetry_cell_setting 'hexagonal'
loop_
_space_group_symop_operation_xyz
x,y,z
-y,x-y,z
-x+y,-x,z
-y,-x,-z
-x+y,y,-z
x,x-y,-z
-x,-y,-z
y,-x+y,-z
x-y,x,-z
y,x,z
x-y,-y,z
-x,-x+y,z
loop_
_atom_site_type_symbol
_atom_site_label
_atom_site_fract_x
_atom_site_fract_y
_atom_site_fract_z
Si Si1 0.903191 0.533576 0.360061
Si Si2 0.097891 0.360928 0.500000
Si Si3 0.255759 0.348894 0.911931
Si Si4 0.500111 0.167936 0.803307
Si Si5 0.348894 0.093134 0.911931
Si Si6 0.167936 0.500111 0.196692
Si Si7 0.533576 0.903191 0.639939
O O1 0.881524 0.579518 0.426483
O O2 0.850088 0.528241 0.285294
O O3 0.881247 0.440623 0.388132
O O4 0.000000 0.586726 0.336827
O O5 0.161862 0.323724 0.500000
O O6 0.118476 0.420482 0.426483
O O7 0.000000 0.285708 0.500000
O O8 0.270659 0.270659 0.897870
O O9 0.159262 0.318525 0.890405
O O10 0.319177 0.425166 0.858626
O O11 0.275084 0.379989 0.000000
O O12 0.425166 0.105989 0.858625
O O13 0.527714 0.263857 0.821615
O O14 0.576091 0.152182 0.820846
O O15 0.270659 0.000000 0.897870
O O16 0.149912 0.471759 0.285294
O O17 0.586726 0.000000 0.663173
#
# Coordination Sequence:
#
# PCOD8322972 Si02
#       7
#    12  12  12  12  12  12  12
#     4   9  17  29  46  67  89 114 145 182 223 265
#     4  10  19  31  47  66  89 117 150 186 223 265
#     4   9  18  32  49  68  89 114 145 182 224 268
#     4  10  19  30  44  64  92 124 156 187 218 252
#     4   9  18  32  49  68  89 114 145 182 224 268
#     4  10  19  30  44  64  92 124 156 187 218 252
#     4   9  17  29  46  67  89 114 145 182 223 265
#
# _framework density 16.493020000000001
#
# number of rings (size 3 to 8) (size 9 to 14) (size 15 to 20)
#    0.000    2.571    0.000    2.429    0.000    4.000 
#    0.000    1.429    0.000    6.143    0.000    2.000 
#    0.000    0.000    0.000    9.143    0.000    6.286 
#
# Total GULP energy -1041449.976177 kJ/mol
# GULP energy per Si atom -12398.214002 kJ/mol
# Density = 1.645548 g / cm^3
# Si number density = 16.493020 Si / 1000 Ang^3
#
#
#
# Elastic Constant Matrix: (Units=GPa)
#
#
# Indices 1 2 3 4 5 6 
#
# 1 95.0802 57.5261 43.9159 0.0000 0.0000 0.0000
# 2 57.5261 95.0802 43.9159 0.0000 0.0000 0.0000
# 3 43.9159 43.9159 64.9570 0.0000 0.0000 0.0000
# 4 0.0000 0.0000 0.0000 23.1592 0.0000 0.0000
# 5 0.0000 0.0000 0.0000 0.0000 23.1592 0.0000
# 6 0.0000 0.0000 0.0000 0.0000 0.0000 18.7771
#
#
#
# Elastic Compliance Matrix: (Units=1/GPa)
#
#
# Indices 1 2 3 4 5 6 
#
# 1 0.018677 -0.007951 -0.007252 0.000000 0.000000 0.000000
# 2 -0.007951 0.018677 -0.007252 0.000000 0.000000 0.000000
# 3 -0.007252 -0.007252 0.025201 0.000000 0.000000 0.000000
# 4 0.000000 0.000000 0.000000 0.043179 0.000000 0.000000
# 5 0.000000 0.000000 0.000000 0.000000 0.043179 0.000000
# 6 0.000000 0.000000 0.000000 0.000000 0.000000 0.053256
#
#
# Mechanical properties :
#
#
# Convention : Reuss Voigt Hill
#
# Bulk Modulus (GPa) = 56.67062 60.64812 58.65937
# Shear Modulus (GPa) = 19.76578 20.33641 20.05109
#
# Velocity S-wave (km/s) = 3.46559 3.51526 3.49052
# Velocity P-wave (km/s) = 7.10273 7.30260 7.20336
#
# Compressibility (1/GPa) = 0.01764583
#
# Stress axis : x y z
#
# Youngs Moduli (GPa) = 53.54043 53.54043 39.68145
#
# Poissons Ratio (x) = 0.42569 0.28777
# Poissons Ratio (y) = 0.42569 0.28777
# Poissons Ratio (z) = 0.38828 0.38828
#
# Static dielectric constant tensor:
#      x y z
#    x 3.033750 0.000000 0.000000 
#    y 0.000000 3.033750 0.000000 
#    z 0.000000 0.000000 3.163850 
# 
# 
# High freq. dielectric constant tensor:
#      x y z
#    x 1.623010 0.000000 0.000000 
#    y 0.000000 1.623010 0.000000 
#    z 0.000000 0.000000 1.642850 
# 
# From -- ./inp_files/3210.got.cif
#   From: 2010.03.12/outbox.cif.g09.slc.cpg/sg162_2_cif.got.tgz:3210.got - 2010.04.02 06:27:41.
