data_PCOD8322484
_publ_section_title
;
Structure prediction by ZEFSAII (Michael W. Deem and Ramdas Pophale) SiO2 
 PCOD8322484
Probable space group: R 3 2
;
_chemical_formula_sum "Si O2"
_cell_formula_units_Z 108
_cell_length_a 17.208497
_cell_length_b 17.208497
_cell_length_c 22.654609
_cell_angle_alpha 90.000000
_cell_angle_beta 90.000000
_cell_angle_gamma 120.000000
_cell_volume 5809.959214
_symmetry_space_group_name_H-M "R 3 2"
_symmetry_group_IT_number 155
_symmetry_cell_setting 'hexagonal'
loop_
_space_group_symop_operation_xyz
x,y,z
-y,x-y,z
-x+y,-x,z
x-y,-y,-z
-x,-x+y,-z
y,x,-z
2/3+x,1/3+y,1/3+z
2/3-y,1/3+x-y,1/3+z
2/3-x+y,1/3-x,1/3+z
2/3+x-y,1/3-y,1/3-z
2/3-x,1/3-x+y,1/3-z
2/3+y,1/3+x,1/3-z
1/3+x,2/3+y,2/3+z
1/3-y,2/3+x-y,2/3+z
1/3-x+y,2/3-x,2/3+z
1/3+x-y,2/3-y,2/3-z
1/3-x,2/3-x+y,2/3-z
1/3+y,2/3+x,2/3-z
loop_
_atom_site_type_symbol
_atom_site_label
_atom_site_fract_x
_atom_site_fract_y
_atom_site_fract_z
Si Si1 0.378927 0.095967 0.395210
Si Si2 0.670345 0.513389 0.511461
Si Si3 0.331718 0.489900 0.840033
Si Si4 0.225853 0.276358 0.056573
Si Si5 0.636916 0.914173 0.224416
Si Si6 0.324519 0.094429 0.598517
O O1 0.418933 0.085600 0.333334
O O2 0.440748 0.103655 0.450919
O O3 0.368409 0.182007 0.392401
O O4 0.278886 0.013059 0.406678
O O5 0.737838 0.475043 0.501822
O O6 0.572398 0.431009 0.526153
O O7 0.703209 0.580653 0.567017
O O8 0.325096 0.442387 0.777721
O O9 0.364099 0.442611 0.887215
O O10 0.318054 0.372543 0.056236
O O11 0.218140 0.218140 0.000000
O O12 0.585284 0.918617 0.166667
O O13 0.607925 0.810052 0.235336
O O14 0.333334 0.121643 0.666667
#
# Coordination Sequence:
#
# PCOD8322484 Si02
#       6
#    18  18  18  18  18  18
#     4  10  21  34  53  82 111 143 179 217 267 329
#     4  10  19  34  54  77 110 146 179 223 274 325
#     4   9  19  32  50  77 105 140 180 218 270 327
#     4  10  19  32  52  78 107 138 175 219 265 322
#     4   9  19  34  52  75 102 138 182 225 271 316
#     4  10  21  36  53  77 108 143 184 230 276 323
#
# _framework density 18.588771000000001
#
# number of rings (size 3 to 8) (size 9 to 14) (size 15 to 20)
#    0.000    2.333    0.000    3.333    0.000    6.667 
#    0.000    0.000    0.000    6.000    0.000    4.667 
#    0.000    0.000    0.000    0.000    0.000    0.000 
#
# Total GULP energy -446228.967019 kJ/mol
# GULP energy per Si atom -12395.249084 kJ/mol
# Density = 1.854646 g / cm^3
# Si number density = 18.588771 Si / 1000 Ang^3
#
#
#
# Elastic Constant Matrix: (Units=GPa)
#
#
# Indices 1 2 3 4 5 6 
#
# 1 88.9622 42.9079 31.3653 1.6369 -0.0001 0.0000
# 2 42.9079 88.9622 31.3653 -1.6369 0.0001 0.0000
# 3 31.3653 31.3653 94.0628 0.0000 0.0000 0.0000
# 4 1.6369 -1.6369 0.0000 23.6538 0.0000 0.0001
# 5 -0.0001 0.0001 0.0000 0.0000 23.6538 1.6369
# 6 0.0000 0.0000 0.0000 0.0001 1.6369 23.0272
#
#
#
# Elastic Compliance Matrix: (Units=1/GPa)
#
#
# Indices 1 2 3 4 5 6 
#
# 1 0.015417 -0.006404 -0.003005 -0.001510 0.000000 0.000000
# 2 -0.006404 0.015417 -0.003005 0.001510 0.000000 0.000000
# 3 -0.003005 -0.003005 0.012635 0.000000 0.000000 0.000000
# 4 -0.001510 0.001510 0.000000 0.042486 0.000000 0.000000
# 5 0.000000 0.000000 0.000000 0.000000 0.042486 -0.003020
# 6 0.000000 0.000000 0.000000 0.000000 -0.003020 0.043642
#
#
# Mechanical properties :
#
#
# Convention : Reuss Voigt Hill
#
# Bulk Modulus (GPa) = 53.64861 53.69602 53.67232
# Shear Modulus (GPa) = 24.61546 25.15687 24.88616
#
# Velocity S-wave (km/s) = 3.64292 3.68276 3.66290
# Velocity P-wave (km/s) = 6.82773 6.85803 6.84290
#
# Compressibility (1/GPa) = 0.01863981
#
# Stress axis : x y z
#
# Youngs Moduli (GPa) = 64.86417 64.86417 79.14230
#
# Poissons Ratio (x) = 0.41539 0.23785
# Poissons Ratio (y) = 0.41539 0.23785
# Poissons Ratio (z) = 0.19494 0.19494
#
# Static dielectric constant tensor:
#      x y z
#    x 3.408630 0.000000 0.000000 
#    y 0.000000 3.408630 0.000000 
#    z 0.000000 0.000000 3.632210 
# 
# 
# High freq. dielectric constant tensor:
#      x y z
#    x 1.714390 0.000000 0.000000 
#    y 0.000000 1.714390 0.000000 
#    z 0.000000 0.000000 1.723540 
# 
# From -- ./inp_files/6957.got.cif
#   From: 2010.03.12/outbox.cif.g09.slc.cpg/sg155_4_cif.got.tgz:6957.got - 2010.04.03 13:54:13.
