data_PCOD8322226
_publ_section_title
;
Structure prediction by ZEFSAII (Michael W. Deem and Ramdas Pophale) SiO2 
 PCOD8322226
Probable space group: P 31 2 1
;
_chemical_formula_sum "Si O2"
_cell_formula_units_Z 15
_cell_length_a 4.754359
_cell_length_b 4.754359
_cell_length_c 26.511298
_cell_angle_alpha 90.000000
_cell_angle_beta 90.000000
_cell_angle_gamma 120.000000
_cell_volume 518.973960
_symmetry_space_group_name_H-M "P 31 2 1"
_symmetry_group_IT_number 152
_symmetry_cell_setting 'hexagonal'
loop_
_space_group_symop_operation_xyz
x,y,z
-y,x-y,1/3+z
-x+y,-x,2/3+z
x-y,-y,2/3-z
-x,-x+y,1/3-z
y,x,-z
loop_
_atom_site_type_symbol
_atom_site_label
_atom_site_fract_x
_atom_site_fract_y
_atom_site_fract_z
Si Si1 0.595197 0.156210 0.135658
Si Si2 0.940249 0.000000 0.333334
Si Si3 0.463504 0.857908 0.734321
O O1 0.630064 0.937795 0.179908
O O2 0.464842 0.929482 0.085801
O O3 0.935468 0.466221 0.119207
O O4 0.284896 0.263850 0.357361
O O5 0.798966 0.129620 0.289452
#
# Coordination Sequence:
#
# PCOD8322226 Si02
#       3
#     6   3   6
#     4  12  27  50  78 114 154 202 256 316 382 455
#     4  12  28  52  78 114 156 204 256 316 384 456
#     4  12  28  50  78 113 154 202 255 316 382 456
#
# _framework density 28.903188
#
# number of rings (size 3 to 8) (size 9 to 14) (size 15 to 20)
#    0.000    0.000    0.000    8.400    0.000   14.400 
#    0.000    0.000    0.000    0.000    0.000    0.000 
#    0.000    0.000    0.000    0.000    0.000    0.000 
#
# Total GULP energy -186091.924280 kJ/mol
# GULP energy per Si atom -12406.128285 kJ/mol
# Density = 2.883740 g / cm^3
# Si number density = 28.903188 Si / 1000 Ang^3
#
#
#
# Elastic Constant Matrix: (Units=GPa)
#
#
# Indices 1 2 3 4 5 6 
#
# 1 81.4054 10.7764 -3.1116 14.6758 0.0005 0.0000
# 2 10.7764 81.4054 -3.1116 -14.6758 -0.0005 0.0000
# 3 -3.1116 -3.1116 99.6878 0.0000 0.0000 0.0000
# 4 14.6758 -14.6758 0.0000 36.7645 0.0000 -0.0005
# 5 0.0005 -0.0005 0.0000 0.0000 36.7645 14.6758
# 6 0.0000 0.0000 0.0000 -0.0005 14.6758 35.3145
#
#
#
# Elastic Compliance Matrix: (Units=1/GPa)
#
#
# Indices 1 2 3 4 5 6 
#
# 1 0.013923 -0.003052 0.000339 -0.006776 0.000000 0.000000
# 2 -0.003052 0.013923 0.000339 0.006776 0.000000 0.000000
# 3 0.000339 0.000339 0.010053 0.000000 0.000000 0.000000
# 4 -0.006776 0.006776 0.000000 0.032610 0.000000 0.000000
# 5 0.000000 0.000000 0.000000 0.000000 0.032610 -0.013552
# 6 0.000000 0.000000 0.000000 0.000000 -0.013552 0.033949
#
#
# Mechanical properties :
#
#
# Convention : Reuss Voigt Hill
#
# Bulk Modulus (GPa) = 30.16424 30.17835 30.17130
# Shear Modulus (GPa) = 32.70898 38.96504 35.83701
#
# Velocity S-wave (km/s) = 3.36769 3.67566 3.52504
# Velocity P-wave (km/s) = 5.05774 5.33646 5.19897
#
# Compressibility (1/GPa) = 0.03315184
#
# Stress axis : x y z
#
# Youngs Moduli (GPa) = 71.82502 71.82502 99.47770
#
# Poissons Ratio (x) = 0.21919 -0.03375
# Poissons Ratio (y) = 0.21919 -0.03375
# Poissons Ratio (z) = -0.02437 -0.02437
#
# Static dielectric constant tensor:
#      x y z
#    x 5.048100 0.000000 0.000000 
#    y 0.000000 5.048100 0.000000 
#    z 0.000000 0.000000 5.317860 
# 
# 
# High freq. dielectric constant tensor:
#      x y z
#    x 2.170070 0.000000 0.000000 
#    y 0.000000 2.170070 0.000000 
#    z 0.000000 0.000000 2.205970 
# 
# From -- ./inp_files/2868.got.cif
#   From: 2010.03.12/outbox.cif.g09.slc.cpg/sg152_2_cif.got.tgz:2868.got - 2010.04.03 13:45:27.
