data_PCOD8322810
_publ_section_title
;
Structure prediction by ZEFSAII (Michael W. Deem and Ramdas Pophale) SiO2 
 PCOD8322810
Probable space group: P 3 1 C
;
_chemical_formula_sum "Si O2"
_cell_formula_units_Z 42
_cell_length_a 8.517797
_cell_length_b 8.517797
_cell_length_c 32.294954
_cell_angle_alpha 90.000000
_cell_angle_beta 90.000000
_cell_angle_gamma 120.000000
_cell_volume 2029.176729
_symmetry_space_group_name_H-M "P 3 1 C"
_symmetry_group_IT_number 159
_symmetry_cell_setting 'hexagonal'
loop_
_space_group_symop_operation_xyz
x,y,z
-y,x-y,z
-x+y,-x,z
y,x,1/2+z
x-y,-y,1/2+z
-x,-x+y,1/2+z
loop_
_atom_site_type_symbol
_atom_site_label
_atom_site_fract_x
_atom_site_fract_y
_atom_site_fract_z
Si Si1 0.687566 0.545357 0.609450
Si Si2 0.334843 0.338841 0.487969
Si Si3 0.007333 0.328052 0.277352
Si Si4 0.973785 0.187515 0.687590
Si Si5 0.666753 0.673739 0.021511
Si Si6 0.471710 0.347277 0.401160
Si Si7 0.340550 0.344588 0.810621
O O1 0.498366 0.352044 0.608726
O O2 0.698885 0.658540 0.649877
O O3 0.697849 0.669816 0.570945
O O4 0.532050 0.462925 0.507866
O O5 0.197439 0.398998 0.506152
O O6 0.351550 0.357808 0.438296
O O7 0.265904 0.132525 0.500213
O O8 0.040386 0.324216 0.228700
O O9 0.195077 0.397252 0.301638
O O10 0.939349 0.469131 0.286648
O O11 0.861513 0.130512 0.293720
O O12 0.165610 0.189021 0.686113
O O13 0.482621 0.161475 0.403262
O O14 0.375467 0.352804 0.359503
#
# Coordination Sequence:
#
# PCOD8322810 Si02
#       7
#     6   6   6   6   6   6   6
#     4  10  23  41  68  97 133 179 225 281 345 404
#     4  12  24  42  72  94 141 177 226 285 344 412
#     4  12  24  45  65 106 140 188 232 283 352 414
#     4  10  23  41  65 101 138 175 224 292 337 413
#     4  12  24  45  65 105 133 186 222 281 349 417
#     4  10  20  42  69  98 132 178 231 291 350 402
#     4  12  24  42  72  97 141 189 232 287 347 414
#
# _framework density 20.698046999999999
#
# number of rings (size 3 to 8) (size 9 to 14) (size 15 to 20)
#    0.857    0.000    5.714    1.714    4.000    2.286 
#    0.000    0.000    0.000    0.571    0.000    0.000 
#    0.000    0.000    0.000    0.000    0.000    0.000 
#
# Total GULP energy -520881.238995 kJ/mol
# GULP energy per Si atom -12401.934262 kJ/mol
# Density = 2.065094 g / cm^3
# Si number density = 20.698047 Si / 1000 Ang^3
#
#
#
# Elastic Constant Matrix: (Units=GPa)
#
#
# Indices 1 2 3 4 5 6 
#
# 1 73.9155 15.9144 53.5473 0.0000 -2.5616 0.0000
# 2 15.9144 73.9155 53.5473 0.0000 2.5616 0.0000
# 3 53.5473 53.5473 221.7403 0.0000 0.0000 0.0000
# 4 0.0000 0.0000 0.0000 33.9750 0.0000 2.5616
# 5 -2.5616 2.5616 0.0000 0.0000 33.9750 0.0000
# 6 0.0000 0.0000 0.0000 2.5616 0.0000 29.0005
#
#
#
# Elastic Compliance Matrix: (Units=1/GPa)
#
#
# Indices 1 2 3 4 5 6 
#
# 1 0.016495 -0.000862 -0.003775 0.000000 0.001309 0.000000
# 2 -0.000862 0.016495 -0.003775 0.000000 -0.001309 0.000000
# 3 -0.003775 -0.003775 0.006333 0.000000 0.000000 0.000000
# 4 0.000000 0.000000 0.000000 0.029631 0.000000 -0.002617
# 5 0.001309 -0.001309 0.000000 0.000000 0.029631 0.000000
# 6 0.000000 0.000000 0.000000 -0.002617 0.000000 0.034713
#
#
# Mechanical properties :
#
#
# Convention : Reuss Voigt Hill
#
# Bulk Modulus (GPa) = 44.44791 68.39878 56.42335
# Shear Modulus (GPa) = 31.72165 35.82758 33.77462
#
# Velocity S-wave (km/s) = 3.91908 4.16500 4.04391
# Velocity P-wave (km/s) = 6.48074 7.49983 7.00883
#
# Compressibility (1/GPa) = 0.02249824
#
# Stress axis : x y z
#
# Youngs Moduli (GPa) = 60.62539 60.62539 157.90161
#
# Poissons Ratio (x) = 0.05225 0.59610
# Poissons Ratio (y) = 0.05225 0.59610
# Poissons Ratio (z) = 0.22887 0.22887
#
# Static dielectric constant tensor:
#      x y z
#    x 3.477530 0.000000 0.000000 
#    y 0.000000 3.477530 0.000000 
#    z 0.000000 0.000000 3.678560 
# 
# 
# High freq. dielectric constant tensor:
#      x y z
#    x 1.797280 0.000000 0.000000 
#    y 0.000000 1.797280 0.000000 
#    z 0.000000 0.000000 1.822200 
# 
# From -- ./inp_files/1314.got.cif
#   From: 2010.03.12/outbox.cif.g09.slc.cpg/sg159_cif.got.tgz:1314.got - 2010.04.03 14:00:19.
