data_PCOD8322395
_publ_section_title
;
Structure prediction by ZEFSAII (Michael W. Deem and Ramdas Pophale) SiO2 
 PCOD8322395
Probable space group: P 32 2 1
;
_chemical_formula_sum "Si O2"
_cell_formula_units_Z 33
_cell_length_a 14.184299
_cell_length_b 14.184299
_cell_length_c 8.607361
_cell_angle_alpha 90.000000
_cell_angle_beta 90.000000
_cell_angle_gamma 120.000000
_cell_volume 1499.741484
_symmetry_space_group_name_H-M "P 32 2 1"
_symmetry_group_IT_number 154
_symmetry_cell_setting 'hexagonal'
loop_
_space_group_symop_operation_xyz
x,y,z
-y,x-y,2/3+z
-x+y,-x,1/3+z
x-y,-y,1/3-z
-x,-x+y,2/3-z
y,x,-z
loop_
_atom_site_type_symbol
_atom_site_label
_atom_site_fract_x
_atom_site_fract_y
_atom_site_fract_z
Si Si1 0.049274 0.000000 0.666667
Si Si2 0.913295 0.444102 0.454068
Si Si3 0.582766 0.504584 0.628750
Si Si4 0.228821 0.254078 0.329355
Si Si5 0.425737 0.240374 0.282420
Si Si6 0.213597 0.741074 0.687502
O O1 0.166566 0.103757 0.663391
O O2 0.989641 0.989641 0.500000
O O3 0.843802 0.489225 0.539988
O O4 0.822830 0.332025 0.378339
O O5 0.000000 0.532547 0.333334
O O6 0.994188 0.425961 0.567350
O O7 0.495038 0.495038 0.500000
O O8 0.703374 0.565451 0.551343
O O9 0.559401 0.385026 0.681233
O O10 0.281681 0.281681 0.500000
O O11 0.304496 0.216971 0.238114
O O12 0.236887 0.363512 0.262097
O O13 0.451332 0.238375 0.463672
#
# Coordination Sequence:
#
# PCOD8322395 Si02
#       6
#     3   6   6   6   6   6
#     4  10  22  40  70 102 134 182 242 292 364 440
#     4  12  26  43  72 112 138 191 261 300 365 468
#     4  12  25  46  70 101 145 193 242 305 381 445
#     4   9  20  42  69  93 135 187 230 290 367 429
#     4  11  24  45  69 100 149 191 237 309 377 436
#     4  11  23  43  72  98 143 192 239 306 370 444
#
# _framework density 22.003792000000001
#
# number of rings (size 3 to 8) (size 9 to 14) (size 15 to 20)
#    0.000    1.091    5.455    0.545    3.818    3.636 
#    1.636    0.000    0.000    0.000    0.000    0.000 
#    0.000    0.000    0.000    0.000    0.000    0.000 
#
# Total GULP energy -408823.749568 kJ/mol
# GULP energy per Si atom -12388.598472 kJ/mol
# Density = 2.195371 g / cm^3
# Si number density = 22.003792 Si / 1000 Ang^3
#
#
#
# Elastic Constant Matrix: (Units=GPa)
#
#
# Indices 1 2 3 4 5 6 
#
# 1 144.7715 74.1602 30.8678 2.5427 0.0000 0.0000
# 2 74.1602 144.7715 30.8678 -2.5427 0.0000 0.0000
# 3 30.8678 30.8678 72.4872 0.0000 0.0000 0.0000
# 4 2.5427 -2.5427 0.0000 30.6133 0.0000 0.0000
# 5 0.0000 0.0000 0.0000 0.0000 30.6133 2.5427
# 6 0.0000 0.0000 0.0000 0.0000 2.5427 35.3056
#
#
#
# Elastic Compliance Matrix: (Units=1/GPa)
#
#
# Indices 1 2 3 4 5 6 
#
# 1 0.009719 -0.004528 -0.002211 -0.001183 0.000000 0.000000
# 2 -0.004528 0.009719 -0.002211 0.001183 0.000000 0.000000
# 3 -0.002211 -0.002211 0.015678 0.000000 0.000000 0.000000
# 4 -0.001183 0.001183 0.000000 0.032862 0.000000 0.000000
# 5 0.000000 0.000000 0.000000 0.000000 0.032862 -0.002367
# 6 0.000000 0.000000 0.000000 0.000000 -0.002367 0.028495
#
#
# Mechanical properties :
#
#
# Convention : Reuss Voigt Hill
#
# Bulk Modulus (GPa) = 58.07852 70.42463 64.25158
# Shear Modulus (GPa) = 32.68555 34.38209 33.53382
#
# Velocity S-wave (km/s) = 3.85834 3.95720 3.90808
# Velocity P-wave (km/s) = 6.80449 7.27698 7.04470
#
# Compressibility (1/GPa) = 0.01721807
#
# Stress axis : x y z
#
# Youngs Moduli (GPa) = 102.88998 102.88998 63.78296
#
# Poissons Ratio (x) = 0.46590 0.14099
# Poissons Ratio (y) = 0.46590 0.14099
# Poissons Ratio (z) = 0.22744 0.22744
#
# Static dielectric constant tensor:
#      x y z
#    x 4.110270 0.000000 0.000000 
#    y 0.000000 4.110270 0.000000 
#    z 0.000000 0.000000 4.172940 
# 
# 
# High freq. dielectric constant tensor:
#      x y z
#    x 1.872330 0.000000 0.000000 
#    y 0.000000 1.872330 0.000000 
#    z 0.000000 0.000000 1.850440 
# 
# From -- ./inp_files/1139.got.cif
#   From: 2010.03.12/outbox.cif.g09.slc.cpg/sg154_1_cif.got.tgz:1139.got - 2010.04.03 13:51:21.
