data_PCOD8322361
_publ_section_title
;
Structure prediction by ZEFSAII (Michael W. Deem and Ramdas Pophale) SiO2 
 PCOD8322361
Probable space group: P 32 2 1
;
_chemical_formula_sum "Si O2"
_cell_formula_units_Z 42
_cell_length_a 9.075651
_cell_length_b 9.075651
_cell_length_c 26.870458
_cell_angle_alpha 90.000000
_cell_angle_beta 90.000000
_cell_angle_gamma 120.000000
_cell_volume 1916.731475
_symmetry_space_group_name_H-M "P 32 2 1"
_symmetry_group_IT_number 154
_symmetry_cell_setting 'hexagonal'
loop_
_space_group_symop_operation_xyz
x,y,z
-y,x-y,2/3+z
-x+y,-x,1/3+z
x-y,-y,1/3-z
-x,-x+y,2/3-z
y,x,-z
loop_
_atom_site_type_symbol
_atom_site_label
_atom_site_fract_x
_atom_site_fract_y
_atom_site_fract_z
Si Si1 0.922333 0.612875 0.959765
Si Si2 0.067968 0.572845 0.562149
Si Si3 0.914392 0.381288 0.462505
Si Si4 0.034087 0.395206 0.011072
Si Si5 0.411916 0.535973 0.043538
Si Si6 0.165015 0.214190 0.714507
Si Si7 0.922392 0.072868 0.220452
O O1 0.731693 0.459276 0.949402
O O2 0.999259 0.733924 0.910893
O O3 0.050292 0.545125 0.974614
O O4 0.912078 0.725142 0.005234
O O5 0.261361 0.710030 0.545104
O O6 0.958661 0.442764 0.518762
O O7 0.081050 0.464066 0.607960
O O8 0.953197 0.655596 0.578168
O O9 0.004638 0.545863 0.426105
O O10 0.990353 0.263906 0.447404
O O11 0.213767 0.426591 0.030666
O O12 0.945405 0.228317 0.978304
O O13 0.524879 0.524879 0.000000
O O14 0.033049 0.038302 0.742257
O O15 0.918028 0.000000 0.166667
#
# Coordination Sequence:
#
# PCOD8322361 Si02
#       7
#     6   6   6   6   6   6   6
#     4  10  20  40  67  89 123 169 220 262 325 394
#     4  10  21  40  65  95 134 174 224 269 341 401
#     4  10  22  41  66  96 133 183 218 276 332 409
#     4  11  23  39  66  95 127 165 225 280 328 388
#     4  11  22  41  63  95 129 171 223 270 330 399
#     4  10  22  41  65  93 129 175 207 275 333 390
#     4  10  22  40  64  92 132 172 219 262 336 403
#
# _framework density 21.912302
#
# number of rings (size 3 to 8) (size 9 to 14) (size 15 to 20)
#    0.000    1.714    0.000    6.429    2.000    2.286 
#    5.143    0.714    0.000    0.000    0.000    0.000 
#    0.000    0.000    0.000    0.000    0.000    0.000 
#
# Total GULP energy -520622.933066 kJ/mol
# GULP energy per Si atom -12395.784121 kJ/mol
# Density = 2.186243 g / cm^3
# Si number density = 21.912302 Si / 1000 Ang^3
#
#
#
# Elastic Constant Matrix: (Units=GPa)
#
#
# Indices 1 2 3 4 5 6 
#
# 1 92.0487 52.5451 52.0010 -3.2082 0.0006 0.0000
# 2 52.5451 92.0487 52.0010 3.2082 -0.0006 0.0000
# 3 52.0010 52.0010 129.9506 0.0000 0.0000 0.0000
# 4 -3.2082 3.2082 0.0000 39.8350 0.0000 -0.0006
# 5 0.0006 -0.0006 0.0000 0.0000 39.8350 -3.2082
# 6 0.0000 0.0000 0.0000 -0.0006 -3.2082 19.7518
#
#
#
# Elastic Compliance Matrix: (Units=1/GPa)
#
#
# Indices 1 2 3 4 5 6 
#
# 1 0.017680 -0.007969 -0.003886 0.002066 0.000000 0.000000
# 2 -0.007969 0.017680 -0.003886 -0.002066 0.000000 0.000000
# 3 -0.003886 -0.003886 0.010805 0.000000 0.000000 0.000000
# 4 0.002066 -0.002066 0.000000 0.025436 0.000000 0.000001
# 5 0.000000 0.000000 0.000000 0.000000 0.025436 0.004132
# 6 0.000000 0.000000 0.000000 0.000001 0.004132 0.051299
#
#
# Mechanical properties :
#
#
# Convention : Reuss Voigt Hill
#
# Bulk Modulus (GPa) = 68.10409 69.68246 68.89327
# Shear Modulus (GPa) = 27.06879 30.38445 28.72662
#
# Velocity S-wave (km/s) = 3.51853 3.72780 3.62468
# Velocity P-wave (km/s) = 6.90322 7.09918 7.00189
#
# Compressibility (1/GPa) = 0.01468341
#
# Stress axis : x y z
#
# Youngs Moduli (GPa) = 56.56009 56.56009 92.54789
#
# Poissons Ratio (x) = 0.45075 0.35964
# Poissons Ratio (y) = 0.45075 0.35964
# Poissons Ratio (z) = 0.21979 0.21979
#
# Static dielectric constant tensor:
#      x y z
#    x 3.905060 0.000000 0.000000 
#    y 0.000000 3.905060 0.000000 
#    z 0.000000 0.000000 4.323930 
# 
# 
# High freq. dielectric constant tensor:
#      x y z
#    x 1.851050 0.000000 0.000000 
#    y 0.000000 1.851050 0.000000 
#    z 0.000000 0.000000 1.868980 
# 
# From -- ./inp_files/3791.got.cif
#   From: 2010.03.12/outbox.cif.g09.slc.cpg/sg154_2_cif.got.tgz:3791.got - 2010.04.03 13:51:21.
