data_PCOD8322694
_publ_section_title
;
Structure prediction by ZEFSAII (Michael W. Deem and Ramdas Pophale) SiO2 
 PCOD8322694
Probable space group: P 3 M 1
;
_chemical_formula_sum "Si O2"
_cell_formula_units_Z 48
_cell_length_a 12.681320
_cell_length_b 12.681320
_cell_length_c 20.379460
_cell_angle_alpha 90.000000
_cell_angle_beta 90.000000
_cell_angle_gamma 120.000000
_cell_volume 2838.260330
_symmetry_space_group_name_H-M "P 3 M 1"
_symmetry_group_IT_number 156
_symmetry_cell_setting 'hexagonal'
loop_
_space_group_symop_operation_xyz
x,y,z
-y,x-y,z
-x+y,-x,z
-x+y,y,z
x,x-y,z
-y,-x,z
loop_
_atom_site_type_symbol
_atom_site_label
_atom_site_fract_x
_atom_site_fract_y
_atom_site_fract_z
Si Si1 0.421700 0.086911 0.098270
Si Si2 0.577961 0.910641 0.834740
Si Si3 0.579824 0.913009 0.462728
Si Si4 0.001966 0.247673 0.341864
Si Si5 0.421893 0.089510 0.726749
Si Si6 0.910435 0.576992 0.579249
Si Si7 0.577987 0.911549 0.982603
Si Si8 0.085973 0.666303 0.220119
O O1 0.563911 0.127821 0.098867
O O2 0.408114 0.204057 0.108308
O O3 0.349900 0.991258 0.155331
O O4 0.359434 0.023012 0.029794
O O5 0.448826 0.897651 0.821455
O O6 0.559849 0.779925 0.822836
O O7 0.624048 0.956914 0.908615
O O8 0.674112 0.000281 0.780885
O O9 0.456163 0.912325 0.446162
O O10 0.549604 0.774802 0.466682
O O11 0.677155 0.987781 0.406850
O O12 0.636989 0.977887 0.531611
O O13 0.103826 0.207651 0.341054
O O14 0.016001 0.331140 0.280096
O O15 0.870766 0.129235 0.339635
O O16 0.550053 0.100105 0.739466
O O17 0.442110 0.221055 0.739109
O O18 0.374161 0.043916 0.652937
O O19 0.794846 0.589691 0.559565
O O20 0.870312 0.435156 0.573636
O O21 0.437173 0.874346 0.991337
O O22 0.588519 0.794260 0.001033
O O23 0.099323 0.549662 0.235010
O O24 0.219622 0.780379 0.210202
#
# Coordination Sequence:
#
# PCOD8322694 Si02
#       8
#     6   6   6   6   6   6   6   6
#     4  10  20  33  49  70  98 130 161 194 235 283
#     4   9  17  29  46  69  95 123 155 192 237 285
#     4  10  20  33  50  72  99 129 159 194 237 285
#     4  10  20  34  52  73  98 129 164 199 233 272
#     4   9  17  29  46  68  93 122 156 194 236 281
#     4   9  17  30  48  69  93 122 157 197 239 282
#     4   9  17  30  49  71  94 121 155 197 241 284
#     4  10  20  34  54  78 102 128 159 197 238 280
#
# _framework density 16.911769
#
# number of rings (size 3 to 8) (size 9 to 14) (size 15 to 20)
#    0.000    2.500    0.000    2.500    0.000    3.000 
#    0.000    2.500    0.000    9.750    0.000    0.000 
#    0.000    0.000    0.000    0.000    0.000    0.000 
#
# Total GULP energy -595204.347054 kJ/mol
# GULP energy per Si atom -12400.090564 kJ/mol
# Density = 1.687328 g / cm^3
# Si number density = 16.911769 Si / 1000 Ang^3
#
#
#
# Elastic Constant Matrix: (Units=GPa)
#
#
# Indices 1 2 3 4 5 6 
#
# 1 99.0444 52.2507 58.2442 0.6847 0.0000 0.0000
# 2 52.2507 99.0444 58.2442 -0.6847 0.0000 0.0000
# 3 58.2442 58.2442 117.3095 0.0000 0.0000 0.0000
# 4 0.6847 -0.6847 0.0000 25.8240 0.0000 0.0000
# 5 0.0000 0.0000 0.0000 0.0000 25.8240 0.6847
# 6 0.0000 0.0000 0.0000 0.0000 0.6847 23.3968
#
#
#
# Elastic Compliance Matrix: (Units=1/GPa)
#
#
# Indices 1 2 3 4 5 6 
#
# 1 0.016043 -0.005344 -0.005313 -0.000567 0.000000 0.000000
# 2 -0.005344 0.016043 -0.005313 0.000567 0.000000 0.000000
# 3 -0.005313 -0.005313 0.013800 0.000000 0.000000 0.000000
# 4 -0.000567 0.000567 0.000000 0.038754 0.000000 0.000000
# 5 0.000000 0.000000 0.000000 0.000000 0.038754 -0.001134
# 6 0.000000 0.000000 0.000000 0.000000 -0.001134 0.042774
#
#
# Mechanical properties :
#
#
# Convention : Reuss Voigt Hill
#
# Bulk Modulus (GPa) = 71.68676 72.54184 72.11430
# Shear Modulus (GPa) = 24.66029 24.78626 24.72327
#
# Velocity S-wave (km/s) = 3.82275 3.83250 3.82762
# Velocity P-wave (km/s) = 7.87180 7.91021 7.89103
#
# Compressibility (1/GPa) = 0.01394958
#
# Stress axis : x y z
#
# Youngs Moduli (GPa) = 62.33066 62.33066 72.46482
#
# Poissons Ratio (x) = 0.33307 0.38497
# Poissons Ratio (y) = 0.33307 0.38497
# Poissons Ratio (z) = 0.33113 0.33113
#
# Static dielectric constant tensor:
#      x y z
#    x 3.064470 0.000000 0.000000 
#    y 0.000000 3.064470 0.000000 
#    z 0.000000 0.000000 3.487220 
# 
# 
# High freq. dielectric constant tensor:
#      x y z
#    x 1.644450 0.000000 0.000000 
#    y 0.000000 1.644450 0.000000 
#    z 0.000000 0.000000 1.669070 
# 
# From -- ./inp_files/1073.got.cif
#   From: 2010.03.12/outbox.cif.g09.slc.cpg/sg156_cif.got.tgz:1073.got - 2010.04.03 13:58:47.
