data_PCOD8322249
_publ_section_title
;
Structure prediction by ZEFSAII (Michael W. Deem and Ramdas Pophale) SiO2 
 PCOD8322249
Probable space group: P 32 1 2
;
_chemical_formula_sum "Si O2"
_cell_formula_units_Z 36
_cell_length_a 11.368899
_cell_length_b 11.368899
_cell_length_c 17.097506
_cell_angle_alpha 90.000000
_cell_angle_beta 90.000000
_cell_angle_gamma 120.000000
_cell_volume 1913.816141
_symmetry_space_group_name_H-M "P 32 1 2"
_symmetry_group_IT_number 153
_symmetry_cell_setting 'hexagonal'
loop_
_space_group_symop_operation_xyz
x,y,z
-y,x-y,2/3+z
-x+y,-x,1/3+z
-y,-x,1/3-z
-x+y,y,2/3-z
x,x-y,-z
loop_
_atom_site_type_symbol
_atom_site_label
_atom_site_fract_x
_atom_site_fract_y
_atom_site_fract_z
Si Si1 0.998826 0.188188 0.770840
Si Si2 0.588539 0.924214 0.853878
Si Si3 0.729297 0.270704 0.166667
Si Si4 0.155500 0.844501 0.666667
Si Si5 0.774555 0.872481 0.267710
Si Si6 0.836468 0.680417 0.961538
Si Si7 0.770566 0.200638 0.463676
O O1 0.899462 0.241569 0.799652
O O2 0.117001 0.234001 0.833334
O O3 0.065860 0.254448 0.688447
O O4 0.915831 0.025038 0.764399
O O5 0.431974 0.863948 0.833334
O O6 0.649722 0.881724 0.783268
O O7 0.659214 0.087187 0.862805
O O8 0.595090 0.850243 0.932274
O O9 0.814279 0.260984 0.239728
O O10 0.785591 0.423859 0.138686
O O11 0.003820 0.786655 0.698861
O O12 0.778021 0.014213 0.258360
O O13 0.857785 0.629641 0.045230
#
# Coordination Sequence:
#
# PCOD8322249 Si02
#       7
#     6   6   3   3   6   6   6
#     4  10  19  35  61  90 126 152 194 257 317 358
#     4  10  21  39  62  86 124 159 205 254 303 382
#     4  12  24  38  58  90 124 170 204 244 312 380
#     4  10  22  38  66  94 114 160 204 266 328 352
#     4  10  21  34  61  94 117 155 202 254 314 362
#     4  11  22  38  64  90 123 153 204 268 307 367
#     4  10  22  39  58  89 126 165 198 251 305 375
#
# _framework density 18.810583000000001
#
# number of rings (size 3 to 8) (size 9 to 14) (size 15 to 20)
#    0.000    1.667    2.500    2.500    5.833    2.667 
#    6.000    0.000    7.333    1.000    0.000    0.000 
#    0.000    0.000    0.000    0.000    0.000    0.000 
#
# Total GULP energy -446410.218628 kJ/mol
# GULP energy per Si atom -12400.283851 kJ/mol
# Density = 1.876777 g / cm^3
# Si number density = 18.810583 Si / 1000 Ang^3
#
#
#
# Elastic Constant Matrix: (Units=GPa)
#
#
# Indices 1 2 3 4 5 6 
#
# 1 111.5158 56.7746 55.7736 0.0003 4.0014 0.0000
# 2 56.7746 111.5158 55.7736 -0.0003 -4.0014 0.0000
# 3 55.7736 55.7736 120.4869 0.0000 0.0000 0.0000
# 4 0.0003 -0.0003 0.0000 27.1484 0.0000 -4.0014
# 5 4.0014 -4.0014 0.0000 0.0000 27.1484 0.0003
# 6 0.0000 0.0000 0.0000 -4.0014 0.0003 27.3706
#
#
#
# Elastic Compliance Matrix: (Units=1/GPa)
#
#
# Indices 1 2 3 4 5 6 
#
# 1 0.013621 -0.005049 -0.003968 0.000000 -0.002752 0.000000
# 2 -0.005049 0.013621 -0.003968 0.000000 0.002752 0.000000
# 3 -0.003968 -0.003968 0.011973 0.000000 0.000000 0.000000
# 4 0.000000 0.000000 0.000000 0.037646 0.000000 0.005504
# 5 -0.002752 0.002752 0.000000 0.000000 0.037646 0.000000
# 6 0.000000 0.000000 0.000000 0.005504 0.000000 0.037340
#
#
# Mechanical properties :
#
#
# Convention : Reuss Voigt Hill
#
# Bulk Modulus (GPa) = 75.49772 75.57355 75.53564
# Shear Modulus (GPa) = 27.43742 28.01324 27.72533
#
# Velocity S-wave (km/s) = 3.82333 3.86324 3.84333
# Velocity P-wave (km/s) = 7.72744 7.75647 7.74197
#
# Compressibility (1/GPa) = 0.01324543
#
# Stress axis : x y z
#
# Youngs Moduli (GPa) = 73.41505 73.41505 83.51869
#
# Poissons Ratio (x) = 0.37066 0.33141
# Poissons Ratio (y) = 0.37066 0.33141
# Poissons Ratio (z) = 0.29132 0.29132
#
# Static dielectric constant tensor:
#      x y z
#    x 3.297320 0.000000 0.000000 
#    y 0.000000 3.297320 0.000000 
#    z 0.000000 0.000000 3.707170 
# 
# 
# High freq. dielectric constant tensor:
#      x y z
#    x 1.716230 0.000000 0.000000 
#    y 0.000000 1.716230 0.000000 
#    z 0.000000 0.000000 1.751240 
# 
# From -- ./inp_files/3523.got.cif
#   From: 2010.03.12/outbox.cif.g09.slc.cpg/sg153_2_cif.got.tgz:3523.got - 2010.04.03 13:48:33.
