data_PCOD8322320
_publ_section_title
;
Structure prediction by ZEFSAII (Michael W. Deem and Ramdas Pophale) SiO2 
 PCOD8322320
Probable space group: P 32 2 1
;
_chemical_formula_sum "Si O2"
_cell_formula_units_Z 36
_cell_length_a 12.463945
_cell_length_b 12.463945
_cell_length_c 14.179713
_cell_angle_alpha 90.000000
_cell_angle_beta 90.000000
_cell_angle_gamma 120.000000
_cell_volume 1907.695785
_symmetry_space_group_name_H-M "P 32 2 1"
_symmetry_group_IT_number 154
_symmetry_cell_setting 'hexagonal'
loop_
_space_group_symop_operation_xyz
x,y,z
-y,x-y,2/3+z
-x+y,-x,1/3+z
x-y,-y,1/3-z
-x,-x+y,2/3-z
y,x,-z
loop_
_atom_site_type_symbol
_atom_site_label
_atom_site_fract_x
_atom_site_fract_y
_atom_site_fract_z
Si Si1 0.000000 0.124529 0.833334
Si Si2 0.866554 0.539960 0.091437
Si Si3 0.538288 0.625363 0.129882
Si Si4 0.000000 0.064679 0.333334
Si Si5 0.684076 0.947525 0.563284
Si Si6 0.565339 0.161538 0.729388
Si Si7 0.210172 0.313162 0.425427
O O1 0.876584 0.133527 0.811116
O O2 0.021385 0.062602 0.743188
O O3 0.920861 0.447943 0.107396
O O4 0.719124 0.443568 0.106515
O O5 0.932156 0.655330 0.164272
O O6 0.894917 0.593667 0.986562
O O7 0.621496 0.570898 0.090751
O O8 0.624223 0.769518 0.150431
O O9 0.430165 0.595572 0.051658
O O10 0.104483 0.188469 0.380594
O O11 0.533964 0.857301 0.564452
O O12 0.736532 0.000000 0.666667
O O13 0.293122 0.293122 0.500000
#
# Coordination Sequence:
#
# PCOD8322320 Si02
#       7
#     3   6   6   3   6   6   6
#     4  12  24  34  58  92 132 158 194 254 332 388
#     4  10  19  36  62  88 117 159 207 264 300 361
#     4   9  18  35  59  87 108 153 206 254 292 354
#     4  12  22  36  58  90 122 166 192 244 316 396
#     4  11  20  37  60  91 127 158 204 256 313 381
#     4   9  17  34  62  86 109 154 215 249 289 361
#     4  11  22  36  60  89 124 156 204 255 314 378
#
# _framework density 18.870933000000001
#
# number of rings (size 3 to 8) (size 9 to 14) (size 15 to 20)
#    0.000    1.667    6.667    2.000    0.000    0.000 
#    0.000    6.667    1.833    0.000    0.000    0.000 
#    0.000    0.000    0.000    0.000    0.000    0.000 
#
# Total GULP energy -446051.870528 kJ/mol
# GULP energy per Si atom -12390.329737 kJ/mol
# Density = 1.882798 g / cm^3
# Si number density = 18.870933 Si / 1000 Ang^3
#
#
#
# Elastic Constant Matrix: (Units=GPa)
#
#
# Indices 1 2 3 4 5 6 
#
# 1 98.0078 43.7706 41.8921 -2.9877 0.0001 0.0000
# 2 43.7706 98.0078 41.8921 2.9877 -0.0001 0.0000
# 3 41.8921 41.8921 79.4292 0.0000 0.0000 0.0000
# 4 -2.9877 2.9877 0.0000 25.9798 0.0000 -0.0001
# 5 0.0001 -0.0001 0.0000 0.0000 25.9798 -2.9877
# 6 0.0000 0.0000 0.0000 -0.0001 -2.9877 27.1186
#
#
#
# Elastic Compliance Matrix: (Units=1/GPa)
#
#
# Indices 1 2 3 4 5 6 
#
# 1 0.014461 -0.004214 -0.005404 0.002148 0.000000 0.000000
# 2 -0.004214 0.014461 -0.005404 -0.002148 0.000000 0.000000
# 3 -0.005404 -0.005404 0.018291 0.000000 0.000000 0.000000
# 4 0.002148 -0.002148 0.000000 0.038985 0.000000 0.000000
# 5 0.000000 0.000000 0.000000 0.000000 0.038985 0.004295
# 6 0.000000 0.000000 0.000000 0.000000 0.004295 0.037348
#
#
# Mechanical properties :
#
#
# Convention : Reuss Voigt Hill
#
# Bulk Modulus (GPa) = 58.25160 58.95048 58.60104
# Shear Modulus (GPa) = 25.21463 25.67500 25.44482
#
# Velocity S-wave (km/s) = 3.65932 3.69258 3.67599
# Velocity P-wave (km/s) = 6.98496 7.03468 7.00986
#
# Compressibility (1/GPa) = 0.01716691
#
# Stress axis : x y z
#
# Youngs Moduli (GPa) = 69.15365 69.15365 54.67298
#
# Poissons Ratio (x) = 0.29138 0.29548
# Poissons Ratio (y) = 0.29138 0.29548
# Poissons Ratio (z) = 0.37374 0.37374
#
# Static dielectric constant tensor:
#      x y z
#    x 3.456110 0.000000 0.000000 
#    y 0.000000 3.456110 0.000000 
#    z 0.000000 0.000000 3.438660 
# 
# 
# High freq. dielectric constant tensor:
#      x y z
#    x 1.724700 0.000000 0.000000 
#    y 0.000000 1.724700 0.000000 
#    z 0.000000 0.000000 1.727220 
# 
# From -- ./inp_files/2030.got.cif
#   From: 2010.03.12/outbox.cif.g09.slc.cpg/sg154_2_cif.got.tgz:2030.got - 2010.04.03 13:51:21.
