data_PCOD8322603
_publ_section_title
;
Structure prediction by ZEFSAII (Michael W. Deem and Ramdas Pophale) SiO2 
 PCOD8322603
Probable space group: R 3 2
;
_chemical_formula_sum "Si O2"
_cell_formula_units_Z 126
_cell_length_a 22.179684
_cell_length_b 22.179684
_cell_length_c 17.730581
_cell_angle_alpha 90.000000
_cell_angle_beta 90.000000
_cell_angle_gamma 120.000000
_cell_volume 7553.779569
_symmetry_space_group_name_H-M "R 3 2"
_symmetry_group_IT_number 155
_symmetry_cell_setting 'hexagonal'
loop_
_space_group_symop_operation_xyz
x,y,z
-y,x-y,z
-x+y,-x,z
x-y,-y,-z
-x,-x+y,-z
y,x,-z
2/3+x,1/3+y,1/3+z
2/3-y,1/3+x-y,1/3+z
2/3-x+y,1/3-x,1/3+z
2/3+x-y,1/3-y,1/3-z
2/3-x,1/3-x+y,1/3-z
2/3+y,1/3+x,1/3-z
1/3+x,2/3+y,2/3+z
1/3-y,2/3+x-y,2/3+z
1/3-x+y,2/3-x,2/3+z
1/3+x-y,2/3-y,2/3-z
1/3-x,2/3-x+y,2/3-z
1/3+y,2/3+x,2/3-z
loop_
_atom_site_type_symbol
_atom_site_label
_atom_site_fract_x
_atom_site_fract_y
_atom_site_fract_z
Si Si1 0.072342 0.730131 0.541721
Si Si2 0.383387 0.235473 0.600433
Si Si3 0.908138 0.069535 0.223310
Si Si4 0.410408 0.819580 0.691135
Si Si5 0.932156 0.084718 0.799647
Si Si6 0.746698 0.932553 0.912341
Si Si7 0.206061 0.267625 0.691903
O O1 0.126320 0.782504 0.479695
O O2 0.097629 0.679521 0.578606
O O3 0.069508 0.779383 0.605589
O O4 0.000000 0.684321 0.500000
O O5 0.333334 0.185948 0.666667
O O6 0.448109 0.222996 0.588960
O O7 0.407972 0.315888 0.616780
O O8 0.861849 0.079634 0.160071
O O9 0.873733 0.077821 0.300610
O O10 0.987942 0.126589 0.216943
O O11 0.903822 0.994873 0.220136
O O12 0.333334 0.800586 0.666667
O O13 0.422351 0.755684 0.666667
O O14 0.418880 0.836547 0.779419
O O15 0.469410 0.888663 0.651241
O O16 0.663324 0.883903 0.918260
#
# Coordination Sequence:
#
# PCOD8322603 Si02
#       7
#    18  18  18  18  18  18  18
#     4  12  19  31  53  85 119 136 167 223 288 350
#     4  11  20  33  54  83 107 140 179 226 281 329
#     4  11  22  35  51  76 106 151 190 219 265 313
#     4  12  20  31  47  74 112 155 186 213 252 317
#     4  11  21  35  50  74 111 146 189 222 255 320
#     4  12  19  30  51  78 118 144 171 213 275 338
#     4  11  21  32  52  81 113 142 173 222 284 337
#
# _framework density 16.680391
#
# number of rings (size 3 to 8) (size 9 to 14) (size 15 to 20)
#    0.000    0.571    8.571    3.000    0.000    0.000 
#    0.000    0.000    0.000    1.714    3.714    0.000 
#    0.000    0.000    0.000    0.000    0.000    0.000 
#
# Total GULP energy -520579.364669 kJ/mol
# GULP energy per Si atom -12394.746778 kJ/mol
# Density = 1.664243 g / cm^3
# Si number density = 16.680391 Si / 1000 Ang^3
#
#
#
# Elastic Constant Matrix: (Units=GPa)
#
#
# Indices 1 2 3 4 5 6 
#
# 1 89.1056 42.8367 47.7332 -0.8083 0.0000 0.0000
# 2 42.8367 89.1056 47.7332 0.8083 0.0000 0.0000
# 3 47.7332 47.7332 97.2862 0.0000 0.0000 0.0000
# 4 -0.8083 0.8083 0.0000 26.6233 0.0000 0.0000
# 5 0.0000 0.0000 0.0000 0.0000 26.6233 -0.8083
# 6 0.0000 0.0000 0.0000 0.0000 -0.8083 23.1344
#
#
#
# Elastic Compliance Matrix: (Units=1/GPa)
#
#
# Indices 1 2 3 4 5 6 
#
# 1 0.016693 -0.004943 -0.005765 0.000657 0.000000 0.000000
# 2 -0.004943 0.016693 -0.005765 -0.000657 0.000000 0.000000
# 3 -0.005765 -0.005765 0.015937 0.000000 0.000000 0.000000
# 4 0.000657 -0.000657 0.000000 0.037601 0.000000 0.000000
# 5 0.000000 0.000000 0.000000 0.000000 0.037601 0.001314
# 6 0.000000 0.000000 0.000000 0.000000 0.001314 0.043272
#
#
# Mechanical properties :
#
#
# Convention : Reuss Voigt Hill
#
# Bulk Modulus (GPa) = 61.06455 61.34484 61.20470
# Shear Modulus (GPa) = 24.24808 24.42248 24.33528
#
# Velocity S-wave (km/s) = 3.81686 3.83056 3.82372
# Velocity P-wave (km/s) = 7.49084 7.51137 7.50111
#
# Compressibility (1/GPa) = 0.01637611
#
# Stress axis : x y z
#
# Youngs Moduli (GPa) = 59.90469 59.90469 62.74902
#
# Poissons Ratio (x) = 0.29608 0.36177
# Poissons Ratio (y) = 0.29608 0.36177
# Poissons Ratio (z) = 0.34537 0.34537
#
# Static dielectric constant tensor:
#      x y z
#    x 3.065070 0.000000 0.000000 
#    y 0.000000 3.065070 0.000000 
#    z 0.000000 0.000000 3.350600 
# 
# 
# High freq. dielectric constant tensor:
#      x y z
#    x 1.622880 0.000000 0.000000 
#    y 0.000000 1.622880 0.000000 
#    z 0.000000 0.000000 1.647070 
# 
# From -- ./inp_files/6352.got.cif
#   From: 2010.03.12/outbox.cif.g09.slc.cpg/sg155_4_cif.got.tgz:6352.got - 2010.04.03 13:54:13.
