data_PCOD8322920
_publ_section_title
;
Structure prediction by ZEFSAII (Michael W. Deem and Ramdas Pophale) SiO2 
 PCOD8322920
Probable space group: P -3 1 M 
;
_chemical_formula_sum "Si O2"
_cell_formula_units_Z 96
_cell_length_a 24.183113
_cell_length_b 24.183113
_cell_length_c 12.029959
_cell_angle_alpha 90.000000
_cell_angle_beta 90.000000
_cell_angle_gamma 120.000000
_cell_volume 6092.831803
_symmetry_space_group_name_H-M "P -3 1 M "
_symmetry_group_IT_number 162
_symmetry_cell_setting 'hexagonal'
loop_
_space_group_symop_operation_xyz
x,y,z
-y,x-y,z
-x+y,-x,z
-y,-x,-z
-x+y,y,-z
x,x-y,-z
-x,-y,-z
y,-x+y,-z
x-y,x,-z
y,x,z
x-y,-y,z
-x,-x+y,z
loop_
_atom_site_type_symbol
_atom_site_label
_atom_site_fract_x
_atom_site_fract_y
_atom_site_fract_z
Si Si1 0.196865 0.928258 0.241224
Si Si2 0.924014 0.403817 0.770563
Si Si3 0.397787 0.923954 0.239874
Si Si4 0.224443 0.325314 0.998527
Si Si5 0.265401 0.194012 0.229775
Si Si6 0.925640 0.560618 0.997428
Si Si7 0.299819 0.375608 0.363765
Si Si8 0.924187 0.298358 0.387200
O O1 0.219463 0.930130 0.115506
O O2 0.121014 0.880325 0.256384
O O3 0.233628 0.903054 0.319592
O O4 0.213818 0.000000 0.274379
O O5 0.903255 0.453734 0.724740
O O6 0.895831 0.341484 0.691817
O O7 0.000000 0.436245 0.773183
O O8 0.897250 0.383513 0.896416
O O9 0.369749 0.894408 0.118008
O O10 0.339637 0.896403 0.327753
O O11 0.430605 0.000000 0.235675
O O12 0.294985 0.381452 0.017847
O O13 0.177029 0.354057 0.000000
O O14 0.205995 0.274970 0.098219
O O15 0.212491 0.212491 0.269519
O O16 0.332690 0.236230 0.292714
O O17 0.000000 0.585355 0.990086
O O18 0.341326 0.341326 0.367490
O O19 0.281011 0.384886 0.488292
O O20 0.000000 0.339693 0.389617
#
# Coordination Sequence:
#
# PCOD8322920 Si02
#       8
#    12  12  12  12  12  12  12  12
#     4  10  19  31  47  66  87 113 148 190 237 289
#     4   9  16  24  37  58  83 114 147 173 198 233
#     4   9  16  24  37  58  83 114 147 173 198 233
#     4  10  18  27  44  66  85 111 146 187 234 280
#     4  10  19  31  47  66  87 113 148 190 237 289
#     4  10  15  24  40  57  83 113 143 179 217 258
#     4   9  17  28  41  58  83 115 147 177 211 255
#     4   9  17  28  41  58  83 115 147 177 211 255
#
# _framework density 15.756221
#
# number of rings (size 3 to 8) (size 9 to 14) (size 15 to 20)
#    0.000    2.500    2.500    1.500    0.000    2.500 
#    0.000    2.500    0.000    0.250    0.000    0.000 
#    0.000    3.000    0.000   16.750    0.000    8.250 
#
# Total GULP energy -1189866.839419 kJ/mol
# GULP energy per Si atom -12394.446244 kJ/mol
# Density = 1.572036 g / cm^3
# Si number density = 15.756221 Si / 1000 Ang^3
#
#
#
# Elastic Constant Matrix: (Units=GPa)
#
#
# Indices 1 2 3 4 5 6 
#
# 1 53.6409 27.8830 21.5416 0.0000 -0.6190 0.0000
# 2 27.8830 53.6409 21.5416 0.0000 0.6190 0.0000
# 3 21.5416 21.5416 105.5481 0.0000 0.0000 0.0000
# 4 0.0000 0.0000 0.0000 10.3053 0.0000 0.6190
# 5 -0.6190 0.6190 0.0000 0.0000 10.3053 0.0000
# 6 0.0000 0.0000 0.0000 0.6190 0.0000 12.8790
#
#
#
# Elastic Compliance Matrix: (Units=1/GPa)
#
#
# Indices 1 2 3 4 5 6 
#
# 1 0.026342 -0.012593 -0.002806 0.000000 0.002339 0.000000
# 2 -0.012593 0.026342 -0.002806 0.000000 -0.002339 0.000000
# 3 -0.002806 -0.002806 0.010620 0.000000 0.000000 0.000000
# 4 0.000000 0.000000 0.000000 0.097319 0.000000 -0.004677
# 5 0.002339 -0.002339 0.000000 0.000000 0.097319 0.000000
# 6 0.000000 0.000000 0.000000 -0.004677 0.000000 0.077871
#
#
# Mechanical properties :
#
#
# Convention : Reuss Voigt Hill
#
# Bulk Modulus (GPa) = 37.18320 39.41803 38.30061
# Shear Modulus (GPa) = 13.11688 16.15547 14.63617
#
# Velocity S-wave (km/s) = 2.88842 3.20557 3.05112
# Velocity P-wave (km/s) = 5.89697 6.22677 6.06411
#
# Compressibility (1/GPa) = 0.02689387
#
# Stress axis : x y z
#
# Youngs Moduli (GPa) = 37.96165 37.96165 94.16388
#
# Poissons Ratio (x) = 0.47805 0.26424
# Poissons Ratio (y) = 0.47805 0.26424
# Poissons Ratio (z) = 0.10653 0.10653
#
# Static dielectric constant tensor:
#      x y z
#    x 2.759940 0.000000 0.000000 
#    y 0.000000 2.759940 0.000000 
#    z 0.000000 0.000000 3.300040 
# 
# 
# High freq. dielectric constant tensor:
#      x y z
#    x 1.565640 0.000000 0.000000 
#    y 0.000000 1.565640 0.000000 
#    z 0.000000 0.000000 1.619030 
# 
# From -- ./inp_files/2693.got.cif
#   From: 2010.03.12/outbox.cif.g09.slc.cpg/sg162_2_cif.got.tgz:2693.got - 2010.04.02 06:27:41.
