data_PCOD8322357
_publ_section_title
;
Structure prediction by ZEFSAII (Michael W. Deem and Ramdas Pophale) SiO2 
 PCOD8322357
Probable space group: P 32 2 1
;
_chemical_formula_sum "Si O2"
_cell_formula_units_Z 36
_cell_length_a 11.645178
_cell_length_b 11.645178
_cell_length_c 14.250473
_cell_angle_alpha 90.000000
_cell_angle_beta 90.000000
_cell_angle_gamma 120.000000
_cell_volume 1673.601952
_symmetry_space_group_name_H-M "P 32 2 1"
_symmetry_group_IT_number 154
_symmetry_cell_setting 'hexagonal'
loop_
_space_group_symop_operation_xyz
x,y,z
-y,x-y,2/3+z
-x+y,-x,1/3+z
x-y,-y,1/3-z
-x,-x+y,2/3-z
y,x,-z
loop_
_atom_site_type_symbol
_atom_site_label
_atom_site_fract_x
_atom_site_fract_y
_atom_site_fract_z
Si Si1 0.647934 0.841356 0.404005
Si Si2 0.299826 0.261181 0.893119
Si Si3 0.400933 0.785219 0.117601
Si Si4 0.926482 0.496044 0.701458
Si Si5 0.667676 0.689319 0.743090
Si Si6 0.503586 0.091683 0.576290
O O1 0.494855 0.751443 0.437155
O O2 0.633694 0.945869 0.339081
O O3 0.708654 0.767028 0.343904
O O4 0.735595 0.922223 0.494318
O O5 0.292689 0.121902 0.876446
O O6 0.445755 0.384416 0.870153
O O7 0.264921 0.264921 0.000000
O O8 0.435776 0.800678 0.227910
O O9 0.431625 0.679786 0.065979
O O10 0.476325 0.931760 0.077636
O O11 0.895455 0.377135 0.629346
O O12 0.670592 0.599864 0.827547
O O13 0.430524 0.000000 0.666667
#
# Coordination Sequence:
#
# PCOD8322357 Si02
#       6
#     6   6   6   6   6   6
#     4  11  22  40  70  97 129 184 221 280 346 404
#     4  11  25  43  65  98 138 172 230 283 343 413
#     4  10  22  38  64  94 135 166 230 276 339 409
#     4  10  20  39  62  96 127 175 218 279 330 412
#     4  11  23  42  69  98 136 178 231 280 344 414
#     4  11  24  38  62 103 137 178 214 294 353 398
#
# _framework density 21.510491999999999
#
# number of rings (size 3 to 8) (size 9 to 14) (size 15 to 20)
#    0.000    1.333    3.333    2.000    2.333    3.333 
#    0.000    0.000    7.333    0.000    0.000    0.000 
#    0.000    0.000    0.000    0.000    0.000    0.000 
#
# Total GULP energy -446166.357859 kJ/mol
# GULP energy per Si atom -12393.509941 kJ/mol
# Density = 2.146153 g / cm^3
# Si number density = 21.510492 Si / 1000 Ang^3
#
#
#
# Elastic Constant Matrix: (Units=GPa)
#
#
# Indices 1 2 3 4 5 6 
#
# 1 93.6040 43.2011 37.6801 -4.8073 0.0000 0.0000
# 2 43.2011 93.6040 37.6801 4.8073 0.0000 0.0000
# 3 37.6801 37.6801 99.2749 0.0000 0.0000 0.0000
# 4 -4.8073 4.8073 0.0000 34.3573 0.0000 0.0000
# 5 0.0000 0.0000 0.0000 0.0000 34.3573 -4.8073
# 6 0.0000 0.0000 0.0000 0.0000 -4.8073 25.2015
#
#
#
# Elastic Compliance Matrix: (Units=1/GPa)
#
#
# Indices 1 2 3 4 5 6 
#
# 1 0.014813 -0.005571 -0.003508 0.002852 0.000000 0.000000
# 2 -0.005571 0.014813 -0.003508 -0.002852 0.000000 0.000000
# 3 -0.003508 -0.003508 0.012736 0.000000 0.000000 0.000000
# 4 0.002852 -0.002852 0.000000 0.029904 0.000000 0.000000
# 5 0.000000 0.000000 0.000000 0.000000 0.029904 0.005704
# 6 0.000000 0.000000 0.000000 0.000000 0.005704 0.040768
#
#
# Mechanical properties :
#
#
# Convention : Reuss Voigt Hill
#
# Bulk Modulus (GPa) = 58.17837 58.17840 58.17839
# Shear Modulus (GPa) = 28.76183 29.97799 29.36991
#
# Velocity S-wave (km/s) = 3.66061 3.73721 3.69911
# Velocity P-wave (km/s) = 6.70612 6.76221 6.73422
#
# Compressibility (1/GPa) = 0.01718852
#
# Stress axis : x y z
#
# Youngs Moduli (GPa) = 67.50788 67.50788 78.51857
#
# Poissons Ratio (x) = 0.37609 0.27543
# Poissons Ratio (y) = 0.37609 0.27543
# Poissons Ratio (z) = 0.23681 0.23681
#
# Static dielectric constant tensor:
#      x y z
#    x 3.852200 0.000000 0.000000 
#    y 0.000000 3.852200 0.000000 
#    z 0.000000 0.000000 4.122160 
# 
# 
# High freq. dielectric constant tensor:
#      x y z
#    x 1.836040 0.000000 0.000000 
#    y 0.000000 1.836040 0.000000 
#    z 0.000000 0.000000 1.850060 
# 
# From -- ./inp_files/1989.got.cif
#   From: 2010.03.12/outbox.cif.g09.slc.cpg/sg154_1_cif.got.tgz:1989.got - 2010.04.03 13:51:21.
