data_PCOD8322836
_publ_section_title
;
Structure prediction by ZEFSAII (Michael W. Deem and Ramdas Pophale) SiO2 
 PCOD8322836
Probable space group: P 3 1 C
;
_chemical_formula_sum "Si O2"
_cell_formula_units_Z 48
_cell_length_a 17.204789
_cell_length_b 17.204789
_cell_length_c 8.534306
_cell_angle_alpha 90.000000
_cell_angle_beta 90.000000
_cell_angle_gamma 120.000000
_cell_volume 2187.749251
_symmetry_space_group_name_H-M "P 3 1 C"
_symmetry_group_IT_number 159
_symmetry_cell_setting 'hexagonal'
loop_
_space_group_symop_operation_xyz
x,y,z
-y,x-y,z
-x+y,-x,z
y,x,1/2+z
x-y,-y,1/2+z
-x,-x+y,1/2+z
loop_
_atom_site_type_symbol
_atom_site_label
_atom_site_fract_x
_atom_site_fract_y
_atom_site_fract_z
Si Si1 0.500547 0.933008 0.337200
Si Si2 0.932981 0.812100 0.695462
Si Si3 0.331793 0.901836 0.497592
Si Si4 0.070080 0.351494 0.820806
Si Si5 0.175942 0.062690 0.333317
Si Si6 0.878567 0.455894 0.480673
Si Si7 0.837328 0.609355 0.821395
Si Si8 0.776567 0.246241 0.504489
O O1 0.407670 0.878749 0.437657
O O2 0.572388 0.901797 0.383516
O O3 0.544209 0.038797 0.362898
O O4 0.480422 0.916555 0.154821
O O5 0.906076 0.814159 0.515197
O O6 0.910500 0.875300 0.805791
O O7 0.892682 0.710778 0.758521
O O8 0.040491 0.861117 0.718106
O O9 0.334172 0.911754 0.683686
O O10 0.229771 0.827664 0.459991
O O11 0.356256 0.997527 0.429007
O O12 0.040268 0.251395 0.766500
O O13 0.159493 0.375412 0.920261
O O14 0.823024 0.350136 0.461048
O O15 0.808958 0.487541 0.432424
O O16 0.771081 0.543038 0.688679
#
# Coordination Sequence:
#
# PCOD8322836 Si02
#       8
#     6   6   6   6   6   6   6   6
#     4  11  25  42  70 102 139 181 228 289 359 416
#     4  12  26  44  68  97 142 177 240 282 349 405
#     4  12  23  45  70 101 133 185 230 289 347 426
#     4  12  24  41  74  98 134 179 244 277 351 422
#     4  12  26  44  67 100 133 189 227 293 343 415
#     4  11  24  43  72  97 143 181 235 288 359 421
#     4  11  25  44  69 102 139 180 235 289 347 419
#     4  11  23  45  66 103 131 186 231 287 347 426
#
# _framework density 21.940356999999999
#
# number of rings (size 3 to 8) (size 9 to 14) (size 15 to 20)
#    0.000    0.500    5.000    3.500    3.500    1.000 
#    0.750    0.000    0.000    0.000    0.000    0.000 
#    0.000    0.000    0.000    0.000    0.000    0.000 
#
# Total GULP energy -595101.446192 kJ/mol
# GULP energy per Si atom -12397.946796 kJ/mol
# Density = 2.189042 g / cm^3
# Si number density = 21.940357 Si / 1000 Ang^3
#
#
#
# Elastic Constant Matrix: (Units=GPa)
#
#
# Indices 1 2 3 4 5 6 
#
# 1 123.0876 40.1416 32.8471 0.0000 -2.4242 0.0000
# 2 40.1416 123.0876 32.8471 0.0000 2.4242 0.0000
# 3 32.8471 32.8471 75.4860 0.0000 0.0000 0.0000
# 4 0.0000 0.0000 0.0000 31.0930 0.0000 2.4242
# 5 -2.4242 2.4242 0.0000 0.0000 31.0930 0.0000
# 6 0.0000 0.0000 0.0000 2.4242 0.0000 41.4730
#
#
#
# Elastic Compliance Matrix: (Units=1/GPa)
#
#
# Indices 1 2 3 4 5 6 
#
# 1 0.009769 -0.002342 -0.003232 0.000000 0.000944 0.000000
# 2 -0.002342 0.009769 -0.003232 0.000000 -0.000944 0.000000
# 3 -0.003232 -0.003232 0.016060 0.000000 0.000000 0.000000
# 4 0.000000 0.000000 0.000000 0.032309 0.000000 -0.001889
# 5 0.000944 -0.000944 0.000000 0.000000 0.032309 0.000000
# 6 0.000000 0.000000 0.000000 -0.001889 0.000000 0.024222
#
#
# Mechanical properties :
#
#
# Convention : Reuss Voigt Hill
#
# Bulk Modulus (GPa) = 55.59595 59.25918 57.42757
# Shear Modulus (GPa) = 33.77336 35.12014 34.44675
#
# Velocity S-wave (km/s) = 3.92768 4.00523 3.96664
# Velocity P-wave (km/s) = 6.77964 6.96110 6.87097
#
# Compressibility (1/GPa) = 0.01798692
#
# Stress axis : x y z
#
# Youngs Moduli (GPa) = 102.36309 102.36309 62.26612
#
# Poissons Ratio (x) = 0.23974 0.20123
# Poissons Ratio (y) = 0.23974 0.20123
# Poissons Ratio (z) = 0.33082 0.33082
#
# Static dielectric constant tensor:
#      x y z
#    x 4.199260 0.000000 0.000000 
#    y 0.000000 4.199260 0.000000 
#    z 0.000000 0.000000 3.794310 
# 
# 
# High freq. dielectric constant tensor:
#      x y z
#    x 1.872720 0.000000 0.000000 
#    y 0.000000 1.872720 0.000000 
#    z 0.000000 0.000000 1.857420 
# 
# From -- ./inp_files/487.got.cif
#   From: 2010.03.12/outbox.cif.g09.slc.cpg/sg159_cif.got.tgz:487.got - 2010.04.03 14:00:19.
