data_PCOD8322873
_publ_section_title
;
Structure prediction by ZEFSAII (Michael W. Deem and Ramdas Pophale) SiO2 
 PCOD8322873
Probable space group: R 3 M
;
_chemical_formula_sum "Si O2"
_cell_formula_units_Z 144
_cell_length_a 21.300161
_cell_length_b 21.300161
_cell_length_c 18.674738
_cell_angle_alpha 90.000000
_cell_angle_beta 90.000000
_cell_angle_gamma 120.000000
_cell_volume 7337.547429
_symmetry_space_group_name_H-M "R 3 M"
_symmetry_group_IT_number 160
_symmetry_cell_setting 'hexagonal'
loop_
_space_group_symop_operation_xyz
x,y,z
-y,x-y,z
-x+y,-x,z
-x+y,y,z
x,x-y,z
-y,-x,z
2/3+x,1/3+y,1/3+z
2/3-y,1/3+x-y,1/3+z
2/3-x+y,1/3-x,1/3+z
2/3-x+y,1/3+y,1/3+z
2/3+x,1/3+x-y,1/3+z
2/3-y,1/3-x,1/3+z
1/3+x,2/3+y,2/3+z
1/3-y,2/3+x-y,2/3+z
1/3-x+y,2/3-x,2/3+z
1/3-x+y,2/3+y,2/3+z
1/3+x,2/3+x-y,2/3+z
1/3-y,2/3-x,2/3+z
loop_
_atom_site_type_symbol
_atom_site_label
_atom_site_fract_x
_atom_site_fract_y
_atom_site_fract_z
Si Si1 0.475151 0.806696 0.521437
Si Si2 0.552031 0.594942 0.194819
Si Si3 0.934086 0.395179 0.597121
Si Si4 0.416955 0.331064 0.290144
Si Si5 0.287004 0.215086 0.101504
Si Si6 0.372606 0.112851 0.697558
Si Si7 0.777248 0.778620 0.726820
Si Si8 0.140768 0.997437 0.597019
O O1 0.411531 0.823062 0.500909
O O2 0.441637 0.720819 0.528413
O O3 0.512303 0.843058 0.596171
O O4 0.539890 0.838558 0.462677
O O5 0.486775 0.513226 0.203682
O O6 0.614312 0.603793 0.249595
O O7 0.578837 0.614999 0.113348
O O8 0.526501 0.652799 0.210487
O O9 0.906591 0.453296 0.610457
O O10 0.924463 0.370868 0.513552
O O11 0.892892 0.325137 0.649022
O O12 0.019128 0.436217 0.613496
O O13 0.426320 0.343790 0.374994
O O14 0.265673 0.132837 0.086624
O O15 0.373123 0.264776 0.093542
O O16 0.390310 0.195155 0.690437
O O17 0.289915 0.054461 0.676988
O O18 0.821598 0.847383 0.675816
O O19 0.159434 0.079717 0.591804
O O20 0.056513 0.943488 0.577324
#
# Coordination Sequence:
#
# PCOD8322873 Si02
#       8
#    18  18  18  18  18  18  18  18
#     4  12  24  38  57  85 122 162 202 244 292 354
#     4  10  20  35  60  87 112 150 197 241 295 357
#     4  11  24  41  61  88 122 160 199 251 310 362
#     4  12  21  37  62  87 115 153 199 252 300 355
#     4  11  21  37  61  86 117 158 202 243 295 360
#     4  11  22  40  63  90 119 153 197 250 303 358
#     4  12  21  35  58  85 117 155 199 236 287 353
#     4  11  22  35  52  80 118 159 196 233 280 343
#
# _framework density 19.625086
#
# number of rings (size 3 to 8) (size 9 to 14) (size 15 to 20)
#    0.000    0.750    5.000    4.000    0.000    0.500 
#    0.000    2.500    0.000    0.250    0.000    0.000 
#    0.000    0.000    0.000    0.000    0.000    0.000 
#
# Total GULP energy -595004.245221 kJ/mol
# GULP energy per Si atom -12395.921775 kJ/mol
# Density = 1.958042 g / cm^3
# Si number density = 19.625086 Si / 1000 Ang^3
#
#
#
# Elastic Constant Matrix: (Units=GPa)
#
#
# Indices 1 2 3 4 5 6 
#
# 1 74.6729 34.1296 31.7886 0.6189 -0.0003 0.0000
# 2 34.1296 74.6729 31.7886 -0.6189 0.0003 0.0000
# 3 31.7886 31.7886 111.9235 0.0000 0.0000 0.0000
# 4 0.6189 -0.6189 0.0000 24.9227 0.0000 0.0003
# 5 -0.0003 0.0003 0.0000 0.0000 24.9227 0.6189
# 6 0.0000 0.0000 0.0000 0.0003 0.6189 20.2717
#
#
#
# Elastic Compliance Matrix: (Units=1/GPa)
#
#
# Indices 1 2 3 4 5 6 
#
# 1 0.017852 -0.006832 -0.003130 -0.000613 0.000000 0.000000
# 2 -0.006832 0.017852 -0.003130 0.000613 0.000000 0.000000
# 3 -0.003130 -0.003130 0.010713 0.000000 0.000000 0.000000
# 4 -0.000613 0.000613 0.000000 0.040155 0.000000 -0.000001
# 5 0.000000 0.000000 0.000000 0.000000 0.040155 -0.001226
# 6 0.000000 0.000000 0.000000 -0.000001 -0.001226 0.049367
#
#
# Mechanical properties :
#
#
# Convention : Reuss Voigt Hill
#
# Bulk Modulus (GPa) = 49.42465 50.74253 50.08359
# Shear Modulus (GPa) = 23.92116 24.92759 24.42438
#
# Velocity S-wave (km/s) = 3.49507 3.56784 3.53164
# Velocity P-wave (km/s) = 6.44410 6.54864 6.49658
#
# Compressibility (1/GPa) = 0.02023282
#
# Stress axis : x y z
#
# Youngs Moduli (GPa) = 56.01690 56.01690 93.34837
#
# Poissons Ratio (x) = 0.38270 0.29217
# Poissons Ratio (y) = 0.38270 0.29217
# Poissons Ratio (z) = 0.17533 0.17533
#
# Static dielectric constant tensor:
#      x y z
#    x 3.424280 0.000000 0.000000 
#    y 0.000000 3.424280 0.000000 
#    z 0.000000 0.000000 3.688230 
# 
# 
# High freq. dielectric constant tensor:
#      x y z
#    x 1.753260 0.000000 0.000000 
#    y 0.000000 1.753260 0.000000 
#    z 0.000000 0.000000 1.764430 
# 
# From -- ./inp_files/3457.got.cif
#   From: 2010.03.12/outbox.cif.g09.slc.cpg/sg160_2_cif.got.tgz:3457.got - 2010.04.02 06:26:15.
