data_PCOD8322782
_publ_section_title
;
Structure prediction by ZEFSAII (Michael W. Deem and Ramdas Pophale) SiO2 
 PCOD8322782
Probable space group: P 3 C 1
;
_chemical_formula_sum "Si O2"
_cell_formula_units_Z 32
_cell_length_a 12.334078
_cell_length_b 12.334078
_cell_length_c 17.204326
_cell_angle_alpha 90.000000
_cell_angle_beta 90.000000
_cell_angle_gamma 120.000000
_cell_volume 2266.635446
_symmetry_space_group_name_H-M "P 3 C 1"
_symmetry_group_IT_number 158
_symmetry_cell_setting 'hexagonal'
loop_
_space_group_symop_operation_xyz
x,y,z
-y,x-y,z
-x+y,-x,z
-x+y,y,1/2+z
x,x-y,1/2+z
-y,-x,1/2+z
loop_
_atom_site_type_symbol
_atom_site_label
_atom_site_fract_x
_atom_site_fract_y
_atom_site_fract_z
Si Si1 0.342104 0.473256 0.802970
Si Si2 0.000000 0.000000 0.197936
Si Si3 0.806588 0.797818 0.302968
Si Si4 0.333335 0.666668 0.697939
Si Si5 0.526746 0.657897 0.909466
Si Si6 0.202181 0.193411 0.409464
Si Si7 0.000000 0.000000 0.014496
Si Si8 0.333334 0.666668 0.014499
O O1 0.305550 0.333335 0.777074
O O2 0.359217 0.556843 0.727057
O O3 0.467447 0.532544 0.856223
O O4 0.236598 0.473206 0.856213
O O5 0.000000 0.000000 0.106216
O O6 0.890167 0.864297 0.227054
O O7 0.806539 0.903268 0.356218
O O8 0.865883 0.731763 0.356214
O O9 0.333334 0.666667 0.606219
O O10 0.666668 0.694450 0.935359
O O11 0.443171 0.640805 0.985381
O O12 0.135705 0.109829 0.485378
#
# Coordination Sequence:
#
# PCOD8322782 Si02
#       8
#     6   2   6   2   6   6   2   2
#     4   8  14  25  39  53  72 100 130 157 186 222
#     4   9  16  23  34  57  82  98 118 153 196 239
#     4   8  14  25  39  53  72 100 130 157 186 222
#     4   9  16  23  34  57  82  98 118 153 196 239
#     4   8  14  25  39  53  72 100 130 157 186 222
#     4   8  14  25  39  53  72 100 130 157 186 222
#     4   9  16  23  34  57  82  98 118 153 196 239
#     4   9  16  23  34  57  82  98 118 153 196 239
#
# _framework density 14.117841
#
# number of rings (size 3 to 8) (size 9 to 14) (size 15 to 20)
#    0.000    3.750    0.000    3.000    0.000    1.500 
#    0.000    0.000    0.000    0.750    0.000    0.000 
#    0.000    0.000    0.000    2.250    0.000    0.000 
#
# Total GULP energy -396498.625823 kJ/mol
# GULP energy per Si atom -12390.582057 kJ/mol
# Density = 1.408571 g / cm^3
# Si number density = 14.117841 Si / 1000 Ang^3
#
#
#
# Elastic Constant Matrix: (Units=GPa)
#
#
# Indices 1 2 3 4 5 6 
#
# 1 70.6916 41.7317 36.7517 -0.0004 0.0000 0.0000
# 2 41.7317 70.6921 36.7520 0.0004 0.0000 0.0000
# 3 36.7517 36.7520 110.2720 0.0000 0.0000 0.0000
# 4 -0.0004 0.0004 0.0000 12.0604 0.0000 0.0000
# 5 0.0000 0.0000 0.0000 0.0000 12.0603 -0.0004
# 6 0.0000 0.0000 0.0000 0.0000 -0.0004 14.4802
#
#
#
# Elastic Compliance Matrix: (Units=1/GPa)
#
#
# Indices 1 2 3 4 5 6 
#
# 1 0.022952 -0.011578 -0.003790 0.000001 0.000000 0.000000
# 2 -0.011578 0.022952 -0.003791 -0.000001 0.000000 0.000000
# 3 -0.003790 -0.003791 0.011595 0.000000 0.000000 0.000000
# 4 0.000001 -0.000001 0.000000 0.082916 0.000000 0.000000
# 5 0.000000 0.000000 0.000000 0.000000 0.082917 0.000002
# 6 0.000000 0.000000 0.000000 0.000000 0.000002 0.069060
#
#
# Mechanical properties :
#
#
# Convention : Reuss Voigt Hill
#
# Bulk Modulus (GPa) = 52.13896 53.56959 52.85427
# Shear Modulus (GPa) = 14.83226 16.81488 15.82357
#
# Velocity S-wave (km/s) = 3.24482 3.45488 3.35150
# Velocity P-wave (km/s) = 7.14492 7.34452 7.24541
#
# Compressibility (1/GPa) = 0.01917952
#
# Stress axis : x y z
#
# Youngs Moduli (GPa) = 43.56963 43.56987 86.24327
#
# Poissons Ratio (x) = 0.50447 0.32690
# Poissons Ratio (y) = 0.50447 0.32691
# Poissons Ratio (z) = 0.16515 0.16515
#
# Static dielectric constant tensor:
#      x y z
#    x 2.959000 0.000000 0.000000 
#    y 0.000000 2.959000 0.000000 
#    z 0.000000 0.000000 2.514570 
# 
# 
# High freq. dielectric constant tensor:
#      x y z
#    x 1.517260 0.000000 0.000000 
#    y 0.000000 1.517260 0.000000 
#    z 0.000000 0.000000 1.521230 
# 
# From -- ./inp_files/475.got.cif
#   From: 2010.03.12/outbox.cif.g09.slc.cpg/sg158_cif.got.tgz:475.got - 2010.04.03 13:59:47.
