data_PCOD8322968
_publ_section_title
;
Structure prediction by ZEFSAII (Michael W. Deem and Ramdas Pophale) SiO2 
 PCOD8322968
Probable space group: P -3 1 M 
;
_chemical_formula_sum "Si O2"
_cell_formula_units_Z 60
_cell_length_a 18.135559
_cell_length_b 18.135559
_cell_length_c 12.934052
_cell_angle_alpha 90.000000
_cell_angle_beta 90.000000
_cell_angle_gamma 120.000000
_cell_volume 3684.063671
_symmetry_space_group_name_H-M "P -3 1 M "
_symmetry_group_IT_number 162
_symmetry_cell_setting 'hexagonal'
loop_
_space_group_symop_operation_xyz
x,y,z
-y,x-y,z
-x+y,-x,z
-y,-x,-z
-x+y,y,-z
x,x-y,-z
-x,-y,-z
y,-x+y,-z
x-y,x,-z
y,x,z
x-y,-y,z
-x,-x+y,z
loop_
_atom_site_type_symbol
_atom_site_label
_atom_site_fract_x
_atom_site_fract_y
_atom_site_fract_z
Si Si1 0.330521 0.497665 0.174044
Si Si2 0.635001 0.095255 0.387977
Si Si3 0.832856 0.330521 0.174044
Si Si4 0.635001 0.539746 0.387977
Si Si5 0.267084 0.903682 0.000000
O O1 0.310588 0.462800 0.291790
O O2 0.426650 0.573350 0.157480
O O3 0.265702 0.531403 0.146627
O O4 0.313263 0.420018 0.100301
O O5 0.546138 0.092276 0.388364
O O6 0.680592 0.131755 0.500000
O O7 0.618665 0.000000 0.373195
O O8 0.847787 0.310588 0.291790
O O9 0.893244 0.313263 0.100301
O O10 0.618665 0.618665 0.373195
O O11 0.282647 0.000000 0.000000
O O12 0.165726 0.834275 0.000000
#
# Coordination Sequence:
#
# PCOD8322968 Si02
#       5
#    12  12  12  12  12
#     4  10  19  29  42  62  90 123 157 190 221 253
#     4   8  14  25  40  56  75 105 149 197 237 268
#     4  10  19  29  42  62  90 123 157 190 221 253
#     4   8  14  25  40  56  75 105 149 197 237 268
#     4  10  21  35  51  70  89 111 140 176 219 265
#
# _framework density 16.286362
#
# number of rings (size 3 to 8) (size 9 to 14) (size 15 to 20)
#    0.000    2.800    0.000    3.400    0.000    4.000 
#    0.000    2.000    0.000    2.600    0.000    0.000 
#    0.000    0.000    0.000    0.000    0.000    0.000 
#
# Total GULP energy -743379.888786 kJ/mol
# GULP energy per Si atom -12389.664813 kJ/mol
# Density = 1.624929 g / cm^3
# Si number density = 16.286362 Si / 1000 Ang^3
#
#
#
# Elastic Constant Matrix: (Units=GPa)
#
#
# Indices 1 2 3 4 5 6 
#
# 1 63.9138 38.3551 29.8488 0.0000 0.0000 0.0000
# 2 38.3551 63.9138 29.8488 0.0000 0.0000 0.0000
# 3 29.8488 29.8488 114.4885 0.0000 0.0000 0.0000
# 4 0.0000 0.0000 0.0000 18.0307 0.0000 0.0000
# 5 0.0000 0.0000 0.0000 0.0000 18.0307 0.0000
# 6 0.0000 0.0000 0.0000 0.0000 0.0000 12.7793
#
#
#
# Elastic Compliance Matrix: (Units=1/GPa)
#
#
# Indices 1 2 3 4 5 6 
#
# 1 0.025330 -0.013796 -0.003007 0.000000 0.000000 0.000000
# 2 -0.013796 0.025330 -0.003007 0.000000 0.000000 0.000000
# 3 -0.003007 -0.003007 0.010302 0.000000 0.000000 0.000000
# 4 0.000000 0.000000 0.000000 0.055461 0.000000 0.000000
# 5 0.000000 0.000000 0.000000 0.000000 0.055461 0.000000
# 6 0.000000 0.000000 0.000000 0.000000 0.000000 0.078251
#
#
# Mechanical properties :
#
#
# Convention : Reuss Voigt Hill
#
# Bulk Modulus (GPa) = 46.85709 48.71349 47.78529
# Shear Modulus (GPa) = 16.84249 19.38572 18.11411
#
# Velocity S-wave (km/s) = 3.21930 3.45382 3.33862
# Velocity P-wave (km/s) = 6.53083 6.77353 6.65329
#
# Compressibility (1/GPa) = 0.02134149
#
# Stress axis : x y z
#
# Youngs Moduli (GPa) = 39.47963 39.47963 97.06481
#
# Poissons Ratio (x) = 0.54467 0.29187
# Poissons Ratio (y) = 0.54467 0.29187
# Poissons Ratio (z) = 0.11871 0.11871
#
# Static dielectric constant tensor:
#      x y z
#    x 2.761380 0.000000 0.000000 
#    y 0.000000 2.761380 0.000000 
#    z 0.000000 0.000000 3.749020 
# 
# 
# High freq. dielectric constant tensor:
#      x y z
#    x 1.586160 0.000000 0.000000 
#    y 0.000000 1.586160 0.000000 
#    z 0.000000 0.000000 1.656100 
# 
# From -- ./inp_files/2296.got.cif
#   From: 2010.03.12/outbox.cif.g09.slc.cpg/sg162_2_cif.got.tgz:2296.got - 2010.04.02 06:27:41.
