data_PCOD8322345
_publ_section_title
;
Structure prediction by ZEFSAII (Michael W. Deem and Ramdas Pophale) SiO2 
 PCOD8322345
Probable space group: P 32 2 1
;
_chemical_formula_sum "Si O2"
_cell_formula_units_Z 36
_cell_length_a 9.164486
_cell_length_b 9.164486
_cell_length_c 22.547557
_cell_angle_alpha 90.000000
_cell_angle_beta 90.000000
_cell_angle_gamma 120.000000
_cell_volume 1640.009446
_symmetry_space_group_name_H-M "P 32 2 1"
_symmetry_group_IT_number 154
_symmetry_cell_setting 'hexagonal'
loop_
_space_group_symop_operation_xyz
x,y,z
-y,x-y,2/3+z
-x+y,-x,1/3+z
x-y,-y,1/3-z
-x,-x+y,2/3-z
y,x,-z
loop_
_atom_site_type_symbol
_atom_site_label
_atom_site_fract_x
_atom_site_fract_y
_atom_site_fract_z
Si Si1 0.623146 0.837234 0.337793
Si Si2 0.134818 0.595657 0.453820
Si Si3 0.733905 0.556502 0.111321
Si Si4 0.883414 0.116378 0.614726
Si Si5 0.299716 0.500212 0.352349
Si Si6 0.098428 0.138570 0.777910
O O1 0.708399 0.747336 0.302406
O O2 0.431895 0.695306 0.342977
O O3 0.695409 0.879510 0.404403
O O4 0.632689 0.000917 0.306064
O O5 0.215952 0.648412 0.519934
O O6 0.155410 0.768510 0.427905
O O7 0.204258 0.499894 0.412341
O O8 0.941739 0.457851 0.464573
O O9 0.856622 0.751673 0.131765
O O10 0.739362 0.552900 0.039940
O O11 0.758493 0.000000 0.666667
O O12 0.979464 0.022560 0.589772
O O13 0.000000 0.162972 0.833334
#
# Coordination Sequence:
#
# PCOD8322345 Si02
#       6
#     6   6   6   6   6   6
#     4  10  23  40  66  97 134 186 223 285 342 417
#     4  12  25  42  69  96 136 178 232 284 353 415
#     4  11  26  42  69  99 136 178 231 290 353 416
#     4  10  20  37  66  93 126 170 223 273 345 407
#     4  11  24  44  66  96 144 179 232 285 358 412
#     4  10  20  40  66  96 130 169 237 285 340 407
#
# _framework density 21.951091000000002
#
# number of rings (size 3 to 8) (size 9 to 14) (size 15 to 20)
#    0.000    1.333    1.667    3.500    7.000    4.000 
#    0.000    0.833    0.000    0.000    0.000    0.000 
#    0.000    0.000    0.000    0.000    0.000    0.000 
#
# Total GULP energy -446181.935319 kJ/mol
# GULP energy per Si atom -12393.942648 kJ/mol
# Density = 2.190113 g / cm^3
# Si number density = 21.951091 Si / 1000 Ang^3
#
#
#
# Elastic Constant Matrix: (Units=GPa)
#
#
# Indices 1 2 3 4 5 6 
#
# 1 85.3585 27.8808 15.0935 -2.1251 -0.0007 0.0000
# 2 27.8808 85.3585 15.0935 2.1251 0.0007 0.0000
# 3 15.0935 15.0935 62.9510 0.0000 0.0000 0.0000
# 4 -2.1251 2.1251 0.0000 31.6573 0.0000 0.0007
# 5 -0.0007 0.0007 0.0000 0.0000 31.6573 -2.1251
# 6 0.0000 0.0000 0.0000 0.0007 -2.1251 28.7389
#
#
#
# Elastic Compliance Matrix: (Units=1/GPa)
#
#
# Indices 1 2 3 4 5 6 
#
# 1 0.013459 -0.004025 -0.002262 0.001174 0.000000 0.000000
# 2 -0.004025 0.013459 -0.002262 -0.001174 0.000000 0.000000
# 3 -0.002262 -0.002262 0.016970 0.000000 0.000000 0.000000
# 4 0.001174 -0.001174 0.000000 0.031746 0.000000 -0.000001
# 5 0.000000 0.000000 0.000000 0.000000 0.031746 0.002347
# 6 0.000000 0.000000 0.000000 -0.000001 0.002347 0.034970
#
#
# Mechanical properties :
#
#
# Convention : Reuss Voigt Hill
#
# Bulk Modulus (GPa) = 37.32730 38.86707 38.09719
# Shear Modulus (GPa) = 29.69495 30.11737 29.90616
#
# Velocity S-wave (km/s) = 3.68200 3.70810 3.69507
# Velocity P-wave (km/s) = 5.92603 6.00650 5.96640
#
# Compressibility (1/GPa) = 0.02679004
#
# Stress axis : x y z
#
# Youngs Moduli (GPa) = 74.29789 74.29789 58.92737
#
# Poissons Ratio (x) = 0.29909 0.13329
# Poissons Ratio (y) = 0.29909 0.13329
# Poissons Ratio (z) = 0.16806 0.16806
#
# Static dielectric constant tensor:
#      x y z
#    x 3.856730 0.000000 0.000000 
#    y 0.000000 3.856730 0.000000 
#    z 0.000000 0.000000 4.427160 
# 
# 
# High freq. dielectric constant tensor:
#      x y z
#    x 1.858250 0.000000 0.000000 
#    y 0.000000 1.858250 0.000000 
#    z 0.000000 0.000000 1.869560 
# 
# From -- ./inp_files/3385.got.cif
#   From: 2010.03.12/outbox.cif.g09.slc.cpg/sg154_2_cif.got.tgz:3385.got - 2010.04.03 13:51:21.
