data_PCOD8322705
_publ_section_title
;
Structure prediction by ZEFSAII (Michael W. Deem and Ramdas Pophale) SiO2 
 PCOD8322705
Probable space group: P 3 M 1
;
_chemical_formula_sum "Si O2"
_cell_formula_units_Z 42
_cell_length_a 12.321285
_cell_length_b 12.321285
_cell_length_c 17.824726
_cell_angle_alpha 90.000000
_cell_angle_beta 90.000000
_cell_angle_gamma 120.000000
_cell_volume 2343.502930
_symmetry_space_group_name_H-M "P 3 M 1"
_symmetry_group_IT_number 156
_symmetry_cell_setting 'hexagonal'
loop_
_space_group_symop_operation_xyz
x,y,z
-y,x-y,z
-x+y,-x,z
-x+y,y,z
x,x-y,z
-y,-x,z
loop_
_atom_site_type_symbol
_atom_site_label
_atom_site_fract_x
_atom_site_fract_y
_atom_site_fract_z
Si Si1 0.333529 0.415358 0.474490
Si Si2 0.917764 0.332182 0.902273
Si Si3 0.918113 0.333237 0.617226
Si Si4 0.917672 0.332257 0.188055
Si Si5 0.748956 0.747731 0.759810
Si Si6 0.252890 0.001183 0.045641
Si Si7 0.999987 0.748399 0.331738
O O1 0.204312 0.408623 0.495233
O O2 0.440601 0.559400 0.472153
O O3 0.360713 0.338337 0.536710
O O4 0.328663 0.354760 0.394394
O O5 0.932484 0.466242 0.916492
O O6 0.771369 0.228632 0.906757
O O7 0.974697 0.330882 0.821777
O O8 0.995381 0.306440 0.964868
O O9 0.925000 0.462500 0.638334
O O10 0.773767 0.226234 0.616021
O O11 0.995440 0.305005 0.678733
O O12 0.931682 0.465841 0.202437
O O13 0.771407 0.228594 0.189956
O O14 0.977765 0.332552 0.108367
O O15 0.993432 0.306868 0.251914
O O16 0.733640 0.866820 0.773352
O O17 0.895000 0.790000 0.766578
O O18 0.132298 0.867703 0.058067
O O19 0.212292 0.106146 0.052523
O O20 0.108159 0.891842 0.328404
O O21 0.872288 0.744577 0.352776
#
# Coordination Sequence:
#
# PCOD8322705 Si02
#       7
#     6   6   6   6   6   6   6
#     4  10  20  34  52  74 102 136 172 208 248 298
#     4  10  20  34  54  78 104 134 168 208 252 298
#     4  10  20  34  53  76 102 132 167 209 255 301
#     4  10  20  34  53  76 102 132 166 206 251 299
#     4  10  20  34  53  76 102 132 166 206 251 299
#     4  10  20  34  54  78 104 134 168 208 252 298
#     4  10  20  34  53  76 102 132 167 209 255 301
#
# _framework density 17.921887999999999
#
# number of rings (size 3 to 8) (size 9 to 14) (size 15 to 20)
#    0.000    2.000    0.000    4.000    0.000    0.000 
#    0.000    5.714    0.000   21.714    0.000    0.000 
#    0.000    0.000    0.000    0.000    0.000    0.000 
#
# Total GULP energy -521008.477311 kJ/mol
# GULP energy per Si atom -12404.963746 kJ/mol
# Density = 1.788110 g / cm^3
# Si number density = 17.921888 Si / 1000 Ang^3
#
#
#
# Elastic Constant Matrix: (Units=GPa)
#
#
# Indices 1 2 3 4 5 6 
#
# 1 78.5767 31.8792 14.0307 1.4153 0.0003 0.0000
# 2 31.8792 78.5767 14.0307 -1.4153 -0.0003 0.0000
# 3 14.0307 14.0307 77.8331 0.0000 0.0000 0.0000
# 4 1.4153 -1.4153 0.0000 21.5192 0.0000 -0.0003
# 5 0.0003 -0.0003 0.0000 0.0000 21.5192 1.4153
# 6 0.0000 0.0000 0.0000 -0.0003 1.4153 23.3487
#
#
#
# Elastic Compliance Matrix: (Units=1/GPa)
#
#
# Indices 1 2 3 4 5 6 
#
# 1 0.015494 -0.006006 -0.001710 -0.001414 0.000000 0.000000
# 2 -0.006006 0.015494 -0.001710 0.001414 0.000000 0.000000
# 3 -0.001710 -0.001710 0.013465 0.000000 0.000000 0.000000
# 4 -0.001414 0.001414 0.000000 0.046656 0.000000 0.000001
# 5 0.000000 0.000000 0.000000 0.000000 0.046656 -0.002828
# 6 0.000000 0.000000 0.000000 0.000001 -0.002828 0.043000
#
#
# Mechanical properties :
#
#
# Convention : Reuss Voigt Hill
#
# Bulk Modulus (GPa) = 39.06397 39.42976 39.24687
# Shear Modulus (GPa) = 24.02093 24.94716 24.48405
#
# Velocity S-wave (km/s) = 3.66500 3.73499 3.70016
# Velocity P-wave (km/s) = 6.30506 6.37565 6.34045
#
# Compressibility (1/GPa) = 0.02559903
#
# Stress axis : x y z
#
# Youngs Moduli (GPa) = 64.54102 64.54102 74.26856
#
# Poissons Ratio (x) = 0.38764 0.12703
# Poissons Ratio (y) = 0.38764 0.12703
# Poissons Ratio (z) = 0.11039 0.11039
#
# Static dielectric constant tensor:
#      x y z
#    x 3.205160 0.000000 0.000000 
#    y 0.000000 3.205160 0.000000 
#    z 0.000000 0.000000 3.464850 
# 
# 
# High freq. dielectric constant tensor:
#      x y z
#    x 1.693080 0.000000 0.000000 
#    y 0.000000 1.693080 0.000000 
#    z 0.000000 0.000000 1.711210 
# 
# From -- ./inp_files/955.got.cif
#   From: 2010.03.12/outbox.cif.g09.slc.cpg/sg156_cif.got.tgz:955.got - 2010.04.03 13:58:47.
