data_PCOD8322041
_publ_section_title
;
Structure prediction by ZEFSAII (Michael W. Deem and Ramdas Pophale) SiO2 
 PCOD8322041
Probable space group: P 31 2 1
;
_chemical_formula_sum "Si O2"
_cell_formula_units_Z 36
_cell_length_a 21.587288
_cell_length_b 21.587288
_cell_length_c 4.977117
_cell_angle_alpha 90.000000
_cell_angle_beta 90.000000
_cell_angle_gamma 120.000000
_cell_volume 2008.651775
_symmetry_space_group_name_H-M "P 31 2 1"
_symmetry_group_IT_number 152
_symmetry_cell_setting 'hexagonal'
loop_
_space_group_symop_operation_xyz
x,y,z
-y,x-y,1/3+z
-x+y,-x,2/3+z
x-y,-y,2/3-z
-x,-x+y,1/3-z
y,x,-z
loop_
_atom_site_type_symbol
_atom_site_label
_atom_site_fract_x
_atom_site_fract_y
_atom_site_fract_z
Si Si1 0.916315 0.763072 0.157816
Si Si2 0.841330 0.917115 0.352275
Si Si3 0.579892 0.369290 0.977969
Si Si4 0.460918 0.734181 0.846160
Si Si5 0.259954 0.395521 0.492073
Si Si6 0.563570 0.918977 0.339504
O O1 0.898723 0.774143 0.459859
O O2 0.870637 0.679232 0.090676
O O3 0.000000 0.788769 0.166667
O O4 0.894977 0.807910 0.948365
O O5 0.876999 0.876999 0.500000
O O6 0.901446 0.000000 0.333334
O O7 0.551475 0.323850 0.242010
O O8 0.654678 0.439139 0.055573
O O9 0.586869 0.321599 0.739412
O O10 0.519724 0.390136 0.900608
O O11 0.545623 0.780198 0.777683
O O12 0.293987 0.386091 0.217551
O O13 0.320804 0.421701 0.714705
O O14 0.580537 0.000000 0.333334
#
# Coordination Sequence:
#
# PCOD8322041 Si02
#       6
#     6   6   6   6   6   6
#     4  10  19  32  50  72  97 126 159 199 245 291
#     4  10  21  34  51  73  97 126 158 197 244 292
#     4  10  19  30  48  71  98 128 160 197 241 290
#     4  10  19  31  48  73 100 129 160 198 243 287
#     4  10  20  32  50  74  99 127 161 201 246 292
#     4  10  19  31  48  71  98 128 160 200 245 290
#
# _framework density 17.922470000000001
#
# number of rings (size 3 to 8) (size 9 to 14) (size 15 to 20)
#    0.000    2.000    0.000    5.000    0.000    3.333 
#    0.000    0.000    0.000    2.000    0.000    0.000 
#    0.000    0.000    0.000    0.000    0.000    0.000 
#
# Total GULP energy -446100.842846 kJ/mol
# GULP energy per Si atom -12391.690079 kJ/mol
# Density = 1.788168 g / cm^3
# Si number density = 17.922470 Si / 1000 Ang^3
#
#
#
# Elastic Constant Matrix: (Units=GPa)
#
#
# Indices 1 2 3 4 5 6 
#
# 1 98.7170 43.3754 16.7291 -1.5232 0.0000 0.0000
# 2 43.3754 98.7170 16.7291 1.5232 0.0000 0.0000
# 3 16.7291 16.7291 88.6852 0.0000 0.0000 0.0000
# 4 -1.5232 1.5232 0.0000 23.8808 0.0000 0.0000
# 5 0.0000 0.0000 0.0000 0.0000 23.8808 -1.5232
# 6 0.0000 0.0000 0.0000 0.0000 -1.5232 27.6708
#
#
#
# Elastic Compliance Matrix: (Units=1/GPa)
#
#
# Indices 1 2 3 4 5 6 
#
# 1 0.012749 -0.005384 -0.001389 0.001157 0.000000 0.000000
# 2 -0.005384 0.012749 -0.001389 -0.001157 0.000000 0.000000
# 3 -0.001389 -0.001389 0.011800 0.000000 0.000000 0.000000
# 4 0.001157 -0.001157 0.000000 0.042022 0.000000 0.000000
# 5 0.000000 0.000000 0.000000 0.000000 0.042022 0.002313
# 6 0.000000 0.000000 0.000000 0.000000 0.002313 0.036266
#
#
# Mechanical properties :
#
#
# Convention : Reuss Voigt Hill
#
# Bulk Modulus (GPa) = 47.68141 48.86516 48.27328
# Shear Modulus (GPa) = 27.63571 29.03884 28.33727
#
# Velocity S-wave (km/s) = 3.93104 4.02960 3.98062
# Velocity P-wave (km/s) = 6.87503 6.99815 6.93687
#
# Compressibility (1/GPa) = 0.02097253
#
# Stress axis : x y z
#
# Youngs Moduli (GPa) = 78.43736 78.43736 84.74606
#
# Poissons Ratio (x) = 0.42232 0.11773
# Poissons Ratio (y) = 0.42232 0.11773
# Poissons Ratio (z) = 0.10897 0.10897
#
# Static dielectric constant tensor:
#      x y z
#    x 3.250350 0.000000 0.000000 
#    y 0.000000 3.250350 0.000000 
#    z 0.000000 0.000000 3.624830 
# 
# 
# High freq. dielectric constant tensor:
#      x y z
#    x 1.669760 0.000000 0.000000 
#    y 0.000000 1.669760 0.000000 
#    z 0.000000 0.000000 1.722360 
# 
# From -- ./inp_files/468.got.cif
#   From: 2010.03.12/outbox.cif.g09.slc.cpg/sg152_1_cif.got.tgz:468.got - 2010.04.03 13:45:27.
