data_PCOD8322176
_publ_section_title
;
Structure prediction by ZEFSAII (Michael W. Deem and Ramdas Pophale) SiO2 
 PCOD8322176
Probable space group: P 31 2 1
;
_chemical_formula_sum "Si O2"
_cell_formula_units_Z 42
_cell_length_a 9.100815
_cell_length_b 9.100815
_cell_length_c 28.686731
_cell_angle_alpha 90.000000
_cell_angle_beta 90.000000
_cell_angle_gamma 120.000000
_cell_volume 2057.653603
_symmetry_space_group_name_H-M "P 31 2 1"
_symmetry_group_IT_number 152
_symmetry_cell_setting 'hexagonal'
loop_
_space_group_symop_operation_xyz
x,y,z
-y,x-y,1/3+z
-x+y,-x,2/3+z
x-y,-y,2/3-z
-x,-x+y,1/3-z
y,x,-z
loop_
_atom_site_type_symbol
_atom_site_label
_atom_site_fract_x
_atom_site_fract_y
_atom_site_fract_z
Si Si1 0.853134 0.863039 0.265059
Si Si2 0.889088 0.789360 0.363537
Si Si3 0.325499 0.841951 0.544066
Si Si4 0.391073 0.325498 0.551725
Si Si5 0.202084 0.654424 0.449307
Si Si6 0.209318 0.575265 0.271804
Si Si7 0.238142 0.818151 0.350757
O O1 0.788778 0.796125 0.317731
O O2 0.691028 0.815741 0.233626
O O3 0.951566 0.773892 0.243448
O O4 0.980033 0.066306 0.265867
O O5 0.795508 0.608396 0.387374
O O6 0.067674 0.824702 0.343254
O O7 0.266734 0.787020 0.491466
O O8 0.317537 0.685726 0.571718
O O9 0.515835 0.002812 0.546358
O O10 0.336673 0.336673 0.500000
O O11 0.553442 0.302754 0.552048
O O12 0.453118 0.495724 0.579972
O O13 0.249604 0.775038 0.404372
O O14 0.239179 0.670326 0.320683
O O15 0.393326 0.000000 0.333334
#
# Coordination Sequence:
#
# PCOD8322176 Si02
#       7
#     6   6   6   6   6   6   6
#     4  10  23  43  68  95 131 175 227 281 335 414
#     4  11  22  43  68  98 131 172 231 282 343 404
#     4  11  25  45  67 100 142 176 228 284 345 404
#     4  11  22  43  70  98 133 182 223 274 344 420
#     4  11  26  43  68 103 139 179 227 287 341 412
#     4  12  24  43  70  99 134 181 223 282 349 396
#     4  12  25  44  72  98 136 182 234 281 342 418
#
# _framework density 20.411598000000001
#
# number of rings (size 3 to 8) (size 9 to 14) (size 15 to 20)
#    0.000    0.857    5.714    1.714    2.000    3.429 
#    2.571    0.000    0.000    0.000    0.000    0.000 
#    0.000    0.000    0.000    0.000    0.000    0.000 
#
# Total GULP energy -520917.997027 kJ/mol
# GULP energy per Si atom -12402.809453 kJ/mol
# Density = 2.036514 g / cm^3
# Si number density = 20.411598 Si / 1000 Ang^3
#
#
#
# Elastic Constant Matrix: (Units=GPa)
#
#
# Indices 1 2 3 4 5 6 
#
# 1 98.0153 33.0529 51.6218 -5.9910 0.0000 0.0000
# 2 33.0529 98.0153 51.6218 5.9910 0.0000 0.0000
# 3 51.6218 51.6218 156.3225 0.0000 0.0000 0.0000
# 4 -5.9910 5.9910 0.0000 38.0736 0.0000 0.0000
# 5 0.0000 0.0000 0.0000 0.0000 38.0736 -5.9910
# 6 0.0000 0.0000 0.0000 0.0000 -5.9910 32.4812
#
#
#
# Elastic Compliance Matrix: (Units=1/GPa)
#
#
# Indices 1 2 3 4 5 6 
#
# 1 0.013083 -0.002771 -0.003405 0.002495 0.000000 0.000000
# 2 -0.002771 0.013083 -0.003405 -0.002495 0.000000 0.000000
# 3 -0.003405 -0.003405 0.008646 0.000000 0.000000 0.000000
# 4 0.002495 -0.002495 0.000000 0.027050 0.000000 0.000000
# 5 0.000000 0.000000 0.000000 0.000000 0.027050 0.004989
# 6 0.000000 0.000000 0.000000 0.000000 0.004989 0.031707
#
#
# Mechanical properties :
#
#
# Convention : Reuss Voigt Hill
#
# Bulk Modulus (GPa) = 63.90232 69.43846 66.67039
# Shear Modulus (GPa) = 34.48322 36.12947 35.30634
#
# Velocity S-wave (km/s) = 4.11468 4.21176 4.16350
# Velocity P-wave (km/s) = 7.34500 7.59900 7.47308
#
# Compressibility (1/GPa) = 0.01564888
#
# Stress axis : x y z
#
# Youngs Moduli (GPa) = 76.43614 76.43614 115.65963
#
# Poissons Ratio (x) = 0.21179 0.39385
# Poissons Ratio (y) = 0.21179 0.39385
# Poissons Ratio (z) = 0.26029 0.26029
#
# Static dielectric constant tensor:
#      x y z
#    x 3.670930 0.000000 0.000000 
#    y 0.000000 3.670930 0.000000 
#    z 0.000000 0.000000 3.836680 
# 
# 
# High freq. dielectric constant tensor:
#      x y z
#    x 1.800040 0.000000 0.000000 
#    y 0.000000 1.800040 0.000000 
#    z 0.000000 0.000000 1.810470 
# 
# From -- ./inp_files/3703.got.cif
#   From: 2010.03.12/outbox.cif.g09.slc.cpg/sg152_2_cif.got.tgz:3703.got - 2010.04.03 13:45:27.
