data_PCOD8322130
_publ_section_title
;
Structure prediction by ZEFSAII (Michael W. Deem and Ramdas Pophale) SiO2 
 PCOD8322130
Probable space group: P 31 2 1
;
_chemical_formula_sum "Si O2"
_cell_formula_units_Z 30
_cell_length_a 13.612956
_cell_length_b 13.612956
_cell_length_c 9.715461
_cell_angle_alpha 90.000000
_cell_angle_beta 90.000000
_cell_angle_gamma 120.000000
_cell_volume 1559.189588
_symmetry_space_group_name_H-M "P 31 2 1"
_symmetry_group_IT_number 152
_symmetry_cell_setting 'hexagonal'
loop_
_space_group_symop_operation_xyz
x,y,z
-y,x-y,1/3+z
-x+y,-x,2/3+z
x-y,-y,2/3-z
-x,-x+y,1/3-z
y,x,-z
loop_
_atom_site_type_symbol
_atom_site_label
_atom_site_fract_x
_atom_site_fract_y
_atom_site_fract_z
Si Si1 0.387917 0.036391 0.982623
Si Si2 0.528863 0.910340 0.605722
Si Si3 0.634434 0.875222 0.342340
Si Si4 0.169337 0.682692 0.393278
Si Si5 0.721749 0.525524 0.210987
O O1 0.328987 0.112213 0.950998
O O2 0.409646 0.000000 0.833334
O O3 0.512786 0.112164 0.050907
O O4 0.310079 0.931823 0.083731
O O5 0.549705 0.885770 0.449477
O O6 0.551521 0.831820 0.704788
O O7 0.611776 0.039018 0.654848
O O8 0.570172 0.826625 0.200489
O O9 0.746724 0.000000 0.333334
O O10 0.218500 0.598217 0.414898
O O11 0.247421 0.779224 0.283349
#
# Coordination Sequence:
#
# PCOD8322130 Si02
#       5
#     6   6   6   6   6
#     4  11  22  38  63  91 117 164 210 250 317 372
#     4  10  21  39  59  85 124 157 204 249 307 374
#     4  10  23  41  59  84 121 161 200 260 309 363
#     4  10  24  36  56  92 122 165 198 250 317 367
#     4  11  22  37  59  89 122 160 208 250 303 385
#
# _framework density 19.240765
#
# number of rings (size 3 to 8) (size 9 to 14) (size 15 to 20)
#    0.000    1.600    2.000    3.000    5.600    0.800 
#    0.000    0.000    0.000    2.400    0.000    0.000 
#    0.000    0.000    0.000    0.000    0.000    0.000 
#
# Total GULP energy -371951.807399 kJ/mol
# GULP energy per Si atom -12398.393580 kJ/mol
# Density = 1.919697 g / cm^3
# Si number density = 19.240765 Si / 1000 Ang^3
#
#
#
# Elastic Constant Matrix: (Units=GPa)
#
#
# Indices 1 2 3 4 5 6 
#
# 1 100.7987 49.0883 43.7921 6.3470 0.0000 0.0000
# 2 49.0883 100.7987 43.7921 -6.3470 0.0000 0.0000
# 3 43.7921 43.7921 128.4621 0.0000 0.0000 0.0000
# 4 6.3470 -6.3470 0.0000 31.8864 0.0000 0.0000
# 5 0.0000 0.0000 0.0000 0.0000 31.8864 6.3470
# 6 0.0000 0.0000 0.0000 0.0000 6.3470 25.8552
#
#
#
# Elastic Compliance Matrix: (Units=1/GPa)
#
#
# Indices 1 2 3 4 5 6 
#
# 1 0.014332 -0.006000 -0.002840 -0.004047 0.000000 0.000000
# 2 -0.006000 0.014332 -0.002840 0.004047 0.000000 0.000000
# 3 -0.002840 -0.002840 0.009721 0.000000 0.000000 0.000000
# 4 -0.004047 0.004047 0.000000 0.032972 0.000000 0.000000
# 5 0.000000 0.000000 0.000000 0.000000 0.032972 -0.008094
# 6 0.000000 0.000000 0.000000 0.000000 -0.008094 0.040664
#
#
# Mechanical properties :
#
#
# Convention : Reuss Voigt Hill
#
# Bulk Modulus (GPa) = 66.56501 67.04495 66.80498
# Shear Modulus (GPa) = 28.84147 30.81807 29.82977
#
# Velocity S-wave (km/s) = 3.87586 4.00647 3.94171
# Velocity P-wave (km/s) = 7.39599 7.50489 7.45064
#
# Compressibility (1/GPa) = 0.01502291
#
# Stress axis : x y z
#
# Youngs Moduli (GPa) = 69.77590 69.77590 102.87279
#
# Poissons Ratio (x) = 0.41868 0.29217
# Poissons Ratio (y) = 0.41868 0.29217
# Poissons Ratio (z) = 0.19817 0.19817
#
# Static dielectric constant tensor:
#      x y z
#    x 3.512520 0.000000 0.000000 
#    y 0.000000 3.512520 0.000000 
#    z 0.000000 0.000000 3.673620 
# 
# 
# High freq. dielectric constant tensor:
#      x y z
#    x 1.738080 0.000000 0.000000 
#    y 0.000000 1.738080 0.000000 
#    z 0.000000 0.000000 1.764630 
# 
# From -- ./inp_files/1052.got.cif
#   From: 2010.03.12/outbox.cif.g09.slc.cpg/sg152_1_cif.got.tgz:1052.got - 2010.04.03 13:45:27.
