data_PCOD8322264
_publ_section_title
;
Structure prediction by ZEFSAII (Michael W. Deem and Ramdas Pophale) SiO2 
 PCOD8322264
Probable space group: P 32 1 2
;
_chemical_formula_sum "Si O2"
_cell_formula_units_Z 42
_cell_length_a 8.788576
_cell_length_b 8.788576
_cell_length_c 27.658224
_cell_angle_alpha 90.000000
_cell_angle_beta 90.000000
_cell_angle_gamma 120.000000
_cell_volume 1850.086127
_symmetry_space_group_name_H-M "P 32 1 2"
_symmetry_group_IT_number 153
_symmetry_cell_setting 'hexagonal'
loop_
_space_group_symop_operation_xyz
x,y,z
-y,x-y,2/3+z
-x+y,-x,1/3+z
-y,-x,1/3-z
-x+y,y,2/3-z
x,x-y,-z
loop_
_atom_site_type_symbol
_atom_site_label
_atom_site_fract_x
_atom_site_fract_y
_atom_site_fract_z
Si Si1 0.329487 0.640149 0.922184
Si Si2 0.998349 0.564247 0.872399
Si Si3 0.178502 0.287465 0.455598
Si Si4 0.280640 0.883379 0.995681
Si Si5 0.521208 0.171297 0.686545
Si Si6 0.252595 0.168771 0.619664
Si Si7 0.721311 0.551403 0.131480
O O1 0.524124 0.714026 0.902983
O O2 0.337289 0.786049 0.957362
O O3 0.197603 0.604095 0.877776
O O4 0.255354 0.456506 0.951115
O O5 0.929587 0.594112 0.923825
O O6 0.880480 0.362770 0.855237
O O7 0.994147 0.698559 0.833373
O O8 0.146737 0.134652 0.418038
O O9 0.983744 0.232611 0.474009
O O10 0.102220 0.878917 0.978832
O O11 0.447894 0.077249 0.997584
O O12 0.630898 0.369102 0.666667
O O13 0.332179 0.097210 0.660747
O O14 0.501885 0.161567 0.743627
O O15 0.560994 0.439007 0.166667
#
# Coordination Sequence:
#
# PCOD8322264 Si02
#       7
#     6   6   6   6   6   6   6
#     4  10  20  41  68  99 132 184 238 287 364 432
#     4  11  24  45  70 102 141 193 240 299 368 447
#     4  12  24  44  71 104 146 193 244 302 369 450
#     4  10  22  40  66 100 138 178 235 299 357 435
#     4  12  24  45  70 104 140 187 244 298 362 445
#     4  11  24  44  71 100 143 188 243 301 374 430
#     4  12  26  44  73 106 142 190 244 294 372 444
#
# _framework density 22.701647000000001
#
# number of rings (size 3 to 8) (size 9 to 14) (size 15 to 20)
#    0.000    0.857    4.286    3.429    4.000    0.571 
#    5.143    2.857    0.000    0.000    0.000    0.000 
#    0.000    0.000    0.000    0.000    0.000    0.000 
#
# Total GULP energy -520809.396334 kJ/mol
# GULP energy per Si atom -12400.223722 kJ/mol
# Density = 2.264998 g / cm^3
# Si number density = 22.701647 Si / 1000 Ang^3
#
#
#
# Elastic Constant Matrix: (Units=GPa)
#
#
# Indices 1 2 3 4 5 6 
#
# 1 107.8045 24.3877 20.9237 0.0000 2.1930 0.0000
# 2 24.3877 107.8045 20.9237 0.0000 -2.1930 0.0000
# 3 20.9237 20.9237 93.1436 0.0000 0.0000 0.0000
# 4 0.0000 0.0000 0.0000 31.7268 0.0000 -2.1930
# 5 2.1930 -2.1930 0.0000 0.0000 31.7268 0.0000
# 6 0.0000 0.0000 0.0000 -2.1930 0.0000 41.7084
#
#
#
# Elastic Compliance Matrix: (Units=1/GPa)
#
#
# Indices 1 2 3 4 5 6 
#
# 1 0.010088 -0.001944 -0.001829 0.000000 -0.000832 0.000000
# 2 -0.001944 0.010088 -0.001829 0.000000 0.000832 0.000000
# 3 -0.001829 -0.001829 0.011558 0.000000 0.000000 0.000000
# 4 0.000000 0.000000 0.000000 0.031634 0.000000 0.001663
# 5 -0.000832 0.000832 0.000000 0.000000 0.031634 0.000000
# 6 0.000000 0.000000 0.000000 0.001663 0.000000 0.024063
#
#
# Mechanical properties :
#
#
# Convention : Reuss Voigt Hill
#
# Bulk Modulus (GPa) = 48.71382 49.02476 48.86929
# Shear Modulus (GPa) = 36.46618 37.20026 36.83322
#
# Velocity S-wave (km/s) = 4.01224 4.05243 4.03239
# Velocity P-wave (km/s) = 6.55507 6.59836 6.57675
#
# Compressibility (1/GPa) = 0.02052806
#
# Stress axis : x y z
#
# Youngs Moduli (GPa) = 99.12970 99.12970 86.51995
#
# Poissons Ratio (x) = 0.19270 0.15828
# Poissons Ratio (y) = 0.19270 0.15828
# Poissons Ratio (z) = 0.18135 0.18135
#
# Static dielectric constant tensor:
#      x y z
#    x 4.053280 0.000000 0.000000 
#    y 0.000000 4.053280 0.000000 
#    z 0.000000 0.000000 4.143980 
# 
# 
# High freq. dielectric constant tensor:
#      x y z
#    x 1.892030 0.000000 0.000000 
#    y 0.000000 1.892030 0.000000 
#    z 0.000000 0.000000 1.900780 
# 
# From -- ./inp_files/5185.got.cif
#   From: 2010.03.12/outbox.cif.g09.slc.cpg/sg153_3_cif.got.tgz:5185.got - 2010.04.03 13:48:33.
