data_PCOD8322854
_publ_section_title
;
Structure prediction by ZEFSAII (Michael W. Deem and Ramdas Pophale) SiO2 
 PCOD8322854
Probable space group: R 3 M
;
_chemical_formula_sum "Si O2"
_cell_formula_units_Z 108
_cell_length_a 16.856945
_cell_length_b 16.856945
_cell_length_c 26.032805
_cell_angle_alpha 90.000000
_cell_angle_beta 90.000000
_cell_angle_gamma 120.000000
_cell_volume 6406.330450
_symmetry_space_group_name_H-M "R 3 M"
_symmetry_group_IT_number 160
_symmetry_cell_setting 'hexagonal'
loop_
_space_group_symop_operation_xyz
x,y,z
-y,x-y,z
-x+y,-x,z
-x+y,y,z
x,x-y,z
-y,-x,z
2/3+x,1/3+y,1/3+z
2/3-y,1/3+x-y,1/3+z
2/3-x+y,1/3-x,1/3+z
2/3-x+y,1/3+y,1/3+z
2/3+x,1/3+x-y,1/3+z
2/3-y,1/3-x,1/3+z
1/3+x,2/3+y,2/3+z
1/3-y,2/3+x-y,2/3+z
1/3-x+y,2/3-x,2/3+z
1/3-x+y,2/3+y,2/3+z
1/3+x,2/3+x-y,2/3+z
1/3-y,2/3-x,2/3+z
loop_
_atom_site_type_symbol
_atom_site_label
_atom_site_fract_x
_atom_site_fract_y
_atom_site_fract_z
Si Si1 0.334027 0.845839 0.067975
Si Si2 0.568908 0.956622 0.374176
Si Si3 0.000949 0.819137 0.810972
Si Si4 0.239610 0.941242 0.302500
Si Si5 0.055708 0.290899 0.103426
Si Si6 0.966662 0.575720 0.534383
O O1 0.430388 0.860775 0.089183
O O2 0.261659 0.738342 0.066330
O O3 0.300604 0.899173 0.105528
O O4 0.344708 0.884048 0.010419
O O5 0.478221 0.956442 0.355885
O O6 0.549363 0.886827 0.420801
O O7 0.606428 0.924716 0.326611
O O8 0.642854 0.059135 0.393563
O O9 0.073012 0.926989 0.814937
O O10 0.025041 0.764118 0.852617
O O11 0.900382 0.800764 0.823086
O O12 0.155995 0.844006 0.284141
O O13 0.282563 0.009441 0.255401
O O14 0.132033 0.264066 0.088085
O O15 0.015602 0.249740 0.158981
O O16 0.941648 0.470824 0.536658
#
# Coordination Sequence:
#
# PCOD8322854 Si02
#       6
#    18  18  18  18  18  18
#     4   9  17  29  47  71  97 124 155 193 235 278
#     4   9  18  32  50  72  96 122 155 193 232 277
#     4   9  17  30  49  72  96 122 155 196 238 277
#     4  10  19  31  49  71  95 124 157 190 229 279
#     4   9  17  30  48  68  92 124 159 193 231 275
#     4  10  20  32  47  68  94 124 157 193 233 276
#
# _framework density 16.858325000000001
#
# number of rings (size 3 to 8) (size 9 to 14) (size 15 to 20)
#    0.000    2.667    0.000    3.333    0.000    5.333 
#    0.000    0.000    0.000    7.333    0.000    1.167 
#    0.000    0.000    0.000    0.000    0.000    0.000 
#
# Total GULP energy -446373.638692 kJ/mol
# GULP energy per Si atom -12399.267741 kJ/mol
# Density = 1.681996 g / cm^3
# Si number density = 16.858325 Si / 1000 Ang^3
#
#
#
# Elastic Constant Matrix: (Units=GPa)
#
#
# Indices 1 2 3 4 5 6 
#
# 1 97.9010 55.0317 41.1433 -0.4718 0.0001 0.0000
# 2 55.0317 97.9010 41.1433 0.4718 -0.0001 0.0000
# 3 41.1433 41.1433 78.6416 0.0000 0.0000 0.0000
# 4 -0.4718 0.4718 0.0000 20.9442 0.0000 -0.0001
# 5 0.0001 -0.0001 0.0000 0.0000 20.9442 -0.4718
# 6 0.0000 0.0000 0.0000 -0.0001 -0.4718 21.4346
#
#
#
# Elastic Compliance Matrix: (Units=1/GPa)
#
#
# Indices 1 2 3 4 5 6 
#
# 1 0.016219 -0.007119 -0.004761 0.000526 0.000000 0.000000
# 2 -0.007119 0.016219 -0.004761 -0.000526 0.000000 0.000000
# 3 -0.004761 -0.004761 0.017698 0.000000 0.000000 0.000000
# 4 0.000526 -0.000526 0.000000 0.047769 0.000000 0.000000
# 5 0.000000 0.000000 0.000000 0.000000 0.047769 0.001052
# 6 0.000000 0.000000 0.000000 0.000000 0.001052 0.046677
#
#
# Mechanical properties :
#
#
# Convention : Reuss Voigt Hill
#
# Bulk Modulus (GPa) = 59.33241 61.00893 60.17067
# Shear Modulus (GPa) = 21.62134 21.80631 21.71383
#
# Velocity S-wave (km/s) = 3.58513 3.60043 3.59279
# Velocity P-wave (km/s) = 7.23938 7.31792 7.27876
#
# Compressibility (1/GPa) = 0.01685419
#
# Stress axis : x y z
#
# Youngs Moduli (GPa) = 61.65431 61.65431 56.50413
#
# Poissons Ratio (x) = 0.43891 0.26903
# Poissons Ratio (y) = 0.43891 0.26903
# Poissons Ratio (z) = 0.29355 0.29355
#
# Static dielectric constant tensor:
#      x y z
#    x 3.218970 0.000000 0.000000 
#    y 0.000000 3.218970 0.000000 
#    z 0.000000 0.000000 2.918130 
# 
# 
# High freq. dielectric constant tensor:
#      x y z
#    x 1.652260 0.000000 0.000000 
#    y 0.000000 1.652260 0.000000 
#    z 0.000000 0.000000 1.627140 
# 
# From -- ./inp_files/3318.got.cif
#   From: 2010.03.12/outbox.cif.g09.slc.cpg/sg160_2_cif.got.tgz:3318.got - 2010.04.02 06:26:15.
