data_PCOD8322182
_publ_section_title
;
Structure prediction by ZEFSAII (Michael W. Deem and Ramdas Pophale) SiO2 
 PCOD8322182
Probable space group: P 31 2 1
;
_chemical_formula_sum "Si O2"
_cell_formula_units_Z 39
_cell_length_a 8.513283
_cell_length_b 8.513283
_cell_length_c 28.290512
_cell_angle_alpha 90.000000
_cell_angle_beta 90.000000
_cell_angle_gamma 120.000000
_cell_volume 1775.683586
_symmetry_space_group_name_H-M "P 31 2 1"
_symmetry_group_IT_number 152
_symmetry_cell_setting 'hexagonal'
loop_
_space_group_symop_operation_xyz
x,y,z
-y,x-y,1/3+z
-x+y,-x,2/3+z
x-y,-y,2/3-z
-x,-x+y,1/3-z
y,x,-z
loop_
_atom_site_type_symbol
_atom_site_label
_atom_site_fract_x
_atom_site_fract_y
_atom_site_fract_z
Si Si1 0.765658 0.114057 0.011669
Si Si2 0.528086 0.000000 0.833334
Si Si3 0.028789 0.000000 0.833334
Si Si4 0.065741 0.364326 0.497582
Si Si5 0.066405 0.311452 0.089045
Si Si6 0.881094 0.409542 0.582447
Si Si7 0.000000 0.270537 0.666667
Si Si8 0.912016 0.411965 0.934015
O O1 0.938665 0.229323 0.044189
O O2 0.577806 0.072560 0.036776
O O3 0.793035 0.233516 0.965417
O O4 0.749942 0.926132 0.996049
O O5 0.531971 0.814445 0.834283
O O6 0.426220 0.997725 0.785702
O O7 0.839894 0.828202 0.848355
O O8 0.099681 0.949595 0.787282
O O9 0.001321 0.365662 0.443844
O O10 0.984519 0.456271 0.532136
O O11 0.272282 0.429004 0.070884
O O12 0.695926 0.219448 0.578492
O O13 0.004874 0.387764 0.621658
#
# Coordination Sequence:
#
# PCOD8322182 Si02
#       8
#     6   3   3   6   6   6   3   6
#     4  11  26  46  71  98 145 183 239 288 356 422
#     4  10  24  42  74  96 142 178 228 282 358 410
#     4  10  24  42  66 104 138 180 222 298 340 426
#     4  11  25  43  71 100 141 181 235 287 354 413
#     4  11  24  45  70 101 138 180 233 289 352 423
#     4  11  25  44  69 103 138 181 240 283 350 422
#     4  10  26  48  70 100 144 186 232 300 348 424
#     4  11  25  45  70 101 137 191 233 290 349 419
#
# _framework density 21.963374000000002
#
# number of rings (size 3 to 8) (size 9 to 14) (size 15 to 20)
#    0.000    1.231    1.538    2.769   12.923    1.846 
#    5.538    0.000    0.000    0.000    0.000    0.000 
#    0.000    0.000    0.000    0.000    0.000    0.000 
#
# Total GULP energy -483815.087162 kJ/mol
# GULP energy per Si atom -12405.515055 kJ/mol
# Density = 2.191338 g / cm^3
# Si number density = 21.963374 Si / 1000 Ang^3
#
#
#
# Elastic Constant Matrix: (Units=GPa)
#
#
# Indices 1 2 3 4 5 6 
#
# 1 125.6229 25.2999 55.3607 11.7341 -0.0004 0.0000
# 2 25.2999 125.6229 55.3607 -11.7341 0.0004 0.0000
# 3 55.3607 55.3607 141.5805 0.0000 0.0000 0.0000
# 4 11.7341 -11.7341 0.0000 36.5989 0.0000 0.0004
# 5 -0.0004 0.0004 0.0000 0.0000 36.5989 11.7341
# 6 0.0000 0.0000 0.0000 0.0004 11.7341 50.1615
#
#
#
# Elastic Compliance Matrix: (Units=1/GPa)
#
#
# Indices 1 2 3 4 5 6 
#
# 1 0.010034 -0.000742 -0.003633 -0.003455 0.000000 0.000000
# 2 -0.000742 0.010034 -0.003633 0.003455 0.000000 0.000000
# 3 -0.003633 -0.003633 0.009904 0.000000 0.000000 0.000000
# 4 -0.003455 0.003455 0.000000 0.029539 0.000000 0.000000
# 5 0.000000 0.000000 0.000000 0.000000 0.029539 -0.006910
# 6 0.000000 0.000000 0.000000 0.000000 -0.006910 0.021552
#
#
# Mechanical properties :
#
#
# Convention : Reuss Voigt Hill
#
# Bulk Modulus (GPa) = 71.66121 73.87432 72.76776
# Shear Modulus (GPa) = 38.08969 41.79222 39.94096
#
# Velocity S-wave (km/s) = 4.16893 4.36686 4.26904
# Velocity P-wave (km/s) = 7.47474 7.68988 7.58307
#
# Compressibility (1/GPa) = 0.01395455
#
# Stress axis : x y z
#
# Youngs Moduli (GPa) = 99.66510 99.66510 100.96627
#
# Poissons Ratio (x) = 0.07399 0.36681
# Poissons Ratio (y) = 0.07399 0.36681
# Poissons Ratio (z) = 0.36209 0.36209
#
# Static dielectric constant tensor:
#      x y z
#    x 4.084120 0.000000 0.000000 
#    y 0.000000 4.084120 0.000000 
#    z 0.000000 0.000000 4.016960 
# 
# 
# High freq. dielectric constant tensor:
#      x y z
#    x 1.870180 0.000000 0.000000 
#    y 0.000000 1.870180 0.000000 
#    z 0.000000 0.000000 1.869610 
# 
# From -- ./inp_files/3687.got.cif
#   From: 2010.03.12/outbox.cif.g09.slc.cpg/sg152_2_cif.got.tgz:3687.got - 2010.04.03 13:45:27.
