data_PCOD8322650
_publ_section_title
;
Structure prediction by ZEFSAII (Michael W. Deem and Ramdas Pophale) SiO2 
 PCOD8322650
Probable space group: P 3 M 1
;
_chemical_formula_sum "Si O2"
_cell_formula_units_Z 48
_cell_length_a 22.583089
_cell_length_b 22.583089
_cell_length_c 6.755957
_cell_angle_alpha 90.000000
_cell_angle_beta 90.000000
_cell_angle_gamma 120.000000
_cell_volume 2983.899561
_symmetry_space_group_name_H-M "P 3 M 1"
_symmetry_group_IT_number 156
_symmetry_cell_setting 'hexagonal'
loop_
_space_group_symop_operation_xyz
x,y,z
-y,x-y,z
-x+y,-x,z
-x+y,y,z
x,x-y,z
-y,-x,z
loop_
_atom_site_type_symbol
_atom_site_label
_atom_site_fract_x
_atom_site_fract_y
_atom_site_fract_z
Si Si1 0.593184 0.543205 0.987100
Si Si2 0.807056 0.746239 0.845071
Si Si3 0.394150 0.473723 0.254860
Si Si4 0.970733 0.261666 0.445393
Si Si5 0.272951 0.411613 0.989575
Si Si6 0.876539 0.259850 0.112834
Si Si7 0.042401 0.405002 0.654539
Si Si8 0.194672 0.255054 0.110355
O O1 0.537251 0.462750 0.983956
O O2 0.666667 0.552583 0.049966
O O3 0.595993 0.575878 0.772581
O O4 0.576616 0.584210 0.150679
O O5 0.885314 0.770628 0.896761
O O6 0.797004 0.736491 0.610464
O O7 0.756718 0.674261 0.949254
O O8 0.790306 0.802937 0.928922
O O9 0.448020 0.551981 0.203167
O O10 0.393848 0.463671 0.489467
O O11 0.320701 0.456972 0.171012
O O12 0.019042 0.333334 0.549966
O O13 0.909212 0.262660 0.327351
O O14 0.015756 0.242181 0.305848
O O15 0.217147 0.434293 0.947976
O O16 0.317579 0.424488 0.794084
O O17 0.238203 0.333333 0.049961
O O18 0.796084 0.203917 0.115981
O O19 0.116187 0.232374 0.151955
#
# Coordination Sequence:
#
# PCOD8322650 Si02
#       8
#     6   6   6   6   6   6   6   6
#     4  10  19  31  47  70  98 128 161 197 237 285
#     4  10  19  32  50  70  97 129 160 196 238 283
#     4  10  19  32  50  70  97 129 160 196 238 283
#     4  11  17  30  48  72 100 125 155 190 236 287
#     4  10  20  32  48  73 101 128 157 193 239 289
#     4  10  19  31  47  70  98 128 161 197 237 285
#     4  11  17  30  48  72 100 125 155 190 236 287
#     4  10  20  32  48  73 101 128 157 193 239 289
#
# _framework density 16.086331999999999
#
# number of rings (size 3 to 8) (size 9 to 14) (size 15 to 20)
#    0.000    1.750    5.000    2.250    0.000    2.500 
#    0.000    0.000    0.000    0.750    0.000    1.750 
#    0.000    1.000    0.000    0.000    0.000    0.000 
#
# Total GULP energy -595261.765597 kJ/mol
# GULP energy per Si atom -12401.286783 kJ/mol
# Density = 1.604972 g / cm^3
# Si number density = 16.086332 Si / 1000 Ang^3
#
#
#
# Elastic Constant Matrix: (Units=GPa)
#
#
# Indices 1 2 3 4 5 6 
#
# 1 87.9572 46.6679 31.2545 2.4070 -0.0002 0.0000
# 2 46.6679 87.9572 31.2545 -2.4070 0.0002 0.0000
# 3 31.2545 31.2545 103.2446 0.0000 0.0000 0.0000
# 4 2.4070 -2.4070 0.0000 16.7067 0.0000 0.0002
# 5 -0.0002 0.0002 0.0000 0.0000 16.7067 2.4070
# 6 0.0000 0.0000 0.0000 0.0002 2.4070 20.6447
#
#
#
# Elastic Compliance Matrix: (Units=1/GPa)
#
#
# Indices 1 2 3 4 5 6 
#
# 1 0.016638 -0.007995 -0.002616 -0.003549 0.000000 0.000000
# 2 -0.007995 0.016638 -0.002616 0.003549 0.000000 0.000000
# 3 -0.002616 -0.002616 0.011270 0.000000 0.000000 0.000000
# 4 -0.003549 0.003549 0.000000 0.060879 0.000000 -0.000001
# 5 0.000000 0.000000 0.000000 0.000000 0.060879 -0.007098
# 6 0.000000 0.000000 0.000000 -0.000001 -0.007098 0.049266
#
#
# Mechanical properties :
#
#
# Convention : Reuss Voigt Hill
#
# Bulk Modulus (GPa) = 55.27919 55.27920 55.27920
# Shear Modulus (GPa) = 20.15679 22.14377 21.15028
#
# Velocity S-wave (km/s) = 3.54367 3.71422 3.62995
# Velocity P-wave (km/s) = 7.15417 7.26861 7.21161
#
# Compressibility (1/GPa) = 0.01808999
#
# Stress axis : x y z
#
# Youngs Moduli (GPa) = 60.10343 60.10343 88.73251
#
# Poissons Ratio (x) = 0.48053 0.23216
# Poissons Ratio (y) = 0.48053 0.23216
# Poissons Ratio (z) = 0.15725 0.15725
#
# Static dielectric constant tensor:
#      x y z
#    x 2.933430 0.000000 0.000000 
#    y 0.000000 2.933430 0.000000 
#    z 0.000000 0.000000 3.261980 
# 
# 
# High freq. dielectric constant tensor:
#      x y z
#    x 1.595880 0.000000 0.000000 
#    y 0.000000 1.595880 0.000000 
#    z 0.000000 0.000000 1.634090 
# 
# From -- ./inp_files/254.got.cif
#   From: 2010.03.12/outbox.cif.g09.slc.cpg/sg156_cif.got.tgz:254.got - 2010.04.03 13:58:47.
