data_PCOD8322721
_publ_section_title
;
Structure prediction by ZEFSAII (Michael W. Deem and Ramdas Pophale) SiO2 
 PCOD8322721
Probable space group: P 3 1 M
;
_chemical_formula_sum "Si O2"
_cell_formula_units_Z 42
_cell_length_a 14.113273
_cell_length_b 14.113273
_cell_length_c 11.580168
_cell_angle_alpha 90.000000
_cell_angle_beta 90.000000
_cell_angle_gamma 120.000000
_cell_volume 1997.565260
_symmetry_space_group_name_H-M "P 3 1 M"
_symmetry_group_IT_number 157
_symmetry_cell_setting 'hexagonal'
loop_
_space_group_symop_operation_xyz
x,y,z
-y,x-y,z
-x+y,-x,z
y,x,z
x-y,-y,z
-x,-x+y,z
loop_
_atom_site_type_symbol
_atom_site_label
_atom_site_fract_x
_atom_site_fract_y
_atom_site_fract_z
Si Si1 0.464146 0.335405 0.945080
Si Si2 0.535207 0.720793 0.580369
Si Si3 0.396520 0.520547 0.443805
Si Si4 0.871355 0.550098 0.202632
Si Si5 0.668197 0.538179 0.833852
Si Si6 0.247167 0.124502 0.265298
Si Si7 0.883028 0.763464 0.531219
O O1 0.365369 0.365369 0.934751
O O2 0.572918 0.427553 0.886984
O O3 0.426431 0.213403 0.893551
O O4 0.505524 0.344310 0.077893
O O5 0.505340 0.632041 0.478792
O O6 0.492437 0.802110 0.541409
O O7 0.494896 0.667329 0.704748
O O8 0.665117 0.788181 0.600797
O O9 0.419514 0.419514 0.452467
O O10 0.359111 0.531977 0.313460
O O11 0.827708 0.636260 0.203029
O O12 0.000000 0.617297 0.219019
O O13 0.634665 0.634665 0.841302
O O14 0.160108 0.160108 0.224537
O O15 0.274122 0.151318 0.399732
O O16 0.200895 0.000000 0.231613
O O17 0.869395 0.869395 0.536338
O O18 0.000000 0.796386 0.586172
#
# Coordination Sequence:
#
# PCOD8322721 Si02
#       7
#     6   6   6   6   6   6   6
#     4  10  23  44  68  91 122 165 210 265 322 365
#     4  12  23  38  60  88 120 159 204 247 303 366
#     4  11  23  40  61  89 125 157 193 248 309 368
#     4   9  19  38  60  86 120 157 199 246 304 372
#     4  11  24  42  65  94 122 162 219 264 307 373
#     4   9  16  29  52  85 124 162 197 234 287 360
#     4  10  19  33  54  85 123 162 197 236 290 358
#
# _framework density 21.025596
#
# number of rings (size 3 to 8) (size 9 to 14) (size 15 to 20)
#    0.000    1.714    1.429    3.429    0.000    5.143 
#    0.000    0.000    0.000    0.286    0.000    0.000 
#    0.000    0.000    0.000    0.000    0.000    0.000 
#
# Total GULP energy -520376.058041 kJ/mol
# GULP energy per Si atom -12389.906144 kJ/mol
# Density = 2.097774 g / cm^3
# Si number density = 21.025596 Si / 1000 Ang^3
#
#
#
# Elastic Constant Matrix: (Units=GPa)
#
#
# Indices 1 2 3 4 5 6 
#
# 1 100.1147 40.0836 59.1843 0.0000 6.1271 0.0000
# 2 40.0836 100.1147 59.1843 0.0000 -6.1271 0.0000
# 3 59.1843 59.1843 141.2579 0.0000 0.0000 0.0000
# 4 0.0000 0.0000 0.0000 28.4949 0.0000 -6.1271
# 5 6.1271 -6.1271 0.0000 0.0000 28.4949 0.0000
# 6 0.0000 0.0000 0.0000 -6.1271 0.0000 30.0156
#
#
#
# Elastic Compliance Matrix: (Units=1/GPa)
#
#
# Indices 1 2 3 4 5 6 
#
# 1 0.014230 -0.003193 -0.004624 0.000000 -0.003746 0.000000
# 2 -0.003193 0.014230 -0.004624 0.000000 0.003746 0.000000
# 3 -0.004624 -0.004624 0.010954 0.000000 0.000000 0.000000
# 4 0.000000 0.000000 0.000000 0.036705 0.000000 0.007493
# 5 -0.003746 0.003746 0.000000 0.000000 0.036705 0.000000
# 6 0.000000 0.000000 0.000000 0.007493 0.000000 0.034846
#
#
# Mechanical properties :
#
#
# Convention : Reuss Voigt Hill
#
# Bulk Modulus (GPa) = 68.81796 73.15462 70.98629
# Shear Modulus (GPa) = 28.18546 29.60342 28.89444
#
# Velocity S-wave (km/s) = 3.66530 3.75636 3.71111
# Velocity P-wave (km/s) = 7.12139 7.32682 7.22484
#
# Compressibility (1/GPa) = 0.01453109
#
# Stress axis : x y z
#
# Youngs Moduli (GPa) = 70.27457 70.27457 91.28896
#
# Poissons Ratio (x) = 0.22438 0.42215
# Poissons Ratio (y) = 0.22438 0.42215
# Poissons Ratio (z) = 0.32497 0.32497
#
# Static dielectric constant tensor:
#      x y z
#    x 3.870680 0.000000 0.000000 
#    y 0.000000 3.870680 0.000000 
#    z 0.000000 0.000000 3.922090 
# 
# 
# High freq. dielectric constant tensor:
#      x y z
#    x 1.823050 0.000000 0.000000 
#    y 0.000000 1.823050 0.000000 
#    z 0.000000 0.000000 1.808560 
# 
# From -- ./inp_files/570.got.cif
#   From: 2010.03.12/outbox.cif.g09.slc.cpg/sg157_cif.got.tgz:570.got - 2010.04.03 13:59:21.
