data_PCOD8322720
_publ_section_title
;
Structure prediction by ZEFSAII (Michael W. Deem and Ramdas Pophale) SiO2 
 PCOD8322720
Probable space group: P 3 1 M
;
_chemical_formula_sum "Si O2"
_cell_formula_units_Z 42
_cell_length_a 14.496691
_cell_length_b 14.496691
_cell_length_c 12.747026
_cell_angle_alpha 90.000000
_cell_angle_beta 90.000000
_cell_angle_gamma 120.000000
_cell_volume 2319.942747
_symmetry_space_group_name_H-M "P 3 1 M"
_symmetry_group_IT_number 157
_symmetry_cell_setting 'hexagonal'
loop_
_space_group_symop_operation_xyz
x,y,z
-y,x-y,z
-x+y,-x,z
y,x,z
x-y,-y,z
-x,-x+y,z
loop_
_atom_site_type_symbol
_atom_site_label
_atom_site_fract_x
_atom_site_fract_y
_atom_site_fract_z
Si Si1 0.796022 0.584264 0.800570
Si Si2 0.875508 0.748480 0.990046
Si Si3 0.876668 0.752546 0.625926
Si Si4 0.644883 0.767135 0.193830
Si Si5 0.548846 0.121967 0.859569
Si Si6 0.123371 0.876096 0.388490
Si Si7 0.788892 0.346136 0.083399
O O1 0.841433 0.665385 0.896349
O O2 0.850866 0.650613 0.696014
O O3 0.817987 0.486743 0.818095
O O4 0.668424 0.529207 0.781888
O O5 0.811115 0.811115 0.980806
O O6 0.000000 0.833107 0.984053
O O7 0.850343 0.680420 0.097394
O O8 0.805608 0.805608 0.658656
O O9 0.852864 0.708727 0.506928
O O10 0.000000 0.842836 0.638475
O O11 0.729228 0.729228 0.198175
O O12 0.652761 0.820852 0.307181
O O13 0.527743 0.664747 0.170914
O O14 0.515342 0.000000 0.872301
O O15 0.524851 0.164937 0.967270
O O16 0.000000 0.813981 0.361321
O O17 0.163459 0.000000 0.372672
O O18 0.766661 0.443677 0.098470
#
# Coordination Sequence:
#
# PCOD8322720 Si02
#       7
#     6   6   6   6   6   6   6
#     4  12  23  37  54  82 109 141 189 233 276 333
#     4  11  21  33  50  79 117 149 174 210 270 339
#     4  10  20  36  58  85 116 149 184 225 275 335
#     4  10  19  33  54  79 109 144 182 224 271 325
#     4  12  21  35  56  77 108 147 185 231 279 322
#     4   9  18  33  56  82 112 147 184 222 266 327
#     4  10  19  35  54  76 104 137 184 231 271 325
#
# _framework density 18.103897
#
# number of rings (size 3 to 8) (size 9 to 14) (size 15 to 20)
#    0.286    1.143    2.857    4.143    0.000    1.143 
#    0.000    5.000    3.143    0.000    0.000    0.000 
#    0.000    0.000    0.000    0.000    0.000    0.000 
#
# Total GULP energy -520493.327641 kJ/mol
# GULP energy per Si atom -12392.698277 kJ/mol
# Density = 1.806269 g / cm^3
# Si number density = 18.103897 Si / 1000 Ang^3
#
#
#
# Elastic Constant Matrix: (Units=GPa)
#
#
# Indices 1 2 3 4 5 6 
#
# 1 76.1746 11.0646 42.2352 0.0000 -5.1400 0.0000
# 2 11.0646 76.1746 42.2352 0.0000 5.1400 0.0000
# 3 42.2352 42.2352 115.7266 0.0000 0.0000 0.0000
# 4 0.0000 0.0000 0.0000 23.2697 0.0000 5.1400
# 5 -5.1400 5.1400 0.0000 0.0000 23.2697 0.0000
# 6 0.0000 0.0000 0.0000 5.1400 0.0000 32.5550
#
#
#
# Elastic Compliance Matrix: (Units=1/GPa)
#
#
# Indices 1 2 3 4 5 6 
#
# 1 0.016820 0.000907 -0.006470 0.000000 0.003515 0.000000
# 2 0.000907 0.016820 -0.006470 0.000000 -0.003515 0.000000
# 3 -0.006470 -0.006470 0.013363 0.000000 0.000000 0.000000
# 4 0.000000 0.000000 0.000000 0.044527 0.000000 -0.007030
# 5 0.003515 -0.003515 0.000000 0.000000 0.044527 0.000000
# 6 0.000000 0.000000 0.000000 -0.007030 0.000000 0.031827
#
#
# Mechanical properties :
#
#
# Convention : Reuss Voigt Hill
#
# Bulk Modulus (GPa) = 43.59402 51.01620 47.30511
# Shear Modulus (GPa) = 25.05052 27.32161 26.18606
#
# Velocity S-wave (km/s) = 3.72386 3.88900 3.80733
# Velocity P-wave (km/s) = 6.52853 6.95749 6.74642
#
# Compressibility (1/GPa) = 0.02293892
#
# Stress axis : x y z
#
# Youngs Moduli (GPa) = 59.45201 59.45201 74.83187
#
# Poissons Ratio (x) = -0.05390 0.48413
# Poissons Ratio (y) = -0.05390 0.48413
# Poissons Ratio (z) = 0.38463 0.38463
#
# Static dielectric constant tensor:
#      x y z
#    x 3.337970 0.000000 0.000000 
#    y 0.000000 3.337970 0.000000 
#    z 0.000000 0.000000 3.491170 
# 
# 
# High freq. dielectric constant tensor:
#      x y z
#    x 1.699370 0.000000 0.000000 
#    y 0.000000 1.699370 0.000000 
#    z 0.000000 0.000000 1.685610 
# 
# From -- ./inp_files/572.got.cif
#   From: 2010.03.12/outbox.cif.g09.slc.cpg/sg157_cif.got.tgz:572.got - 2010.04.03 13:59:21.
