data_PCOD8322734
_publ_section_title
;
Structure prediction by ZEFSAII (Michael W. Deem and Ramdas Pophale) SiO2 
 PCOD8322734
Probable space group: P 3 1 M
;
_chemical_formula_sum "Si O2"
_cell_formula_units_Z 42
_cell_length_a 14.562561
_cell_length_b 14.562561
_cell_length_c 11.681713
_cell_angle_alpha 90.000000
_cell_angle_beta 90.000000
_cell_angle_gamma 120.000000
_cell_volume 2145.421749
_symmetry_space_group_name_H-M "P 3 1 M"
_symmetry_group_IT_number 157
_symmetry_cell_setting 'hexagonal'
loop_
_space_group_symop_operation_xyz
x,y,z
-y,x-y,z
-x+y,-x,z
y,x,z
x-y,-y,z
-x,-x+y,z
loop_
_atom_site_type_symbol
_atom_site_label
_atom_site_fract_x
_atom_site_fract_y
_atom_site_fract_z
Si Si1 0.251980 0.721487 0.718930
Si Si2 0.695271 0.121662 0.935973
Si Si3 0.778263 0.218966 0.476400
Si Si4 0.120805 0.542594 0.108148
Si Si5 0.122960 0.557616 0.362908
Si Si6 0.669772 0.788860 0.086740
Si Si7 0.122609 0.876926 0.329747
O O1 0.213599 0.595004 0.717846
O O2 0.199263 0.743055 0.828057
O O3 0.213881 0.764241 0.612790
O O4 0.614510 0.000000 0.898422
O O5 0.639078 0.170783 0.017249
O O6 0.793741 0.122887 0.003141
O O7 0.666323 0.193257 0.426935
O O8 0.866517 0.333159 0.429280
O O9 0.813872 0.135529 0.436293
O O10 0.170609 0.575858 0.234495
O O11 0.130804 0.444326 0.064438
O O12 0.000000 0.512781 0.119978
O O13 0.000000 0.524376 0.363643
O O14 0.763116 0.763116 0.055654
O O15 0.681536 0.825629 0.218060
O O16 0.000000 0.834724 0.305852
O O17 0.178378 0.000000 0.360664
#
# Coordination Sequence:
#
# PCOD8322734 Si02
#       7
#     6   6   6   6   6   6   6
#     4  10  22  42  58  82 120 160 206 247 294 368
#     4  11  22  37  59  88 119 157 207 255 305 363
#     4  12  21  39  60  86 119 161 203 252 303 369
#     4   9  19  34  53  84 118 150 191 243 305 367
#     4  11  21  36  57  86 121 152 194 249 302 367
#     4  10  20  38  59  84 121 158 199 251 311 376
#     4  11  23  40  63  92 126 164 207 257 313 370
#
# _framework density 19.576571000000001
#
# number of rings (size 3 to 8) (size 9 to 14) (size 15 to 20)
#    0.286    1.143    2.857    3.429    0.000    2.286 
#    0.857    1.429    0.000    0.286    0.000    0.000 
#    0.000    0.000    0.000    0.000    0.000    0.000 
#
# Total GULP energy -520746.333240 kJ/mol
# GULP energy per Si atom -12398.722220 kJ/mol
# Density = 1.953201 g / cm^3
# Si number density = 19.576571 Si / 1000 Ang^3
#
#
#
# Elastic Constant Matrix: (Units=GPa)
#
#
# Indices 1 2 3 4 5 6 
#
# 1 70.5498 16.6737 35.5269 0.0000 -0.3260 0.0000
# 2 16.6737 70.5498 35.5269 0.0000 0.3260 0.0000
# 3 35.5269 35.5269 132.3444 0.0000 0.0000 0.0000
# 4 0.0000 0.0000 0.0000 21.3326 0.0000 0.3260
# 5 -0.3260 0.3260 0.0000 0.0000 21.3326 0.0000
# 6 0.0000 0.0000 0.0000 0.3260 0.0000 26.9381
#
#
#
# Elastic Compliance Matrix: (Units=1/GPa)
#
#
# Indices 1 2 3 4 5 6 
#
# 1 0.016619 -0.001945 -0.003939 0.000000 0.000284 0.000000
# 2 -0.001945 0.016619 -0.003939 0.000000 -0.000284 0.000000
# 3 -0.003939 -0.003939 0.009671 0.000000 0.000000 0.000000
# 4 0.000000 0.000000 0.000000 0.046885 0.000000 -0.000567
# 5 0.000284 -0.000284 0.000000 0.000000 0.046885 0.000000
# 6 0.000000 0.000000 0.000000 -0.000567 0.000000 0.037129
#
#
# Mechanical properties :
#
#
# Convention : Reuss Voigt Hill
#
# Bulk Modulus (GPa) = 42.98867 49.87766 46.43316
# Shear Modulus (GPa) = 24.84973 26.30177 25.57575
#
# Velocity S-wave (km/s) = 3.56667 3.66940 3.61840
# Velocity P-wave (km/s) = 6.24247 6.59441 6.42085
#
# Compressibility (1/GPa) = 0.02326194
#
# Stress axis : x y z
#
# Youngs Moduli (GPa) = 60.17189 60.17189 103.40366
#
# Poissons Ratio (x) = 0.11706 0.40731
# Poissons Ratio (y) = 0.11706 0.40731
# Poissons Ratio (z) = 0.23702 0.23702
#
# Static dielectric constant tensor:
#      x y z
#    x 3.434580 0.000000 0.000000 
#    y 0.000000 3.434580 0.000000 
#    z 0.000000 0.000000 3.488460 
# 
# 
# High freq. dielectric constant tensor:
#      x y z
#    x 1.753440 0.000000 0.000000 
#    y 0.000000 1.753440 0.000000 
#    z 0.000000 0.000000 1.751770 
# 
# From -- ./inp_files/583.got.cif
#   From: 2010.03.12/outbox.cif.g09.slc.cpg/sg157_cif.got.tgz:583.got - 2010.04.03 13:59:21.
