data_PCOD8322300
_publ_section_title
;
Structure prediction by ZEFSAII (Michael W. Deem and Ramdas Pophale) SiO2 
 PCOD8322300
Probable space group: P 32 2 1
;
_chemical_formula_sum "Si O2"
_cell_formula_units_Z 42
_cell_length_a 9.945606
_cell_length_b 9.945606
_cell_length_c 24.837839
_cell_angle_alpha 90.000000
_cell_angle_beta 90.000000
_cell_angle_gamma 120.000000
_cell_volume 2127.683081
_symmetry_space_group_name_H-M "P 32 2 1"
_symmetry_group_IT_number 154
_symmetry_cell_setting 'hexagonal'
loop_
_space_group_symop_operation_xyz
x,y,z
-y,x-y,2/3+z
-x+y,-x,1/3+z
x-y,-y,1/3-z
-x,-x+y,2/3-z
y,x,-z
loop_
_atom_site_type_symbol
_atom_site_label
_atom_site_fract_x
_atom_site_fract_y
_atom_site_fract_z
Si Si1 0.392032 0.442895 0.334798
Si Si2 0.400746 0.267838 0.778953
Si Si3 0.386299 0.995387 0.839580
Si Si4 0.645883 0.772871 0.342088
Si Si5 0.027703 0.151999 0.580255
Si Si6 0.899715 0.631149 0.881179
Si Si7 0.871102 0.809076 0.553458
O O1 0.269598 0.414827 0.286676
O O2 0.542202 0.602630 0.319428
O O3 0.441903 0.312123 0.333549
O O4 0.338321 0.454098 0.395234
O O5 0.461779 0.156406 0.804228
O O6 0.484181 0.443155 0.803008
O O7 0.217963 0.185097 0.792049
O O8 0.288611 0.017388 0.886772
O O9 0.276163 0.846466 0.803252
O O10 0.808784 0.859195 0.310376
O O11 0.676669 0.765932 0.404786
O O12 0.184577 0.170726 0.555679
O O13 0.897998 0.974849 0.573315
O O14 0.000000 0.605197 0.833334
O O15 0.767722 0.767722 0.500000
#
# Coordination Sequence:
#
# PCOD8322300 Si02
#       7
#     6   6   6   6   6   6   6
#     4  10  22  40  58  90 129 160 208 258 317 372
#     4  11  23  39  64  93 126 168 203 264 316 378
#     4  11  21  38  63  90 126 161 207 253 323 368
#     4  10  22  37  61  88 121 167 201 259 314 368
#     4  10  17  39  65  85 115 163 212 252 296 374
#     4   9  19  36  66  90 113 167 218 252 298 389
#     4  11  20  37  62  91 117 153 218 261 293 367
#
# _framework density 19.739782999999999
#
# number of rings (size 3 to 8) (size 9 to 14) (size 15 to 20)
#    0.000    1.714    4.286    0.857    0.000    3.429 
#    2.571    0.000    0.000    1.714    0.000    0.000 
#    0.000    0.000    0.000    0.000    0.000    0.000 
#
# Total GULP energy -520485.279709 kJ/mol
# GULP energy per Si atom -12392.506660 kJ/mol
# Density = 1.969485 g / cm^3
# Si number density = 19.739783 Si / 1000 Ang^3
#
#
#
# Elastic Constant Matrix: (Units=GPa)
#
#
# Indices 1 2 3 4 5 6 
#
# 1 78.4348 36.5860 35.1114 -2.1583 0.0000 0.0000
# 2 36.5860 78.4348 35.1114 2.1583 0.0000 0.0000
# 3 35.1114 35.1114 132.7195 0.0000 0.0000 0.0000
# 4 -2.1583 2.1583 0.0000 20.6125 0.0000 0.0000
# 5 0.0000 0.0000 0.0000 0.0000 20.6125 -2.1583
# 6 0.0000 0.0000 0.0000 0.0000 -2.1583 20.9244
#
#
#
# Elastic Compliance Matrix: (Units=1/GPa)
#
#
# Indices 1 2 3 4 5 6 
#
# 1 0.017263 -0.006894 -0.002743 0.002529 0.000000 0.000000
# 2 -0.006894 0.017263 -0.002743 -0.002529 0.000000 0.000000
# 3 -0.002743 -0.002743 0.008986 0.000000 0.000000 0.000000
# 4 0.002529 -0.002529 0.000000 0.049044 0.000000 0.000000
# 5 0.000000 0.000000 0.000000 0.000000 0.049044 0.005059
# 6 0.000000 0.000000 0.000000 0.000000 0.005059 0.048313
#
#
# Mechanical properties :
#
#
# Convention : Reuss Voigt Hill
#
# Bulk Modulus (GPa) = 53.32968 55.91184 54.62076
# Shear Modulus (GPa) = 22.63237 24.61524 23.62380
#
# Velocity S-wave (km/s) = 3.38973 3.53510 3.46318
# Velocity P-wave (km/s) = 6.51117 6.71182 6.61226
#
# Compressibility (1/GPa) = 0.01875128
#
# Stress axis : x y z
#
# Youngs Moduli (GPa) = 57.92871 57.92871 111.28321
#
# Poissons Ratio (x) = 0.39935 0.30526
# Poissons Ratio (y) = 0.39935 0.30526
# Poissons Ratio (z) = 0.15890 0.15890
#
# Static dielectric constant tensor:
#      x y z
#    x 3.333700 0.000000 0.000000 
#    y 0.000000 3.333700 0.000000 
#    z 0.000000 0.000000 3.929850 
# 
# 
# High freq. dielectric constant tensor:
#      x y z
#    x 1.746310 0.000000 0.000000 
#    y 0.000000 1.746310 0.000000 
#    z 0.000000 0.000000 1.794440 
# 
# From -- ./inp_files/3796.got.cif
#   From: 2010.03.12/outbox.cif.g09.slc.cpg/sg154_2_cif.got.tgz:3796.got - 2010.04.03 13:51:21.
