data_PCOD8322251
_publ_section_title
;
Structure prediction by ZEFSAII (Michael W. Deem and Ramdas Pophale) SiO2 
 PCOD8322251
Probable space group: P 32 1 2
;
_chemical_formula_sum "Si O2"
_cell_formula_units_Z 39
_cell_length_a 8.466966
_cell_length_b 8.466966
_cell_length_c 29.347203
_cell_angle_alpha 90.000000
_cell_angle_beta 90.000000
_cell_angle_gamma 120.000000
_cell_volume 1822.019327
_symmetry_space_group_name_H-M "P 32 1 2"
_symmetry_group_IT_number 153
_symmetry_cell_setting 'hexagonal'
loop_
_space_group_symop_operation_xyz
x,y,z
-y,x-y,2/3+z
-x+y,-x,1/3+z
-y,-x,1/3-z
-x+y,y,2/3-z
x,x-y,-z
loop_
_atom_site_type_symbol
_atom_site_label
_atom_site_fract_x
_atom_site_fract_y
_atom_site_fract_z
Si Si1 0.865647 0.669787 0.284842
Si Si2 0.600406 0.513547 0.073957
Si Si3 0.903374 0.462078 0.907133
Si Si4 0.136925 0.750365 0.768295
Si Si5 0.697327 0.132824 0.026970
Si Si6 0.847688 0.695376 0.833334
Si Si7 0.597179 0.823241 0.551766
O O1 0.887883 0.775765 0.333334
O O2 0.665214 0.600893 0.263588
O O3 0.866535 0.486978 0.296653
O O4 0.025363 0.791179 0.248987
O O5 0.739089 0.480040 0.103751
O O6 0.562230 0.655782 0.099933
O O7 0.709971 0.598840 0.026677
O O8 0.865224 0.540339 0.954240
O O9 0.897165 0.575362 0.865240
O O10 0.097477 0.469769 0.908864
O O11 0.130820 0.565061 0.783492
O O12 0.040053 0.726037 0.719400
O O13 0.030328 0.811622 0.803703
O O14 0.667131 0.833566 0.500000
#
# Coordination Sequence:
#
# PCOD8322251 Si02
#       7
#     6   6   6   6   6   3   6
#     4   8  17  36  60  87 122 163 208 256 317 383
#     4  10  19  37  61  92 113 162 208 260 318 384
#     4  10  20  36  60  85 120 166 206 256 312 381
#     4  10  20  37  61  91 123 160 208 263 321 379
#     4   8  17  36  63  85 120 155 208 252 314 380
#     4  10  20  40  56  82 124 178 204 252 314 390
#     4  11  21  38  60  90 128 168 214 266 318 398
#
# _framework density 21.404824999999999
#
# number of rings (size 3 to 8) (size 9 to 14) (size 15 to 20)
#    0.000    2.462    1.538    2.769    0.000    0.000 
#    2.769   13.846    0.000    0.000    0.000    0.000 
#    0.000    0.000    0.000    0.000    0.000    0.000 
#
# Total GULP energy -483344.043054 kJ/mol
# GULP energy per Si atom -12393.437001 kJ/mol
# Density = 2.135611 g / cm^3
# Si number density = 21.404825 Si / 1000 Ang^3
#
#
#
# Elastic Constant Matrix: (Units=GPa)
#
#
# Indices 1 2 3 4 5 6 
#
# 1 90.8440 21.2125 36.6853 -0.0003 2.2723 0.0000
# 2 21.2125 90.8440 36.6853 0.0003 -2.2723 0.0000
# 3 36.6853 36.6853 104.7025 0.0000 0.0000 0.0000
# 4 -0.0003 0.0003 0.0000 20.2055 0.0000 -2.2723
# 5 2.2723 -2.2723 0.0000 0.0000 20.2055 -0.0003
# 6 0.0000 0.0000 0.0000 -2.2723 -0.0003 34.8158
#
#
#
# Elastic Compliance Matrix: (Units=1/GPa)
#
#
# Indices 1 2 3 4 5 6 
#
# 1 0.013024 -0.001443 -0.004058 0.000000 -0.001627 0.000000
# 2 -0.001443 0.013024 -0.004058 0.000000 0.001627 0.000000
# 3 -0.004058 -0.004058 0.012394 0.000000 0.000000 0.000000
# 4 0.000000 0.000000 0.000000 0.049857 0.000000 0.003254
# 5 -0.001627 0.001627 0.000000 0.000000 0.049857 0.000000
# 6 0.000000 0.000000 0.000000 0.003254 0.000000 0.028935
#
#
# Mechanical properties :
#
#
# Convention : Reuss Voigt Hill
#
# Bulk Modulus (GPa) = 51.74541 52.83962 52.29251
# Shear Modulus (GPa) = 25.95357 27.83251 26.89304
#
# Velocity S-wave (km/s) = 3.48589 3.60987 3.54842
# Velocity P-wave (km/s) = 6.35838 6.48955 6.42430
#
# Compressibility (1/GPa) = 0.01932539
#
# Stress axis : x y z
#
# Youngs Moduli (GPa) = 76.78021 76.78021 80.68230
#
# Poissons Ratio (x) = 0.11082 0.32738
# Poissons Ratio (y) = 0.11082 0.32738
# Poissons Ratio (z) = 0.31155 0.31155
#
# Static dielectric constant tensor:
#      x y z
#    x 3.832980 0.000000 0.000000 
#    y 0.000000 3.832980 0.000000 
#    z 0.000000 0.000000 4.187950 
# 
# 
# High freq. dielectric constant tensor:
#      x y z
#    x 1.822310 0.000000 0.000000 
#    y 0.000000 1.822310 0.000000 
#    z 0.000000 0.000000 1.842000 
# 
# From -- ./inp_files/5087.got.cif
#   From: 2010.03.12/outbox.cif.g09.slc.cpg/sg153_3_cif.got.tgz:5087.got - 2010.04.03 13:48:33.
