data_PCOD8322777
_publ_section_title
;
Structure prediction by ZEFSAII (Michael W. Deem and Ramdas Pophale) SiO2 
 PCOD8322777
Probable space group: P 3 C 1
;
_chemical_formula_sum "Si O2"
_cell_formula_units_Z 48
_cell_length_a 24.569927
_cell_length_b 24.569927
_cell_length_c 5.219534
_cell_angle_alpha 90.000000
_cell_angle_beta 90.000000
_cell_angle_gamma 120.000000
_cell_volume 2728.789875
_symmetry_space_group_name_H-M "P 3 C 1"
_symmetry_group_IT_number 158
_symmetry_cell_setting 'hexagonal'
loop_
_space_group_symop_operation_xyz
x,y,z
-y,x-y,z
-x+y,-x,z
-x+y,y,1/2+z
x,x-y,1/2+z
-y,-x,1/2+z
loop_
_atom_site_type_symbol
_atom_site_label
_atom_site_fract_x
_atom_site_fract_y
_atom_site_fract_z
Si Si1 0.762841 0.474864 0.807960
Si Si2 0.852445 0.895968 0.942856
Si Si3 0.848324 0.081167 0.472730
Si Si4 0.381976 0.214223 0.797220
Si Si5 0.518668 0.412657 0.840685
Si Si6 0.663889 0.040994 0.919067
Si Si7 0.703695 0.823736 0.924711
Si Si8 0.999658 0.698311 0.427800
O O1 0.728386 0.441615 0.541405
O O2 0.776874 0.546173 0.765734
O O3 0.824456 0.470928 0.864772
O O4 0.880824 0.942306 0.188005
O O5 0.778123 0.866601 0.939252
O O6 0.869737 0.840897 0.954609
O O7 0.867149 0.114847 0.751307
O O8 0.773126 0.047851 0.441914
O O9 0.348654 0.187680 0.520381
O O10 0.379267 0.273386 0.884882
O O11 0.536909 0.439917 0.555166
O O12 0.446941 0.394743 0.888575
O O13 0.663862 0.996195 0.695532
O O14 0.665128 0.017428 0.202966
O O15 0.675359 0.829757 0.194216
O O16 0.682974 0.752373 0.868077
#
# Coordination Sequence:
#
# PCOD8322777 Si02
#       8
#     6   6   6   6   6   6   6   6
#     4   9  17  31  50  69  87 109 146 195 239 282
#     4   9  17  31  50  65  82 115 154 187 223 272
#     4  11  22  34  49  72 100 126 155 196 248 308
#     4   9  17  28  43  62  85 117 149 176 220 286
#     4  11  22  37  56  75  97 129 166 199 241 304
#     4  11  22  34  49  72 100 126 155 196 242 288
#     4   9  17  31  50  69  87 114 152 187 223 272
#     4  11  22  34  49  72 100 126 155 196 248 294
#
# _framework density 17.590216999999999
#
# number of rings (size 3 to 8) (size 9 to 14) (size 15 to 20)
#    0.000    2.000    0.000    4.500    0.000   11.000 
#    0.000    0.000    0.000   10.000    0.000    0.000 
#    0.000    0.000    0.000    0.000    0.000    0.000 
#
# Total GULP energy -595112.062837 kJ/mol
# GULP energy per Si atom -12398.167976 kJ/mol
# Density = 1.755018 g / cm^3
# Si number density = 17.590217 Si / 1000 Ang^3
#
#
#
# Elastic Constant Matrix: (Units=GPa)
#
#
# Indices 1 2 3 4 5 6 
#
# 1 51.9405 12.1395 22.5453 -3.4022 0.0000 0.0000
# 2 12.1395 51.9405 22.5453 3.4022 0.0000 0.0000
# 3 22.5453 22.5453 140.7389 0.0000 0.0000 0.0000
# 4 -3.4022 3.4022 0.0000 25.0432 0.0000 0.0000
# 5 0.0000 0.0000 0.0000 0.0000 25.0432 -3.4022
# 6 0.0000 0.0000 0.0000 0.0000 -3.4022 19.9005
#
#
#
# Elastic Compliance Matrix: (Units=1/GPa)
#
#
# Indices 1 2 3 4 5 6 
#
# 1 0.021655 -0.004067 -0.002817 0.003494 0.000000 0.000000
# 2 -0.004067 0.021655 -0.002817 -0.003494 0.000000 0.000000
# 3 -0.002817 -0.002817 0.008008 0.000000 0.000000 0.000000
# 4 0.003494 -0.003494 0.000000 0.040880 0.000000 0.000000
# 5 0.000000 0.000000 0.000000 0.000000 0.040880 0.006989
# 6 0.000000 0.000000 0.000000 0.000000 0.006989 0.051445
#
#
# Mechanical properties :
#
#
# Convention : Reuss Voigt Hill
#
# Bulk Modulus (GPa) = 31.33399 39.89777 35.61588
# Shear Modulus (GPa) = 23.30281 26.49004 24.89643
#
# Velocity S-wave (km/s) = 3.64367 3.88487 3.76620
# Velocity P-wave (km/s) = 5.96270 6.54630 6.26130
#
# Compressibility (1/GPa) = 0.03191423
#
# Stress axis : x y z
#
# Youngs Moduli (GPa) = 46.17830 46.17830 124.87464
#
# Poissons Ratio (x) = 0.18781 0.35183
# Poissons Ratio (y) = 0.18781 0.35183
# Poissons Ratio (z) = 0.13011 0.13011
#
# Static dielectric constant tensor:
#      x y z
#    x 3.146260 0.000000 0.000000 
#    y 0.000000 3.146260 0.000000 
#    z 0.000000 0.000000 3.846720 
# 
# 
# High freq. dielectric constant tensor:
#      x y z
#    x 1.642920 0.000000 0.000000 
#    y 0.000000 1.642920 0.000000 
#    z 0.000000 0.000000 1.714350 
# 
# From -- ./inp_files/50.got.cif
#   From: 2010.03.12/outbox.cif.g09.slc.cpg/sg158_cif.got.tgz:50.got - 2010.04.03 13:59:47.
