data_PCOD8322405
_publ_section_title
;
Structure prediction by ZEFSAII (Michael W. Deem and Ramdas Pophale) SiO2 
 PCOD8322405
Probable space group: P 32 2 1
;
_chemical_formula_sum "Si O2"
_cell_formula_units_Z 42
_cell_length_a 15.401357
_cell_length_b 15.401357
_cell_length_c 11.108151
_cell_angle_alpha 90.000000
_cell_angle_beta 90.000000
_cell_angle_gamma 120.000000
_cell_volume 2281.867286
_symmetry_space_group_name_H-M "P 32 2 1"
_symmetry_group_IT_number 154
_symmetry_cell_setting 'hexagonal'
loop_
_space_group_symop_operation_xyz
x,y,z
-y,x-y,2/3+z
-x+y,-x,1/3+z
x-y,-y,1/3-z
-x,-x+y,2/3-z
y,x,-z
loop_
_atom_site_type_symbol
_atom_site_label
_atom_site_fract_x
_atom_site_fract_y
_atom_site_fract_z
Si Si1 0.968159 0.332278 0.703906
Si Si2 0.287648 0.529894 0.689039
Si Si3 0.477642 0.733357 0.624986
Si Si4 0.521920 0.432877 0.914699
Si Si5 0.934563 0.287317 0.220409
Si Si6 0.541572 0.444909 0.655464
Si Si7 0.615999 0.886590 0.168401
O O1 0.848510 0.267960 0.689998
O O2 0.000000 0.302323 0.833334
O O3 0.014127 0.315707 0.579298
O O4 0.003072 0.449599 0.718744
O O5 0.385457 0.622046 0.633249
O O6 0.302807 0.523956 0.829782
O O7 0.191859 0.540521 0.657949
O O8 0.268283 0.424405 0.634867
O O9 0.467325 0.804689 0.720547
O O10 0.629978 0.532868 0.915256
O O11 0.479271 0.413658 0.779780
O O12 0.443669 0.443669 0.000000
O O13 0.836020 0.178997 0.227965
O O14 0.000000 0.286406 0.333334
O O15 0.480977 0.358289 0.562246
O O16 0.706967 0.000000 0.166667
#
# Coordination Sequence:
#
# PCOD8322405 Si02
#       7
#     6   6   6   6   6   6   6
#     4  11  20  40  56  80 113 157 194 234 289 352
#     4  12  21  37  54  87 116 154 204 228 286 356
#     4  12  24  33  60  80 117 160 196 237 286 346
#     4  10  23  38  54  81 116 156 191 237 282 343
#     4  10  23  41  59  83 119 154 196 239 300 355
#     4  11  21  39  54  79 122 147 196 234 284 344
#     4  12  23  37  61  88 115 151 199 254 289 345
#
# _framework density 18.405978000000001
#
# number of rings (size 3 to 8) (size 9 to 14) (size 15 to 20)
#    0.000    0.857    5.714    3.000   10.000    0.000 
#    0.000    0.000    0.000    0.000    0.000    4.000 
#    0.000    0.000    0.000    0.000    0.000    0.000 
#
# Total GULP energy -520630.180130 kJ/mol
# GULP energy per Si atom -12395.956670 kJ/mol
# Density = 1.836409 g / cm^3
# Si number density = 18.405978 Si / 1000 Ang^3
#
#
#
# Elastic Constant Matrix: (Units=GPa)
#
#
# Indices 1 2 3 4 5 6 
#
# 1 72.2645 26.8343 16.2209 2.4886 0.0000 0.0000
# 2 26.8343 72.2645 16.2209 -2.4886 0.0000 0.0000
# 3 16.2209 16.2209 103.6292 0.0000 0.0000 0.0000
# 4 2.4886 -2.4886 0.0000 20.3537 0.0000 0.0000
# 5 0.0000 0.0000 0.0000 0.0000 20.3537 2.4886
# 6 0.0000 0.0000 0.0000 0.0000 2.4886 22.7151
#
#
#
# Elastic Compliance Matrix: (Units=1/GPa)
#
#
# Indices 1 2 3 4 5 6 
#
# 1 0.016473 -0.005837 -0.001665 -0.002728 0.000000 0.000000
# 2 -0.005837 0.016473 -0.001665 0.002728 0.000000 0.000000
# 3 -0.001665 -0.001665 0.010171 0.000000 0.000000 0.000000
# 4 -0.002728 0.002728 0.000000 0.049798 0.000000 0.000000
# 5 0.000000 0.000000 0.000000 0.000000 0.049798 -0.005456
# 6 0.000000 0.000000 0.000000 0.000000 -0.005456 0.044621
#
#
# Mechanical properties :
#
#
# Convention : Reuss Voigt Hill
#
# Bulk Modulus (GPa) = 40.34930 40.74559 40.54744
# Shear Modulus (GPa) = 23.37206 25.27661 24.32433
#
# Velocity S-wave (km/s) = 3.56730 3.70980 3.63925
# Velocity P-wave (km/s) = 6.23995 6.36674 6.30366
#
# Compressibility (1/GPa) = 0.02478358
#
# Stress axis : x y z
#
# Youngs Moduli (GPa) = 60.70425 60.70425 98.31894
#
# Poissons Ratio (x) = 0.35435 0.16368
# Poissons Ratio (y) = 0.35435 0.16368
# Poissons Ratio (z) = 0.10106 0.10106
#
# Static dielectric constant tensor:
#      x y z
#    x 3.222760 0.000000 0.000000 
#    y 0.000000 3.222760 0.000000 
#    z 0.000000 0.000000 3.833800 
# 
# 
# High freq. dielectric constant tensor:
#      x y z
#    x 1.686260 0.000000 0.000000 
#    y 0.000000 1.686260 0.000000 
#    z 0.000000 0.000000 1.741030 
# 
# From -- ./inp_files/1731.got.cif
#   From: 2010.03.12/outbox.cif.g09.slc.cpg/sg154_1_cif.got.tgz:1731.got - 2010.04.03 13:51:21.
