data_PCOD8322531
_publ_section_title
;
Structure prediction by ZEFSAII (Michael W. Deem and Ramdas Pophale) SiO2 
 PCOD8322531
Probable space group: R 3 2
;
_chemical_formula_sum "Si O2"
_cell_formula_units_Z 72
_cell_length_a 22.576350
_cell_length_b 22.576350
_cell_length_c 8.169992
_cell_angle_alpha 90.000000
_cell_angle_beta 90.000000
_cell_angle_gamma 120.000000
_cell_volume 3606.282311
_symmetry_space_group_name_H-M "R 3 2"
_symmetry_group_IT_number 155
_symmetry_cell_setting 'hexagonal'
loop_
_space_group_symop_operation_xyz
x,y,z
-y,x-y,z
-x+y,-x,z
x-y,-y,-z
-x,-x+y,-z
y,x,-z
2/3+x,1/3+y,1/3+z
2/3-y,1/3+x-y,1/3+z
2/3-x+y,1/3-x,1/3+z
2/3+x-y,1/3-y,1/3-z
2/3-x,1/3-x+y,1/3-z
2/3+y,1/3+x,1/3-z
1/3+x,2/3+y,2/3+z
1/3-y,2/3+x-y,2/3+z
1/3-x+y,2/3-x,2/3+z
1/3+x-y,2/3-y,2/3-z
1/3-x,2/3-x+y,2/3-z
1/3+y,2/3+x,2/3-z
loop_
_atom_site_type_symbol
_atom_site_label
_atom_site_fract_x
_atom_site_fract_y
_atom_site_fract_z
Si Si1 0.924347 0.000000 0.500000
Si Si2 0.605488 0.136557 0.602754
Si Si3 0.267275 0.076787 0.058178
Si Si4 0.658369 0.866156 0.143644
Si Si5 0.000000 0.755466 0.000000
O O1 0.892125 0.012451 0.336493
O O2 0.000000 0.067561 0.500000
O O3 0.541313 0.124714 0.490557
O O4 0.655973 0.122633 0.494790
O O5 0.573338 0.087357 0.761182
O O6 0.333334 0.095941 0.166667
O O7 0.293754 0.128087 0.903549
O O8 0.236255 0.000000 0.000000
O O9 0.666667 0.882469 0.333334
O O10 0.681964 0.934593 0.035942
#
# Coordination Sequence:
#
# PCOD8322531 Si02
#       5
#     9  18  18  18   9
#     4  10  24  42  60  84 116 154 214 256 306 362
#     4  10  21  40  58  84 120 156 198 255 300 359
#     4   9  20  37  59  88 124 158 202 249 306 371
#     4  10  21  38  58  87 123 158 198 247 309 361
#     4  10  20  38  60  88 124 156 202 240 304 380
#
# _framework density 19.965160000000001
#
# number of rings (size 3 to 8) (size 9 to 14) (size 15 to 20)
#    0.250    2.000    0.000    3.750    0.000    7.000 
#   13.500    5.000    0.000    0.000    0.000    0.000 
#    0.000    0.000    0.000    0.000    0.000    0.000 
#
# Total GULP energy -297462.416627 kJ/mol
# GULP energy per Si atom -12394.267359 kJ/mol
# Density = 1.991972 g / cm^3
# Si number density = 19.965160 Si / 1000 Ang^3
#
#
#
# Elastic Constant Matrix: (Units=GPa)
#
#
# Indices 1 2 3 4 5 6 
#
# 1 85.2609 35.7329 27.4101 -14.7316 0.1567 -0.0287
# 2 35.7329 85.0734 27.1285 14.7222 0.0205 0.0011
# 3 27.4101 27.1285 100.3109 0.0028 0.2674 -0.0551
# 4 -14.7316 14.7222 0.0028 25.1629 -0.0006 0.0060
# 5 0.1567 0.0205 0.2674 -0.0006 25.2773 -14.7501
# 6 -0.0287 0.0011 -0.0551 0.0060 -14.7501 24.6907
#
#
#
# Elastic Compliance Matrix: (Units=1/GPa)
#
#
# Indices 1 2 3 4 5 6 
#
# 1 0.020241 -0.010817 -0.002606 0.018179 -0.000124 -0.000060
# 2 -0.010817 0.020247 -0.002520 -0.018178 0.000105 0.000048
# 3 -0.002606 -0.002520 0.011363 -0.000053 -0.000136 -0.000059
# 4 0.018179 -0.018178 -0.000053 0.061019 -0.000141 -0.000077
# 5 -0.000124 0.000105 -0.000136 -0.000141 0.060735 0.036282
# 6 -0.000060 0.000048 -0.000059 -0.000077 0.036282 0.062176
#
#
# Mechanical properties :
#
#
# Convention : Reuss Voigt Hill
#
# Bulk Modulus (GPa) = 50.08399 50.13204 50.10801
# Shear Modulus (GPa) = 18.22683 27.05110 22.63896
#
# Velocity S-wave (km/s) = 3.02475 3.68491 3.37103
# Velocity P-wave (km/s) = 6.11056 6.57792 6.34854
#
# Compressibility (1/GPa) = 0.01996646
#
# Stress axis : x y z
#
# Youngs Moduli (GPa) = 49.40511 49.38982 88.00611
#
# Poissons Ratio (x) = 0.53423 0.22933
# Poissons Ratio (y) = 0.53439 0.22176
# Poissons Ratio (z) = 0.12874 0.12445
#
# Static dielectric constant tensor:
#      x y z
#    x 3.551540 0.000000 -0.000130 
#    y 0.000000 3.551570 0.000440 
#    z -0.000130 0.000440 3.929790 
# 
# 
# High freq. dielectric constant tensor:
#      x y z
#    x 1.773080 0.000000 -0.000010 
#    y 0.000000 1.773090 0.000000 
#    z -0.000010 0.000000 1.783600 
# 
# From -- ./inp_files/2486.got.cif
#   From: 2010.03.12/outbox.cif.g09.slc.cpg/sg155_2_cif.got.tgz:2486.got - 2010.04.03 13:54:13.
