data_PCOD8322457
_publ_section_title
;
Structure prediction by ZEFSAII (Michael W. Deem and Ramdas Pophale) SiO2 
 PCOD8322457
Probable space group: R 3 2
;
_chemical_formula_sum "Si O2"
_cell_formula_units_Z 144
_cell_length_a 20.142759
_cell_length_b 20.142759
_cell_length_c 21.823396
_cell_angle_alpha 90.000000
_cell_angle_beta 90.000000
_cell_angle_gamma 120.000000
_cell_volume 7668.154917
_symmetry_space_group_name_H-M "R 3 2"
_symmetry_group_IT_number 155
_symmetry_cell_setting 'hexagonal'
loop_
_space_group_symop_operation_xyz
x,y,z
-y,x-y,z
-x+y,-x,z
x-y,-y,-z
-x,-x+y,-z
y,x,-z
2/3+x,1/3+y,1/3+z
2/3-y,1/3+x-y,1/3+z
2/3-x+y,1/3-x,1/3+z
2/3+x-y,1/3-y,1/3-z
2/3-x,1/3-x+y,1/3-z
2/3+y,1/3+x,1/3-z
1/3+x,2/3+y,2/3+z
1/3-y,2/3+x-y,2/3+z
1/3-x+y,2/3-x,2/3+z
1/3+x-y,2/3-y,2/3-z
1/3-x,2/3-x+y,2/3-z
1/3+y,2/3+x,2/3-z
loop_
_atom_site_type_symbol
_atom_site_label
_atom_site_fract_x
_atom_site_fract_y
_atom_site_fract_z
Si Si1 0.030030 0.584411 0.195458
Si Si2 0.470975 0.856038 0.826051
Si Si3 0.249003 0.495967 0.643664
Si Si4 0.109247 0.849967 0.794252
Si Si5 0.744707 0.612747 0.801412
Si Si6 0.585259 0.668215 0.014439
Si Si7 0.805906 0.784291 0.782421
Si Si8 0.681900 0.856512 0.657891
O O1 0.061250 0.666667 0.166667
O O2 0.075062 0.547350 0.161997
O O3 0.036269 0.585778 0.270108
O O4 0.943175 0.536977 0.174851
O O5 0.425868 0.832052 0.762195
O O6 0.514511 0.812315 0.849212
O O7 0.401685 0.838103 0.872280
O O8 0.333334 0.552653 0.666667
O O9 0.191736 0.525069 0.666667
O O10 0.217020 0.409579 0.668758
O O11 0.124010 0.790676 0.833334
O O12 0.103676 0.826571 0.722105
O O13 0.177292 0.935626 0.808353
O O14 0.666667 0.557215 0.833334
O O15 0.729109 0.592860 0.729784
O O16 0.768952 0.700999 0.814025
O O17 0.621187 0.756027 0.035349
O O18 0.658492 0.658492 0.000000
O O19 0.530865 0.649343 0.956914
#
# Coordination Sequence:
#
# PCOD8322457 Si02
#       8
#    18  18  18  18  18  18  18  18
#     4  10  21  37  56  87 115 153 187 241 295 358
#     4  10  23  39  56  80 120 151 197 240 290 346
#     4  11  24  39  57  83 117 154 199 246 291 353
#     4  11  22  38  61  83 114 159 201 244 291 358
#     4  10  17  32  59  83 114 142 182 242 298 343
#     4   9  17  32  56  89 113 142 185 241 298 345
#     4   9  21  35  54  84 114 147 193 241 290 349
#     4  10  21  37  59  85 115 149 198 243 294 349
#
# _framework density 18.778963999999998
#
# number of rings (size 3 to 8) (size 9 to 14) (size 15 to 20)
#    0.000    2.000    1.250    2.000    3.500    2.000 
#    0.750    1.250    0.000    0.250    0.000    0.000 
#    0.000    0.000    0.000    0.000    0.000    0.000 
#
# Total GULP energy -594904.862476 kJ/mol
# GULP energy per Si atom -12393.851302 kJ/mol
# Density = 1.873622 g / cm^3
# Si number density = 18.778964 Si / 1000 Ang^3
#
#
#
# Elastic Constant Matrix: (Units=GPa)
#
#
# Indices 1 2 3 4 5 6 
#
# 1 57.6719 47.8940 43.6998 11.2541 0.0019 0.0000
# 2 47.8940 57.6719 43.6998 -11.2541 -0.0019 0.0000
# 3 43.6998 43.6998 91.2978 0.0000 0.0000 0.0000
# 4 11.2541 -11.2541 0.0000 25.3461 0.0000 -0.0020
# 5 0.0019 -0.0019 0.0000 0.0000 25.3461 11.2541
# 6 0.0000 0.0000 0.0000 -0.0020 11.2541 4.8890
#
#
#
# Elastic Compliance Matrix: (Units=1/GPa)
#
#
# Indices 1 2 3 4 5 6 
#
# 1 -2.306932 2.322623 -0.007510 2.055595 0.000385 -0.000064
# 2 2.322623 -2.306932 -0.007510 -2.055595 -0.000385 0.000064
# 3 -0.007510 -0.007510 0.018143 0.000000 0.000000 0.000000
# 4 2.055595 -2.055595 0.000000 -1.785980 -0.000025 -0.000655
# 5 0.000385 -0.000385 0.000000 -0.000025 -1.785951 4.111125
# 6 -0.000064 0.000064 0.000000 -0.000655 4.111125 -9.258961
#
#
# Mechanical properties :
#
#
# Convention : Reuss Voigt Hill
#
# Bulk Modulus (GPa) = 51.32737 53.02542 52.17640
# Shear Modulus (GPa) = -0.22691 15.87277 7.82293
#
# Velocity S-wave (km/s) = -0.34798 2.91046 2.04324
# Velocity P-wave (km/s) = 5.21826 6.29224 5.78025
#
# Compressibility (1/GPa) = 0.01948278
#
# Stress axis : x y z
#
# Youngs Moduli (GPa) = -0.43348 -0.43348 55.11803
#
# Poissons Ratio (x) = 1.00680 0.41396
# Poissons Ratio (y) = 1.00680 0.41396
# Poissons Ratio (z) = -0.00326 -0.00326
#
# Static dielectric constant tensor:
#      x y z
#    x 3.926030 0.000000 0.000000 
#    y 0.000000 3.926030 0.000000 
#    z 0.000000 0.000000 3.300920 
# 
# 
# High freq. dielectric constant tensor:
#      x y z
#    x 1.718890 0.000000 0.000000 
#    y 0.000000 1.718890 0.000000 
#    z 0.000000 0.000000 1.741270 
# 
# From -- ./inp_files/7044.got.cif
#   From: 2010.03.12/outbox.cif.g09.slc.cpg/sg155_4_cif.got.tgz:7044.got - 2010.04.03 13:54:13.
