data_PCOD8322823
_publ_section_title
;
Structure prediction by ZEFSAII (Michael W. Deem and Ramdas Pophale) SiO2 
 PCOD8322823
Probable space group: P 3 1 C
;
_chemical_formula_sum "Si O2"
_cell_formula_units_Z 24
_cell_length_a 12.495509
_cell_length_b 12.495509
_cell_length_c 10.360702
_cell_angle_alpha 90.000000
_cell_angle_beta 90.000000
_cell_angle_gamma 120.000000
_cell_volume 1400.966393
_symmetry_space_group_name_H-M "P 3 1 C"
_symmetry_group_IT_number 159
_symmetry_cell_setting 'hexagonal'
loop_
_space_group_symop_operation_xyz
x,y,z
-y,x-y,z
-x+y,-x,z
y,x,1/2+z
x-y,-y,1/2+z
-x,-x+y,1/2+z
loop_
_atom_site_type_symbol
_atom_site_label
_atom_site_fract_x
_atom_site_fract_y
_atom_site_fract_z
Si Si1 0.789746 0.479510 0.261380
Si Si2 0.720216 0.998862 0.871981
Si Si3 0.868157 0.009582 0.621943
Si Si4 0.479385 0.789996 0.468891
O O1 0.646095 0.443046 0.283215
O O2 0.878323 0.585714 0.358686
O O3 0.830362 0.527533 0.115211
O O4 0.811127 0.014271 0.757655
O O5 0.705740 0.120102 0.871563
O O6 0.772817 0.982976 0.005710
O O7 0.873972 0.882454 0.614629
O O8 0.353522 0.796798 0.446934
#
# Coordination Sequence:
#
# PCOD8322823 Si02
#       4
#     6   6   6   6
#     4   8  18  38  58  86 121 152 200 236 286 365
#     4  12  18  40  64  84 120 166 188 246 306 334
#     4  10  24  40  54  88 122 152 208 244 284 370
#     4   8  18  38  58  86 121 152 200 236 286 365
#
# _framework density 17.131032999999999
#
# number of rings (size 3 to 8) (size 9 to 14) (size 15 to 20)
#    1.500    1.000    2.500    1.500    0.000    0.000 
#    9.000    2.500    0.000    0.000    0.000    0.000 
#    0.000    0.000    0.000    0.000    0.000    0.000 
#
# Total GULP energy -297328.056714 kJ/mol
# GULP energy per Si atom -12388.669030 kJ/mol
# Density = 1.709204 g / cm^3
# Si number density = 17.131033 Si / 1000 Ang^3
#
#
#
# Elastic Constant Matrix: (Units=GPa)
#
#
# Indices 1 2 3 4 5 6 
#
# 1 89.0979 44.5683 27.0921 0.0000 0.4381 0.0000
# 2 44.5683 89.0979 27.0921 0.0000 -0.4381 0.0000
# 3 27.0921 27.0921 48.8694 0.0000 0.0000 0.0000
# 4 0.0000 0.0000 0.0000 31.7716 0.0000 -0.4381
# 5 0.4381 -0.4381 0.0000 0.0000 31.7716 0.0000
# 6 0.0000 0.0000 0.0000 -0.4381 0.0000 22.2648
#
#
#
# Elastic Compliance Matrix: (Units=1/GPa)
#
#
# Indices 1 2 3 4 5 6 
#
# 1 0.016056 -0.006407 -0.005350 0.000000 -0.000310 0.000000
# 2 -0.006407 0.016056 -0.005350 0.000000 0.000310 0.000000
# 3 -0.005350 -0.005350 0.026394 0.000000 0.000000 0.000000
# 4 0.000000 0.000000 0.000000 0.031483 0.000000 0.000620
# 5 -0.000310 0.000310 0.000000 0.000000 0.031483 0.000000
# 6 0.000000 0.000000 0.000000 0.000620 0.000000 0.044926
#
#
# Mechanical properties :
#
#
# Convention : Reuss Voigt Hill
#
# Bulk Modulus (GPa) = 41.16029 47.17444 44.16737
# Shear Modulus (GPa) = 23.95668 25.71578 24.83623
#
# Velocity S-wave (km/s) = 3.74363 3.87864 3.81173
# Velocity P-wave (km/s) = 6.53951 6.90330 6.72387
#
# Compressibility (1/GPa) = 0.02429526
#
# Stress axis : x y z
#
# Youngs Moduli (GPa) = 62.28012 62.28012 37.88716
#
# Poissons Ratio (x) = 0.39900 0.20268
# Poissons Ratio (y) = 0.39900 0.20268
# Poissons Ratio (z) = 0.33318 0.33318
#
# Static dielectric constant tensor:
#      x y z
#    x 3.075390 0.000000 0.000000 
#    y 0.000000 3.075390 0.000000 
#    z 0.000000 0.000000 3.050830 
# 
# 
# High freq. dielectric constant tensor:
#      x y z
#    x 1.652870 0.000000 0.000000 
#    y 0.000000 1.652870 0.000000 
#    z 0.000000 0.000000 1.654390 
# 
# From -- ./inp_files/293.got.cif
#   From: 2010.03.12/outbox.cif.g09.slc.cpg/sg159_cif.got.tgz:293.got - 2010.04.03 14:00:19.
