data_PCOD8322067
_publ_section_title
;
Structure prediction by ZEFSAII (Michael W. Deem and Ramdas Pophale) SiO2 
 PCOD8322067
Probable space group: P 31 2 1
;
_chemical_formula_sum "Si O2"
_cell_formula_units_Z 42
_cell_length_a 14.540669
_cell_length_b 14.540669
_cell_length_c 11.836262
_cell_angle_alpha 90.000000
_cell_angle_beta 90.000000
_cell_angle_gamma 120.000000
_cell_volume 2167.274785
_symmetry_space_group_name_H-M "P 31 2 1"
_symmetry_group_IT_number 152
_symmetry_cell_setting 'hexagonal'
loop_
_space_group_symop_operation_xyz
x,y,z
-y,x-y,1/3+z
-x+y,-x,2/3+z
x-y,-y,2/3-z
-x,-x+y,1/3-z
y,x,-z
loop_
_atom_site_type_symbol
_atom_site_label
_atom_site_fract_x
_atom_site_fract_y
_atom_site_fract_z
Si Si1 0.330877 0.951206 0.108944
Si Si2 0.826835 0.318187 0.514584
Si Si3 0.446814 0.647829 0.611434
Si Si4 0.050202 0.000000 0.833334
Si Si5 0.714659 0.300400 0.288974
Si Si6 0.191056 0.764649 0.279488
Si Si7 0.754619 0.000000 0.833334
Si Si8 0.861415 0.835498 0.268837
O O1 0.276442 0.860470 0.202325
O O2 0.261269 0.006871 0.076944
O O3 0.441719 0.048572 0.153332
O O4 0.355658 0.901441 0.999348
O O5 0.755941 0.270698 0.401740
O O6 0.791648 0.387228 0.591865
O O7 0.806235 0.217287 0.591103
O O8 0.479369 0.690727 0.483447
O O9 0.413528 0.720007 0.686845
O O10 0.341568 0.536255 0.598251
O O11 0.119235 0.006598 0.727215
O O12 0.035501 0.103657 0.845489
O O13 0.071016 0.730161 0.250442
O O14 0.776272 0.927083 0.750537
#
# Coordination Sequence:
#
# PCOD8322067 Si02
#       8
#     6   6   6   3   6   6   3   6
#     4  11  22  37  62  96 112 154 208 258 282 359
#     4  10  22  37  63  88 122 157 204 247 298 364
#     4  10  19  38  63  83 125 158 204 241 307 366
#     4   9  18  38  59  80 120 164 181 238 312 361
#     4   9  20  40  60  83 121 172 191 235 315 370
#     4  10  21  38  59  87 122 154 201 248 301 354
#     4   9  20  36  57  88 114 150 199 248 286 351
#     4   9  20  35  60  85 116 153 198 235 302 351
#
# _framework density 19.379175
#
# number of rings (size 3 to 8) (size 9 to 14) (size 15 to 20)
#    0.000    2.286    1.429    0.429    4.000    2.857 
#    2.571    0.000    0.000    0.000    0.000    0.000 
#    0.000    0.000    0.000    0.000    0.000    0.000 
#
# Total GULP energy -520583.462630 kJ/mol
# GULP energy per Si atom -12394.844348 kJ/mol
# Density = 1.933507 g / cm^3
# Si number density = 19.379175 Si / 1000 Ang^3
#
#
#
# Elastic Constant Matrix: (Units=GPa)
#
#
# Indices 1 2 3 4 5 6 
#
# 1 80.5971 40.0749 50.5175 -1.8101 0.0001 0.0000
# 2 40.0749 80.5971 50.5175 1.8101 -0.0001 0.0000
# 3 50.5175 50.5175 121.8618 0.0000 0.0000 0.0000
# 4 -1.8101 1.8101 0.0000 32.9787 0.0000 -0.0001
# 5 0.0001 -0.0001 0.0000 0.0000 32.9787 -1.8101
# 6 0.0000 0.0000 0.0000 -0.0001 -1.8101 20.2611
#
#
#
# Elastic Compliance Matrix: (Units=1/GPa)
#
#
# Indices 1 2 3 4 5 6 
#
# 1 0.018746 -0.006054 -0.005262 0.001361 0.000000 0.000000
# 2 -0.006054 0.018746 -0.005262 -0.001361 0.000000 0.000000
# 3 -0.005262 -0.005262 0.012568 0.000000 0.000000 0.000000
# 4 0.001361 -0.001361 0.000000 0.030472 0.000000 0.000000
# 5 0.000000 0.000000 0.000000 0.000000 0.030472 0.002722
# 6 0.000000 0.000000 0.000000 0.000000 0.002722 0.049599
#
#
# Mechanical properties :
#
#
# Convention : Reuss Voigt Hill
#
# Bulk Modulus (GPa) = 59.14822 62.80842 60.97832
# Shear Modulus (GPa) = 25.07623 26.70676 25.89149
#
# Velocity S-wave (km/s) = 3.60109 3.71633 3.65916
# Velocity P-wave (km/s) = 6.91941 7.13410 7.02758
#
# Compressibility (1/GPa) = 0.01690668
#
# Stress axis : x y z
#
# Youngs Moduli (GPa) = 53.34510 53.34510 79.56502
#
# Poissons Ratio (x) = 0.32293 0.41863
# Poissons Ratio (y) = 0.32293 0.41863
# Poissons Ratio (z) = 0.28068 0.28068
#
# Static dielectric constant tensor:
#      x y z
#    x 3.578060 0.000000 0.000000 
#    y 0.000000 3.578060 0.000000 
#    z 0.000000 0.000000 3.727370 
# 
# 
# High freq. dielectric constant tensor:
#      x y z
#    x 1.740680 0.000000 0.000000 
#    y 0.000000 1.740680 0.000000 
#    z 0.000000 0.000000 1.766950 
# 
# From -- ./inp_files/1840.got.cif
#   From: 2010.03.12/outbox.cif.g09.slc.cpg/sg152_1_cif.got.tgz:1840.got - 2010.04.03 13:45:27.
