data_PCOD8322265
_publ_section_title
;
Structure prediction by ZEFSAII (Michael W. Deem and Ramdas Pophale) SiO2 
 PCOD8322265
Probable space group: P 32 1 2
;
_chemical_formula_sum "Si O2"
_cell_formula_units_Z 39
_cell_length_a 8.647159
_cell_length_b 8.647159
_cell_length_c 27.477968
_cell_angle_alpha 90.000000
_cell_angle_beta 90.000000
_cell_angle_gamma 120.000000
_cell_volume 1779.353080
_symmetry_space_group_name_H-M "P 32 1 2"
_symmetry_group_IT_number 153
_symmetry_cell_setting 'hexagonal'
loop_
_space_group_symop_operation_xyz
x,y,z
-y,x-y,2/3+z
-x+y,-x,1/3+z
-y,-x,1/3-z
-x+y,y,2/3-z
x,x-y,-z
loop_
_atom_site_type_symbol
_atom_site_label
_atom_site_fract_x
_atom_site_fract_y
_atom_site_fract_z
Si Si1 0.093395 0.197475 0.226960
Si Si2 0.671499 0.687154 0.350027
Si Si3 0.398018 0.035090 0.708574
Si Si4 0.811500 0.188501 0.166667
Si Si5 0.841482 0.435403 0.080486
Si Si6 0.184229 0.293516 0.779450
Si Si7 0.941403 0.741496 0.972653
O O1 0.263570 0.373339 0.251531
O O2 0.020112 0.266270 0.182452
O O3 0.918418 0.086638 0.259477
O O4 0.145766 0.051932 0.210679
O O5 0.481095 0.520150 0.331809
O O6 0.683022 0.733253 0.408137
O O7 0.819349 0.638698 0.333334
O O8 0.696745 0.852667 0.318948
O O9 0.547116 0.213853 0.735721
O O10 0.253197 0.078504 0.684082
O O11 0.794427 0.307098 0.125691
O O12 0.877239 0.343290 0.034589
O O13 0.023069 0.620400 0.089435
O O14 0.185674 0.371348 0.833334
#
# Coordination Sequence:
#
# PCOD8322265 Si02
#       7
#     6   6   6   3   6   6   6
#     4  10  20  41  69  95 129 173 230 275 339 420
#     4  12  23  40  71 100 131 184 238 296 351 420
#     4  11  23  40  66 103 131 169 235 299 337 408
#     4  10  22  42  72  94 134 192 216 272 368 428
#     4  10  23  41  64  94 137 174 219 290 351 407
#     4  11  23  41  66  96 135 182 225 282 352 428
#     4  11  20  42  64  94 129 172 225 284 344 402
#
# _framework density 21.918078999999999
#
# number of rings (size 3 to 8) (size 9 to 14) (size 15 to 20)
#    0.000    1.231    5.385    1.846    0.000    3.692 
#    8.308    0.000    0.000    0.000    0.000    0.000 
#    0.000    0.000    0.000    0.000    0.000    0.000 
#
# Total GULP energy -483267.141468 kJ/mol
# GULP energy per Si atom -12391.465166 kJ/mol
# Density = 2.186819 g / cm^3
# Si number density = 21.918079 Si / 1000 Ang^3
#
#
#
# Elastic Constant Matrix: (Units=GPa)
#
#
# Indices 1 2 3 4 5 6 
#
# 1 71.9983 18.9924 15.1065 0.0002 -2.3278 0.0000
# 2 18.9924 71.9983 15.1065 -0.0002 2.3278 0.0000
# 3 15.1065 15.1065 67.7580 0.0000 0.0000 0.0000
# 4 0.0002 -0.0002 0.0000 31.4384 0.0000 2.3278
# 5 -2.3278 2.3278 0.0000 0.0000 31.4384 0.0002
# 6 0.0000 0.0000 0.0000 2.3278 0.0002 26.5029
#
#
#
# Elastic Compliance Matrix: (Units=1/GPa)
#
#
# Indices 1 2 3 4 5 6 
#
# 1 0.015429 -0.003560 -0.002646 0.000000 0.001406 0.000000
# 2 -0.003560 0.015429 -0.002646 0.000000 -0.001406 0.000000
# 3 -0.002646 -0.002646 0.015938 0.000000 0.000000 0.000000
# 4 0.000000 0.000000 0.000000 0.032016 0.000000 -0.002812
# 5 0.001406 -0.001406 0.000000 0.000000 0.032016 0.000000
# 6 0.000000 0.000000 0.000000 -0.002812 0.000000 0.037979
#
#
# Mechanical properties :
#
#
# Convention : Reuss Voigt Hill
#
# Bulk Modulus (GPa) = 34.37444 34.46280 34.41862
# Shear Modulus (GPa) = 28.37523 28.71258 28.54391
#
# Velocity S-wave (km/s) = 3.60196 3.62331 3.61265
# Velocity P-wave (km/s) = 5.74596 5.76733 5.75666
#
# Compressibility (1/GPa) = 0.02909138
#
# Stress axis : x y z
#
# Youngs Moduli (GPa) = 64.81282 64.81282 62.74196
#
# Poissons Ratio (x) = 0.23075 0.16602
# Poissons Ratio (y) = 0.23075 0.16602
# Poissons Ratio (z) = 0.17150 0.17150
#
# Static dielectric constant tensor:
#      x y z
#    x 4.011850 0.000000 0.000000 
#    y 0.000000 4.011850 0.000000 
#    z 0.000000 0.000000 4.271050 
# 
# 
# High freq. dielectric constant tensor:
#      x y z
#    x 1.851940 0.000000 0.000000 
#    y 0.000000 1.851940 0.000000 
#    z 0.000000 0.000000 1.872290 
# 
# From -- ./inp_files/5114.got.cif
#   From: 2010.03.12/outbox.cif.g09.slc.cpg/sg153_3_cif.got.tgz:5114.got - 2010.04.03 13:48:33.
