data_PCOD8322410
_publ_section_title
;
Structure prediction by ZEFSAII (Michael W. Deem and Ramdas Pophale) SiO2 
 PCOD8322410
Probable space group: P 32 2 1
;
_chemical_formula_sum "Si O2"
_cell_formula_units_Z 42
_cell_length_a 8.295875
_cell_length_b 8.295875
_cell_length_c 28.395116
_cell_angle_alpha 90.000000
_cell_angle_beta 90.000000
_cell_angle_gamma 120.000000
_cell_volume 1692.383093
_symmetry_space_group_name_H-M "P 32 2 1"
_symmetry_group_IT_number 154
_symmetry_cell_setting 'hexagonal'
loop_
_space_group_symop_operation_xyz
x,y,z
-y,x-y,2/3+z
-x+y,-x,1/3+z
x-y,-y,1/3-z
-x,-x+y,2/3-z
y,x,-z
loop_
_atom_site_type_symbol
_atom_site_label
_atom_site_fract_x
_atom_site_fract_y
_atom_site_fract_z
Si Si1 0.000000 0.075480 0.333334
Si Si2 0.000000 0.012724 0.833334
Si Si3 0.859452 0.763151 0.586431
Si Si4 0.640946 0.784187 0.787525
Si Si5 0.506807 0.078311 0.787408
Si Si6 0.408307 0.813236 0.372496
Si Si7 0.837167 0.613020 0.933120
Si Si8 0.442610 0.602330 0.594691
O O1 0.838966 0.110743 0.314193
O O2 0.067323 0.997689 0.290239
O O3 0.865457 0.044078 0.868681
O O4 0.145288 0.988825 0.866524
O O5 0.910017 0.618920 0.609781
O O6 0.648815 0.697353 0.575079
O O7 0.501226 0.637231 0.825724
O O8 0.596911 0.689415 0.735834
O O9 0.614495 0.963492 0.785487
O O10 0.629256 0.275384 0.758772
O O11 0.292516 0.953656 0.767475
O O12 0.313142 0.598372 0.384802
O O13 0.393116 0.843903 0.317906
O O14 0.035670 0.650178 0.910551
#
# Coordination Sequence:
#
# PCOD8322410 Si02
#       8
#     3   3   6   6   6   6   6   6
#     4  12  22  42  66 108 146 184 236 324 362 450
#     4  12  24  46  64 108 144 194 240 312 370 464
#     4  11  25  41  73 100 150 190 248 304 378 456
#     4  11  25  46  74 103 145 197 247 307 388 461
#     4  11  24  50  73 107 148 202 251 316 382 474
#     4  10  23  45  71 103 138 191 254 301 384 462
#     4  10  23  42  70 107 142 192 248 311 382 456
#     4  11  23  47  73 106 145 203 249 320 386 459
#
# _framework density 24.817074000000002
#
# number of rings (size 3 to 8) (size 9 to 14) (size 15 to 20)
#    0.000    1.143    2.857    2.571    2.000    1.714 
#   10.286    0.000    0.000    0.000    0.000    0.000 
#    0.000    0.000    0.000    0.000    0.000    0.000 
#
# Total GULP energy -520504.480464 kJ/mol
# GULP energy per Si atom -12392.963821 kJ/mol
# Density = 2.476059 g / cm^3
# Si number density = 24.817074 Si / 1000 Ang^3
#
#
#
# Elastic Constant Matrix: (Units=GPa)
#
#
# Indices 1 2 3 4 5 6 
#
# 1 85.4744 31.1583 27.5028 6.0380 -0.0001 0.0000
# 2 31.1583 85.4744 27.5028 -6.0380 0.0001 0.0000
# 3 27.5028 27.5028 101.2782 0.0000 0.0000 0.0000
# 4 6.0380 -6.0380 0.0000 34.8111 0.0000 0.0001
# 5 -0.0001 0.0001 0.0000 0.0000 34.8111 6.0380
# 6 0.0000 0.0000 0.0000 0.0001 6.0380 27.1580
#
#
#
# Elastic Compliance Matrix: (Units=1/GPa)
#
#
# Indices 1 2 3 4 5 6 
#
# 1 0.014491 -0.004658 -0.002670 -0.003321 0.000000 0.000000
# 2 -0.004658 0.014491 -0.002670 0.003321 0.000000 0.000000
# 3 -0.002670 -0.002670 0.011324 0.000000 0.000000 0.000000
# 4 -0.003321 0.003321 0.000000 0.029879 0.000000 0.000000
# 5 0.000000 0.000000 0.000000 0.000000 0.029879 -0.006643
# 6 0.000000 0.000000 0.000000 0.000000 -0.006643 0.038298
#
#
# Mechanical properties :
#
#
# Convention : Reuss Voigt Hill
#
# Bulk Modulus (GPa) = 49.23818 49.39497 49.31657
# Shear Modulus (GPa) = 30.27931 31.76025 31.01978
#
# Velocity S-wave (km/s) = 3.49678 3.58127 3.53928
# Velocity P-wave (km/s) = 6.01555 6.08667 6.05121
#
# Compressibility (1/GPa) = 0.02030944
#
# Stress axis : x y z
#
# Youngs Moduli (GPa) = 69.00721 69.00721 88.30754
#
# Poissons Ratio (x) = 0.32143 0.23581
# Poissons Ratio (y) = 0.32143 0.23581
# Poissons Ratio (z) = 0.18427 0.18427
#
# Static dielectric constant tensor:
#      x y z
#    x 4.579890 0.000000 0.000000 
#    y 0.000000 4.579890 0.000000 
#    z 0.000000 0.000000 4.490540 
# 
# 
# High freq. dielectric constant tensor:
#      x y z
#    x 1.990040 0.000000 0.000000 
#    y 0.000000 1.990040 0.000000 
#    z 0.000000 0.000000 1.990790 
# 
# From -- ./inp_files/3832.got.cif
#   From: 2010.03.12/outbox.cif.g09.slc.cpg/sg154_2_cif.got.tgz:3832.got - 2010.04.03 13:51:21.
