data_PCOD8322892
_publ_section_title
;
Structure prediction by ZEFSAII (Michael W. Deem and Ramdas Pophale) SiO2 
 PCOD8322892
Probable space group: R 3 C
;
_chemical_formula_sum "Si O2"
_cell_formula_units_Z 144
_cell_length_a 20.793594
_cell_length_b 20.793594
_cell_length_c 19.827646
_cell_angle_alpha 90.000000
_cell_angle_beta 90.000000
_cell_angle_gamma 120.000000
_cell_volume 7424.392241
_symmetry_space_group_name_H-M "R 3 C"
_symmetry_group_IT_number 161
_symmetry_cell_setting 'hexagonal'
loop_
_space_group_symop_operation_xyz
x,y,z
-y,x-y,z
-x+y,-x,z
-x+y,y,1/2+z
x,x-y,1/2+z
-y,-x,1/2+z
2/3+x,1/3+y,1/3+z
2/3-y,1/3+x-y,1/3+z
2/3-x+y,1/3-x,1/3+z
2/3-x+y,1/3+y,5/6+z
2/3+x,1/3+x-y,5/6+z
2/3-y,1/3-x,5/6+z
1/3+x,2/3+y,2/3+z
1/3-y,2/3+x-y,2/3+z
1/3-x+y,2/3-x,2/3+z
1/3-x+y,2/3+y,1/6+z
1/3+x,2/3+x-y,1/6+z
1/3-y,2/3-x,1/6+z
loop_
_atom_site_type_symbol
_atom_site_label
_atom_site_fract_x
_atom_site_fract_y
_atom_site_fract_z
Si Si1 0.390815 0.970204 0.095179
Si Si2 0.070259 0.582674 0.105509
Si Si3 0.576300 0.551051 0.827409
Si Si4 0.019369 0.694047 0.784883
Si Si5 0.404228 0.123454 0.129464
Si Si6 0.190746 0.419238 0.770853
Si Si7 0.352873 0.480721 0.820479
Si Si8 0.149212 0.936815 0.081567
O O1 0.466931 0.972917 0.111663
O O2 0.320505 0.899311 0.128899
O O3 0.379924 0.964852 0.015334
O O4 0.392993 0.041580 0.128190
O O5 0.127981 0.612472 0.167297
O O6 0.011802 0.610442 0.113477
O O7 0.111347 0.612773 0.032820
O O8 0.538528 0.468777 0.860231
O O9 0.526193 0.560643 0.771012
O O10 0.588367 0.609456 0.886693
O O11 0.047768 0.634110 0.794618
O O12 0.323903 0.116563 0.134040
O O13 0.452290 0.168375 0.064214
O O14 0.264883 0.449953 0.816155
O O15 0.167270 0.481325 0.776802
O O16 0.398251 0.554110 0.774952
#
# Coordination Sequence:
#
# PCOD8322892 Si02
#       8
#    18  18  18  18  18  18  18  18
#     4  11  22  36  56  91 125 162 200 254 316 374
#     4  12  22  33  59  93 125 159 206 249 314 380
#     4  11  20  36  60  82 125 156 205 256 303 373
#     4  10  20  37  56  88 123 159 196 251 303 371
#     4  11  20  37  61  89 126 161 200 261 314 370
#     4  11  22  41  61  91 122 163 213 257 311 375
#     4  10  23  40  63  88 124 163 211 264 307 373
#     4  12  23  38  64  86 118 169 209 250 320 370
#
# _framework density 19.395526
#
# number of rings (size 3 to 8) (size 9 to 14) (size 15 to 20)
#    0.000    1.000    5.000    4.500    0.000    0.000 
#    0.750    0.000    0.000    0.000    0.000    0.000 
#    0.000    0.000    0.000    0.000    0.000    0.000 
#
# Total GULP energy -595022.346234 kJ/mol
# GULP energy per Si atom -12396.298880 kJ/mol
# Density = 1.935138 g / cm^3
# Si number density = 19.395526 Si / 1000 Ang^3
#
#
#
# Elastic Constant Matrix: (Units=GPa)
#
#
# Indices 1 2 3 4 5 6 
#
# 1 88.1619 30.3994 25.9119 3.9041 0.0000 0.0000
# 2 30.3994 88.1619 25.9119 -3.9041 0.0000 0.0000
# 3 25.9119 25.9119 122.4206 0.0000 0.0000 0.0000
# 4 3.9041 -3.9041 0.0000 22.7802 0.0000 0.0000
# 5 0.0000 0.0000 0.0000 0.0000 22.7802 3.9041
# 6 0.0000 0.0000 0.0000 0.0000 3.9041 28.8812
#
#
#
# Elastic Compliance Matrix: (Units=1/GPa)
#
#
# Indices 1 2 3 4 5 6 
#
# 1 0.013509 -0.004214 -0.001967 -0.003037 0.000000 0.000000
# 2 -0.004214 0.013509 -0.001967 0.003037 0.000000 0.000000
# 3 -0.001967 -0.001967 0.009001 0.000000 0.000000 0.000000
# 4 -0.003037 0.003037 0.000000 0.044939 0.000000 0.000000
# 5 0.000000 0.000000 0.000000 0.000000 0.044939 -0.006075
# 6 0.000000 0.000000 0.000000 0.000000 -0.006075 0.035446
#
#
# Mechanical properties :
#
#
# Convention : Reuss Voigt Hill
#
# Bulk Modulus (GPa) = 50.70737 51.46562 51.08649
# Shear Modulus (GPa) = 27.14243 29.32307 28.23275
#
# Velocity S-wave (km/s) = 3.74494 3.89247 3.81941
# Velocity P-wave (km/s) = 6.70075 6.84062 6.77105
#
# Compressibility (1/GPa) = 0.01972100
#
# Stress axis : x y z
#
# Youngs Moduli (GPa) = 74.02685 74.02685 111.09436
#
# Poissons Ratio (x) = 0.31197 0.21855
# Poissons Ratio (y) = 0.31197 0.21855
# Poissons Ratio (z) = 0.14563 0.14563
#
# Static dielectric constant tensor:
#      x y z
#    x 3.427870 0.000000 0.000000 
#    y 0.000000 3.427870 0.000000 
#    z 0.000000 0.000000 4.009000 
# 
# 
# High freq. dielectric constant tensor:
#      x y z
#    x 1.730710 0.000000 0.000000 
#    y 0.000000 1.730710 0.000000 
#    z 0.000000 0.000000 1.776500 
# 
# From -- ./inp_files/1756.got.cif
#   From: 2010.03.12/outbox.cif.g09.slc.cpg/sg161_cif.got.tgz:1756.got - 2010.04.02 06:27:14.
