data_PCOD8322523
_publ_section_title
;
Structure prediction by ZEFSAII (Michael W. Deem and Ramdas Pophale) SiO2 
 PCOD8322523
Probable space group: R 3 2
;
_chemical_formula_sum "Si O2"
_cell_formula_units_Z 108
_cell_length_a 23.354392
_cell_length_b 23.354392
_cell_length_c 12.139514
_cell_angle_alpha 90.000000
_cell_angle_beta 90.000000
_cell_angle_gamma 120.000000
_cell_volume 5734.150178
_symmetry_space_group_name_H-M "R 3 2"
_symmetry_group_IT_number 155
_symmetry_cell_setting 'hexagonal'
loop_
_space_group_symop_operation_xyz
x,y,z
-y,x-y,z
-x+y,-x,z
x-y,-y,-z
-x,-x+y,-z
y,x,-z
2/3+x,1/3+y,1/3+z
2/3-y,1/3+x-y,1/3+z
2/3-x+y,1/3-x,1/3+z
2/3+x-y,1/3-y,1/3-z
2/3-x,1/3-x+y,1/3-z
2/3+y,1/3+x,1/3-z
1/3+x,2/3+y,2/3+z
1/3-y,2/3+x-y,2/3+z
1/3-x+y,2/3-x,2/3+z
1/3+x-y,2/3-y,2/3-z
1/3-x,2/3-x+y,2/3-z
1/3+y,2/3+x,2/3-z
loop_
_atom_site_type_symbol
_atom_site_label
_atom_site_fract_x
_atom_site_fract_y
_atom_site_fract_z
Si Si1 0.409045 0.819788 0.647930
Si Si2 0.074707 0.510726 0.465107
Si Si3 0.597832 0.801192 0.518339
Si Si4 0.180329 0.271540 0.594834
Si Si5 0.980897 0.265153 0.872130
Si Si6 0.076180 0.610007 0.020631
O O1 0.333334 0.762925 0.666667
O O2 0.455327 0.788660 0.666667
O O3 0.430442 0.863771 0.536238
O O4 0.419577 0.869149 0.744662
O O5 0.085338 0.534891 0.338160
O O6 0.078359 0.444385 0.466034
O O7 0.000000 0.494319 0.500000
O O8 0.648447 0.869806 0.579756
O O9 0.636168 0.759840 0.504946
O O10 0.567199 0.811603 0.406544
O O11 0.162588 0.241296 0.471405
O O12 0.224416 0.246286 0.656445
O O13 0.985838 0.333334 0.833334
O O14 0.000000 0.265499 0.000000
O O15 0.000000 0.583317 0.000000
#
# Coordination Sequence:
#
# PCOD8322523 Si02
#       6
#    18  18  18  18  18  18
#     4  12  23  38  59  86 121 158 201 253 308 367
#     4  11  19  37  59  85 115 153 194 244 305 362
#     4  11  19  39  59  85 119 151 204 251 300 367
#     4  10  20  37  56  82 115 156 196 236 309 359
#     4  11  21  37  60  87 126 160 194 251 307 373
#     4   9  21  37  56  80 119 153 194 253 294 366
#
# _framework density 18.834526
#
# number of rings (size 3 to 8) (size 9 to 14) (size 15 to 20)
#    0.000    1.333    5.000    2.167    0.000    2.667 
#    6.000    0.833    0.000    0.000    0.000    0.000 
#    0.000    0.000    0.000    0.000    0.000    0.000 
#
# Total GULP energy -446081.536685 kJ/mol
# GULP energy per Si atom -12391.153797 kJ/mol
# Density = 1.879166 g / cm^3
# Si number density = 18.834526 Si / 1000 Ang^3
#
#
#
# Elastic Constant Matrix: (Units=GPa)
#
#
# Indices 1 2 3 4 5 6 
#
# 1 71.6211 25.8312 31.2084 5.8117 -0.0005 0.0001
# 2 25.8312 71.6210 31.2077 -5.8118 0.0005 0.0000
# 3 31.2084 31.2077 109.4366 -0.0002 0.0001 0.0004
# 4 5.8117 -5.8118 -0.0002 18.3607 -0.0001 0.0006
# 5 -0.0005 0.0005 0.0001 -0.0001 18.3608 5.8118
# 6 0.0001 0.0000 0.0004 0.0006 5.8118 22.8950
#
#
#
# Elastic Compliance Matrix: (Units=1/GPa)
#
#
# Indices 1 2 3 4 5 6 
#
# 1 0.018151 -0.005596 -0.003580 -0.007517 0.000001 0.000000
# 2 -0.005596 0.018151 -0.003580 0.007517 -0.000001 0.000000
# 3 -0.003580 -0.003580 0.011180 0.000000 0.000000 0.000000
# 4 -0.007517 0.007517 0.000000 0.059223 0.000000 -0.000002
# 5 0.000001 -0.000001 0.000000 0.000000 0.059222 -0.015033
# 6 0.000000 0.000000 0.000000 -0.000002 -0.015033 0.047494
#
#
# Mechanical properties :
#
#
# Convention : Reuss Voigt Hill
#
# Bulk Modulus (GPa) = 45.52096 47.68591 46.60344
# Shear Modulus (GPa) = 20.30408 22.88539 21.59474
#
# Velocity S-wave (km/s) = 3.28689 3.48958 3.38975
# Velocity P-wave (km/s) = 6.21500 6.45054 6.33387
#
# Compressibility (1/GPa) = 0.02196790
#
# Stress axis : x y z
#
# Youngs Moduli (GPa) = 55.09412 55.09445 89.44853
#
# Poissons Ratio (x) = 0.30832 0.32025
# Poissons Ratio (y) = 0.30832 0.32023
# Poissons Ratio (z) = 0.19725 0.19724
#
# Static dielectric constant tensor:
#      x y z
#    x 3.537900 0.000000 0.000000 
#    y 0.000000 3.537900 0.000000 
#    z 0.000000 0.000000 3.761700 
# 
# 
# High freq. dielectric constant tensor:
#      x y z
#    x 1.721470 0.000000 0.000000 
#    y 0.000000 1.721470 0.000000 
#    z 0.000000 0.000000 1.736640 
# 
# From -- ./inp_files/4062.got.cif
#   From: 2010.03.12/outbox.cif.g09.slc.cpg/sg155_3_cif.got.tgz:4062.got - 2010.04.03 13:54:13.
