data_PCOD8322814
_publ_section_title
;
Structure prediction by ZEFSAII (Michael W. Deem and Ramdas Pophale) SiO2 
 PCOD8322814
Probable space group: P 3 1 C
;
_chemical_formula_sum "Si O2"
_cell_formula_units_Z 34
_cell_length_a 13.973807
_cell_length_b 13.973807
_cell_length_c 9.911390
_cell_angle_alpha 90.000000
_cell_angle_beta 90.000000
_cell_angle_gamma 120.000000
_cell_volume 1676.079748
_symmetry_space_group_name_H-M "P 3 1 C"
_symmetry_group_IT_number 159
_symmetry_cell_setting 'hexagonal'
loop_
_space_group_symop_operation_xyz
x,y,z
-y,x-y,z
-x+y,-x,z
y,x,1/2+z
x-y,-y,1/2+z
-x,-x+y,1/2+z
loop_
_atom_site_type_symbol
_atom_site_label
_atom_site_fract_x
_atom_site_fract_y
_atom_site_fract_z
Si Si1 0.333334 0.666667 0.371976
Si Si2 0.111662 0.130128 0.517019
Si Si3 0.234917 0.463696 0.873615
Si Si4 0.019063 0.762938 0.772815
Si Si5 0.401077 0.493883 0.291207
Si Si6 0.666667 0.333334 0.191129
Si Si7 0.531819 0.082753 0.499922
O O1 0.340447 0.563316 0.315563
O O2 0.333334 0.666667 0.531933
O O3 0.192249 0.220416 0.622557
O O4 0.149930 0.181178 0.368826
O O5 0.116023 0.016097 0.532700
O O6 0.201688 0.342863 0.823328
O O7 0.258834 0.541455 0.743358
O O8 0.133316 0.454360 0.960405
O O9 0.341579 0.514489 0.969354
O O10 0.939085 0.632159 0.770099
O O11 0.477515 0.507731 0.418857
O O12 0.478970 0.535203 0.158853
#
# Coordination Sequence:
#
# PCOD8322814 Si02
#       7
#     2   6   6   6   6   2   6
#     4  12  27  43  65  97 141 172 224 286 336 385
#     4  10  23  42  63  89 130 162 213 267 331 391
#     4   9  20  38  67  89 132 170 213 260 330 390
#     4  11  21  41  68  93 126 176 216 268 325 397
#     4  11  25  41  67  93 134 172 221 274 333 398
#     4   9  21  37  65  94 132 172 206 262 330 388
#     4  10  21  42  63  97 129 172 213 267 329 397
#
# _framework density 20.285430999999999
#
# number of rings (size 3 to 8) (size 9 to 14) (size 15 to 20)
#    0.353    1.412    0.000    4.588    9.882    0.000 
#    9.529    0.000    0.000    0.000    0.000    0.000 
#    0.000    0.000    0.000    0.000    0.000    0.000 
#
# Total GULP energy -421730.019795 kJ/mol
# GULP energy per Si atom -12403.824112 kJ/mol
# Density = 2.023926 g / cm^3
# Si number density = 20.285431 Si / 1000 Ang^3
#
#
#
# Elastic Constant Matrix: (Units=GPa)
#
#
# Indices 1 2 3 4 5 6 
#
# 1 88.8404 40.1376 21.4161 0.0000 -2.4481 -0.0002
# 2 40.1376 88.8409 21.4161 -0.0001 2.4481 0.0007
# 3 21.4161 21.4161 122.9816 0.0002 0.0001 0.0000
# 4 0.0000 -0.0001 0.0002 30.8899 0.0001 2.4481
# 5 -2.4481 2.4481 0.0001 0.0001 30.8898 0.0000
# 6 -0.0002 0.0007 0.0000 2.4481 0.0000 24.3521
#
#
#
# Elastic Compliance Matrix: (Units=1/GPa)
#
#
# Indices 1 2 3 4 5 6 
#
# 1 0.014463 -0.006234 -0.001433 0.000000 0.001640 0.000000
# 2 -0.006234 0.014463 -0.001433 0.000000 -0.001640 0.000000
# 3 -0.001433 -0.001433 0.008630 0.000000 0.000000 0.000000
# 4 0.000000 0.000000 0.000000 0.032633 0.000000 -0.003281
# 5 0.001640 -0.001640 0.000000 0.000000 0.032633 0.000000
# 6 0.000000 0.000000 0.000000 -0.003281 0.000000 0.041394
#
#
# Mechanical properties :
#
#
# Convention : Reuss Voigt Hill
#
# Bulk Modulus (GPa) = 51.66209 51.84474 51.75342
# Shear Modulus (GPa) = 29.60858 31.73922 30.67390
#
# Velocity S-wave (km/s) = 3.82461 3.95983 3.89281
# Velocity P-wave (km/s) = 6.71017 6.82057 6.76560
#
# Compressibility (1/GPa) = 0.01935655
#
# Stress axis : x y z
#
# Youngs Moduli (GPa) = 69.14022 69.14065 115.86954
#
# Poissons Ratio (x) = 0.43104 0.16605
# Poissons Ratio (y) = 0.43103 0.16604
# Poissons Ratio (z) = 0.09908 0.09908
#
# Static dielectric constant tensor:
#      x y z
#    x 3.624740 0.000000 0.000000 
#    y 0.000000 3.624730 0.000000 
#    z 0.000000 0.000000 3.666300 
# 
# 
# High freq. dielectric constant tensor:
#      x y z
#    x 1.786550 0.000000 0.000000 
#    y 0.000000 1.786550 0.000000 
#    z 0.000000 0.000000 1.802000 
# 
# From -- ./inp_files/402.got.cif
#   From: 2010.03.12/outbox.cif.g09.slc.cpg/sg159_cif.got.tgz:402.got - 2010.04.03 14:00:19.
