data_PCOD8322600
_publ_section_title
;
Structure prediction by ZEFSAII (Michael W. Deem and Ramdas Pophale) SiO2 
 PCOD8322600
Probable space group: R 3 2
;
_chemical_formula_sum "Si O2"
_cell_formula_units_Z 75
_cell_length_a 10.946087
_cell_length_b 10.946087
_cell_length_c 30.213528
_cell_angle_alpha 90.000000
_cell_angle_beta 90.000000
_cell_angle_gamma 120.000000
_cell_volume 3135.088921
_symmetry_space_group_name_H-M "R 3 2"
_symmetry_group_IT_number 155
_symmetry_cell_setting 'hexagonal'
loop_
_space_group_symop_operation_xyz
x,y,z
-y,x-y,z
-x+y,-x,z
x-y,-y,-z
-x,-x+y,-z
y,x,-z
2/3+x,1/3+y,1/3+z
2/3-y,1/3+x-y,1/3+z
2/3-x+y,1/3-x,1/3+z
2/3+x-y,1/3-y,1/3-z
2/3-x,1/3-x+y,1/3-z
2/3+y,1/3+x,1/3-z
1/3+x,2/3+y,2/3+z
1/3-y,2/3+x-y,2/3+z
1/3-x+y,2/3-x,2/3+z
1/3+x-y,2/3-y,2/3-z
1/3-x,2/3-x+y,2/3-z
1/3+y,2/3+x,2/3-z
loop_
_atom_site_type_symbol
_atom_site_label
_atom_site_fract_x
_atom_site_fract_y
_atom_site_fract_z
Si Si1 0.000000 0.000000 0.267080
Si Si2 0.333334 0.375420 0.666667
Si Si3 0.000000 0.000000 0.162868
Si Si4 0.167783 0.141066 0.405452
Si Si5 0.422592 0.972695 0.796124
Si Si6 0.690405 0.757955 0.709129
O O1 0.871328 0.854283 0.284358
O O2 0.000000 0.000000 0.214980
O O3 0.221812 0.240485 0.639072
O O4 0.236565 0.405335 0.699842
O O5 0.062951 0.158361 0.146797
O O6 0.271600 0.194950 0.448282
O O7 0.026359 0.150992 0.406928
O O8 0.332517 0.954245 0.752439
O O9 0.388477 0.055143 0.833334
O O10 0.682703 0.666667 0.666667
#
# Coordination Sequence:
#
# PCOD8322600 Si02
#       6
#     6   9   6  18  18  18
#     4  12  30  48  84 109 161 211 270 345 402 499
#     4  12  26  44  80 112 158 202 258 338 398 488
#     4  12  27  54  76 124 156 220 274 330 426 490
#     4  10  27  48  74 118 153 209 264 326 405 488
#     4  12  26  51  78 112 165 212 276 333 405 501
#     4  12  29  49  75 118 156 211 267 337 411 483
#
# _framework density 23.922765999999999
#
# number of rings (size 3 to 8) (size 9 to 14) (size 15 to 20)
#    0.480    0.000    4.800    1.440    8.400    0.960 
#    5.040    0.000    0.000    0.000    0.000    0.000 
#    0.000    0.000    0.000    0.000    0.000    0.000 
#
# Total GULP energy -309785.428487 kJ/mol
# GULP energy per Si atom -12391.417139 kJ/mol
# Density = 2.386832 g / cm^3
# Si number density = 23.922766 Si / 1000 Ang^3
#
#
#
# Elastic Constant Matrix: (Units=GPa)
#
#
# Indices 1 2 3 4 5 6 
#
# 1 135.1708 44.1323 64.3334 -1.3378 -0.0009 0.0000
# 2 44.1323 135.1708 64.3334 1.3378 0.0009 0.0000
# 3 64.3334 64.3334 184.5487 0.0000 0.0000 0.0000
# 4 -1.3378 1.3378 0.0000 48.4088 0.0000 0.0009
# 5 -0.0009 0.0009 0.0000 0.0000 48.4088 -1.3378
# 6 0.0000 0.0000 0.0000 0.0009 -1.3378 45.5193
#
#
#
# Elastic Compliance Matrix: (Units=1/GPa)
#
#
# Indices 1 2 3 4 5 6 
#
# 1 0.009215 -0.001778 -0.002593 0.000304 0.000000 0.000000
# 2 -0.001778 0.009215 -0.002593 -0.000304 0.000000 0.000000
# 3 -0.002593 -0.002593 0.007226 0.000000 0.000000 0.000000
# 4 0.000304 -0.000304 0.000000 0.020674 0.000000 0.000000
# 5 0.000000 0.000000 0.000000 0.000000 0.020674 0.000608
# 6 0.000000 0.000000 0.000000 0.000000 0.000608 0.021987
#
#
# Mechanical properties :
#
#
# Convention : Reuss Voigt Hill
#
# Bulk Modulus (GPa) = 85.24703 88.94319 87.09511
# Shear Modulus (GPa) = 46.80373 47.27347 47.03860
#
# Velocity S-wave (km/s) = 4.42798 4.45014 4.43907
# Velocity P-wave (km/s) = 7.86475 7.97904 7.92210
#
# Compressibility (1/GPa) = 0.01173061
#
# Stress axis : x y z
#
# Youngs Moduli (GPa) = 108.51287 108.51287 138.38347
#
# Poissons Ratio (x) = 0.19291 0.35880
# Poissons Ratio (y) = 0.19291 0.35880
# Poissons Ratio (z) = 0.28135 0.28135
#
# Static dielectric constant tensor:
#      x y z
#    x 4.694240 0.000000 0.000000 
#    y 0.000000 4.694240 0.000000 
#    z 0.000000 0.000000 4.654890 
# 
# 
# High freq. dielectric constant tensor:
#      x y z
#    x 1.957420 0.000000 0.000000 
#    y 0.000000 1.957420 0.000000 
#    z 0.000000 0.000000 1.964990 
# 
# From -- ./inp_files/8328.got.cif
#   From: 2010.03.12/outbox.cif.g09.slc.cpg/sg155_5_cif.got.tgz:8328.got - 2010.04.03 13:54:13.
