data_PCOD8322508
_publ_section_title
;
Structure prediction by ZEFSAII (Michael W. Deem and Ramdas Pophale) SiO2 
 PCOD8322508
Probable space group: R 3 2
;
_chemical_formula_sum "Si O2"
_cell_formula_units_Z 84
_cell_length_a 17.466048
_cell_length_b 17.466048
_cell_length_c 18.081912
_cell_angle_alpha 90.000000
_cell_angle_beta 90.000000
_cell_angle_gamma 120.000000
_cell_volume 4777.099441
_symmetry_space_group_name_H-M "R 3 2"
_symmetry_group_IT_number 155
_symmetry_cell_setting 'hexagonal'
loop_
_space_group_symop_operation_xyz
x,y,z
-y,x-y,z
-x+y,-x,z
x-y,-y,-z
-x,-x+y,-z
y,x,-z
2/3+x,1/3+y,1/3+z
2/3-y,1/3+x-y,1/3+z
2/3-x+y,1/3-x,1/3+z
2/3+x-y,1/3-y,1/3-z
2/3-x,1/3-x+y,1/3-z
2/3+y,1/3+x,1/3-z
1/3+x,2/3+y,2/3+z
1/3-y,2/3+x-y,2/3+z
1/3-x+y,2/3-x,2/3+z
1/3+x-y,2/3-y,2/3-z
1/3-x,2/3-x+y,2/3-z
1/3+y,2/3+x,2/3-z
loop_
_atom_site_type_symbol
_atom_site_label
_atom_site_fract_x
_atom_site_fract_y
_atom_site_fract_z
Si Si1 0.134530 0.994512 0.082270
Si Si2 0.028319 0.539641 0.729035
Si Si3 0.333334 0.666667 0.842214
Si Si4 0.500746 0.248224 0.882361
Si Si5 0.000000 0.000000 0.648427
Si Si6 0.398656 0.258899 0.233764
O O1 0.173578 0.927876 0.075480
O O2 0.053910 0.954992 0.141230
O O3 0.205301 0.089728 0.112404
O O4 0.099909 0.000000 0.000000
O O5 0.082948 0.635185 0.766946
O O6 0.013171 0.552505 0.643413
O O7 0.933426 0.476390 0.763031
O O8 0.333334 0.666667 0.930093
O O9 0.528120 0.333334 0.833334
O O10 0.508893 0.175560 0.833334
O O11 0.565726 0.275558 0.953215
O O12 0.333334 0.227995 0.166667
#
# Coordination Sequence:
#
# PCOD8322508 Si02
#       6
#    18  18   6  18   6  18
#     4  10  20  34  52  79 109 145 178 216 270 322
#     4  10  20  34  57  80 106 145 185 217 269 329
#     4  12  19  32  61  78 112 137 187 228 250 347
#     4   9  19  39  59  77 107 141 186 230 275 322
#     4   9  22  35  58  87 100 143 181 234 280 308
#     4  10  21  34  51  80 113 142 174 223 271 320
#
# _framework density 17.583891999999999
#
# number of rings (size 3 to 8) (size 9 to 14) (size 15 to 20)
#    0.000    2.143    2.143    2.143    3.000    0.857 
#    0.000    0.000    0.000    2.571    0.000    0.000 
#    0.000    0.000    0.000    0.000    0.000    0.000 
#
# Total GULP energy -347022.891566 kJ/mol
# GULP energy per Si atom -12393.674699 kJ/mol
# Density = 1.754387 g / cm^3
# Si number density = 17.583892 Si / 1000 Ang^3
#
#
#
# Elastic Constant Matrix: (Units=GPa)
#
#
# Indices 1 2 3 4 5 6 
#
# 1 114.7244 64.2115 59.2716 -5.3125 0.0002 0.0000
# 2 64.2115 114.7250 59.2717 5.3124 -0.0002 0.0000
# 3 59.2716 59.2717 132.6576 -0.0001 0.0000 0.0000
# 4 -5.3125 5.3124 -0.0001 20.7695 0.0000 -0.0002
# 5 0.0002 -0.0002 0.0000 0.0000 20.7696 -5.3124
# 6 0.0000 0.0000 0.0000 -0.0002 -5.3124 25.2562
#
#
#
# Elastic Compliance Matrix: (Units=1/GPa)
#
#
# Indices 1 2 3 4 5 6 
#
# 1 0.014430 -0.006492 -0.003547 0.005352 0.000000 0.000000
# 2 -0.006492 0.014430 -0.003547 -0.005352 0.000000 0.000000
# 3 -0.003547 -0.003547 0.010708 0.000000 0.000000 0.000000
# 4 0.005352 -0.005352 0.000000 0.050885 0.000000 0.000000
# 5 0.000000 0.000000 0.000000 0.000000 0.050885 0.010703
# 6 0.000000 0.000000 0.000000 0.000000 0.010703 0.041846
#
#
# Mechanical properties :
#
#
# Convention : Reuss Voigt Hill
#
# Bulk Modulus (GPa) = 80.66520 80.84628 80.75574
# Shear Modulus (GPa) = 23.31135 25.31589 24.31362
#
# Velocity S-wave (km/s) = 3.64500 3.79848 3.72253
# Velocity P-wave (km/s) = 7.98052 8.08178 8.03131
#
# Compressibility (1/GPa) = 0.01239692
#
# Stress axis : x y z
#
# Youngs Moduli (GPa) = 69.29794 69.29833 93.39084
#
# Poissons Ratio (x) = 0.44989 0.33124
# Poissons Ratio (y) = 0.44989 0.33124
# Poissons Ratio (z) = 0.24579 0.24579
#
# Static dielectric constant tensor:
#      x y z
#    x 3.362730 0.000000 0.000000 
#    y 0.000000 3.362730 0.000000 
#    z 0.000000 0.000000 3.190030 
# 
# 
# High freq. dielectric constant tensor:
#      x y z
#    x 1.677260 0.000000 0.000000 
#    y 0.000000 1.677260 0.000000 
#    z 0.000000 0.000000 1.675740 
# 
# From -- ./inp_files/5017.got.cif
#   From: 2010.03.12/outbox.cif.g09.slc.cpg/sg155_3_cif.got.tgz:5017.got - 2010.04.03 13:54:13.
