data_PCOD8322774
_publ_section_title
;
Structure prediction by ZEFSAII (Michael W. Deem and Ramdas Pophale) SiO2 
 PCOD8322774
Probable space group: P 3 C 1
;
_chemical_formula_sum "Si O2"
_cell_formula_units_Z 32
_cell_length_a 11.111919
_cell_length_b 11.111919
_cell_length_c 14.098811
_cell_angle_alpha 90.000000
_cell_angle_beta 90.000000
_cell_angle_gamma 120.000000
_cell_volume 1507.617793
_symmetry_space_group_name_H-M "P 3 C 1"
_symmetry_group_IT_number 158
_symmetry_cell_setting 'hexagonal'
loop_
_space_group_symop_operation_xyz
x,y,z
-y,x-y,z
-x+y,-x,z
-x+y,y,1/2+z
x,x-y,1/2+z
-y,-x,1/2+z
loop_
_atom_site_type_symbol
_atom_site_label
_atom_site_fract_x
_atom_site_fract_y
_atom_site_fract_z
Si Si1 0.000000 0.000000 0.115146
Si Si2 0.948475 0.709549 0.674716
Si Si3 0.564247 0.743609 0.728814
Si Si4 0.777878 0.077276 0.331701
Si Si5 0.333335 0.666668 0.597101
Si Si6 0.498379 0.301724 0.506877
Si Si7 0.333335 0.666668 0.368695
Si Si8 0.000000 0.000000 0.893762
O O1 0.911201 0.841815 0.149963
O O2 0.000000 0.000000 0.004300
O O3 0.876926 0.655810 0.777402
O O4 0.870607 0.584002 0.602364
O O5 0.107627 0.755341 0.680210
O O6 0.657059 0.676829 0.758161
O O7 0.457474 0.649063 0.644864
O O8 0.489119 0.751264 0.826050
O O9 0.712950 0.110335 0.421607
O O10 0.861856 0.998412 0.358840
O O11 0.333334 0.666667 0.483341
O O12 0.545988 0.184617 0.502956
#
# Coordination Sequence:
#
# PCOD8322774 Si02
#       8
#     2   6   6   6   2   6   2   2
#     4  12  22  41  73 115 131 181 241 305 379 406
#     4  12  23  45  74 102 150 179 241 308 352 432
#     4  10  24  44  70 112 132 188 236 298 366 412
#     4  12  23  45  74 102 150 179 241 308 352 432
#     4  10  26  49  70 104 148 187 251 277 355 449
#     4  10  28  48  64 110 140 198 242 270 366 438
#     4  10  26  49  70 104 148 187 251 277 355 449
#     4  12  22  41  73 115 131 181 241 305 379 406
#
# _framework density 21.225539999999999
#
# number of rings (size 3 to 8) (size 9 to 14) (size 15 to 20)
#    0.375    0.750    5.625    0.000    2.625    7.500 
#    3.375    0.000    0.000    0.000    0.000    0.000 
#    0.000    0.000    0.000    0.000    0.000    0.000 
#
# Total GULP energy -396669.695467 kJ/mol
# GULP energy per Si atom -12395.927983 kJ/mol
# Density = 2.117723 g / cm^3
# Si number density = 21.225540 Si / 1000 Ang^3
#
#
#
# Elastic Constant Matrix: (Units=GPa)
#
#
# Indices 1 2 3 4 5 6 
#
# 1 309.6566 -207.5896 21.4685 122.4573 0.0000 0.0000
# 2 -207.5896 309.6513 21.4797 -122.4559 0.0000 0.0000
# 3 21.4685 21.4797 139.4852 -0.0031 0.0000 0.0000
# 4 122.4573 -122.4559 -0.0031 106.3031 0.0000 0.0000
# 5 0.0000 0.0000 0.0000 0.0000 106.2695 122.3937
# 6 0.0000 0.0000 0.0000 0.0000 122.3937 258.5051
#
#
#
# Elastic Compliance Matrix: (Units=1/GPa)
#
#
# Indices 1 2 3 4 5 6 
#
# 1 0.007365 0.003112 -0.001613 -0.004900 0.000000 0.000000
# 2 0.003112 0.007365 -0.001613 0.004900 0.000000 0.000000
# 3 -0.001613 -0.001613 0.007666 0.000000 0.000000 0.000000
# 4 -0.004900 0.004900 0.000000 0.020695 0.000000 0.000000
# 5 0.000000 0.000000 0.000000 0.000000 0.020695 -0.009799
# 6 0.000000 0.000000 0.000000 0.000000 -0.009799 0.008508
#
#
# Mechanical properties :
#
#
# Convention : Reuss Voigt Hill
#
# Bulk Modulus (GPa) = 45.11168 47.72335 46.41752
# Shear Modulus (GPa) = 62.56947 155.77784 109.17366
#
# Velocity S-wave (km/s) = 5.43529 8.57619 7.17960
# Velocity P-wave (km/s) = 7.79034 10.98184 9.52077
#
# Compressibility (1/GPa) = 0.02216721
#
# Stress axis : x y z
#
# Youngs Moduli (GPa) = 135.78154 135.77885 130.44896
#
# Poissons Ratio (x) = -0.42249 0.21039
# Poissons Ratio (y) = -0.42250 0.21041
# Poissons Ratio (z) = 0.21899 0.21900
#
# Static dielectric constant tensor:
#      x y z
#    x 2.219990 0.000000 0.000000 
#    y 0.000000 2.219380 -0.000010 
#    z 0.000000 -0.000010 3.859680 
# 
# 
# High freq. dielectric constant tensor:
#      x y z
#    x 1.830300 0.000000 0.000000 
#    y 0.000000 1.830300 0.000000 
#    z 0.000000 0.000000 1.840890 
# 
# From -- ./inp_files/469.got.cif
#   From: 2010.03.12/outbox.cif.g09.slc.cpg/sg158_cif.got.tgz:469.got - 2010.04.03 13:59:47.
