data_PCOD8322581
_publ_section_title
;
Structure prediction by ZEFSAII (Michael W. Deem and Ramdas Pophale) SiO2 
 PCOD8322581
Probable space group: R 3 2
;
_chemical_formula_sum "Si O2"
_cell_formula_units_Z 75
_cell_length_a 13.864906
_cell_length_b 13.864906
_cell_length_c 21.501079
_cell_angle_alpha 90.000000
_cell_angle_beta 90.000000
_cell_angle_gamma 120.000000
_cell_volume 3579.519607
_symmetry_space_group_name_H-M "R 3 2"
_symmetry_group_IT_number 155
_symmetry_cell_setting 'hexagonal'
loop_
_space_group_symop_operation_xyz
x,y,z
-y,x-y,z
-x+y,-x,z
x-y,-y,-z
-x,-x+y,-z
y,x,-z
2/3+x,1/3+y,1/3+z
2/3-y,1/3+x-y,1/3+z
2/3-x+y,1/3-x,1/3+z
2/3+x-y,1/3-y,1/3-z
2/3-x,1/3-x+y,1/3-z
2/3+y,1/3+x,1/3-z
1/3+x,2/3+y,2/3+z
1/3-y,2/3+x-y,2/3+z
1/3-x+y,2/3-x,2/3+z
1/3+x-y,2/3-y,2/3-z
1/3-x,2/3-x+y,2/3-z
1/3+y,2/3+x,2/3-z
loop_
_atom_site_type_symbol
_atom_site_label
_atom_site_fract_x
_atom_site_fract_y
_atom_site_fract_z
Si Si1 0.109691 0.508332 0.603478
Si Si2 0.171819 0.333334 0.333334
Si Si3 0.348850 0.934603 0.235787
Si Si4 0.000000 0.000000 0.879980
Si Si5 0.557178 0.804806 0.991204
Si Si6 0.666667 0.333334 0.599135
O O1 0.159301 0.492634 0.666667
O O2 0.206358 0.617824 0.569978
O O3 0.072507 0.400753 0.560364
O O4 0.004023 0.523938 0.617642
O O5 0.107696 0.340395 0.272325
O O6 0.185843 0.227181 0.332591
O O7 0.333334 0.882770 0.166667
O O8 0.429298 0.904553 0.274773
O O9 0.000000 0.000000 0.807223
O O10 0.456937 0.699991 0.955995
#
# Coordination Sequence:
#
# PCOD8322581 Si02
#       6
#    18   9  18   6  18   6
#     4  10  23  44  66  96 137 177 217 286 345 405
#     4  12  24  46  70  98 134 180 226 284 338 412
#     4  11  24  45  70  99 136 180 225 280 341 406
#     4  12  28  37  72 103 136 177 241 275 337 432
#     4  11  24  45  70  93 140 178 220 281 353 394
#     4  12  24  46  65 100 135 186 223 290 343 396
#
# _framework density 20.952532999999999
#
# number of rings (size 3 to 8) (size 9 to 14) (size 15 to 20)
#    0.000    0.960    6.000    0.720   13.440    0.960 
#    0.000    2.400    0.000    0.000    0.000    0.000 
#    0.000    0.000    0.000    0.000    0.000    0.000 
#
# Total GULP energy -310026.876726 kJ/mol
# GULP energy per Si atom -12401.075069 kJ/mol
# Density = 2.090484 g / cm^3
# Si number density = 20.952533 Si / 1000 Ang^3
#
#
#
# Elastic Constant Matrix: (Units=GPa)
#
#
# Indices 1 2 3 4 5 6 
#
# 1 102.4598 46.9913 50.9282 7.2028 0.0003 0.0000
# 2 46.9913 102.4596 50.9287 -7.2028 -0.0003 0.0000
# 3 50.9282 50.9287 144.2299 0.0003 0.0000 0.0000
# 4 7.2028 -7.2028 0.0003 14.1537 0.0000 -0.0003
# 5 0.0003 -0.0003 0.0000 0.0000 14.1531 7.2034
# 6 0.0000 0.0000 0.0000 -0.0003 7.2034 27.7339
#
#
#
# Elastic Compliance Matrix: (Units=1/GPa)
#
#
# Indices 1 2 3 4 5 6 
#
# 1 0.014793 -0.005981 -0.003111 -0.010572 0.000000 0.000000
# 2 -0.005981 0.014793 -0.003112 0.010572 0.000000 0.000000
# 3 -0.003111 -0.003112 0.009131 0.000000 0.000000 0.000000
# 4 -0.010572 0.010572 0.000000 0.081413 0.000000 0.000001
# 5 0.000000 0.000000 0.000000 0.000000 0.081419 -0.021147
# 6 0.000000 0.000000 0.000000 0.000001 -0.021147 0.041550
#
#
# Mechanical properties :
#
#
# Convention : Reuss Voigt Hill
#
# Bulk Modulus (GPa) = 69.88942 71.87176 70.88059
# Shear Modulus (GPa) = 18.36374 24.56153 21.46264
#
# Velocity S-wave (km/s) = 2.96369 3.42752 3.20401
# Velocity P-wave (km/s) = 6.71861 7.07393 6.89856
#
# Compressibility (1/GPa) = 0.01430832
#
# Stress axis : x y z
#
# Youngs Moduli (GPa) = 67.60070 67.60011 109.52005
#
# Poissons Ratio (x) = 0.40432 0.34076
# Poissons Ratio (y) = 0.40432 0.34078
# Poissons Ratio (z) = 0.21033 0.21034
#
# Static dielectric constant tensor:
#      x y z
#    x 4.206520 0.000000 0.000000 
#    y 0.000000 4.206550 0.000000 
#    z 0.000000 0.000000 3.583980 
# 
# 
# High freq. dielectric constant tensor:
#      x y z
#    x 1.829850 0.000000 0.000000 
#    y 0.000000 1.829850 0.000000 
#    z 0.000000 0.000000 1.805150 
# 
# From -- ./inp_files/6818.got.cif
#   From: 2010.03.12/outbox.cif.g09.slc.cpg/sg155_4_cif.got.tgz:6818.got - 2010.04.03 13:54:13.
