data_PCOD8322673
_publ_section_title
;
Structure prediction by ZEFSAII (Michael W. Deem and Ramdas Pophale) SiO2 
 PCOD8322673
Probable space group: P 3 M 1
;
_chemical_formula_sum "Si O2"
_cell_formula_units_Z 48
_cell_length_a 12.557105
_cell_length_b 12.557105
_cell_length_c 20.655691
_cell_angle_alpha 90.000000
_cell_angle_beta 90.000000
_cell_angle_gamma 120.000000
_cell_volume 2820.651372
_symmetry_space_group_name_H-M "P 3 M 1"
_symmetry_group_IT_number 156
_symmetry_cell_setting 'hexagonal'
loop_
_space_group_symop_operation_xyz
x,y,z
-y,x-y,z
-x+y,-x,z
-x+y,y,z
x,x-y,z
-y,-x,z
loop_
_atom_site_type_symbol
_atom_site_label
_atom_site_fract_x
_atom_site_fract_y
_atom_site_fract_z
Si Si1 0.666406 0.582156 0.193970
Si Si2 0.915751 0.333595 0.951086
Si Si3 0.998410 0.750512 0.072527
Si Si4 0.580835 0.914849 0.829879
Si Si5 0.240409 0.238795 0.572528
Si Si6 0.085152 0.665987 0.315174
Si Si7 0.997666 0.750525 0.432390
Si Si8 0.249476 0.002335 0.712665
O O1 0.779191 0.558381 0.200755
O O2 0.546533 0.453468 0.179296
O O3 0.683952 0.672502 0.135526
O O4 0.655225 0.642957 0.259607
O O5 0.906923 0.453462 0.965758
O O6 0.779198 0.220803 0.944301
O O7 0.987737 0.344781 0.885449
O O8 0.988557 0.316061 0.009531
O O9 0.894601 0.789201 0.072523
O O10 0.129293 0.870708 0.072527
O O11 0.440053 0.880105 0.826742
O O12 0.585738 0.792869 0.845084
O O13 0.643802 0.974873 0.761758
O O14 0.182393 0.091197 0.572527
O O15 0.313168 0.289945 0.504278
O O16 0.313168 0.289942 0.640778
O O17 0.137861 0.275721 0.572530
O O18 0.119891 0.559946 0.318310
O O19 0.207133 0.792868 0.299966
O O20 0.025135 0.668936 0.383297
O O21 0.109155 0.890846 0.434255
O O22 0.876172 0.752343 0.409488
O O23 0.247653 0.123827 0.735568
O O24 0.109158 0.890843 0.710802
#
# Coordination Sequence:
#
# PCOD8322673 Si02
#       8
#     6   6   6   6   6   6   6   6
#     4  10  20  34  53  75  98 124 156 197 242 285
#     4  10  20  34  53  75  98 124 156 197 242 285
#     4  10  20  34  52  74 100 128 156 186 224 272
#     4  10  20  33  48  66  92 127 164 199 234 277
#     4   8  13  22  39  64  92 118 144 180 230 286
#     4  10  20  33  48  66  92 127 164 199 234 277
#     4   9  16  27  45  69  94 118 147 187 237 288
#     4   9  16  27  45  69  94 118 147 187 237 288
#
# _framework density 17.017347000000001
#
# number of rings (size 3 to 8) (size 9 to 14) (size 15 to 20)
#    0.000    2.500    0.000    2.875    0.000    2.000 
#    0.000    1.875    0.000   12.000    0.000    1.750 
#    0.000    0.000    0.000    0.000    0.000    0.000 
#
# Total GULP energy -594959.573873 kJ/mol
# GULP energy per Si atom -12394.991122 kJ/mol
# Density = 1.697862 g / cm^3
# Si number density = 17.017347 Si / 1000 Ang^3
#
#
#
# Elastic Constant Matrix: (Units=GPa)
#
#
# Indices 1 2 3 4 5 6 
#
# 1 91.0314 52.2468 59.6604 -0.0008 0.0003 0.0000
# 2 52.2468 91.0314 59.6604 0.0008 -0.0003 0.0000
# 3 59.6604 59.6604 132.8645 0.0000 0.0000 0.0000
# 4 -0.0008 0.0008 0.0000 23.5622 0.0000 -0.0003
# 5 0.0003 -0.0003 0.0000 0.0000 23.5622 -0.0008
# 6 0.0000 0.0000 0.0000 -0.0003 -0.0008 19.3923
#
#
#
# Elastic Compliance Matrix: (Units=1/GPa)
#
#
# Indices 1 2 3 4 5 6 
#
# 1 0.018466 -0.007318 -0.005006 0.000001 0.000000 0.000000
# 2 -0.007318 0.018466 -0.005006 -0.000001 0.000000 0.000000
# 3 -0.005006 -0.005006 0.012022 0.000000 0.000000 0.000000
# 4 0.000001 -0.000001 0.000000 0.042441 0.000000 0.000001
# 5 0.000000 0.000000 0.000000 0.000000 0.042441 0.000002
# 6 0.000000 0.000000 0.000000 0.000001 0.000002 0.051567
#
#
# Mechanical properties :
#
#
# Convention : Reuss Voigt Hill
#
# Bulk Modulus (GPa) = 69.95460 73.11803 71.53632
# Shear Modulus (GPa) = 22.23938 22.86065 22.55002
#
# Velocity S-wave (km/s) = 3.61898 3.66918 3.64417
# Velocity P-wave (km/s) = 7.65897 7.81093 7.73532
#
# Compressibility (1/GPa) = 0.01429499
#
# Stress axis : x y z
#
# Youngs Moduli (GPa) = 54.15392 54.15392 83.17987
#
# Poissons Ratio (x) = 0.39627 0.41640
# Poissons Ratio (y) = 0.39627 0.41640
# Poissons Ratio (z) = 0.27109 0.27109
#
# Static dielectric constant tensor:
#      x y z
#    x 3.019830 0.000000 0.000000 
#    y 0.000000 3.019830 0.000000 
#    z 0.000000 0.000000 3.590950 
# 
# 
# High freq. dielectric constant tensor:
#      x y z
#    x 1.644090 0.000000 0.000000 
#    y 0.000000 1.644090 0.000000 
#    z 0.000000 0.000000 1.679180 
# 
# From -- ./inp_files/1082.got.cif
#   From: 2010.03.12/outbox.cif.g09.slc.cpg/sg156_cif.got.tgz:1082.got - 2010.04.03 13:58:47.
