data_PCOD8322594
_publ_section_title
;
Structure prediction by ZEFSAII (Michael W. Deem and Ramdas Pophale) SiO2 
 PCOD8322594
Probable space group: R 3 2
;
_chemical_formula_sum "Si O2"
_cell_formula_units_Z 75
_cell_length_a 11.640872
_cell_length_b 11.640872
_cell_length_c 27.704084
_cell_angle_alpha 90.000000
_cell_angle_beta 90.000000
_cell_angle_gamma 120.000000
_cell_volume 3251.213239
_symmetry_space_group_name_H-M "R 3 2"
_symmetry_group_IT_number 155
_symmetry_cell_setting 'hexagonal'
loop_
_space_group_symop_operation_xyz
x,y,z
-y,x-y,z
-x+y,-x,z
x-y,-y,-z
-x,-x+y,-z
y,x,-z
2/3+x,1/3+y,1/3+z
2/3-y,1/3+x-y,1/3+z
2/3-x+y,1/3-x,1/3+z
2/3+x-y,1/3-y,1/3-z
2/3-x,1/3-x+y,1/3-z
2/3+y,1/3+x,1/3-z
1/3+x,2/3+y,2/3+z
1/3-y,2/3+x-y,2/3+z
1/3-x+y,2/3-x,2/3+z
1/3+x-y,2/3-y,2/3-z
1/3-x,2/3-x+y,2/3-z
1/3+y,2/3+x,2/3-z
loop_
_atom_site_type_symbol
_atom_site_label
_atom_site_fract_x
_atom_site_fract_y
_atom_site_fract_z
Si Si1 0.763531 0.600168 0.592183
Si Si2 0.000000 0.000000 0.294586
Si Si3 0.333334 0.666668 0.075215
Si Si4 0.343827 0.343827 0.000000
Si Si5 0.749102 0.504080 0.489795
Si Si6 0.874152 0.169602 0.403554
O O1 0.648653 0.452822 0.607011
O O2 0.791638 0.604270 0.535014
O O3 0.717220 0.702428 0.608211
O O4 0.893157 0.625980 0.621017
O O5 0.000000 0.000000 0.351174
O O6 0.237451 0.722768 0.091699
O O7 0.206876 0.329780 0.020309
O O8 0.588380 0.405871 0.490434
O O9 0.796874 0.591461 0.442175
#
# Coordination Sequence:
#
# PCOD8322594 Si02
#       6
#    18   6   6   9  18  18
#     4  12  23  48  82 106 153 202 262 328 372 478
#     4  12  21  45  84 118 136 205 286 300 372 478
#     4  12  24  51  70 112 162 195 280 313 396 454
#     4  12  28  46  78 118 160 204 260 328 392 470
#     4  10  25  53  75 109 154 204 264 321 388 480
#     4  12  26  50  75 119 158 204 260 334 394 463
#
# _framework density 23.068311999999999
#
# number of rings (size 3 to 8) (size 9 to 14) (size 15 to 20)
#    0.480    0.000    7.200    0.720    0.000    2.880 
#   12.960    0.000    0.000    0.000    0.000    0.000 
#    0.000    0.000    0.000    0.000    0.000    0.000 
#
# Total GULP energy -309918.825097 kJ/mol
# GULP energy per Si atom -12396.753004 kJ/mol
# Density = 2.301581 g / cm^3
# Si number density = 23.068312 Si / 1000 Ang^3
#
#
#
# Elastic Constant Matrix: (Units=GPa)
#
#
# Indices 1 2 3 4 5 6 
#
# 1 125.9060 67.0156 72.0449 2.8280 0.0000 0.0000
# 2 67.0156 125.9057 72.0456 -2.8278 0.0000 0.0000
# 3 72.0449 72.0456 140.5608 -0.0003 0.0000 0.0000
# 4 2.8280 -2.8278 -0.0003 43.2139 0.0000 0.0000
# 5 0.0000 0.0000 0.0000 0.0000 43.2140 2.8278
# 6 0.0000 0.0000 0.0000 0.0000 2.8278 29.4453
#
#
#
# Elastic Compliance Matrix: (Units=1/GPa)
#
#
# Indices 1 2 3 4 5 6 
#
# 1 0.012743 -0.004345 -0.004305 -0.001118 0.000000 0.000000
# 2 -0.004345 0.012743 -0.004305 0.001118 0.000000 0.000000
# 3 -0.004305 -0.004305 0.011527 0.000000 0.000000 0.000000
# 4 -0.001118 0.001118 0.000000 0.023287 0.000000 0.000000
# 5 0.000000 0.000000 0.000000 0.000000 0.023287 -0.002236
# 6 0.000000 0.000000 0.000000 0.000000 -0.002236 0.034176
#
#
# Mechanical properties :
#
#
# Convention : Reuss Voigt Hill
#
# Bulk Modulus (GPa) = 90.04612 90.50941 90.27777
# Shear Modulus (GPa) = 33.92721 35.25909 34.59315
#
# Velocity S-wave (km/s) = 3.83917 3.91380 3.87666
# Velocity P-wave (km/s) = 7.66626 7.72945 7.69792
#
# Compressibility (1/GPa) = 0.01110542
#
# Stress axis : x y z
#
# Youngs Moduli (GPa) = 78.47253 78.47176 86.75115
#
# Poissons Ratio (x) = 0.34094 0.37344
# Poissons Ratio (y) = 0.34094 0.37345
# Poissons Ratio (z) = 0.33780 0.33781
#
# Static dielectric constant tensor:
#      x y z
#    x 4.446690 0.000000 0.000000 
#    y 0.000000 4.446710 0.000000 
#    z 0.000000 0.000000 4.023100 
# 
# 
# High freq. dielectric constant tensor:
#      x y z
#    x 1.911020 0.000000 0.000000 
#    y 0.000000 1.911020 0.000000 
#    z 0.000000 0.000000 1.909160 
# 
# From -- ./inp_files/8326.got.cif
#   From: 2010.03.12/outbox.cif.g09.slc.cpg/sg155_5_cif.got.tgz:8326.got - 2010.04.03 13:54:13.
