data_PCOD8322011
_publ_section_title
;
Structure prediction by ZEFSAII (Michael W. Deem and Ramdas Pophale) SiO2 
 PCOD8322011
Probable space group: P 31 1 2
;
_chemical_formula_sum "Si O2"
_cell_formula_units_Z 36
_cell_length_a 11.146024
_cell_length_b 11.146024
_cell_length_c 15.108853
_cell_angle_alpha 90.000000
_cell_angle_beta 90.000000
_cell_angle_gamma 120.000000
_cell_volume 1625.556523
_symmetry_space_group_name_H-M "P 31 1 2"
_symmetry_group_IT_number 151
_symmetry_cell_setting 'hexagonal'
loop_
_space_group_symop_operation_xyz
x,y,z
-y,x-y,1/3+z
-x+y,-x,2/3+z
-y,-x,2/3-z
-x+y,y,1/3-z
x,x-y,-z
loop_
_atom_site_type_symbol
_atom_site_label
_atom_site_fract_x
_atom_site_fract_y
_atom_site_fract_z
Si Si1 0.606607 0.450272 0.729614
Si Si2 0.475898 0.447672 0.200424
Si Si3 0.398266 0.796532 0.666667
Si Si4 0.822555 0.182540 0.646235
Si Si5 0.086034 0.124420 0.267052
Si Si6 0.786593 0.213408 0.833334
Si Si7 0.090008 0.396070 0.307067
O O1 0.598113 0.401888 0.833334
O O2 0.715811 0.431622 0.666667
O O3 0.451283 0.347705 0.695618
O O4 0.631992 0.606695 0.716972
O O5 0.465706 0.572949 0.246475
O O6 0.441974 0.331274 0.273565
O O7 0.620952 0.481525 0.157617
O O8 0.367795 0.389591 0.120615
O O9 0.461658 0.694231 0.658434
O O10 0.815824 0.145493 0.749318
O O11 0.910436 0.120227 0.604208
O O12 0.044772 0.089543 0.166667
O O13 0.135217 0.280158 0.299071
O O14 0.965069 0.034932 0.333334
#
# Coordination Sequence:
#
# PCOD8322011 Si02
#       7
#     6   6   3   6   6   3   6
#     4  12  28  46  75 111 149 188 244 314 379 438
#     4  12  22  44  70 108 143 187 245 298 371 441
#     4  12  24  44  74 102 148 200 248 294 366 454
#     4  12  25  44  69 106 141 187 243 297 367 436
#     4  12  27  50  74 101 146 199 249 300 371 452
#     4  12  22  40  72 108 142 180 230 316 356 424
#     4  12  25  47  73 106 144 196 244 306 364 447
#
# _framework density 22.146260000000002
#
# number of rings (size 3 to 8) (size 9 to 14) (size 15 to 20)
#    0.000    0.000    6.667    3.000    5.833    1.333 
#    1.500    0.000    0.000    0.000    0.000    0.000 
#    0.000    0.000    0.000    0.000    0.000    0.000 
#
# Total GULP energy -446137.475605 kJ/mol
# GULP energy per Si atom -12392.707656 kJ/mol
# Density = 2.209585 g / cm^3
# Si number density = 22.146260 Si / 1000 Ang^3
#
#
#
# Elastic Constant Matrix: (Units=GPa)
#
#
# Indices 1 2 3 4 5 6 
#
# 1 98.4876 24.8807 36.9678 0.0005 2.6363 0.0000
# 2 24.8807 98.4876 36.9678 -0.0005 -2.6363 0.0000
# 3 36.9678 36.9678 151.8269 0.0000 0.0000 0.0000
# 4 0.0005 -0.0005 0.0000 24.9758 0.0000 -2.6363
# 5 2.6363 -2.6363 0.0000 0.0000 24.9758 0.0005
# 6 0.0000 0.0000 0.0000 -2.6363 0.0005 36.8034
#
#
#
# Elastic Compliance Matrix: (Units=1/GPa)
#
#
# Indices 1 2 3 4 5 6 
#
# 1 0.011590 -0.002099 -0.002311 0.000000 -0.001445 0.000000
# 2 -0.002099 0.011590 -0.002311 0.000000 0.001445 0.000000
# 3 -0.002311 -0.002311 0.007712 0.000000 0.000000 0.000000
# 4 0.000000 0.000000 0.000000 0.040344 0.000000 0.002890
# 5 -0.001445 0.001445 0.000000 0.000000 0.040344 -0.000001
# 6 0.000000 0.000000 0.000000 0.002890 -0.000001 0.027378
#
#
# Mechanical properties :
#
#
# Convention : Reuss Voigt Hill
#
# Bulk Modulus (GPa) = 57.30733 60.71497 59.01115
# Shear Modulus (GPa) = 31.60233 34.01673 32.80953
#
# Velocity S-wave (km/s) = 3.78164 3.92344 3.85319
# Velocity P-wave (km/s) = 6.70825 6.92817 6.81910
#
# Compressibility (1/GPa) = 0.01744977
#
# Stress axis : x y z
#
# Youngs Moduli (GPa) = 86.28159 86.28159 129.67188
#
# Poissons Ratio (x) = 0.18113 0.29965
# Poissons Ratio (y) = 0.18113 0.29965
# Poissons Ratio (z) = 0.19938 0.19938
#
# Static dielectric constant tensor:
#      x y z
#    x 3.975840 0.000000 0.000000 
#    y 0.000000 3.975840 0.000000 
#    z 0.000000 0.000000 4.325780 
# 
# 
# High freq. dielectric constant tensor:
#      x y z
#    x 1.863240 0.000000 0.000000 
#    y 0.000000 1.863240 0.000000 
#    z 0.000000 0.000000 1.891190 
# 
# From -- ./inp_files/2961.got.cif
#   From: 2010.03.12/outbox.cif.g09.slc.cpg/sg151_2_cif.got.tgz:2961.got - 2010.04.03 13:42:29.
