data_PCOD8322831
_publ_section_title
;
Structure prediction by ZEFSAII (Michael W. Deem and Ramdas Pophale) SiO2 
 PCOD8322831
Probable space group: P 3 1 C
;
_chemical_formula_sum "Si O2"
_cell_formula_units_Z 40
_cell_length_a 11.227440
_cell_length_b 11.227440
_cell_length_c 18.562886
_cell_angle_alpha 90.000000
_cell_angle_beta 90.000000
_cell_angle_gamma 120.000000
_cell_volume 2026.458037
_symmetry_space_group_name_H-M "P 3 1 C"
_symmetry_group_IT_number 159
_symmetry_cell_setting 'hexagonal'
loop_
_space_group_symop_operation_xyz
x,y,z
-y,x-y,z
-x+y,-x,z
y,x,1/2+z
x-y,-y,1/2+z
-x,-x+y,1/2+z
loop_
_atom_site_type_symbol
_atom_site_label
_atom_site_fract_x
_atom_site_fract_y
_atom_site_fract_z
Si Si1 0.392747 0.333658 0.552630
Si Si2 0.940911 0.333658 0.894239
Si Si3 0.392746 0.059090 0.552630
Si Si4 0.392746 0.333657 0.894239
Si Si5 0.644157 0.822079 0.808826
Si Si6 0.666668 0.333335 0.308591
Si Si7 0.822078 0.644157 0.138043
Si Si8 0.666667 0.333334 0.138279
O O1 0.435297 0.217649 0.554586
O O2 0.523798 0.476204 0.578357
O O3 0.345613 0.345613 0.473435
O O4 0.264187 0.288454 0.606691
O O5 0.782352 0.217648 0.892283
O O6 0.952404 0.476202 0.868512
O O7 0.024265 0.288452 0.840178
O O8 0.000002 0.345613 0.973434
O O9 0.264185 0.975736 0.606690
O O10 0.264186 0.288451 0.840178
O O11 0.487587 0.743795 0.837902
O O12 0.659171 0.829585 0.723434
O O13 0.666668 0.333334 0.223435
O O14 0.743787 0.487586 0.108967
#
# Coordination Sequence:
#
# PCOD8322831 Si02
#       8
#     6   6   6   6   6   2   6   2
#     4  11  23  40  64  94 127 163 206 259 315 372
#     4  11  23  40  64  94 127 163 206 259 315 372
#     4  11  23  40  64  94 127 163 206 259 315 372
#     4  11  23  40  64  94 127 163 206 259 315 372
#     4  11  22  40  65  92 125 166 211 258 307 367
#     4   9  18  36  63  90 120 162 211 260 301 354
#     4  11  22  40  65  92 125 166 211 258 307 367
#     4   9  18  36  63  90 120 162 211 260 301 354
#
# _framework density 19.738873000000002
#
# number of rings (size 3 to 8) (size 9 to 14) (size 15 to 20)
#    0.000    1.200    6.000    0.600    0.000    1.200 
#    1.800    1.500    0.000    3.600    0.000    0.000 
#    0.000    0.000    0.000    0.000    0.000    0.000 
#
# Total GULP energy -496165.458163 kJ/mol
# GULP energy per Si atom -12404.136454 kJ/mol
# Density = 1.969395 g / cm^3
# Si number density = 19.738873 Si / 1000 Ang^3
#
#
#
# Elastic Constant Matrix: (Units=GPa)
#
#
# Indices 1 2 3 4 5 6 
#
# 1 91.4340 40.2055 39.6097 0.0000 -0.0002 0.0001
# 2 40.2055 91.4342 39.6097 0.0000 0.0002 0.0001
# 3 39.6097 39.6097 103.2599 0.0000 0.0000 0.0000
# 4 0.0000 0.0000 0.0000 24.7054 0.0000 0.0002
# 5 -0.0002 0.0002 0.0000 0.0000 24.7053 0.0000
# 6 0.0001 0.0001 0.0000 0.0002 0.0000 25.6143
#
#
#
# Elastic Compliance Matrix: (Units=1/GPa)
#
#
# Indices 1 2 3 4 5 6 
#
# 1 0.014698 -0.004822 -0.003789 0.000000 0.000000 0.000000
# 2 -0.004822 0.014698 -0.003788 0.000000 0.000000 0.000000
# 3 -0.003789 -0.003788 0.012591 0.000000 0.000000 0.000000
# 4 0.000000 0.000000 0.000000 0.040477 0.000000 0.000000
# 5 0.000000 0.000000 0.000000 0.000000 0.040477 0.000000
# 6 0.000000 0.000000 0.000000 0.000000 0.000000 0.039041
#
#
# Mechanical properties :
#
#
# Convention : Reuss Voigt Hill
#
# Bulk Modulus (GPa) = 58.17495 58.33089 58.25292
# Shear Modulus (GPa) = 25.97267 26.11856 26.04562
#
# Velocity S-wave (km/s) = 3.63135 3.64153 3.63645
# Velocity P-wave (km/s) = 6.86429 6.87724 6.87077
#
# Compressibility (1/GPa) = 0.01718953
#
# Stress axis : x y z
#
# Youngs Moduli (GPa) = 68.03474 68.03494 79.42319
#
# Poissons Ratio (x) = 0.32806 0.30090
# Poissons Ratio (y) = 0.32806 0.30089
# Poissons Ratio (z) = 0.25775 0.25775
#
# Static dielectric constant tensor:
#      x y z
#    x 3.596900 0.000000 0.000000 
#    y 0.000000 3.596900 0.000000 
#    z 0.000000 0.000000 3.375970 
# 
# 
# High freq. dielectric constant tensor:
#      x y z
#    x 1.768190 0.000000 0.000000 
#    y 0.000000 1.768190 0.000000 
#    z 0.000000 0.000000 1.762550 
# 
# From -- ./inp_files/1133.got.cif
#   From: 2010.03.12/outbox.cif.g09.slc.cpg/sg159_cif.got.tgz:1133.got - 2010.04.03 14:00:19.
