data_PCOD8322371
_publ_section_title
;
Structure prediction by ZEFSAII (Michael W. Deem and Ramdas Pophale) SiO2 
 PCOD8322371
Probable space group: P 32 2 1
;
_chemical_formula_sum "Si O2"
_cell_formula_units_Z 42
_cell_length_a 14.915616
_cell_length_b 14.915616
_cell_length_c 9.863343
_cell_angle_alpha 90.000000
_cell_angle_beta 90.000000
_cell_angle_gamma 120.000000
_cell_volume 1900.365580
_symmetry_space_group_name_H-M "P 32 2 1"
_symmetry_group_IT_number 154
_symmetry_cell_setting 'hexagonal'
loop_
_space_group_symop_operation_xyz
x,y,z
-y,x-y,2/3+z
-x+y,-x,1/3+z
x-y,-y,1/3-z
-x,-x+y,2/3-z
y,x,-z
loop_
_atom_site_type_symbol
_atom_site_label
_atom_site_fract_x
_atom_site_fract_y
_atom_site_fract_z
Si Si1 0.551583 0.551583 0.500000
Si Si2 0.400431 0.894749 0.589497
Si Si3 0.232117 0.791730 0.797417
Si Si4 0.883448 0.000000 0.166667
Si Si5 0.252951 0.289419 0.305758
Si Si6 0.318763 0.996565 0.934293
Si Si7 0.812821 0.902090 0.759287
Si Si8 0.357697 0.487034 0.683457
O O1 0.592471 0.641899 0.386833
O O2 0.450186 0.534502 0.575186
O O3 0.326206 0.807589 0.698936
O O4 0.329623 0.917996 0.490039
O O5 0.454503 0.845694 0.495194
O O6 0.485645 0.000000 0.666667
O O7 0.119877 0.732911 0.726840
O O8 0.229415 0.730610 0.935530
O O9 0.247960 0.903470 0.833640
O O10 0.810995 0.987135 0.294138
O O11 0.996268 0.101732 0.185032
O O12 0.188741 0.276747 0.170389
O O13 0.368128 0.314345 0.277002
O O14 0.251572 0.046244 0.991279
O O15 0.877196 0.000000 0.666667
#
# Coordination Sequence:
#
# PCOD8322371 Si02
#       8
#     3   6   6   3   6   6   6   6
#     4  10  21  39  62  90 126 168 228 289 331 404
#     4   9  21  39  68 100 130 173 226 290 341 417
#     4  11  19  39  70  95 127 174 230 281 354 419
#     4  12  23  37  60  94 144 186 222 261 319 402
#     4  12  21  38  64  93 130 182 228 277 325 415
#     4  10  21  37  63  91 132 180 225 272 343 407
#     4  12  25  37  55  97 144 186 220 272 326 400
#     4  11  21  40  69 100 125 175 235 283 347 406
#
# _framework density 22.101009999999999
#
# number of rings (size 3 to 8) (size 9 to 14) (size 15 to 20)
#    0.000    1.143    5.714    1.286    0.000    3.429 
#    0.000    0.000    3.143    0.000    0.000    0.000 
#    0.000    0.000    0.000    0.000    0.000    0.000 
#
# Total GULP energy -520495.359549 kJ/mol
# GULP energy per Si atom -12392.746656 kJ/mol
# Density = 2.205071 g / cm^3
# Si number density = 22.101010 Si / 1000 Ang^3
#
#
#
# Elastic Constant Matrix: (Units=GPa)
#
#
# Indices 1 2 3 4 5 6 
#
# 1 98.3572 50.1769 51.7271 4.7144 0.0000 0.0000
# 2 50.1769 98.3572 51.7271 -4.7144 0.0000 0.0000
# 3 51.7271 51.7271 102.4678 0.0000 0.0000 0.0000
# 4 4.7144 -4.7144 0.0000 41.2187 0.0000 0.0000
# 5 0.0000 0.0000 0.0000 0.0000 41.2187 4.7144
# 6 0.0000 0.0000 0.0000 0.0000 4.7144 24.0901
#
#
#
# Elastic Compliance Matrix: (Units=1/GPa)
#
#
# Indices 1 2 3 4 5 6 
#
# 1 0.015807 -0.005424 -0.005242 -0.002428 0.000000 0.000000
# 2 -0.005424 0.015807 -0.005242 0.002428 0.000000 0.000000
# 3 -0.005242 -0.005242 0.015051 0.000000 0.000000 0.000000
# 4 -0.002428 0.002428 0.000000 0.024816 0.000000 0.000000
# 5 0.000000 0.000000 0.000000 0.000000 0.024816 -0.004856
# 6 0.000000 0.000000 0.000000 0.000000 -0.004856 0.042461
#
#
# Mechanical properties :
#
#
# Convention : Reuss Voigt Hill
#
# Bulk Modulus (GPa) = 67.33411 67.38269 67.35840
# Shear Modulus (GPa) = 28.48630 31.00890 29.74760
#
# Velocity S-wave (km/s) = 3.59404 3.74980 3.67275
# Velocity P-wave (km/s) = 6.91054 7.02159 6.96628
#
# Compressibility (1/GPa) = 0.01485131
#
# Stress axis : x y z
#
# Youngs Moduli (GPa) = 63.26346 63.26346 66.43979
#
# Poissons Ratio (x) = 0.34312 0.34825
# Poissons Ratio (y) = 0.34312 0.34825
# Poissons Ratio (z) = 0.33160 0.33160
#
# Static dielectric constant tensor:
#      x y z
#    x 3.924970 0.000000 0.000000 
#    y 0.000000 3.924970 0.000000 
#    z 0.000000 0.000000 4.107800 
# 
# 
# High freq. dielectric constant tensor:
#      x y z
#    x 1.857490 0.000000 0.000000 
#    y 0.000000 1.857490 0.000000 
#    z 0.000000 0.000000 1.863300 
# 
# From -- ./inp_files/1766.got.cif
#   From: 2010.03.12/outbox.cif.g09.slc.cpg/sg154_1_cif.got.tgz:1766.got - 2010.04.03 13:51:21.
