data_PCOD8322336
_publ_section_title
;
Structure prediction by ZEFSAII (Michael W. Deem and Ramdas Pophale) SiO2 
 PCOD8322336
Probable space group: P 32 2 1
;
_chemical_formula_sum "Si O2"
_cell_formula_units_Z 33
_cell_length_a 8.240476
_cell_length_b 8.240476
_cell_length_c 25.934331
_cell_angle_alpha 90.000000
_cell_angle_beta 90.000000
_cell_angle_gamma 120.000000
_cell_volume 1525.141992
_symmetry_space_group_name_H-M "P 32 2 1"
_symmetry_group_IT_number 154
_symmetry_cell_setting 'hexagonal'
loop_
_space_group_symop_operation_xyz
x,y,z
-y,x-y,2/3+z
-x+y,-x,1/3+z
x-y,-y,1/3-z
-x,-x+y,2/3-z
y,x,-z
loop_
_atom_site_type_symbol
_atom_site_label
_atom_site_fract_x
_atom_site_fract_y
_atom_site_fract_z
Si Si1 0.944887 0.913244 0.248729
Si Si2 0.737124 0.346118 0.127071
Si Si3 0.821010 0.169216 0.938440
Si Si4 0.737144 0.000000 0.166667
Si Si5 0.284705 0.366324 0.838028
Si Si6 0.388430 0.964812 0.966072
O O1 0.026885 0.840792 0.204357
O O2 0.795752 0.732063 0.281712
O O3 0.121033 0.073865 0.281761
O O4 0.849003 0.015248 0.219247
O O5 0.719750 0.184945 0.165178
O O6 0.546658 0.352933 0.126126
O O7 0.897574 0.542762 0.148162
O O8 0.777176 0.310798 0.068482
O O9 0.832610 0.212763 0.877503
O O10 0.609129 0.078392 0.958095
O O11 0.926274 0.356865 0.972773
#
# Coordination Sequence:
#
# PCOD8322336 Si02
#       6
#     6   6   6   3   6   6
#     4  11  22  43  67  94 130 176 226 283 341 410
#     4  10  23  38  64  95 132 169 221 282 332 407
#     4  11  23  41  68  92 135 175 218 281 346 409
#     4  10  20  36  60  98 126 164 228 274 330 404
#     4  11  22  41  68  96 126 178 226 278 338 406
#     4  10  25  42  64  97 137 174 224 282 342 418
#
# _framework density 21.637331
#
# number of rings (size 3 to 8) (size 9 to 14) (size 15 to 20)
#    0.000    1.455    1.818    3.818    7.636    1.455 
#    0.000    0.000    8.000    0.000    0.000    0.000 
#    0.000    0.000    0.000    0.000    0.000    0.000 
#
# Total GULP energy -408924.204129 kJ/mol
# GULP energy per Si atom -12391.642549 kJ/mol
# Density = 2.158808 g / cm^3
# Si number density = 21.637331 Si / 1000 Ang^3
#
#
#
# Elastic Constant Matrix: (Units=GPa)
#
#
# Indices 1 2 3 4 5 6 
#
# 1 31.7573 70.8225 24.1538 -35.4609 -0.0001 0.0000
# 2 70.8225 31.7573 24.1538 35.4609 0.0001 0.0000
# 3 24.1538 24.1538 86.8831 0.0000 0.0000 0.0000
# 4 -35.4609 35.4609 0.0000 -2.5570 0.0000 0.0001
# 5 -0.0001 0.0001 0.0000 0.0000 -2.5570 -35.4609
# 6 0.0000 0.0000 0.0000 0.0001 -35.4609 -19.5326
#
#
#
# Elastic Compliance Matrix: (Units=1/GPa)
#
#
# Indices 1 2 3 4 5 6 
#
# 1 0.006138 0.005079 -0.003118 -0.014683 0.000000 0.000000
# 2 0.005079 0.006138 -0.003118 0.014683 0.000000 0.000000
# 3 -0.003118 -0.003118 0.013244 0.000000 0.000000 0.000000
# 4 -0.014683 0.014683 0.000000 0.016176 0.000000 0.000000
# 5 0.000000 0.000000 0.000000 0.000000 0.016176 -0.029366
# 6 0.000000 0.000000 0.000000 0.000000 -0.029366 0.002118
#
#
# Mechanical properties :
#
#
# Convention : Reuss Voigt Hill
#
# Bulk Modulus (GPa) = 43.09578 43.18421 43.13999
# Shear Modulus (GPa) = 71.38967 -2.84479 34.27244
#
# Velocity S-wave (km/s) = 5.75025 -1.14787 3.98420
# Velocity P-wave (km/s) = 8.00298 4.27138 6.41453
#
# Compressibility (1/GPa) = 0.02320413
#
# Stress axis : x y z
#
# Youngs Moduli (GPa) = 162.92234 162.92235 75.50839
#
# Poissons Ratio (x) = -0.82750 0.23546
# Poissons Ratio (y) = -0.82750 0.23546
# Poissons Ratio (z) = 0.50805 0.50805
#
# Static dielectric constant tensor:
#      x y z
#    x 4.312790 0.000000 0.000000 
#    y 0.000000 4.312790 0.000000 
#    z 0.000000 0.000000 4.579930 
# 
# 
# High freq. dielectric constant tensor:
#      x y z
#    x 1.850060 0.000000 0.000000 
#    y 0.000000 1.850060 0.000000 
#    z 0.000000 0.000000 1.846150 
# 
# From -- ./inp_files/3420.got.cif
#   From: 2010.03.12/outbox.cif.g09.slc.cpg/sg154_2_cif.got.tgz:3420.got - 2010.04.03 13:51:21.
