data_PCOD8322846
_publ_section_title
;
Structure prediction by ZEFSAII (Michael W. Deem and Ramdas Pophale) SiO2 
 PCOD8322846
Probable space group: R 3 M
;
_chemical_formula_sum "Si O2"
_cell_formula_units_Z 126
_cell_length_a 20.354363
_cell_length_b 20.354363
_cell_length_c 20.542323
_cell_angle_alpha 90.000000
_cell_angle_beta 90.000000
_cell_angle_gamma 120.000000
_cell_volume 7370.470567
_symmetry_space_group_name_H-M "R 3 M"
_symmetry_group_IT_number 160
_symmetry_cell_setting 'hexagonal'
loop_
_space_group_symop_operation_xyz
x,y,z
-y,x-y,z
-x+y,-x,z
-x+y,y,z
x,x-y,z
-y,-x,z
2/3+x,1/3+y,1/3+z
2/3-y,1/3+x-y,1/3+z
2/3-x+y,1/3-x,1/3+z
2/3-x+y,1/3+y,1/3+z
2/3+x,1/3+x-y,1/3+z
2/3-y,1/3-x,1/3+z
1/3+x,2/3+y,2/3+z
1/3-y,2/3+x-y,2/3+z
1/3-x+y,2/3-x,2/3+z
1/3-x+y,2/3+y,2/3+z
1/3+x,2/3+x-y,2/3+z
1/3-y,2/3-x,2/3+z
loop_
_atom_site_type_symbol
_atom_site_label
_atom_site_fract_x
_atom_site_fract_y
_atom_site_fract_z
Si Si1 0.330033 0.242408 0.648061
Si Si2 0.089515 0.470557 0.392012
Si Si3 0.604686 0.544644 0.701251
Si Si4 0.853935 0.292144 0.314459
Si Si5 0.350796 0.250069 0.500874
Si Si6 0.253964 0.056389 0.101308
Si Si7 0.000212 0.151318 0.851399
O O1 0.325467 0.162734 0.663562
O O2 0.255785 0.242761 0.674923
O O3 0.413261 0.308330 0.674805
O O4 0.319931 0.252475 0.571656
O O5 0.104236 0.552118 0.361701
O O6 0.151477 0.484957 0.446482
O O7 0.010265 0.431611 0.428019
O O8 0.548685 0.451316 0.694189
O O9 0.567382 0.582894 0.658832
O O10 0.611774 0.567752 0.777614
O O11 0.765123 0.234878 0.327845
O O12 0.881966 0.361057 0.364380
O O13 0.867252 0.320876 0.240027
O O14 0.375161 0.187581 0.496509
O O15 0.429410 0.326277 0.488831
O O16 0.228396 0.114198 0.128221
O O17 0.920229 0.079772 0.865850
O O18 0.063638 0.127276 0.856786
#
# Coordination Sequence:
#
# PCOD8322846 Si02
#       7
#    18  18  18  18  18  18  18
#     4  11  21  35  55  78 105 135 177 225 266 311
#     4  10  21  34  48  73 105 134 172 213 257 306
#     4   9  18  34  53  74 103 135 168 209 263 318
#     4   9  17  30  50  74 103 133 166 204 245 300
#     4   9  19  34  51  71 102 134 166 215 263 309
#     4  10  18  30  50  73 102 135 168 204 246 305
#     4  10  20  33  49  71 102 138 171 202 242 297
#
# _framework density 17.095244999999998
#
# number of rings (size 3 to 8) (size 9 to 14) (size 15 to 20)
#    0.000    2.286    2.857    2.286    2.000    0.571 
#    0.000    0.714    0.000    3.714    0.000    0.000 
#    0.000    0.000    0.000    0.000    0.000    0.000 
#
# Total GULP energy -520329.102594 kJ/mol
# GULP energy per Si atom -12388.788157 kJ/mol
# Density = 1.705634 g / cm^3
# Si number density = 17.095245 Si / 1000 Ang^3
#
#
#
# Elastic Constant Matrix: (Units=GPa)
#
#
# Indices 1 2 3 4 5 6 
#
# 1 67.1416 31.0909 33.4029 5.0597 0.0000 0.0000
# 2 31.0909 67.1416 33.4029 -5.0597 0.0000 0.0000
# 3 33.4029 33.4029 72.0672 0.0000 0.0000 0.0000
# 4 5.0597 -5.0597 0.0000 18.1050 0.0000 0.0000
# 5 0.0000 0.0000 0.0000 0.0000 18.1050 5.0597
# 6 0.0000 0.0000 0.0000 0.0000 5.0597 18.0253
#
#
#
# Elastic Compliance Matrix: (Units=1/GPa)
#
#
# Indices 1 2 3 4 5 6 
#
# 1 0.022483 -0.007617 -0.006890 -0.008412 0.000000 0.000000
# 2 -0.007617 0.022483 -0.006890 0.008412 0.000000 0.000000
# 3 -0.006890 -0.006890 0.020263 0.000000 0.000000 0.000000
# 4 -0.008412 0.008412 0.000000 0.059935 0.000000 0.000000
# 5 0.000000 0.000000 0.000000 0.000000 0.059935 -0.016824
# 6 0.000000 0.000000 0.000000 0.000000 -0.016824 0.060200
#
#
# Mechanical properties :
#
#
# Convention : Reuss Voigt Hill
#
# Bulk Modulus (GPa) = 44.57563 44.68266 44.62914
# Shear Modulus (GPa) = 16.91632 18.07729 17.49681
#
# Velocity S-wave (km/s) = 3.14910 3.25537 3.20267
# Velocity P-wave (km/s) = 6.27327 6.35013 6.31181
#
# Compressibility (1/GPa) = 0.02243379
#
# Stress axis : x y z
#
# Youngs Moduli (GPa) = 44.47820 44.47820 49.35052
#
# Poissons Ratio (x) = 0.33879 0.34004
# Poissons Ratio (y) = 0.33879 0.34004
# Poissons Ratio (z) = 0.30647 0.30647
#
# Static dielectric constant tensor:
#      x y z
#    x 3.297520 0.000000 0.000000 
#    y 0.000000 3.297520 0.000000 
#    z 0.000000 0.000000 3.374980 
# 
# 
# High freq. dielectric constant tensor:
#      x y z
#    x 1.650300 0.000000 0.000000 
#    y 0.000000 1.650300 0.000000 
#    z 0.000000 0.000000 1.658760 
# 
# From -- ./inp_files/2886.got.cif
#   From: 2010.03.12/outbox.cif.g09.slc.cpg/sg160_2_cif.got.tgz:2886.got - 2010.04.02 06:26:15.
