data_PCOD8322753
_publ_section_title
;
Structure prediction by ZEFSAII (Michael W. Deem and Ramdas Pophale) SiO2 
 PCOD8322753
Probable space group: P 3 C 1
;
_chemical_formula_sum "Si O2"
_cell_formula_units_Z 42
_cell_length_a 8.739756
_cell_length_b 8.739756
_cell_length_c 31.663450
_cell_angle_alpha 90.000000
_cell_angle_beta 90.000000
_cell_angle_gamma 120.000000
_cell_volume 2094.534320
_symmetry_space_group_name_H-M "P 3 C 1"
_symmetry_group_IT_number 158
_symmetry_cell_setting 'hexagonal'
loop_
_space_group_symop_operation_xyz
x,y,z
-y,x-y,z
-x+y,-x,z
-x+y,y,1/2+z
x,x-y,1/2+z
-y,-x,1/2+z
loop_
_atom_site_type_symbol
_atom_site_label
_atom_site_fract_x
_atom_site_fract_y
_atom_site_fract_z
Si Si1 0.423964 0.890815 0.712560
Si Si2 0.890815 0.423963 0.296731
Si Si3 0.646635 0.645033 0.627288
Si Si4 0.676030 0.999790 0.595949
Si Si5 0.999790 0.676029 0.413342
Si Si6 0.194118 0.194117 0.504645
Si Si7 0.645033 0.646636 0.382003
O O1 0.214108 0.747313 0.710900
O O2 0.500001 0.000001 0.754645
O O3 0.445611 0.016823 0.673217
O O4 0.785893 0.533205 0.298391
O O5 0.016823 0.445610 0.336074
O O6 0.631617 0.818549 0.619177
O O7 0.518957 0.491746 0.595490
O O8 0.846337 0.690235 0.620505
O O9 0.705640 0.997340 0.546459
O O10 0.997339 0.705638 0.462832
O O11 0.818548 0.631616 0.390114
O O12 0.153663 0.843898 0.388786
O O13 0.027211 0.508254 0.413801
O O14 0.000000 0.174946 0.504645
#
# Coordination Sequence:
#
# PCOD8322753 Si02
#       7
#     6   6   6   6   6   6   6
#     4  10  23  41  65  98 134 173 221 285 341 414
#     4  10  23  41  65  98 134 173 221 285 341 414
#     4  12  24  45  66 105 132 188 227 281 352 412
#     4  12  24  42  72  95 140 177 230 285 338 418
#     4  12  24  42  72  95 140 177 230 285 338 418
#     4  10  20  42  66 100 134 178 224 278 346 394
#     4  12  24  45  66 105 132 188 227 281 352 412
#
# _framework density 20.052191000000001
#
# number of rings (size 3 to 8) (size 9 to 14) (size 15 to 20)
#    0.857    0.000    5.714    1.714    4.000    2.286 
#    0.000    0.000    0.000    2.286    0.000    0.000 
#    0.000    0.000    0.000    0.000    0.000    0.000 
#
# Total GULP energy -520418.114609 kJ/mol
# GULP energy per Si atom -12390.907491 kJ/mol
# Density = 2.000655 g / cm^3
# Si number density = 20.052191 Si / 1000 Ang^3
#
#
#
# Elastic Constant Matrix: (Units=GPa)
#
#
# Indices 1 2 3 4 5 6 
#
# 1 89.9827 18.0468 50.3708 -4.1849 0.0000 0.0000
# 2 18.0468 89.9827 50.3708 4.1849 0.0000 0.0000
# 3 50.3708 50.3708 194.9565 0.0000 0.0000 0.0000
# 4 -4.1849 4.1849 0.0000 30.9700 0.0000 0.0000
# 5 0.0000 0.0000 0.0000 0.0000 30.9700 -4.1849
# 6 0.0000 0.0000 0.0000 0.0000 -4.1849 35.9679
#
#
#
# Elastic Compliance Matrix: (Units=1/GPa)
#
#
# Indices 1 2 3 4 5 6 
#
# 1 0.013159 -0.000964 -0.003151 0.001908 0.000000 0.000000
# 2 -0.000964 0.013159 -0.003151 -0.001908 0.000000 0.000000
# 3 -0.003151 -0.003151 0.006758 0.000000 0.000000 0.000000
# 4 0.001908 -0.001908 0.000000 0.032805 0.000000 0.000000
# 5 0.000000 0.000000 0.000000 0.000000 0.032805 0.003817
# 6 0.000000 0.000000 0.000000 0.000000 0.003817 0.028247
#
#
# Mechanical properties :
#
#
# Convention : Reuss Voigt Hill
#
# Bulk Modulus (GPa) = 53.92515 68.05542 60.99029
# Shear Modulus (GPa) = 33.86486 36.65712 35.26099
#
# Velocity S-wave (km/s) = 4.11400 4.28025 4.19795
# Velocity P-wave (km/s) = 7.03687 7.64462 7.34703
#
# Compressibility (1/GPa) = 0.01854422
#
# Stress axis : x y z
#
# Youngs Moduli (GPa) = 75.99271 75.99271 147.98367
#
# Poissons Ratio (x) = 0.07327 0.46627
# Poissons Ratio (y) = 0.07327 0.46627
# Poissons Ratio (z) = 0.23944 0.23944
#
# Static dielectric constant tensor:
#      x y z
#    x 3.604510 0.000000 0.000000 
#    y 0.000000 3.604510 0.000000 
#    z 0.000000 0.000000 3.737290 
# 
# 
# High freq. dielectric constant tensor:
#      x y z
#    x 1.779840 0.000000 0.000000 
#    y 0.000000 1.779840 0.000000 
#    z 0.000000 0.000000 1.792680 
# 
# From -- ./inp_files/781.got.cif
#   From: 2010.03.12/outbox.cif.g09.slc.cpg/sg158_cif.got.tgz:781.got - 2010.04.03 13:59:47.
