data_PCOD8322655
_publ_section_title
;
Structure prediction by ZEFSAII (Michael W. Deem and Ramdas Pophale) SiO2 
 PCOD8322655
Probable space group: P 3 M 1
;
_chemical_formula_sum "Si O2"
_cell_formula_units_Z 36
_cell_length_a 13.046873
_cell_length_b 13.046873
_cell_length_c 15.430543
_cell_angle_alpha 90.000000
_cell_angle_beta 90.000000
_cell_angle_gamma 120.000000
_cell_volume 2274.703054
_symmetry_space_group_name_H-M "P 3 M 1"
_symmetry_group_IT_number 156
_symmetry_cell_setting 'hexagonal'
loop_
_space_group_symop_operation_xyz
x,y,z
-y,x-y,z
-x+y,-x,z
-x+y,y,z
x,x-y,z
-y,-x,z
loop_
_atom_site_type_symbol
_atom_site_label
_atom_site_fract_x
_atom_site_fract_y
_atom_site_fract_z
Si Si1 0.336272 0.427807 0.171770
Si Si2 0.564194 0.664720 0.983242
Si Si3 0.667331 0.575418 0.318183
Si Si4 0.000258 0.764177 0.461995
Si Si5 0.092206 0.664060 0.796046
Si Si6 0.000063 0.763985 0.659418
O O1 0.208182 0.416363 0.183297
O O2 0.436018 0.563983 0.189653
O O3 0.355323 0.387372 0.074939
O O4 0.351250 0.341586 0.237680
O O5 0.593181 0.796591 0.987873
O O6 0.423078 0.576923 0.979381
O O7 0.617668 0.648698 0.892142
O O8 0.779141 0.558282 0.302759
O O9 0.552127 0.447874 0.328770
O O10 0.681203 0.650436 0.404294
O O11 0.125407 0.874594 0.432989
O O12 0.901668 0.803336 0.451940
O O13 0.005210 0.726990 0.560733
O O14 0.104195 0.552098 0.771096
O O15 0.222542 0.777459 0.796183
O O16 0.009845 0.672990 0.723552
O O17 0.878401 0.756802 0.682003
O O18 0.102845 0.897156 0.677064
#
# Coordination Sequence:
#
# PCOD8322655 Si02
#       6
#     6   6   6   6   6   6
#     4   9  16  27  45  67  88 108 134 172 215 253
#     4   8  13  22  38  61  86 110 136 167 205 246
#     4  10  20  32  45  61  84 114 144 171 201 244
#     4   9  17  30  48  67  84 104 135 176 217 251
#     4   9  16  26  42  64  89 114 139 169 206 248
#     4   9  17  29  45  64  85 110 140 173 208 246
#
# _framework density 15.82624
#
# number of rings (size 3 to 8) (size 9 to 14) (size 15 to 20)
#    0.000    3.000    0.000    1.500    0.000    4.667 
#    0.000    0.833    0.000    1.000    0.000    0.000 
#    0.000    0.000    0.000    0.000    0.000    0.000 
#
# Total GULP energy -446021.545782 kJ/mol
# GULP energy per Si atom -12389.487383 kJ/mol
# Density = 1.579022 g / cm^3
# Si number density = 15.826240 Si / 1000 Ang^3
#
#
#
# Elastic Constant Matrix: (Units=GPa)
#
#
# Indices 1 2 3 4 5 6 
#
# 1 78.4767 39.8245 60.3622 -3.3676 0.0000 0.0000
# 2 39.8245 78.4767 60.3622 3.3676 0.0000 0.0000
# 3 60.3622 60.3622 131.2517 0.0000 0.0000 0.0000
# 4 -3.3676 3.3676 0.0000 23.3346 0.0000 0.0000
# 5 0.0000 0.0000 0.0000 0.0000 23.3346 -3.3676
# 6 0.0000 0.0000 0.0000 0.0000 -3.3676 19.3261
#
#
#
# Elastic Compliance Matrix: (Units=1/GPa)
#
#
# Indices 1 2 3 4 5 6 
#
# 1 0.021234 -0.005305 -0.007325 0.003830 0.000000 0.000000
# 2 -0.005305 0.021234 -0.007325 -0.003830 0.000000 0.000000
# 3 -0.007325 -0.007325 0.014357 0.000000 0.000000 0.000000
# 4 0.003830 -0.003830 0.000000 0.043960 0.000000 0.000000
# 5 0.000000 0.000000 0.000000 0.000000 0.043960 0.007660
# 6 0.000000 0.000000 0.000000 0.000000 0.007660 0.053078
#
#
# Mechanical properties :
#
#
# Convention : Reuss Voigt Hill
#
# Bulk Modulus (GPa) = 59.12952 67.70032 63.41492
# Shear Modulus (GPa) = 20.54457 21.70947 21.12702
#
# Velocity S-wave (km/s) = 3.60687 3.70772 3.65764
# Velocity P-wave (km/s) = 7.40195 7.82302 7.61540
#
# Compressibility (1/GPa) = 0.01691203
#
# Stress axis : x y z
#
# Youngs Moduli (GPa) = 47.09465 47.09465 69.65299
#
# Poissons Ratio (x) = 0.24985 0.51024
# Poissons Ratio (y) = 0.24985 0.51024
# Poissons Ratio (z) = 0.34499 0.34499
#
# Static dielectric constant tensor:
#      x y z
#    x 2.806320 0.000000 0.000000 
#    y 0.000000 2.806320 0.000000 
#    z 0.000000 0.000000 3.464520 
# 
# 
# High freq. dielectric constant tensor:
#      x y z
#    x 1.585650 0.000000 0.000000 
#    y 0.000000 1.585650 0.000000 
#    z 0.000000 0.000000 1.627840 
# 
# From -- ./inp_files/934.got.cif
#   From: 2010.03.12/outbox.cif.g09.slc.cpg/sg156_cif.got.tgz:934.got - 2010.04.03 13:58:47.
