data_PCOD8322049
_publ_section_title
;
Structure prediction by ZEFSAII (Michael W. Deem and Ramdas Pophale) SiO2 
 PCOD8322049
Probable space group: P 31 2 1
;
_chemical_formula_sum "Si O2"
_cell_formula_units_Z 42
_cell_length_a 8.251986
_cell_length_b 8.251986
_cell_length_c 33.920507
_cell_angle_alpha 90.000000
_cell_angle_beta 90.000000
_cell_angle_gamma 120.000000
_cell_volume 2000.368152
_symmetry_space_group_name_H-M "P 31 2 1"
_symmetry_group_IT_number 152
_symmetry_cell_setting 'hexagonal'
loop_
_space_group_symop_operation_xyz
x,y,z
-y,x-y,1/3+z
-x+y,-x,2/3+z
x-y,-y,2/3-z
-x,-x+y,1/3-z
y,x,-z
loop_
_atom_site_type_symbol
_atom_site_label
_atom_site_fract_x
_atom_site_fract_y
_atom_site_fract_z
Si Si1 0.778329 0.117114 0.369082
Si Si2 0.292400 0.509430 0.304451
Si Si3 0.237949 0.197317 0.844338
Si Si4 0.943707 0.576350 0.901533
Si Si5 0.054228 0.251858 0.434376
Si Si6 0.600260 0.051941 0.948209
Si Si7 0.650198 0.168669 0.248409
O O1 0.819491 0.319047 0.356068
O O2 0.928906 0.122474 0.399069
O O3 0.792115 0.000000 0.333334
O O4 0.573012 0.006671 0.388763
O O5 0.292527 0.376982 0.269332
O O6 0.257139 0.413203 0.347892
O O7 0.152318 0.587040 0.294425
O O8 0.283864 0.312303 0.804662
O O9 0.413489 0.308671 0.873209
O O10 0.032856 0.153923 0.860527
O O11 0.220962 0.000000 0.833334
O O12 0.974410 0.403024 0.892905
O O13 0.733051 0.507855 0.913922
O O14 0.270427 0.320222 0.421777
O O15 0.495910 0.159820 0.933075
#
# Coordination Sequence:
#
# PCOD8322049 Si02
#       7
#     6   6   6   6   6   6   6
#     4  10  19  35  58  85 119 158 196 244 310 375
#     4  11  22  36  62  88 126 159 203 257 308 386
#     4  11  22  39  60  87 121 154 209 261 311 370
#     4  10  21  40  61  88 115 162 207 246 312 378
#     4   9  22  39  58  84 117 163 201 248 311 370
#     4  11  21  39  58  89 121 159 206 254 315 370
#     4  10  21  37  63  84 119 161 201 254 313 373
#
# _framework density 20.996136
#
# number of rings (size 3 to 8) (size 9 to 14) (size 15 to 20)
#    0.000    1.714    1.429    4.286    0.000    1.143 
#    0.000    7.857    0.000    0.000    0.000    0.000 
#    0.000    0.000    0.000    0.000    0.000    0.000 
#
# Total GULP energy -520563.216460 kJ/mol
# GULP energy per Si atom -12394.362297 kJ/mol
# Density = 2.094835 g / cm^3
# Si number density = 20.996136 Si / 1000 Ang^3
#
#
#
# Elastic Constant Matrix: (Units=GPa)
#
#
# Indices 1 2 3 4 5 6 
#
# 1 68.4365 11.5822 21.8176 2.2265 -0.0001 0.0000
# 2 11.5822 68.4365 21.8176 -2.2265 0.0001 0.0000
# 3 21.8176 21.8176 94.3421 0.0000 0.0000 0.0000
# 4 2.2265 -2.2265 0.0000 28.6120 0.0000 0.0001
# 5 -0.0001 0.0001 0.0000 0.0000 28.6120 2.2265
# 6 0.0000 0.0000 0.0000 0.0001 2.2265 28.4271
#
#
#
# Elastic Compliance Matrix: (Units=1/GPa)
#
#
# Indices 1 2 3 4 5 6 
#
# 1 0.015999 -0.001698 -0.003307 -0.001377 0.000000 0.000000
# 2 -0.001698 0.015999 -0.003307 0.001377 0.000000 0.000000
# 3 -0.003307 -0.003307 0.012129 0.000000 0.000000 0.000000
# 4 -0.001377 0.001377 0.000000 0.035165 0.000000 0.000000
# 5 0.000000 0.000000 0.000000 0.000000 0.035165 -0.002754
# 6 0.000000 0.000000 0.000000 0.000000 -0.002754 0.035393
#
#
# Mechanical properties :
#
#
# Convention : Reuss Voigt Hill
#
# Bulk Modulus (GPa) = 36.36125 37.96108 37.16117
# Shear Modulus (GPa) = 28.46708 28.86339 28.66524
#
# Velocity S-wave (km/s) = 3.68615 3.71172 3.69895
# Velocity P-wave (km/s) = 5.95589 6.04056 5.99837
#
# Compressibility (1/GPa) = 0.02750180
#
# Stress axis : x y z
#
# Youngs Moduli (GPa) = 62.50546 62.50546 82.44475
#
# Poissons Ratio (x) = 0.10614 0.27266
# Poissons Ratio (y) = 0.10614 0.27266
# Poissons Ratio (z) = 0.20671 0.20671
#
# Static dielectric constant tensor:
#      x y z
#    x 3.764550 0.000000 0.000000 
#    y 0.000000 3.764550 0.000000 
#    z 0.000000 0.000000 4.002010 
# 
# 
# High freq. dielectric constant tensor:
#      x y z
#    x 1.813830 0.000000 0.000000 
#    y 0.000000 1.813830 0.000000 
#    z 0.000000 0.000000 1.835750 
# 
# From -- ./inp_files/3749.got.cif
#   From: 2010.03.12/outbox.cif.g09.slc.cpg/sg152_2_cif.got.tgz:3749.got - 2010.04.03 13:45:27.
