data_PCOD8322802
_publ_section_title
;
Structure prediction by ZEFSAII (Michael W. Deem and Ramdas Pophale) SiO2 
 PCOD8322802
Probable space group: P 3 1 C
;
_chemical_formula_sum "Si O2"
_cell_formula_units_Z 40
_cell_length_a 11.790190
_cell_length_b 11.790190
_cell_length_c 14.731988
_cell_angle_alpha 90.000000
_cell_angle_beta 90.000000
_cell_angle_gamma 120.000000
_cell_volume 1773.509813
_symmetry_space_group_name_H-M "P 3 1 C"
_symmetry_group_IT_number 159
_symmetry_cell_setting 'hexagonal'
loop_
_space_group_symop_operation_xyz
x,y,z
-y,x-y,z
-x+y,-x,z
y,x,1/2+z
x-y,-y,1/2+z
-x,-x+y,1/2+z
loop_
_atom_site_type_symbol
_atom_site_label
_atom_site_fract_x
_atom_site_fract_y
_atom_site_fract_z
Si Si1 0.013094 0.752488 0.545360
Si Si2 0.333334 0.666666 0.346563
Si Si3 0.259308 0.006255 0.329166
Si Si4 0.261084 0.010135 0.546070
Si Si5 0.742279 0.993466 0.329065
Si Si6 0.666668 0.333334 0.629658
Si Si7 0.517844 0.483566 0.854330
Si Si8 0.946433 0.479169 0.551032
O O1 0.131358 0.885787 0.585601
O O2 0.876173 0.735181 0.581572
O O3 0.012478 0.756829 0.437059
O O4 0.033586 0.632553 0.578860
O O5 0.333334 0.666667 0.237903
O O6 0.415598 0.601950 0.385462
O O7 0.261911 0.135388 0.291373
O O8 0.259296 0.004470 0.437722
O O9 0.388163 0.001512 0.295107
O O10 0.130361 0.879841 0.289624
O O11 0.385292 0.002421 0.586226
O O12 0.607617 0.986758 0.295737
O O13 0.805853 0.438033 0.590732
O O14 0.467279 0.527750 0.941497
#
# Coordination Sequence:
#
# PCOD8322802 Si02
#       8
#     6   2   6   6   6   2   6   6
#     4   9  16  27  45  75 113 150 197 260 319 369
#     4  12  24  42  66  96 133 176 220 285 354 408
#     4   9  16  27  45  75 113 150 197 260 319 369
#     4   9  16  27  45  75 113 150 197 260 319 369
#     4   9  16  27  45  75 113 150 197 260 319 369
#     4  12  24  42  66  96 133 176 220 285 354 408
#     4  10  20  34  56  88 124 160 224 270 324 391
#     4  10  20  34  56  88 124 160 224 270 324 391
#
# _framework density 22.554145999999999
#
# number of rings (size 3 to 8) (size 9 to 14) (size 15 to 20)
#    0.000    2.400    3.000    0.600    4.200    2.400 
#    1.800    0.000    0.000    1.800    0.000    0.000 
#    0.000    0.000    0.000    0.000    0.000    0.000 
#
# Total GULP energy -495753.572495 kJ/mol
# GULP energy per Si atom -12393.839312 kJ/mol
# Density = 2.250281 g / cm^3
# Si number density = 22.554146 Si / 1000 Ang^3
#
#
#
# Elastic Constant Matrix: (Units=GPa)
#
#
# Indices 1 2 3 4 5 6 
#
# 1 191.3057 89.5189 -8.5930 0.0000 0.7238 0.0001
# 2 89.5189 191.3060 -8.5929 -0.0001 -0.7239 0.0002
# 3 -8.5930 -8.5929 40.9408 -0.0002 -0.0001 0.0001
# 4 0.0000 -0.0001 -0.0002 -5.1743 0.0000 -0.7239
# 5 0.7238 -0.7239 -0.0001 0.0000 -5.1743 -0.0001
# 6 0.0001 0.0002 0.0001 -0.7239 -0.0001 50.8935
#
#
#
# Elastic Compliance Matrix: (Units=1/GPa)
#
#
# Indices 1 2 3 4 5 6 
#
# 1 0.006706 -0.003099 0.000757 0.000000 0.001372 0.000000
# 2 -0.003099 0.006706 0.000757 0.000000 -0.001372 0.000000
# 3 0.000757 0.000757 0.024743 -0.000001 -0.000001 0.000000
# 4 0.000000 0.000000 -0.000001 -0.192877 0.000001 -0.002744
# 5 0.001372 -0.001372 -0.000001 0.000001 -0.192878 0.000000
# 6 0.000000 0.000000 0.000000 -0.002744 0.000000 0.019610
#
#
# Mechanical properties :
#
#
# Convention : Reuss Voigt Hill
#
# Bulk Modulus (GPa) = 28.58258 63.13538 45.85898
# Shear Modulus (GPa) = -15.96633 31.52361 7.77864
#
# Velocity S-wave (km/s) = -2.66355 3.74262 1.85913
# Velocity P-wave (km/s) = 1.80030 6.83592 4.99855
#
# Compressibility (1/GPa) = 0.03498635
#
# Stress axis : x y z
#
# Youngs Moduli (GPa) = 149.11768 149.11799 40.41495
#
# Poissons Ratio (x) = 0.46209 -0.03060
# Poissons Ratio (y) = 0.46209 -0.03060
# Poissons Ratio (z) = -0.11290 -0.11290
#
# Static dielectric constant tensor:
#      x y z
#    x 4.372470 0.000000 0.000000 
#    y 0.000000 4.372470 0.000000 
#    z 0.000000 0.000000 3.263610 
# 
# 
# High freq. dielectric constant tensor:
#      x y z
#    x 1.898910 0.000000 0.000000 
#    y 0.000000 1.898910 0.000000 
#    z 0.000000 0.000000 1.833160 
# 
# From -- ./inp_files/1142.got.cif
#   From: 2010.03.12/outbox.cif.g09.slc.cpg/sg159_cif.got.tgz:1142.got - 2010.04.03 14:00:19.
