data_PCOD8322223
_publ_section_title
;
Structure prediction by ZEFSAII (Michael W. Deem and Ramdas Pophale) SiO2 
 PCOD8322223
Probable space group: P 31 2 1
;
_chemical_formula_sum "Si O2"
_cell_formula_units_Z 15
_cell_length_a 7.654432
_cell_length_b 7.654432
_cell_length_c 12.409844
_cell_angle_alpha 90.000000
_cell_angle_beta 90.000000
_cell_angle_gamma 120.000000
_cell_volume 629.684339
_symmetry_space_group_name_H-M "P 31 2 1"
_symmetry_group_IT_number 152
_symmetry_cell_setting 'hexagonal'
loop_
_space_group_symop_operation_xyz
x,y,z
-y,x-y,1/3+z
-x+y,-x,2/3+z
x-y,-y,2/3-z
-x,-x+y,1/3-z
y,x,-z
loop_
_atom_site_type_symbol
_atom_site_label
_atom_site_fract_x
_atom_site_fract_y
_atom_site_fract_z
Si Si1 0.000000 0.802906 0.166667
Si Si2 0.591537 0.657964 0.217655
Si Si3 0.268746 0.731981 0.336132
O O1 0.829018 0.836692 0.226109
O O2 0.119085 0.741505 0.250523
O O3 0.444598 0.705248 0.284281
O O4 0.542974 0.625705 0.088295
O O5 0.588239 0.457614 0.255229
#
# Coordination Sequence:
#
# PCOD8322223 Si02
#       3
#     3   6   6
#     4  12  26  50  76 114 156 208 274 324 406 488
#     4  12  25  48  79 108 163 213 263 336 411 473
#     4  12  25  49  76 113 162 211 266 339 403 479
#
# _framework density 23.821458
#
# number of rings (size 3 to 8) (size 9 to 14) (size 15 to 20)
#    0.000    0.000    8.000    1.200    0.000    0.000 
#   14.400    0.000    0.000    0.000    0.000    0.000 
#    0.000    0.000    0.000    0.000    0.000    0.000 
#
# Total GULP energy -185897.201978 kJ/mol
# GULP energy per Si atom -12393.146799 kJ/mol
# Density = 2.376724 g / cm^3
# Si number density = 23.821458 Si / 1000 Ang^3
#
#
#
# Elastic Constant Matrix: (Units=GPa)
#
#
# Indices 1 2 3 4 5 6 
#
# 1 161.6275 77.6188 94.6333 -11.4700 0.0001 0.0000
# 2 77.6188 161.6275 94.6333 11.4700 -0.0001 0.0000
# 3 94.6333 94.6333 169.7926 0.0000 0.0000 0.0000
# 4 -11.4700 11.4700 0.0000 41.9976 0.0000 -0.0001
# 5 0.0001 -0.0001 0.0000 0.0000 41.9976 -11.4700
# 6 0.0000 0.0000 0.0000 -0.0001 -11.4700 42.0044
#
#
#
# Elastic Compliance Matrix: (Units=1/GPa)
#
#
# Indices 1 2 3 4 5 6 
#
# 1 0.010169 -0.002693 -0.004167 0.003513 0.000000 0.000000
# 2 -0.002693 0.010169 -0.004167 -0.003513 0.000000 0.000000
# 3 -0.004167 -0.004167 0.010534 0.000000 0.000000 0.000000
# 4 0.003513 -0.003513 0.000000 0.025730 0.000000 0.000000
# 5 0.000000 0.000000 0.000000 0.000000 0.025730 0.007026
# 6 0.000000 0.000000 0.000000 0.000000 0.007026 0.025726
#
#
# Mechanical properties :
#
#
# Convention : Reuss Voigt Hill
#
# Bulk Modulus (GPa) = 113.38752 114.09092 113.73922
# Shear Modulus (GPa) = 37.57933 40.27738 38.92836
#
# Velocity S-wave (km/s) = 3.97614 4.11640 4.04687
# Velocity P-wave (km/s) = 8.29348 8.40185 8.34784
#
# Compressibility (1/GPa) = 0.00881931
#
# Stress axis : x y z
#
# Youngs Moduli (GPa) = 98.33368 98.33368 94.92874
#
# Poissons Ratio (x) = 0.26485 0.39555
# Poissons Ratio (y) = 0.26485 0.39555
# Poissons Ratio (z) = 0.40974 0.40974
#
# Static dielectric constant tensor:
#      x y z
#    x 4.692990 0.000000 0.000000 
#    y 0.000000 4.692990 0.000000 
#    z 0.000000 0.000000 4.846900 
# 
# 
# High freq. dielectric constant tensor:
#      x y z
#    x 1.955910 0.000000 0.000000 
#    y 0.000000 1.955910 0.000000 
#    z 0.000000 0.000000 1.976280 
# 
# From -- ./inp_files/1382.got.cif
#   From: 2010.03.12/outbox.cif.g09.slc.cpg/sg152_1_cif.got.tgz:1382.got - 2010.04.03 13:45:27.
