data_PCOD8322132
_publ_section_title
;
Structure prediction by ZEFSAII (Michael W. Deem and Ramdas Pophale) SiO2 
 PCOD8322132
Probable space group: P 31 2 1
;
_chemical_formula_sum "Si O2"
_cell_formula_units_Z 24
_cell_length_a 7.949120
_cell_length_b 7.949120
_cell_length_c 20.209895
_cell_angle_alpha 90.000000
_cell_angle_beta 90.000000
_cell_angle_gamma 120.000000
_cell_volume 1105.943130
_symmetry_space_group_name_H-M "P 31 2 1"
_symmetry_group_IT_number 152
_symmetry_cell_setting 'hexagonal'
loop_
_space_group_symop_operation_xyz
x,y,z
-y,x-y,1/3+z
-x+y,-x,2/3+z
x-y,-y,2/3-z
-x,-x+y,1/3-z
y,x,-z
loop_
_atom_site_type_symbol
_atom_site_label
_atom_site_fract_x
_atom_site_fract_y
_atom_site_fract_z
Si Si1 0.289928 0.826268 0.685821
Si Si2 0.543697 0.837865 0.973070
Si Si3 0.780228 0.948545 0.239314
Si Si4 0.145903 0.926606 0.429979
O O1 0.309906 0.661753 0.648124
O O2 0.122971 0.734735 0.743089
O O3 0.217403 0.918893 0.628968
O O4 0.496565 0.985693 0.715752
O O5 0.661953 0.796951 0.916478
O O6 0.652536 0.885743 0.043003
O O7 0.689853 0.846755 0.168970
O O8 0.010159 0.051397 0.239401
#
# Coordination Sequence:
#
# PCOD8322132 Si02
#       4
#     6   6   6   6
#     4  11  22  39  62  89 122 160 200 251 305 358
#     4  11  22  39  62  89 122 160 200 251 305 358
#     4  10  21  39  61  89 122 158 200 250 301 360
#     4  10  21  39  61  89 122 158 200 250 301 360
#
# _framework density 21.700937
#
# number of rings (size 3 to 8) (size 9 to 14) (size 15 to 20)
#    0.000    1.500    0.000    9.000    0.000    4.000 
#    0.000   15.000    0.000    0.000    0.000    0.000 
#    0.000    0.000    0.000    0.000    0.000    0.000 
#
# Total GULP energy -297587.981394 kJ/mol
# GULP energy per Si atom -12399.499225 kJ/mol
# Density = 2.165154 g / cm^3
# Si number density = 21.700937 Si / 1000 Ang^3
#
#
#
# Elastic Constant Matrix: (Units=GPa)
#
#
# Indices 1 2 3 4 5 6 
#
# 1 92.1115 16.9402 28.2651 1.3447 0.0000 0.0000
# 2 16.9402 92.1115 28.2651 -1.3447 0.0000 0.0000
# 3 28.2651 28.2651 144.6867 0.0000 0.0000 0.0000
# 4 1.3447 -1.3447 0.0000 20.0525 0.0000 0.0000
# 5 0.0000 0.0000 0.0000 0.0000 20.0525 1.3447
# 6 0.0000 0.0000 0.0000 0.0000 1.3447 37.5857
#
#
#
# Elastic Compliance Matrix: (Units=1/GPa)
#
#
# Indices 1 2 3 4 5 6 
#
# 1 0.011769 -0.001566 -0.001993 -0.000894 0.000000 0.000000
# 2 -0.001566 0.011769 -0.001993 0.000894 0.000000 0.000000
# 3 -0.001993 -0.001993 0.007690 0.000000 0.000000 0.000000
# 4 -0.000894 0.000894 0.000000 0.049989 0.000000 0.000000
# 5 0.000000 0.000000 0.000000 0.000000 0.049989 -0.001788
# 6 0.000000 0.000000 0.000000 0.000000 -0.001788 0.026670
#
#
# Mechanical properties :
#
#
# Convention : Reuss Voigt Hill
#
# Bulk Modulus (GPa) = 49.69256 52.87230 51.28243
# Shear Modulus (GPa) = 28.45943 32.56744 30.51343
#
# Velocity S-wave (km/s) = 3.62531 3.87814 3.75385
# Velocity P-wave (km/s) = 6.36179 6.66860 6.51700
#
# Compressibility (1/GPa) = 0.02012374
#
# Stress axis : x y z
#
# Youngs Moduli (GPa) = 84.96844 84.96844 130.03462
#
# Poissons Ratio (x) = 0.13305 0.25919
# Poissons Ratio (y) = 0.13305 0.25919
# Poissons Ratio (z) = 0.16936 0.16936
#
# Static dielectric constant tensor:
#      x y z
#    x 3.998460 0.000000 0.000000 
#    y 0.000000 3.998460 0.000000 
#    z 0.000000 0.000000 4.279780 
# 
# 
# High freq. dielectric constant tensor:
#      x y z
#    x 1.854310 0.000000 0.000000 
#    y 0.000000 1.854310 0.000000 
#    z 0.000000 0.000000 1.838900 
# 
# From -- ./inp_files/2663.got.cif
#   From: 2010.03.12/outbox.cif.g09.slc.cpg/sg152_2_cif.got.tgz:2663.got - 2010.04.03 13:45:27.
