data_PCOD8322186
_publ_section_title
;
Structure prediction by ZEFSAII (Michael W. Deem and Ramdas Pophale) SiO2 
 PCOD8322186
Probable space group: P 31 2 1
;
_chemical_formula_sum "Si O2"
_cell_formula_units_Z 30
_cell_length_a 8.654339
_cell_length_b 8.654339
_cell_length_c 18.542056
_cell_angle_alpha 90.000000
_cell_angle_beta 90.000000
_cell_angle_gamma 120.000000
_cell_volume 1202.697272
_symmetry_space_group_name_H-M "P 31 2 1"
_symmetry_group_IT_number 152
_symmetry_cell_setting 'hexagonal'
loop_
_space_group_symop_operation_xyz
x,y,z
-y,x-y,1/3+z
-x+y,-x,2/3+z
x-y,-y,2/3-z
-x,-x+y,1/3-z
y,x,-z
loop_
_atom_site_type_symbol
_atom_site_label
_atom_site_fract_x
_atom_site_fract_y
_atom_site_fract_z
Si Si1 0.333261 0.035743 0.676146
Si Si2 0.449256 0.668219 0.842217
Si Si3 0.416820 0.000000 0.833334
Si Si4 0.934364 0.934364 0.000000
Si Si5 0.337599 0.636387 0.000313
Si Si6 0.376889 0.117605 0.223076
O O1 0.511297 0.195717 0.638705
O O2 0.165072 0.041705 0.642916
O O3 0.340994 0.055141 0.764166
O O4 0.313592 0.849898 0.652704
O O5 0.435992 0.831096 0.804888
O O6 0.447388 0.702922 0.927074
O O7 0.637795 0.676715 0.830906
O O8 0.301700 0.466176 0.821160
O O9 0.797884 0.874960 0.066453
O O10 0.462418 0.605446 0.056391
#
# Coordination Sequence:
#
# PCOD8322186 Si02
#       6
#     6   6   3   3   6   6
#     4  11  26  45  75 106 145 196 241 306 368 446
#     4  11  26  44  75 102 142 191 242 304 367 439
#     4  10  24  48  72 102 138 192 252 292 368 442
#     4  12  28  46  72 110 148 188 250 304 370 438
#     4  11  24  47  74  99 147 193 241 299 375 435
#     4  12  26  48  71 107 150 189 248 307 373 443
#
# _framework density 24.943930000000002
#
# number of rings (size 3 to 8) (size 9 to 14) (size 15 to 20)
#    0.000    0.800    4.000    1.200   14.000    0.000 
#    0.000    0.000    0.000    0.000    0.000    0.000 
#    0.000    0.000    0.000    0.000    0.000    0.000 
#
# Total GULP energy -371991.916588 kJ/mol
# GULP energy per Si atom -12399.730553 kJ/mol
# Density = 2.488716 g / cm^3
# Si number density = 24.943930 Si / 1000 Ang^3
#
#
#
# Elastic Constant Matrix: (Units=GPa)
#
#
# Indices 1 2 3 4 5 6 
#
# 1 131.4655 47.4490 -3.0692 -8.7836 0.0000 0.0000
# 2 47.4490 131.4655 -3.0692 8.7836 0.0000 0.0000
# 3 -3.0692 -3.0692 21.4800 0.0000 0.0000 0.0000
# 4 -8.7836 8.7836 0.0000 39.9382 0.0000 0.0000
# 5 0.0000 0.0000 0.0000 0.0000 39.9382 -8.7836
# 6 0.0000 0.0000 0.0000 0.0000 -8.7836 42.0083
#
#
#
# Elastic Compliance Matrix: (Units=1/GPa)
#
#
# Indices 1 2 3 4 5 6 
#
# 1 0.009046 -0.003430 0.000803 0.002744 0.000000 0.000000
# 2 -0.003430 0.009046 0.000803 -0.002744 0.000000 0.000000
# 3 0.000803 0.000803 0.046784 0.000000 0.000000 0.000000
# 4 0.002744 -0.002744 0.000000 0.026246 0.000000 0.000000
# 5 0.000000 0.000000 0.000000 0.000000 0.026246 0.005488
# 6 0.000000 0.000000 0.000000 0.000000 0.005488 0.024952
#
#
# Mechanical properties :
#
#
# Convention : Reuss Voigt Hill
#
# Bulk Modulus (GPa) = 16.33234 40.78135 28.55684
# Shear Modulus (GPa) = 30.05184 40.58365 35.31774
#
# Velocity S-wave (km/s) = 3.47475 4.03798 3.76691
# Velocity P-wave (km/s) = 4.76029 6.17455 5.51296
#
# Compressibility (1/GPa) = 0.06122823
#
# Stress axis : x y z
#
# Youngs Moduli (GPa) = 110.54042 110.54042 21.37466
#
# Poissons Ratio (x) = 0.37912 -0.01715
# Poissons Ratio (y) = 0.37912 -0.01715
# Poissons Ratio (z) = -0.08872 -0.08872
#
# Static dielectric constant tensor:
#      x y z
#    x 4.486060 0.000000 0.000000 
#    y 0.000000 4.486060 0.000000 
#    z 0.000000 0.000000 4.579200 
# 
# 
# High freq. dielectric constant tensor:
#      x y z
#    x 1.990070 0.000000 0.000000 
#    y 0.000000 1.990070 0.000000 
#    z 0.000000 0.000000 2.011110 
# 
# From -- ./inp_files/3050.got.cif
#   From: 2010.03.12/outbox.cif.g09.slc.cpg/sg152_2_cif.got.tgz:3050.got - 2010.04.03 13:45:27.
