data_PCOD8322001
_publ_section_title
;
Structure prediction by ZEFSAII (Michael W. Deem and Ramdas Pophale) SiO2 
 PCOD8322001
Probable space group: P 31 1 2
;
_chemical_formula_sum "Si O2"
_cell_formula_units_Z 36
_cell_length_a 11.784555
_cell_length_b 11.784555
_cell_length_c 14.337882
_cell_angle_alpha 90.000000
_cell_angle_beta 90.000000
_cell_angle_gamma 120.000000
_cell_volume 1724.415861
_symmetry_space_group_name_H-M "P 31 1 2"
_symmetry_group_IT_number 151
_symmetry_cell_setting 'hexagonal'
loop_
_space_group_symop_operation_xyz
x,y,z
-y,x-y,1/3+z
-x+y,-x,2/3+z
-y,-x,2/3-z
-x+y,y,1/3-z
x,x-y,-z
loop_
_atom_site_type_symbol
_atom_site_label
_atom_site_fract_x
_atom_site_fract_y
_atom_site_fract_z
Si Si1 0.576157 0.062813 0.073278
Si Si2 0.940255 0.104799 0.226692
Si Si3 0.993475 0.398209 0.234715
Si Si4 0.444208 0.765369 0.897239
Si Si5 0.777988 0.355176 0.104388
Si Si6 0.712635 0.911586 0.090215
O O1 0.495549 0.991098 0.166667
O O2 0.694036 0.199836 0.107891
O O3 0.635628 0.975145 0.036970
O O4 0.485113 0.077269 0.995825
O O5 0.939698 0.060303 0.333334
O O6 0.980966 0.256494 0.232494
O O7 0.046529 0.093057 0.166667
O O8 0.803664 0.005618 0.173458
O O9 0.920613 0.407016 0.144252
O O10 0.137381 0.522032 0.225433
O O11 0.358308 0.641693 0.833334
O O12 0.599561 0.829407 0.868916
O O13 0.420602 0.710301 0.000000
O O14 0.709007 0.418014 0.166667
O O15 0.799504 0.399752 0.000000
O O16 0.788610 0.894305 0.000000
#
# Coordination Sequence:
#
# PCOD8322001 Si02
#       6
#     6   6   6   6   6   6
#     4  11  21  38  66 101 132 175 235 293 355 428
#     4  12  28  48  72 103 144 195 247 302 364 439
#     4  12  24  44  67 106 140 185 234 302 360 421
#     4  11  25  43  70 103 139 181 238 296 360 427
#     4  11  23  38  64  98 139 173 226 285 349 423
#     4  11  22  45  72  99 135 188 245 288 358 444
#
# _framework density 20.876633999999999
#
# number of rings (size 3 to 8) (size 9 to 14) (size 15 to 20)
#    0.000    0.667    6.667    2.500    4.667    0.667 
#    3.000    0.833    0.000    0.000    0.000    0.000 
#    0.000    0.000    0.000    0.000    0.000    0.000 
#
# Total GULP energy -446088.241125 kJ/mol
# GULP energy per Si atom -12391.340031 kJ/mol
# Density = 2.082912 g / cm^3
# Si number density = 20.876634 Si / 1000 Ang^3
#
#
#
# Elastic Constant Matrix: (Units=GPa)
#
#
# Indices 1 2 3 4 5 6 
#
# 1 116.1251 45.9385 57.9648 -0.0005 -5.2311 0.0000
# 2 45.9385 116.1251 57.9648 0.0005 5.2311 0.0000
# 3 57.9648 57.9648 160.4017 0.0000 0.0000 0.0000
# 4 -0.0005 0.0005 0.0000 21.1744 0.0000 5.2311
# 5 -5.2311 5.2311 0.0000 0.0000 21.1744 -0.0005
# 6 0.0000 0.0000 0.0000 5.2311 -0.0005 35.0933
#
#
#
# Elastic Compliance Matrix: (Units=1/GPa)
#
#
# Indices 1 2 3 4 5 6 
#
# 1 0.011557 -0.003235 -0.003007 0.000000 0.003654 0.000000
# 2 -0.003235 0.011557 -0.003007 0.000000 -0.003654 0.000000
# 3 -0.003007 -0.003007 0.008408 0.000000 0.000000 0.000000
# 4 0.000000 0.000000 0.000000 0.049033 0.000000 -0.007309
# 5 0.003654 -0.003654 0.000000 0.000000 0.049033 0.000001
# 6 0.000000 0.000000 0.000000 -0.007309 0.000001 0.029585
#
#
# Mechanical properties :
#
#
# Convention : Reuss Voigt Hill
#
# Bulk Modulus (GPa) = 76.79218 79.59866 78.19542
# Shear Modulus (GPa) = 27.47067 30.87399 29.17233
#
# Velocity S-wave (km/s) = 3.63141 3.84979 3.74219
# Velocity P-wave (km/s) = 7.37879 7.61394 7.49728
#
# Compressibility (1/GPa) = 0.01302216
#
# Stress axis : x y z
#
# Youngs Moduli (GPa) = 86.52753 86.52753 118.93749
#
# Poissons Ratio (x) = 0.27996 0.35767
# Poissons Ratio (y) = 0.27996 0.35767
# Poissons Ratio (z) = 0.26020 0.26020
#
# Static dielectric constant tensor:
#      x y z
#    x 4.051220 0.000000 0.000000 
#    y 0.000000 4.051220 0.000000 
#    z 0.000000 0.000000 3.884790 
# 
# 
# High freq. dielectric constant tensor:
#      x y z
#    x 1.817200 0.000000 0.000000 
#    y 0.000000 1.817200 0.000000 
#    z 0.000000 0.000000 1.827560 
# 
# From -- ./inp_files/2937.got.cif
#   From: 2010.03.12/outbox.cif.g09.slc.cpg/sg151_2_cif.got.tgz:2937.got - 2010.04.03 13:42:29.
