data_PCOD8322341
_publ_section_title
;
Structure prediction by ZEFSAII (Michael W. Deem and Ramdas Pophale) SiO2 
 PCOD8322341
Probable space group: P 32 2 1
;
_chemical_formula_sum "Si O2"
_cell_formula_units_Z 48
_cell_length_a 11.866799
_cell_length_b 11.866799
_cell_length_c 19.523329
_cell_angle_alpha 90.000000
_cell_angle_beta 90.000000
_cell_angle_gamma 120.000000
_cell_volume 2380.957686
_symmetry_space_group_name_H-M "P 32 2 1"
_symmetry_group_IT_number 154
_symmetry_cell_setting 'hexagonal'
loop_
_space_group_symop_operation_xyz
x,y,z
-y,x-y,2/3+z
-x+y,-x,1/3+z
x-y,-y,1/3-z
-x,-x+y,2/3-z
y,x,-z
loop_
_atom_site_type_symbol
_atom_site_label
_atom_site_fract_x
_atom_site_fract_y
_atom_site_fract_z
Si Si1 0.219217 0.422091 0.399499
Si Si2 0.852030 0.320569 0.712737
Si Si3 0.431541 0.562830 0.978409
Si Si4 0.269727 0.052554 0.240783
Si Si5 0.191334 0.552723 0.807128
Si Si6 0.444738 0.884803 0.431518
Si Si7 0.743767 0.040872 0.403795
Si Si8 0.295997 0.950258 0.536533
O O1 0.202382 0.542816 0.374643
O O2 0.346433 0.495491 0.446107
O O3 0.241782 0.345910 0.337540
O O4 0.095295 0.322608 0.445891
O O5 0.703112 0.216349 0.723933
O O6 0.877595 0.395660 0.784896
O O7 0.870250 0.411767 0.648965
O O8 0.933022 0.242966 0.708449
O O9 0.549409 0.642101 0.928361
O O10 0.433004 0.433004 0.000000
O O11 0.425888 0.129775 0.239876
O O12 0.222006 0.147234 0.271632
O O13 0.204210 0.000000 0.166667
O O14 0.346608 0.600032 0.802650
O O15 0.362670 0.946882 0.464995
O O16 0.599859 0.985023 0.436461
O O17 0.846122 0.141739 0.459471
#
# Coordination Sequence:
#
# PCOD8322341 Si02
#       8
#     6   6   6   6   6   6   6   6
#     4  10  20  38  64  93 125 165 204 263 330 393
#     4  11  20  37  59  89 127 162 211 263 322 381
#     4   9  18  32  56  89 122 154 203 256 319 372
#     4   9  21  40  61  83 121 173 217 257 319 382
#     4  10  20  37  60  92 126 162 203 269 336 376
#     4  11  22  35  63  97 124 162 214 271 320 391
#     4  10  22  41  64  88 127 169 215 262 320 382
#     4  10  22  38  62  92 125 169 205 264 324 389
#
# _framework density 20.159956000000001
#
# number of rings (size 3 to 8) (size 9 to 14) (size 15 to 20)
#    0.000    2.000    2.500    1.875    1.750    0.000 
#    4.500    1.250    0.000    0.000    0.000    0.000 
#    0.000    0.000    0.000    0.000    0.000    0.000 
#
# Total GULP energy -594748.390318 kJ/mol
# GULP energy per Si atom -12390.591465 kJ/mol
# Density = 2.011407 g / cm^3
# Si number density = 20.159956 Si / 1000 Ang^3
#
#
#
# Elastic Constant Matrix: (Units=GPa)
#
#
# Indices 1 2 3 4 5 6 
#
# 1 89.0190 45.5689 24.5744 -0.8870 0.0002 0.0000
# 2 45.5689 89.0190 24.5744 0.8870 -0.0002 0.0000
# 3 24.5744 24.5744 76.9495 0.0000 0.0000 0.0000
# 4 -0.8870 0.8870 0.0000 24.2930 0.0000 -0.0002
# 5 0.0002 -0.0002 0.0000 0.0000 24.2930 -0.8870
# 6 0.0000 0.0000 0.0000 -0.0002 -0.8870 21.7251
#
#
#
# Elastic Compliance Matrix: (Units=1/GPa)
#
#
# Indices 1 2 3 4 5 6 
#
# 1 0.015730 -0.007319 -0.002686 0.000842 0.000000 0.000000
# 2 -0.007319 0.015730 -0.002686 -0.000842 0.000000 0.000000
# 3 -0.002686 -0.002686 0.014711 0.000000 0.000000 0.000000
# 4 0.000842 -0.000842 0.000000 0.041226 0.000000 0.000000
# 5 0.000000 0.000000 0.000000 0.000000 0.041226 0.001683
# 6 0.000000 0.000000 0.000000 0.000000 0.001683 0.046099
#
#
# Mechanical properties :
#
#
# Convention : Reuss Voigt Hill
#
# Bulk Modulus (GPa) = 48.10294 49.38029 48.74162
# Shear Modulus (GPa) = 24.15071 24.74689 24.44880
#
# Velocity S-wave (km/s) = 3.46490 3.50741 3.48622
# Velocity P-wave (km/s) = 6.31821 6.39922 6.35884
#
# Compressibility (1/GPa) = 0.02078875
#
# Stress axis : x y z
#
# Youngs Moduli (GPa) = 63.57227 63.57227 67.97547
#
# Poissons Ratio (x) = 0.46529 0.18259
# Poissons Ratio (y) = 0.46529 0.18259
# Poissons Ratio (z) = 0.17076 0.17076
#
# Static dielectric constant tensor:
#      x y z
#    x 3.892860 0.000000 0.000000 
#    y 0.000000 3.892860 0.000000 
#    z 0.000000 0.000000 3.631680 
# 
# 
# High freq. dielectric constant tensor:
#      x y z
#    x 1.781900 0.000000 0.000000 
#    y 0.000000 1.781900 0.000000 
#    z 0.000000 0.000000 1.773630 
# 
# From -- ./inp_files/2870.got.cif
#   From: 2010.03.12/outbox.cif.g09.slc.cpg/sg154_2_cif.got.tgz:2870.got - 2010.04.03 13:51:21.
