data_PCOD8322318
_publ_section_title
;
Structure prediction by ZEFSAII (Michael W. Deem and Ramdas Pophale) SiO2 
 PCOD8322318
Probable space group: P 32 2 1
;
_chemical_formula_sum "Si O2"
_cell_formula_units_Z 48
_cell_length_a 11.510774
_cell_length_b 11.510774
_cell_length_c 20.486662
_cell_angle_alpha 90.000000
_cell_angle_beta 90.000000
_cell_angle_gamma 120.000000
_cell_volume 2350.774052
_symmetry_space_group_name_H-M "P 32 2 1"
_symmetry_group_IT_number 154
_symmetry_cell_setting 'hexagonal'
loop_
_space_group_symop_operation_xyz
x,y,z
-y,x-y,2/3+z
-x+y,-x,1/3+z
x-y,-y,1/3-z
-x,-x+y,2/3-z
y,x,-z
loop_
_atom_site_type_symbol
_atom_site_label
_atom_site_fract_x
_atom_site_fract_y
_atom_site_fract_z
Si Si1 0.030988 0.446681 0.193190
Si Si2 0.778568 0.878189 0.849686
Si Si3 0.440113 0.868908 0.194598
Si Si4 0.062984 0.029739 0.399537
Si Si5 0.283286 0.622735 0.275059
Si Si6 0.420580 0.378303 0.757086
Si Si7 0.308884 0.308197 0.381414
Si Si8 0.755129 0.282274 0.253174
O O1 0.053963 0.539228 0.129696
O O2 0.886900 0.403659 0.222804
O O3 0.036824 0.316292 0.171870
O O4 0.133796 0.527529 0.250298
O O5 0.861069 0.938857 0.783231
O O6 0.690374 0.945925 0.866867
O O7 0.880978 0.905103 0.908582
O O8 0.334965 0.774647 0.249436
O O9 0.587857 0.931299 0.225966
O O10 0.410493 0.770844 0.133925
O O11 0.433542 0.000000 0.166667
O O12 0.213072 0.149158 0.385065
O O13 0.000000 0.948954 0.333334
O O14 0.372852 0.557801 0.251813
O O15 0.286639 0.629799 0.353255
O O16 0.355074 0.384159 0.688294
O O17 0.222429 0.383186 0.389608
#
# Coordination Sequence:
#
# PCOD8322318 Si02
#       8
#     6   6   6   6   6   6   6   6
#     4  11  20  37  63  86 123 161 206 258 312 364
#     4  10  22  36  61  94 120 157 212 262 312 377
#     4  10  21  38  61  88 126 155 203 259 310 371
#     4  11  20  35  64  90 123 158 201 263 326 375
#     4  10  22  35  60  89 117 164 198 260 311 365
#     4  10  21  38  57  88 128 158 207 252 313 379
#     4  10  20  34  60  92 123 158 196 261 314 372
#     4  10  19  35  58  90 120 150 205 260 307 359
#
# _framework density 20.418807000000001
#
# number of rings (size 3 to 8) (size 9 to 14) (size 15 to 20)
#    0.000    1.750    3.750    1.125    3.500    1.000 
#    0.000    1.250    2.750    0.000    0.000    0.000 
#    0.000    0.000    0.000    0.000    0.000    0.000 
#
# Total GULP energy -595099.890985 kJ/mol
# GULP energy per Si atom -12397.914396 kJ/mol
# Density = 2.037233 g / cm^3
# Si number density = 20.418807 Si / 1000 Ang^3
#
#
#
# Elastic Constant Matrix: (Units=GPa)
#
#
# Indices 1 2 3 4 5 6 
#
# 1 56.5265 13.2671 31.3967 1.3493 0.0000 0.0000
# 2 13.2671 56.5265 31.3967 -1.3493 0.0000 0.0000
# 3 31.3967 31.3967 146.9007 0.0000 0.0000 0.0000
# 4 1.3493 -1.3493 0.0000 29.2748 0.0000 0.0000
# 5 0.0000 0.0000 0.0000 0.0000 29.2748 1.3493
# 6 0.0000 0.0000 0.0000 0.0000 1.3493 21.6297
#
#
#
# Elastic Compliance Matrix: (Units=1/GPa)
#
#
# Indices 1 2 3 4 5 6 
#
# 1 0.020461 -0.002722 -0.003791 -0.001069 0.000000 0.000000
# 2 -0.002722 0.020461 -0.003791 0.001069 0.000000 0.000000
# 3 -0.003791 -0.003791 0.008428 0.000000 0.000000 0.000000
# 4 -0.001069 0.001069 0.000000 0.034258 0.000000 0.000000
# 5 0.000000 0.000000 0.000000 0.000000 0.034258 -0.002137
# 6 0.000000 0.000000 0.000000 0.000000 -0.002137 0.046366
#
#
# Mechanical properties :
#
#
# Convention : Reuss Voigt Hill
#
# Bulk Modulus (GPa) = 34.79386 45.78606 40.28996
# Shear Modulus (GPa) = 25.71745 28.29542 27.00644
#
# Velocity S-wave (km/s) = 3.55279 3.72661 3.64074
# Velocity P-wave (km/s) = 5.82296 6.40226 6.11947
#
# Compressibility (1/GPa) = 0.02874071
#
# Stress axis : x y z
#
# Youngs Moduli (GPa) = 48.87349 48.87349 118.65306
#
# Poissons Ratio (x) = 0.13303 0.44985
# Poissons Ratio (y) = 0.13303 0.44985
# Poissons Ratio (z) = 0.18529 0.18529
#
# Static dielectric constant tensor:
#      x y z
#    x 3.517360 0.000000 0.000000 
#    y 0.000000 3.517360 0.000000 
#    z 0.000000 0.000000 3.873520 
# 
# 
# High freq. dielectric constant tensor:
#      x y z
#    x 1.775170 0.000000 0.000000 
#    y 0.000000 1.775170 0.000000 
#    z 0.000000 0.000000 1.815220 
# 
# From -- ./inp_files/2864.got.cif
#   From: 2010.03.12/outbox.cif.g09.slc.cpg/sg154_2_cif.got.tgz:2864.got - 2010.04.03 13:51:21.
