data_PCOD8322751
_publ_section_title
;
Structure prediction by ZEFSAII (Michael W. Deem and Ramdas Pophale) SiO2 
 PCOD8322751
Probable space group: P 3 C 1
;
_chemical_formula_sum "Si O2"
_cell_formula_units_Z 28
_cell_length_a 11.494157
_cell_length_b 11.494157
_cell_length_c 13.819586
_cell_angle_alpha 90.000000
_cell_angle_beta 90.000000
_cell_angle_gamma 120.000000
_cell_volume 1581.174910
_symmetry_space_group_name_H-M "P 3 C 1"
_symmetry_group_IT_number 158
_symmetry_cell_setting 'hexagonal'
loop_
_space_group_symop_operation_xyz
x,y,z
-y,x-y,z
-x+y,-x,z
-x+y,y,1/2+z
x,x-y,1/2+z
-y,-x,1/2+z
loop_
_atom_site_type_symbol
_atom_site_label
_atom_site_fract_x
_atom_site_fract_y
_atom_site_fract_z
Si Si1 0.080290 0.412823 0.971840
Si Si2 0.080284 0.667455 0.882972
Si Si3 0.483532 0.816639 0.677405
Si Si4 0.666668 0.333334 0.062403
Si Si5 0.666667 0.333334 0.792410
Si Si6 0.426665 0.213338 0.427405
O O1 0.078683 0.539336 0.927404
O O2 0.199755 0.399497 0.927410
O O3 0.943481 0.276111 0.949069
O O4 0.098289 0.431682 0.086411
O O5 0.098291 0.666606 0.768401
O O6 0.943470 0.667350 0.905736
O O7 0.333480 0.798719 0.677405
O O8 0.666668 0.333334 0.177407
O O9 0.712478 0.231016 0.021320
O O10 0.769009 0.287555 0.833497
#
# Coordination Sequence:
#
# PCOD8322751 Si02
#       6
#     6   6   6   2   2   6
#     4  12  21  40  61  89 125 156 205 262 306 369
#     4  12  21  40  61  89 125 156 205 262 306 369
#     4  10  20  34  62  98 116 158 204 260 322 348
#     4  10  20  40  61  86 118 157 200 250 310 371
#     4  10  20  40  61  86 118 157 200 250 310 371
#     4  10  24  38  58  90 122 160 200 246 320 362
#
# _framework density 17.708348999999998
#
# number of rings (size 3 to 8) (size 9 to 14) (size 15 to 20)
#    0.429    0.857    8.571    0.429    3.000    0.000 
#    5.143    0.000    0.000    0.000    0.000    0.000 
#    0.000    0.000    0.000    0.000    0.000    0.000 
#
# Total GULP energy -347196.700474 kJ/mol
# GULP energy per Si atom -12399.882160 kJ/mol
# Density = 1.766804 g / cm^3
# Si number density = 17.708349 Si / 1000 Ang^3
#
#
#
# Elastic Constant Matrix: (Units=GPa)
#
#
# Indices 1 2 3 4 5 6 
#
# 1 117.9520 56.9256 48.0385 -0.0004 0.0000 0.0000
# 2 56.9256 117.9526 48.0384 0.0004 0.0000 0.0000
# 3 48.0385 48.0384 170.2002 -0.0002 0.0000 0.0000
# 4 -0.0004 0.0004 -0.0002 19.1846 0.0000 0.0000
# 5 0.0000 0.0000 0.0000 0.0000 19.1843 -0.0004
# 6 0.0000 0.0000 0.0000 0.0000 -0.0004 30.5131
#
#
#
# Elastic Compliance Matrix: (Units=1/GPa)
#
#
# Indices 1 2 3 4 5 6 
#
# 1 0.011577 -0.004809 -0.001910 0.000000 0.000000 0.000000
# 2 -0.004809 0.011577 -0.001910 0.000000 0.000000 0.000000
# 3 -0.001910 -0.001910 0.006954 0.000000 0.000000 0.000000
# 4 0.000000 0.000000 0.000000 0.052125 0.000000 0.000000
# 5 0.000000 0.000000 0.000000 0.000000 0.052126 0.000001
# 6 0.000000 0.000000 0.000000 0.000000 0.000001 0.032773
#
#
# Mechanical properties :
#
#
# Convention : Reuss Voigt Hill
#
# Bulk Modulus (GPa) = 77.83026 79.12330 78.47678
# Shear Modulus (GPa) = 26.50077 30.64988 28.57532
#
# Velocity S-wave (km/s) = 3.87268 4.16482 4.02140
# Velocity P-wave (km/s) = 8.00271 8.24051 8.12248
#
# Compressibility (1/GPa) = 0.01284847
#
# Stress axis : x y z
#
# Youngs Moduli (GPa) = 86.37802 86.37852 143.80813
#
# Poissons Ratio (x) = 0.41542 0.27470
# Poissons Ratio (y) = 0.41542 0.27470
# Poissons Ratio (z) = 0.16500 0.16500
#
# Static dielectric constant tensor:
#      x y z
#    x 3.079200 0.000000 0.000000 
#    y 0.000000 3.079150 0.000010 
#    z 0.000000 0.000010 3.360920 
# 
# 
# High freq. dielectric constant tensor:
#      x y z
#    x 1.670260 0.000000 0.000000 
#    y 0.000000 1.670260 0.000000 
#    z 0.000000 0.000000 1.695530 
# 
# From -- ./inp_files/408.got.cif
#   From: 2010.03.12/outbox.cif.g09.slc.cpg/sg158_cif.got.tgz:408.got - 2010.04.03 13:59:47.
