data_PCOD8322131
_publ_section_title
;
Structure prediction by ZEFSAII (Michael W. Deem and Ramdas Pophale) SiO2 
 PCOD8322131
Probable space group: P 31 2 1
;
_chemical_formula_sum "Si O2"
_cell_formula_units_Z 30
_cell_length_a 11.301236
_cell_length_b 11.301236
_cell_length_c 13.743912
_cell_angle_alpha 90.000000
_cell_angle_beta 90.000000
_cell_angle_gamma 120.000000
_cell_volume 1520.172549
_symmetry_space_group_name_H-M "P 31 2 1"
_symmetry_group_IT_number 152
_symmetry_cell_setting 'hexagonal'
loop_
_space_group_symop_operation_xyz
x,y,z
-y,x-y,1/3+z
-x+y,-x,2/3+z
x-y,-y,2/3-z
-x,-x+y,1/3-z
y,x,-z
loop_
_atom_site_type_symbol
_atom_site_label
_atom_site_fract_x
_atom_site_fract_y
_atom_site_fract_z
Si Si1 0.000000 0.557487 0.666667
Si Si2 0.755323 0.037512 0.493160
Si Si3 0.702534 0.620953 0.699842
Si Si4 0.594375 0.142344 0.597816
Si Si5 0.634305 0.357262 0.069880
Si Si6 0.215616 0.000000 0.833334
O O1 0.039777 0.664789 0.755208
O O2 0.873698 0.410907 0.693942
O O3 0.878619 0.168369 0.437820
O O4 0.694656 0.079080 0.585675
O O5 0.805795 0.933712 0.525495
O O6 0.565354 0.602719 0.748677
O O7 0.678270 0.468711 0.691398
O O8 0.722032 0.688388 0.593819
O O9 0.640836 0.265401 0.519649
O O10 0.619183 0.211270 0.704270
#
# Coordination Sequence:
#
# PCOD8322131 Si02
#       6
#     3   6   6   6   6   3
#     4   8  16  36  56  80 108 150 206 220 290 364
#     4  10  21  39  59  87 116 163 197 242 304 365
#     4  10  23  38  62  91 117 160 206 250 307 360
#     4  10  24  38  63  89 124 153 205 253 310 356
#     4  10  22  38  62  84 123 155 203 245 306 360
#     4  12  20  38  66  84 124 156 214 248 292 370
#
# _framework density 19.734601000000001
#
# number of rings (size 3 to 8) (size 9 to 14) (size 15 to 20)
#    0.000    2.400    4.000    0.000   16.800    0.000 
#    0.000    4.000    0.000    0.000    0.000    0.000 
#    0.000    0.000    0.000    0.000    0.000    0.000 
#
# Total GULP energy -371750.105064 kJ/mol
# GULP energy per Si atom -12391.670169 kJ/mol
# Density = 1.968968 g / cm^3
# Si number density = 19.734601 Si / 1000 Ang^3
#
#
#
# Elastic Constant Matrix: (Units=GPa)
#
#
# Indices 1 2 3 4 5 6 
#
# 1 90.9066 45.7565 37.2055 -10.3976 0.0000 0.0000
# 2 45.7565 90.9066 37.2055 10.3976 0.0000 0.0000
# 3 37.2055 37.2055 61.8475 0.0000 0.0000 0.0000
# 4 -10.3976 10.3976 0.0000 25.4176 0.0000 0.0000
# 5 0.0000 0.0000 0.0000 0.0000 25.4176 -10.3976
# 6 0.0000 0.0000 0.0000 0.0000 -10.3976 22.5751
#
#
#
# Elastic Compliance Matrix: (Units=1/GPa)
#
#
# Indices 1 2 3 4 5 6 
#
# 1 0.019086 -0.008204 -0.006546 0.011164 0.000000 0.000000
# 2 -0.008204 0.019086 -0.006546 -0.011164 0.000000 0.000000
# 3 -0.006546 -0.006546 0.024044 0.000000 0.000000 0.000000
# 4 0.011164 -0.011164 0.000000 0.048476 0.000000 0.000000
# 5 0.000000 0.000000 0.000000 0.000000 0.048476 0.022327
# 6 0.000000 0.000000 0.000000 0.000000 0.022327 0.054580
#
#
# Mechanical properties :
#
#
# Convention : Reuss Voigt Hill
#
# Bulk Modulus (GPa) = 50.95904 53.77731 52.36817
# Shear Modulus (GPa) = 19.01997 22.91492 20.96745
#
# Velocity S-wave (km/s) = 3.10786 3.41127 3.26309
# Velocity P-wave (km/s) = 6.22548 6.54409 6.38677
#
# Compressibility (1/GPa) = 0.01962360
#
# Stress axis : x y z
#
# Youngs Moduli (GPa) = 52.39528 52.39528 41.58959
#
# Poissons Ratio (x) = 0.42986 0.27224
# Poissons Ratio (y) = 0.42986 0.27224
# Poissons Ratio (z) = 0.34298 0.34298
#
# Static dielectric constant tensor:
#      x y z
#    x 3.595720 0.000000 0.000000 
#    y 0.000000 3.595720 0.000000 
#    z 0.000000 0.000000 3.462220 
# 
# 
# High freq. dielectric constant tensor:
#      x y z
#    x 1.759410 0.000000 0.000000 
#    y 0.000000 1.759410 0.000000 
#    z 0.000000 0.000000 1.757580 
# 
# From -- ./inp_files/1981.got.cif
#   From: 2010.03.12/outbox.cif.g09.slc.cpg/sg152_1_cif.got.tgz:1981.got - 2010.04.03 13:45:27.
