data_PCOD8322909
_publ_section_title
;
Structure prediction by ZEFSAII (Michael W. Deem and Ramdas Pophale) SiO2 
 PCOD8322909
Probable space group: R 3 C
;
_chemical_formula_sum "Si O2"
_cell_formula_units_Z 120
_cell_length_a 15.058017
_cell_length_b 15.058017
_cell_length_c 28.567196
_cell_angle_alpha 90.000000
_cell_angle_beta 90.000000
_cell_angle_gamma 120.000000
_cell_volume 5609.624774
_symmetry_space_group_name_H-M "R 3 C"
_symmetry_group_IT_number 161
_symmetry_cell_setting 'hexagonal'
loop_
_space_group_symop_operation_xyz
x,y,z
-y,x-y,z
-x+y,-x,z
-x+y,y,1/2+z
x,x-y,1/2+z
-y,-x,1/2+z
2/3+x,1/3+y,1/3+z
2/3-y,1/3+x-y,1/3+z
2/3-x+y,1/3-x,1/3+z
2/3-x+y,1/3+y,5/6+z
2/3+x,1/3+x-y,5/6+z
2/3-y,1/3-x,5/6+z
1/3+x,2/3+y,2/3+z
1/3-y,2/3+x-y,2/3+z
1/3-x+y,2/3-x,2/3+z
1/3-x+y,2/3+y,1/6+z
1/3+x,2/3+x-y,1/6+z
1/3-y,2/3-x,1/6+z
loop_
_atom_site_type_symbol
_atom_site_label
_atom_site_fract_x
_atom_site_fract_y
_atom_site_fract_z
Si Si1 0.565056 0.457254 0.684030
Si Si2 0.666668 0.333334 0.184146
Si Si3 0.678736 0.995224 0.209831
Si Si4 0.331530 0.005848 0.533415
Si Si5 0.666668 0.333334 0.072472
Si Si6 0.867225 0.329830 0.451575
Si Si7 0.564296 0.458170 0.577540
Si Si8 0.326257 0.869774 0.285930
O O1 0.594482 0.375291 0.703811
O O2 0.632443 0.561852 0.711584
O O3 0.445193 0.413440 0.689763
O O4 0.599192 0.483541 0.630694
O O5 0.666668 0.333334 0.128311
O O6 0.778719 0.040719 0.242238
O O7 0.592424 0.892290 0.234976
O O8 0.706945 0.974890 0.157852
O O9 0.276225 0.041116 0.571354
O O10 0.363795 0.074222 0.486130
O O11 0.438255 0.021458 0.553273
O O12 0.781003 0.412409 0.053685
O O13 0.867694 0.430886 0.471764
O O14 0.752788 0.237156 0.443278
#
# Coordination Sequence:
#
# PCOD8322909 Si02
#       8
#    18   6  18  18   6  18  18  18
#     4  11  22  42  63  99 133 174 224 277 334 406
#     4   9  21  36  66  90 135 166 209 283 348 372
#     4  12  24  42  70  97 132 180 224 274 338 400
#     4  12  24  42  70  97 132 180 224 274 338 400
#     4   9  24  36  63 102 132 163 227 295 342 405
#     4  12  27  45  69  99 135 178 227 279 340 404
#     4  11  23  40  66  95 134 173 222 283 342 391
#     4  12  27  45  69  99 135 178 227 279 340 404
#
# _framework density 21.391805000000002
#
# number of rings (size 3 to 8) (size 9 to 14) (size 15 to 20)
#    0.000    0.600    6.000    2.100    4.200    0.000 
#    0.000    0.000    0.000    0.000    0.000    0.000 
#    0.000    0.000    0.000    0.000    0.000    0.000 
#
# Total GULP energy -495995.463038 kJ/mol
# GULP energy per Si atom -12399.886576 kJ/mol
# Density = 2.134312 g / cm^3
# Si number density = 21.391805 Si / 1000 Ang^3
#
#
#
# Elastic Constant Matrix: (Units=GPa)
#
#
# Indices 1 2 3 4 5 6 
#
# 1 107.5448 32.5048 29.0175 -1.2111 0.0000 0.0000
# 2 32.5048 107.5454 29.0176 1.2112 0.0000 0.0000
# 3 29.0175 29.0176 81.9135 0.0000 0.0000 0.0000
# 4 -1.2111 1.2112 0.0000 32.9576 0.0000 0.0000
# 5 0.0000 0.0000 0.0000 0.0000 32.9574 -1.2112
# 6 0.0000 0.0000 0.0000 0.0000 -1.2112 37.5205
#
#
#
# Elastic Compliance Matrix: (Units=1/GPa)
#
#
# Indices 1 2 3 4 5 6 
#
# 1 0.010855 -0.002487 -0.002965 0.000490 0.000000 0.000000
# 2 -0.002487 0.010855 -0.002965 -0.000490 0.000000 0.000000
# 3 -0.002965 -0.002965 0.014308 0.000000 0.000000 0.000000
# 4 0.000490 -0.000490 0.000000 0.030378 0.000000 0.000000
# 5 0.000000 0.000000 0.000000 0.000000 0.030378 0.000981
# 6 0.000000 0.000000 0.000000 0.000000 0.000981 0.026684
#
#
# Mechanical properties :
#
#
# Convention : Reuss Voigt Hill
#
# Bulk Modulus (GPa) = 52.11713 53.12041 52.61877
# Shear Modulus (GPa) = 34.08622 34.45134 34.26878
#
# Velocity S-wave (km/s) = 3.99610 4.01745 4.00679
# Velocity P-wave (km/s) = 6.76075 6.81219 6.78652
#
# Compressibility (1/GPa) = 0.01918755
#
# Stress axis : x y z
#
# Youngs Moduli (GPa) = 92.11972 92.12019 69.88898
#
# Poissons Ratio (x) = 0.22907 0.20719
# Poissons Ratio (y) = 0.22906 0.20719
# Poissons Ratio (z) = 0.27310 0.27310
#
# Static dielectric constant tensor:
#      x y z
#    x 3.853770 0.000000 0.000000 
#    y 0.000000 3.853770 0.000000 
#    z 0.000000 0.000000 3.794630 
# 
# 
# High freq. dielectric constant tensor:
#      x y z
#    x 1.841060 0.000000 0.000000 
#    y 0.000000 1.841060 0.000000 
#    z 0.000000 0.000000 1.834610 
# 
# From -- ./inp_files/2438.got.cif
#   From: 2010.03.12/outbox.cif.g09.slc.cpg/sg161_cif.got.tgz:2438.got - 2010.04.02 06:27:14.
