data_PCOD8322173
_publ_section_title
;
Structure prediction by ZEFSAII (Michael W. Deem and Ramdas Pophale) SiO2 
 PCOD8322173
Probable space group: P 31 2 1
;
_chemical_formula_sum "Si O2"
_cell_formula_units_Z 42
_cell_length_a 12.084617
_cell_length_b 12.084617
_cell_length_c 17.521860
_cell_angle_alpha 90.000000
_cell_angle_beta 90.000000
_cell_angle_gamma 120.000000
_cell_volume 2216.035020
_symmetry_space_group_name_H-M "P 31 2 1"
_symmetry_group_IT_number 152
_symmetry_cell_setting 'hexagonal'
loop_
_space_group_symop_operation_xyz
x,y,z
-y,x-y,1/3+z
-x+y,-x,2/3+z
x-y,-y,2/3-z
-x,-x+y,1/3-z
y,x,-z
loop_
_atom_site_type_symbol
_atom_site_label
_atom_site_fract_x
_atom_site_fract_y
_atom_site_fract_z
Si Si1 0.563978 0.132590 0.809925
Si Si2 0.312882 0.516898 0.674658
Si Si3 0.766560 0.234358 0.937885
Si Si4 0.485746 0.565213 0.931388
Si Si5 0.381170 0.277309 0.173860
Si Si6 0.655017 0.613476 0.796553
Si Si7 0.531872 0.851292 0.565016
O O1 0.598261 0.107881 0.724712
O O2 0.678985 0.155819 0.866774
O O3 0.531899 0.246750 0.810399
O O4 0.438433 0.000000 0.833334
O O5 0.387513 0.653166 0.716052
O O6 0.190197 0.499078 0.632956
O O7 0.273425 0.407948 0.736871
O O8 0.916402 0.289552 0.917948
O O9 0.734664 0.153344 0.016364
O O10 0.367424 0.508595 0.873873
O O11 0.614320 0.603327 0.884748
O O12 0.467946 0.467946 0.000000
O O13 0.328911 0.138865 0.133745
O O14 0.295245 0.346719 0.177326
O O15 0.573772 0.470396 0.761296
#
# Coordination Sequence:
#
# PCOD8322173 Si02
#       7
#     6   6   6   6   6   6   6
#     4  11  23  36  57  90 121 162 201 247 309 376
#     4  11  18  34  56  86 124 149 195 253 307 367
#     4  11  21  36  59  90 124 157 201 256 319 364
#     4  11  21  34  57  88 121 165 204 252 309 370
#     4  11  21  37  56  87 126 164 199 249 311 367
#     4  11  21  39  61  91 127 161 203 257 311 371
#     4  10  23  37  58  89 125 165 196 258 313 372
#
# _framework density 18.952770999999998
#
# number of rings (size 3 to 8) (size 9 to 14) (size 15 to 20)
#    0.000    1.143    5.714    3.429    4.000    0.000 
#    0.000    0.000    0.000    0.857    0.000    0.000 
#    0.000    0.000    0.000    0.000    0.000    0.000 
#
# Total GULP energy -520358.851795 kJ/mol
# GULP energy per Si atom -12389.496471 kJ/mol
# Density = 1.890963 g / cm^3
# Si number density = 18.952771 Si / 1000 Ang^3
#
#
#
# Elastic Constant Matrix: (Units=GPa)
#
#
# Indices 1 2 3 4 5 6 
#
# 1 82.0648 38.8499 33.6218 -0.5664 0.0000 0.0000
# 2 38.8499 82.0648 33.6218 0.5664 0.0000 0.0000
# 3 33.6218 33.6218 103.0823 0.0000 0.0000 0.0000
# 4 -0.5664 0.5664 0.0000 34.4369 0.0000 0.0000
# 5 0.0000 0.0000 0.0000 0.0000 34.4369 -0.5664
# 6 0.0000 0.0000 0.0000 0.0000 -0.5664 21.6074
#
#
#
# Elastic Compliance Matrix: (Units=1/GPa)
#
#
# Indices 1 2 3 4 5 6 
#
# 1 0.016627 -0.006524 -0.003295 0.000381 0.000000 0.000000
# 2 -0.006524 0.016627 -0.003295 -0.000381 0.000000 0.000000
# 3 -0.003295 -0.003295 0.011851 0.000000 0.000000 0.000000
# 4 0.000381 -0.000381 0.000000 0.029051 0.000000 0.000000
# 5 0.000000 0.000000 0.000000 0.000000 0.029051 0.000762
# 6 0.000000 0.000000 0.000000 0.000000 0.000762 0.046300
#
#
# Mechanical properties :
#
#
# Convention : Reuss Voigt Hill
#
# Bulk Modulus (GPa) = 52.97889 53.26655 53.12272
# Shear Modulus (GPa) = 27.46860 28.83748 28.15304
#
# Velocity S-wave (km/s) = 3.81112 3.90493 3.85831
# Velocity P-wave (km/s) = 6.88331 6.96399 6.92377
#
# Compressibility (1/GPa) = 0.01887544
#
# Stress axis : x y z
#
# Youngs Moduli (GPa) = 60.14495 60.14495 84.38436
#
# Poissons Ratio (x) = 0.39237 0.27806
# Poissons Ratio (y) = 0.39237 0.27806
# Poissons Ratio (z) = 0.19819 0.19819
#
# Static dielectric constant tensor:
#      x y z
#    x 3.412020 0.000000 0.000000 
#    y 0.000000 3.412020 0.000000 
#    z 0.000000 0.000000 4.615330 
# 
# 
# High freq. dielectric constant tensor:
#      x y z
#    x 1.711120 0.000000 0.000000 
#    y 0.000000 1.711120 0.000000 
#    z 0.000000 0.000000 1.758710 
# 
# From -- ./inp_files/2458.got.cif
#   From: 2010.03.12/outbox.cif.g09.slc.cpg/sg152_2_cif.got.tgz:2458.got - 2010.04.03 13:45:27.
