data_PCOD8322069
_publ_section_title
;
Structure prediction by ZEFSAII (Michael W. Deem and Ramdas Pophale) SiO2 
 PCOD8322069
Probable space group: P 31 2 1
;
_chemical_formula_sum "Si O2"
_cell_formula_units_Z 42
_cell_length_a 9.029302
_cell_length_b 9.029302
_cell_length_c 28.093280
_cell_angle_alpha 90.000000
_cell_angle_beta 90.000000
_cell_angle_gamma 120.000000
_cell_volume 1983.542167
_symmetry_space_group_name_H-M "P 31 2 1"
_symmetry_group_IT_number 152
_symmetry_cell_setting 'hexagonal'
loop_
_space_group_symop_operation_xyz
x,y,z
-y,x-y,1/3+z
-x+y,-x,2/3+z
x-y,-y,2/3-z
-x,-x+y,1/3-z
y,x,-z
loop_
_atom_site_type_symbol
_atom_site_label
_atom_site_fract_x
_atom_site_fract_y
_atom_site_fract_z
Si Si1 0.275983 0.148499 0.801317
Si Si2 0.483161 0.359751 0.139622
Si Si3 0.109181 0.120085 0.447783
Si Si4 0.599494 0.145999 0.366014
Si Si5 0.527484 0.881659 0.617776
Si Si6 0.279136 0.174909 0.353150
Si Si7 0.001981 0.384202 0.453072
O O1 0.321013 0.305998 0.836184
O O2 0.403484 0.202279 0.755758
O O3 0.083824 0.073449 0.780798
O O4 0.279520 0.000000 0.833334
O O5 0.502462 0.430401 0.086093
O O6 0.638482 0.507358 0.170978
O O7 0.503082 0.192179 0.139439
O O8 0.187842 0.187842 0.500000
O O9 0.260172 0.183835 0.409750
O O10 0.006515 0.218303 0.434593
O O11 0.759567 0.337354 0.362234
O O12 0.448907 0.168565 0.344011
O O13 0.607313 0.000000 0.333334
O O14 0.659509 0.951863 0.661166
O O15 0.513671 0.033813 0.590841
O O16 0.116488 0.000000 0.333334
#
# Coordination Sequence:
#
# PCOD8322069 Si02
#       7
#     6   6   6   6   6   6   6
#     4  10  19  38  68  95 129 163 219 280 338 391
#     4  10  20  39  62  93 121 170 209 271 322 400
#     4  11  20  37  66  97 120 166 222 278 322 402
#     4  10  24  43  61  88 132 179 220 267 340 409
#     4  10  23  42  60  97 131 174 215 275 336 409
#     4  11  23  41  66  91 128 176 222 276 332 405
#     4  10  21  37  64  90 129 163 218 259 340 391
#
# _framework density 21.174242
#
# number of rings (size 3 to 8) (size 9 to 14) (size 15 to 20)
#    0.000    1.714    4.286    0.857    2.000    1.143 
#    2.571    6.429    0.000    0.000    0.000    0.000 
#    0.000    0.000    0.000    0.000    0.000    0.000 
#
# Total GULP energy -520322.488739 kJ/mol
# GULP energy per Si atom -12388.630684 kJ/mol
# Density = 2.112605 g / cm^3
# Si number density = 21.174242 Si / 1000 Ang^3
#
#
#
# Elastic Constant Matrix: (Units=GPa)
#
#
# Indices 1 2 3 4 5 6 
#
# 1 85.2110 27.0932 39.8798 -2.4037 0.0001 0.0000
# 2 27.0932 85.2110 39.8798 2.4037 -0.0001 0.0000
# 3 39.8798 39.8798 124.5939 0.0000 0.0000 0.0000
# 4 -2.4037 2.4037 0.0000 33.6052 0.0000 -0.0001
# 5 0.0001 -0.0001 0.0000 0.0000 33.6052 -2.4037
# 6 0.0000 0.0000 0.0000 -0.0001 -2.4037 29.0589
#
#
#
# Elastic Compliance Matrix: (Units=1/GPa)
#
#
# Indices 1 2 3 4 5 6 
#
# 1 0.014416 -0.002892 -0.003689 0.001238 0.000000 0.000000
# 2 -0.002892 0.014416 -0.003689 -0.001238 0.000000 0.000000
# 3 -0.003689 -0.003689 0.010387 0.000000 0.000000 0.000000
# 4 0.001238 -0.001238 0.000000 0.029934 0.000000 0.000000
# 5 0.000000 0.000000 0.000000 0.000000 0.029934 0.002476
# 6 0.000000 0.000000 0.000000 0.000000 0.002476 0.034618
#
#
# Mechanical properties :
#
#
# Convention : Reuss Voigt Hill
#
# Bulk Modulus (GPa) = 53.53009 56.52461 55.02735
# Shear Modulus (GPa) = 31.15791 31.79808 31.47799
#
# Velocity S-wave (km/s) = 3.84018 3.87943 3.85985
# Velocity P-wave (km/s) = 6.70807 6.84248 6.77561
#
# Compressibility (1/GPa) = 0.01868108
#
# Stress axis : x y z
#
# Youngs Moduli (GPa) = 69.36516 69.36516 96.27085
#
# Poissons Ratio (x) = 0.20063 0.35511
# Poissons Ratio (y) = 0.20063 0.35511
# Poissons Ratio (z) = 0.25586 0.25586
#
# Static dielectric constant tensor:
#      x y z
#    x 3.811450 0.000000 0.000000 
#    y 0.000000 3.811450 0.000000 
#    z 0.000000 0.000000 4.039190 
# 
# 
# High freq. dielectric constant tensor:
#      x y z
#    x 1.816200 0.000000 0.000000 
#    y 0.000000 1.816200 0.000000 
#    z 0.000000 0.000000 1.836590 
# 
# From -- ./inp_files/3699.got.cif
#   From: 2010.03.12/outbox.cif.g09.slc.cpg/sg152_2_cif.got.tgz:3699.got - 2010.04.03 13:45:27.
