data_PCOD8322671
_publ_section_title
;
Structure prediction by ZEFSAII (Michael W. Deem and Ramdas Pophale) SiO2 
 PCOD8322671
Probable space group: P 3 M 1
;
_chemical_formula_sum "Si O2"
_cell_formula_units_Z 42
_cell_length_a 12.596784
_cell_length_b 12.596784
_cell_length_c 18.093412
_cell_angle_alpha 90.000000
_cell_angle_beta 90.000000
_cell_angle_gamma 120.000000
_cell_volume 2486.396977
_symmetry_space_group_name_H-M "P 3 M 1"
_symmetry_group_IT_number 156
_symmetry_cell_setting 'hexagonal'
loop_
_space_group_symop_operation_xyz
x,y,z
-y,x-y,z
-x+y,-x,z
-x+y,y,z
x,x-y,z
-y,-x,z
loop_
_atom_site_type_symbol
_atom_site_label
_atom_site_fract_x
_atom_site_fract_y
_atom_site_fract_z
Si Si1 0.751328 0.751830 0.986100
Si Si2 0.666123 0.084722 0.848769
Si Si3 0.085936 0.420058 0.710513
Si Si4 0.997662 0.246473 0.577560
Si Si5 0.997537 0.750525 0.257356
Si Si6 0.239724 0.238086 0.417521
Si Si7 0.332244 0.913192 0.124559
O O1 0.883559 0.767117 0.996628
O O2 0.679681 0.667627 0.916965
O O3 0.768619 0.884310 0.971712
O O4 0.674441 0.689524 0.059145
O O5 0.550058 0.100115 0.864186
O O6 0.782409 0.217592 0.838802
O O7 0.651762 0.009150 0.775109
O O8 0.207878 0.415756 0.727484
O O9 0.120499 0.560250 0.705366
O O10 0.024393 0.355020 0.633531
O O11 0.109069 0.218138 0.575573
O O12 0.976958 0.289096 0.495436
O O13 0.876654 0.123347 0.603572
O O14 0.876823 0.753646 0.231877
O O15 0.977407 0.687995 0.339631
O O16 0.022960 0.667448 0.201520
O O17 0.109921 0.890080 0.257402
O O18 0.137210 0.274419 0.417324
O O19 0.182020 0.091010 0.417412
O O20 0.462293 0.924585 0.113007
O O21 0.229196 0.770805 0.124644
#
# Coordination Sequence:
#
# PCOD8322671 Si02
#       7
#     6   6   6   6   6   6   6
#     4  10  20  34  53  76 100 123 148 183 229 278
#     4  10  20  34  52  73  97 125 157 192 229 270
#     4  10  20  33  48  66  91 124 161 198 234 273
#     4   9  16  27  45  69  95 120 148 186 234 285
#     4   9  16  27  46  71  96 120 148 187 235 283
#     4   8  13  22  39  65  94 120 146 180 227 281
#     4  10  20  33  48  66  91 124 160 194 226 264
#
# _framework density 16.891914
#
# number of rings (size 3 to 8) (size 9 to 14) (size 15 to 20)
#    0.000    2.571    0.000    2.714    0.000    2.286 
#    0.000    2.143    0.000   12.571    0.000    2.000 
#    0.000    0.000    0.000    0.000    0.000    0.000 
#
# Total GULP energy -520532.602615 kJ/mol
# GULP energy per Si atom -12393.633396 kJ/mol
# Density = 1.685347 g / cm^3
# Si number density = 16.891914 Si / 1000 Ang^3
#
#
#
# Elastic Constant Matrix: (Units=GPa)
#
#
# Indices 1 2 3 4 5 6 
#
# 1 77.8852 46.0679 57.3882 2.3777 0.0002 0.0000
# 2 46.0679 77.8852 57.3882 -2.3777 -0.0002 0.0000
# 3 57.3882 57.3882 134.4496 0.0000 0.0000 0.0000
# 4 2.3777 -2.3777 0.0000 21.1214 0.0000 -0.0002
# 5 0.0002 -0.0002 0.0000 0.0000 21.1214 2.3777
# 6 0.0000 0.0000 0.0000 -0.0002 2.3777 15.9087
#
#
#
# Elastic Compliance Matrix: (Units=1/GPa)
#
#
# Indices 1 2 3 4 5 6 
#
# 1 0.022654 -0.009314 -0.005694 -0.003599 0.000000 0.000000
# 2 -0.009314 0.022654 -0.005694 0.003599 0.000000 0.000000
# 3 -0.005694 -0.005694 0.012299 0.000000 0.000000 0.000000
# 4 -0.003599 0.003599 0.000000 0.048156 0.000000 0.000000
# 5 0.000000 0.000000 0.000000 0.000000 0.048156 -0.007197
# 6 0.000000 0.000000 0.000000 0.000000 -0.007197 0.063935
#
#
# Mechanical properties :
#
#
# Convention : Reuss Voigt Hill
#
# Bulk Modulus (GPa) = 61.71869 67.98983 64.85426
# Shear Modulus (GPa) = 18.89244 20.25533 19.57388
#
# Velocity S-wave (km/s) = 3.34792 3.46658 3.40777
# Velocity P-wave (km/s) = 7.18064 7.50734 7.34581
#
# Compressibility (1/GPa) = 0.01620255
#
# Stress axis : x y z
#
# Youngs Moduli (GPa) = 44.14294 44.14294 81.31016
#
# Poissons Ratio (x) = 0.41113 0.46298
# Poissons Ratio (y) = 0.41113 0.46298
# Poissons Ratio (z) = 0.25135 0.25135
#
# Static dielectric constant tensor:
#      x y z
#    x 2.971030 0.000000 0.000000 
#    y 0.000000 2.971030 0.000000 
#    z 0.000000 0.000000 3.603640 
# 
# 
# High freq. dielectric constant tensor:
#      x y z
#    x 1.634500 0.000000 0.000000 
#    y 0.000000 1.634500 0.000000 
#    z 0.000000 0.000000 1.675740 
# 
# From -- ./inp_files/941.got.cif
#   From: 2010.03.12/outbox.cif.g09.slc.cpg/sg156_cif.got.tgz:941.got - 2010.04.03 13:58:47.
