data_PCOD8322158
_publ_section_title
;
Structure prediction by ZEFSAII (Michael W. Deem and Ramdas Pophale) SiO2 
 PCOD8322158
Probable space group: P 31 2 1
;
_chemical_formula_sum "Si O2"
_cell_formula_units_Z 33
_cell_length_a 11.270661
_cell_length_b 11.270661
_cell_length_c 15.083906
_cell_angle_alpha 90.000000
_cell_angle_beta 90.000000
_cell_angle_gamma 120.000000
_cell_volume 1659.369959
_symmetry_space_group_name_H-M "P 31 2 1"
_symmetry_group_IT_number 152
_symmetry_cell_setting 'hexagonal'
loop_
_space_group_symop_operation_xyz
x,y,z
-y,x-y,1/3+z
-x+y,-x,2/3+z
x-y,-y,2/3-z
-x,-x+y,1/3-z
y,x,-z
loop_
_atom_site_type_symbol
_atom_site_label
_atom_site_fract_x
_atom_site_fract_y
_atom_site_fract_z
Si Si1 0.859240 0.196898 0.552363
Si Si2 0.445409 0.857978 0.375444
Si Si3 0.581093 0.918983 0.560410
Si Si4 0.186376 0.956785 0.930915
Si Si5 0.131663 0.450257 0.965374
Si Si6 0.000000 0.082013 0.666667
O O1 0.843308 0.295071 0.624392
O O2 0.907201 0.272471 0.459129
O O3 0.973198 0.156681 0.582956
O O4 0.712003 0.064166 0.539659
O O5 0.489055 0.848060 0.474716
O O6 0.448434 0.742103 0.314703
O O7 0.556120 0.000000 0.333334
O O8 0.629435 0.816341 0.597063
O O9 0.483347 0.935822 0.631897
O O10 0.071808 0.941575 0.002730
O O11 0.158241 0.000000 0.833334
O O12 0.338453 0.072148 0.957140
#
# Coordination Sequence:
#
# PCOD8322158 Si02
#       6
#     6   6   6   6   6   3
#     4  10  22  41  62  89 124 159 208 256 310 379
#     4  11  20  38  63  86 119 159 205 251 305 376
#     4  10  23  41  60  89 119 162 205 255 314 368
#     4  11  24  41  66  91 128 162 212 261 316 379
#     4  11  24  38  67  90 122 165 209 253 320 376
#     4  10  24  38  62  92 126 160 204 266 314 362
#
# _framework density 19.887066999999998
#
# number of rings (size 3 to 8) (size 9 to 14) (size 15 to 20)
#    0.000    1.455    4.545    0.000    8.909    0.000 
#    0.000    0.000    8.000    0.000    0.000    0.000 
#    0.000    0.000    0.000    0.000    0.000    0.000 
#
# Total GULP energy -409056.663187 kJ/mol
# GULP energy per Si atom -12395.656460 kJ/mol
# Density = 1.984180 g / cm^3
# Si number density = 19.887067 Si / 1000 Ang^3
#
#
#
# Elastic Constant Matrix: (Units=GPa)
#
#
# Indices 1 2 3 4 5 6 
#
# 1 97.1725 33.0107 24.2821 1.4492 0.0001 0.0000
# 2 33.0107 97.1725 24.2821 -1.4492 -0.0001 0.0000
# 3 24.2821 24.2821 57.0037 0.0000 0.0000 0.0000
# 4 1.4492 -1.4492 0.0000 25.7601 0.0000 -0.0001
# 5 0.0001 -0.0001 0.0000 0.0000 25.7601 1.4492
# 6 0.0000 0.0000 0.0000 -0.0001 1.4492 32.0809
#
#
#
# Elastic Compliance Matrix: (Units=1/GPa)
#
#
# Indices 1 2 3 4 5 6 
#
# 1 0.012379 -0.003246 -0.003890 -0.000879 0.000000 0.000000
# 2 -0.003246 0.012379 -0.003890 0.000879 0.000000 0.000000
# 3 -0.003890 -0.003890 0.020857 0.000000 0.000000 0.000000
# 4 -0.000879 0.000879 0.000000 0.038919 0.000000 0.000000
# 5 0.000000 0.000000 0.000000 0.000000 0.038919 -0.001758
# 6 0.000000 0.000000 0.000000 0.000000 -0.001758 0.031251
#
#
# Mechanical properties :
#
#
# Convention : Reuss Voigt Hill
#
# Bulk Modulus (GPa) = 42.44246 46.05539 44.24892
# Shear Modulus (GPa) = 27.08406 28.03849 27.56127
#
# Velocity S-wave (km/s) = 3.69439 3.75892 3.72679
# Velocity P-wave (km/s) = 6.29175 6.48444 6.38882
#
# Compressibility (1/GPa) = 0.02356131
#
# Stress axis : x y z
#
# Youngs Moduli (GPa) = 80.78185 80.78185 47.94542
#
# Poissons Ratio (x) = 0.26224 0.18652
# Poissons Ratio (y) = 0.26224 0.18652
# Poissons Ratio (z) = 0.31427 0.31427
#
# Static dielectric constant tensor:
#      x y z
#    x 3.720410 0.000000 0.000000 
#    y 0.000000 3.720410 0.000000 
#    z 0.000000 0.000000 3.494490 
# 
# 
# High freq. dielectric constant tensor:
#      x y z
#    x 1.778840 0.000000 0.000000 
#    y 0.000000 1.778840 0.000000 
#    z 0.000000 0.000000 1.758410 
# 
# From -- ./inp_files/2020.got.cif
#   From: 2010.03.12/outbox.cif.g09.slc.cpg/sg152_2_cif.got.tgz:2020.got - 2010.04.03 13:45:27.
