data_PCOD8322087
_publ_section_title
;
Structure prediction by ZEFSAII (Michael W. Deem and Ramdas Pophale) SiO2 
 PCOD8322087
Probable space group: P 31 2 1
;
_chemical_formula_sum "Si O2"
_cell_formula_units_Z 24
_cell_length_a 8.096756
_cell_length_b 8.096756
_cell_length_c 19.819241
_cell_angle_alpha 90.000000
_cell_angle_beta 90.000000
_cell_angle_gamma 120.000000
_cell_volume 1125.225988
_symmetry_space_group_name_H-M "P 31 2 1"
_symmetry_group_IT_number 152
_symmetry_cell_setting 'hexagonal'
loop_
_space_group_symop_operation_xyz
x,y,z
-y,x-y,1/3+z
-x+y,-x,2/3+z
x-y,-y,2/3-z
-x,-x+y,1/3-z
y,x,-z
loop_
_atom_site_type_symbol
_atom_site_label
_atom_site_fract_x
_atom_site_fract_y
_atom_site_fract_z
Si Si1 0.642638 0.644634 0.627748
Si Si2 0.826453 0.405751 0.795458
Si Si3 0.946115 0.551998 0.413025
Si Si4 0.570989 0.000000 0.833334
Si Si5 0.000000 0.612246 0.666667
O O1 0.482259 0.542471 0.686174
O O2 0.682057 0.859118 0.613842
O O3 0.574967 0.515641 0.561560
O O4 0.829961 0.652030 0.653831
O O5 0.638678 0.405792 0.773388
O O6 0.968491 0.477649 0.731316
O O7 0.910820 0.553518 0.857648
O O8 0.774633 0.189090 0.815665
#
# Coordination Sequence:
#
# PCOD8322087 Si02
#       5
#     6   6   6   3   3
#     4  10  20  36  59  83 116 153 193 238 293 353
#     4  10  21  37  59  83 115 150 193 240 293 350
#     4  10  21  38  59  85 116 152 192 239 290 353
#     4  10  20  36  60  86 110 152 198 240 290 356
#     4  10  20  36  58  90 120 152 190 244 302 354
#
# _framework density 21.329049999999999
#
# number of rings (size 3 to 8) (size 9 to 14) (size 15 to 20)
#    0.000    2.000    0.000    4.500    0.000    4.000 
#    0.000   10.000    0.000    4.500    0.000    0.000 
#    0.000    0.000    0.000    0.000    0.000    0.000 
#
# Total GULP energy -297497.848907 kJ/mol
# GULP energy per Si atom -12395.743704 kJ/mol
# Density = 2.128050 g / cm^3
# Si number density = 21.329050 Si / 1000 Ang^3
#
#
#
# Elastic Constant Matrix: (Units=GPa)
#
#
# Indices 1 2 3 4 5 6 
#
# 1 67.1700 28.9023 34.7446 1.2565 -0.0001 0.0000
# 2 28.9023 67.1700 34.7446 -1.2565 0.0001 0.0000
# 3 34.7446 34.7446 153.3897 0.0000 0.0000 0.0000
# 4 1.2565 -1.2565 0.0000 32.7635 0.0000 0.0001
# 5 -0.0001 0.0001 0.0000 0.0000 32.7635 1.2565
# 6 0.0000 0.0000 0.0000 0.0001 1.2565 19.1338
#
#
#
# Elastic Compliance Matrix: (Units=1/GPa)
#
#
# Indices 1 2 3 4 5 6 
#
# 1 0.019323 -0.006875 -0.002820 -0.001005 0.000000 0.000000
# 2 -0.006875 0.019323 -0.002820 0.001005 0.000000 0.000000
# 3 -0.002820 -0.002820 0.007797 0.000000 0.000000 0.000000
# 4 -0.001005 0.001005 0.000000 0.030599 0.000000 0.000000
# 5 0.000000 0.000000 0.000000 0.000000 0.030599 -0.002009
# 6 0.000000 0.000000 0.000000 0.000000 -0.002009 0.052395
#
#
# Mechanical properties :
#
#
# Convention : Reuss Voigt Hill
#
# Bulk Modulus (GPa) = 46.69713 53.83474 50.26594
# Shear Modulus (GPa) = 26.01428 29.55471 27.78450
#
# Velocity S-wave (km/s) = 3.49616 3.72648 3.61315
# Velocity P-wave (km/s) = 6.18375 6.61894 6.40504
#
# Compressibility (1/GPa) = 0.02141459
#
# Stress axis : x y z
#
# Youngs Moduli (GPa) = 51.75181 51.75181 128.25893
#
# Poissons Ratio (x) = 0.35578 0.36165
# Poissons Ratio (y) = 0.35578 0.36165
# Poissons Ratio (z) = 0.14592 0.14592
#
# Static dielectric constant tensor:
#      x y z
#    x 3.913000 0.000000 0.000000 
#    y 0.000000 3.913000 0.000000 
#    z 0.000000 0.000000 4.529640 
# 
# 
# High freq. dielectric constant tensor:
#      x y z
#    x 1.816320 0.000000 0.000000 
#    y 0.000000 1.816320 0.000000 
#    z 0.000000 0.000000 1.868790 
# 
# From -- ./inp_files/2676.got.cif
#   From: 2010.03.12/outbox.cif.g09.slc.cpg/sg152_2_cif.got.tgz:2676.got - 2010.04.03 13:45:27.
