data_PCOD8322939
_publ_section_title
;
Structure prediction by ZEFSAII (Michael W. Deem and Ramdas Pophale) SiO2 
 PCOD8322939
Probable space group: P -3 1 M 
;
_chemical_formula_sum "Si O2"
_cell_formula_units_Z 72
_cell_length_a 18.592625
_cell_length_b 18.592625
_cell_length_c 15.674157
_cell_angle_alpha 90.000000
_cell_angle_beta 90.000000
_cell_angle_gamma 120.000000
_cell_volume 4692.413161
_symmetry_space_group_name_H-M "P -3 1 M "
_symmetry_group_IT_number 162
_symmetry_cell_setting 'hexagonal'
loop_
_space_group_symop_operation_xyz
x,y,z
-y,x-y,z
-x+y,-x,z
-y,-x,-z
-x+y,y,-z
x,x-y,-z
-x,-y,-z
y,-x+y,-z
x-y,x,-z
y,x,z
x-y,-y,z
-x,-x+y,z
loop_
_atom_site_type_symbol
_atom_site_label
_atom_site_fract_x
_atom_site_fract_y
_atom_site_fract_z
Si Si1 0.901243 0.264504 1.000000
Si Si2 0.467430 0.097187 0.154650
Si Si3 0.497080 0.668822 0.328602
Si Si4 0.370243 0.902813 0.845349
Si Si5 0.668822 0.171742 0.328602
Si Si6 0.461805 0.367360 0.500000
O O1 0.879424 0.303345 0.080477
O O2 0.000000 0.289706 0.000001
O O3 0.836382 0.163619 0.000000
O O4 0.879426 0.303345 0.919523
O O5 0.451079 0.132593 0.242281
O O6 0.566377 0.132754 0.136221
O O7 0.425107 0.000000 0.164616
O O8 0.459650 0.729825 0.327815
O O9 0.425377 0.574623 0.329835
O O10 0.551759 0.686440 0.414341
O O11 0.318486 0.867406 0.757719
O O12 0.425108 0.000000 0.835382
O O13 0.686440 0.134681 0.414341
O O14 0.553796 0.446205 0.500000
O O15 0.391315 0.391315 0.499999
#
# Coordination Sequence:
#
# PCOD8322939 Si02
#       6
#    12  12  12  12  12  12
#     4  10  19  31  47  66  87 111 142 178 215 255
#     4   9  17  29  45  63  83 109 139 169 201 242
#     4  10  18  27  39  56  79 104 131 163 201 242
#     4   9  17  29  45  63  83 109 139 169 201 242
#     4  10  18  27  39  56  79 104 131 163 201 242
#     4   9  17  28  40  52  68  95 132 170 202 234
#
# _framework density 15.343918
#
# number of rings (size 3 to 8) (size 9 to 14) (size 15 to 20)
#    0.000    2.500    0.000    3.333    0.000    6.000 
#    0.000    1.667    0.000    4.833    0.000    0.000 
#    0.000    0.000    0.000    0.000    0.000    0.000 
#
# Total GULP energy -892114.424312 kJ/mol
# GULP energy per Si atom -12390.478115 kJ/mol
# Density = 1.530899 g / cm^3
# Si number density = 15.343918 Si / 1000 Ang^3
#
#
#
# Elastic Constant Matrix: (Units=GPa)
#
#
# Indices 1 2 3 4 5 6 
#
# 1 51.9252 20.8347 36.3645 0.0000 -0.0002 0.0000
# 2 20.8347 51.9252 36.3645 0.0000 0.0002 0.0000
# 3 36.3645 36.3645 149.0297 0.0000 0.0000 0.0000
# 4 0.0000 0.0000 0.0000 8.1780 0.0000 0.0002
# 5 -0.0002 0.0002 0.0000 0.0000 8.1780 0.0000
# 6 0.0000 0.0000 0.0000 0.0002 0.0000 15.5452
#
#
#
# Elastic Compliance Matrix: (Units=1/GPa)
#
#
# Indices 1 2 3 4 5 6 
#
# 1 0.025171 -0.006993 -0.004435 0.000000 0.000001 0.000000
# 2 -0.006993 0.025171 -0.004435 0.000000 -0.000001 0.000000
# 3 -0.004435 -0.004435 0.008875 0.000000 0.000000 0.000000
# 4 0.000000 0.000000 0.000000 0.122280 0.000000 -0.000002
# 5 0.000001 -0.000001 0.000000 0.000000 0.122280 0.000000
# 6 0.000000 0.000000 0.000000 -0.000002 0.000000 0.064328
#
#
# Mechanical properties :
#
#
# Convention : Reuss Voigt Hill
#
# Bulk Modulus (GPa) = 36.37998 48.88974 42.63486
# Shear Modulus (GPa) = 12.22508 17.00133 14.61320
#
# Velocity S-wave (km/s) = 2.82572 3.33230 3.08941
# Velocity P-wave (km/s) = 5.86578 6.83648 6.36965
#
# Compressibility (1/GPa) = 0.02748765
#
# Stress axis : x y z
#
# Youngs Moduli (GPa) = 39.72861 39.72861 112.68071
#
# Poissons Ratio (x) = 0.27784 0.49979
# Poissons Ratio (y) = 0.27784 0.49979
# Poissons Ratio (z) = 0.17621 0.17621
#
# Static dielectric constant tensor:
#      x y z
#    x 2.710760 0.000000 0.000000 
#    y 0.000000 2.710760 0.000000 
#    z 0.000000 0.000000 3.425990 
# 
# 
# High freq. dielectric constant tensor:
#      x y z
#    x 1.552770 0.000000 0.000000 
#    y 0.000000 1.552770 0.000000 
#    z 0.000000 0.000000 1.617810 
# 
# From -- ./inp_files/3584.got.cif
#   From: 2010.03.12/outbox.cif.g09.slc.cpg/sg162_2_cif.got.tgz:3584.got - 2010.04.02 06:27:41.
