data_PCOD8322314
_publ_section_title
;
Structure prediction by ZEFSAII (Michael W. Deem and Ramdas Pophale) SiO2 
 PCOD8322314
Probable space group: P 32 2 1
;
_chemical_formula_sum "Si O2"
_cell_formula_units_Z 36
_cell_length_a 8.853163
_cell_length_b 8.853163
_cell_length_c 25.874212
_cell_angle_alpha 90.000000
_cell_angle_beta 90.000000
_cell_angle_gamma 120.000000
_cell_volume 1756.283756
_symmetry_space_group_name_H-M "P 32 2 1"
_symmetry_group_IT_number 154
_symmetry_cell_setting 'hexagonal'
loop_
_space_group_symop_operation_xyz
x,y,z
-y,x-y,2/3+z
-x+y,-x,1/3+z
x-y,-y,1/3-z
-x,-x+y,2/3-z
y,x,-z
loop_
_atom_site_type_symbol
_atom_site_label
_atom_site_fract_x
_atom_site_fract_y
_atom_site_fract_z
Si Si1 0.265927 0.447732 0.522737
Si Si2 0.010406 0.324134 0.433767
Si Si3 0.192959 0.987519 0.049678
Si Si4 0.192996 0.699044 0.238043
Si Si5 0.960076 0.774242 0.519841
Si Si6 0.949651 0.831133 0.723855
O O1 0.420355 0.420355 0.500000
O O2 0.149288 0.450651 0.475937
O O3 0.343948 0.626351 0.553345
O O4 0.143881 0.291677 0.561513
O O5 0.104557 0.262132 0.391589
O O6 0.926732 0.429798 0.406234
O O7 0.856382 0.159901 0.463856
O O8 0.389102 0.154714 0.051184
O O9 0.071293 0.071699 0.060575
O O10 0.164580 0.853368 0.096153
O O11 0.143070 0.877394 0.996419
O O12 0.093404 0.719110 0.189016
O O13 0.931078 0.931078 0.500000
#
# Coordination Sequence:
#
# PCOD8322314 Si02
#       6
#     6   6   6   6   6   6
#     4  10  19  33  55  84 111 138 176 221 268 319
#     4  10  19  33  55  81 106 137 182 226 263 310
#     4   9  18  36  56  73 103 149 184 206 260 333
#     4  11  20  32  55  86 109 129 174 234 272 304
#     4   9  17  33  56  76 104 147 180 206 261 331
#     4   9  19  37  57  72 103 152 185 207 255 333
#
# _framework density 20.497827999999998
#
# number of rings (size 3 to 8) (size 9 to 14) (size 15 to 20)
#    0.000    2.333    0.000    6.000    0.000    0.000 
#    0.000   13.333    0.000    4.000    0.000    0.000 
#    0.000    0.000    0.000    0.000    0.000    0.000 
#
# Total GULP energy -446194.685964 kJ/mol
# GULP energy per Si atom -12394.296832 kJ/mol
# Density = 2.045117 g / cm^3
# Si number density = 20.497828 Si / 1000 Ang^3
#
#
#
# Elastic Constant Matrix: (Units=GPa)
#
#
# Indices 1 2 3 4 5 6 
#
# 1 78.3592 32.3810 17.4460 -4.5654 0.0000 0.0000
# 2 32.3810 78.3592 17.4460 4.5654 0.0000 0.0000
# 3 17.4460 17.4460 81.5329 0.0000 0.0000 0.0000
# 4 -4.5654 4.5654 0.0000 14.3363 0.0000 0.0000
# 5 0.0000 0.0000 0.0000 0.0000 14.3363 -4.5654
# 6 0.0000 0.0000 0.0000 0.0000 -4.5654 22.9891
#
#
#
# Elastic Compliance Matrix: (Units=1/GPa)
#
#
# Indices 1 2 3 4 5 6 
#
# 1 0.016450 -0.006767 -0.002072 0.007394 0.000000 0.000000
# 2 -0.006767 0.016450 -0.002072 -0.007394 0.000000 0.000000
# 3 -0.002072 -0.002072 0.013152 0.000000 0.000000 0.000000
# 4 0.007394 -0.007394 0.000000 0.074462 0.000000 0.000000
# 5 0.000000 0.000000 0.000000 0.000000 0.074462 0.014788
# 6 0.000000 0.000000 0.000000 0.000000 0.014788 0.046436
#
#
# Mechanical properties :
#
#
# Convention : Reuss Voigt Hill
#
# Bulk Modulus (GPa) = 41.27125 41.42191 41.34658
# Shear Modulus (GPa) = 18.42901 21.73089 20.07995
#
# Velocity S-wave (km/s) = 3.00170 3.25954 3.13327
# Velocity P-wave (km/s) = 5.67378 5.86668 5.77104
#
# Compressibility (1/GPa) = 0.02422994
#
# Stress axis : x y z
#
# Youngs Moduli (GPa) = 60.78891 60.78891 76.03606
#
# Poissons Ratio (x) = 0.41138 0.15754
# Poissons Ratio (y) = 0.41138 0.15754
# Poissons Ratio (z) = 0.12595 0.12595
#
# Static dielectric constant tensor:
#      x y z
#    x 3.546550 0.000000 0.000000 
#    y 0.000000 3.546550 0.000000 
#    z 0.000000 0.000000 4.111850 
# 
# 
# High freq. dielectric constant tensor:
#      x y z
#    x 1.785770 0.000000 0.000000 
#    y 0.000000 1.785770 0.000000 
#    z 0.000000 0.000000 1.789700 
# 
# From -- ./inp_files/3419.got.cif
#   From: 2010.03.12/outbox.cif.g09.slc.cpg/sg154_2_cif.got.tgz:3419.got - 2010.04.03 13:51:21.
