data_PCOD8322891
_publ_section_title
;
Structure prediction by ZEFSAII (Michael W. Deem and Ramdas Pophale) SiO2 
 PCOD8322891
Probable space group: R 3 C
;
_chemical_formula_sum "Si O2"
_cell_formula_units_Z 126
_cell_length_a 18.459766
_cell_length_b 18.459766
_cell_length_c 22.250780
_cell_angle_alpha 90.000000
_cell_angle_beta 90.000000
_cell_angle_gamma 120.000000
_cell_volume 6566.413906
_symmetry_space_group_name_H-M "R 3 C"
_symmetry_group_IT_number 161
_symmetry_cell_setting 'hexagonal'
loop_
_space_group_symop_operation_xyz
x,y,z
-y,x-y,z
-x+y,-x,z
-x+y,y,1/2+z
x,x-y,1/2+z
-y,-x,1/2+z
2/3+x,1/3+y,1/3+z
2/3-y,1/3+x-y,1/3+z
2/3-x+y,1/3-x,1/3+z
2/3-x+y,1/3+y,5/6+z
2/3+x,1/3+x-y,5/6+z
2/3-y,1/3-x,5/6+z
1/3+x,2/3+y,2/3+z
1/3-y,2/3+x-y,2/3+z
1/3-x+y,2/3-x,2/3+z
1/3-x+y,2/3+y,1/6+z
1/3+x,2/3+x-y,1/6+z
1/3-y,2/3-x,1/6+z
loop_
_atom_site_type_symbol
_atom_site_label
_atom_site_fract_x
_atom_site_fract_y
_atom_site_fract_z
Si Si1 0.309943 0.370152 0.765951
Si Si2 0.737179 0.300055 0.827060
Si Si3 0.181674 0.215050 0.891462
Si Si4 0.348700 0.304307 0.965960
Si Si5 0.951072 0.530566 0.134580
Si Si6 0.070390 0.541296 0.728851
Si Si7 0.978703 0.503629 0.004755
O O1 0.277005 0.345659 0.698272
O O2 0.314475 0.295937 0.799832
O O3 0.406496 0.443446 0.765623
O O4 0.248392 0.397275 0.798998
O O5 0.760481 0.396940 0.830502
O O6 0.772872 0.289135 0.764902
O O7 0.775070 0.275263 0.882648
O O8 0.265316 0.281886 0.928299
O O9 0.204403 0.160063 0.845773
O O10 0.142618 0.261576 0.854040
O O11 0.397672 0.262497 0.936608
O O12 0.415611 0.403807 0.968923
O O13 0.022642 0.516369 0.164943
O O14 0.928591 0.490448 0.067972
#
# Coordination Sequence:
#
# PCOD8322891 Si02
#       7
#    18  18  18  18  18  18  18
#     4  10  21  36  57  89 119 153 199 249 299 357
#     4  10  23  37  58  89 120 158 198 240 309 365
#     4  10  19  41  58  87 120 149 207 248 294 358
#     4  10  22  35  60  88 114 160 201 243 304 354
#     4   9  20  36  61  86 112 154 200 244 296 348
#     4  11  21  38  59  86 124 153 196 250 302 358
#     4  10  20  37  59  87 119 149 199 250 298 352
#
# _framework density 19.188555000000001
#
# number of rings (size 3 to 8) (size 9 to 14) (size 15 to 20)
#    0.286    1.714    2.857    0.000    2.000    5.714 
#    2.571    0.000    0.000    0.000    0.000    0.000 
#    0.000    0.000    0.000    0.000    0.000    0.000 
#
# Total GULP energy -520497.318531 kJ/mol
# GULP energy per Si atom -12392.793298 kJ/mol
# Density = 1.914488 g / cm^3
# Si number density = 19.188555 Si / 1000 Ang^3
#
#
#
# Elastic Constant Matrix: (Units=GPa)
#
#
# Indices 1 2 3 4 5 6 
#
# 1 95.4334 41.4609 33.5739 -5.7934 0.0000 0.0000
# 2 41.4609 95.4334 33.5739 5.7934 0.0000 0.0000
# 3 33.5739 33.5739 77.5366 0.0000 0.0000 0.0000
# 4 -5.7934 5.7934 0.0000 35.8998 0.0000 0.0000
# 5 0.0000 0.0000 0.0000 0.0000 35.8998 -5.7934
# 6 0.0000 0.0000 0.0000 0.0000 -5.7934 26.9862
#
#
#
# Elastic Compliance Matrix: (Units=1/GPa)
#
#
# Indices 1 2 3 4 5 6 
#
# 1 0.014234 -0.004959 -0.004016 0.003097 0.000000 0.000000
# 2 -0.004959 0.014234 -0.004016 -0.003097 0.000000 0.000000
# 3 -0.004016 -0.004016 0.016375 0.000000 0.000000 0.000000
# 4 0.003097 -0.003097 0.000000 0.028855 0.000000 0.000000
# 5 0.000000 0.000000 0.000000 0.000000 0.028855 0.006195
# 6 0.000000 0.000000 0.000000 0.000000 0.006195 0.038386
#
#
# Mechanical properties :
#
#
# Convention : Reuss Voigt Hill
#
# Bulk Modulus (GPa) = 53.02088 53.95785 53.48937
# Shear Modulus (GPa) = 28.86711 30.41016 29.63864
#
# Velocity S-wave (km/s) = 3.88286 3.98528 3.93440
# Velocity P-wave (km/s) = 6.91329 7.02549 6.96962
#
# Compressibility (1/GPa) = 0.01886049
#
# Stress axis : x y z
#
# Youngs Moduli (GPa) = 70.25506 70.25506 61.06838
#
# Poissons Ratio (x) = 0.34840 0.24525
# Poissons Ratio (y) = 0.34840 0.24525
# Poissons Ratio (z) = 0.28215 0.28215
#
# Static dielectric constant tensor:
#      x y z
#    x 3.465960 0.000000 0.000000 
#    y 0.000000 3.465960 0.000000 
#    z 0.000000 0.000000 3.726900 
# 
# 
# High freq. dielectric constant tensor:
#      x y z
#    x 1.734280 0.000000 0.000000 
#    y 0.000000 1.734280 0.000000 
#    z 0.000000 0.000000 1.756550 
# 
# From -- ./inp_files/1916.got.cif
#   From: 2010.03.12/outbox.cif.g09.slc.cpg/sg161_cif.got.tgz:1916.got - 2010.04.02 06:27:14.
