data_PCOD8322024
_publ_section_title
;
Structure prediction by ZEFSAII (Michael W. Deem and Ramdas Pophale) SiO2 
 PCOD8322024
Probable space group: P 31 2 1
;
_chemical_formula_sum "Si O2"
_cell_formula_units_Z 30
_cell_length_a 11.600656
_cell_length_b 11.600656
_cell_length_c 14.525723
_cell_angle_alpha 90.000000
_cell_angle_beta 90.000000
_cell_angle_gamma 120.000000
_cell_volume 1692.908506
_symmetry_space_group_name_H-M "P 31 2 1"
_symmetry_group_IT_number 152
_symmetry_cell_setting 'hexagonal'
loop_
_space_group_symop_operation_xyz
x,y,z
-y,x-y,1/3+z
-x+y,-x,2/3+z
x-y,-y,2/3-z
-x,-x+y,1/3-z
y,x,-z
loop_
_atom_site_type_symbol
_atom_site_label
_atom_site_fract_x
_atom_site_fract_y
_atom_site_fract_z
Si Si1 0.742509 0.421743 0.010604
Si Si2 0.341690 0.876760 0.771679
Si Si3 0.797427 0.403476 0.491619
Si Si4 0.384833 0.970081 0.063741
Si Si5 0.407441 0.257799 0.508152
O O1 0.630691 0.290474 0.064997
O O2 0.782492 0.549722 0.074462
O O3 0.698511 0.442281 0.910566
O O4 0.879564 0.420834 0.999574
O O5 0.212401 0.745158 0.810565
O O6 0.464979 0.845296 0.774291
O O7 0.368739 0.000000 0.833334
O O8 0.311636 0.912096 0.670139
O O9 0.951777 0.447499 0.476252
O O10 0.236582 0.879892 0.103349
O O11 0.285231 0.285231 0.500000
#
# Coordination Sequence:
#
# PCOD8322024 Si02
#       5
#     6   6   6   6   6
#     4  11  20  34  50  83 115 148 186 242 294 357
#     4  10  18  30  51  79 115 144 186 238 291 354
#     4  11  21  33  52  83 120 145 191 235 295 361
#     4  12  19  32  56  77 115 160 179 242 306 339
#     4  10  20  33  52  80 114 149 197 235 289 364
#
# _framework density 17.720979
#
# number of rings (size 3 to 8) (size 9 to 14) (size 15 to 20)
#    0.000    1.200   12.000    0.000    0.000    0.800 
#    0.000    0.000    0.000    0.000    0.000    7.000 
#    0.000    0.000    0.000    0.000    0.000    0.000 
#
# Total GULP energy -371701.854662 kJ/mol
# GULP energy per Si atom -12390.061822 kJ/mol
# Density = 1.768065 g / cm^3
# Si number density = 17.720979 Si / 1000 Ang^3
#
#
#
# Elastic Constant Matrix: (Units=GPa)
#
#
# Indices 1 2 3 4 5 6 
#
# 1 81.2563 36.0413 36.8499 -2.3879 0.0000 0.0000
# 2 36.0413 81.2563 36.8499 2.3879 0.0000 0.0000
# 3 36.8499 36.8499 101.3940 0.0000 0.0000 0.0000
# 4 -2.3879 2.3879 0.0000 27.4262 0.0000 0.0000
# 5 0.0000 0.0000 0.0000 0.0000 27.4262 -2.3879
# 6 0.0000 0.0000 0.0000 0.0000 -2.3879 22.6075
#
#
#
# Elastic Compliance Matrix: (Units=1/GPa)
#
#
# Indices 1 2 3 4 5 6 
#
# 1 0.016685 -0.005637 -0.004015 0.001943 0.000000 0.000000
# 2 -0.005637 0.016685 -0.004015 -0.001943 0.000000 0.000000
# 3 -0.004015 -0.004015 0.012781 0.000000 0.000000 0.000000
# 4 0.001943 -0.001943 0.000000 0.036800 0.000000 0.000000
# 5 0.000000 0.000000 0.000000 0.000000 0.036800 0.003887
# 6 0.000000 0.000000 0.000000 0.000000 0.003887 0.044644
#
#
# Mechanical properties :
#
#
# Convention : Reuss Voigt Hill
#
# Bulk Modulus (GPa) = 53.14526 53.70987 53.42756
# Shear Modulus (GPa) = 25.25234 25.76967 25.51101
#
# Velocity S-wave (km/s) = 3.77901 3.81752 3.79831
# Velocity P-wave (km/s) = 7.00688 7.05732 7.03214
#
# Compressibility (1/GPa) = 0.01881635
#
# Stress axis : x y z
#
# Youngs Moduli (GPa) = 59.93404 59.93404 78.24060
#
# Poissons Ratio (x) = 0.33784 0.31416
# Poissons Ratio (y) = 0.33784 0.31416
# Poissons Ratio (z) = 0.24065 0.24065
#
# Static dielectric constant tensor:
#      x y z
#    x 3.075660 0.000000 0.000000 
#    y 0.000000 3.075660 0.000000 
#    z 0.000000 0.000000 3.529660 
# 
# 
# High freq. dielectric constant tensor:
#      x y z
#    x 1.646570 0.000000 0.000000 
#    y 0.000000 1.646570 0.000000 
#    z 0.000000 0.000000 1.711430 
# 
# From -- ./inp_files/1951.got.cif
#   From: 2010.03.12/outbox.cif.g09.slc.cpg/sg152_1_cif.got.tgz:1951.got - 2010.04.03 13:45:27.
