data_PCOD8322769
_publ_section_title
;
Structure prediction by ZEFSAII (Michael W. Deem and Ramdas Pophale) SiO2 
 PCOD8322769
Probable space group: P 3 C 1
;
_chemical_formula_sum "Si O2"
_cell_formula_units_Z 36
_cell_length_a 8.459740
_cell_length_b 8.459740
_cell_length_c 29.170466
_cell_angle_alpha 90.000000
_cell_angle_beta 90.000000
_cell_angle_gamma 120.000000
_cell_volume 1807.956721
_symmetry_space_group_name_H-M "P 3 C 1"
_symmetry_group_IT_number 158
_symmetry_cell_setting 'hexagonal'
loop_
_space_group_symop_operation_xyz
x,y,z
-y,x-y,z
-x+y,-x,z
-x+y,y,1/2+z
x,x-y,1/2+z
-y,-x,1/2+z
loop_
_atom_site_type_symbol
_atom_site_label
_atom_site_fract_x
_atom_site_fract_y
_atom_site_fract_z
Si Si1 0.788109 0.981531 0.984460
Si Si2 0.874379 0.532834 0.150655
Si Si3 0.790289 0.983448 0.883097
Si Si4 0.665178 0.994183 0.787815
Si Si5 0.666486 0.661313 0.750369
Si Si6 0.128065 0.465777 0.567000
O O1 0.983424 0.169554 0.990314
O O2 0.706786 0.975521 0.933558
O O3 0.639936 0.970412 0.020509
O O4 0.674252 0.516500 0.149152
O O5 0.979723 0.639597 0.195851
O O6 0.000312 0.652670 0.108783
O O7 0.655566 0.972627 0.843001
O O8 0.828442 0.813838 0.878309
O O9 0.597705 0.800903 0.763260
O O10 0.534041 0.070515 0.773384
O O11 0.869081 0.131781 0.770424
O O12 0.329729 0.485328 0.568793
#
# Coordination Sequence:
#
# PCOD8322769 Si02
#       6
#     6   6   6   6   6   6
#     4   8  18  37  66  83 116 157 204 244 302 374
#     4  10  23  42  62  82 118 162 201 244 308 372
#     4   8  15  36  63  90 115 161 200 245 306 366
#     4  12  22  41  64  92 130 165 208 257 313 376
#     4  12  24  41  63  93 127 166 208 261 311 377
#     4  10  24  37  58  90 120 151 199 267 302 353
#
# _framework density 19.911978999999999
#
# number of rings (size 3 to 8) (size 9 to 14) (size 15 to 20)
#    1.333    0.667    3.333    1.000    4.667    0.000 
#    3.000    0.000    0.000    0.000    0.000    0.000 
#    0.000    0.000    0.000    0.000    0.000    0.000 
#
# Total GULP energy -446085.659948 kJ/mol
# GULP energy per Si atom -12391.268332 kJ/mol
# Density = 1.986666 g / cm^3
# Si number density = 19.911979 Si / 1000 Ang^3
#
#
#
# Elastic Constant Matrix: (Units=GPa)
#
#
# Indices 1 2 3 4 5 6 
#
# 1 55.3404 12.3558 45.5788 -10.1021 0.0000 0.0000
# 2 12.3558 55.3404 45.5788 10.1021 0.0000 0.0000
# 3 45.5788 45.5788 208.7128 0.0000 0.0000 0.0000
# 4 -10.1021 10.1021 0.0000 30.6987 0.0000 0.0000
# 5 0.0000 0.0000 0.0000 0.0000 30.6987 -10.1021
# 6 0.0000 0.0000 0.0000 0.0000 -10.1021 21.4923
#
#
#
# Elastic Compliance Matrix: (Units=1/GPa)
#
#
# Indices 1 2 3 4 5 6 
#
# 1 0.024223 -0.003298 -0.004570 0.009056 0.000000 0.000000
# 2 -0.003298 0.024223 -0.004570 -0.009056 0.000000 0.000000
# 3 -0.004570 -0.004570 0.006787 0.000000 0.000000 0.000000
# 4 0.009056 -0.009056 0.000000 0.038535 0.000000 0.000000
# 5 0.000000 0.000000 0.000000 0.000000 0.038535 0.018113
# 6 0.000000 0.000000 0.000000 0.000000 0.018113 0.055042
#
#
# Mechanical properties :
#
#
# Convention : Reuss Voigt Hill
#
# Bulk Modulus (GPa) = 32.93918 58.49114 45.71516
# Shear Modulus (GPa) = 22.48817 30.96995 26.72906
#
# Velocity S-wave (km/s) = 3.36427 3.94806 3.66780
# Velocity P-wave (km/s) = 5.62756 7.08672 6.39886
#
# Compressibility (1/GPa) = 0.03035898
#
# Stress axis : x y z
#
# Youngs Moduli (GPa) = 41.28294 41.28294 147.33772
#
# Poissons Ratio (x) = 0.13614 0.67328
# Poissons Ratio (y) = 0.13614 0.67328
# Poissons Ratio (z) = 0.18865 0.18865
#
# Static dielectric constant tensor:
#      x y z
#    x 3.225840 0.000000 0.000000 
#    y 0.000000 3.225840 0.000000 
#    z 0.000000 0.000000 3.552300 
# 
# 
# High freq. dielectric constant tensor:
#      x y z
#    x 1.748210 0.000000 0.000000 
#    y 0.000000 1.748210 0.000000 
#    z 0.000000 0.000000 1.789460 
# 
# From -- ./inp_files/762.got.cif
#   From: 2010.03.12/outbox.cif.g09.slc.cpg/sg158_cif.got.tgz:762.got - 2010.04.03 13:59:47.
