data_PCOD8322936
_publ_section_title
;
Structure prediction by ZEFSAII (Michael W. Deem and Ramdas Pophale) SiO2 
 PCOD8322936
Probable space group: P -3 1 M 
;
_chemical_formula_sum "Si O2"
_cell_formula_units_Z 96
_cell_length_a 18.508802
_cell_length_b 18.508802
_cell_length_c 20.765319
_cell_angle_alpha 90.000000
_cell_angle_beta 90.000000
_cell_angle_gamma 120.000000
_cell_volume 6160.640378
_symmetry_space_group_name_H-M "P -3 1 M "
_symmetry_group_IT_number 162
_symmetry_cell_setting 'hexagonal'
loop_
_space_group_symop_operation_xyz
x,y,z
-y,x-y,z
-x+y,-x,z
-y,-x,-z
-x+y,y,-z
x,x-y,-z
-x,-y,-z
y,-x+y,-z
x-y,x,-z
y,x,z
x-y,-y,z
-x,-x+y,z
loop_
_atom_site_type_symbol
_atom_site_label
_atom_site_fract_x
_atom_site_fract_y
_atom_site_fract_z
Si Si1 0.668830 0.168573 0.106118
Si Si2 0.368228 0.907465 0.240033
Si Si3 0.498580 0.669139 0.630464
Si Si4 0.096997 0.733163 1.000000
Si Si5 0.168573 0.499742 0.106118
Si Si6 0.631772 0.092535 0.240033
Si Si7 0.905269 0.538474 0.500000
Si Si8 0.330861 0.829441 0.369536
O O1 0.575686 0.151373 0.092271
O O2 0.734564 0.265435 0.091727
O O3 0.681378 0.149740 0.179644
O O4 0.688382 0.109550 0.061869
O O5 0.318622 0.850259 0.179644
O O6 0.454837 0.909674 0.247062
O O7 0.316434 0.871765 0.306334
O O8 0.383495 0.000000 0.228703
O O9 0.555330 0.683566 0.693666
O O10 0.551304 0.686878 0.564628
O O11 0.461503 0.730751 0.633808
O O12 0.424682 0.575318 0.629848
O O13 0.109551 0.688383 0.938130
O O14 0.000000 0.713446 0.000000
O O15 0.166255 0.833746 0.000000
O O16 0.616505 0.000000 0.228703
O O17 0.893693 0.446847 0.500000
O O18 0.864426 0.551304 0.564628
O O19 0.000000 0.609999 0.500000
#
# Coordination Sequence:
#
# PCOD8322936 Si02
#       8
#    12  12  12  12  12  12  12  12
#     4  10  19  30  45  66  93 123 154 186 219 255
#     4   9  17  28  41  56  76 106 143 179 213 250
#     4  10  18  27  39  55  75  97 124 162 209 255
#     4  10  21  35  51  70  91 117 148 184 225 269
#     4  10  19  30  45  66  93 123 154 186 219 255
#     4   9  17  28  41  56  76 106 143 179 213 250
#     4   9  17  28  40  52  68  93 124 156 192 240
#     4  10  18  27  39  55  75  97 124 162 209 255
#
# _framework density 15.582796
#
# number of rings (size 3 to 8) (size 9 to 14) (size 15 to 20)
#    0.000    2.375    0.000    3.500    0.000    5.000 
#    0.000    5.000    0.000    0.125    0.000    0.000 
#    0.000    0.000    0.000    0.000    0.000    0.000 
#
# Total GULP energy -1189763.347204 kJ/mol
# GULP energy per Si atom -12393.368200 kJ/mol
# Density = 1.554733 g / cm^3
# Si number density = 15.582796 Si / 1000 Ang^3
#
#
#
# Elastic Constant Matrix: (Units=GPa)
#
#
# Indices 1 2 3 4 5 6 
#
# 1 53.5764 28.6545 27.4337 0.0000 0.0000 0.0000
# 2 28.6545 53.5764 27.4337 0.0000 0.0000 0.0000
# 3 27.4337 27.4337 118.5424 0.0000 0.0000 0.0000
# 4 0.0000 0.0000 0.0000 17.9648 0.0000 0.0000
# 5 0.0000 0.0000 0.0000 0.0000 17.9648 0.0000
# 6 0.0000 0.0000 0.0000 0.0000 0.0000 12.4610
#
#
#
# Elastic Compliance Matrix: (Units=1/GPa)
#
#
# Indices 1 2 3 4 5 6 
#
# 1 0.027253 -0.012872 -0.003328 0.000000 0.000000 0.000000
# 2 -0.012872 0.027253 -0.003328 0.000000 0.000000 0.000000
# 3 -0.003328 -0.003328 0.009976 0.000000 0.000000 0.000000
# 4 0.000000 0.000000 0.000000 0.055664 0.000000 0.000000
# 5 0.000000 0.000000 0.000000 0.000000 0.055664 0.000000
# 6 0.000000 0.000000 0.000000 0.000000 0.000000 0.080251
#
#
# Mechanical properties :
#
#
# Convention : Reuss Voigt Hill
#
# Bulk Modulus (GPa) = 39.32915 43.63769 41.48342
# Shear Modulus (GPa) = 16.46932 19.15635 17.81283
#
# Velocity S-wave (km/s) = 3.25451 3.50998 3.38466
# Velocity P-wave (km/s) = 6.27822 6.67017 6.47716
#
# Compressibility (1/GPa) = 0.02542643
#
# Stress axis : x y z
#
# Youngs Moduli (GPa) = 36.69257 36.69257 100.23773
#
# Poissons Ratio (x) = 0.47230 0.33362
# Poissons Ratio (y) = 0.47230 0.33362
# Poissons Ratio (z) = 0.12212 0.12212
#
# Static dielectric constant tensor:
#      x y z
#    x 2.708520 0.000000 0.000000 
#    y 0.000000 2.708520 0.000000 
#    z 0.000000 0.000000 3.451980 
# 
# 
# High freq. dielectric constant tensor:
#      x y z
#    x 1.557880 0.000000 0.000000 
#    y 0.000000 1.557880 0.000000 
#    z 0.000000 0.000000 1.628710 
# 
# From -- ./inp_files/3903.got.cif
#   From: 2010.03.12/outbox.cif.g09.slc.cpg/sg162_2_cif.got.tgz:3903.got - 2010.04.02 06:27:41.
