data_PCOD8322377
_publ_section_title
;
Structure prediction by ZEFSAII (Michael W. Deem and Ramdas Pophale) SiO2 
 PCOD8322377
Probable space group: P 32 2 1
;
_chemical_formula_sum "Si O2"
_cell_formula_units_Z 36
_cell_length_a 8.575510
_cell_length_b 8.575510
_cell_length_c 27.357144
_cell_angle_alpha 90.000000
_cell_angle_beta 90.000000
_cell_angle_gamma 120.000000
_cell_volume 1742.293448
_symmetry_space_group_name_H-M "P 32 2 1"
_symmetry_group_IT_number 154
_symmetry_cell_setting 'hexagonal'
loop_
_space_group_symop_operation_xyz
x,y,z
-y,x-y,2/3+z
-x+y,-x,1/3+z
x-y,-y,1/3-z
-x,-x+y,2/3-z
y,x,-z
loop_
_atom_site_type_symbol
_atom_site_label
_atom_site_fract_x
_atom_site_fract_y
_atom_site_fract_z
Si Si1 0.626185 0.458808 0.113020
Si Si2 0.460545 0.717074 0.367937
Si Si3 0.987039 0.479690 0.549843
Si Si4 0.400193 0.876142 0.272746
Si Si5 0.107863 0.337355 0.382076
Si Si6 0.716402 0.915406 0.218620
O O1 0.539227 0.421936 0.166414
O O2 0.497231 0.287773 0.078482
O O3 0.621959 0.626274 0.090388
O O4 0.829808 0.498601 0.114617
O O5 0.465827 0.855381 0.407405
O O6 0.484093 0.809368 0.315596
O O7 0.618040 0.666492 0.377677
O O8 0.279028 0.526624 0.368606
O O9 0.030373 0.317214 0.555098
O O10 0.531831 0.921649 0.225948
O O11 0.152642 0.190084 0.404472
O O12 0.000000 0.250229 0.333334
O O13 0.802009 0.000000 0.166667
#
# Coordination Sequence:
#
# PCOD8322377 Si02
#       6
#     6   6   6   6   6   6
#     4  11  22  42  63  95 126 168 215 268 329 388
#     4  11  23  42  64  94 128 172 216 270 324 396
#     4  11  24  40  67  90 128 168 219 267 322 397
#     4  10  22  37  65  90 127 165 221 257 321 395
#     4  11  22  41  67  92 128 171 209 270 336 391
#     4  10  21  39  64  90 124 172 214 255 330 399
#
# _framework density 20.662421999999999
#
# number of rings (size 3 to 8) (size 9 to 14) (size 15 to 20)
#    0.000    1.333    3.333    3.000    9.333    0.000 
#    0.000    5.833    0.000    0.000    0.000    0.000 
#    0.000    0.000    0.000    0.000    0.000    0.000 
#
# Total GULP energy -446319.164880 kJ/mol
# GULP energy per Si atom -12397.754580 kJ/mol
# Density = 2.061539 g / cm^3
# Si number density = 20.662422 Si / 1000 Ang^3
#
#
#
# Elastic Constant Matrix: (Units=GPa)
#
#
# Indices 1 2 3 4 5 6 
#
# 1 84.7715 37.3890 30.7107 5.8679 0.0002 0.0000
# 2 37.3890 84.7715 30.7107 -5.8679 -0.0002 0.0000
# 3 30.7107 30.7107 101.1992 0.0000 0.0000 0.0000
# 4 5.8679 -5.8679 0.0000 30.3572 0.0000 -0.0002
# 5 0.0002 -0.0002 0.0000 0.0000 30.3572 5.8679
# 6 0.0000 0.0000 0.0000 -0.0002 5.8679 23.6912
#
#
#
# Elastic Compliance Matrix: (Units=1/GPa)
#
#
# Indices 1 2 3 4 5 6 
#
# 1 0.015913 -0.006253 -0.002931 -0.004285 0.000000 0.000000
# 2 -0.006253 0.015913 -0.002931 0.004285 0.000000 0.000000
# 3 -0.002931 -0.002931 0.011661 0.000000 0.000000 0.000000
# 4 -0.004285 0.004285 0.000000 0.034597 0.000000 0.000000
# 5 0.000000 0.000000 0.000000 0.000000 0.034597 -0.008569
# 6 0.000000 0.000000 0.000000 0.000000 -0.008569 0.044332
#
#
# Mechanical properties :
#
#
# Convention : Reuss Voigt Hill
#
# Bulk Modulus (GPa) = 51.93565 52.04036 51.98800
# Shear Modulus (GPa) = 26.64335 28.34325 27.49330
#
# Velocity S-wave (km/s) = 3.59480 3.70770 3.65169
# Velocity P-wave (km/s) = 6.51306 6.60077 6.55706
#
# Compressibility (1/GPa) = 0.01925460
#
# Stress axis : x y z
#
# Youngs Moduli (GPa) = 62.84178 62.84178 85.75807
#
# Poissons Ratio (x) = 0.39296 0.25140
# Poissons Ratio (y) = 0.39296 0.25140
# Poissons Ratio (z) = 0.18422 0.18422
#
# Static dielectric constant tensor:
#      x y z
#    x 3.846860 0.000000 0.000000 
#    y 0.000000 3.846860 0.000000 
#    z 0.000000 0.000000 3.915760 
# 
# 
# High freq. dielectric constant tensor:
#      x y z
#    x 1.799180 0.000000 0.000000 
#    y 0.000000 1.799180 0.000000 
#    z 0.000000 0.000000 1.828770 
# 
# From -- ./inp_files/3412.got.cif
#   From: 2010.03.12/outbox.cif.g09.slc.cpg/sg154_2_cif.got.tgz:3412.got - 2010.04.03 13:51:21.
