data_PCOD8322657
_publ_section_title
;
Structure prediction by ZEFSAII (Michael W. Deem and Ramdas Pophale) SiO2 
 PCOD8322657
Probable space group: P 3 M 1
;
_chemical_formula_sum "Si O2"
_cell_formula_units_Z 48
_cell_length_a 12.754277
_cell_length_b 12.754277
_cell_length_c 20.622755
_cell_angle_alpha 90.000000
_cell_angle_beta 90.000000
_cell_angle_gamma 120.000000
_cell_volume 2905.286752
_symmetry_space_group_name_H-M "P 3 M 1"
_symmetry_group_IT_number 156
_symmetry_cell_setting 'hexagonal'
loop_
_space_group_symop_operation_xyz
x,y,z
-y,x-y,z
-x+y,-x,z
-x+y,y,z
x,x-y,z
-y,-x,z
loop_
_atom_site_type_symbol
_atom_site_label
_atom_site_fract_x
_atom_site_fract_y
_atom_site_fract_z
Si Si1 0.333261 0.908200 0.567980
Si Si2 0.086608 0.421143 0.336815
Si Si3 0.754314 0.999263 0.827849
Si Si4 0.573715 0.907018 0.715539
Si Si5 0.665064 0.087949 0.456029
Si Si6 0.904535 0.335311 0.081536
Si Si7 0.913701 0.577944 0.941191
Si Si8 0.914136 0.336263 0.222392
O O1 0.434582 0.869164 0.558441
O O2 0.205495 0.794506 0.547633
O O3 0.332002 0.948140 0.641899
O O4 0.361838 0.022363 0.523491
O O5 0.207705 0.415409 0.342983
O O6 0.121132 0.560566 0.333016
O O7 0.003892 0.355289 0.398451
O O8 0.014611 0.347773 0.272900
O O9 0.882342 0.117659 0.823009
O O10 0.679441 0.001013 0.889993
O O11 0.775347 0.887674 0.836480
O O12 0.683838 0.991891 0.762160
O O13 0.461472 0.922944 0.734883
O O14 0.533394 0.766697 0.724761
O O15 0.564162 0.128324 0.454494
O O16 0.795109 0.204892 0.448207
O O17 0.849309 0.424655 0.079042
O O18 0.800025 0.199976 0.084804
O O19 0.975420 0.356546 0.149988
O O20 0.975306 0.352178 0.013306
O O21 0.778400 0.556800 0.941028
O O22 0.905731 0.452866 0.921213
O O23 0.878950 0.439475 0.237090
O O24 0.793168 0.206833 0.229630
#
# Coordination Sequence:
#
# PCOD8322657 Si02
#       8
#     6   6   6   6   6   6   6   6
#     4   9  17  30  50  74  97 120 147 181 220 263
#     4  10  20  33  49  68  90 118 152 189 226 263
#     4  10  20  32  45  61  85 120 159 194 225 262
#     4   9  17  30  49  72  94 116 145 184 229 270
#     4  10  20  33  50  71  95 121 148 181 221 265
#     4   8  13  22  39  65  93 117 141 173 219 271
#     4   9  16  27  45  68  92 115 142 182 231 278
#     4   9  16  27  46  71  96 119 144 178 221 270
#
# _framework density 16.521605999999998
#
# number of rings (size 3 to 8) (size 9 to 14) (size 15 to 20)
#    0.000    2.750    0.000    2.125    0.000    3.500 
#    0.000    3.125    0.000    5.000    0.000    0.000 
#    0.000    0.000    0.000    0.000    0.000    0.000 
#
# Total GULP energy -594887.743782 kJ/mol
# GULP energy per Si atom -12393.494662 kJ/mol
# Density = 1.648400 g / cm^3
# Si number density = 16.521606 Si / 1000 Ang^3
#
#
#
# Elastic Constant Matrix: (Units=GPa)
#
#
# Indices 1 2 3 4 5 6 
#
# 1 83.4558 46.8394 57.0117 0.7560 0.0000 0.0000
# 2 46.8394 83.4558 57.0117 -0.7560 0.0000 0.0000
# 3 57.0117 57.0117 135.1511 0.0000 0.0000 0.0000
# 4 0.7560 -0.7560 0.0000 21.7585 0.0000 0.0000
# 5 0.0000 0.0000 0.0000 0.0000 21.7585 0.7560
# 6 0.0000 0.0000 0.0000 0.0000 0.7560 18.3082
#
#
#
# Elastic Compliance Matrix: (Units=1/GPa)
#
#
# Indices 1 2 3 4 5 6 
#
# 1 0.019758 -0.007592 -0.005132 -0.000950 0.000000 0.000000
# 2 -0.007592 0.019758 -0.005132 0.000950 0.000000 0.000000
# 3 -0.005132 -0.005132 0.011729 0.000000 0.000000 0.000000
# 4 -0.000950 0.000950 0.000000 0.046025 0.000000 0.000000
# 5 0.000000 0.000000 0.000000 0.000000 0.046025 -0.001900
# 6 0.000000 0.000000 0.000000 0.000000 -0.001900 0.054699
#
#
# Mechanical properties :
#
#
# Convention : Reuss Voigt Hill
#
# Bulk Modulus (GPa) = 64.38037 69.30981 66.84509
# Shear Modulus (GPa) = 20.93077 21.77836 21.35457
#
# Velocity S-wave (km/s) = 3.56318 3.63461 3.59907
# Velocity P-wave (km/s) = 7.48200 7.72372 7.60382
#
# Compressibility (1/GPa) = 0.01553269
#
# Stress axis : x y z
#
# Youngs Moduli (GPa) = 50.61306 50.61306 85.25925
#
# Poissons Ratio (x) = 0.38424 0.43756
# Poissons Ratio (y) = 0.38424 0.43756
# Poissons Ratio (z) = 0.25975 0.25975
#
# Static dielectric constant tensor:
#      x y z
#    x 2.874500 0.000000 0.000000 
#    y 0.000000 2.874500 0.000000 
#    z 0.000000 0.000000 3.602530 
# 
# 
# High freq. dielectric constant tensor:
#      x y z
#    x 1.613940 0.000000 0.000000 
#    y 0.000000 1.613940 0.000000 
#    z 0.000000 0.000000 1.660730 
# 
# From -- ./inp_files/1120.got.cif
#   From: 2010.03.12/outbox.cif.g09.slc.cpg/sg156_cif.got.tgz:1120.got - 2010.04.03 13:58:47.
