data_PCOD8322722
_publ_section_title
;
Structure prediction by ZEFSAII (Michael W. Deem and Ramdas Pophale) SiO2 
 PCOD8322722
Probable space group: P 3 1 M
;
_chemical_formula_sum "Si O2"
_cell_formula_units_Z 42
_cell_length_a 14.443639
_cell_length_b 14.443639
_cell_length_c 11.582844
_cell_angle_alpha 90.000000
_cell_angle_beta 90.000000
_cell_angle_gamma 120.000000
_cell_volume 2092.662006
_symmetry_space_group_name_H-M "P 3 1 M"
_symmetry_group_IT_number 157
_symmetry_cell_setting 'hexagonal'
loop_
_space_group_symop_operation_xyz
x,y,z
-y,x-y,z
-x+y,-x,z
y,x,z
x-y,-y,z
-x,-x+y,z
loop_
_atom_site_type_symbol
_atom_site_label
_atom_site_fract_x
_atom_site_fract_y
_atom_site_fract_z
Si Si1 0.121295 0.874863 0.612030
Si Si2 0.269276 0.740830 0.222087
Si Si3 0.878333 0.306513 0.005235
Si Si4 0.568941 0.362627 0.580776
Si Si5 0.325677 0.208060 0.857636
Si Si6 0.880982 0.607849 0.417751
Si Si7 0.416193 0.535216 0.831371
O O1 0.143388 0.820610 0.722600
O O2 0.142211 0.827229 0.496797
O O3 0.000000 0.851241 0.614649
O O4 0.201496 0.000000 0.614987
O O5 0.212087 0.610412 0.228104
O O6 0.252716 0.793105 0.107815
O O7 0.213414 0.771093 0.323639
O O8 0.000000 0.388023 0.048064
O O9 0.882021 0.210067 0.936958
O O10 0.834191 0.366111 0.921211
O O11 0.551032 0.243072 0.551330
O O12 0.482250 0.368138 0.499246
O O13 0.560020 0.374108 0.715984
O O14 0.225001 0.225001 0.887246
O O15 0.434369 0.316382 0.889701
O O16 0.000000 0.674530 0.361560
O O17 0.508377 0.508377 0.797597
#
# Coordination Sequence:
#
# PCOD8322722 Si02
#       7
#     6   6   6   6   6   6   6
#     4  10  21  38  61  89 121 156 194 241 299 360
#     4  10  24  44  61  81 118 158 202 244 298 359
#     4  11  23  38  61  92 118 153 208 256 295 352
#     4  10  20  32  54  83 122 157 192 233 298 355
#     4  10  20  37  58  86 127 163 194 239 300 361
#     4  11  22  40  62  85 114 153 203 252 298 357
#     4  10  19  33  55  86 123 160 197 239 292 356
#
# _framework density 20.070132000000001
#
# number of rings (size 3 to 8) (size 9 to 14) (size 15 to 20)
#    0.571    1.143    1.429    3.571    0.000    1.714 
#    0.857    2.143    0.000    0.286    0.000    1.000 
#    0.000    0.000    0.000    0.000    0.000    0.000 
#
# Total GULP energy -520342.979146 kJ/mol
# GULP energy per Si atom -12389.118551 kJ/mol
# Density = 2.002445 g / cm^3
# Si number density = 20.070132 Si / 1000 Ang^3
#
#
#
# Elastic Constant Matrix: (Units=GPa)
#
#
# Indices 1 2 3 4 5 6 
#
# 1 88.7053 36.2234 49.1671 0.0000 -3.3099 0.0000
# 2 36.2234 88.7053 49.1671 0.0000 3.3099 0.0000
# 3 49.1671 49.1671 118.5795 0.0000 0.0000 0.0000
# 4 0.0000 0.0000 0.0000 27.4036 0.0000 3.3099
# 5 -3.3099 3.3099 0.0000 0.0000 27.4036 0.0000
# 6 0.0000 0.0000 0.0000 3.3099 0.0000 26.2410
#
#
#
# Elastic Compliance Matrix: (Units=1/GPa)
#
#
# Indices 1 2 3 4 5 6 
#
# 1 0.015616 -0.003733 -0.004927 0.000000 0.002337 0.000000
# 2 -0.003733 0.015616 -0.004927 0.000000 -0.002337 0.000000
# 3 -0.004927 -0.004927 0.012519 0.000000 0.000000 0.000000
# 4 0.000000 0.000000 0.000000 0.037056 0.000000 -0.004674
# 5 0.002337 -0.002337 0.000000 0.000000 0.037056 0.000000
# 6 0.000000 0.000000 0.000000 -0.004674 0.000000 0.038698
#
#
# Mechanical properties :
#
#
# Convention : Reuss Voigt Hill
#
# Bulk Modulus (GPa) = 60.32658 62.78952 61.55805
# Shear Modulus (GPa) = 26.41863 26.97180 26.69522
#
# Velocity S-wave (km/s) = 3.63204 3.66987 3.65101
# Velocity P-wave (km/s) = 6.90740 7.02213 6.96500
#
# Compressibility (1/GPa) = 0.01657644
#
# Stress axis : x y z
#
# Youngs Moduli (GPa) = 64.03758 64.03758 79.87896
#
# Poissons Ratio (x) = 0.23906 0.39356
# Poissons Ratio (y) = 0.23906 0.39356
# Poissons Ratio (z) = 0.31551 0.31551
#
# Static dielectric constant tensor:
#      x y z
#    x 3.586690 0.000000 0.000000 
#    y 0.000000 3.586690 0.000000 
#    z 0.000000 0.000000 3.408860 
# 
# 
# High freq. dielectric constant tensor:
#      x y z
#    x 1.774180 0.000000 0.000000 
#    y 0.000000 1.774180 0.000000 
#    z 0.000000 0.000000 1.767760 
# 
# From -- ./inp_files/594.got.cif
#   From: 2010.03.12/outbox.cif.g09.slc.cpg/sg157_cif.got.tgz:594.got - 2010.04.03 13:59:21.
