data_PCOD8322698
_publ_section_title
;
Structure prediction by ZEFSAII (Michael W. Deem and Ramdas Pophale) SiO2 
 PCOD8322698
Probable space group: P 3 M 1
;
_chemical_formula_sum "Si O2"
_cell_formula_units_Z 48
_cell_length_a 12.517626
_cell_length_b 12.517626
_cell_length_c 20.382142
_cell_angle_alpha 90.000000
_cell_angle_beta 90.000000
_cell_angle_gamma 120.000000
_cell_volume 2765.823090
_symmetry_space_group_name_H-M "P 3 M 1"
_symmetry_group_IT_number 156
_symmetry_cell_setting 'hexagonal'
loop_
_space_group_symop_operation_xyz
x,y,z
-y,x-y,z
-x+y,-x,z
-x+y,y,z
x,x-y,z
-y,-x,z
loop_
_atom_site_type_symbol
_atom_site_label
_atom_site_fract_x
_atom_site_fract_y
_atom_site_fract_z
Si Si1 0.088502 0.666642 0.365620
Si Si2 0.083453 0.418310 0.754173
Si Si3 0.752724 0.000290 0.248086
Si Si4 0.416750 0.333248 0.878028
Si Si5 0.668264 0.084774 0.125355
Si Si6 0.333570 0.912311 0.514246
Si Si7 0.915398 0.334429 0.631872
Si Si8 0.998603 0.749434 0.002596
O O1 0.071314 0.535657 0.344999
O O2 0.232677 0.767324 0.359035
O O3 0.005619 0.698009 0.318507
O O4 0.043459 0.665212 0.439858
O O5 0.203154 0.406307 0.760975
O O6 0.123369 0.561685 0.756447
O O7 0.991946 0.343708 0.812951
O O8 0.016544 0.356917 0.686335
O O9 0.746821 0.873411 0.229608
O O10 0.677778 0.027883 0.193841
O O11 0.894502 0.105499 0.250675
O O12 0.439643 0.219822 0.869385
O O13 0.547206 0.452795 0.890915
O O14 0.330500 0.316790 0.939170
O O15 0.537058 0.074116 0.120842
O O16 0.772538 0.227463 0.119109
O O17 0.679977 0.006219 0.066838
O O18 0.434926 0.869851 0.523125
O O19 0.202217 0.797784 0.533811
O O20 0.364006 0.027007 0.560955
O O21 0.874794 0.437397 0.637155
O O22 0.797327 0.202674 0.643263
O O23 0.893248 0.786495 0.004873
O O24 0.128516 0.871484 0.000051
#
# Coordination Sequence:
#
# PCOD8322698 Si02
#       8
#     6   6   6   6   6   6   6   6
#     4   9  17  30  49  73  99 127 160 199 244 291
#     4  10  20  34  53  76 101 129 162 202 247 293
#     4  10  20  33  50  71  97 130 166 203 241 286
#     4  10  20  34  54  78 104 134 167 204 243 286
#     4  10  20  34  53  75  99 127 160 202 249 296
#     4   9  17  30  50  74  98 125 159 201 246 291
#     4  10  20  33  50  71  97 129 163 201 243 290
#     4  10  20  34  53  76 103 135 169 204 241 285
#
# _framework density 17.354689
#
# number of rings (size 3 to 8) (size 9 to 14) (size 15 to 20)
#    0.000    2.250    0.000    3.250    0.000    1.500 
#    0.000    5.000    0.000   11.500    0.000    0.000 
#    0.000    0.000    0.000    0.000    0.000    0.000 
#
# Total GULP energy -595360.215250 kJ/mol
# GULP energy per Si atom -12403.337818 kJ/mol
# Density = 1.731519 g / cm^3
# Si number density = 17.354689 Si / 1000 Ang^3
#
#
#
# Elastic Constant Matrix: (Units=GPa)
#
#
# Indices 1 2 3 4 5 6 
#
# 1 101.8141 67.0356 51.7148 0.9987 -0.0002 0.0000
# 2 67.0356 101.8141 51.7148 -0.9987 0.0002 0.0000
# 3 51.7148 51.7148 112.4542 0.0000 0.0000 0.0000
# 4 0.9987 -0.9987 0.0000 21.6829 0.0000 0.0002
# 5 -0.0002 0.0002 0.0000 0.0000 21.6829 0.9987
# 6 0.0000 0.0000 0.0000 0.0002 0.9987 17.3893
#
#
#
# Elastic Compliance Matrix: (Units=1/GPa)
#
#
# Indices 1 2 3 4 5 6 
#
# 1 0.018537 -0.010292 -0.003792 -0.001328 0.000000 0.000000
# 2 -0.010292 0.018537 -0.003792 0.001328 0.000000 0.000000
# 3 -0.003792 -0.003792 0.012380 0.000000 0.000000 0.000000
# 4 -0.001328 0.001328 0.000000 0.046242 0.000000 -0.000001
# 5 0.000000 0.000000 0.000000 0.000000 0.046242 -0.002656
# 6 0.000000 0.000000 0.000000 -0.000001 -0.002656 0.057659
#
#
# Mechanical properties :
#
#
# Convention : Reuss Voigt Hill
#
# Bulk Modulus (GPa) = 72.97537 73.00142 72.98840
# Shear Modulus (GPa) = 20.84060 21.85882 21.34971
#
# Velocity S-wave (km/s) = 3.46911 3.55284 3.51122
# Velocity P-wave (km/s) = 7.62803 7.68023 7.65418
#
# Compressibility (1/GPa) = 0.01370325
#
# Stress axis : x y z
#
# Youngs Moduli (GPa) = 53.94515 53.94515 80.77608
#
# Poissons Ratio (x) = 0.55522 0.30628
# Poissons Ratio (y) = 0.55522 0.30628
# Poissons Ratio (z) = 0.20454 0.20454
#
# Static dielectric constant tensor:
#      x y z
#    x 3.115110 0.000000 0.000000 
#    y 0.000000 3.115110 0.000000 
#    z 0.000000 0.000000 3.474270 
# 
# 
# High freq. dielectric constant tensor:
#      x y z
#    x 1.666370 0.000000 0.000000 
#    y 0.000000 1.666370 0.000000 
#    z 0.000000 0.000000 1.688620 
# 
# From -- ./inp_files/1076.got.cif
#   From: 2010.03.12/outbox.cif.g09.slc.cpg/sg156_cif.got.tgz:1076.got - 2010.04.03 13:58:47.
