data_PCOD8322296
_publ_section_title
;
Structure prediction by ZEFSAII (Michael W. Deem and Ramdas Pophale) SiO2 
 PCOD8322296
Probable space group: P 32 2 1
;
_chemical_formula_sum "Si O2"
_cell_formula_units_Z 33
_cell_length_a 11.560082
_cell_length_b 11.560082
_cell_length_c 13.407743
_cell_angle_alpha 90.000000
_cell_angle_beta 90.000000
_cell_angle_gamma 120.000000
_cell_volume 1551.701350
_symmetry_space_group_name_H-M "P 32 2 1"
_symmetry_group_IT_number 154
_symmetry_cell_setting 'hexagonal'
loop_
_space_group_symop_operation_xyz
x,y,z
-y,x-y,2/3+z
-x+y,-x,1/3+z
x-y,-y,1/3-z
-x,-x+y,2/3-z
y,x,-z
loop_
_atom_site_type_symbol
_atom_site_label
_atom_site_fract_x
_atom_site_fract_y
_atom_site_fract_z
Si Si1 0.000000 0.303242 0.833334
Si Si2 0.994365 0.274279 0.051234
Si Si3 0.711468 0.443950 0.443190
Si Si4 0.446280 0.486999 0.768228
Si Si5 0.584730 0.879347 0.239665
Si Si6 0.719424 0.123870 0.595444
O O1 0.005013 0.232301 0.730194
O O2 0.135427 0.444262 0.835466
O O3 0.861712 0.167354 0.108866
O O4 0.995572 0.414954 0.046858
O O5 0.128617 0.299865 0.108253
O O6 0.824054 0.424318 0.499486
O O7 0.563525 0.314136 0.445280
O O8 0.755714 0.479279 0.327046
O O9 0.335614 0.403998 0.685504
O O10 0.462829 0.380844 0.836317
O O11 0.617147 0.000000 0.166667
O O12 0.678230 0.000000 0.666667
#
# Coordination Sequence:
#
# PCOD8322296 Si02
#       6
#     3   6   6   6   6   6
#     4  10  16  36  62  92 112 160 214 264 296 376
#     4  11  23  39  65  93 130 165 217 269 325 385
#     4  10  19  38  65  92 124 164 215 260 323 381
#     4  11  22  39  63  93 131 166 212 273 317 386
#     4  12  24  40  66  99 132 167 221 267 325 390
#     4   9  21  41  60  92 123 165 219 259 319 384
#
# _framework density 21.266978999999999
#
# number of rings (size 3 to 8) (size 9 to 14) (size 15 to 20)
#    0.000    1.455    6.364    0.000    2.545    0.000 
#    0.000    4.545    0.000    0.000    0.000    0.000 
#    0.000    0.000    0.000    0.000    0.000    0.000 
#
# Total GULP energy -408937.588405 kJ/mol
# GULP energy per Si atom -12392.048133 kJ/mol
# Density = 2.121857 g / cm^3
# Si number density = 21.266979 Si / 1000 Ang^3
#
#
#
# Elastic Constant Matrix: (Units=GPa)
#
#
# Indices 1 2 3 4 5 6 
#
# 1 73.7627 8.0799 24.8307 -3.1700 -0.0003 0.0000
# 2 8.0799 73.7627 24.8307 3.1700 0.0003 0.0000
# 3 24.8307 24.8307 93.6812 0.0000 0.0000 0.0000
# 4 -3.1700 3.1700 0.0000 23.2754 0.0000 0.0003
# 5 -0.0003 0.0003 0.0000 0.0000 23.2754 -3.1700
# 6 0.0000 0.0000 0.0000 0.0003 -3.1700 32.8414
#
#
#
# Elastic Compliance Matrix: (Units=1/GPa)
#
#
# Indices 1 2 3 4 5 6 
#
# 1 0.014994 -0.000434 -0.003859 0.002101 0.000000 0.000000
# 2 -0.000434 0.014994 -0.003859 -0.002101 0.000000 0.000000
# 3 -0.003859 -0.003859 0.012720 0.000000 0.000000 0.000000
# 4 0.002101 -0.002101 0.000000 0.043536 0.000000 0.000000
# 5 0.000000 0.000000 0.000000 0.000000 0.043536 0.004202
# 6 0.000000 0.000000 0.000000 0.000000 0.004202 0.030855
#
#
# Mechanical properties :
#
#
# Convention : Reuss Voigt Hill
#
# Bulk Modulus (GPa) = 37.87322 39.63213 38.75267
# Shear Modulus (GPa) = 26.91918 28.10945 27.51432
#
# Velocity S-wave (km/s) = 3.56163 3.63952 3.60079
# Velocity P-wave (km/s) = 5.89582 6.02806 5.96231
#
# Compressibility (1/GPa) = 0.02640388
#
# Stress axis : x y z
#
# Youngs Moduli (GPa) = 66.69360 66.69360 78.61417
#
# Poissons Ratio (x) = 0.02892 0.30340
# Poissons Ratio (y) = 0.02892 0.30340
# Poissons Ratio (z) = 0.25739 0.25739
#
# Static dielectric constant tensor:
#      x y z
#    x 3.964840 0.000000 0.000000 
#    y 0.000000 3.964840 0.000000 
#    z 0.000000 0.000000 3.878820 
# 
# 
# High freq. dielectric constant tensor:
#      x y z
#    x 1.818970 0.000000 0.000000 
#    y 0.000000 1.818970 0.000000 
#    z 0.000000 0.000000 1.827800 
# 
# From -- ./inp_files/1988.got.cif
#   From: 2010.03.12/outbox.cif.g09.slc.cpg/sg154_1_cif.got.tgz:1988.got - 2010.04.03 13:51:21.
