data_PCOD8322754
_publ_section_title
;
Structure prediction by ZEFSAII (Michael W. Deem and Ramdas Pophale) SiO2 
 PCOD8322754
Probable space group: P 3 C 1
;
_chemical_formula_sum "Si O2"
_cell_formula_units_Z 30
_cell_length_a 8.544519
_cell_length_b 8.544519
_cell_length_c 20.606659
_cell_angle_alpha 90.000000
_cell_angle_beta 90.000000
_cell_angle_gamma 120.000000
_cell_volume 1302.907115
_symmetry_space_group_name_H-M "P 3 C 1"
_symmetry_group_IT_number 158
_symmetry_cell_setting 'hexagonal'
loop_
_space_group_symop_operation_xyz
x,y,z
-y,x-y,z
-x+y,-x,z
-x+y,y,1/2+z
x,x-y,1/2+z
-y,-x,1/2+z
loop_
_atom_site_type_symbol
_atom_site_label
_atom_site_fract_x
_atom_site_fract_y
_atom_site_fract_z
Si Si1 0.997895 0.633614 0.998910
Si Si2 0.685483 0.998376 0.546346
Si Si3 0.449102 0.550898 0.369123
Si Si4 0.366386 0.364281 0.239337
Si Si5 0.312893 0.314517 0.691900
O O1 0.978577 0.522867 0.932067
O O2 0.845906 0.689191 0.005270
O O3 0.191574 0.812568 0.007647
O O4 0.971926 0.486389 0.053170
O O5 0.753013 0.990959 0.619123
O O6 0.539195 0.769598 0.369123
O O7 0.477133 0.455710 0.306179
O O8 0.187432 0.379006 0.230600
O O9 0.513611 0.485537 0.185076
O O10 0.310809 0.156715 0.232977
#
# Coordination Sequence:
#
# PCOD8322754 Si02
#       5
#     6   6   6   6   6
#     4  12  25  45  73 106 149 196 248 309 375 450
#     4  12  24  43  70 106 147 194 247 308 379 450
#     4  10  20  48  72 100 140 182 252 294 362 450
#     4  12  25  45  73 106 149 196 248 309 375 450
#     4  12  24  43  70 106 147 194 247 308 379 450
#
# _framework density 23.025434000000001
#
# number of rings (size 3 to 8) (size 9 to 14) (size 15 to 20)
#    0.400    0.000    4.000    6.000    0.000    1.600 
#    0.000    0.000    0.000    0.000    0.000    0.000 
#    0.000    0.000    0.000    0.000    0.000    0.000 
#
# Total GULP energy -371857.869166 kJ/mol
# GULP energy per Si atom -12395.262306 kJ/mol
# Density = 2.297303 g / cm^3
# Si number density = 23.025434 Si / 1000 Ang^3
#
#
#
# Elastic Constant Matrix: (Units=GPa)
#
#
# Indices 1 2 3 4 5 6 
#
# 1 108.8417 21.8146 39.5230 0.0000 0.0000 0.0000
# 2 21.8146 108.8417 39.5230 0.0000 0.0000 0.0000
# 3 39.5230 39.5230 166.3883 0.0000 0.0000 0.0000
# 4 0.0000 0.0000 0.0000 33.4750 0.0000 0.0000
# 5 0.0000 0.0000 0.0000 0.0000 33.4750 0.0000
# 6 0.0000 0.0000 0.0000 0.0000 0.0000 43.5136
#
#
#
# Elastic Compliance Matrix: (Units=1/GPa)
#
#
# Indices 1 2 3 4 5 6 
#
# 1 0.010214 -0.001276 -0.002123 0.000000 0.000000 0.000000
# 2 -0.001276 0.010214 -0.002123 0.000000 0.000000 0.000000
# 3 -0.002123 -0.002123 0.007019 0.000000 0.000000 0.000000
# 4 0.000000 0.000000 0.000000 0.029873 0.000000 0.000000
# 5 0.000000 0.000000 0.000000 0.000000 0.029873 0.000000
# 6 0.000000 0.000000 0.000000 0.000000 0.000000 0.022981
#
#
# Mechanical properties :
#
#
# Convention : Reuss Voigt Hill
#
# Bulk Modulus (GPa) = 60.96642 65.08810 63.02726
# Shear Modulus (GPa) = 39.46724 40.97346 40.22035
#
# Velocity S-wave (km/s) = 4.14463 4.22297 4.18398
# Velocity P-wave (km/s) = 7.03130 7.21854 7.12554
#
# Compressibility (1/GPa) = 0.01640247
#
# Stress axis : x y z
#
# Youngs Moduli (GPa) = 97.90092 97.90092 142.47711
#
# Poissons Ratio (x) = 0.12495 0.30250
# Poissons Ratio (y) = 0.12495 0.30250
# Poissons Ratio (z) = 0.20786 0.20786
#
# Static dielectric constant tensor:
#      x y z
#    x 3.927680 0.000000 0.000000 
#    y 0.000000 3.927680 0.000000 
#    z 0.000000 0.000000 4.023780 
# 
# 
# High freq. dielectric constant tensor:
#      x y z
#    x 1.902540 0.000000 0.000000 
#    y 0.000000 1.902540 0.000000 
#    z 0.000000 0.000000 1.912400 
# 
# From -- ./inp_files/729.got.cif
#   From: 2010.03.12/outbox.cif.g09.slc.cpg/sg158_cif.got.tgz:729.got - 2010.04.03 13:59:47.
