data_PCOD8322364
_publ_section_title
;
Structure prediction by ZEFSAII (Michael W. Deem and Ramdas Pophale) SiO2 
 PCOD8322364
Probable space group: P 32 2 1
;
_chemical_formula_sum "Si O2"
_cell_formula_units_Z 39
_cell_length_a 8.902057
_cell_length_b 8.902057
_cell_length_c 25.383728
_cell_angle_alpha 90.000000
_cell_angle_beta 90.000000
_cell_angle_gamma 120.000000
_cell_volume 1742.074720
_symmetry_space_group_name_H-M "P 32 2 1"
_symmetry_group_IT_number 154
_symmetry_cell_setting 'hexagonal'
loop_
_space_group_symop_operation_xyz
x,y,z
-y,x-y,2/3+z
-x+y,-x,1/3+z
x-y,-y,1/3-z
-x,-x+y,2/3-z
y,x,-z
loop_
_atom_site_type_symbol
_atom_site_label
_atom_site_fract_x
_atom_site_fract_y
_atom_site_fract_z
Si Si1 0.913507 0.588993 0.540099
Si Si2 0.571823 0.222338 0.290555
Si Si3 0.524181 0.856080 0.276111
Si Si4 0.095711 0.000000 0.166667
Si Si5 0.958147 0.382523 0.276076
Si Si6 0.908651 0.980357 0.056743
Si Si7 0.587455 0.269786 0.794745
O O1 0.114889 0.656528 0.544555
O O2 0.830712 0.574790 0.597695
O O3 0.795865 0.391138 0.519641
O O4 0.884126 0.715880 0.502485
O O5 0.586541 0.284473 0.350436
O O6 0.759376 0.323250 0.261852
O O7 0.504566 0.019166 0.290827
O O8 0.426964 0.778014 0.220796
O O9 0.721546 0.899091 0.275171
O O10 0.995192 0.978916 0.221996
O O11 0.991303 0.221539 0.273217
O O12 0.000000 0.466673 0.333334
O O13 0.091902 0.528349 0.237190
O O14 0.011307 0.011307 0.000000
#
# Coordination Sequence:
#
# PCOD8322364 Si02
#       7
#     6   6   6   3   6   6   6
#     4  12  27  43  69  95 145 178 234 291 356 424
#     4  11  23  44  69 102 136 187 227 291 350 431
#     4  11  24  41  73 101 140 177 239 283 360 424
#     4  12  24  46  68 100 138 184 240 288 352 434
#     4  10  20  43  70  98 135 179 225 285 359 423
#     4  10  23  42  72 102 137 188 234 287 356 438
#     4  12  25  45  66 103 134 182 230 296 360 415
#
# _framework density 22.387098000000002
#
# number of rings (size 3 to 8) (size 9 to 14) (size 15 to 20)
#    0.000    0.923    3.077    3.692    4.308    2.462 
#    2.769    0.769    0.000    0.000    0.000    0.000 
#    0.000    0.000    0.000    0.000    0.000    0.000 
#
# Total GULP energy -483437.878725 kJ/mol
# GULP energy per Si atom -12395.843044 kJ/mol
# Density = 2.233614 g / cm^3
# Si number density = 22.387098 Si / 1000 Ang^3
#
#
#
# Elastic Constant Matrix: (Units=GPa)
#
#
# Indices 1 2 3 4 5 6 
#
# 1 105.1531 34.4480 21.7772 -4.1973 -0.0001 0.0000
# 2 34.4480 105.1531 21.7772 4.1973 0.0001 0.0000
# 3 21.7772 21.7772 95.7513 0.0000 0.0000 0.0000
# 4 -4.1973 4.1973 0.0000 36.3681 0.0000 0.0001
# 5 -0.0001 0.0001 0.0000 0.0000 36.3681 -4.1973
# 6 0.0000 0.0000 0.0000 0.0001 -4.1973 35.3525
#
#
#
# Elastic Compliance Matrix: (Units=1/GPa)
#
#
# Indices 1 2 3 4 5 6 
#
# 1 0.011025 -0.003315 -0.001754 0.001655 0.000000 0.000000
# 2 -0.003315 0.011025 -0.001754 -0.001655 0.000000 0.000000
# 3 -0.001754 -0.001754 0.011241 0.000000 0.000000 0.000000
# 4 0.001655 -0.001655 0.000000 0.027879 0.000000 0.000000
# 5 0.000000 0.000000 0.000000 0.000000 0.027879 0.003310
# 6 0.000000 0.000000 0.000000 0.000000 0.003310 0.028679
#
#
# Mechanical properties :
#
#
# Convention : Reuss Voigt Hill
#
# Bulk Modulus (GPa) = 50.89653 51.34025 51.11839
# Shear Modulus (GPa) = 36.25256 36.82141 36.53699
#
# Velocity S-wave (km/s) = 4.02848 4.05996 4.04425
# Velocity P-wave (km/s) = 6.66501 6.70526 6.68516
#
# Compressibility (1/GPa) = 0.01964770
#
# Stress axis : x y z
#
# Youngs Moduli (GPa) = 90.70242 90.70242 88.95698
#
# Poissons Ratio (x) = 0.30065 0.15600
# Poissons Ratio (y) = 0.30065 0.15600
# Poissons Ratio (z) = 0.15906 0.15906
#
# Static dielectric constant tensor:
#      x y z
#    x 3.979230 0.000000 0.000000 
#    y 0.000000 3.979230 0.000000 
#    z 0.000000 0.000000 4.119400 
# 
# 
# High freq. dielectric constant tensor:
#      x y z
#    x 1.884050 0.000000 0.000000 
#    y 0.000000 1.884050 0.000000 
#    z 0.000000 0.000000 1.889160 
# 
# From -- ./inp_files/3723.got.cif
#   From: 2010.03.12/outbox.cif.g09.slc.cpg/sg154_2_cif.got.tgz:3723.got - 2010.04.03 13:51:21.
