data_PCOD8322199
_publ_section_title
;
Structure prediction by ZEFSAII (Michael W. Deem and Ramdas Pophale) SiO2 
 PCOD8322199
Probable space group: P 31 2 1
;
_chemical_formula_sum "Si O2"
_cell_formula_units_Z 42
_cell_length_a 11.646105
_cell_length_b 11.646105
_cell_length_c 17.596867
_cell_angle_alpha 90.000000
_cell_angle_beta 90.000000
_cell_angle_gamma 120.000000
_cell_volume 2066.937697
_symmetry_space_group_name_H-M "P 31 2 1"
_symmetry_group_IT_number 152
_symmetry_cell_setting 'hexagonal'
loop_
_space_group_symop_operation_xyz
x,y,z
-y,x-y,1/3+z
-x+y,-x,2/3+z
x-y,-y,2/3-z
-x,-x+y,1/3-z
y,x,-z
loop_
_atom_site_type_symbol
_atom_site_label
_atom_site_fract_x
_atom_site_fract_y
_atom_site_fract_z
Si Si1 0.342406 0.042823 0.462389
Si Si2 0.654002 0.940361 0.957272
Si Si3 0.590324 0.034111 0.251337
Si Si4 0.095829 0.487801 0.230779
Si Si5 0.178056 0.414352 0.381445
Si Si6 0.750439 0.139508 0.538209
Si Si7 0.359725 0.681177 0.454736
O O1 0.325722 0.154164 0.417343
O O2 0.387604 0.080108 0.548798
O O3 0.454780 0.022272 0.422314
O O4 0.199748 0.908841 0.464524
O O5 0.545139 0.965111 0.917791
O O6 0.786791 0.083324 0.953177
O O7 0.609087 0.905653 0.043446
O O8 0.670953 0.192396 0.251591
O O9 0.624312 0.000000 0.333334
O O10 0.651961 0.981340 0.186893
O O11 0.104740 0.408303 0.302945
O O12 0.240892 0.586637 0.198984
O O13 0.000000 0.383343 0.166667
O O14 0.305487 0.560631 0.394364
O O15 0.712690 0.249091 0.515262
#
# Coordination Sequence:
#
# PCOD8322199 Si02
#       7
#     6   6   6   6   6   6   6
#     4  11  22  41  66  96 124 176 227 277 334 399
#     4  12  21  42  66  95 127 171 226 280 334 398
#     4  11  23  39  60  93 136 175 207 272 343 412
#     4  12  23  38  62  96 140 168 210 270 345 405
#     4  12  24  39  66  99 131 166 224 281 335 405
#     4  11  23  40  63  94 132 167 221 277 332 406
#     4  11  22  37  61  97 128 166 214 272 334 395
#
# _framework density 20.319915999999999
#
# number of rings (size 3 to 8) (size 9 to 14) (size 15 to 20)
#    0.000    0.571    5.714    3.429    2.000    2.286 
#    0.000    0.000    0.000   13.714    0.000    0.000 
#    0.000    0.000    0.000    0.000    0.000    0.000 
#
# Total GULP energy -520863.311889 kJ/mol
# GULP energy per Si atom -12401.507426 kJ/mol
# Density = 2.027367 g / cm^3
# Si number density = 20.319916 Si / 1000 Ang^3
#
#
#
# Elastic Constant Matrix: (Units=GPa)
#
#
# Indices 1 2 3 4 5 6 
#
# 1 82.0408 29.6457 35.6211 -2.9995 0.0002 0.0000
# 2 29.6457 82.0408 35.6211 2.9995 -0.0002 0.0000
# 3 35.6211 35.6211 155.2482 0.0000 0.0000 0.0000
# 4 -2.9995 2.9995 0.0000 25.4994 0.0000 -0.0002
# 5 0.0002 -0.0002 0.0000 0.0000 25.4994 -2.9995
# 6 0.0000 0.0000 0.0000 -0.0002 -2.9995 26.1976
#
#
#
# Elastic Compliance Matrix: (Units=1/GPa)
#
#
# Indices 1 2 3 4 5 6 
#
# 1 0.014918 -0.004429 -0.002407 0.002276 0.000000 0.000000
# 2 -0.004429 0.014918 -0.002407 -0.002276 0.000000 0.000000
# 3 -0.002407 -0.002407 0.007546 0.000000 0.000000 0.000000
# 4 0.002276 -0.002276 0.000000 0.039752 0.000000 0.000000
# 5 0.000000 0.000000 0.000000 0.000000 0.039752 0.004551
# 6 0.000000 0.000000 0.000000 0.000000 0.004551 0.038693
#
#
# Mechanical properties :
#
#
# Convention : Reuss Voigt Hill
#
# Bulk Modulus (GPa) = 52.91912 57.90060 55.40986
# Shear Modulus (GPa) = 27.72229 30.00205 28.86217
#
# Velocity S-wave (km/s) = 3.69764 3.84667 3.77289
# Velocity P-wave (km/s) = 6.65805 6.94878 6.80497
#
# Compressibility (1/GPa) = 0.01889676
#
# Stress axis : x y z
#
# Youngs Moduli (GPa) = 67.03525 67.03525 132.52632
#
# Poissons Ratio (x) = 0.29688 0.31894
# Poissons Ratio (y) = 0.29688 0.31894
# Poissons Ratio (z) = 0.16133 0.16133
#
# Static dielectric constant tensor:
#      x y z
#    x 3.699940 0.000000 0.000000 
#    y 0.000000 3.699940 0.000000 
#    z 0.000000 0.000000 3.725370 
# 
# 
# High freq. dielectric constant tensor:
#      x y z
#    x 1.782060 0.000000 0.000000 
#    y 0.000000 1.782060 0.000000 
#    z 0.000000 0.000000 1.807430 
# 
# From -- ./inp_files/2468.got.cif
#   From: 2010.03.12/outbox.cif.g09.slc.cpg/sg152_2_cif.got.tgz:2468.got - 2010.04.03 13:45:27.
