data_PCOD8322998
_publ_section_title
;
Structure prediction by ZEFSAII (Michael W. Deem and Ramdas Pophale) SiO2 
 PCOD8322998
Probable space group: P -3 1 M 
;
_chemical_formula_sum "Si O2"
_cell_formula_units_Z 96
_cell_length_a 14.328287
_cell_length_b 14.328287
_cell_length_c 30.540570
_cell_angle_alpha 90.000000
_cell_angle_beta 90.000000
_cell_angle_gamma 120.000000
_cell_volume 5429.956045
_symmetry_space_group_name_H-M "P -3 1 M "
_symmetry_group_IT_number 162
_symmetry_cell_setting 'hexagonal'
loop_
_space_group_symop_operation_xyz
x,y,z
-y,x-y,z
-x+y,-x,z
-y,-x,-z
-x+y,y,-z
x,x-y,-z
-x,-y,-z
y,-x+y,-z
x-y,x,-z
y,x,z
x-y,-y,z
-x,-x+y,z
loop_
_atom_site_type_symbol
_atom_site_label
_atom_site_fract_x
_atom_site_fract_y
_atom_site_fract_z
Si Si1 0.188946 0.774028 0.719331
Si Si2 0.248984 0.123719 0.453853
Si Si3 0.875847 0.124279 0.949048
Si Si4 0.874287 0.748794 0.798257
Si Si5 0.125718 0.254786 0.358592
Si Si6 0.425959 0.878200 0.748439
Si Si7 0.454220 0.575937 0.153740
Si Si8 0.772005 0.187885 0.123430
O O1 0.145432 0.818089 0.757353
O O2 0.169884 0.813874 0.673281
O O3 0.313765 0.810591 0.723890
O O4 0.124853 0.644681 0.720843
O O5 0.318927 0.159464 0.500000
O O6 0.189507 0.189507 0.446927
O O7 0.309347 0.139976 0.407317
O O8 0.159469 0.000000 0.460326
O O9 0.832851 0.193722 0.923893
O O10 0.000000 0.166149 0.937474
O O11 0.807926 0.000000 0.934529
O O12 0.861240 0.138761 0.000000
O O13 0.821903 0.821903 0.788042
O O14 0.821611 0.677243 0.840673
O O15 0.000000 0.825539 0.806732
O O16 0.192363 0.192363 0.352131
O O17 0.000000 0.169930 0.349310
O O18 0.417143 0.830734 0.797320
O O19 0.450007 0.000000 0.752113
O O20 0.552561 0.552561 0.157035
O O21 0.496811 0.687060 0.128472
O O22 0.356886 0.480486 0.127003
#
# Coordination Sequence:
#
# PCOD8322998 Si02
#       8
#    12  12  12  12  12  12  12  12
#     4  12  23  36  54  74 101 136 180 227 273 321
#     4   8  13  22  39  65  99 140 182 217 252 307
#     4  10  21  39  63  91 122 153 182 214 259 322
#     4  12  23  36  54  80 113 144 174 211 262 327
#     4  10  19  31  48  75 112 149 179 213 265 329
#     4  11  21  36  53  71  97 134 177 219 264 314
#     4  11  21  36  56  78 102 136 178 224 272 309
#     4  12  23  38  60  83 110 143 186 230 268 311
#
# _framework density 17.679701999999999
#
# number of rings (size 3 to 8) (size 9 to 14) (size 15 to 20)
#    0.000    1.250    2.500    5.500    0.000    2.000 
#    0.000    3.125    0.000    2.250    0.000    0.875 
#    0.000    5.000    0.000    0.000    0.000    0.000 
#
# Total GULP energy -1190185.356608 kJ/mol
# GULP energy per Si atom -12397.764131 kJ/mol
# Density = 1.763946 g / cm^3
# Si number density = 17.679702 Si / 1000 Ang^3
#
#
#
# Elastic Constant Matrix: (Units=GPa)
#
#
# Indices 1 2 3 4 5 6 
#
# 1 75.2905 15.9763 31.2032 0.0000 1.7479 0.0000
# 2 15.9763 75.2905 31.2032 0.0000 -1.7479 0.0000
# 3 31.2032 31.2032 105.0857 0.0000 0.0000 0.0000
# 4 0.0000 0.0000 0.0000 17.0471 0.0000 -1.7479
# 5 1.7479 -1.7479 0.0000 0.0000 17.0471 0.0000
# 6 0.0000 0.0000 0.0000 -1.7479 0.0000 29.6571
#
#
#
# Elastic Compliance Matrix: (Units=1/GPa)
#
#
# Indices 1 2 3 4 5 6 
#
# 1 0.015355 -0.001607 -0.004082 0.000000 -0.001739 0.000000
# 2 -0.001607 0.015355 -0.004082 0.000000 0.001739 0.000000
# 3 -0.004082 -0.004082 0.011940 0.000000 0.000000 0.000000
# 4 0.000000 0.000000 0.000000 0.059018 0.000000 0.003478
# 5 -0.001739 0.001739 0.000000 0.000000 0.059018 0.000000
# 6 0.000000 0.000000 0.000000 0.003478 0.000000 0.033924
#
#
# Mechanical properties :
#
#
# Convention : Reuss Voigt Hill
#
# Bulk Modulus (GPa) = 43.27550 45.82576 44.55063
# Shear Modulus (GPa) = 22.53725 24.56920 23.55323
#
# Velocity S-wave (km/s) = 3.57424 3.73189 3.65392
# Velocity P-wave (km/s) = 6.44703 6.67425 6.56163
#
# Compressibility (1/GPa) = 0.02310776
#
# Stress axis : x y z
#
# Youngs Moduli (GPa) = 65.12509 65.12509 83.74964
#
# Poissons Ratio (x) = 0.10464 0.34189
# Poissons Ratio (y) = 0.10464 0.34189
# Poissons Ratio (z) = 0.26586 0.26586
#
# Static dielectric constant tensor:
#      x y z
#    x 3.262480 0.000000 0.000000 
#    y 0.000000 3.262480 0.000000 
#    z 0.000000 0.000000 3.584510 
# 
# 
# High freq. dielectric constant tensor:
#      x y z
#    x 1.678480 0.000000 0.000000 
#    y 0.000000 1.678480 0.000000 
#    z 0.000000 0.000000 1.677020 
# 
# From -- ./inp_files/4120.got.cif
#   From: 2010.03.12/outbox.cif.g09.slc.cpg/sg162_3_cif.got.tgz:4120.got - 2010.04.02 06:27:41.
