data_PCOD8322379
_publ_section_title
;
Structure prediction by ZEFSAII (Michael W. Deem and Ramdas Pophale) SiO2 
 PCOD8322379
Probable space group: P 32 2 1
;
_chemical_formula_sum "Si O2"
_cell_formula_units_Z 36
_cell_length_a 8.193686
_cell_length_b 8.193686
_cell_length_c 26.824549
_cell_angle_alpha 90.000000
_cell_angle_beta 90.000000
_cell_angle_gamma 120.000000
_cell_volume 1559.630409
_symmetry_space_group_name_H-M "P 32 2 1"
_symmetry_group_IT_number 154
_symmetry_cell_setting 'hexagonal'
loop_
_space_group_symop_operation_xyz
x,y,z
-y,x-y,2/3+z
-x+y,-x,1/3+z
x-y,-y,1/3-z
-x,-x+y,2/3-z
y,x,-z
loop_
_atom_site_type_symbol
_atom_site_label
_atom_site_fract_x
_atom_site_fract_y
_atom_site_fract_z
Si Si1 0.497534 0.155451 0.707678
Si Si2 0.788105 0.931355 0.386658
Si Si3 0.294768 0.878159 0.957635
Si Si4 0.163769 0.607677 0.104987
Si Si5 0.878263 0.876878 0.784831
Si Si6 0.408527 0.467030 0.131495
O O1 0.305693 0.159482 0.712565
O O2 0.664281 0.371408 0.697010
O O3 0.472288 0.000000 0.666667
O O4 0.557056 0.096869 0.758465
O O5 0.723131 0.812037 0.336261
O O6 0.627443 0.818797 0.428552
O O7 0.971471 0.938815 0.407744
O O8 0.489808 0.073555 0.946417
O O9 0.171403 0.848682 0.907324
O O10 0.372856 0.640160 0.116677
O O11 0.012564 0.501142 0.149332
O O12 0.699610 0.892517 0.801774
O O13 0.000000 0.900048 0.833334
#
# Coordination Sequence:
#
# PCOD8322379 Si02
#       6
#     6   6   6   6   6   6
#     4  11  24  42  67  99 131 174 225 280 338 404
#     4  11  22  43  67  96 134 170 221 279 338 404
#     4  10  23  39  65  95 129 172 217 270 339 400
#     4  10  21  40  64  94 130 175 219 272 336 399
#     4  11  23  42  66  96 132 178 215 272 341 406
#     4  11  23  41  67  94 133 176 225 274 338 412
#
# _framework density 23.082388999999999
#
# number of rings (size 3 to 8) (size 9 to 14) (size 15 to 20)
#    0.000    1.333    1.667    4.500    2.333    5.333 
#    0.000    2.500    0.000    0.000    0.000    0.000 
#    0.000    0.000    0.000    0.000    0.000    0.000 
#
# Total GULP energy -446024.671080 kJ/mol
# GULP energy per Si atom -12389.574197 kJ/mol
# Density = 2.302985 g / cm^3
# Si number density = 23.082389 Si / 1000 Ang^3
#
#
#
# Elastic Constant Matrix: (Units=GPa)
#
#
# Indices 1 2 3 4 5 6 
#
# 1 80.2860 27.9212 33.5830 -9.7414 0.0001 0.0000
# 2 27.9212 80.2860 33.5830 9.7414 -0.0001 0.0000
# 3 33.5830 33.5830 113.6526 0.0000 0.0000 0.0000
# 4 -9.7414 9.7414 0.0000 40.0395 0.0000 -0.0001
# 5 0.0001 -0.0001 0.0000 0.0000 40.0395 -9.7414
# 6 0.0000 0.0000 0.0000 -0.0001 -9.7414 26.1824
#
#
#
# Elastic Compliance Matrix: (Units=1/GPa)
#
#
# Indices 1 2 3 4 5 6 
#
# 1 0.016157 -0.004840 -0.003344 0.005109 0.000000 0.000000
# 2 -0.004840 0.016157 -0.003344 -0.005109 0.000000 0.000000
# 3 -0.003344 -0.003344 0.010775 0.000000 0.000000 0.000000
# 4 0.005109 -0.005109 0.000000 0.027461 0.000000 0.000000
# 5 0.000000 0.000000 0.000000 0.000000 0.027461 0.010217
# 6 0.000000 0.000000 0.000000 0.000000 0.010217 0.041995
#
#
# Mechanical properties :
#
#
# Convention : Reuss Voigt Hill
#
# Bulk Modulus (GPa) = 49.91733 51.59986 50.75860
# Shear Modulus (GPa) = 29.45654 33.19475 31.32565
#
# Velocity S-wave (km/s) = 3.57620 3.79634 3.68791
# Velocity P-wave (km/s) = 6.22293 6.45131 6.33815
#
# Compressibility (1/GPa) = 0.02003312
#
# Stress axis : x y z
#
# Youngs Moduli (GPa) = 61.89116 61.89116 92.80707
#
# Poissons Ratio (x) = 0.29956 0.31036
# Poissons Ratio (y) = 0.29956 0.31036
# Poissons Ratio (z) = 0.20697 0.20697
#
# Static dielectric constant tensor:
#      x y z
#    x 4.377690 0.000000 0.000000 
#    y 0.000000 4.377690 0.000000 
#    z 0.000000 0.000000 4.190300 
# 
# 
# High freq. dielectric constant tensor:
#      x y z
#    x 1.906800 0.000000 0.000000 
#    y 0.000000 1.906800 0.000000 
#    z 0.000000 0.000000 1.921790 
# 
# From -- ./inp_files/3421.got.cif
#   From: 2010.03.12/outbox.cif.g09.slc.cpg/sg154_2_cif.got.tgz:3421.got - 2010.04.03 13:51:21.
