data_PCOD8322198
_publ_section_title
;
Structure prediction by ZEFSAII (Michael W. Deem and Ramdas Pophale) SiO2 
 PCOD8322198
Probable space group: P 31 2 1
;
_chemical_formula_sum "Si O2"
_cell_formula_units_Z 24
_cell_length_a 14.333776
_cell_length_b 14.333776
_cell_length_c 6.763620
_cell_angle_alpha 90.000000
_cell_angle_beta 90.000000
_cell_angle_gamma 120.000000
_cell_volume 1203.458332
_symmetry_space_group_name_H-M "P 31 2 1"
_symmetry_group_IT_number 152
_symmetry_cell_setting 'hexagonal'
loop_
_space_group_symop_operation_xyz
x,y,z
-y,x-y,1/3+z
-x+y,-x,2/3+z
x-y,-y,2/3-z
-x,-x+y,1/3-z
y,x,-z
loop_
_atom_site_type_symbol
_atom_site_label
_atom_site_fract_x
_atom_site_fract_y
_atom_site_fract_z
Si Si1 0.736740 0.621350 0.922100
Si Si2 0.598770 0.482975 0.592214
Si Si3 0.237787 0.121747 0.916056
Si Si4 0.436919 0.238418 0.653911
O O1 0.638352 0.521435 0.813842
O O2 0.830815 0.684783 0.767048
O O3 0.706817 0.706817 0.000000
O O4 0.771286 0.573619 0.099327
O O5 0.561694 0.561694 0.500000
O O6 0.499703 0.365333 0.623897
O O7 0.694789 0.492204 0.453010
O O8 0.317617 0.198785 0.743346
O O9 0.177828 0.000000 0.833334
O O10 0.149798 0.149798 0.000000
#
# Coordination Sequence:
#
# PCOD8322198 Si02
#       4
#     6   6   6   6
#     4  11  21  45  69  83 132 177 207 265 321 379
#     4  11  25  42  65  98 129 168 218 262 323 390
#     4  11  25  44  65  98 131 169 221 265 321 390
#     4  11  25  43  66  98 130 170 217 263 325 386
#
# _framework density 19.942526999999998
#
# number of rings (size 3 to 8) (size 9 to 14) (size 15 to 20)
#    0.000    1.000    5.000    1.500    7.000    4.000 
#    0.000    0.000    0.000    0.000    0.000    0.000 
#    0.000    0.000    0.000    0.000    0.000    0.000 
#
# Total GULP energy -297542.956854 kJ/mol
# GULP energy per Si atom -12397.623202 kJ/mol
# Density = 1.989714 g / cm^3
# Si number density = 19.942527 Si / 1000 Ang^3
#
#
#
# Elastic Constant Matrix: (Units=GPa)
#
#
# Indices 1 2 3 4 5 6 
#
# 1 92.0572 15.7034 31.2659 8.4131 0.0000 0.0000
# 2 15.7034 92.0572 31.2659 -8.4131 0.0000 0.0000
# 3 31.2659 31.2659 124.9194 0.0000 0.0000 0.0000
# 4 8.4131 -8.4131 0.0000 27.2721 0.0000 0.0000
# 5 0.0000 0.0000 0.0000 0.0000 27.2721 8.4131
# 6 0.0000 0.0000 0.0000 0.0000 8.4131 38.1769
#
#
#
# Elastic Compliance Matrix: (Units=1/GPa)
#
#
# Indices 1 2 3 4 5 6 
#
# 1 0.012454 -0.001598 -0.002717 -0.004335 0.000000 0.000000
# 2 -0.001598 0.012454 -0.002717 0.004335 0.000000 0.000000
# 3 -0.002717 -0.002717 0.009365 0.000000 0.000000 0.000000
# 4 -0.004335 0.004335 0.000000 0.039342 0.000000 0.000000
# 5 0.000000 0.000000 0.000000 0.000000 0.039342 -0.008670
# 6 0.000000 0.000000 0.000000 0.000000 -0.008670 0.028104
#
#
# Mechanical properties :
#
#
# Convention : Reuss Voigt Hill
#
# Bulk Modulus (GPa) = 49.48175 51.72270 50.60223
# Shear Modulus (GPa) = 30.89011 33.93078 32.41044
#
# Velocity S-wave (km/s) = 3.93995 4.12931 4.03574
# Velocity P-wave (km/s) = 6.75008 6.98048 6.86625
#
# Compressibility (1/GPa) = 0.02020947
#
# Stress axis : x y z
#
# Youngs Moduli (GPa) = 80.29273 80.29273 106.77633
#
# Poissons Ratio (x) = 0.12829 0.29014
# Poissons Ratio (y) = 0.12829 0.29014
# Poissons Ratio (z) = 0.21818 0.21818
#
# Static dielectric constant tensor:
#      x y z
#    x 3.493430 0.000000 0.000000 
#    y 0.000000 3.493430 0.000000 
#    z 0.000000 0.000000 2.951750 
# 
# 
# High freq. dielectric constant tensor:
#      x y z
#    x 1.778440 0.000000 0.000000 
#    y 0.000000 1.778440 0.000000 
#    z 0.000000 0.000000 1.801550 
# 
# From -- ./inp_files/133.got.cif
#   From: 2010.03.12/outbox.cif.g09.slc.cpg/sg152_1_cif.got.tgz:133.got - 2010.04.03 13:45:27.
