data_PCOD8322612
_publ_section_title
;
Structure prediction by ZEFSAII (Michael W. Deem and Ramdas Pophale) SiO2 
 PCOD8322612
Probable space group: R 3 2
;
_chemical_formula_sum "Si O2"
_cell_formula_units_Z 84
_cell_length_a 16.734750
_cell_length_b 16.734750
_cell_length_c 14.200927
_cell_angle_alpha 90.000000
_cell_angle_beta 90.000000
_cell_angle_gamma 120.000000
_cell_volume 3444.179554
_symmetry_space_group_name_H-M "R 3 2"
_symmetry_group_IT_number 155
_symmetry_cell_setting 'hexagonal'
loop_
_space_group_symop_operation_xyz
x,y,z
-y,x-y,z
-x+y,-x,z
x-y,-y,-z
-x,-x+y,-z
y,x,-z
2/3+x,1/3+y,1/3+z
2/3-y,1/3+x-y,1/3+z
2/3-x+y,1/3-x,1/3+z
2/3+x-y,1/3-y,1/3-z
2/3-x,1/3-x+y,1/3-z
2/3+y,1/3+x,1/3-z
1/3+x,2/3+y,2/3+z
1/3-y,2/3+x-y,2/3+z
1/3-x+y,2/3-x,2/3+z
1/3+x-y,2/3-y,2/3-z
1/3-x,2/3-x+y,2/3-z
1/3+y,2/3+x,2/3-z
loop_
_atom_site_type_symbol
_atom_site_label
_atom_site_fract_x
_atom_site_fract_y
_atom_site_fract_z
Si Si1 0.330556 0.422168 0.381707
Si Si2 0.183091 0.716227 0.567100
Si Si3 0.388693 0.171996 0.922439
Si Si4 0.000000 0.000000 0.391355
Si Si5 0.467596 0.594963 0.052643
Si Si6 0.333333 0.666667 0.777187
O O1 0.329718 0.333334 0.333334
O O2 0.334314 0.428767 0.495900
O O3 0.415758 0.509868 0.335312
O O4 0.230202 0.411474 0.357282
O O5 0.153705 0.666667 0.666667
O O6 0.213262 0.824042 0.580756
O O7 0.267716 0.707064 0.522430
O O8 0.423960 0.100291 0.951937
O O9 0.437396 0.220989 0.823766
O O10 0.021624 0.099207 0.356614
O O11 0.000000 0.000000 0.500000
O O12 0.333334 0.666668 0.666667
#
# Coordination Sequence:
#
# PCOD8322612 Si02
#       6
#    18  18  18   6  18   6
#     4  12  24  39  68 104 146 183 229 288 363 438
#     4  11  26  47  73  98 136 190 250 299 350 426
#     4  11  23  39  67 100 145 177 225 291 369 430
#     4  12  15  31  62  97 145 176 217 259 365 436
#     4  11  22  37  63 107 141 180 216 295 361 440
#     4   9  24  52  77  88 127 194 262 310 329 415
#
# _framework density 24.388973
#
# number of rings (size 3 to 8) (size 9 to 14) (size 15 to 20)
#    0.000    0.857    6.429    1.286    3.000    2.571 
#    0.000    3.214    0.000    0.000    0.000    0.000 
#    0.000    0.000    0.000    0.000    0.000    0.000 
#
# Total GULP energy -346939.216887 kJ/mol
# GULP energy per Si atom -12390.686317 kJ/mol
# Density = 2.433346 g / cm^3
# Si number density = 24.388973 Si / 1000 Ang^3
#
#
#
# Elastic Constant Matrix: (Units=GPa)
#
#
# Indices 1 2 3 4 5 6 
#
# 1 107.0021 33.5175 10.4371 3.7512 0.0000 0.0000
# 2 33.5175 107.0022 10.4376 -3.7509 -0.0001 0.0000
# 3 10.4371 10.4376 117.2522 0.0001 -0.0001 0.0001
# 4 3.7512 -3.7509 0.0001 22.5792 0.0000 -0.0001
# 5 0.0000 -0.0001 -0.0001 0.0000 22.5791 3.7511
# 6 0.0000 0.0000 0.0001 -0.0001 3.7511 36.7421
#
#
#
# Elastic Compliance Matrix: (Units=1/GPa)
#
#
# Indices 1 2 3 4 5 6 
#
# 1 0.010527 -0.003316 -0.000642 -0.002300 0.000000 0.000000
# 2 -0.003316 0.010527 -0.000642 0.002300 0.000000 0.000000
# 3 -0.000642 -0.000642 0.008643 0.000000 0.000000 0.000000
# 4 -0.002300 0.002300 0.000000 0.045053 0.000000 0.000000
# 5 0.000000 0.000000 0.000000 0.000000 0.045053 -0.004600
# 6 0.000000 0.000000 0.000000 0.000000 -0.004600 0.027686
#
#
# Mechanical properties :
#
#
# Convention : Reuss Voigt Hill
#
# Bulk Modulus (GPa) = 48.78369 48.89345 48.83857
# Shear Modulus (GPa) = 30.57696 34.83767 32.70731
#
# Velocity S-wave (km/s) = 3.54463 3.78354 3.66603
# Velocity P-wave (km/s) = 6.06616 6.25922 6.16345
#
# Compressibility (1/GPa) = 0.02049866
#
# Stress axis : x y z
#
# Youngs Moduli (GPa) = 94.98980 94.98991 115.70168
#
# Poissons Ratio (x) = 0.31495 0.07427
# Poissons Ratio (y) = 0.31495 0.07428
# Poissons Ratio (z) = 0.06098 0.06098
#
# Static dielectric constant tensor:
#      x y z
#    x 4.594350 0.000010 0.000000 
#    y 0.000010 4.594340 0.000000 
#    z 0.000000 0.000000 4.284400 
# 
# 
# High freq. dielectric constant tensor:
#      x y z
#    x 1.961350 0.000000 0.000000 
#    y 0.000000 1.961350 0.000000 
#    z 0.000000 0.000000 1.964710 
# 
# From -- ./inp_files/5003.got.cif
#   From: 2010.03.12/outbox.cif.g09.slc.cpg/sg155_3_cif.got.tgz:5003.got - 2010.04.03 13:54:13.
