data_PCOD8322809
_publ_section_title
;
Structure prediction by ZEFSAII (Michael W. Deem and Ramdas Pophale) SiO2 
 PCOD8322809
Probable space group: P 3 1 C
;
_chemical_formula_sum "Si O2"
_cell_formula_units_Z 42
_cell_length_a 8.455173
_cell_length_b 8.455173
_cell_length_c 32.361939
_cell_angle_alpha 90.000000
_cell_angle_beta 90.000000
_cell_angle_gamma 120.000000
_cell_volume 2003.596031
_symmetry_space_group_name_H-M "P 3 1 C"
_symmetry_group_IT_number 159
_symmetry_cell_setting 'hexagonal'
loop_
_space_group_symop_operation_xyz
x,y,z
-y,x-y,z
-x+y,-x,z
y,x,1/2+z
x-y,-y,1/2+z
-x,-x+y,1/2+z
loop_
_atom_site_type_symbol
_atom_site_label
_atom_site_fract_x
_atom_site_fract_y
_atom_site_fract_z
Si Si1 0.676633 0.541974 0.608920
Si Si2 0.326941 0.333438 0.485058
Si Si3 0.001063 0.331960 0.274089
Si Si4 0.989230 0.198893 0.685714
Si Si5 0.660588 0.667681 0.019014
Si Si6 0.201066 0.207629 0.395806
Si Si7 0.332545 0.333414 0.808163
O O1 0.491835 0.342408 0.610334
O O2 0.690147 0.671656 0.646412
O O3 0.669837 0.644890 0.568197
O O4 0.467980 0.538104 0.499215
O O5 0.132983 0.264027 0.507244
O O6 0.305481 0.323116 0.435829
O O7 0.404402 0.204314 0.499636
O O8 0.010877 0.327688 0.224596
O O9 0.129317 0.258661 0.291923
O O10 0.070351 0.535142 0.290875
O O11 0.797195 0.202722 0.290583
O O12 0.174325 0.184120 0.685903
O O13 0.325331 0.327805 0.357820
O O14 0.994268 0.176545 0.395000
#
# Coordination Sequence:
#
# PCOD8322809 Si02
#       7
#     6   6   6   6   6   6   6
#     4  10  23  41  65 101 138 173 226 289 341 418
#     4  12  24  42  72  97 141 189 234 289 351 413
#     4  12  24  45  65 105 135 188 224 285 352 418
#     4  10  23  41  68  99 132 183 227 283 342 409
#     4  12  24  45  65 106 140 188 231 287 355 418
#     4  10  20  42  69 100 132 183 237 293 346 404
#     4  12  24  42  72  94 144 180 229 290 347 412
#
# _framework density 20.962306999999999
#
# number of rings (size 3 to 8) (size 9 to 14) (size 15 to 20)
#    0.857    0.000    5.714    1.714    4.000    2.286 
#    0.000    0.000    0.000    0.571    0.000    0.000 
#    0.000    0.000    0.000    0.000    0.000    0.000 
#
# Total GULP energy -520839.878760 kJ/mol
# GULP energy per Si atom -12400.949494 kJ/mol
# Density = 2.091460 g / cm^3
# Si number density = 20.962307 Si / 1000 Ang^3
#
#
#
# Elastic Constant Matrix: (Units=GPa)
#
#
# Indices 1 2 3 4 5 6 
#
# 1 73.7626 19.7034 50.8740 0.0000 3.7027 0.0000
# 2 19.7034 73.7626 50.8740 0.0000 -3.7027 0.0000
# 3 50.8740 50.8740 226.3488 0.0000 0.0000 0.0000
# 4 0.0000 0.0000 0.0000 32.2924 0.0000 -3.7027
# 5 3.7027 -3.7027 0.0000 0.0000 32.2924 0.0000
# 6 0.0000 0.0000 0.0000 -3.7027 0.0000 27.0296
#
#
#
# Elastic Compliance Matrix: (Units=1/GPa)
#
#
# Indices 1 2 3 4 5 6 
#
# 1 0.016479 -0.002314 -0.003184 0.000000 -0.002155 0.000000
# 2 -0.002314 0.016479 -0.003184 0.000000 0.002155 0.000000
# 3 -0.003184 -0.003184 0.005849 0.000000 0.000000 0.000000
# 4 0.000000 0.000000 0.000000 0.031461 0.000000 0.004310
# 5 -0.002155 0.002155 0.000000 0.000000 0.031461 0.000000
# 6 0.000000 0.000000 0.000000 0.004310 0.000000 0.037587
#
#
# Mechanical properties :
#
#
# Convention : Reuss Voigt Hill
#
# Bulk Modulus (GPa) = 46.63288 68.53073 57.58181
# Shear Modulus (GPa) = 30.51979 35.15104 32.83541
#
# Velocity S-wave (km/s) = 3.81981 4.09940 3.96207
# Velocity P-wave (km/s) = 6.46135 7.42766 6.96129
#
# Compressibility (1/GPa) = 0.02144410
#
# Stress axis : x y z
#
# Youngs Moduli (GPa) = 60.68271 60.68271 170.96684
#
# Poissons Ratio (x) = 0.14044 0.54431
# Poissons Ratio (y) = 0.14044 0.54431
# Poissons Ratio (z) = 0.19319 0.19319
#
# Static dielectric constant tensor:
#      x y z
#    x 3.480650 0.000000 0.000000 
#    y 0.000000 3.480650 0.000000 
#    z 0.000000 0.000000 3.743380 
# 
# 
# High freq. dielectric constant tensor:
#      x y z
#    x 1.807400 0.000000 0.000000 
#    y 0.000000 1.807400 0.000000 
#    z 0.000000 0.000000 1.833200 
# 
# From -- ./inp_files/1313.got.cif
#   From: 2010.03.12/outbox.cif.g09.slc.cpg/sg159_cif.got.tgz:1313.got - 2010.04.03 14:00:19.
