data_PCOD8322352
_publ_section_title
;
Structure prediction by ZEFSAII (Michael W. Deem and Ramdas Pophale) SiO2 
 PCOD8322352
Probable space group: P 32 2 1
;
_chemical_formula_sum "Si O2"
_cell_formula_units_Z 45
_cell_length_a 14.149556
_cell_length_b 14.149556
_cell_length_c 12.510349
_cell_angle_alpha 90.000000
_cell_angle_beta 90.000000
_cell_angle_gamma 120.000000
_cell_volume 2169.130503
_symmetry_space_group_name_H-M "P 32 2 1"
_symmetry_group_IT_number 154
_symmetry_cell_setting 'hexagonal'
loop_
_space_group_symop_operation_xyz
x,y,z
-y,x-y,2/3+z
-x+y,-x,1/3+z
x-y,-y,1/3-z
-x,-x+y,2/3-z
y,x,-z
loop_
_atom_site_type_symbol
_atom_site_label
_atom_site_fract_x
_atom_site_fract_y
_atom_site_fract_z
Si Si1 0.874162 0.054191 0.975273
Si Si2 0.820648 0.400365 0.999752
Si Si3 0.301076 0.367793 0.260606
Si Si4 0.021978 0.021978 0.500000
Si Si5 0.195095 0.405578 0.063082
Si Si6 0.304667 0.969204 0.047260
Si Si7 0.081869 0.621681 0.248727
Si Si8 0.657598 0.371379 0.177608
O O1 0.901378 0.174546 0.942901
O O2 0.744135 0.983938 0.993800
O O3 0.905857 0.998136 0.880471
O O4 0.940087 0.057781 0.080398
O O5 0.882627 0.532347 0.987945
O O6 0.753168 0.372249 0.108954
O O7 0.902701 0.354246 0.010284
O O8 0.746792 0.340835 0.897571
O O9 0.212878 0.370363 0.180535
O O10 0.404499 0.379561 0.195205
O O11 0.241930 0.536004 0.064214
O O12 0.262117 0.382428 0.972858
O O13 0.070185 0.338274 0.030991
O O14 0.353520 0.000000 0.166667
O O15 0.183184 0.603624 0.228906
O O16 0.000000 0.529124 0.333334
#
# Coordination Sequence:
#
# PCOD8322352 Si02
#       8
#     6   6   6   3   6   6   6   6
#     4  11  22  43  65  93 128 167 215 272 325 387
#     4  11  25  40  64  94 132 168 215 255 335 390
#     4  10  22  40  62  92 127 169 213 269 319 395
#     4  10  24  40  68  94 122 168 220 270 332 382
#     4  10  21  38  63  91 121 166 218 262 319 380
#     4  12  24  39  63  96 124 169 210 268 321 392
#     4  10  20  38  66  93 123 169 220 265 320 384
#     4  11  21  42  64  90 130 170 209 270 313 395
#
# _framework density 20.745640999999999
#
# number of rings (size 3 to 8) (size 9 to 14) (size 15 to 20)
#    0.000    1.333    2.000    4.000    0.000    1.067 
#    1.200    0.000    5.867    0.000    0.000    0.000 
#    0.000    0.000    0.000    0.000    0.000    0.000 
#
# Total GULP energy -558105.970415 kJ/mol
# GULP energy per Si atom -12402.354898 kJ/mol
# Density = 2.069842 g / cm^3
# Si number density = 20.745641 Si / 1000 Ang^3
#
#
#
# Elastic Constant Matrix: (Units=GPa)
#
#
# Indices 1 2 3 4 5 6 
#
# 1 125.7808 47.2314 37.5641 3.8107 0.0000 0.0000
# 2 47.2314 125.7808 37.5641 -3.8107 0.0000 0.0000
# 3 37.5641 37.5641 67.1709 0.0000 0.0000 0.0000
# 4 3.8107 -3.8107 0.0000 22.7474 0.0000 0.0000
# 5 0.0000 0.0000 0.0000 0.0000 22.7474 3.8107
# 6 0.0000 0.0000 0.0000 0.0000 3.8107 39.2747
#
#
#
# Elastic Compliance Matrix: (Units=1/GPa)
#
#
# Indices 1 2 3 4 5 6 
#
# 1 0.010287 -0.002654 -0.004269 -0.002168 0.000000 0.000000
# 2 -0.002654 0.010287 -0.004269 0.002168 0.000000 0.000000
# 3 -0.004269 -0.004269 0.019662 0.000000 0.000000 0.000000
# 4 -0.002168 0.002168 0.000000 0.044687 0.000000 0.000000
# 5 0.000000 0.000000 0.000000 0.000000 0.044687 -0.004336
# 6 0.000000 0.000000 0.000000 0.000000 -0.004336 0.025882
#
#
# Mechanical properties :
#
#
# Convention : Reuss Voigt Hill
#
# Bulk Modulus (GPa) = 56.01140 62.60572 59.30856
# Shear Modulus (GPa) = 27.19921 30.04542 28.62231
#
# Velocity S-wave (km/s) = 3.62481 3.80975 3.71843
# Velocity P-wave (km/s) = 6.67658 7.04241 6.86194
#
# Compressibility (1/GPa) = 0.01785351
#
# Stress axis : x y z
#
# Youngs Moduli (GPa) = 97.20584 97.20584 50.85919
#
# Poissons Ratio (x) = 0.25796 0.21712
# Poissons Ratio (y) = 0.25796 0.21712
# Poissons Ratio (z) = 0.41497 0.41497
#
# Static dielectric constant tensor:
#      x y z
#    x 3.811370 0.000000 0.000000 
#    y 0.000000 3.811370 0.000000 
#    z 0.000000 0.000000 3.578160 
# 
# 
# High freq. dielectric constant tensor:
#      x y z
#    x 1.817360 0.000000 0.000000 
#    y 0.000000 1.817360 0.000000 
#    z 0.000000 0.000000 1.800060 
# 
# From -- ./inp_files/1805.got.cif
#   From: 2010.03.12/outbox.cif.g09.slc.cpg/sg154_1_cif.got.tgz:1805.got - 2010.04.03 13:51:21.
