data_PCOD8322897
_publ_section_title
;
Structure prediction by ZEFSAII (Michael W. Deem and Ramdas Pophale) SiO2 
 PCOD8322897
Probable space group: R 3 C
;
_chemical_formula_sum "Si O2"
_cell_formula_units_Z 120
_cell_length_a 13.858926
_cell_length_b 13.858926
_cell_length_c 33.977236
_cell_angle_alpha 90.000000
_cell_angle_beta 90.000000
_cell_angle_gamma 120.000000
_cell_volume 5651.683464
_symmetry_space_group_name_H-M "R 3 C"
_symmetry_group_IT_number 161
_symmetry_cell_setting 'hexagonal'
loop_
_space_group_symop_operation_xyz
x,y,z
-y,x-y,z
-x+y,-x,z
-x+y,y,1/2+z
x,x-y,1/2+z
-y,-x,1/2+z
2/3+x,1/3+y,1/3+z
2/3-y,1/3+x-y,1/3+z
2/3-x+y,1/3-x,1/3+z
2/3-x+y,1/3+y,5/6+z
2/3+x,1/3+x-y,5/6+z
2/3-y,1/3-x,5/6+z
1/3+x,2/3+y,2/3+z
1/3-y,2/3+x-y,2/3+z
1/3-x+y,2/3-x,2/3+z
1/3-x+y,2/3+y,1/6+z
1/3+x,2/3+x-y,1/6+z
1/3-y,2/3-x,1/6+z
loop_
_atom_site_type_symbol
_atom_site_label
_atom_site_fract_x
_atom_site_fract_y
_atom_site_fract_z
Si Si1 0.000000 0.000000 0.198487
Si Si2 0.877664 0.348061 0.995977
Si Si3 0.475416 0.556187 0.047361
Si Si4 0.201411 0.085410 0.845046
Si Si5 0.582509 0.392125 0.416594
Si Si6 0.093066 0.528918 0.137208
Si Si7 0.000000 0.000000 0.791108
Si Si8 0.898792 0.766507 0.499094
O O1 0.879924 0.971390 0.182514
O O2 0.000000 0.000000 0.244817
O O3 0.891698 0.241345 0.989135
O O4 0.973946 0.435364 0.023866
O O5 0.886236 0.411761 0.954880
O O6 0.493618 0.679562 0.041602
O O7 0.351703 0.467252 0.033310
O O8 0.482193 0.532559 0.092882
O O9 0.325872 0.170468 0.832744
O O10 0.124758 0.044336 0.806291
O O11 0.540644 0.258912 0.416929
O O12 0.546044 0.434809 0.378692
O O13 0.135293 0.440866 0.142658
O O14 0.188182 0.652542 0.149527
#
# Coordination Sequence:
#
# PCOD8322897 Si02
#       8
#     6  18  18  18  18  18   6  18
#     4  12  24  45  63  99 142 188 238 279 363 417
#     4  12  26  44  69 107 140 188 239 290 356 432
#     4  11  25  45  70 100 142 181 234 291 354 424
#     4  10  23  45  65  99 138 181 227 282 361 409
#     4  10  21  48  71  93 147 186 236 294 350 425
#     4  12  24  46  68 104 138 180 237 292 352 419
#     4   9  21  42  69  87 136 188 217 288 342 429
#     4  12  26  43  75 105 137 188 240 292 358 421
#
# _framework density 21.232610999999999
#
# number of rings (size 3 to 8) (size 9 to 14) (size 15 to 20)
#    0.300    0.600    4.500    2.400    2.100    7.200 
#    0.000    0.000    0.000    0.000    0.000    0.000 
#    0.000    0.000    0.000    0.000    0.000    0.000 
#
# Total GULP energy -496135.001068 kJ/mol
# GULP energy per Si atom -12403.375027 kJ/mol
# Density = 2.118428 g / cm^3
# Si number density = 21.232611 Si / 1000 Ang^3
#
#
#
# Elastic Constant Matrix: (Units=GPa)
#
#
# Indices 1 2 3 4 5 6 
#
# 1 82.7644 17.4652 27.6822 -3.4631 0.0000 0.0000
# 2 17.4652 82.7644 27.6822 3.4631 0.0000 0.0000
# 3 27.6822 27.6822 129.4096 0.0000 0.0000 0.0000
# 4 -3.4631 3.4631 0.0000 26.3900 0.0000 0.0000
# 5 0.0000 0.0000 0.0000 0.0000 26.3900 -3.4631
# 6 0.0000 0.0000 0.0000 0.0000 -3.4631 32.6496
#
#
#
# Elastic Compliance Matrix: (Units=1/GPa)
#
#
# Indices 1 2 3 4 5 6 
#
# 1 0.013422 -0.002108 -0.002420 0.002038 0.000000 0.000000
# 2 -0.002108 0.013422 -0.002420 -0.002038 0.000000 0.000000
# 3 -0.002420 -0.002420 0.008763 0.000000 0.000000 0.000000
# 4 0.002038 -0.002038 0.000000 0.038428 0.000000 0.000000
# 5 0.000000 0.000000 0.000000 0.000000 0.038428 0.004076
# 6 0.000000 0.000000 0.000000 0.000000 0.004076 0.031061
#
#
# Mechanical properties :
#
#
# Convention : Reuss Voigt Hill
#
# Bulk Modulus (GPa) = 46.06180 48.95529 47.50854
# Shear Modulus (GPa) = 30.36606 31.89317 31.12961
#
# Velocity S-wave (km/s) = 3.78585 3.87988 3.83315
# Velocity P-wave (km/s) = 6.39149 6.57099 6.48187
#
# Compressibility (1/GPa) = 0.02170996
#
# Stress axis : x y z
#
# Youngs Moduli (GPa) = 74.50394 74.50394 114.11861
#
# Poissons Ratio (x) = 0.15707 0.27619
# Poissons Ratio (y) = 0.15707 0.27619
# Poissons Ratio (z) = 0.18031 0.18031
#
# Static dielectric constant tensor:
#      x y z
#    x 3.789950 0.000000 0.000000 
#    y 0.000000 3.789950 0.000000 
#    z 0.000000 0.000000 3.806820 
# 
# 
# High freq. dielectric constant tensor:
#      x y z
#    x 1.830890 0.000000 0.000000 
#    y 0.000000 1.830890 0.000000 
#    z 0.000000 0.000000 1.839360 
# 
# From -- ./inp_files/2459.got.cif
#   From: 2010.03.12/outbox.cif.g09.slc.cpg/sg161_cif.got.tgz:2459.got - 2010.04.02 06:27:14.
