data_PCOD8322568
_publ_section_title
;
Structure prediction by ZEFSAII (Michael W. Deem and Ramdas Pophale) SiO2 
 PCOD8322568
Probable space group: R 3 2
;
_chemical_formula_sum "Si O2"
_cell_formula_units_Z 117
_cell_length_a 14.393121
_cell_length_b 14.393121
_cell_length_c 30.251355
_cell_angle_alpha 90.000000
_cell_angle_beta 90.000000
_cell_angle_gamma 120.000000
_cell_volume 5427.319849
_symmetry_space_group_name_H-M "R 3 2"
_symmetry_group_IT_number 155
_symmetry_cell_setting 'hexagonal'
loop_
_space_group_symop_operation_xyz
x,y,z
-y,x-y,z
-x+y,-x,z
x-y,-y,-z
-x,-x+y,-z
y,x,-z
2/3+x,1/3+y,1/3+z
2/3-y,1/3+x-y,1/3+z
2/3-x+y,1/3-x,1/3+z
2/3+x-y,1/3-y,1/3-z
2/3-x,1/3-x+y,1/3-z
2/3+y,1/3+x,1/3-z
1/3+x,2/3+y,2/3+z
1/3-y,2/3+x-y,2/3+z
1/3-x+y,2/3-x,2/3+z
1/3+x-y,2/3-y,2/3-z
1/3-x,2/3-x+y,2/3-z
1/3+y,2/3+x,2/3-z
loop_
_atom_site_type_symbol
_atom_site_label
_atom_site_fract_x
_atom_site_fract_y
_atom_site_fract_z
Si Si1 0.000000 0.233809 0.500000
Si Si2 0.462902 0.339196 0.705237
Si Si3 0.658355 0.532062 0.927906
Si Si4 0.381024 0.495765 0.484857
Si Si5 0.561979 0.946765 0.389895
Si Si6 0.745253 0.773281 0.949952
Si Si7 0.623987 0.494460 0.193694
O O1 0.961092 0.159271 0.543418
O O2 0.101622 0.337789 0.519180
O O3 0.449235 0.223136 0.711490
O O4 0.565156 0.432441 0.729155
O O5 0.482342 0.355815 0.652998
O O6 0.358860 0.345574 0.721608
O O7 0.666805 0.646080 0.940256
O O8 0.397449 0.397449 0.500000
O O9 0.350646 0.480003 0.433084
O O10 0.292950 0.503357 0.513771
O O11 0.487824 0.606931 0.494832
O O12 0.511062 0.023226 0.390968
O O13 0.838871 0.819702 0.912849
O O14 0.791076 0.791076 0.000000
#
# Coordination Sequence:
#
# PCOD8322568 Si02
#       7
#     9  18  18  18  18  18  18
#     4  10  22  42  66  92 138 182 232 278 372 412
#     4  11  26  43  68 108 142 184 253 287 367 448
#     4  11  24  44  68 101 143 189 230 301 359 444
#     4  12  24  43  71 101 144 182 242 303 361 424
#     4  11  25  43  71 103 138 185 245 298 358 441
#     4  11  23  44  72  96 141 193 236 294 373 423
#     4  11  24  44  67 102 138 185 235 301 359 435
#
# _framework density 21.557601999999999
#
# number of rings (size 3 to 8) (size 9 to 14) (size 15 to 20)
#    0.000    0.923    3.846    2.462    6.462    1.846 
#    0.000    0.000    0.000    1.231    4.000    0.000 
#    0.000    0.000    0.000    0.000    0.000    0.000 
#
# Total GULP energy -483471.746171 kJ/mol
# GULP energy per Si atom -12396.711440 kJ/mol
# Density = 2.150854 g / cm^3
# Si number density = 21.557602 Si / 1000 Ang^3
#
#
#
# Elastic Constant Matrix: (Units=GPa)
#
#
# Indices 1 2 3 4 5 6 
#
# 1 102.0011 50.7881 48.7520 -0.5415 0.0000 0.0000
# 2 50.7881 102.0011 48.7520 0.5415 0.0000 0.0000
# 3 48.7520 48.7520 215.9377 0.0000 0.0000 0.0000
# 4 -0.5415 0.5415 0.0000 35.2948 0.0000 0.0000
# 5 0.0000 0.0000 0.0000 0.0000 35.2948 -0.5415
# 6 0.0000 0.0000 0.0000 0.0000 -0.5415 25.6065
#
#
#
# Elastic Compliance Matrix: (Units=1/GPa)
#
#
# Indices 1 2 3 4 5 6 
#
# 1 0.013590 -0.005943 -0.001726 0.000300 0.000000 0.000000
# 2 -0.005943 0.013590 -0.001726 -0.000300 0.000000 0.000000
# 3 -0.001726 -0.001726 0.005410 0.000000 0.000000 0.000000
# 4 0.000300 -0.000300 0.000000 0.028342 0.000000 0.000000
# 5 0.000000 0.000000 0.000000 0.000000 0.028342 0.000599
# 6 0.000000 0.000000 0.000000 0.000000 0.000599 0.039065
#
#
# Mechanical properties :
#
#
# Convention : Reuss Voigt Hill
#
# Bulk Modulus (GPa) = 72.47259 79.61376 76.04318
# Shear Modulus (GPa) = 32.95329 37.34908 35.15118
#
# Velocity S-wave (km/s) = 3.91399 4.16688 4.04241
# Velocity P-wave (km/s) = 7.35642 7.75638 7.55904
#
# Compressibility (1/GPa) = 0.01379832
#
# Stress axis : x y z
#
# Youngs Moduli (GPa) = 73.58540 73.58540 184.82617
#
# Poissons Ratio (x) = 0.43732 0.31908
# Poissons Ratio (y) = 0.43732 0.31908
# Poissons Ratio (z) = 0.12704 0.12704
#
# Static dielectric constant tensor:
#      x y z
#    x 3.838430 0.000000 0.000000 
#    y 0.000000 3.838430 0.000000 
#    z 0.000000 0.000000 3.078290 
# 
# 
# High freq. dielectric constant tensor:
#      x y z
#    x 1.838170 0.000000 0.000000 
#    y 0.000000 1.838170 0.000000 
#    z 0.000000 0.000000 1.873760 
# 
# From -- ./inp_files/8484.got.cif
#   From: 2010.03.12/outbox.cif.g09.slc.cpg/sg155_5_cif.got.tgz:8484.got - 2010.04.03 13:54:13.
