data_PCOD8322748
_publ_section_title
;
Structure prediction by ZEFSAII (Michael W. Deem and Ramdas Pophale) SiO2 
 PCOD8322748
Probable space group: P 3 C 1
;
_chemical_formula_sum "Si O2"
_cell_formula_units_Z 48
_cell_length_a 17.633554
_cell_length_b 17.633554
_cell_length_c 9.485542
_cell_angle_alpha 90.000000
_cell_angle_beta 90.000000
_cell_angle_gamma 120.000000
_cell_volume 2554.303434
_symmetry_space_group_name_H-M "P 3 C 1"
_symmetry_group_IT_number 158
_symmetry_cell_setting 'hexagonal'
loop_
_space_group_symop_operation_xyz
x,y,z
-y,x-y,z
-x+y,-x,z
-x+y,y,1/2+z
x,x-y,1/2+z
-y,-x,1/2+z
loop_
_atom_site_type_symbol
_atom_site_label
_atom_site_fract_x
_atom_site_fract_y
_atom_site_fract_z
Si Si1 0.394568 0.962383 0.108110
Si Si2 0.346128 0.244989 0.045380
Si Si3 0.568220 0.963230 0.101309
Si Si4 0.140629 0.143862 0.047011
Si Si5 0.751770 0.097568 0.722324
Si Si6 0.004841 0.859722 0.721534
Si Si7 0.155554 0.666149 0.356315
Si Si8 0.334090 0.840050 0.354390
O O1 0.496642 0.992922 0.120826
O O2 0.336021 0.874445 0.198015
O O3 0.390318 0.047446 0.151281
O O4 0.357025 0.928709 0.952722
O O5 0.243270 0.207447 0.051693
O O6 0.377461 0.252321 0.883263
O O7 0.389598 0.338859 0.122242
O O8 0.374392 0.184936 0.132001
O O9 0.546378 0.881427 0.202104
O O10 0.567672 0.924933 0.947790
O O11 0.108096 0.123911 0.884260
O O12 0.112827 0.055507 0.133554
O O13 0.096495 0.190808 0.135104
O O14 0.789399 0.032204 0.715855
O O15 0.238747 0.759943 0.389046
O O16 0.187793 0.595518 0.376342
#
# Coordination Sequence:
#
# PCOD8322748 Si02
#       8
#     6   6   6   6   6   6   6   6
#     4  10  21  38  58  84 116 153 192 239 291 345
#     4  10  22  40  59  82 111 142 186 238 290 347
#     4  10  21  38  58  84 116 153 192 239 291 345
#     4  10  20  34  52  74 105 143 183 227 272 324
#     4  10  22  40  59  82 111 142 186 238 290 347
#     4  10  20  34  52  74 105 143 183 227 272 324
#     4  10  21  32  57  84 118 166 206 238 283 338
#     4  10  19  36  53  82 124 160 204 246 281 326
#
# _framework density 18.791816000000001
#
# number of rings (size 3 to 8) (size 9 to 14) (size 15 to 20)
#    0.000    2.000    1.250    2.000    1.750    3.000 
#    0.000    2.500    0.000    0.500    0.000    0.000 
#    0.000    0.000    0.000    0.000    0.000    0.000 
#
# Total GULP energy -595144.528836 kJ/mol
# GULP energy per Si atom -12398.844351 kJ/mol
# Density = 1.874905 g / cm^3
# Si number density = 18.791816 Si / 1000 Ang^3
#
#
#
# Elastic Constant Matrix: (Units=GPa)
#
#
# Indices 1 2 3 4 5 6 
#
# 1 89.9197 56.7310 37.9619 0.4112 0.0000 0.0000
# 2 56.7310 89.9197 37.9619 -0.4112 0.0000 0.0000
# 3 37.9619 37.9619 103.6681 0.0000 0.0000 0.0000
# 4 0.4112 -0.4112 0.0000 22.6440 0.0000 0.0000
# 5 0.0000 0.0000 0.0000 0.0000 22.6440 0.4112
# 6 0.0000 0.0000 0.0000 0.0000 0.4112 16.5943
#
#
#
# Elastic Compliance Matrix: (Units=1/GPa)
#
#
# Indices 1 2 3 4 5 6 
#
# 1 0.019279 -0.010865 -0.003081 -0.000547 0.000000 0.000000
# 2 -0.010865 0.019279 -0.003081 0.000547 0.000000 0.000000
# 3 -0.003081 -0.003081 0.011903 0.000000 0.000000 0.000000
# 4 -0.000547 0.000547 0.000000 0.044182 0.000000 0.000000
# 5 0.000000 0.000000 0.000000 0.000000 0.044182 -0.001095
# 6 0.000000 0.000000 0.000000 0.000000 -0.001095 0.060289
#
#
# Mechanical properties :
#
#
# Convention : Reuss Voigt Hill
#
# Bulk Modulus (GPa) = 60.95199 60.97970 60.96584
# Shear Modulus (GPa) = 20.95235 22.43331 21.69283
#
# Velocity S-wave (km/s) = 3.34274 3.45886 3.40130
# Velocity P-wave (km/s) = 6.88508 6.96220 6.92375
#
# Compressibility (1/GPa) = 0.01640636
#
# Stress axis : x y z
#
# Youngs Moduli (GPa) = 51.86937 51.86937 84.01452
#
# Poissons Ratio (x) = 0.56357 0.25886
# Poissons Ratio (y) = 0.56357 0.25886
# Poissons Ratio (z) = 0.15982 0.15982
#
# Static dielectric constant tensor:
#      x y z
#    x 3.239260 0.000000 0.000000 
#    y 0.000000 3.239260 0.000000 
#    z 0.000000 0.000000 3.702670 
# 
# 
# High freq. dielectric constant tensor:
#      x y z
#    x 1.711580 0.000000 0.000000 
#    y 0.000000 1.711580 0.000000 
#    z 0.000000 0.000000 1.749270 
# 
# From -- ./inp_files/227.got.cif
#   From: 2010.03.12/outbox.cif.g09.slc.cpg/sg158_cif.got.tgz:227.got - 2010.04.03 13:59:47.
