data_PCOD8322333
_publ_section_title
;
Structure prediction by ZEFSAII (Michael W. Deem and Ramdas Pophale) SiO2 
 PCOD8322333
Probable space group: P 32 2 1
;
_chemical_formula_sum "Si O2"
_cell_formula_units_Z 42
_cell_length_a 14.348414
_cell_length_b 14.348414
_cell_length_c 13.169522
_cell_angle_alpha 90.000000
_cell_angle_beta 90.000000
_cell_angle_gamma 120.000000
_cell_volume 2348.055954
_symmetry_space_group_name_H-M "P 32 2 1"
_symmetry_group_IT_number 154
_symmetry_cell_setting 'hexagonal'
loop_
_space_group_symop_operation_xyz
x,y,z
-y,x-y,2/3+z
-x+y,-x,1/3+z
x-y,-y,1/3-z
-x,-x+y,2/3-z
y,x,-z
loop_
_atom_site_type_symbol
_atom_site_label
_atom_site_fract_x
_atom_site_fract_y
_atom_site_fract_z
Si Si1 0.791523 0.125742 0.448595
Si Si2 0.110181 0.807809 0.789836
Si Si3 0.699734 0.483563 0.824079
Si Si4 0.669234 0.329422 0.323807
Si Si5 0.647850 0.472493 0.167186
Si Si6 0.105940 0.017571 0.785054
Si Si7 0.466884 0.436802 0.882515
O O1 0.786025 0.116909 0.327785
O O2 0.841119 0.250874 0.477927
O O3 0.674476 0.051356 0.498156
O O4 0.871820 0.083693 0.484913
O O5 0.215817 0.823896 0.846279
O O6 0.116633 0.917844 0.823955
O O7 0.000000 0.708119 0.833334
O O8 0.692681 0.444268 0.709019
O O9 0.583004 0.448061 0.871168
O O10 0.741126 0.424885 0.902514
O O11 0.668348 0.431872 0.274564
O O12 0.760328 0.369813 0.409960
O O13 0.538376 0.475825 0.177417
O O14 0.000000 0.013155 0.833334
O O15 0.086240 0.000000 0.666667
O O16 0.437928 0.437928 0.000000
#
# Coordination Sequence:
#
# PCOD8322333 Si02
#       7
#     6   6   6   6   6   6   6
#     4  11  20  36  55  83 112 143 190 236 273 340
#     4  10  20  34  55  82 106 144 189 230 281 338
#     4  11  19  36  52  78 111 145 181 234 286 331
#     4  10  20  35  53  73 114 144 175 226 286 328
#     4  11  20  36  55  81 111 149 185 229 282 336
#     4   9  20  37  57  80 111 146 184 232 284 330
#     4  12  21  33  57  85 107 144 191 231 281 336
#
# _framework density 17.887136999999999
#
# number of rings (size 3 to 8) (size 9 to 14) (size 15 to 20)
#    0.000    1.429    5.714    0.857    2.000    1.714 
#    0.000    0.000    0.000    0.000    0.000    0.000 
#    0.000    0.000    0.000    0.000    0.000    0.000 
#
# Total GULP energy -520622.803717 kJ/mol
# GULP energy per Si atom -12395.781041 kJ/mol
# Density = 1.784642 g / cm^3
# Si number density = 17.887137 Si / 1000 Ang^3
#
#
#
# Elastic Constant Matrix: (Units=GPa)
#
#
# Indices 1 2 3 4 5 6 
#
# 1 117.0163 58.1315 39.0988 -3.4883 -0.0001 0.0000
# 2 58.1315 117.0163 39.0988 3.4883 0.0001 0.0000
# 3 39.0988 39.0988 56.3485 0.0000 0.0000 0.0000
# 4 -3.4883 3.4883 0.0000 22.8095 0.0000 0.0001
# 5 -0.0001 0.0001 0.0000 0.0000 22.8095 -3.4883
# 6 0.0000 0.0000 0.0000 0.0001 -3.4883 29.4424
#
#
#
# Elastic Compliance Matrix: (Units=1/GPa)
#
#
# Indices 1 2 3 4 5 6 
#
# 1 0.012784 -0.004512 -0.005740 0.002645 0.000000 0.000000
# 2 -0.004512 0.012784 -0.005740 -0.002645 0.000000 0.000000
# 3 -0.005740 -0.005740 0.025712 0.000000 0.000000 0.000000
# 4 0.002645 -0.002645 0.000000 0.044650 0.000000 0.000000
# 5 0.000000 0.000000 0.000000 0.000000 0.044650 0.005290
# 6 0.000000 0.000000 0.000000 0.000000 0.005290 0.034591
#
#
# Mechanical properties :
#
#
# Convention : Reuss Voigt Hill
#
# Bulk Modulus (GPa) = 51.82126 62.55991 57.19058
# Shear Modulus (GPa) = 23.40963 25.28240 24.34602
#
# Velocity S-wave (km/s) = 3.62158 3.76365 3.69330
# Velocity P-wave (km/s) = 6.82070 7.34422 7.08729
#
# Compressibility (1/GPa) = 0.01929710
#
# Stress axis : x y z
#
# Youngs Moduli (GPa) = 78.22341 78.22341 38.89224
#
# Poissons Ratio (x) = 0.35293 0.22323
# Poissons Ratio (y) = 0.35293 0.22323
# Poissons Ratio (z) = 0.44899 0.44899
#
# Static dielectric constant tensor:
#      x y z
#    x 3.438300 0.000000 0.000000 
#    y 0.000000 3.438300 0.000000 
#    z 0.000000 0.000000 3.324450 
# 
# 
# High freq. dielectric constant tensor:
#      x y z
#    x 1.690230 0.000000 0.000000 
#    y 0.000000 1.690230 0.000000 
#    z 0.000000 0.000000 1.687010 
# 
# From -- ./inp_files/1735.got.cif
#   From: 2010.03.12/outbox.cif.g09.slc.cpg/sg154_1_cif.got.tgz:1735.got - 2010.04.03 13:51:21.
