data_PCOD8322464
_publ_section_title
;
Structure prediction by ZEFSAII (Michael W. Deem and Ramdas Pophale) SiO2 
 PCOD8322464
Probable space group: R 3 2
;
_chemical_formula_sum "Si O2"
_cell_formula_units_Z 93
_cell_length_a 14.515619
_cell_length_b 14.515619
_cell_length_c 23.866946
_cell_angle_alpha 90.000000
_cell_angle_beta 90.000000
_cell_angle_gamma 120.000000
_cell_volume 4355.104730
_symmetry_space_group_name_H-M "R 3 2"
_symmetry_group_IT_number 155
_symmetry_cell_setting 'hexagonal'
loop_
_space_group_symop_operation_xyz
x,y,z
-y,x-y,z
-x+y,-x,z
x-y,-y,-z
-x,-x+y,-z
y,x,-z
2/3+x,1/3+y,1/3+z
2/3-y,1/3+x-y,1/3+z
2/3-x+y,1/3-x,1/3+z
2/3+x-y,1/3-y,1/3-z
2/3-x,1/3-x+y,1/3-z
2/3+y,1/3+x,1/3-z
1/3+x,2/3+y,2/3+z
1/3-y,2/3+x-y,2/3+z
1/3-x+y,2/3-x,2/3+z
1/3+x-y,2/3-y,2/3-z
1/3-x,2/3-x+y,2/3-z
1/3+y,2/3+x,2/3-z
loop_
_atom_site_type_symbol
_atom_site_label
_atom_site_fract_x
_atom_site_fract_y
_atom_site_fract_z
Si Si1 0.333334 0.666667 0.876155
Si Si2 0.949930 0.490228 0.713750
Si Si3 0.666667 0.333334 0.410770
Si Si4 0.496097 0.829431 0.666667
Si Si5 0.752395 0.085010 0.733831
Si Si6 0.038227 0.330812 0.399942
Si Si7 0.114409 0.558777 0.403971
O O1 0.333334 0.666667 0.809839
O O2 0.308465 0.754584 0.899206
O O3 0.917863 0.561076 0.753043
O O4 0.958525 0.402368 0.752033
O O5 0.864531 0.433053 0.663420
O O6 0.058715 0.564574 0.680384
O O7 0.636224 0.217249 0.387171
O O8 0.750825 0.084158 0.666667
O O9 0.855042 0.190155 0.757543
O O10 0.746396 0.977026 0.757433
O O11 0.044295 0.333334 0.333334
O O12 0.032570 0.434731 0.420474
#
# Coordination Sequence:
#
# PCOD8322464 Si02
#       7
#     6  18   6   9  18  18  18
#     4  12  22  40  51  87 132 153 186 235 313 390
#     4  10  19  31  58  82 115 148 202 250 287 336
#     4  10  28  36  57  84 111 156 198 237 292 361
#     4  10  20  42  62  74 110 150 206 252 278 334
#     4   9  16  30  44  85 114 148 190 239 299 344
#     4   9  18  27  47  85 112 148 196 234 298 349
#     4  10  18  30  57  76 115 159 182 240 299 352
#
# _framework density 21.354251000000001
#
# number of rings (size 3 to 8) (size 9 to 14) (size 15 to 20)
#    0.000    2.323    4.839    0.000   10.839    0.000 
#    1.161    0.968    0.000    0.000    0.000    0.000 
#    0.000    0.000    0.000    3.484    0.000    0.774 
#
# Total GULP energy -384102.794594 kJ/mol
# GULP energy per Si atom -12390.412729 kJ/mol
# Density = 2.130565 g / cm^3
# Si number density = 21.354251 Si / 1000 Ang^3
#
#
#
# Elastic Constant Matrix: (Units=GPa)
#
#
# Indices 1 2 3 4 5 6 
#
# 1 156.4674 75.4714 18.9786 1.7625 0.0000 0.0000
# 2 75.4714 156.4665 18.9786 -1.7627 0.0000 0.0000
# 3 18.9786 18.9786 39.8693 -0.0001 0.0000 0.0000
# 4 1.7625 -1.7627 -0.0001 5.4576 0.0000 0.0000
# 5 0.0000 0.0000 0.0000 0.0000 5.4577 1.7627
# 6 0.0000 0.0000 0.0000 0.0000 1.7627 40.4981
#
#
#
# Elastic Compliance Matrix: (Units=1/GPa)
#
#
# Indices 1 2 3 4 5 6 
#
# 1 0.008599 -0.003923 -0.002226 -0.004044 0.000000 0.000000
# 2 -0.003923 0.008599 -0.002226 0.004044 0.000000 0.000000
# 3 -0.002226 -0.002226 0.027201 0.000000 0.000000 0.000000
# 4 -0.004044 0.004044 0.000000 0.185844 0.000000 0.000000
# 5 0.000000 0.000000 0.000000 0.000000 0.185840 -0.008089
# 6 0.000000 0.000000 0.000000 0.000000 -0.008089 0.025045
#
#
# Mechanical properties :
#
#
# Convention : Reuss Voigt Hill
#
# Bulk Modulus (GPa) = 36.16707 64.40672 50.28690
# Shear Modulus (GPa) = 10.70447 26.24096 18.47272
#
# Velocity S-wave (km/s) = 2.24136 3.50928 2.94438
# Velocity P-wave (km/s) = 4.86536 6.82984 5.92952
#
# Compressibility (1/GPa) = 0.02764946
#
# Stress axis : x y z
#
# Youngs Moduli (GPa) = 116.29210 116.29136 36.76335
#
# Poissons Ratio (x) = 0.45625 0.08183
# Poissons Ratio (y) = 0.45625 0.08183
# Poissons Ratio (z) = 0.25884 0.25884
#
# Static dielectric constant tensor:
#      x y z
#    x 4.225000 0.000000 0.000000 
#    y 0.000000 4.225020 0.000000 
#    z 0.000000 0.000000 2.990250 
# 
# 
# High freq. dielectric constant tensor:
#      x y z
#    x 1.849300 0.000000 0.000000 
#    y 0.000000 1.849300 0.000000 
#    z 0.000000 0.000000 1.748980 
# 
# From -- ./inp_files/7926.got.cif
#   From: 2010.03.12/outbox.cif.g09.slc.cpg/sg155_4_cif.got.tgz:7926.got - 2010.04.03 13:54:13.
