data_PCOD8322402
_publ_section_title
;
Structure prediction by ZEFSAII (Michael W. Deem and Ramdas Pophale) SiO2 
 PCOD8322402
Probable space group: P 32 2 1
;
_chemical_formula_sum "Si O2"
_cell_formula_units_Z 24
_cell_length_a 13.179157
_cell_length_b 13.179157
_cell_length_c 7.874155
_cell_angle_alpha 90.000000
_cell_angle_beta 90.000000
_cell_angle_gamma 120.000000
_cell_volume 1184.431242
_symmetry_space_group_name_H-M "P 32 2 1"
_symmetry_group_IT_number 154
_symmetry_cell_setting 'hexagonal'
loop_
_space_group_symop_operation_xyz
x,y,z
-y,x-y,2/3+z
-x+y,-x,1/3+z
x-y,-y,1/3-z
-x,-x+y,2/3-z
y,x,-z
loop_
_atom_site_type_symbol
_atom_site_label
_atom_site_fract_x
_atom_site_fract_y
_atom_site_fract_z
Si Si1 0.585223 0.254040 0.191062
Si Si2 0.194829 0.056823 0.488910
Si Si3 0.885294 0.639462 0.599278
Si Si4 0.000000 0.831303 0.333334
Si Si5 0.000000 0.544840 0.833334
O O1 0.639099 0.324042 0.368830
O O2 0.465514 0.254717 0.150317
O O3 0.540840 0.116665 0.214853
O O4 0.136423 0.136423 0.500000
O O5 0.323898 0.142649 0.409254
O O6 0.202893 0.000000 0.666667
O O7 0.116226 0.955198 0.357769
O O8 0.971213 0.598806 0.672988
O O9 0.975807 0.752490 0.496607
#
# Coordination Sequence:
#
# PCOD8322402 Si02
#       5
#     6   6   6   3   3
#     4  10  25  47  71  94 132 171 222 276 329 391
#     4  12  20  36  55  90 135 172 202 261 327 385
#     4  11  23  40  63  96 129 171 214 272 330 395
#     4  12  22  32  64  90 132 164 218 256 330 404
#     4  10  22  46  66  92 128 162 222 274 324 386
#
# _framework density 20.262889999999999
#
# number of rings (size 3 to 8) (size 9 to 14) (size 15 to 20)
#    0.000    1.000    5.000    0.750    7.000    0.000 
#    0.000    0.000    0.000    0.000    0.000    0.000 
#    0.000    0.000    0.000    0.000    0.000    0.000 
#
# Total GULP energy -297441.471246 kJ/mol
# GULP energy per Si atom -12393.394635 kJ/mol
# Density = 2.021677 g / cm^3
# Si number density = 20.262890 Si / 1000 Ang^3
#
#
#
# Elastic Constant Matrix: (Units=GPa)
#
#
# Indices 1 2 3 4 5 6 
#
# 1 91.8660 45.2475 30.4343 -1.5204 0.0001 0.0000
# 2 45.2475 91.8660 30.4343 1.5204 -0.0001 0.0000
# 3 30.4343 30.4343 84.8136 0.0000 0.0000 0.0000
# 4 -1.5204 1.5204 0.0000 31.1518 0.0000 -0.0001
# 5 0.0001 -0.0001 0.0000 0.0000 31.1518 -1.5204
# 6 0.0000 0.0000 0.0000 -0.0001 -1.5204 23.3093
#
#
#
# Elastic Compliance Matrix: (Units=1/GPa)
#
#
# Indices 1 2 3 4 5 6 
#
# 1 0.015097 -0.006422 -0.003113 0.001050 0.000000 0.000000
# 2 -0.006422 0.015097 -0.003113 -0.001050 0.000000 0.000000
# 3 -0.003113 -0.003113 0.014025 0.000000 0.000000 0.000000
# 4 0.001050 -0.001050 0.000000 0.032203 0.000000 0.000000
# 5 0.000000 0.000000 0.000000 0.000000 0.032203 0.002100
# 6 0.000000 0.000000 0.000000 0.000000 0.002100 0.043038
#
#
# Mechanical properties :
#
#
# Convention : Reuss Voigt Hill
#
# Bulk Modulus (GPa) = 52.84548 53.41977 53.13263
# Shear Modulus (GPa) = 27.28247 27.95120 27.61683
#
# Velocity S-wave (km/s) = 3.67335 3.71809 3.69579
# Velocity P-wave (km/s) = 6.64288 6.69723 6.67011
#
# Compressibility (1/GPa) = 0.01892309
#
# Stress axis : x y z
#
# Youngs Moduli (GPa) = 66.23751 66.23751 71.30287
#
# Poissons Ratio (x) = 0.42538 0.22196
# Poissons Ratio (y) = 0.42538 0.22196
# Poissons Ratio (z) = 0.20620 0.20620
#
# Static dielectric constant tensor:
#      x y z
#    x 5.006690 0.000000 0.000000 
#    y 0.000000 5.006690 0.000000 
#    z 0.000000 0.000000 3.791950 
# 
# 
# High freq. dielectric constant tensor:
#      x y z
#    x 1.793330 0.000000 0.000000 
#    y 0.000000 1.793330 0.000000 
#    z 0.000000 0.000000 1.790250 
# 
# From -- ./inp_files/923.got.cif
#   From: 2010.03.12/outbox.cif.g09.slc.cpg/sg154_1_cif.got.tgz:923.got - 2010.04.03 13:51:21.
