data_PCOD8322359
_publ_section_title
;
Structure prediction by ZEFSAII (Michael W. Deem and Ramdas Pophale) SiO2 
 PCOD8322359
Probable space group: P 32 2 1
;
_chemical_formula_sum "Si O2"
_cell_formula_units_Z 42
_cell_length_a 8.800851
_cell_length_b 8.800851
_cell_length_c 28.963340
_cell_angle_alpha 90.000000
_cell_angle_beta 90.000000
_cell_angle_gamma 120.000000
_cell_volume 1942.802309
_symmetry_space_group_name_H-M "P 32 2 1"
_symmetry_group_IT_number 154
_symmetry_cell_setting 'hexagonal'
loop_
_space_group_symop_operation_xyz
x,y,z
-y,x-y,2/3+z
-x+y,-x,1/3+z
x-y,-y,1/3-z
-x,-x+y,2/3-z
y,x,-z
loop_
_atom_site_type_symbol
_atom_site_label
_atom_site_fract_x
_atom_site_fract_y
_atom_site_fract_z
Si Si1 0.093820 0.093820 0.000000
Si Si2 0.831026 0.000000 0.166667
Si Si3 0.791011 0.075645 0.486122
Si Si4 0.730706 0.035409 0.747472
Si Si5 0.070536 0.644281 0.914004
Si Si6 0.706277 0.989440 0.349966
Si Si7 0.751712 0.299655 0.411495
Si Si8 0.745070 0.630896 0.574360
O O1 0.247860 0.170512 0.960674
O O2 0.912508 0.048054 0.976908
O O3 0.777221 0.081269 0.124771
O O4 0.007408 0.146563 0.190626
O O5 0.752489 0.213977 0.460524
O O6 0.758638 0.082631 0.540182
O O7 0.671028 0.874357 0.469089
O O8 0.576937 0.081973 0.738154
O O9 0.919492 0.208950 0.750019
O O10 0.264091 0.682526 0.922420
O O11 0.922547 0.450139 0.897009
O O12 0.010915 0.673015 0.963779
O O13 0.571280 0.828106 0.383143
O O14 0.751539 0.177224 0.370306
#
# Coordination Sequence:
#
# PCOD8322359 Si02
#       8
#     3   3   6   6   6   6   6   6
#     4  10  22  40  68 102 122 184 214 266 346 420
#     4  12  26  38  66 100 128 178 236 276 328 400
#     4  11  22  43  65  92 133 181 217 275 333 405
#     4  10  20  40  64  90 136 172 217 266 334 405
#     4  11  24  41  64 100 131 168 227 285 328 395
#     4  10  21  41  69  93 137 168 225 277 338 403
#     4  10  25  40  66 100 132 173 224 280 337 394
#     4   9  20  39  67  87 125 182 214 254 347 402
#
# _framework density 21.618258999999998
#
# number of rings (size 3 to 8) (size 9 to 14) (size 15 to 20)
#    0.000    1.714    1.429    1.714   10.000    0.571 
#    0.000    0.000    0.000    0.000    0.000    0.000 
#    0.000    0.000    0.000    0.000    0.000    0.000 
#
# Total GULP energy -520426.488583 kJ/mol
# GULP energy per Si atom -12391.106871 kJ/mol
# Density = 2.156905 g / cm^3
# Si number density = 21.618259 Si / 1000 Ang^3
#
#
#
# Elastic Constant Matrix: (Units=GPa)
#
#
# Indices 1 2 3 4 5 6 
#
# 1 79.5453 38.9246 34.5880 -3.5991 0.0000 0.0000
# 2 38.9246 79.5453 34.5880 3.5991 0.0000 0.0000
# 3 34.5880 34.5880 134.1575 0.0000 0.0000 0.0000
# 4 -3.5991 3.5991 0.0000 28.1441 0.0000 0.0000
# 5 0.0000 0.0000 0.0000 0.0000 28.1441 -3.5991
# 6 0.0000 0.0000 0.0000 0.0000 -3.5991 20.3103
#
#
#
# Elastic Compliance Matrix: (Units=1/GPa)
#
#
# Indices 1 2 3 4 5 6 
#
# 1 0.017563 -0.007626 -0.002562 0.003221 0.000000 0.000000
# 2 -0.007626 0.017563 -0.002562 -0.003221 0.000000 0.000000
# 3 -0.002562 -0.002562 0.008775 0.000000 0.000000 0.000000
# 4 0.003221 -0.003221 0.000000 0.036355 0.000000 0.000000
# 5 0.000000 0.000000 0.000000 0.000000 0.036355 0.006442
# 6 0.000000 0.000000 0.000000 0.000000 0.006442 0.050378
#
#
# Mechanical properties :
#
#
# Convention : Reuss Voigt Hill
#
# Bulk Modulus (GPa) = 54.34452 56.60548 55.47500
# Shear Modulus (GPa) = 25.17343 27.66287 26.41815
#
# Velocity S-wave (km/s) = 3.41611 3.58104 3.49955
# Velocity P-wave (km/s) = 6.38377 6.58327 6.48429
#
# Compressibility (1/GPa) = 0.01840112
#
# Stress axis : x y z
#
# Youngs Moduli (GPa) = 56.93837 56.93837 113.96115
#
# Poissons Ratio (x) = 0.43421 0.29196
# Poissons Ratio (y) = 0.43421 0.29196
# Poissons Ratio (z) = 0.14587 0.14587
#
# Static dielectric constant tensor:
#      x y z
#    x 3.988280 0.000000 0.000000 
#    y 0.000000 3.988280 0.000000 
#    z 0.000000 0.000000 4.184950 
# 
# 
# High freq. dielectric constant tensor:
#      x y z
#    x 1.840530 0.000000 0.000000 
#    y 0.000000 1.840530 0.000000 
#    z 0.000000 0.000000 1.862410 
# 
# From -- ./inp_files/3837.got.cif
#   From: 2010.03.12/outbox.cif.g09.slc.cpg/sg154_2_cif.got.tgz:3837.got - 2010.04.03 13:51:21.
