data_PCOD8322315
_publ_section_title
;
Structure prediction by ZEFSAII (Michael W. Deem and Ramdas Pophale) SiO2 
 PCOD8322315
Probable space group: P 32 2 1
;
_chemical_formula_sum "Si O2"
_cell_formula_units_Z 42
_cell_length_a 14.756834
_cell_length_b 14.756834
_cell_length_c 11.740372
_cell_angle_alpha 90.000000
_cell_angle_beta 90.000000
_cell_angle_gamma 120.000000
_cell_volume 2214.108369
_symmetry_space_group_name_H-M "P 32 2 1"
_symmetry_group_IT_number 154
_symmetry_cell_setting 'hexagonal'
loop_
_space_group_symop_operation_xyz
x,y,z
-y,x-y,2/3+z
-x+y,-x,1/3+z
x-y,-y,1/3-z
-x,-x+y,2/3-z
y,x,-z
loop_
_atom_site_type_symbol
_atom_site_label
_atom_site_fract_x
_atom_site_fract_y
_atom_site_fract_z
Si Si1 0.258317 0.099018 0.928857
Si Si2 0.485367 0.201258 0.928127
Si Si3 0.123250 0.335692 0.672198
Si Si4 0.399127 0.660908 0.962582
Si Si5 0.383496 0.890334 0.184595
Si Si6 0.261916 0.733794 0.858848
Si Si7 0.121016 0.177504 0.837104
O O1 0.374195 0.181888 0.883956
O O2 0.181489 0.111468 0.839807
O O3 0.243432 0.982666 0.935073
O O4 0.246737 0.139753 0.051342
O O5 0.550877 0.198012 0.819990
O O6 0.546656 0.307797 0.000454
O O7 0.461471 0.108878 0.016663
O O8 0.112335 0.406562 0.769170
O O9 0.212929 0.414786 0.584500
O O10 0.157465 0.257614 0.730234
O O11 0.356448 0.742666 0.938231
O O12 0.483199 0.701026 0.065835
O O13 0.414872 0.803689 0.164207
O O14 0.488536 0.000000 0.166667
O O15 0.000000 0.090354 0.833334
#
# Coordination Sequence:
#
# PCOD8322315 Si02
#       7
#     6   6   6   6   6   6   6
#     4  10  19  35  64  86 117 155 203 260 298 364
#     4  10  19  34  61  85 115 158 202 250 303 359
#     4  11  19  37  62  90 117 158 208 251 304 377
#     4   9  20  36  57  84 123 165 196 240 305 366
#     4  11  19  34  58  87 114 152 206 252 295 362
#     4  10  20  36  58  83 124 164 200 244 303 371
#     4   9  19  36  61  91 114 151 207 257 312 355
#
# _framework density 18.969260999999999
#
# number of rings (size 3 to 8) (size 9 to 14) (size 15 to 20)
#    0.000    2.000    4.286    0.429    2.000    0.000 
#    2.571    1.429   22.000    0.000    0.000    0.000 
#    0.000    0.000    0.000    0.000    0.000    0.000 
#
# Total GULP energy -520304.189230 kJ/mol
# GULP energy per Si atom -12388.194982 kJ/mol
# Density = 1.892609 g / cm^3
# Si number density = 18.969261 Si / 1000 Ang^3
#
#
#
# Elastic Constant Matrix: (Units=GPa)
#
#
# Indices 1 2 3 4 5 6 
#
# 1 94.7610 50.3053 56.1426 -1.1146 0.0000 0.0000
# 2 50.3053 94.7610 56.1426 1.1146 0.0000 0.0000
# 3 56.1426 56.1426 107.1888 0.0000 0.0000 0.0000
# 4 -1.1146 1.1146 0.0000 27.7059 0.0000 0.0000
# 5 0.0000 0.0000 0.0000 0.0000 27.7059 -1.1146
# 6 0.0000 0.0000 0.0000 0.0000 -1.1146 22.2278
#
#
#
# Elastic Compliance Matrix: (Units=1/GPa)
#
#
# Indices 1 2 3 4 5 6 
#
# 1 0.017067 -0.005473 -0.006072 0.000907 0.000000 0.000000
# 2 -0.005473 0.017067 -0.006072 -0.000907 0.000000 0.000000
# 3 -0.006072 -0.006072 0.015690 0.000000 0.000000 0.000000
# 4 0.000907 -0.000907 0.000000 0.036166 0.000000 0.000000
# 5 0.000000 0.000000 0.000000 0.000000 0.036166 0.001814
# 6 0.000000 0.000000 0.000000 0.000000 0.001814 0.045080
#
#
# Mechanical properties :
#
#
# Convention : Reuss Voigt Hill
#
# Bulk Modulus (GPa) = 68.54943 69.09910 68.82426
# Shear Modulus (GPa) = 24.11559 24.46926 24.29243
#
# Velocity S-wave (km/s) = 3.56939 3.59547 3.58246
# Velocity P-wave (km/s) = 7.29404 7.33093 7.31251
#
# Compressibility (1/GPa) = 0.01458801
#
# Stress axis : x y z
#
# Youngs Moduli (GPa) = 58.59362 58.59362 63.73286
#
# Poissons Ratio (x) = 0.32069 0.38701
# Poissons Ratio (y) = 0.32069 0.38701
# Poissons Ratio (z) = 0.35581 0.35581
#
# Static dielectric constant tensor:
#      x y z
#    x 3.410800 0.000000 0.000000 
#    y 0.000000 3.410800 0.000000 
#    z 0.000000 0.000000 3.602250 
# 
# 
# High freq. dielectric constant tensor:
#      x y z
#    x 1.720680 0.000000 0.000000 
#    y 0.000000 1.720680 0.000000 
#    z 0.000000 0.000000 1.734740 
# 
# From -- ./inp_files/1739.got.cif
#   From: 2010.03.12/outbox.cif.g09.slc.cpg/sg154_1_cif.got.tgz:1739.got - 2010.04.03 13:51:21.
