data_PCOD8322958
_publ_section_title
;
Structure prediction by ZEFSAII (Michael W. Deem and Ramdas Pophale) SiO2 
 PCOD8322958
Probable space group: P -3 1 M 
;
_chemical_formula_sum "Si O2"
_cell_formula_units_Z 96
_cell_length_a 16.817777
_cell_length_b 16.817777
_cell_length_c 20.325103
_cell_angle_alpha 90.000000
_cell_angle_beta 90.000000
_cell_angle_gamma 120.000000
_cell_volume 4978.523551
_symmetry_space_group_name_H-M "P -3 1 M "
_symmetry_group_IT_number 162
_symmetry_cell_setting 'hexagonal'
loop_
_space_group_symop_operation_xyz
x,y,z
-y,x-y,z
-x+y,-x,z
-y,-x,-z
-x+y,y,-z
x,x-y,-z
-x,-y,-z
y,-x+y,-z
x-y,x,-z
y,x,z
x-y,-y,z
-x,-x+y,z
loop_
_atom_site_type_symbol
_atom_site_label
_atom_site_fract_x
_atom_site_fract_y
_atom_site_fract_z
Si Si1 0.101617 0.447533 0.866302
Si Si2 0.894703 0.610263 0.418468
Si Si3 0.101842 0.896364 0.925399
Si Si4 0.448573 0.891274 0.645844
Si Si5 0.897183 0.490170 0.786746
Si Si6 0.534482 0.638708 0.014025
Si Si7 0.762040 0.608909 0.134741
Si Si8 0.895158 0.286316 0.426834
O O1 0.135085 0.553949 0.848676
O O2 0.172029 0.423354 0.832469
O O3 0.000000 0.381945 0.837922
O O4 0.102290 0.423109 0.943053
O O5 0.859357 0.512010 0.382531
O O6 0.819383 0.642670 0.403925
O O7 0.894602 0.594866 0.495698
O O8 0.000000 0.686735 0.396427
O O9 0.103221 0.820659 0.877828
O O10 0.000000 0.882623 0.922175
O O11 0.174760 0.000000 0.902841
O O12 0.121980 0.878021 0.000000
O O13 0.441904 0.846093 0.718665
O O14 0.507302 0.859587 0.602011
O O15 0.502481 0.000000 0.646611
O O16 0.894543 0.580699 0.808850
O O17 0.000000 0.519699 0.769920
O O18 0.577739 0.577739 0.042651
O O19 0.555329 0.717919 0.066143
O O20 0.426189 0.573812 0.000000
O O21 0.000000 0.316594 0.403563
#
# Coordination Sequence:
#
# PCOD8322958 Si02
#       8
#    12  12  12  12  12  12  12  12
#     4  10  21  36  51  71  98 128 166 214 262 310
#     4   9  17  31  54  82 114 150 185 224 272 323
#     4  10  20  34  54  81 110 136 169 221 286 347
#     4   9  18  33  53  75 103 142 183 223 268 315
#     4  10  21  37  53  70  98 137 174 211 258 313
#     4  10  18  32  53  71  90 121 163 210 261 308
#     4  12  21  33  54  77  98 134 174 216 260 329
#     4   9  17  31  54  84 114 145 186 231 270 317
#
# _framework density 19.282824999999999
#
# number of rings (size 3 to 8) (size 9 to 14) (size 15 to 20)
#    0.000    2.125    1.250    3.125    0.000    5.000 
#    1.500    0.000    0.000    1.000    0.000    1.750 
#    0.000    0.000    0.000    0.000    0.000    0.000 
#
# Total GULP energy -1189252.777825 kJ/mol
# GULP energy per Si atom -12388.049769 kJ/mol
# Density = 1.923894 g / cm^3
# Si number density = 19.282825 Si / 1000 Ang^3
#
#
#
# Elastic Constant Matrix: (Units=GPa)
#
#
# Indices 1 2 3 4 5 6 
#
# 1 100.3759 46.9624 31.2758 0.0000 2.9086 0.0000
# 2 46.9624 100.3759 31.2758 0.0000 -2.9086 0.0000
# 3 31.2758 31.2758 62.5841 0.0000 0.0000 0.0000
# 4 0.0000 0.0000 0.0000 15.6106 0.0000 -2.9086
# 5 2.9086 -2.9086 0.0000 0.0000 15.6106 0.0000
# 6 0.0000 0.0000 0.0000 -2.9086 0.0000 26.7068
#
#
#
# Elastic Compliance Matrix: (Units=1/GPa)
#
#
# Indices 1 2 3 4 5 6 
#
# 1 0.013862 -0.005247 -0.004305 0.000000 -0.003560 0.000000
# 2 -0.005247 0.013862 -0.004305 0.000000 0.003560 0.000000
# 3 -0.004305 -0.004305 0.020281 0.000000 0.000000 0.000000
# 4 0.000000 0.000000 0.000000 0.065386 0.000000 0.007121
# 5 -0.003560 0.003560 0.000000 0.000000 0.065386 0.000000
# 6 0.000000 0.000000 0.000000 0.007121 0.000000 0.038219
#
#
# Mechanical properties :
#
#
# Convention : Reuss Voigt Hill
#
# Bulk Modulus (GPa) = 49.28439 53.59599 51.44019
# Shear Modulus (GPa) = 19.88265 21.84040 20.86153
#
# Velocity S-wave (km/s) = 3.21457 3.36912 3.29275
# Velocity P-wave (km/s) = 6.27631 6.55665 6.41801
#
# Compressibility (1/GPa) = 0.02029040
#
# Stress axis : x y z
#
# Youngs Moduli (GPa) = 72.13848 72.13848 49.30613
#
# Poissons Ratio (x) = 0.37854 0.21227
# Poissons Ratio (y) = 0.37854 0.21227
# Poissons Ratio (z) = 0.31057 0.31057
#
# Static dielectric constant tensor:
#      x y z
#    x 3.550060 0.000000 0.000000 
#    y 0.000000 3.550060 0.000000 
#    z 0.000000 0.000000 3.475620 
# 
# 
# High freq. dielectric constant tensor:
#      x y z
#    x 1.739680 0.000000 0.000000 
#    y 0.000000 1.739680 0.000000 
#    z 0.000000 0.000000 1.726410 
# 
# From -- ./inp_files/3905.got.cif
#   From: 2010.03.12/outbox.cif.g09.slc.cpg/sg162_2_cif.got.tgz:3905.got - 2010.04.02 06:27:41.
