data_PCOD8322483
_publ_section_title
;
Structure prediction by ZEFSAII (Michael W. Deem and Ramdas Pophale) SiO2 
 PCOD8322483
Probable space group: R 3 2
;
_chemical_formula_sum "Si O2"
_cell_formula_units_Z 105
_cell_length_a 21.519874
_cell_length_b 21.519874
_cell_length_c 15.901345
_cell_angle_alpha 90.000000
_cell_angle_beta 90.000000
_cell_angle_gamma 120.000000
_cell_volume 6377.404154
_symmetry_space_group_name_H-M "R 3 2"
_symmetry_group_IT_number 155
_symmetry_cell_setting 'hexagonal'
loop_
_space_group_symop_operation_xyz
x,y,z
-y,x-y,z
-x+y,-x,z
x-y,-y,-z
-x,-x+y,-z
y,x,-z
2/3+x,1/3+y,1/3+z
2/3-y,1/3+x-y,1/3+z
2/3-x+y,1/3-x,1/3+z
2/3+x-y,1/3-y,1/3-z
2/3-x,1/3-x+y,1/3-z
2/3+y,1/3+x,1/3-z
1/3+x,2/3+y,2/3+z
1/3-y,2/3+x-y,2/3+z
1/3-x+y,2/3-x,2/3+z
1/3+x-y,2/3-y,2/3-z
1/3-x,2/3-x+y,2/3-z
1/3+y,2/3+x,2/3-z
loop_
_atom_site_type_symbol
_atom_site_label
_atom_site_fract_x
_atom_site_fract_y
_atom_site_fract_z
Si Si1 0.382682 0.237048 0.500716
Si Si2 0.775656 0.957582 0.918352
Si Si3 0.333334 0.270156 0.666667
Si Si4 0.862212 0.922430 0.205669
Si Si5 0.870528 0.632731 0.990492
Si Si6 0.333334 0.666667 0.764597
Si Si7 0.073179 0.904970 0.757651
O O1 0.416414 0.319317 0.469684
O O2 0.345797 0.229694 0.589656
O O3 0.446740 0.217955 0.506243
O O4 0.322211 0.186367 0.433143
O O5 0.811450 0.924549 0.857070
O O6 0.698446 0.894624 0.945546
O O7 0.825026 0.000000 0.000000
O O8 0.264729 0.277933 0.647205
O O9 0.918031 0.953289 0.128655
O O10 0.875194 0.865204 0.256347
O O11 0.878832 0.990178 0.265780
O O12 0.798348 0.567734 0.027613
O O13 0.333334 0.666668 0.666667
#
# Coordination Sequence:
#
# PCOD8322483 Si02
#       7
#    18  18   9  18  18   6  18
#     4  10  20  30  48  79 103 131 161 211 262 311
#     4   9  17  28  46  75 109 131 157 200 259 317
#     4  12  18  30  52  80 112 126 158 212 276 314
#     4   9  19  32  45  70 106 137 175 199 248 307
#     4  11  19  29  51  79 108 128 164 208 269 318
#     4   9  18  30  48  69 108 145 173 202 231 303
#     4  10  19  32  49  73 102 144 170 208 252 308
#
# _framework density 16.464379000000001
#
# number of rings (size 3 to 8) (size 9 to 14) (size 15 to 20)
#    0.000    2.057    6.000    1.371    0.000   10.286 
#    0.000    0.000    0.000    1.029    8.914    0.000 
#    0.000    0.000    0.000    0.000    0.000    0.000 
#
# Total GULP energy -433794.719947 kJ/mol
# GULP energy per Si atom -12394.134856 kJ/mol
# Density = 1.642691 g / cm^3
# Si number density = 16.464379 Si / 1000 Ang^3
#
#
#
# Elastic Constant Matrix: (Units=GPa)
#
#
# Indices 1 2 3 4 5 6 
#
# 1 94.6344 43.8294 41.9750 2.3577 0.0000 0.0000
# 2 43.8294 94.6347 41.9751 -2.3575 0.0000 0.0000
# 3 41.9750 41.9751 89.7116 0.0001 0.0000 0.0000
# 4 2.3577 -2.3575 0.0001 16.6646 0.0000 0.0000
# 5 0.0000 0.0000 0.0000 0.0000 16.6644 2.3576
# 6 0.0000 0.0000 0.0000 0.0000 2.3576 25.4025
#
#
#
# Elastic Compliance Matrix: (Units=1/GPa)
#
#
# Indices 1 2 3 4 5 6 
#
# 1 0.015014 -0.004931 -0.004717 -0.002822 0.000000 0.000000
# 2 -0.004931 0.015014 -0.004717 0.002822 0.000000 0.000000
# 3 -0.004717 -0.004717 0.015561 0.000000 0.000000 0.000000
# 4 -0.002822 0.002822 0.000000 0.060806 0.000000 0.000000
# 5 0.000000 0.000000 0.000000 0.000000 0.060806 -0.005643
# 6 0.000000 0.000000 0.000000 0.000000 -0.005643 0.039890
#
#
# Mechanical properties :
#
#
# Convention : Reuss Voigt Hill
#
# Bulk Modulus (GPa) = 59.32524 59.39329 59.35927
# Shear Modulus (GPa) = 20.70896 21.82639 21.26767
#
# Velocity S-wave (km/s) = 3.55040 3.64493 3.59798
# Velocity P-wave (km/s) = 7.27446 7.33936 7.30698
#
# Compressibility (1/GPa) = 0.01685623
#
# Stress axis : x y z
#
# Youngs Moduli (GPa) = 66.60629 66.60658 64.26228
#
# Poissons Ratio (x) = 0.32846 0.30315
# Poissons Ratio (y) = 0.32846 0.30315
# Poissons Ratio (z) = 0.31421 0.31421
#
# Static dielectric constant tensor:
#      x y z
#    x 3.039510 0.000000 0.000000 
#    y 0.000000 3.039500 0.000000 
#    z 0.000000 0.000000 3.181270 
# 
# 
# High freq. dielectric constant tensor:
#      x y z
#    x 1.612870 0.000000 0.000000 
#    y 0.000000 1.612870 0.000000 
#    z 0.000000 0.000000 1.618290 
# 
# From -- ./inp_files/5357.got.cif
#   From: 2010.03.12/outbox.cif.g09.slc.cpg/sg155_3_cif.got.tgz:5357.got - 2010.04.03 13:54:13.
