data_PCOD8322305
_publ_section_title
;
Structure prediction by ZEFSAII (Michael W. Deem and Ramdas Pophale) SiO2 
 PCOD8322305
Probable space group: P 32 2 1
;
_chemical_formula_sum "Si O2"
_cell_formula_units_Z 42
_cell_length_a 11.962977
_cell_length_b 11.962977
_cell_length_c 20.016658
_cell_angle_alpha 90.000000
_cell_angle_beta 90.000000
_cell_angle_gamma 120.000000
_cell_volume 2480.851314
_symmetry_space_group_name_H-M "P 32 2 1"
_symmetry_group_IT_number 154
_symmetry_cell_setting 'hexagonal'
loop_
_space_group_symop_operation_xyz
x,y,z
-y,x-y,2/3+z
-x+y,-x,1/3+z
x-y,-y,1/3-z
-x,-x+y,2/3-z
y,x,-z
loop_
_atom_site_type_symbol
_atom_site_label
_atom_site_fract_x
_atom_site_fract_y
_atom_site_fract_z
Si Si1 0.303341 0.780418 0.926766
Si Si2 0.606539 0.669374 0.743281
Si Si3 0.187279 0.854890 0.181939
Si Si4 0.492416 0.576070 0.601168
Si Si5 0.748601 0.442463 0.187752
Si Si6 0.799120 0.336267 0.917742
Si Si7 0.268281 0.326979 0.071495
O O1 0.164383 0.656618 0.912184
O O2 0.420264 0.773928 0.888886
O O3 0.306727 0.912342 0.904119
O O4 0.323354 0.776745 0.004410
O O5 0.513479 0.591859 0.681017
O O6 0.511990 0.661063 0.804581
O O7 0.701097 0.822066 0.726744
O O8 0.280850 0.848544 0.237460
O O9 0.206606 0.789372 0.114862
O O10 0.042665 0.777083 0.210161
O O11 0.218681 0.000000 0.166667
O O12 0.546408 0.489039 0.569134
O O13 0.674830 0.301107 0.220577
O O14 0.882926 0.531100 0.227682
O O15 0.329079 0.329079 0.000000
#
# Coordination Sequence:
#
# PCOD8322305 Si02
#       7
#     6   6   6   6   6   6   6
#     4  11  20  34  55  78 121 145 181 240 274 346
#     4   9  21  35  50  88 105 147 185 218 294 334
#     4  10  19  33  57  81 103 143 194 236 272 325
#     4  10  18  33  58  80 108 141 180 236 278 328
#     4  10  21  32  53  81 112 144 177 228 288 336
#     4  10  21  33  52  85 111 138 195 228 282 334
#     4  10  20  35  57  80 113 146 185 235 285 338
#
# _framework density 16.929673000000001
#
# number of rings (size 3 to 8) (size 9 to 14) (size 15 to 20)
#    0.857    1.143    4.286    0.000    2.000    0.000 
#    0.000    0.000    3.143    0.000    0.000    1.000 
#    0.000    0.000    0.000    0.000    0.000    0.000 
#
# Total GULP energy -520320.625141 kJ/mol
# GULP energy per Si atom -12388.586313 kJ/mol
# Density = 1.689114 g / cm^3
# Si number density = 16.929673 Si / 1000 Ang^3
#
#
#
# Elastic Constant Matrix: (Units=GPa)
#
#
# Indices 1 2 3 4 5 6 
#
# 1 108.0241 57.4165 36.0541 -0.5761 0.0000 0.0000
# 2 57.4165 108.0241 36.0541 0.5761 0.0000 0.0000
# 3 36.0541 36.0541 83.4679 0.0000 0.0000 0.0000
# 4 -0.5761 0.5761 0.0000 26.7668 0.0000 0.0000
# 5 0.0000 0.0000 0.0000 0.0000 26.7668 -0.5761
# 6 0.0000 0.0000 0.0000 0.0000 -0.5761 25.3038
#
#
#
# Elastic Compliance Matrix: (Units=1/GPa)
#
#
# Indices 1 2 3 4 5 6 
#
# 1 0.013608 -0.006162 -0.003216 0.000426 0.000000 0.000000
# 2 -0.006162 0.013608 -0.003216 -0.000426 0.000000 0.000000
# 3 -0.003216 -0.003216 0.014759 0.000000 0.000000 0.000000
# 4 0.000426 -0.000426 0.000000 0.037378 0.000000 0.000000
# 5 0.000000 0.000000 0.000000 0.000000 0.037378 0.000851
# 6 0.000000 0.000000 0.000000 0.000000 0.000851 0.039539
#
#
# Mechanical properties :
#
#
# Convention : Reuss Voigt Hill
#
# Bulk Modulus (GPa) = 59.57262 62.06284 60.81773
# Shear Modulus (GPa) = 26.73011 27.10025 26.91518
#
# Velocity S-wave (km/s) = 3.97784 4.00528 3.99158
# Velocity P-wave (km/s) = 7.50748 7.62421 7.56607
#
# Compressibility (1/GPa) = 0.01678623
#
# Stress axis : x y z
#
# Youngs Moduli (GPa) = 73.48633 73.48633 67.75351
#
# Poissons Ratio (x) = 0.45279 0.21793
# Poissons Ratio (y) = 0.45279 0.21793
# Poissons Ratio (z) = 0.23637 0.23637
#
# Static dielectric constant tensor:
#      x y z
#    x 3.181040 0.000000 0.000000 
#    y 0.000000 3.181040 0.000000 
#    z 0.000000 0.000000 3.257350 
# 
# 
# High freq. dielectric constant tensor:
#      x y z
#    x 1.636000 0.000000 0.000000 
#    y 0.000000 1.636000 0.000000 
#    z 0.000000 0.000000 1.659240 
# 
# From -- ./inp_files/2814.got.cif
#   From: 2010.03.12/outbox.cif.g09.slc.cpg/sg154_2_cif.got.tgz:2814.got - 2010.04.03 13:51:21.
