data_PCOD8322437
_publ_section_title
;
Structure prediction by ZEFSAII (Michael W. Deem and Ramdas Pophale) SiO2 
 PCOD8322437
Probable space group: P 32 2 1
;
_chemical_formula_sum "Si O2"
_cell_formula_units_Z 45
_cell_length_a 11.839832
_cell_length_b 11.839832
_cell_length_c 16.442091
_cell_angle_alpha 90.000000
_cell_angle_beta 90.000000
_cell_angle_gamma 120.000000
_cell_volume 1996.083751
_symmetry_space_group_name_H-M "P 32 2 1"
_symmetry_group_IT_number 154
_symmetry_cell_setting 'hexagonal'
loop_
_space_group_symop_operation_xyz
x,y,z
-y,x-y,2/3+z
-x+y,-x,1/3+z
x-y,-y,1/3-z
-x,-x+y,2/3-z
y,x,-z
loop_
_atom_site_type_symbol
_atom_site_label
_atom_site_fract_x
_atom_site_fract_y
_atom_site_fract_z
Si Si1 0.725955 0.653958 0.109570
Si Si2 0.482158 0.482158 0.000000
Si Si3 0.554146 0.763002 0.723069
Si Si4 0.507063 0.834515 0.418458
Si Si5 0.686211 0.554130 0.449630
Si Si6 0.329317 0.446867 0.299050
Si Si7 0.334670 0.199738 0.542157
Si Si8 0.475562 0.734577 0.256847
O O1 0.591895 0.532412 0.071962
O O2 0.755691 0.641175 0.204330
O O3 0.849256 0.660986 0.064643
O O4 0.738228 0.792923 0.086645
O O5 0.348716 0.455183 0.044437
O O6 0.406324 0.649987 0.743104
O O7 0.612987 0.737763 0.639975
O O8 0.557130 0.806060 0.501844
O O9 0.555366 0.783195 0.341893
O O10 0.559058 0.987119 0.408572
O O11 0.634328 0.634328 0.500000
O O12 0.573328 0.406486 0.437295
O O13 0.318585 0.426922 0.396821
O O14 0.358087 0.587774 0.268561
O O15 0.232390 0.232390 0.500000
O O16 0.423582 0.173268 0.478807
#
# Coordination Sequence:
#
# PCOD8322437 Si02
#       8
#     6   3   6   6   6   6   6   6
#     4  12  27  45  76 106 143 204 250 307 378 455
#     4  12  26  52  78 110 160 192 260 324 392 470
#     4  11  27  44  74 109 144 196 243 316 387 449
#     4  11  24  42  69 105 145 188 239 299 378 439
#     4  11  26  44  66 105 150 185 239 303 380 451
#     4  12  25  45  73 108 149 190 251 316 376 452
#     4  12  25  46  70 105 149 201 254 303 369 459
#     4  11  24  37  70 103 144 186 236 304 380 440
#
# _framework density 22.544142999999998
#
# number of rings (size 3 to 8) (size 9 to 14) (size 15 to 20)
#    0.000    0.533    2.667    5.200   14.933    0.000 
#    0.000    0.667    2.933    0.000    0.000    0.000 
#    0.000    0.000    0.000    0.000    0.000    0.000 
#
# Total GULP energy -557699.104764 kJ/mol
# GULP energy per Si atom -12393.313439 kJ/mol
# Density = 2.249283 g / cm^3
# Si number density = 22.544143 Si / 1000 Ang^3
#
#
#
# Elastic Constant Matrix: (Units=GPa)
#
#
# Indices 1 2 3 4 5 6 
#
# 1 98.5317 40.3356 30.3024 2.7068 0.0000 0.0000
# 2 40.3356 98.5317 30.3024 -2.7068 0.0000 0.0000
# 3 30.3024 30.3024 131.1654 0.0000 0.0000 0.0000
# 4 2.7068 -2.7068 0.0000 39.0173 0.0000 0.0000
# 5 0.0000 0.0000 0.0000 0.0000 39.0173 2.7068
# 6 0.0000 0.0000 0.0000 0.0000 2.7068 29.0980
#
#
#
# Elastic Compliance Matrix: (Units=1/GPa)
#
#
# Indices 1 2 3 4 5 6 
#
# 1 0.012652 -0.004643 -0.001850 -0.001200 0.000000 0.000000
# 2 -0.004643 0.012652 -0.001850 0.001200 0.000000 0.000000
# 3 -0.001850 -0.001850 0.008479 0.000000 0.000000 0.000000
# 4 -0.001200 0.001200 0.000000 0.025796 0.000000 0.000000
# 5 0.000000 0.000000 0.000000 0.000000 0.025796 -0.002400
# 6 0.000000 0.000000 0.000000 0.000000 -0.002400 0.034590
#
#
# Mechanical properties :
#
#
# Convention : Reuss Voigt Hill
#
# Bulk Modulus (GPa) = 58.49564 58.90104 58.69834
# Shear Modulus (GPa) = 35.12472 36.57907 35.85190
#
# Velocity S-wave (km/s) = 3.95149 4.03246 3.99218
# Velocity P-wave (km/s) = 6.84270 6.91843 6.88067
#
# Compressibility (1/GPa) = 0.01709529
#
# Stress axis : x y z
#
# Youngs Moduli (GPa) = 79.04052 79.04052 117.94077
#
# Poissons Ratio (x) = 0.36700 0.21821
# Poissons Ratio (y) = 0.36700 0.21821
# Poissons Ratio (z) = 0.14624 0.14624
#
# Static dielectric constant tensor:
#      x y z
#    x 3.811340 0.000000 0.000000 
#    y 0.000000 3.811340 0.000000 
#    z 0.000000 0.000000 4.710960 
# 
# 
# High freq. dielectric constant tensor:
#      x y z
#    x 1.867020 0.000000 0.000000 
#    y 0.000000 1.867020 0.000000 
#    z 0.000000 0.000000 1.922290 
# 
# From -- ./inp_files/2510.got.cif
#   From: 2010.03.12/outbox.cif.g09.slc.cpg/sg154_2_cif.got.tgz:2510.got - 2010.04.03 13:51:21.
