data_PCOD8322109
_publ_section_title
;
Structure prediction by ZEFSAII (Michael W. Deem and Ramdas Pophale) SiO2 
 PCOD8322109
Probable space group: P 31 2 1
;
_chemical_formula_sum "Si O2"
_cell_formula_units_Z 36
_cell_length_a 8.910721
_cell_length_b 8.910721
_cell_length_c 25.473022
_cell_angle_alpha 90.000000
_cell_angle_beta 90.000000
_cell_angle_gamma 120.000000
_cell_volume 1751.607492
_symmetry_space_group_name_H-M "P 31 2 1"
_symmetry_group_IT_number 152
_symmetry_cell_setting 'hexagonal'
loop_
_space_group_symop_operation_xyz
x,y,z
-y,x-y,1/3+z
-x+y,-x,2/3+z
x-y,-y,2/3-z
-x,-x+y,1/3-z
y,x,-z
loop_
_atom_site_type_symbol
_atom_site_label
_atom_site_fract_x
_atom_site_fract_y
_atom_site_fract_z
Si Si1 0.492332 0.158934 0.102561
Si Si2 0.131049 0.313105 0.622830
Si Si3 0.957969 0.450437 0.796285
Si Si4 0.011394 0.211531 0.357671
Si Si5 0.131462 0.709411 0.708480
Si Si6 0.416333 0.681995 0.653488
O O1 0.564997 0.337083 0.134189
O O2 0.452220 0.009882 0.143787
O O3 0.645493 0.188058 0.062583
O O4 0.317165 0.120212 0.070859
O O5 0.134414 0.132661 0.624480
O O6 0.315879 0.481219 0.635154
O O7 0.000000 0.303894 0.666667
O O8 0.057283 0.339932 0.567315
O O9 0.083065 0.633752 0.767105
O O10 0.128144 0.413535 0.348374
O O11 0.892380 0.129400 0.303996
O O12 0.317901 0.733159 0.696481
O O13 0.000000 0.566608 0.666667
#
# Coordination Sequence:
#
# PCOD8322109 Si02
#       6
#     6   6   6   6   6   6
#     4  10  24  39  61  88 124 163 200 251 314 368
#     4  11  20  36  65  93 116 159 208 248 307 364
#     4  11  22  41  62  85 126 165 201 244 319 371
#     4  11  23  36  65  95 119 151 212 264 292 359
#     4  11  18  41  63  83 119 164 200 246 303 368
#     4  10  20  40  60  92 119 156 210 244 301 366
#
# _framework density 20.55255
#
# number of rings (size 3 to 8) (size 9 to 14) (size 15 to 20)
#    0.000    1.333    6.667    2.500    2.333    2.000 
#    0.000    0.833    3.667    0.000    0.000    0.000 
#    0.000    0.000    0.000    0.000    0.000    0.000 
#
# Total GULP energy -446078.244546 kJ/mol
# GULP energy per Si atom -12391.062348 kJ/mol
# Density = 2.050577 g / cm^3
# Si number density = 20.552550 Si / 1000 Ang^3
#
#
#
# Elastic Constant Matrix: (Units=GPa)
#
#
# Indices 1 2 3 4 5 6 
#
# 1 76.7373 17.7663 11.7077 4.7646 0.0000 0.0000
# 2 17.7663 76.7373 11.7077 -4.7646 0.0000 0.0000
# 3 11.7077 11.7077 59.9662 0.0000 0.0000 0.0000
# 4 4.7646 -4.7646 0.0000 25.9376 0.0000 0.0000
# 5 0.0000 0.0000 0.0000 0.0000 25.9376 4.7646
# 6 0.0000 0.0000 0.0000 0.0000 4.7646 29.4855
#
#
#
# Elastic Compliance Matrix: (Units=1/GPa)
#
#
# Indices 1 2 3 4 5 6 
#
# 1 0.014298 -0.003178 -0.002171 -0.003210 0.000000 0.000000
# 2 -0.003178 0.014298 -0.002171 0.003210 0.000000 0.000000
# 3 -0.002171 -0.002171 0.017524 0.000000 0.000000 0.000000
# 4 -0.003210 0.003210 0.000000 0.039733 0.000000 0.000000
# 5 0.000000 0.000000 0.000000 0.000000 0.039733 -0.006421
# 6 0.000000 0.000000 0.000000 0.000000 -0.006421 0.034953
#
#
# Mechanical properties :
#
#
# Convention : Reuss Voigt Hill
#
# Bulk Modulus (GPa) = 32.17610 32.86713 32.52161
# Shear Modulus (GPa) = 26.89051 27.75608 27.32329
#
# Velocity S-wave (km/s) = 3.62108 3.67889 3.65010
# Velocity P-wave (km/s) = 5.75955 5.83713 5.79847
#
# Compressibility (1/GPa) = 0.03107897
#
# Stress axis : x y z
#
# Youngs Moduli (GPa) = 69.94040 69.94040 57.06534
#
# Poissons Ratio (x) = 0.22230 0.12389
# Poissons Ratio (y) = 0.22230 0.12389
# Poissons Ratio (z) = 0.15184 0.15184
#
# Static dielectric constant tensor:
#      x y z
#    x 3.965890 0.000000 0.000000 
#    y 0.000000 3.965890 0.000000 
#    z 0.000000 0.000000 3.453300 
# 
# 
# High freq. dielectric constant tensor:
#      x y z
#    x 1.812310 0.000000 0.000000 
#    y 0.000000 1.812310 0.000000 
#    z 0.000000 0.000000 1.768220 
# 
# From -- ./inp_files/3398.got.cif
#   From: 2010.03.12/outbox.cif.g09.slc.cpg/sg152_2_cif.got.tgz:3398.got - 2010.04.03 13:45:27.
