data_PCOD8322900
_publ_section_title
;
Structure prediction by ZEFSAII (Michael W. Deem and Ramdas Pophale) SiO2 
 PCOD8322900
Probable space group: R 3 C
;
_chemical_formula_sum "Si O2"
_cell_formula_units_Z 102
_cell_length_a 18.076656
_cell_length_b 18.076656
_cell_length_c 17.608100
_cell_angle_alpha 90.000000
_cell_angle_beta 90.000000
_cell_angle_gamma 120.000000
_cell_volume 4982.867221
_symmetry_space_group_name_H-M "R 3 C"
_symmetry_group_IT_number 161
_symmetry_cell_setting 'hexagonal'
loop_
_space_group_symop_operation_xyz
x,y,z
-y,x-y,z
-x+y,-x,z
-x+y,y,1/2+z
x,x-y,1/2+z
-y,-x,1/2+z
2/3+x,1/3+y,1/3+z
2/3-y,1/3+x-y,1/3+z
2/3-x+y,1/3-x,1/3+z
2/3-x+y,1/3+y,5/6+z
2/3+x,1/3+x-y,5/6+z
2/3-y,1/3-x,5/6+z
1/3+x,2/3+y,2/3+z
1/3-y,2/3+x-y,2/3+z
1/3-x+y,2/3-x,2/3+z
1/3-x+y,2/3+y,1/6+z
1/3+x,2/3+x-y,1/6+z
1/3-y,2/3-x,1/6+z
loop_
_atom_site_type_symbol
_atom_site_label
_atom_site_fract_x
_atom_site_fract_y
_atom_site_fract_z
Si Si1 0.648880 0.576614 0.695166
Si Si2 0.614111 0.147408 0.050445
Si Si3 0.660693 0.562254 0.975926
Si Si4 0.754142 0.166128 0.943198
Si Si5 0.697902 0.187842 0.327624
Si Si6 0.666668 0.333334 0.348501
Si Si7 0.000000 0.000000 0.697637
O O1 0.609523 0.508142 0.628658
O O2 0.694903 0.670755 0.660003
O O3 0.574135 0.559755 0.753365
O O4 0.711512 0.557480 0.746908
O O5 0.517913 0.115531 0.026334
O O6 0.664494 0.249208 0.062088
O O7 0.664891 0.124734 0.988045
O O8 0.760530 0.592622 0.994470
O O9 0.644792 0.536121 0.886684
O O10 0.747374 0.209782 0.864859
O O11 0.650658 0.242710 0.316945
O O12 0.666668 0.333334 0.439814
#
# Coordination Sequence:
#
# PCOD8322900 Si02
#       7
#    18  18  18  18  18   6   6
#     4  12  26  40  64 110 138 169 231 290 338 406
#     4  12  22  44  73  97 133 178 236 279 336 410
#     4  10  23  45  67  94 136 183 222 277 348 413
#     4  10  23  44  69  89 133 192 216 270 354 415
#     4  10  22  42  68  96 132 176 225 276 340 405
#     4  12  18  43  68  94 117 187 230 265 336 412
#     4  12  18  46  71  94 123 181 236 265 336 397
#
# _framework density 20.470141999999999
#
# number of rings (size 3 to 8) (size 9 to 14) (size 15 to 20)
#    1.059    0.000    5.294    2.118    0.000    5.647 
#    0.000    1.765    0.000    0.000    0.000    0.000 
#    0.000    0.000    0.000    0.000    0.000    0.000 
#
# Total GULP energy -421456.150692 kJ/mol
# GULP energy per Si atom -12395.769138 kJ/mol
# Density = 2.042355 g / cm^3
# Si number density = 20.470142 Si / 1000 Ang^3
#
#
#
# Elastic Constant Matrix: (Units=GPa)
#
#
# Indices 1 2 3 4 5 6 
#
# 1 87.4639 37.2608 38.2948 3.4415 0.0000 0.0000
# 2 37.2608 87.4652 38.2954 -3.4413 0.0000 0.0000
# 3 38.2948 38.2954 82.1971 0.0000 0.0000 0.0000
# 4 3.4415 -3.4413 0.0000 18.1847 0.0000 0.0000
# 5 0.0000 0.0000 0.0000 0.0000 18.1849 3.4413
# 6 0.0000 0.0000 0.0000 0.0000 3.4413 25.1021
#
#
#
# Elastic Compliance Matrix: (Units=1/GPa)
#
#
# Indices 1 2 3 4 5 6 
#
# 1 0.015840 -0.004609 -0.005232 -0.003870 0.000000 0.000000
# 2 -0.004609 0.015840 -0.005232 0.003870 0.000000 0.000000
# 3 -0.005232 -0.005232 0.017041 0.000000 0.000000 0.000000
# 4 -0.003870 0.003870 0.000000 0.056456 0.000000 0.000000
# 5 0.000000 0.000000 0.000000 0.000000 0.056455 -0.007740
# 6 0.000000 0.000000 0.000000 0.000000 -0.007740 0.040898
#
#
# Mechanical properties :
#
#
# Convention : Reuss Voigt Hill
#
# Bulk Modulus (GPa) = 53.84051 53.86981 53.85516
# Shear Modulus (GPa) = 20.93191 21.84602 21.38897
#
# Velocity S-wave (km/s) = 3.20122 3.27037 3.23598
# Velocity P-wave (km/s) = 6.32636 6.37447 6.35046
#
# Compressibility (1/GPa) = 0.01857337
#
# Stress axis : x y z
#
# Youngs Moduli (GPa) = 63.13096 63.13167 58.68112
#
# Poissons Ratio (x) = 0.29100 0.30703
# Poissons Ratio (y) = 0.29100 0.30704
# Poissons Ratio (z) = 0.33032 0.33032
#
# Static dielectric constant tensor:
#      x y z
#    x 3.675280 0.000000 0.000000 
#    y 0.000000 3.675270 0.000000 
#    z 0.000000 0.000000 3.507680 
# 
# 
# High freq. dielectric constant tensor:
#      x y z
#    x 1.797810 0.000000 0.000000 
#    y 0.000000 1.797810 0.000000 
#    z 0.000000 0.000000 1.784750 
# 
# From -- ./inp_files/1734.got.cif
#   From: 2010.03.12/outbox.cif.g09.slc.cpg/sg161_cif.got.tgz:1734.got - 2010.04.02 06:27:14.
