data_PCOD8322480
_publ_section_title
;
Structure prediction by ZEFSAII (Michael W. Deem and Ramdas Pophale) SiO2 
 PCOD8322480
Probable space group: R 3 2
;
_chemical_formula_sum "Si O2"
_cell_formula_units_Z 96
_cell_length_a 22.358144
_cell_length_b 22.358144
_cell_length_c 11.497782
_cell_angle_alpha 90.000000
_cell_angle_beta 90.000000
_cell_angle_gamma 120.000000
_cell_volume 4977.556515
_symmetry_space_group_name_H-M "R 3 2"
_symmetry_group_IT_number 155
_symmetry_cell_setting 'hexagonal'
loop_
_space_group_symop_operation_xyz
x,y,z
-y,x-y,z
-x+y,-x,z
x-y,-y,-z
-x,-x+y,-z
y,x,-z
2/3+x,1/3+y,1/3+z
2/3-y,1/3+x-y,1/3+z
2/3-x+y,1/3-x,1/3+z
2/3+x-y,1/3-y,1/3-z
2/3-x,1/3-x+y,1/3-z
2/3+y,1/3+x,1/3-z
1/3+x,2/3+y,2/3+z
1/3-y,2/3+x-y,2/3+z
1/3-x+y,2/3-x,2/3+z
1/3+x-y,2/3-y,2/3-z
1/3-x,2/3-x+y,2/3-z
1/3+y,2/3+x,2/3-z
loop_
_atom_site_type_symbol
_atom_site_label
_atom_site_fract_x
_atom_site_fract_y
_atom_site_fract_z
Si Si1 0.456110 0.317511 0.461206
Si Si2 0.812559 0.000000 0.500000
Si Si3 0.540077 0.019340 0.752115
Si Si4 0.208641 0.938438 0.410559
Si Si5 0.333334 0.666668 0.305145
Si Si6 0.456473 0.456473 0.500000
Si Si7 0.409465 0.589039 0.978835
O O1 0.489526 0.333334 0.333334
O O2 0.378651 0.255781 0.465620
O O3 0.451686 0.382702 0.506425
O O4 0.502417 0.295339 0.536006
O O5 0.748769 0.952444 0.584431
O O6 0.832015 0.951730 0.429276
O O7 0.496735 0.033808 0.845112
O O8 0.507180 0.003780 0.620570
O O9 0.265178 0.931844 0.333334
O O10 0.158637 0.951068 0.322245
O O11 0.246598 0.000000 0.500000
O O12 0.333334 0.666668 0.166667
O O13 0.407806 0.682215 0.354107
#
# Coordination Sequence:
#
# PCOD8322480 Si02
#       7
#    18   9  18  18   6   9  18
#     4  10  20  35  57  89 129 166 202 251 306 374
#     4  10  19  30  58  86 126 161 198 248 314 354
#     4  10  20  35  56  87 124 162 200 252 304 371
#     4  11  24  43  67  89 121 160 210 265 322 376
#     4  12  24  39  64  95 118 159 213 262 305 367
#     4  10  19  32  58  92 126 163 206 240 310 376
#     4  11  22  39  61  93 127 160 207 259 311 370
#
# _framework density 19.286572
#
# number of rings (size 3 to 8) (size 9 to 14) (size 15 to 20)
#    0.000    1.500    4.688    1.125    2.625    0.000 
#    1.688    0.938    0.000    0.000    0.000    0.000 
#    0.000    0.000    0.000    0.000    0.000    0.000 
#
# Total GULP energy -396572.118366 kJ/mol
# GULP energy per Si atom -12392.878699 kJ/mol
# Density = 1.924268 g / cm^3
# Si number density = 19.286572 Si / 1000 Ang^3
#
#
#
# Elastic Constant Matrix: (Units=GPa)
#
#
# Indices 1 2 3 4 5 6 
#
# 1 79.2949 29.7447 23.4870 -7.0041 0.0027 0.0000
# 2 29.7447 79.2941 23.4869 7.0063 -0.0033 0.0000
# 3 23.4870 23.4869 87.2721 0.0009 0.0015 -0.0001
# 4 -7.0041 7.0063 0.0009 67.0157 0.0049 -0.0035
# 5 0.0027 -0.0033 0.0015 0.0049 67.0321 -7.0075
# 6 0.0000 0.0000 -0.0001 -0.0035 -7.0075 24.7756
#
#
#
# Elastic Compliance Matrix: (Units=1/GPa)
#
#
# Indices 1 2 3 4 5 6 
#
# 1 0.015585 -0.005211 -0.002792 0.002174 -0.000001 0.000000
# 2 -0.005211 0.015585 -0.002792 -0.002174 0.000001 0.000000
# 3 -0.002792 -0.002792 0.012961 0.000000 0.000000 0.000000
# 4 0.002174 -0.002174 0.000000 0.015376 -0.000001 0.000002
# 5 -0.000001 0.000001 0.000000 -0.000001 0.015373 0.004348
# 6 0.000000 0.000000 0.000000 0.000002 0.004348 0.041592
#
#
# Mechanical properties :
#
#
# Convention : Reuss Voigt Hill
#
# Bulk Modulus (GPa) = 44.36302 44.36649 44.36476
# Shear Modulus (GPa) = 34.34630 43.04085 38.69357
#
# Velocity S-wave (km/s) = 4.22458 4.72916 4.48397
# Velocity P-wave (km/s) = 6.84456 7.27143 7.06122
#
# Compressibility (1/GPa) = 0.02254130
#
# Stress axis : x y z
#
# Youngs Moduli (GPa) = 64.16449 64.16359 77.15390
#
# Poissons Ratio (x) = 0.33438 0.21540
# Poissons Ratio (y) = 0.33438 0.21540
# Poissons Ratio (z) = 0.17914 0.17913
#
# Static dielectric constant tensor:
#      x y z
#    x -0.194640 0.000600 0.000020 
#    y 0.000600 -0.196110 -0.000020 
#    z 0.000020 -0.000020 3.672760 
# 
# 
# High freq. dielectric constant tensor:
#      x y z
#    x 1.737920 0.000000 0.000000 
#    y 0.000000 1.737920 0.000000 
#    z 0.000000 0.000000 1.757260 
# 
# From -- ./inp_files/4023.got.cif
#   From: 2010.03.12/outbox.cif.g09.slc.cpg/sg155_3_cif.got.tgz:4023.got - 2010.04.03 13:54:13.
