data_PCOD8322788
_publ_section_title
;
Structure prediction by ZEFSAII (Michael W. Deem and Ramdas Pophale) SiO2 
 PCOD8322788
Probable space group: P 3 1 C
;
_chemical_formula_sum "Si O2"
_cell_formula_units_Z 42
_cell_length_a 16.431274
_cell_length_b 16.431274
_cell_length_c 9.523578
_cell_angle_alpha 90.000000
_cell_angle_beta 90.000000
_cell_angle_gamma 120.000000
_cell_volume 2226.759175
_symmetry_space_group_name_H-M "P 3 1 C"
_symmetry_group_IT_number 159
_symmetry_cell_setting 'hexagonal'
loop_
_space_group_symop_operation_xyz
x,y,z
-y,x-y,z
-x+y,-x,z
y,x,1/2+z
x-y,-y,1/2+z
-x,-x+y,1/2+z
loop_
_atom_site_type_symbol
_atom_site_label
_atom_site_fract_x
_atom_site_fract_y
_atom_site_fract_z
Si Si1 0.858208 0.075986 0.941760
Si Si2 0.415911 0.890586 0.943037
Si Si3 0.453590 0.253667 0.442146
Si Si4 0.864343 0.193154 0.198603
Si Si5 0.863438 0.192516 0.684056
Si Si6 0.397936 0.998970 0.194161
Si Si7 0.133746 0.935886 0.941117
O O1 0.831458 0.113344 0.803167
O O2 0.966699 0.100275 0.943985
O O3 0.803008 0.964230 0.944653
O O4 0.829942 0.116755 0.074882
O O5 0.312555 0.800416 0.941552
O O6 0.484327 0.848801 0.940002
O O7 0.436705 0.960562 0.813792
O O8 0.435820 0.957281 0.076369
O O9 0.391282 0.224145 0.300344
O O10 0.394218 0.226719 0.586789
O O11 0.941844 0.189052 0.298790
O O12 0.914062 0.299398 0.138086
O O13 0.913023 0.297482 0.749677
O O14 0.940796 0.193724 0.577297
#
# Coordination Sequence:
#
# PCOD8322788 Si02
#       7
#     6   6   6   6   6   6   6
#     4  12  20  34  54  79 117 165 201 242 268 326
#     4  10  20  38  64  88 115 141 195 235 302 351
#     4   9  21  39  59  87 112 147 179 251 302 355
#     4  10  20  36  55  79 118 153 197 235 288 336
#     4  10  20  36  55  79 118 153 197 235 288 336
#     4  10  18  36  64  84 104 158 196 238 270 356
#     4  11  21  33  51  80 116 159 205 242 266 318
#
# _framework density 18.861491000000001
#
# number of rings (size 3 to 8) (size 9 to 14) (size 15 to 20)
#    0.000    1.714    2.857    3.143    0.000    0.000 
#   10.286    2.857    0.000    0.000    0.000    4.000 
#    0.000    0.000    0.000    0.000    0.000    0.000 
#
# Total GULP energy -520560.552446 kJ/mol
# GULP energy per Si atom -12394.298868 kJ/mol
# Density = 1.881856 g / cm^3
# Si number density = 18.861491 Si / 1000 Ang^3
#
#
#
# Elastic Constant Matrix: (Units=GPa)
#
#
# Indices 1 2 3 4 5 6 
#
# 1 102.3862 30.2599 33.5632 0.0000 -0.8350 0.0000
# 2 30.2599 102.3862 33.5632 0.0000 0.8350 0.0000
# 3 33.5632 33.5632 85.2665 0.0000 0.0000 0.0000
# 4 0.0000 0.0000 0.0000 15.3091 0.0000 0.8350
# 5 -0.8350 0.8350 0.0000 0.0000 15.3091 0.0000
# 6 0.0000 0.0000 0.0000 0.8350 0.0000 36.0632
#
#
#
# Elastic Compliance Matrix: (Units=1/GPa)
#
#
# Indices 1 2 3 4 5 6 
#
# 1 0.011648 -0.002234 -0.003706 0.000000 0.000757 0.000000
# 2 -0.002234 0.011648 -0.003706 0.000000 -0.000757 0.000000
# 3 -0.003706 -0.003706 0.014645 0.000000 0.000000 0.000000
# 4 0.000000 0.000000 0.000000 0.065403 0.000000 -0.001514
# 5 0.000757 -0.000757 0.000000 0.000000 0.065403 0.000000
# 6 0.000000 0.000000 0.000000 -0.001514 0.000000 0.027764
#
#
# Mechanical properties :
#
#
# Convention : Reuss Voigt Hill
#
# Bulk Modulus (GPa) = 53.61682 53.86794 53.74238
# Shear Modulus (GPa) = 22.52053 26.17978 24.35016
#
# Velocity S-wave (km/s) = 3.45917 3.72963 3.59694
# Velocity P-wave (km/s) = 6.66654 6.86794 6.76799
#
# Compressibility (1/GPa) = 0.01865086
#
# Stress axis : x y z
#
# Youngs Moduli (GPa) = 85.85079 85.85079 68.28163
#
# Poissons Ratio (x) = 0.19179 0.25303
# Poissons Ratio (y) = 0.19179 0.25303
# Poissons Ratio (z) = 0.31813 0.31813
#
# Static dielectric constant tensor:
#      x y z
#    x 3.250370 0.000000 0.000000 
#    y 0.000000 3.250370 0.000000 
#    z 0.000000 0.000000 3.545490 
# 
# 
# High freq. dielectric constant tensor:
#      x y z
#    x 1.720550 0.000000 0.000000 
#    y 0.000000 1.720550 0.000000 
#    z 0.000000 0.000000 1.739370 
# 
# From -- ./inp_files/454.got.cif
#   From: 2010.03.12/outbox.cif.g09.slc.cpg/sg159_cif.got.tgz:454.got - 2010.04.03 14:00:19.
