data_PCOD8322574
_publ_section_title
;
Structure prediction by ZEFSAII (Michael W. Deem and Ramdas Pophale) SiO2 
 PCOD8322574
Probable space group: R 3 2
;
_chemical_formula_sum "Si O2"
_cell_formula_units_Z 72
_cell_length_a 22.440736
_cell_length_b 22.440736
_cell_length_c 8.358486
_cell_angle_alpha 90.000000
_cell_angle_beta 90.000000
_cell_angle_gamma 120.000000
_cell_volume 3645.293022
_symmetry_space_group_name_H-M "R 3 2"
_symmetry_group_IT_number 155
_symmetry_cell_setting 'hexagonal'
loop_
_space_group_symop_operation_xyz
x,y,z
-y,x-y,z
-x+y,-x,z
x-y,-y,-z
-x,-x+y,-z
y,x,-z
2/3+x,1/3+y,1/3+z
2/3-y,1/3+x-y,1/3+z
2/3-x+y,1/3-x,1/3+z
2/3+x-y,1/3-y,1/3-z
2/3-x,1/3-x+y,1/3-z
2/3+y,1/3+x,1/3-z
1/3+x,2/3+y,2/3+z
1/3-y,2/3+x-y,2/3+z
1/3-x+y,2/3-x,2/3+z
1/3+x-y,2/3-y,2/3-z
1/3-x,2/3-x+y,2/3-z
1/3+y,2/3+x,2/3-z
loop_
_atom_site_type_symbol
_atom_site_label
_atom_site_fract_x
_atom_site_fract_y
_atom_site_fract_z
Si Si1 0.536395 0.289800 0.679178
Si Si2 0.792337 0.373697 0.493717
Si Si3 0.097616 0.833813 0.893655
Si Si4 0.283980 0.406043 0.422074
O O1 0.573392 0.338087 0.525108
O O2 0.545588 0.223700 0.645550
O O3 0.456147 0.268682 0.690094
O O4 0.577921 0.333334 0.833334
O O5 0.758470 0.333334 0.333334
O O6 0.873977 0.420894 0.473960
O O7 0.162590 0.829256 0.833334
O O8 0.031817 0.777495 0.791994
O O9 0.089781 0.819060 0.081416
O O10 0.259556 0.333334 0.333334
#
# Coordination Sequence:
#
# PCOD8322574 Si02
#       4
#    18  18  18  18
#     4  11  23  38  61  95 127 164 202 255 317 374
#     4  11  21  41  62  87 125 166 209 252 307 377
#     4  10  23  39  61  90 117 167 209 249 313 372
#     4  10  23  38  59  91 126 159 201 257 316 371
#
# _framework density 19.751498000000002
#
# number of rings (size 3 to 8) (size 9 to 14) (size 15 to 20)
#    0.000    1.500    2.500    2.000   10.500    0.000 
#    0.000    0.000    0.000    1.500    0.000    0.000 
#    0.000    0.000    0.000    0.000    0.000    0.000 
#
# Total GULP energy -297514.937541 kJ/mol
# GULP energy per Si atom -12396.455731 kJ/mol
# Density = 1.970654 g / cm^3
# Si number density = 19.751498 Si / 1000 Ang^3
#
#
#
# Elastic Constant Matrix: (Units=GPa)
#
#
# Indices 1 2 3 4 5 6 
#
# 1 94.5225 33.6918 45.6160 -0.1313 -0.0495 0.0030
# 2 33.6918 94.5308 45.6101 0.1498 -0.0486 0.0025
# 3 45.6160 45.6101 97.4176 0.0174 -0.0749 0.0110
# 4 -0.1313 0.1498 0.0174 31.5702 0.0125 0.0023
# 5 -0.0495 -0.0486 -0.0749 0.0125 31.5013 -0.1372
# 6 0.0030 0.0025 0.0110 0.0023 -0.1372 30.4204
#
#
#
# Elastic Compliance Matrix: (Units=1/GPa)
#
#
# Indices 1 2 3 4 5 6 
#
# 1 0.014068 -0.002371 -0.005477 0.000073 0.000005 0.000001
# 2 -0.002371 0.014065 -0.005475 -0.000074 0.000005 0.000001
# 3 -0.005477 -0.005475 0.015393 -0.000005 0.000020 -0.000004
# 4 0.000073 -0.000074 -0.000005 0.031676 -0.000013 -0.000002
# 5 0.000005 0.000005 0.000020 -0.000013 0.031745 0.000143
# 6 0.000001 0.000001 -0.000004 -0.000002 0.000143 0.032873
#
#
# Mechanical properties :
#
#
# Convention : Reuss Voigt Hill
#
# Bulk Modulus (GPa) = 59.24276 59.58964 59.41620
# Shear Modulus (GPa) = 29.05371 29.46857 29.26114
#
# Velocity S-wave (km/s) = 3.83947 3.86679 3.85316
# Velocity P-wave (km/s) = 7.05086 7.08317 7.06703
#
# Compressibility (1/GPa) = 0.01687970
#
# Stress axis : x y z
#
# Youngs Moduli (GPa) = 71.08275 71.09610 64.96436
#
# Poissons Ratio (x) = 0.16860 0.35582
# Poissons Ratio (y) = 0.16857 0.35567
# Poissons Ratio (z) = 0.38933 0.38924
#
# Static dielectric constant tensor:
#      x y z
#    x 3.585040 -0.000010 -0.000010 
#    y -0.000010 3.585050 0.000000 
#    z -0.000010 0.000000 3.654450 
# 
# 
# High freq. dielectric constant tensor:
#      x y z
#    x 1.750680 0.000000 0.000000 
#    y 0.000000 1.750680 0.000000 
#    z 0.000000 0.000000 1.785090 
# 
# From -- ./inp_files/2106.got.cif
#   From: 2010.03.12/outbox.cif.g09.slc.cpg/sg155_2_cif.got.tgz:2106.got - 2010.04.03 13:54:13.
