data_PCOD8322259
_publ_section_title
;
Structure prediction by ZEFSAII (Michael W. Deem and Ramdas Pophale) SiO2 
 PCOD8322259
Probable space group: P 32 1 2
;
_chemical_formula_sum "Si O2"
_cell_formula_units_Z 36
_cell_length_a 9.233095
_cell_length_b 9.233095
_cell_length_c 25.761394
_cell_angle_alpha 90.000000
_cell_angle_beta 90.000000
_cell_angle_gamma 120.000000
_cell_volume 1901.930310
_symmetry_space_group_name_H-M "P 32 1 2"
_symmetry_group_IT_number 153
_symmetry_cell_setting 'hexagonal'
loop_
_space_group_symop_operation_xyz
x,y,z
-y,x-y,2/3+z
-x+y,-x,1/3+z
-y,-x,1/3-z
-x+y,y,2/3-z
x,x-y,-z
loop_
_atom_site_type_symbol
_atom_site_label
_atom_site_fract_x
_atom_site_fract_y
_atom_site_fract_z
Si Si1 0.730994 0.907171 0.700958
Si Si2 0.290180 0.415937 0.781882
Si Si3 0.910409 0.916449 0.604007
Si Si4 0.649807 0.986617 0.212136
Si Si5 0.440757 0.847026 0.635189
Si Si6 0.727990 0.994118 0.098177
O O1 0.820826 0.838860 0.659670
O O2 0.622476 0.771559 0.744159
O O3 0.603047 0.954828 0.672750
O O4 0.892442 0.060430 0.729531
O O5 0.234329 0.468657 0.833334
O O6 0.189571 0.215575 0.775252
O O7 0.486906 0.479302 0.786853
O O8 0.260354 0.508844 0.734448
O O9 0.082519 0.914751 0.594704
O O10 0.807449 0.161865 0.227936
O O11 0.669433 0.918464 0.155990
O O12 0.277495 0.722505 0.666667
O O13 0.394459 0.967435 0.603508
#
# Coordination Sequence:
#
# PCOD8322259 Si02
#       6
#     6   6   6   6   6   6
#     4   9  19  37  58  84 116 156 200 252 297 357
#     4  11  21  37  61  88 114 160 201 244 300 367
#     4   9  21  36  62  86 116 155 209 245 294 373
#     4  10  20  37  58  86 124 158 195 247 313 364
#     4  11  21  35  62  88 118 155 209 256 298 362
#     4  10  22  37  61  90 121 163 201 254 309 367
#
# _framework density 18.928139000000002
#
# number of rings (size 3 to 8) (size 9 to 14) (size 15 to 20)
#    0.000    2.000    3.333    0.000    9.333    0.000 
#    0.000    0.000   14.667    4.000    0.000    0.000 
#    0.000    0.000    0.000    0.000    0.000    0.000 
#
# Total GULP energy -446018.140156 kJ/mol
# GULP energy per Si atom -12389.392782 kJ/mol
# Density = 1.888506 g / cm^3
# Si number density = 18.928139 Si / 1000 Ang^3
#
#
#
# Elastic Constant Matrix: (Units=GPa)
#
#
# Indices 1 2 3 4 5 6 
#
# 1 101.5050 49.4381 48.8865 0.0001 -3.3251 0.0000
# 2 49.4381 101.5050 48.8865 -0.0001 3.3251 0.0000
# 3 48.8865 48.8865 99.6641 0.0000 0.0000 0.0000
# 4 0.0001 -0.0001 0.0000 32.2401 0.0000 3.3251
# 5 -3.3251 3.3251 0.0000 0.0000 32.2401 0.0001
# 6 0.0000 0.0000 0.0000 3.3251 0.0001 26.0334
#
#
#
# Elastic Compliance Matrix: (Units=1/GPa)
#
#
# Indices 1 2 3 4 5 6 
#
# 1 0.014586 -0.004876 -0.004763 0.000000 0.002007 0.000000
# 2 -0.004876 0.014586 -0.004763 0.000000 -0.002007 0.000000
# 3 -0.004763 -0.004763 0.014706 0.000000 0.000000 0.000000
# 4 0.000000 0.000000 0.000000 0.031431 0.000000 -0.004015
# 5 0.002007 -0.002007 0.000000 0.000000 0.031431 0.000000
# 6 0.000000 0.000000 0.000000 -0.004015 0.000000 0.038925
#
#
# Mechanical properties :
#
#
# Convention : Reuss Voigt Hill
#
# Bulk Modulus (GPa) = 66.33584 66.34406 66.33995
# Shear Modulus (GPa) = 27.85582 28.46692 28.16137
#
# Velocity S-wave (km/s) = 3.84039 3.88228 3.86139
# Velocity P-wave (km/s) = 7.40182 7.43120 7.41653
#
# Compressibility (1/GPa) = 0.01507481
#
# Stress axis : x y z
#
# Youngs Moduli (GPa) = 68.55731 68.55731 67.99794
#
# Poissons Ratio (x) = 0.33429 0.32387
# Poissons Ratio (y) = 0.33429 0.32387
# Poissons Ratio (z) = 0.32654 0.32654
#
# Static dielectric constant tensor:
#      x y z
#    x 3.371010 0.000000 0.000000 
#    y 0.000000 3.371010 0.000000 
#    z 0.000000 0.000000 3.898460 
# 
# 
# High freq. dielectric constant tensor:
#      x y z
#    x 1.713200 0.000000 0.000000 
#    y 0.000000 1.713200 0.000000 
#    z 0.000000 0.000000 1.757280 
# 
# From -- ./inp_files/4771.got.cif
#   From: 2010.03.12/outbox.cif.g09.slc.cpg/sg153_3_cif.got.tgz:4771.got - 2010.04.03 13:48:33.
