data_PCOD8322145
_publ_section_title
;
Structure prediction by ZEFSAII (Michael W. Deem and Ramdas Pophale) SiO2 
 PCOD8322145
Probable space group: P 31 2 1
;
_chemical_formula_sum "Si O2"
_cell_formula_units_Z 30
_cell_length_a 8.413811
_cell_length_b 8.413811
_cell_length_c 22.482489
_cell_angle_alpha 90.000000
_cell_angle_beta 90.000000
_cell_angle_gamma 120.000000
_cell_volume 1378.353222
_symmetry_space_group_name_H-M "P 31 2 1"
_symmetry_group_IT_number 152
_symmetry_cell_setting 'hexagonal'
loop_
_space_group_symop_operation_xyz
x,y,z
-y,x-y,1/3+z
-x+y,-x,2/3+z
x-y,-y,2/3-z
-x,-x+y,1/3-z
y,x,-z
loop_
_atom_site_type_symbol
_atom_site_label
_atom_site_fract_x
_atom_site_fract_y
_atom_site_fract_z
Si Si1 0.664473 0.869773 0.786351
Si Si2 0.520924 0.714784 0.483922
Si Si3 0.787441 0.001390 0.005433
Si Si4 0.063526 0.531356 0.920451
Si Si5 0.632476 0.797616 0.354060
O O1 0.483203 0.827114 0.821147
O O2 0.696757 0.982924 0.725737
O O3 0.643965 0.675463 0.770625
O O4 0.829416 0.000000 0.833334
O O5 0.701473 0.701473 0.500000
O O6 0.483671 0.832456 0.530845
O O7 0.542016 0.789571 0.417453
O O8 0.618537 0.943269 0.052169
O O9 0.956110 0.199096 0.025659
O O10 0.847860 0.847860 0.000000
O O11 0.185606 0.528156 0.975809
O O12 0.701522 0.000000 0.333334
#
# Coordination Sequence:
#
# PCOD8322145 Si02
#       5
#     6   6   6   6   6
#     4  10  24  42  64  96 140 175 226 290 344 410
#     4  11  22  41  68  93 136 183 227 281 350 417
#     4  10  21  43  68  96 134 179 224 295 350 406
#     4  11  23  41  71 101 134 188 238 284 360 417
#     4  10  22  42  65  99 137 178 231 287 345 414
#
# _framework density 21.765101999999999
#
# number of rings (size 3 to 8) (size 9 to 14) (size 15 to 20)
#    0.000    1.600    4.000    0.000    2.800    1.600 
#    7.200    1.000    0.000    0.000    0.000    0.000 
#    0.000    0.000    0.000    0.000    0.000    0.000 
#
# Total GULP energy -371669.369088 kJ/mol
# GULP energy per Si atom -12388.978970 kJ/mol
# Density = 2.171556 g / cm^3
# Si number density = 21.765102 Si / 1000 Ang^3
#
#
#
# Elastic Constant Matrix: (Units=GPa)
#
#
# Indices 1 2 3 4 5 6 
#
# 1 82.9219 34.0468 63.9847 -5.1437 -0.0002 0.0000
# 2 34.0468 82.9219 63.9847 5.1437 0.0002 0.0000
# 3 63.9847 63.9847 194.7247 0.0000 0.0000 0.0000
# 4 -5.1437 5.1437 0.0000 34.1250 0.0000 0.0002
# 5 -0.0002 0.0002 0.0000 0.0000 34.1250 -5.1437
# 6 0.0000 0.0000 0.0000 0.0002 -5.1437 24.4376
#
#
#
# Elastic Compliance Matrix: (Units=1/GPa)
#
#
# Indices 1 2 3 4 5 6 
#
# 1 0.017239 -0.003891 -0.004386 0.003185 0.000000 0.000000
# 2 -0.003891 0.017239 -0.004386 -0.003185 0.000000 0.000000
# 3 -0.004386 -0.004386 0.008018 0.000000 0.000000 0.000000
# 4 0.003185 -0.003185 0.000000 0.030264 0.000000 0.000000
# 5 0.000000 0.000000 0.000000 0.000000 0.030264 0.006370
# 6 0.000000 0.000000 0.000000 0.000000 0.006370 0.042261
#
#
# Mechanical properties :
#
#
# Convention : Reuss Voigt Hill
#
# Bulk Modulus (GPa) = 58.24279 76.06679 67.15479
# Shear Modulus (GPa) = 28.35496 31.77432 30.06464
#
# Velocity S-wave (km/s) = 3.61331 3.82498 3.72065
# Velocity P-wave (km/s) = 6.65025 7.38458 7.02702
#
# Compressibility (1/GPa) = 0.01716951
#
# Stress axis : x y z
#
# Youngs Moduli (GPa) = 58.00728 58.00728 124.72232
#
# Poissons Ratio (x) = 0.22573 0.54702
# Poissons Ratio (y) = 0.22573 0.54702
# Poissons Ratio (z) = 0.25442 0.25442
#
# Static dielectric constant tensor:
#      x y z
#    x 3.883780 0.000000 0.000000 
#    y 0.000000 3.883780 0.000000 
#    z 0.000000 0.000000 4.832250 
# 
# 
# High freq. dielectric constant tensor:
#      x y z
#    x 1.837920 0.000000 0.000000 
#    y 0.000000 1.837920 0.000000 
#    z 0.000000 0.000000 1.880800 
# 
# From -- ./inp_files/2984.got.cif
#   From: 2010.03.12/outbox.cif.g09.slc.cpg/sg152_2_cif.got.tgz:2984.got - 2010.04.03 13:45:27.
