data_PCOD8322914
_publ_section_title
;
Structure prediction by ZEFSAII (Michael W. Deem and Ramdas Pophale) SiO2 
 PCOD8322914
Probable space group: R 3 C
;
_chemical_formula_sum "Si O2"
_cell_formula_units_Z 84
_cell_length_a 13.373360
_cell_length_b 13.373360
_cell_length_c 24.411749
_cell_angle_alpha 90.000000
_cell_angle_beta 90.000000
_cell_angle_gamma 120.000000
_cell_volume 3781.034141
_symmetry_space_group_name_H-M "R 3 C"
_symmetry_group_IT_number 161
_symmetry_cell_setting 'hexagonal'
loop_
_space_group_symop_operation_xyz
x,y,z
-y,x-y,z
-x+y,-x,z
-x+y,y,1/2+z
x,x-y,1/2+z
-y,-x,1/2+z
2/3+x,1/3+y,1/3+z
2/3-y,1/3+x-y,1/3+z
2/3-x+y,1/3-x,1/3+z
2/3-x+y,1/3+y,5/6+z
2/3+x,1/3+x-y,5/6+z
2/3-y,1/3-x,5/6+z
1/3+x,2/3+y,2/3+z
1/3-y,2/3+x-y,2/3+z
1/3-x+y,2/3-x,2/3+z
1/3-x+y,2/3+y,1/6+z
1/3+x,2/3+x-y,1/6+z
1/3-y,2/3-x,1/6+z
loop_
_atom_site_type_symbol
_atom_site_label
_atom_site_fract_x
_atom_site_fract_y
_atom_site_fract_z
Si Si1 0.666667 0.333334 0.834858
Si Si2 0.471334 0.375564 0.667097
Si Si3 0.666667 0.333334 0.706156
Si Si4 0.350661 0.464341 0.876415
Si Si5 0.883553 0.533912 0.002967
Si Si6 0.424012 0.140217 0.379106
O O1 0.666668 0.333334 0.770567
O O2 0.706057 0.244927 0.854747
O O3 0.547672 0.319968 0.684898
O O4 0.468456 0.379235 0.601331
O O5 0.342722 0.295886 0.690247
O O6 0.520942 0.500643 0.693015
O O7 0.455935 0.596005 0.879744
O O8 0.256198 0.455574 0.832683
O O9 0.404856 0.386496 0.857102
O O10 0.853476 0.566843 0.944550
#
# Coordination Sequence:
#
# PCOD8322914 Si02
#       6
#     6  18   6  18  18  18
#     4  12  27  45  73 107 148 192 234 306 367 437
#     4  11  26  44  70 104 145 186 242 301 363 434
#     4  12  27  45  73 107 148 192 234 306 367 437
#     4  11  24  44  73 101 139 190 240 302 360 438
#     4  11  24  44  73 101 139 190 240 302 360 438
#     4  11  26  44  70 104 145 186 242 301 363 434
#
# _framework density 22.216144
#
# number of rings (size 3 to 8) (size 9 to 14) (size 15 to 20)
#    0.000    0.857    0.000    5.571   12.000    3.429 
#    0.000    0.000    0.000    0.000    0.000    0.000 
#    0.000    0.000    0.000    0.000    0.000    0.000 
#
# Total GULP energy -347390.271075 kJ/mol
# GULP energy per Si atom -12406.795396 kJ/mol
# Density = 2.216558 g / cm^3
# Si number density = 22.216144 Si / 1000 Ang^3
#
#
#
# Elastic Constant Matrix: (Units=GPa)
#
#
# Indices 1 2 3 4 5 6 
#
# 1 132.6025 10.6865 27.9389 -7.1288 0.0000 0.0000
# 2 10.6865 132.6013 27.9391 7.1272 0.0000 0.0000
# 3 27.9389 27.9391 80.9625 -0.0004 0.0000 0.0000
# 4 -7.1288 7.1272 -0.0004 37.7185 0.0000 0.0000
# 5 0.0000 0.0000 0.0000 0.0000 37.7162 -7.1243
# 6 0.0000 0.0000 0.0000 0.0000 -7.1243 60.9553
#
#
#
# Elastic Compliance Matrix: (Units=1/GPa)
#
#
# Indices 1 2 3 4 5 6 
#
# 1 0.008226 -0.000162 -0.002783 0.001585 0.000000 0.000000
# 2 -0.000162 0.008226 -0.002783 -0.001585 0.000000 0.000000
# 3 -0.002783 -0.002783 0.014272 0.000000 0.000000 0.000000
# 4 0.001585 -0.001585 0.000000 0.027111 0.000000 0.000000
# 5 0.000000 0.000000 0.000000 0.000000 0.027112 0.003169
# 6 0.000000 0.000000 0.000000 0.000000 0.003169 0.016776
#
#
# Mechanical properties :
#
#
# Convention : Reuss Voigt Hill
#
# Bulk Modulus (GPa) = 51.89675 53.25503 52.57589
# Shear Modulus (GPa) = 41.80555 45.91811 43.86183
#
# Velocity S-wave (km/s) = 4.34264 4.55123 4.44816
# Velocity P-wave (km/s) = 6.96816 7.18621 7.07803
#
# Compressibility (1/GPa) = 0.01926903
#
# Stress axis : x y z
#
# Youngs Moduli (GPa) = 121.56686 121.56601 70.06712
#
# Poissons Ratio (x) = 0.01967 0.19498
# Poissons Ratio (y) = 0.01967 0.19499
# Poissons Ratio (z) = 0.33830 0.33830
#
# Static dielectric constant tensor:
#      x y z
#    x 4.100690 0.000000 0.000000 
#    y 0.000000 4.100700 -0.000010 
#    z 0.000000 -0.000010 3.860040 
# 
# 
# High freq. dielectric constant tensor:
#      x y z
#    x 1.893340 0.000000 0.000000 
#    y 0.000000 1.893340 0.000000 
#    z 0.000000 0.000000 1.868420 
# 
# From -- ./inp_files/1879.got.cif
#   From: 2010.03.12/outbox.cif.g09.slc.cpg/sg161_cif.got.tgz:1879.got - 2010.04.02 06:27:14.
