data_PCOD8322642
_publ_section_title
;
Structure prediction by ZEFSAII (Michael W. Deem and Ramdas Pophale) SiO2 
 PCOD8322642
Probable space group: P 3 M 1
;
_chemical_formula_sum "Si O2"
_cell_formula_units_Z 42
_cell_length_a 17.047529
_cell_length_b 17.047529
_cell_length_c 10.420311
_cell_angle_alpha 90.000000
_cell_angle_beta 90.000000
_cell_angle_gamma 120.000000
_cell_volume 2622.612872
_symmetry_space_group_name_H-M "P 3 M 1"
_symmetry_group_IT_number 156
_symmetry_cell_setting 'hexagonal'
loop_
_space_group_symop_operation_xyz
x,y,z
-y,x-y,z
-x+y,-x,z
-x+y,y,z
x,x-y,z
-y,-x,z
loop_
_atom_site_type_symbol
_atom_site_label
_atom_site_fract_x
_atom_site_fract_y
_atom_site_fract_z
Si Si1 0.998944 0.175930 0.680810
Si Si2 0.278338 0.903786 0.762655
Si Si3 0.274307 0.910240 0.044029
Si Si4 0.768774 0.712959 0.431102
Si Si5 0.000113 0.815464 0.172975
Si Si6 0.572946 0.604337 0.515691
Si Si7 0.512821 0.848531 0.270194
O O1 0.070950 0.141899 0.689777
O O2 0.030549 0.266508 0.760925
O O3 0.990102 0.196597 0.533243
O O4 0.903431 0.096570 0.735799
O O5 0.199933 0.800068 0.740117
O O6 0.354798 0.928802 0.655687
O O7 0.322155 0.921249 0.905327
O O8 0.189127 0.810874 0.048386
O O9 0.238889 0.982079 0.060437
O O10 0.341103 0.918504 0.159942
O O11 0.836886 0.673771 0.419660
O O12 0.765088 0.759995 0.300476
O O13 0.672898 0.627021 0.472633
O O14 0.081689 0.918312 0.185339
O O15 0.908276 0.816551 0.144207
O O16 0.504157 0.495844 0.520493
O O17 0.539696 0.650014 0.411628
O O18 0.411096 0.822192 0.236880
O O19 0.521332 0.760666 0.270407
#
# Coordination Sequence:
#
# PCOD8322642 Si02
#       7
#     6   6   6   6   6   6   6
#     4   9  16  25  40  62  90 123 158 192 226 266
#     4   9  18  31  45  63  90 125 157 187 233 281
#     4   9  18  31  45  62  90 125 157 191 231 276
#     4   9  17  29  45  66  93 123 152 189 233 280
#     4  10  18  28  44  67  97 131 167 200 231 268
#     4  10  19  31  50  72  91 115 150 195 238 280
#     4  10  19  31  48  68  90 116 149 190 234 279
#
# _framework density 16.014564
#
# number of rings (size 3 to 8) (size 9 to 14) (size 15 to 20)
#    0.000    2.571    1.429    1.286    0.000    2.286 
#    0.000    1.429    0.000    2.286    0.000    0.000 
#    0.000    0.000    0.000    1.857    0.000    0.000 
#
# Total GULP energy -520539.427538 kJ/mol
# GULP energy per Si atom -12393.795894 kJ/mol
# Density = 1.597811 g / cm^3
# Si number density = 16.014564 Si / 1000 Ang^3
#
#
#
# Elastic Constant Matrix: (Units=GPa)
#
#
# Indices 1 2 3 4 5 6 
#
# 1 64.7830 22.2777 25.2202 -0.3350 -0.0002 0.0000
# 2 22.2777 64.7830 25.2202 0.3350 0.0002 0.0000
# 3 25.2202 25.2202 100.0373 0.0000 0.0000 0.0000
# 4 -0.3350 0.3350 0.0000 15.5818 0.0000 0.0002
# 5 -0.0002 0.0002 0.0000 0.0000 15.5818 -0.3350
# 6 0.0000 0.0000 0.0000 0.0002 -0.3350 21.2527
#
#
#
# Elastic Compliance Matrix: (Units=1/GPa)
#
#
# Indices 1 2 3 4 5 6 
#
# 1 0.018493 -0.005042 -0.003391 0.000506 0.000000 0.000000
# 2 -0.005042 0.018493 -0.003391 -0.000506 0.000000 0.000000
# 3 -0.003391 -0.003391 0.011706 0.000000 0.000000 0.000000
# 4 0.000506 -0.000506 0.000000 0.064199 0.000000 -0.000001
# 5 0.000000 0.000000 0.000000 0.000000 0.064199 0.001012
# 6 0.000000 0.000000 0.000000 -0.000001 0.001012 0.047069
#
#
# Mechanical properties :
#
#
# Convention : Reuss Voigt Hill
#
# Bulk Modulus (GPa) = 39.93028 41.67102 40.80065
# Shear Modulus (GPa) = 19.51950 20.94229 20.23089
#
# Velocity S-wave (km/s) = 3.49500 3.62014 3.55812
# Velocity P-wave (km/s) = 6.42453 6.59932 6.51251
#
# Compressibility (1/GPa) = 0.02504365
#
# Stress axis : x y z
#
# Youngs Moduli (GPa) = 54.07541 54.07541 85.42549
#
# Poissons Ratio (x) = 0.27263 0.28969
# Poissons Ratio (y) = 0.27263 0.28969
# Poissons Ratio (z) = 0.18337 0.18337
#
# Static dielectric constant tensor:
#      x y z
#    x 2.947900 0.000000 0.000000 
#    y 0.000000 2.947900 0.000000 
#    z 0.000000 0.000000 3.246370 
# 
# 
# High freq. dielectric constant tensor:
#      x y z
#    x 1.594230 0.000000 0.000000 
#    y 0.000000 1.594230 0.000000 
#    z 0.000000 0.000000 1.627140 
# 
# From -- ./inp_files/491.got.cif
#   From: 2010.03.12/outbox.cif.g09.slc.cpg/sg156_cif.got.tgz:491.got - 2010.04.03 13:58:47.
