data_PCOD8322269
_publ_section_title
;
Structure prediction by ZEFSAII (Michael W. Deem and Ramdas Pophale) SiO2 
 PCOD8322269
Probable space group: P 32 1 2
;
_chemical_formula_sum "Si O2"
_cell_formula_units_Z 30
_cell_length_a 16.360997
_cell_length_b 16.360997
_cell_length_c 6.027209
_cell_angle_alpha 90.000000
_cell_angle_beta 90.000000
_cell_angle_gamma 120.000000
_cell_volume 1397.225210
_symmetry_space_group_name_H-M "P 32 1 2"
_symmetry_group_IT_number 153
_symmetry_cell_setting 'hexagonal'
loop_
_space_group_symop_operation_xyz
x,y,z
-y,x-y,2/3+z
-x+y,-x,1/3+z
-y,-x,1/3-z
-x+y,y,2/3-z
x,x-y,-z
loop_
_atom_site_type_symbol
_atom_site_label
_atom_site_fract_x
_atom_site_fract_y
_atom_site_fract_z
Si Si1 0.678398 0.600471 0.483028
Si Si2 0.047154 0.094308 0.333334
Si Si3 0.991380 0.754383 0.530675
Si Si4 0.087552 0.464922 0.119684
Si Si5 0.818998 0.637995 0.833334
Si Si6 0.515464 0.484537 0.166667
Si Si7 0.194522 0.389043 0.333334
O O1 0.754383 0.695048 0.355294
O O2 0.614834 0.628497 0.625664
O O3 0.742764 0.573623 0.641929
O O4 0.609894 0.514112 0.316502
O O5 0.138364 0.153258 0.178298
O O6 0.072668 0.036334 0.500000
O O7 0.092018 0.761303 0.556739
O O8 0.924484 0.703305 0.740703
O O9 0.179001 0.453166 0.154696
O O10 0.034418 0.460153 0.348803
O O11 0.129732 0.564866 0.000000
#
# Coordination Sequence:
#
# PCOD8322269 Si02
#       7
#     6   3   6   6   3   3   3
#     4  11  22  40  66  92 135 176 227 301 341 413
#     4  11  26  42  58  86 138 208 248 296 333 382
#     4  11  24  40  61  94 135 186 243 288 340 402
#     4  10  22  40  66  94 130 176 239 291 346 413
#     4  12  22  40  56 104 136 177 228 299 332 420
#     4  10  20  44  64  94 124 173 220 305 350 416
#     4  11  20  44  64  92 128 196 228 276 353 404
#
# _framework density 21.471126999999999
#
# number of rings (size 3 to 8) (size 9 to 14) (size 15 to 20)
#    0.000    1.200    5.000    0.600    2.800    0.800 
#    0.000    0.000    2.200    0.000    0.000    0.000 
#    0.000  504.000    0.000    0.000    0.000    0.000 
#
# Total GULP energy -371832.266346 kJ/mol
# GULP energy per Si atom -12394.408878 kJ/mol
# Density = 2.142226 g / cm^3
# Si number density = 21.471127 Si / 1000 Ang^3
#
#
#
# Elastic Constant Matrix: (Units=GPa)
#
#
# Indices 1 2 3 4 5 6 
#
# 1 127.0293 59.1089 61.2390 0.0000 2.5236 0.0000
# 2 59.1089 127.0293 61.2390 0.0000 -2.5236 0.0000
# 3 61.2390 61.2390 124.9372 0.0000 0.0000 0.0000
# 4 0.0000 0.0000 0.0000 32.5015 0.0000 -2.5236
# 5 2.5236 -2.5236 0.0000 0.0000 32.5015 0.0000
# 6 0.0000 0.0000 0.0000 -2.5236 0.0000 33.9602
#
#
#
# Elastic Compliance Matrix: (Units=1/GPa)
#
#
# Indices 1 2 3 4 5 6 
#
# 1 0.011369 -0.003439 -0.003887 0.000000 -0.001150 0.000000
# 2 -0.003439 0.011369 -0.003887 0.000000 0.001150 0.000000
# 3 -0.003887 -0.003887 0.011814 0.000000 0.000000 0.000000
# 4 0.000000 0.000000 0.000000 0.030946 0.000000 0.002300
# 5 -0.001150 0.001150 0.000000 0.000000 0.030946 0.000000
# 6 0.000000 0.000000 0.000000 0.002300 0.000000 0.029617
#
#
# Mechanical properties :
#
#
# Convention : Reuss Voigt Hill
#
# Bulk Modulus (GPa) = 82.46327 82.46327 82.46327
# Shear Modulus (GPa) = 32.78016 32.95324 32.86670
#
# Velocity S-wave (km/s) = 3.91155 3.92186 3.91671
# Velocity P-wave (km/s) = 7.67400 7.68101 7.67751
#
# Compressibility (1/GPa) = 0.01212661
#
# Stress axis : x y z
#
# Youngs Moduli (GPa) = 87.95664 87.95664 84.64232
#
# Poissons Ratio (x) = 0.30251 0.32900
# Poissons Ratio (y) = 0.30251 0.32900
# Poissons Ratio (z) = 0.34188 0.34188
#
# Static dielectric constant tensor:
#      x y z
#    x 3.981310 0.000000 0.000000 
#    y 0.000000 3.981310 0.000000 
#    z 0.000000 0.000000 4.191580 
# 
# 
# High freq. dielectric constant tensor:
#      x y z
#    x 1.831930 0.000000 0.000000 
#    y 0.000000 1.831930 0.000000 
#    z 0.000000 0.000000 1.850670 
# 
# From -- ./inp_files/564.got.cif
#   From: 2010.03.12/outbox.cif.g09.slc.cpg/sg153_1_cif.got.tgz:564.got - 2010.04.03 13:48:33.
