data_PCOD8322417
_publ_section_title
;
Structure prediction by ZEFSAII (Michael W. Deem and Ramdas Pophale) SiO2 
 PCOD8322417
Probable space group: P 32 2 1
;
_chemical_formula_sum "Si O2"
_cell_formula_units_Z 18
_cell_length_a 12.418826
_cell_length_b 12.418826
_cell_length_c 6.900512
_cell_angle_alpha 90.000000
_cell_angle_beta 90.000000
_cell_angle_gamma 120.000000
_cell_volume 921.664864
_symmetry_space_group_name_H-M "P 32 2 1"
_symmetry_group_IT_number 154
_symmetry_cell_setting 'hexagonal'
loop_
_space_group_symop_operation_xyz
x,y,z
-y,x-y,2/3+z
-x+y,-x,1/3+z
x-y,-y,1/3-z
-x,-x+y,2/3-z
y,x,-z
loop_
_atom_site_type_symbol
_atom_site_label
_atom_site_fract_x
_atom_site_fract_y
_atom_site_fract_z
Si Si1 0.253680 0.360404 0.136335
Si Si2 0.100995 0.100995 0.000000
Si Si3 0.000000 0.587270 0.833334
Si Si4 0.584039 0.231298 0.025613
O O1 0.296261 0.374324 0.358669
O O2 0.226992 0.469580 0.085908
O O3 0.361515 0.361515 0.000000
O O4 0.125816 0.229178 0.103289
O O5 0.000000 0.063808 0.833334
O O6 0.908398 0.464944 0.712991
O O7 0.709358 0.310882 0.903691
#
# Coordination Sequence:
#
# PCOD8322417 Si02
#       4
#     6   3   3   6
#     4  10  24  42  63  98 130 167 227 269 327 398
#     4  10  24  44  66  94 134 172 224 272 324 392
#     4  12  24  42  72  96 140 174 218 284 330 390
#     4  12  23  41  68  99 131 176 221 277 335 393
#
# _framework density 19.529875000000001
#
# number of rings (size 3 to 8) (size 9 to 14) (size 15 to 20)
#    1.000    0.000    6.667    0.000    4.667    0.000 
#    0.000    3.333    0.000    0.000    0.000    0.000 
#    0.000    0.000    0.000    0.000    0.000    0.000 
#
# Total GULP energy -223187.932604 kJ/mol
# GULP energy per Si atom -12399.329589 kJ/mol
# Density = 1.948542 g / cm^3
# Si number density = 19.529875 Si / 1000 Ang^3
#
#
#
# Elastic Constant Matrix: (Units=GPa)
#
#
# Indices 1 2 3 4 5 6 
#
# 1 103.5212 50.1656 49.7995 -0.3378 0.0000 0.0000
# 2 50.1656 103.5212 49.7995 0.3378 0.0000 0.0000
# 3 49.7995 49.7995 119.9793 0.0000 0.0000 0.0000
# 4 -0.3378 0.3378 0.0000 40.2797 0.0000 0.0000
# 5 0.0000 0.0000 0.0000 0.0000 40.2797 -0.3378
# 6 0.0000 0.0000 0.0000 0.0000 -0.3378 26.6778
#
#
#
# Elastic Compliance Matrix: (Units=1/GPa)
#
#
# Indices 1 2 3 4 5 6 
#
# 1 0.013823 -0.004922 -0.003695 0.000157 0.000000 0.000000
# 2 -0.004922 0.013823 -0.003695 -0.000157 0.000000 0.000000
# 3 -0.003695 -0.003695 0.011402 0.000000 0.000000 0.000000
# 4 0.000157 -0.000157 0.000000 0.024829 0.000000 0.000000
# 5 0.000000 0.000000 0.000000 0.000000 0.024829 0.000314
# 6 0.000000 0.000000 0.000000 0.000000 0.000314 0.037488
#
#
# Mechanical properties :
#
#
# Convention : Reuss Voigt Hill
#
# Bulk Modulus (GPa) = 69.32082 69.61676 69.46879
# Shear Modulus (GPa) = 32.12888 33.26456 32.69672
#
# Velocity S-wave (km/s) = 4.06040 4.13154 4.09613
# Velocity P-wave (km/s) = 7.58645 7.64743 7.61700
#
# Compressibility (1/GPa) = 0.01442568
#
# Stress axis : x y z
#
# Youngs Moduli (GPa) = 72.34525 72.34525 87.70601
#
# Poissons Ratio (x) = 0.35605 0.32403
# Poissons Ratio (y) = 0.35605 0.32403
# Poissons Ratio (z) = 0.26728 0.26728
#
# Static dielectric constant tensor:
#      x y z
#    x 3.422700 0.000000 0.000000 
#    y 0.000000 3.422700 0.000000 
#    z 0.000000 0.000000 3.633510 
# 
# 
# High freq. dielectric constant tensor:
#      x y z
#    x 1.755000 0.000000 0.000000 
#    y 0.000000 1.755000 0.000000 
#    z 0.000000 0.000000 1.771870 
# 
# From -- ./inp_files/789.got.cif
#   From: 2010.03.12/outbox.cif.g09.slc.cpg/sg154_1_cif.got.tgz:789.got - 2010.04.03 13:51:21.
