data_PCOD8322702
_publ_section_title
;
Structure prediction by ZEFSAII (Michael W. Deem and Ramdas Pophale) SiO2 
 PCOD8322702
Probable space group: P 3 M 1
;
_chemical_formula_sum "Si O2"
_cell_formula_units_Z 48
_cell_length_a 12.326615
_cell_length_b 12.326615
_cell_length_c 20.372554
_cell_angle_alpha 90.000000
_cell_angle_beta 90.000000
_cell_angle_gamma 120.000000
_cell_volume 2680.796037
_symmetry_space_group_name_H-M "P 3 M 1"
_symmetry_group_IT_number 156
_symmetry_cell_setting 'hexagonal'
loop_
_space_group_symop_operation_xyz
x,y,z
-y,x-y,z
-x+y,-x,z
-x+y,y,z
x,x-y,z
-y,-x,z
loop_
_atom_site_type_symbol
_atom_site_label
_atom_site_fract_x
_atom_site_fract_y
_atom_site_fract_z
Si Si1 0.332075 0.917464 0.632870
Si Si2 0.585378 0.917585 0.882605
Si Si3 0.414560 0.333436 0.133305
Si Si4 0.081572 0.416053 0.257822
Si Si5 0.251548 0.999847 0.508132
Si Si6 0.918248 0.584936 0.383257
Si Si7 0.748169 0.748216 0.008324
Si Si8 0.251658 0.998872 0.757942
O O1 0.466591 0.933182 0.644791
O O2 0.228752 0.771249 0.638094
O O3 0.329002 0.972379 0.562180
O O4 0.307157 0.996115 0.687365
O O5 0.465884 0.931768 0.894988
O O6 0.542707 0.771354 0.884513
O O7 0.645285 0.977320 0.812867
O O8 0.686561 0.993528 0.938425
O O9 0.409532 0.204766 0.150355
O O10 0.558159 0.441842 0.133168
O O11 0.335534 0.357656 0.187831
O O12 0.355078 0.329802 0.063006
O O13 0.200316 0.400631 0.270239
O O14 0.124660 0.562330 0.260505
O O15 0.979796 0.339679 0.313336
O O16 0.107357 0.892644 0.507214
O O17 0.258203 0.129102 0.526141
O O18 0.311302 0.004376 0.437822
O O19 0.774786 0.549572 0.380572
O O20 0.922408 0.461204 0.401616
O O21 0.744879 0.872440 0.026475
O O22 0.891360 0.782719 0.005755
O O23 0.106081 0.893920 0.763473
O O24 0.264428 0.132214 0.769095
#
# Coordination Sequence:
#
# PCOD8322702 Si02
#       8
#     6   6   6   6   6   6   6   6
#     4  10  20  34  53  76 102 132 167 208 253 300
#     4  10  20  34  53  76 102 132 167 208 253 300
#     4  10  20  34  53  76 103 135 170 208 250 299
#     4  10  20  34  52  74 100 130 166 208 254 300
#     4  10  20  34  53  76 103 135 170 210 254 301
#     4  10  20  34  53  76 103 135 170 208 250 299
#     4  10  20  34  53  76 103 135 170 210 254 301
#     4  10  20  34  54  78 104 134 168 208 252 300
#
# _framework density 17.905128999999999
#
# number of rings (size 3 to 8) (size 9 to 14) (size 15 to 20)
#    0.000    2.000    0.000    4.000    0.000    0.000 
#    0.000    5.000    0.000   20.000    0.000    0.000 
#    0.000    0.000    0.000    0.000    0.000    0.000 
#
# Total GULP energy -595436.122192 kJ/mol
# GULP energy per Si atom -12404.919212 kJ/mol
# Density = 1.786438 g / cm^3
# Si number density = 17.905129 Si / 1000 Ang^3
#
#
#
# Elastic Constant Matrix: (Units=GPa)
#
#
# Indices 1 2 3 4 5 6 
#
# 1 78.2541 30.7271 14.9072 0.5203 0.0003 0.0000
# 2 30.7271 78.2541 14.9072 -0.5203 -0.0003 0.0000
# 3 14.9072 14.9072 78.2294 0.0000 0.0000 0.0000
# 4 0.5203 -0.5203 0.0000 24.5866 0.0000 -0.0003
# 5 0.0003 -0.0003 0.0000 0.0000 24.5866 0.5203
# 6 0.0000 0.0000 0.0000 -0.0003 0.5203 23.7635
#
#
#
# Elastic Compliance Matrix: (Units=1/GPa)
#
#
# Indices 1 2 3 4 5 6 
#
# 1 0.015366 -0.005685 -0.001845 -0.000445 0.000000 0.000000
# 2 -0.005685 0.015366 -0.001845 0.000445 0.000000 0.000000
# 3 -0.001845 -0.001845 0.013486 0.000000 0.000000 0.000000
# 4 -0.000445 0.000445 0.000000 0.040691 0.000000 0.000000
# 5 0.000000 0.000000 0.000000 0.000000 0.040691 -0.000891
# 6 0.000000 0.000000 0.000000 0.000000 -0.000891 0.042101
#
#
# Mechanical properties :
#
#
# Convention : Reuss Voigt Hill
#
# Bulk Modulus (GPa) = 39.26452 39.53559 39.40006
# Shear Modulus (GPa) = 25.64907 26.20040 25.92473
#
# Velocity S-wave (km/s) = 3.78894 3.82945 3.80925
# Velocity P-wave (km/s) = 6.41235 6.45612 6.43427
#
# Compressibility (1/GPa) = 0.02546828
#
# Stress axis : x y z
#
# Youngs Moduli (GPa) = 65.08083 65.08083 74.15117
#
# Poissons Ratio (x) = 0.36998 0.13679
# Poissons Ratio (y) = 0.36998 0.13679
# Poissons Ratio (z) = 0.12005 0.12005
#
# Static dielectric constant tensor:
#      x y z
#    x 3.223180 0.000000 0.000000 
#    y 0.000000 3.223180 0.000000 
#    z 0.000000 0.000000 3.456310 
# 
# 
# High freq. dielectric constant tensor:
#      x y z
#    x 1.694210 0.000000 0.000000 
#    y 0.000000 1.694210 0.000000 
#    z 0.000000 0.000000 1.709780 
# 
# From -- ./inp_files/1088.got.cif
#   From: 2010.03.12/outbox.cif.g09.slc.cpg/sg156_cif.got.tgz:1088.got - 2010.04.03 13:58:47.
