data_PCOD8322139
_publ_section_title
;
Structure prediction by ZEFSAII (Michael W. Deem and Ramdas Pophale) SiO2 
 PCOD8322139
Probable space group: P 31 2 1
;
_chemical_formula_sum "Si O2"
_cell_formula_units_Z 39
_cell_length_a 9.527303
_cell_length_b 9.527303
_cell_length_c 24.889489
_cell_angle_alpha 90.000000
_cell_angle_beta 90.000000
_cell_angle_gamma 120.000000
_cell_volume 1956.530250
_symmetry_space_group_name_H-M "P 31 2 1"
_symmetry_group_IT_number 152
_symmetry_cell_setting 'hexagonal'
loop_
_space_group_symop_operation_xyz
x,y,z
-y,x-y,1/3+z
-x+y,-x,2/3+z
x-y,-y,2/3-z
-x,-x+y,1/3-z
y,x,-z
loop_
_atom_site_type_symbol
_atom_site_label
_atom_site_fract_x
_atom_site_fract_y
_atom_site_fract_z
Si Si1 0.728593 0.405161 0.023786
Si Si2 0.359348 0.758993 0.186542
Si Si3 0.434196 0.434196 0.000000
Si Si4 0.759780 0.054502 0.441475
Si Si5 0.872159 0.150421 0.871948
Si Si6 0.145053 0.445877 0.128371
Si Si7 0.616294 0.087289 0.962935
O O1 0.709215 0.411226 0.087310
O O2 0.611609 0.453943 0.991409
O O3 0.913240 0.534289 0.007520
O O4 0.692047 0.225786 0.008068
O O5 0.553159 0.861450 0.185070
O O6 0.292452 0.870953 0.162462
O O7 0.307367 0.603998 0.148725
O O8 0.352805 0.318233 0.050084
O O9 0.951782 0.161527 0.436966
O O10 0.709860 0.877372 0.463829
O O11 0.751286 0.099827 0.921890
O O12 0.824898 0.000000 0.833334
O O13 0.103612 0.476379 0.068390
O O14 0.000000 0.421606 0.166667
#
# Coordination Sequence:
#
# PCOD8322139 Si02
#       7
#     6   6   3   6   6   6   6
#     4  11  22  43  64  89 129 169 212 263 336 384
#     4  10  21  40  64  90 127 165 214 265 317 386
#     4  10  24  42  60  90 134 162 208 278 322 390
#     4  11  23  38  65  92 128 168 212 263 325 376
#     4  11  22  43  64  93 130 169 216 272 318 381
#     4  11  20  41  62  92 122 162 217 264 308 378
#     4  11  23  40  66  91 125 173 211 260 327 388
#
# _framework density 19.933244999999999
#
# number of rings (size 3 to 8) (size 9 to 14) (size 15 to 20)
#    0.000    1.231    4.615    2.308    4.308    0.000 
#    0.000    2.308    0.000    0.000    0.000    0.000 
#    0.000    0.000    0.000    0.000    0.000    0.000 
#
# Total GULP energy -483736.122067 kJ/mol
# GULP energy per Si atom -12403.490309 kJ/mol
# Density = 1.988788 g / cm^3
# Si number density = 19.933245 Si / 1000 Ang^3
#
#
#
# Elastic Constant Matrix: (Units=GPa)
#
#
# Indices 1 2 3 4 5 6 
#
# 1 135.3352 63.9536 32.8669 6.1081 0.0000 0.0000
# 2 63.9536 135.3352 32.8669 -6.1081 0.0000 0.0000
# 3 32.8669 32.8669 61.6500 0.0000 0.0000 0.0000
# 4 6.1081 -6.1081 0.0000 27.9991 0.0000 0.0000
# 5 0.0000 0.0000 0.0000 0.0000 27.9991 6.1081
# 6 0.0000 0.0000 0.0000 0.0000 6.1081 35.6908
#
#
#
# Elastic Compliance Matrix: (Units=1/GPa)
#
#
# Indices 1 2 3 4 5 6 
#
# 1 0.010320 -0.004232 -0.003246 -0.003175 0.000000 0.000000
# 2 -0.004232 0.010320 -0.003246 0.003175 0.000000 0.000000
# 3 -0.003246 -0.003246 0.019682 0.000000 0.000000 0.000000
# 4 -0.003175 0.003175 0.000000 0.037101 0.000000 0.000000
# 5 0.000000 0.000000 0.000000 0.000000 0.037101 -0.006349
# 6 0.000000 0.000000 0.000000 0.000000 -0.006349 0.029105
#
#
# Mechanical properties :
#
#
# Convention : Reuss Voigt Hill
#
# Bulk Modulus (GPa) = 52.98048 65.74394 59.36221
# Shear Modulus (GPa) = 29.17699 31.84667 30.51183
#
# Velocity S-wave (km/s) = 3.83003 4.00142 3.91666
# Velocity P-wave (km/s) = 6.79673 7.37578 7.09216
#
# Compressibility (1/GPa) = 0.01887488
#
# Stress axis : x y z
#
# Youngs Moduli (GPa) = 96.89453 96.89453 50.80913
#
# Poissons Ratio (x) = 0.41006 0.16492
# Poissons Ratio (y) = 0.41006 0.16492
# Poissons Ratio (z) = 0.31451 0.31451
#
# Static dielectric constant tensor:
#      x y z
#    x 3.786190 0.000000 0.000000 
#    y 0.000000 3.786190 0.000000 
#    z 0.000000 0.000000 3.508090 
# 
# 
# High freq. dielectric constant tensor:
#      x y z
#    x 1.782590 0.000000 0.000000 
#    y 0.000000 1.782590 0.000000 
#    z 0.000000 0.000000 1.769910 
# 
# From -- ./inp_files/3641.got.cif
#   From: 2010.03.12/outbox.cif.g09.slc.cpg/sg152_2_cif.got.tgz:3641.got - 2010.04.03 13:45:27.
