data_PCOD8322270
_publ_section_title
;
Structure prediction by ZEFSAII (Michael W. Deem and Ramdas Pophale) SiO2 
 PCOD8322270
Probable space group: P 32 1 2
;
_chemical_formula_sum "Si O2"
_cell_formula_units_Z 30
_cell_length_a 16.360955
_cell_length_b 16.360955
_cell_length_c 6.046735
_cell_angle_alpha 90.000000
_cell_angle_beta 90.000000
_cell_angle_gamma 120.000000
_cell_volume 1401.744523
_symmetry_space_group_name_H-M "P 32 1 2"
_symmetry_group_IT_number 153
_symmetry_cell_setting 'hexagonal'
loop_
_space_group_symop_operation_xyz
x,y,z
-y,x-y,2/3+z
-x+y,-x,1/3+z
-y,-x,1/3-z
-x+y,y,2/3-z
x,x-y,-z
loop_
_atom_site_type_symbol
_atom_site_label
_atom_site_fract_x
_atom_site_fract_y
_atom_site_fract_z
Si Si1 0.673566 0.593296 0.488783
Si Si2 0.952400 0.047601 0.666667
Si Si3 0.981399 0.748963 0.521726
Si Si4 0.089370 0.466048 0.121746
Si Si5 0.814703 0.629405 0.833334
Si Si6 0.514294 0.485707 0.166667
Si Si7 0.188242 0.376483 0.333334
O O1 0.749912 0.685454 0.360580
O O2 0.609351 0.621628 0.626770
O O3 0.736187 0.564702 0.647963
O O4 0.605343 0.509161 0.319910
O O5 0.863588 0.018292 0.822900
O O6 0.926732 0.963366 0.500000
O O7 0.919491 0.694798 0.735549
O O8 0.088807 0.774201 0.546384
O O9 0.173488 0.443198 0.159643
O O10 0.038536 0.461489 0.354094
O O11 0.134485 0.567243 0.000000
#
# Coordination Sequence:
#
# PCOD8322270 Si02
#       7
#     6   3   6   6   3   3   3
#     4  11  21  41  65  95 136 178 227 301 343 415
#     4  12  29  42  58  88 146 208 250 297 330 386
#     4  12  26  40  64  94 141 191 247 288 345 405
#     4  10  23  41  68  94 134 174 243 294 350 422
#     4  12  22  42  58 102 140 181 228 301 334 418
#     4  10  20  44  64  96 124 175 222 307 352 420
#     4  12  23  42  68  96 130 204 230 289 354 420
#
# _framework density 21.401900999999999
#
# number of rings (size 3 to 8) (size 9 to 14) (size 15 to 20)
#    0.000    0.800    6.000    0.600    7.000    0.000 
#    0.000    0.000    2.200    0.000    0.000    0.000 
#    0.000  504.000    0.000    0.000    0.000    0.000 
#
# Total GULP energy -371982.693690 kJ/mol
# GULP energy per Si atom -12399.423123 kJ/mol
# Density = 2.135319 g / cm^3
# Si number density = 21.401901 Si / 1000 Ang^3
#
#
#
# Elastic Constant Matrix: (Units=GPa)
#
#
# Indices 1 2 3 4 5 6 
#
# 1 123.8979 52.6220 53.6768 0.0001 -1.3063 0.0000
# 2 52.6220 123.8979 53.6768 -0.0001 1.3063 0.0000
# 3 53.6768 53.6768 121.1808 0.0000 0.0000 0.0000
# 4 0.0001 -0.0001 0.0000 19.3664 0.0000 1.3063
# 5 -1.3063 1.3063 0.0000 0.0000 19.3664 0.0001
# 6 0.0000 0.0000 0.0000 1.3063 0.0001 35.6380
#
#
#
# Elastic Compliance Matrix: (Units=1/GPa)
#
#
# Indices 1 2 3 4 5 6 
#
# 1 0.010909 -0.003155 -0.003435 0.000000 0.000949 0.000000
# 2 -0.003155 0.010909 -0.003435 0.000000 -0.000949 0.000000
# 3 -0.003435 -0.003435 0.011295 0.000000 0.000000 0.000000
# 4 0.000000 0.000000 0.000000 0.051764 0.000000 -0.001897
# 5 0.000949 -0.000949 0.000000 0.000000 0.051764 0.000000
# 6 0.000000 0.000000 0.000000 -0.001897 0.000000 0.028129
#
#
# Mechanical properties :
#
#
# Convention : Reuss Voigt Hill
#
# Bulk Modulus (GPa) = 76.54452 76.54753 76.54602
# Shear Modulus (GPa) = 26.43062 28.80756 27.61909
#
# Velocity S-wave (km/s) = 3.51802 3.67281 3.59625
# Velocity P-wave (km/s) = 7.23498 7.33692 7.28612
#
# Compressibility (1/GPa) = 0.01306429
#
# Stress axis : x y z
#
# Youngs Moduli (GPa) = 91.66483 91.66483 88.53635
#
# Poissons Ratio (x) = 0.28924 0.30408
# Poissons Ratio (y) = 0.28924 0.30408
# Poissons Ratio (z) = 0.31483 0.31483
#
# Static dielectric constant tensor:
#      x y z
#    x 3.952440 0.000000 0.000000 
#    y 0.000000 3.952440 0.000000 
#    z 0.000000 0.000000 3.932640 
# 
# 
# High freq. dielectric constant tensor:
#      x y z
#    x 1.828130 0.000000 0.000000 
#    y 0.000000 1.828130 0.000000 
#    z 0.000000 0.000000 1.858320 
# 
# From -- ./inp_files/565.got.cif
#   From: 2010.03.12/outbox.cif.g09.slc.cpg/sg153_1_cif.got.tgz:565.got - 2010.04.03 13:48:33.
