data_PCOD8322063
_publ_section_title
;
Structure prediction by ZEFSAII (Michael W. Deem and Ramdas Pophale) SiO2 
 PCOD8322063
Probable space group: P 31 2 1
;
_chemical_formula_sum "Si O2"
_cell_formula_units_Z 36
_cell_length_a 11.939283
_cell_length_b 11.939283
_cell_length_c 13.199115
_cell_angle_alpha 90.000000
_cell_angle_beta 90.000000
_cell_angle_gamma 120.000000
_cell_volume 1629.415854
_symmetry_space_group_name_H-M "P 31 2 1"
_symmetry_group_IT_number 152
_symmetry_cell_setting 'hexagonal'
loop_
_space_group_symop_operation_xyz
x,y,z
-y,x-y,1/3+z
-x+y,-x,2/3+z
x-y,-y,2/3-z
-x,-x+y,1/3-z
y,x,-z
loop_
_atom_site_type_symbol
_atom_site_label
_atom_site_fract_x
_atom_site_fract_y
_atom_site_fract_z
Si Si1 0.332675 0.185218 0.831751
Si Si2 0.574190 0.494030 0.413579
Si Si3 0.579113 0.253528 0.433165
Si Si4 0.580779 0.160880 0.221801
Si Si5 0.666012 0.638401 0.215105
Si Si6 0.854411 0.860447 0.655980
O O1 0.428002 0.131032 0.813074
O O2 0.429883 0.339802 0.847724
O O3 0.248930 0.119147 0.930869
O O4 0.232189 0.142720 0.736909
O O5 0.466299 0.466299 0.500000
O O6 0.551652 0.356842 0.375868
O O7 0.580066 0.578621 0.317057
O O8 0.599666 0.173488 0.343623
O O9 0.703356 0.327719 0.503005
O O10 0.457384 0.169189 0.505412
O O11 0.428190 0.075002 0.200144
O O12 0.792485 0.778966 0.239007
O O13 0.000000 0.982850 0.666667
#
# Coordination Sequence:
#
# PCOD8322063 Si02
#       6
#     6   6   6   6   6   6
#     4   9  19  37  63  92 123 173 231 270 335 417
#     4  10  19  37  63  91 129 175 229 277 346 425
#     4  11  23  39  61  99 132 176 228 296 364 418
#     4  11  23  37  65  97 136 174 227 297 366 425
#     4  11  22  39  64  96 136 176 225 296 351 421
#     4  10  20  39  66  93 128 181 234 278 328 419
#
# _framework density 22.093807999999999
#
# number of rings (size 3 to 8) (size 9 to 14) (size 15 to 20)
#    0.000    1.667    5.000    1.500    2.333    2.667 
#    0.000    0.000   11.000    0.000    0.000    0.000 
#    0.000    0.000    0.000    0.000    0.000    0.000 
#
# Total GULP energy -446036.755797 kJ/mol
# GULP energy per Si atom -12389.909883 kJ/mol
# Density = 2.204352 g / cm^3
# Si number density = 22.093808 Si / 1000 Ang^3
#
#
#
# Elastic Constant Matrix: (Units=GPa)
#
#
# Indices 1 2 3 4 5 6 
#
# 1 82.3004 29.4761 21.1003 0.3284 0.0000 0.0000
# 2 29.4761 82.3004 21.1003 -0.3284 0.0000 0.0000
# 3 21.1003 21.1003 89.1531 0.0000 0.0000 0.0000
# 4 0.3284 -0.3284 0.0000 27.5242 0.0000 0.0000
# 5 0.0000 0.0000 0.0000 0.0000 27.5242 0.3284
# 6 0.0000 0.0000 0.0000 0.0000 0.3284 26.4122
#
#
#
# Elastic Compliance Matrix: (Units=1/GPa)
#
#
# Indices 1 2 3 4 5 6 
#
# 1 0.014379 -0.004555 -0.002325 -0.000226 0.000000 0.000000
# 2 -0.004555 0.014379 -0.002325 0.000226 0.000000 0.000000
# 3 -0.002325 -0.002325 0.012317 0.000000 0.000000 0.000000
# 4 -0.000226 0.000226 0.000000 0.036337 0.000000 0.000000
# 5 0.000000 0.000000 0.000000 0.000000 0.036337 -0.000452
# 6 0.000000 0.000000 0.000000 0.000000 -0.000452 0.037867
#
#
# Mechanical properties :
#
#
# Convention : Reuss Voigt Hill
#
# Bulk Modulus (GPa) = 44.12053 44.12303 44.12178
# Shear Modulus (GPa) = 28.15615 28.43059 28.29337
#
# Velocity S-wave (km/s) = 3.57373 3.59111 3.58243
# Velocity P-wave (km/s) = 6.08619 6.09991 6.09305
#
# Compressibility (1/GPa) = 0.02266519
#
# Stress axis : x y z
#
# Youngs Moduli (GPa) = 69.54647 69.54647 81.18686
#
# Poissons Ratio (x) = 0.31676 0.18877
# Poissons Ratio (y) = 0.31676 0.18877
# Poissons Ratio (z) = 0.16171 0.16171
#
# Static dielectric constant tensor:
#      x y z
#    x 4.045450 0.000000 0.000000 
#    y 0.000000 4.045450 0.000000 
#    z 0.000000 0.000000 3.941970 
# 
# 
# High freq. dielectric constant tensor:
#      x y z
#    x 1.848840 0.000000 0.000000 
#    y 0.000000 1.848840 0.000000 
#    z 0.000000 0.000000 1.868450 
# 
# From -- ./inp_files/2034.got.cif
#   From: 2010.03.12/outbox.cif.g09.slc.cpg/sg152_2_cif.got.tgz:2034.got - 2010.04.03 13:45:27.
