data_PCOD8322420
_publ_section_title
;
Structure prediction by ZEFSAII (Michael W. Deem and Ramdas Pophale) SiO2 
 PCOD8322420
Probable space group: P 32 2 1
;
_chemical_formula_sum "Si O2"
_cell_formula_units_Z 30
_cell_length_a 7.273987
_cell_length_b 7.273987
_cell_length_c 24.516788
_cell_angle_alpha 90.000000
_cell_angle_beta 90.000000
_cell_angle_gamma 120.000000
_cell_volume 1123.412481
_symmetry_space_group_name_H-M "P 32 2 1"
_symmetry_group_IT_number 154
_symmetry_cell_setting 'hexagonal'
loop_
_space_group_symop_operation_xyz
x,y,z
-y,x-y,2/3+z
-x+y,-x,1/3+z
x-y,-y,1/3-z
-x,-x+y,2/3-z
y,x,-z
loop_
_atom_site_type_symbol
_atom_site_label
_atom_site_fract_x
_atom_site_fract_y
_atom_site_fract_z
Si Si1 0.498670 0.388029 0.442473
Si Si2 0.304314 0.249356 0.170269
Si Si3 0.265128 0.689063 0.700687
Si Si4 0.313144 0.857408 0.583340
Si Si5 0.318067 0.909450 0.430876
O O1 0.402274 0.402274 0.500000
O O2 0.487792 0.540043 0.396723
O O3 0.747847 0.443168 0.446517
O O4 0.370058 0.147872 0.420478
O O5 0.161460 0.274520 0.217257
O O6 0.232907 0.303961 0.113153
O O7 0.544673 0.434377 0.186245
O O8 0.257402 0.000000 0.166667
O O9 0.224684 0.719648 0.638548
O O10 0.452132 0.631452 0.708360
O O11 0.350625 0.898472 0.737744
#
# Coordination Sequence:
#
# PCOD8322420 Si02
#       5
#     6   6   6   6   6
#     4  11  24  43  71 100 140 191 240 297 365 436
#     4  11  23  42  68  99 136 180 235 294 352 427
#     4  11  24  45  68  99 148 185 232 308 362 439
#     4  10  24  44  70 104 140 188 241 294 373 439
#     4  11  24  40  67 100 133 180 238 292 352 436
#
# _framework density 26.704350999999999
#
# number of rings (size 3 to 8) (size 9 to 14) (size 15 to 20)
#    0.000    1.200    0.000    6.600    5.600    5.600 
#    0.000   11.000    0.000    0.000    0.000    0.000 
#    0.000    0.000    0.000    0.000    0.000    0.000 
#
# Total GULP energy -371807.107234 kJ/mol
# GULP energy per Si atom -12393.570241 kJ/mol
# Density = 2.664357 g / cm^3
# Si number density = 26.704351 Si / 1000 Ang^3
#
#
#
# Elastic Constant Matrix: (Units=GPa)
#
#
# Indices 1 2 3 4 5 6 
#
# 1 98.9598 4.3949 2.0811 1.0321 0.0000 0.0000
# 2 4.3949 98.9598 2.0811 -1.0321 0.0000 0.0000
# 3 2.0811 2.0811 69.1190 0.0000 0.0000 0.0000
# 4 1.0321 -1.0321 0.0000 35.3230 0.0000 0.0000
# 5 0.0000 0.0000 0.0000 0.0000 35.3230 1.0321
# 6 0.0000 0.0000 0.0000 0.0000 1.0321 47.2825
#
#
#
# Elastic Compliance Matrix: (Units=1/GPa)
#
#
# Indices 1 2 3 4 5 6 
#
# 1 0.010134 -0.000447 -0.000292 -0.000309 0.000000 0.000000
# 2 -0.000447 0.010134 -0.000292 0.000309 0.000000 0.000000
# 3 -0.000292 -0.000292 0.014485 0.000000 0.000000 0.000000
# 4 -0.000309 0.000309 0.000000 0.028328 0.000000 0.000000
# 5 0.000000 0.000000 0.000000 0.000000 0.028328 -0.000618
# 6 0.000000 0.000000 0.000000 0.000000 -0.000618 0.021163
#
#
# Mechanical properties :
#
#
# Convention : Reuss Voigt Hill
#
# Bulk Modulus (GPa) = 30.58756 31.57252 31.08004
# Shear Modulus (GPa) = 39.83043 40.81779 40.32411
#
# Velocity S-wave (km/s) = 3.86623 3.91385 3.89011
# Velocity P-wave (km/s) = 5.60440 5.68093 5.64280
#
# Compressibility (1/GPa) = 0.03269303
#
# Stress axis : x y z
#
# Youngs Moduli (GPa) = 98.67451 98.67451 69.03522
#
# Poissons Ratio (x) = 0.04412 0.02014
# Poissons Ratio (y) = 0.04412 0.02014
# Poissons Ratio (z) = 0.02878 0.02878
#
# Static dielectric constant tensor:
#      x y z
#    x 5.169500 0.000000 0.000000 
#    y 0.000000 5.169500 0.000000 
#    z 0.000000 0.000000 4.908100 
# 
# 
# High freq. dielectric constant tensor:
#      x y z
#    x 2.091240 0.000000 0.000000 
#    y 0.000000 2.091240 0.000000 
#    z 0.000000 0.000000 2.081930 
# 
# From -- ./inp_files/3067.got.cif
#   From: 2010.03.12/outbox.cif.g09.slc.cpg/sg154_2_cif.got.tgz:3067.got - 2010.04.03 13:51:21.
