data_PCOD8322434
_publ_section_title
;
Structure prediction by ZEFSAII (Michael W. Deem and Ramdas Pophale) SiO2 
 PCOD8322434
Probable space group: P 32 2 1
;
_chemical_formula_sum "Si O2"
_cell_formula_units_Z 36
_cell_length_a 11.562262
_cell_length_b 11.562262
_cell_length_c 14.713078
_cell_angle_alpha 90.000000
_cell_angle_beta 90.000000
_cell_angle_gamma 120.000000
_cell_volume 1703.412310
_symmetry_space_group_name_H-M "P 32 2 1"
_symmetry_group_IT_number 154
_symmetry_cell_setting 'hexagonal'
loop_
_space_group_symop_operation_xyz
x,y,z
-y,x-y,2/3+z
-x+y,-x,1/3+z
x-y,-y,1/3-z
-x,-x+y,2/3-z
y,x,-z
loop_
_atom_site_type_symbol
_atom_site_label
_atom_site_fract_x
_atom_site_fract_y
_atom_site_fract_z
Si Si1 0.188212 0.393613 0.567085
Si Si2 0.098282 0.001256 0.413914
Si Si3 0.601756 0.366588 0.281994
Si Si4 0.505414 0.959937 0.893781
Si Si5 0.399344 0.509869 0.434715
Si Si6 0.121665 0.739297 0.399748
O O1 0.300127 0.509535 0.629975
O O2 0.077211 0.431687 0.541256
O O3 0.261580 0.389559 0.475087
O O4 0.120162 0.246791 0.611231
O O5 0.111965 0.869642 0.424418
O O6 0.000000 0.985129 0.333334
O O7 0.035221 0.035221 0.500000
O O8 0.524140 0.406902 0.209429
O O9 0.617521 0.256581 0.226547
O O10 0.739270 0.501681 0.311324
O O11 0.554638 0.883501 0.829099
O O12 0.525147 0.935857 0.998745
O O13 0.519694 0.519694 0.500000
O O14 0.000000 0.643082 0.333334
#
# Coordination Sequence:
#
# PCOD8322434 Si02
#       6
#     6   6   6   6   6   6
#     4  11  23  45  70  99 137 180 236 292 344 425
#     4  11  27  48  69  99 142 187 238 286 353 424
#     4  11  24  43  69  99 143 178 232 288 350 415
#     4  11  24  42  68 102 137 182 230 287 353 419
#     4  11  23  41  68 102 133 177 232 285 351 405
#     4  11  26  46  69 103 142 185 229 294 357 424
#
# _framework density 21.134049000000001
#
# number of rings (size 3 to 8) (size 9 to 14) (size 15 to 20)
#    0.000    1.000    5.000    0.500    4.667    0.000 
#    3.000    0.833    0.000    0.000    0.000    0.000 
#    0.000    0.000    0.000    0.000    0.000    0.000 
#
# Total GULP energy -446063.981677 kJ/mol
# GULP energy per Si atom -12390.666158 kJ/mol
# Density = 2.108595 g / cm^3
# Si number density = 21.134049 Si / 1000 Ang^3
#
#
#
# Elastic Constant Matrix: (Units=GPa)
#
#
# Indices 1 2 3 4 5 6 
#
# 1 147.6261 61.1912 50.9634 -3.0539 0.0000 0.0000
# 2 61.1912 147.6261 50.9634 3.0539 0.0000 0.0000
# 3 50.9634 50.9634 106.9805 0.0000 0.0000 0.0000
# 4 -3.0539 3.0539 0.0000 22.8121 0.0000 0.0000
# 5 0.0000 0.0000 0.0000 0.0000 22.8121 -3.0539
# 6 0.0000 0.0000 0.0000 0.0000 -3.0539 43.2175
#
#
#
# Elastic Compliance Matrix: (Units=1/GPa)
#
#
# Indices 1 2 3 4 5 6 
#
# 1 0.008960 -0.002720 -0.002973 0.001564 0.000000 0.000000
# 2 -0.002720 0.008960 -0.002973 -0.001564 0.000000 0.000000
# 3 -0.002973 -0.002973 0.012180 0.000000 0.000000 0.000000
# 4 0.001564 -0.001564 0.000000 0.044255 0.000000 0.000000
# 5 0.000000 0.000000 0.000000 0.000000 0.044255 0.003127
# 6 0.000000 0.000000 0.000000 0.000000 0.003127 0.023360
#
#
# Mechanical properties :
#
#
# Convention : Reuss Voigt Hill
#
# Bulk Modulus (GPa) = 78.31386 80.94095 79.62741
# Shear Modulus (GPa) = 30.57064 33.70933 32.13999
#
# Velocity S-wave (km/s) = 3.80743 3.99811 3.90393
# Velocity P-wave (km/s) = 7.51431 7.72626 7.62103
#
# Compressibility (1/GPa) = 0.01276913
#
# Stress axis : x y z
#
# Youngs Moduli (GPa) = 111.60910 111.60910 82.10454
#
# Poissons Ratio (x) = 0.30358 0.24406
# Poissons Ratio (y) = 0.30358 0.24406
# Poissons Ratio (z) = 0.33176 0.33176
#
# Static dielectric constant tensor:
#      x y z
#    x 4.197080 0.000000 0.000000 
#    y 0.000000 4.197080 0.000000 
#    z 0.000000 0.000000 3.658390 
# 
# 
# High freq. dielectric constant tensor:
#      x y z
#    x 1.845200 0.000000 0.000000 
#    y 0.000000 1.845200 0.000000 
#    z 0.000000 0.000000 1.812730 
# 
# From -- ./inp_files/1967.got.cif
#   From: 2010.03.12/outbox.cif.g09.slc.cpg/sg154_1_cif.got.tgz:1967.got - 2010.04.03 13:51:21.
