data_PCOD8322111
_publ_section_title
;
Structure prediction by ZEFSAII (Michael W. Deem and Ramdas Pophale) SiO2 
 PCOD8322111
Probable space group: P 31 2 1
;
_chemical_formula_sum "Si O2"
_cell_formula_units_Z 33
_cell_length_a 8.818226
_cell_length_b 8.818226
_cell_length_c 22.752963
_cell_angle_alpha 90.000000
_cell_angle_beta 90.000000
_cell_angle_gamma 120.000000
_cell_volume 1532.254983
_symmetry_space_group_name_H-M "P 31 2 1"
_symmetry_group_IT_number 152
_symmetry_cell_setting 'hexagonal'
loop_
_space_group_symop_operation_xyz
x,y,z
-y,x-y,1/3+z
-x+y,-x,2/3+z
x-y,-y,2/3-z
-x,-x+y,1/3-z
y,x,-z
loop_
_atom_site_type_symbol
_atom_site_label
_atom_site_fract_x
_atom_site_fract_y
_atom_site_fract_z
Si Si1 0.718872 0.806967 0.137834
Si Si2 0.238108 0.583489 0.952156
Si Si3 0.435836 0.152509 0.615712
Si Si4 0.935879 0.939571 0.747108
Si Si5 0.718933 0.000000 0.333334
Si Si6 0.821250 0.395257 0.829412
O O1 0.851537 0.860982 0.191092
O O2 0.610168 0.595793 0.133239
O O3 0.590369 0.884220 0.146440
O O4 0.848400 0.898271 0.082056
O O5 0.310897 0.469177 0.983210
O O6 0.329381 0.653607 0.888336
O O7 0.030651 0.465715 0.943280
O O8 0.291413 0.747094 0.994061
O O9 0.239722 0.119347 0.625259
O O10 0.520890 0.253488 0.553529
O O11 0.049761 0.858070 0.720398
#
# Coordination Sequence:
#
# PCOD8322111 Si02
#       6
#     6   6   6   6   3   6
#     4  10  21  39  65  86 124 166 212 256 320 376
#     4  11  24  42  63  93 130 166 215 271 322 390
#     4  10  24  42  65  91 131 166 216 265 328 384
#     4   9  20  42  61  85 122 169 205 258 318 391
#     4  10  20  40  64  90 128 164 212 270 320 386
#     4  11  21  42  62  95 127 166 209 271 314 379
#
# _framework density 21.536885000000002
#
# number of rings (size 3 to 8) (size 9 to 14) (size 15 to 20)
#    0.000    1.818    5.455    0.000    5.091    2.909 
#    0.000    0.000    0.000    2.182    0.000    0.000 
#    0.000    0.000    0.000    0.000    0.000    0.000 
#
# Total GULP energy -408866.256866 kJ/mol
# GULP energy per Si atom -12389.886572 kJ/mol
# Density = 2.148787 g / cm^3
# Si number density = 21.536885 Si / 1000 Ang^3
#
#
#
# Elastic Constant Matrix: (Units=GPa)
#
#
# Indices 1 2 3 4 5 6 
#
# 1 45.9441 5.1826 14.6798 -11.0160 0.0001 0.0000
# 2 5.1826 45.9441 14.6798 11.0160 -0.0001 0.0000
# 3 14.6798 14.6798 98.9829 0.0000 0.0000 0.0000
# 4 -11.0160 11.0160 0.0000 32.5792 0.0000 -0.0001
# 5 0.0001 -0.0001 0.0000 0.0000 32.5792 -11.0160
# 6 0.0000 0.0000 0.0000 -0.0001 -11.0160 20.3808
#
#
#
# Elastic Compliance Matrix: (Units=1/GPa)
#
#
# Indices 1 2 3 4 5 6 
#
# 1 0.025700 -0.004320 -0.003171 0.010150 0.000000 0.000000
# 2 -0.004320 0.025700 -0.003171 -0.010150 0.000000 0.000000
# 3 -0.003171 -0.003171 0.011043 0.000000 0.000000 0.000000
# 4 0.010150 -0.010150 0.000000 0.037559 0.000000 0.000000
# 5 0.000000 0.000000 0.000000 0.000000 0.037559 0.020301
# 6 0.000000 0.000000 0.000000 0.000000 0.020301 0.060039
#
#
# Mechanical properties :
#
#
# Convention : Reuss Voigt Hill
#
# Bulk Modulus (GPa) = 24.31895 28.88397 26.60146
# Shear Modulus (GPa) = 21.49354 27.52974 24.51164
#
# Velocity S-wave (km/s) = 3.16252 3.57915 3.37727
# Velocity P-wave (km/s) = 4.96504 5.52458 5.25227
#
# Compressibility (1/GPa) = 0.04112019
#
# Stress axis : x y z
#
# Youngs Moduli (GPa) = 38.91095 38.91095 90.55294
#
# Poissons Ratio (x) = 0.16808 0.28713
# Poissons Ratio (y) = 0.16808 0.28713
# Poissons Ratio (z) = 0.12338 0.12338
#
# Static dielectric constant tensor:
#      x y z
#    x 3.978350 0.000000 0.000000 
#    y 0.000000 3.978350 0.000000 
#    z 0.000000 0.000000 4.224140 
# 
# 
# High freq. dielectric constant tensor:
#      x y z
#    x 1.830420 0.000000 0.000000 
#    y 0.000000 1.830420 0.000000 
#    z 0.000000 0.000000 1.852550 
# 
# From -- ./inp_files/3368.got.cif
#   From: 2010.03.12/outbox.cif.g09.slc.cpg/sg152_2_cif.got.tgz:3368.got - 2010.04.03 13:45:27.
