data_PCOD8322681
_publ_section_title
;
Structure prediction by ZEFSAII (Michael W. Deem and Ramdas Pophale) SiO2 
 PCOD8322681
Probable space group: P 3 M 1
;
_chemical_formula_sum "Si O2"
_cell_formula_units_Z 48
_cell_length_a 12.741847
_cell_length_b 12.741847
_cell_length_c 20.203426
_cell_angle_alpha 90.000000
_cell_angle_beta 90.000000
_cell_angle_gamma 120.000000
_cell_volume 2840.667645
_symmetry_space_group_name_H-M "P 3 M 1"
_symmetry_group_IT_number 156
_symmetry_cell_setting 'hexagonal'
loop_
_space_group_symop_operation_xyz
x,y,z
-y,x-y,z
-x+y,-x,z
-x+y,y,z
x,x-y,z
-y,-x,z
loop_
_atom_site_type_symbol
_atom_site_label
_atom_site_fract_x
_atom_site_fract_y
_atom_site_fract_z
Si Si1 0.578283 0.911137 0.480300
Si Si2 0.243652 0.245064 0.600917
Si Si3 0.425022 0.091616 0.215123
Si Si4 0.574588 0.666732 0.866021
Si Si5 0.912060 0.334764 0.980362
Si Si6 0.333252 0.425300 0.715040
Si Si7 0.425740 0.092334 0.366230
Si Si8 0.087768 0.665399 0.101051
O O1 0.454311 0.908621 0.495063
O O2 0.549572 0.774786 0.473463
O O3 0.667569 0.980852 0.540207
O O4 0.639819 0.979432 0.412214
O O5 0.102601 0.205202 0.600398
O O6 0.306542 0.312392 0.669046
O O7 0.256790 0.128395 0.594224
O O8 0.564318 0.128635 0.203635
O O9 0.412799 0.206400 0.194777
O O10 0.384847 0.052663 0.290732
O O11 0.337730 0.978571 0.169411
O O12 0.589236 0.794618 0.886838
O O13 0.434145 0.565856 0.876012
O O14 0.660048 0.638740 0.911822
O O15 0.615118 0.667536 0.790532
O O16 0.872742 0.436371 0.982124
O O17 0.794761 0.205240 0.986758
O O18 0.000086 0.351473 0.040599
O O19 0.232243 0.464485 0.704164
O O20 0.461392 0.538609 0.694919
O O21 0.565788 0.131575 0.376070
O O22 0.411128 0.205564 0.386688
O O23 0.126039 0.563020 0.100123
O O24 0.205871 0.794129 0.094028
#
# Coordination Sequence:
#
# PCOD8322681 Si02
#       8
#     6   6   6   6   6   6   6   6
#     4  10  20  33  50  72  97 125 157 195 240 287
#     4  10  20  33  49  68  92 124 161 199 236 277
#     4   9  17  30  50  74  98 125 158 196 234 274
#     4   9  17  30  50  75 100 126 157 194 235 278
#     4  10  20  33  50  71  95 124 158 197 239 283
#     4   9  17  30  50  75 100 126 157 194 235 278
#     4   9  17  30  49  73  99 127 159 194 233 276
#     4  10  20  33  50  72  97 125 157 195 240 287
#
# _framework density 16.897435000000002
#
# number of rings (size 3 to 8) (size 9 to 14) (size 15 to 20)
#    0.000    2.500    0.000    2.500    0.000    3.000 
#    0.000    3.750    0.000    9.000    0.000    0.000 
#    0.000    0.000    0.000    0.000    0.000    0.000 
#
# Total GULP energy -595306.229317 kJ/mol
# GULP energy per Si atom -12402.213111 kJ/mol
# Density = 1.685898 g / cm^3
# Si number density = 16.897435 Si / 1000 Ang^3
#
#
#
# Elastic Constant Matrix: (Units=GPa)
#
#
# Indices 1 2 3 4 5 6 
#
# 1 115.4927 73.2856 64.7636 -2.3920 0.0002 0.0000
# 2 73.2856 115.4927 64.7636 2.3920 -0.0002 0.0000
# 3 64.7636 64.7636 110.9707 0.0000 0.0000 0.0000
# 4 -2.3920 2.3920 0.0000 23.4553 0.0000 -0.0002
# 5 0.0002 -0.0002 0.0000 0.0000 23.4553 -2.3920
# 6 0.0000 0.0000 0.0000 -0.0002 -2.3920 21.1035
#
#
#
# Elastic Compliance Matrix: (Units=1/GPa)
#
#
# Indices 1 2 3 4 5 6 
#
# 1 0.016402 -0.007567 -0.005156 0.002444 0.000000 0.000000
# 2 -0.007567 0.016402 -0.005156 -0.002444 0.000000 0.000000
# 3 -0.005156 -0.005156 0.015030 0.000000 0.000000 0.000000
# 4 0.002444 -0.002444 0.000000 0.043133 0.000000 0.000000
# 5 0.000000 0.000000 0.000000 0.000000 0.043133 0.004889
# 6 0.000000 0.000000 0.000000 0.000000 0.004889 0.047940
#
#
# Mechanical properties :
#
#
# Convention : Reuss Voigt Hill
#
# Bulk Modulus (GPa) = 82.81535 83.06465 82.94000
# Shear Modulus (GPa) = 22.54031 22.87903 22.70967
#
# Velocity S-wave (km/s) = 3.65629 3.68366 3.67000
# Velocity P-wave (km/s) = 8.18178 8.20715 8.19448
#
# Compressibility (1/GPa) = 0.01207506
#
# Stress axis : x y z
#
# Youngs Moduli (GPa) = 60.96655 60.96655 66.53414
#
# Poissons Ratio (x) = 0.46135 0.34307
# Poissons Ratio (y) = 0.46135 0.34307
# Poissons Ratio (z) = 0.31436 0.31436
#
# Static dielectric constant tensor:
#      x y z
#    x 3.013910 0.000000 0.000000 
#    y 0.000000 3.013910 0.000000 
#    z 0.000000 0.000000 3.444400 
# 
# 
# High freq. dielectric constant tensor:
#      x y z
#    x 1.641450 0.000000 0.000000 
#    y 0.000000 1.641450 0.000000 
#    z 0.000000 0.000000 1.668270 
# 
# From -- ./inp_files/1126.got.cif
#   From: 2010.03.12/outbox.cif.g09.slc.cpg/sg156_cif.got.tgz:1126.got - 2010.04.03 13:58:47.
