data_PCOD8322930
_publ_section_title
;
Structure prediction by ZEFSAII (Michael W. Deem and Ramdas Pophale) SiO2 
 PCOD8322930
Probable space group: P -3 1 M 
;
_chemical_formula_sum "Si O2"
_cell_formula_units_Z 60
_cell_length_a 20.485346
_cell_length_b 20.485346
_cell_length_c 12.985097
_cell_angle_alpha 90.000000
_cell_angle_beta 90.000000
_cell_angle_gamma 120.000000
_cell_volume 4719.135389
_symmetry_space_group_name_H-M "P -3 1 M "
_symmetry_group_IT_number 162
_symmetry_cell_setting 'hexagonal'
loop_
_space_group_symop_operation_xyz
x,y,z
-y,x-y,z
-x+y,-x,z
-y,-x,-z
-x+y,y,-z
x,x-y,-z
-x,-y,-z
y,-x+y,-z
x-y,x,-z
y,x,z
x-y,-y,z
-x,-x+y,z
loop_
_atom_site_type_symbol
_atom_site_label
_atom_site_fract_x
_atom_site_fract_y
_atom_site_fract_z
Si Si1 0.332488 0.512193 0.304820
Si Si2 0.535356 0.915677 0.885838
Si Si3 0.915417 0.535176 0.500000
Si Si4 0.332488 0.820295 0.304819
Si Si5 0.535356 0.619680 0.885838
O O1 0.333822 0.461943 0.398905
O O2 0.261884 0.523769 0.316842
O O3 0.406008 0.593992 0.304622
O O4 0.324698 0.466603 0.199604
O O5 0.533397 0.858094 0.800396
O O6 0.458838 0.917676 0.879681
O O7 0.604181 0.000000 0.863624
O O8 0.544364 0.888984 0.000000
O O9 0.919575 0.459788 0.500000
O O10 0.871879 0.538058 0.601095
O O11 0.000000 0.606692 0.500000
O O12 0.604181 0.604181 0.863624
#
# Coordination Sequence:
#
# PCOD8322930 Si02
#       5
#    12  12  12  12  12
#     4  10  18  26  36  51  71  90 107 133 175 222
#     4   8  14  25  39  51  63  84 115 144 165 191
#     4   9  17  28  40  50  60  81 114 144 166 196
#     4  10  18  26  36  51  71  90 107 133 175 222
#     4   8  14  25  39  51  63  84 115 144 165 191
#
# _framework density 12.714193
#
# number of rings (size 3 to 8) (size 9 to 14) (size 15 to 20)
#    0.000    3.000    0.000    3.400    0.000    5.600 
#    0.000    2.000    0.000    2.400    0.000    0.000 
#    0.000    0.000    0.000    0.000    0.000    0.000 
#
# Total GULP energy -743659.317364 kJ/mol
# GULP energy per Si atom -12394.321956 kJ/mol
# Density = 1.268525 g / cm^3
# Si number density = 12.714193 Si / 1000 Ang^3
#
#
#
# Elastic Constant Matrix: (Units=GPa)
#
#
# Indices 1 2 3 4 5 6 
#
# 1 43.4286 23.4494 38.7514 0.0000 0.0000 0.0000
# 2 23.4494 43.4286 38.7514 0.0000 0.0000 0.0000
# 3 38.7514 38.7514 121.8195 0.0000 0.0000 0.0000
# 4 0.0000 0.0000 0.0000 13.9960 0.0000 0.0000
# 5 0.0000 0.0000 0.0000 0.0000 13.9960 0.0000
# 6 0.0000 0.0000 0.0000 0.0000 0.0000 9.9896
#
#
#
# Elastic Compliance Matrix: (Units=1/GPa)
#
#
# Indices 1 2 3 4 5 6 
#
# 1 0.036868 -0.013184 -0.007534 0.000000 0.000000 0.000000
# 2 -0.013184 0.036868 -0.007534 0.000000 0.000000 0.000000
# 3 -0.007534 -0.007534 0.013002 0.000000 0.000000 0.000000
# 4 0.000000 0.000000 0.000000 0.071449 0.000000 0.000000
# 5 0.000000 0.000000 0.000000 0.000000 0.071449 0.000000
# 6 0.000000 0.000000 0.000000 0.000000 0.000000 0.100104
#
#
# Mechanical properties :
#
#
# Convention : Reuss Voigt Hill
#
# Bulk Modulus (GPa) = 33.07604 45.62014 39.34809
# Shear Modulus (GPa) = 12.61604 14.77795 13.69700
#
# Velocity S-wave (km/s) = 3.15347 3.41298 3.28579
# Velocity P-wave (km/s) = 6.27142 7.17568 6.73873
#
# Compressibility (1/GPa) = 0.03023337
#
# Stress axis : x y z
#
# Youngs Moduli (GPa) = 27.12406 27.12406 76.91167
#
# Poissons Ratio (x) = 0.35761 0.57943
# Poissons Ratio (y) = 0.35761 0.57943
# Poissons Ratio (z) = 0.20435 0.20435
#
# Static dielectric constant tensor:
#      x y z
#    x 2.335100 0.000000 0.000000 
#    y 0.000000 2.335100 0.000000 
#    z 0.000000 0.000000 2.979780 
# 
# 
# High freq. dielectric constant tensor:
#      x y z
#    x 1.442290 0.000000 0.000000 
#    y 0.000000 1.442290 0.000000 
#    z 0.000000 0.000000 1.508540 
# 
# From -- ./inp_files/3010.got.cif
#   From: 2010.03.12/outbox.cif.g09.slc.cpg/sg162_2_cif.got.tgz:3010.got - 2010.04.02 06:27:41.
