data_PCOD8322934
_publ_section_title
;
Structure prediction by ZEFSAII (Michael W. Deem and Ramdas Pophale) SiO2 
 PCOD8322934
Probable space group: P -3 1 M 
;
_chemical_formula_sum "Si O2"
_cell_formula_units_Z 84
_cell_length_a 20.467554
_cell_length_b 20.467554
_cell_length_c 18.079652
_cell_angle_alpha 90.000000
_cell_angle_beta 90.000000
_cell_angle_gamma 120.000000
_cell_volume 6559.225900
_symmetry_space_group_name_H-M "P -3 1 M "
_symmetry_group_IT_number 162
_symmetry_cell_setting 'hexagonal'
loop_
_space_group_symop_operation_xyz
x,y,z
-y,x-y,z
-x+y,-x,z
-y,-x,-z
-x+y,y,-z
x,x-y,-z
-x,-y,-z
y,-x+y,-z
x-y,x,-z
y,x,z
x-y,-y,z
-x,-x+y,z
loop_
_atom_site_type_symbol
_atom_site_label
_atom_site_fract_x
_atom_site_fract_y
_atom_site_fract_z
Si Si1 0.667070 0.178783 0.358617
Si Si2 0.511712 0.178783 0.358617
Si Si3 0.535534 0.619314 0.780959
Si Si4 0.619315 0.083780 0.780959
Si Si5 0.084796 0.464917 0.500000
Si Si6 0.485036 0.818592 0.083365
Si Si7 0.666444 0.181408 0.916635
O O1 0.594712 0.189425 0.358835
O O2 0.739497 0.260503 0.363327
O O3 0.671319 0.136798 0.284963
O O4 0.666324 0.128972 0.427655
O O5 0.465479 0.136798 0.284963
O O6 0.462648 0.128972 0.427654
O O7 0.607750 0.607750 0.773175
O O8 0.460826 0.539174 0.776244
O O9 0.540904 0.658201 0.859985
O O10 0.658201 0.117297 0.859985
O O11 0.607750 0.000000 0.773175
O O12 0.079872 0.539936 0.500000
O O13 0.000000 0.393170 0.500000
O O14 0.399583 0.799166 0.095773
O O15 0.486851 0.743426 0.100585
O O16 0.512357 0.847861 0.000000
#
# Coordination Sequence:
#
# PCOD8322934 Si02
#       7
#    12  12  12  12  12  12  12
#     4  10  18  27  39  54  71  89 112 144 181 216
#     4  10  18  27  39  54  71  89 112 144 181 216
#     4   9  17  27  37  49  66  89 115 141 172 213
#     4   9  17  27  37  49  66  89 115 141 172 213
#     4   9  17  28  40  52  68  91 114 136 168 212
#     4   9  16  25  37  52  69  88 111 142 181 220
#     4   9  16  25  37  52  69  88 111 142 181 220
#
# _framework density 12.80639
#
# number of rings (size 3 to 8) (size 9 to 14) (size 15 to 20)
#    0.000    2.714    0.000    2.714    0.000    5.143 
#    0.000    7.143    0.000    0.000    0.000    0.000 
#    0.000    0.000    0.000    0.000    0.000    0.000 
#
# Total GULP energy -1041413.199811 kJ/mol
# GULP energy per Si atom -12397.776188 kJ/mol
# Density = 1.277724 g / cm^3
# Si number density = 12.806390 Si / 1000 Ang^3
#
#
#
# Elastic Constant Matrix: (Units=GPa)
#
#
# Indices 1 2 3 4 5 6 
#
# 1 53.4423 30.0721 39.4984 0.0000 0.0000 0.0000
# 2 30.0721 53.4423 39.4984 0.0000 0.0000 0.0000
# 3 39.4984 39.4984 110.4140 0.0000 0.0000 0.0000
# 4 0.0000 0.0000 0.0000 17.4947 0.0000 0.0000
# 5 0.0000 0.0000 0.0000 0.0000 17.4947 0.0000
# 6 0.0000 0.0000 0.0000 0.0000 0.0000 11.6851
#
#
#
# Elastic Compliance Matrix: (Units=1/GPa)
#
#
# Indices 1 2 3 4 5 6 
#
# 1 0.030444 -0.012346 -0.006474 0.000000 0.000000 0.000000
# 2 -0.012346 0.030444 -0.006474 0.000000 0.000000 0.000000
# 3 -0.006474 -0.006474 0.013689 0.000000 0.000000 0.000000
# 4 0.000000 0.000000 0.000000 0.057160 0.000000 0.000000
# 5 0.000000 0.000000 0.000000 0.000000 0.057160 0.000000
# 6 0.000000 0.000000 0.000000 0.000000 0.000000 0.085579
#
#
# Mechanical properties :
#
#
# Convention : Reuss Voigt Hill
#
# Bulk Modulus (GPa) = 41.68747 48.38180 45.03463
# Shear Modulus (GPa) = 15.01231 16.55021 15.78126
#
# Velocity S-wave (km/s) = 3.42753 3.59881 3.51422
# Velocity P-wave (km/s) = 6.94886 7.42496 7.19085
#
# Compressibility (1/GPa) = 0.02398803
#
# Stress axis : x y z
#
# Youngs Moduli (GPa) = 32.84750 32.84750 73.05222
#
# Poissons Ratio (x) = 0.40553 0.47295
# Poissons Ratio (y) = 0.40553 0.47295
# Poissons Ratio (z) = 0.21266 0.21266
#
# Static dielectric constant tensor:
#      x y z
#    x 2.416260 0.000000 0.000000 
#    y 0.000000 2.416260 0.000000 
#    z 0.000000 0.000000 2.881760 
# 
# 
# High freq. dielectric constant tensor:
#      x y z
#    x 1.450720 0.000000 0.000000 
#    y 0.000000 1.450720 0.000000 
#    z 0.000000 0.000000 1.511190 
# 
# From -- ./inp_files/3861.got.cif
#   From: 2010.03.12/outbox.cif.g09.slc.cpg/sg162_2_cif.got.tgz:3861.got - 2010.04.02 06:27:41.
