data_PCOD8322137
_publ_section_title
;
Structure prediction by ZEFSAII (Michael W. Deem and Ramdas Pophale) SiO2 
 PCOD8322137
Probable space group: P 31 2 1
;
_chemical_formula_sum "Si O2"
_cell_formula_units_Z 42
_cell_length_a 8.820984
_cell_length_b 8.820984
_cell_length_c 27.129799
_cell_angle_alpha 90.000000
_cell_angle_beta 90.000000
_cell_angle_gamma 120.000000
_cell_volume 1828.147684
_symmetry_space_group_name_H-M "P 31 2 1"
_symmetry_group_IT_number 152
_symmetry_cell_setting 'hexagonal'
loop_
_space_group_symop_operation_xyz
x,y,z
-y,x-y,1/3+z
-x+y,-x,2/3+z
x-y,-y,2/3-z
-x,-x+y,1/3-z
y,x,-z
loop_
_atom_site_type_symbol
_atom_site_label
_atom_site_fract_x
_atom_site_fract_y
_atom_site_fract_z
Si Si1 0.605941 0.313448 0.281348
Si Si2 0.440685 0.083527 0.199675
Si Si3 0.380799 0.688448 0.862105
Si Si4 0.843201 0.138816 0.290645
Si Si5 0.278875 0.394092 0.445407
Si Si6 0.856326 0.923727 0.202195
Si Si7 0.871307 0.386761 0.048352
O O1 0.432960 0.158479 0.254067
O O2 0.723794 0.226981 0.294892
O O3 0.691979 0.479452 0.244345
O O4 0.558952 0.378216 0.330983
O O5 0.628088 0.223272 0.176710
O O6 0.307730 0.093803 0.162289
O O7 0.436709 0.900112 0.204732
O O8 0.544732 0.865820 0.837518
O O9 0.298021 0.708920 0.913511
O O10 0.042123 0.305978 0.293108
O O11 0.807442 0.000000 0.333334
O O12 0.806634 0.028897 0.240638
O O13 0.435777 0.428378 0.410370
O O14 0.126646 0.191175 0.440190
O O15 0.000000 0.070266 0.166667
#
# Coordination Sequence:
#
# PCOD8322137 Si02
#       7
#     6   6   6   6   6   6   6
#     4  10  23  41  67  98 131 176 220 274 339 404
#     4  10  22  40  65 103 135 172 226 287 330 407
#     4  10  21  39  67  96 133 176 223 279 336 401
#     4  11  26  45  66  96 141 173 225 284 339 402
#     4   9  20  43  66  94 136 169 219 274 334 396
#     4  11  23  43  67  96 134 178 222 280 339 397
#     4  11  23  42  70  94 131 184 224 270 347 416
#
# _framework density 22.974074000000002
#
# number of rings (size 3 to 8) (size 9 to 14) (size 15 to 20)
#    0.000    1.714    0.000    3.857    4.000    4.571 
#   12.857    0.000    0.000    0.000    0.000    0.000 
#    0.000    0.000    0.000    0.000    0.000    0.000 
#
# Total GULP energy -520393.678696 kJ/mol
# GULP energy per Si atom -12390.325683 kJ/mol
# Density = 2.292178 g / cm^3
# Si number density = 22.974074 Si / 1000 Ang^3
#
#
#
# Elastic Constant Matrix: (Units=GPa)
#
#
# Indices 1 2 3 4 5 6 
#
# 1 80.9034 31.4882 45.4543 5.5254 0.0002 0.0000
# 2 31.4882 80.9034 45.4543 -5.5254 -0.0002 0.0000
# 3 45.4543 45.4543 151.6152 0.0000 0.0000 0.0000
# 4 5.5254 -5.5254 0.0000 35.3710 0.0000 -0.0002
# 5 0.0002 -0.0002 0.0000 0.0000 35.3710 5.5254
# 6 0.0000 0.0000 0.0000 -0.0002 5.5254 24.7076
#
#
#
# Elastic Compliance Matrix: (Units=1/GPa)
#
#
# Indices 1 2 3 4 5 6 
#
# 1 0.016357 -0.004612 -0.003521 -0.003276 0.000000 0.000000
# 2 -0.004612 0.016357 -0.003521 0.003276 0.000000 0.000000
# 3 -0.003521 -0.003521 0.008707 0.000000 0.000000 0.000000
# 4 -0.003276 0.003276 0.000000 0.029295 0.000000 0.000000
# 5 0.000000 0.000000 0.000000 0.000000 0.029295 -0.006551
# 6 0.000000 0.000000 0.000000 0.000000 -0.006551 0.041938
#
#
# Mechanical properties :
#
#
# Convention : Reuss Voigt Hill
#
# Bulk Modulus (GPa) = 55.20883 62.02395 58.61639
# Shear Modulus (GPa) = 29.18898 31.82493 30.50696
#
# Velocity S-wave (km/s) = 3.56830 3.72594 3.64797
# Velocity P-wave (km/s) = 6.40782 6.75027 6.58127
#
# Compressibility (1/GPa) = 0.01811304
#
# Stress axis : x y z
#
# Youngs Moduli (GPa) = 61.13411 61.13411 114.84930
#
# Poissons Ratio (x) = 0.28193 0.40443
# Poissons Ratio (y) = 0.28193 0.40443
# Poissons Ratio (z) = 0.21528 0.21528
#
# Static dielectric constant tensor:
#      x y z
#    x 4.381430 0.000000 0.000000 
#    y 0.000000 4.381430 0.000000 
#    z 0.000000 0.000000 4.581920 
# 
# 
# High freq. dielectric constant tensor:
#      x y z
#    x 1.903660 0.000000 0.000000 
#    y 0.000000 1.903660 0.000000 
#    z 0.000000 0.000000 1.917970 
# 
# From -- ./inp_files/3710.got.cif
#   From: 2010.03.12/outbox.cif.g09.slc.cpg/sg152_2_cif.got.tgz:3710.got - 2010.04.03 13:45:27.
