data_PCOD8322955
_publ_section_title
;
Structure prediction by ZEFSAII (Michael W. Deem and Ramdas Pophale) SiO2 
 PCOD8322955
Probable space group: P -3 1 M 
;
_chemical_formula_sum "Si O2"
_cell_formula_units_Z 66
_cell_length_a 20.170828
_cell_length_b 20.170828
_cell_length_c 9.592345
_cell_angle_alpha 90.000000
_cell_angle_beta 90.000000
_cell_angle_gamma 120.000000
_cell_volume 3379.892397
_symmetry_space_group_name_H-M "P -3 1 M "
_symmetry_group_IT_number 162
_symmetry_cell_setting 'hexagonal'
loop_
_space_group_symop_operation_xyz
x,y,z
-y,x-y,z
-x+y,-x,z
-y,-x,-z
-x+y,y,-z
x,x-y,-z
-x,-y,-z
y,-x+y,-z
x-y,x,-z
y,x,z
x-y,-y,z
-x,-x+y,z
loop_
_atom_site_type_symbol
_atom_site_label
_atom_site_fract_x
_atom_site_fract_y
_atom_site_fract_z
Si Si1 0.703456 0.090077 0.068586
Si Si2 0.819588 0.909794 0.500000
Si Si3 0.560646 0.909307 0.782654
Si Si4 0.496296 0.586790 0.731540
Si Si5 0.705358 0.550435 0.508637
Si Si6 0.788904 0.089089 0.311846
O O1 0.655765 0.119265 0.159088
O O2 0.783554 0.111524 0.148738
O O3 0.652948 0.000000 0.051690
O O4 0.711311 0.125464 0.913257
O O5 0.872700 0.872700 0.471327
O O6 0.766494 0.873047 0.638454
O O7 0.469763 0.880117 0.784759
O O8 0.580177 0.880892 0.642758
O O9 0.607019 0.000000 0.787226
O O10 0.542096 0.542096 0.712121
O O11 0.497010 0.623281 0.580467
O O12 0.752187 0.504374 0.500000
O O13 0.759706 0.626765 0.592763
O O14 0.728784 0.000000 0.331855
#
# Coordination Sequence:
#
# PCOD8322955 Si02
#       6
#    12   6  12  12  12  12
#     4   8  15  28  50  79 107 132 160 201 262 325
#     4  10  19  32  54  80 108 148 198 242 280 326
#     4  10  18  30  52  80 103 130 172 215 256 317
#     4   9  17  31  51  74 104 135 166 211 265 313
#     4  11  20  30  44  70 102 143 179 213 262 322
#     4   9  17  32  50  71 105 142 169 214 278 326
#
# _framework density 19.527248
#
# number of rings (size 3 to 8) (size 9 to 14) (size 15 to 20)
#    0.000    2.545    0.909    3.909    0.000    3.636 
#    0.000    3.636    0.000    2.909    0.000    2.545 
#    0.000    0.000    0.000   18.182    0.000    0.000 
#
# Total GULP energy -817647.607341 kJ/mol
# GULP energy per Si atom -12388.600111 kJ/mol
# Density = 1.948280 g / cm^3
# Si number density = 19.527248 Si / 1000 Ang^3
#
#
#
# Elastic Constant Matrix: (Units=GPa)
#
#
# Indices 1 2 3 4 5 6 
#
# 1 41.0641 53.0706 40.6957 -0.0011 -4.9229 0.0000
# 2 53.0706 41.0641 40.6957 0.0011 4.9229 0.0000
# 3 40.6957 40.6957 166.5815 0.0000 0.0000 0.0000
# 4 -0.0011 0.0011 0.0000 11.2275 0.0000 4.9229
# 5 -4.9229 4.9229 0.0000 0.0000 11.2275 -0.0011
# 6 0.0000 0.0000 0.0000 4.9229 -0.0011 -6.0033
#
#
#
# Elastic Compliance Matrix: (Units=1/GPa)
#
#
# Indices 1 2 3 4 5 6 
#
# 1 -0.023896 0.037364 -0.003290 -0.000006 -0.026861 0.000000
# 2 0.037364 -0.023896 -0.003290 0.000006 0.026861 0.000000
# 3 -0.003290 -0.003290 0.007611 0.000000 0.000000 0.000000
# 4 -0.000006 0.000006 0.000000 0.065511 0.000000 0.053722
# 5 -0.026861 0.026861 0.000000 0.000000 0.065511 -0.000012
# 6 0.000000 0.000000 0.000000 0.053722 -0.000012 -0.122521
#
#
# Mechanical properties :
#
#
# Convention : Reuss Voigt Hill
#
# Bulk Modulus (GPa) = 46.76037 57.51485 52.13761
# Shear Modulus (GPa) = -58.05880 10.90685 -23.57597
#
# Velocity S-wave (km/s) = -5.45864 2.36592 -3.47845
# Velocity P-wave (km/s) = 3.96621 6.08120 3.25962
#
# Compressibility (1/GPa) = 0.02138563
#
# Stress axis : x y z
#
# Youngs Moduli (GPa) = -41.84740 -41.84740 131.39489
#
# Poissons Ratio (x) = 1.56360 0.43231
# Poissons Ratio (y) = 1.56360 0.43231
# Poissons Ratio (z) = -0.13769 -0.13769
#
# Static dielectric constant tensor:
#      x y z
#    x 3.505770 0.000000 0.000000 
#    y 0.000000 3.505770 0.000000 
#    z 0.000000 0.000000 4.081300 
# 
# 
# High freq. dielectric constant tensor:
#      x y z
#    x 1.737210 0.000000 0.000000 
#    y 0.000000 1.737210 0.000000 
#    z 0.000000 0.000000 1.767910 
# 
# From -- ./inp_files/1581.got.cif
#   From: 2010.03.12/outbox.cif.g09.slc.cpg/sg162_1_cif.got.tgz:1581.got - 2010.04.02 06:27:41.
