data_PCOD8322367
_publ_section_title
;
Structure prediction by ZEFSAII (Michael W. Deem and Ramdas Pophale) SiO2 
 PCOD8322367
Probable space group: P 32 2 1
;
_chemical_formula_sum "Si O2"
_cell_formula_units_Z 33
_cell_length_a 15.570674
_cell_length_b 15.570674
_cell_length_c 7.552869
_cell_angle_alpha 90.000000
_cell_angle_beta 90.000000
_cell_angle_gamma 120.000000
_cell_volume 1585.832843
_symmetry_space_group_name_H-M "P 32 2 1"
_symmetry_group_IT_number 154
_symmetry_cell_setting 'hexagonal'
loop_
_space_group_symop_operation_xyz
x,y,z
-y,x-y,2/3+z
-x+y,-x,1/3+z
x-y,-y,1/3-z
-x,-x+y,2/3-z
y,x,-z
loop_
_atom_site_type_symbol
_atom_site_label
_atom_site_fract_x
_atom_site_fract_y
_atom_site_fract_z
Si Si1 0.273828 0.665574 0.374750
Si Si2 0.450102 0.383729 0.336023
Si Si3 0.403499 0.008104 0.876288
Si Si4 0.254146 0.797832 0.850213
Si Si5 0.313645 0.313645 0.000000
Si Si6 0.809984 0.196263 0.520652
O O1 0.296881 0.668657 0.165503
O O2 0.206184 0.551280 0.424888
O O3 0.213356 0.721319 0.409727
O O4 0.386652 0.386652 0.500000
O O5 0.546810 0.491556 0.311442
O O6 0.478892 0.297404 0.364455
O O7 0.386040 0.361079 0.163288
O O8 0.364279 0.083508 0.917934
O O9 0.417724 0.000000 0.666667
O O10 0.316581 0.902419 0.956263
O O11 0.188474 0.806387 0.692694
O O12 0.301974 0.208450 0.941656
#
# Coordination Sequence:
#
# PCOD8322367 Si02
#       6
#     6   6   6   6   3   6
#     4  10  21  34  53  83 118 162 207 247 299 364
#     4  12  24  40  64  93 130 171 216 262 323 386
#     4  10  22  41  64  91 132 170 215 266 321 383
#     4  10  22  38  60  91 125 164 216 263 310 386
#     4  12  24  40  60  86 122 168 212 268 324 384
#     4  10  22  39  59  88 122 169 213 261 319 372
#
# _framework density 20.809255
#
# number of rings (size 3 to 8) (size 9 to 14) (size 15 to 20)
#    0.000    1.455    2.727    2.182   10.182    1.455 
#    0.000    0.000    0.000    0.000    0.000    2.545 
#    2.727    0.000    0.000    0.000    0.000    0.000 
#
# Total GULP energy -408957.557171 kJ/mol
# GULP energy per Si atom -12392.653248 kJ/mol
# Density = 2.076189 g / cm^3
# Si number density = 20.809255 Si / 1000 Ang^3
#
#
#
# Elastic Constant Matrix: (Units=GPa)
#
#
# Indices 1 2 3 4 5 6 
#
# 1 124.5066 69.7000 32.6513 6.4462 0.0001 0.0000
# 2 69.7000 124.5066 32.6513 -6.4462 -0.0001 0.0000
# 3 32.6513 32.6513 77.0667 0.0000 0.0000 0.0000
# 4 6.4462 -6.4462 0.0000 25.9798 0.0000 -0.0001
# 5 0.0001 -0.0001 0.0000 0.0000 25.9798 6.4462
# 6 0.0000 0.0000 0.0000 -0.0001 6.4462 27.4033
#
#
#
# Elastic Compliance Matrix: (Units=1/GPa)
#
#
# Indices 1 2 3 4 5 6 
#
# 1 0.012691 -0.006686 -0.002544 -0.004808 0.000000 0.000000
# 2 -0.006686 0.012691 -0.002544 0.004808 0.000000 0.000000
# 3 -0.002544 -0.002544 0.015131 0.000000 0.000000 0.000000
# 4 -0.004808 0.004808 0.000000 0.040877 0.000000 0.000000
# 5 0.000000 0.000000 0.000000 0.000000 0.040877 -0.009616
# 6 0.000000 0.000000 0.000000 0.000000 -0.009616 0.038754
#
#
# Mechanical properties :
#
#
# Convention : Reuss Voigt Hill
#
# Bulk Modulus (GPa) = 58.94623 66.23167 62.58895
# Shear Modulus (GPa) = 26.28466 28.61105 27.44786
#
# Velocity S-wave (km/s) = 3.55790 3.71201 3.63577
# Velocity P-wave (km/s) = 6.72805 7.09007 6.91143
#
# Compressibility (1/GPa) = 0.01696461
#
# Stress axis : x y z
#
# Youngs Moduli (GPa) = 78.79734 78.79734 66.08759
#
# Poissons Ratio (x) = 0.52685 0.16813
# Poissons Ratio (y) = 0.52685 0.16813
# Poissons Ratio (z) = 0.20046 0.20046
#
# Static dielectric constant tensor:
#      x y z
#    x 3.865600 0.000000 0.000000 
#    y 0.000000 3.865600 0.000000 
#    z 0.000000 0.000000 4.089040 
# 
# 
# High freq. dielectric constant tensor:
#      x y z
#    x 1.790300 0.000000 0.000000 
#    y 0.000000 1.790300 0.000000 
#    z 0.000000 0.000000 1.825640 
# 
# From -- ./inp_files/1135.got.cif
#   From: 2010.03.12/outbox.cif.g09.slc.cpg/sg154_1_cif.got.tgz:1135.got - 2010.04.03 13:51:21.
