data_PCOD8322187
_publ_section_title
;
Structure prediction by ZEFSAII (Michael W. Deem and Ramdas Pophale) SiO2 
 PCOD8322187
Probable space group: P 31 2 1
;
_chemical_formula_sum "Si O2"
_cell_formula_units_Z 18
_cell_length_a 10.569829
_cell_length_b 10.569829
_cell_length_c 7.890843
_cell_angle_alpha 90.000000
_cell_angle_beta 90.000000
_cell_angle_gamma 120.000000
_cell_volume 763.466450
_symmetry_space_group_name_H-M "P 31 2 1"
_symmetry_group_IT_number 152
_symmetry_cell_setting 'hexagonal'
loop_
_space_group_symop_operation_xyz
x,y,z
-y,x-y,1/3+z
-x+y,-x,2/3+z
x-y,-y,2/3-z
-x,-x+y,1/3-z
y,x,-z
loop_
_atom_site_type_symbol
_atom_site_label
_atom_site_fract_x
_atom_site_fract_y
_atom_site_fract_z
Si Si1 0.931642 0.222261 0.989996
Si Si2 0.290619 0.222261 0.176671
Si Si3 0.759670 0.379835 0.916667
O O1 0.857406 0.304161 0.900500
O O2 0.052280 0.232543 0.858806
O O3 0.000000 0.303875 0.166667
O O4 0.819738 0.052280 0.025473
O O5 0.446755 0.304161 0.266167
O O6 0.303874 0.303874 0.000000
O O7 0.658691 0.341309 0.750000
#
# Coordination Sequence:
#
# PCOD8322187 Si02
#       3
#     6   6   6
#     4  10  24  48  75 108 153 201 259 317 390 470
#     4  10  24  48  75 108 153 201 259 317 390 470
#     4  12  28  48  78 112 152 200 258 324 390 462
#
# _framework density 23.576673
#
# number of rings (size 3 to 8) (size 9 to 14) (size 15 to 20)
#    0.000    1.333    0.000    4.000   14.000    0.000 
#   36.000    0.000    0.000    0.000    0.000    0.000 
#    0.000    0.000    0.000    0.000    0.000    0.000 
#
# Total GULP energy -223345.169663 kJ/mol
# GULP energy per Si atom -12408.064981 kJ/mol
# Density = 2.352301 g / cm^3
# Si number density = 23.576673 Si / 1000 Ang^3
#
#
#
# Elastic Constant Matrix: (Units=GPa)
#
#
# Indices 1 2 3 4 5 6 
#
# 1 156.5874 73.9605 45.0477 -0.0001 0.0000 0.0000
# 2 73.9605 156.5874 45.0477 0.0001 0.0000 0.0000
# 3 45.0477 45.0477 119.3219 0.0000 0.0000 0.0000
# 4 -0.0001 0.0001 0.0000 42.0833 0.0000 0.0000
# 5 0.0000 0.0000 0.0000 0.0000 42.0833 -0.0001
# 6 0.0000 0.0000 0.0000 0.0000 -0.0001 41.3134
#
#
#
# Elastic Compliance Matrix: (Units=1/GPa)
#
#
# Indices 1 2 3 4 5 6 
#
# 1 0.008595 -0.003507 -0.001921 0.000000 0.000000 0.000000
# 2 -0.003507 0.008595 -0.001921 0.000000 0.000000 0.000000
# 3 -0.001921 -0.001921 0.009831 0.000000 0.000000 0.000000
# 4 0.000000 0.000000 0.000000 0.023762 0.000000 0.000000
# 5 0.000000 0.000000 0.000000 0.000000 0.023762 0.000000
# 6 0.000000 0.000000 0.000000 0.000000 0.000000 0.024205
#
#
# Mechanical properties :
#
#
# Convention : Reuss Voigt Hill
#
# Bulk Modulus (GPa) = 81.14448 84.51206 82.82827
# Shear Modulus (GPa) = 42.53222 42.99208 42.76215
#
# Velocity S-wave (km/s) = 4.25196 4.27488 4.26343
# Velocity P-wave (km/s) = 7.65490 7.76464 7.70996
#
# Compressibility (1/GPa) = 0.01232370
#
# Stress axis : x y z
#
# Youngs Moduli (GPa) = 116.34147 116.34147 101.71779
#
# Poissons Ratio (x) = 0.40803 0.19539
# Poissons Ratio (y) = 0.40803 0.19539
# Poissons Ratio (z) = 0.22349 0.22349
#
# Static dielectric constant tensor:
#      x y z
#    x 4.189360 0.000000 0.000000 
#    y 0.000000 4.189360 0.000000 
#    z 0.000000 0.000000 4.255010 
# 
# 
# High freq. dielectric constant tensor:
#      x y z
#    x 1.936840 0.000000 0.000000 
#    y 0.000000 1.936840 0.000000 
#    z 0.000000 0.000000 1.944970 
# 
# From -- ./inp_files/834.got.cif
#   From: 2010.03.12/outbox.cif.g09.slc.cpg/sg152_1_cif.got.tgz:834.got - 2010.04.03 13:45:27.
