data_PCOD8322506
_publ_section_title
;
Structure prediction by ZEFSAII (Michael W. Deem and Ramdas Pophale) SiO2 
 PCOD8322506
Probable space group: R 3 2
;
_chemical_formula_sum "Si O2"
_cell_formula_units_Z 90
_cell_length_a 25.005877
_cell_length_b 25.005877
_cell_length_c 9.886662
_cell_angle_alpha 90.000000
_cell_angle_beta 90.000000
_cell_angle_gamma 120.000000
_cell_volume 5353.829051
_symmetry_space_group_name_H-M "R 3 2"
_symmetry_group_IT_number 155
_symmetry_cell_setting 'hexagonal'
loop_
_space_group_symop_operation_xyz
x,y,z
-y,x-y,z
-x+y,-x,z
x-y,-y,-z
-x,-x+y,-z
y,x,-z
2/3+x,1/3+y,1/3+z
2/3-y,1/3+x-y,1/3+z
2/3-x+y,1/3-x,1/3+z
2/3+x-y,1/3-y,1/3-z
2/3-x,1/3-x+y,1/3-z
2/3+y,1/3+x,1/3-z
1/3+x,2/3+y,2/3+z
1/3-y,2/3+x-y,2/3+z
1/3-x+y,2/3-x,2/3+z
1/3+x-y,2/3-y,2/3-z
1/3-x,2/3-x+y,2/3-z
1/3+y,2/3+x,2/3-z
loop_
_atom_site_type_symbol
_atom_site_label
_atom_site_fract_x
_atom_site_fract_y
_atom_site_fract_z
Si Si1 0.073530 0.632176 0.800615
Si Si2 0.739600 0.748736 0.345535
Si Si3 0.126504 0.301652 0.696366
Si Si4 0.383000 0.177452 0.555341
Si Si5 0.952669 0.734572 0.388685
O O1 0.111486 0.666667 0.666667
O O2 0.093792 0.582882 0.850655
O O3 0.000719 0.594278 0.776421
O O4 0.086603 0.681408 0.915040
O O5 0.759934 0.759934 0.500000
O O6 0.666667 0.698115 0.333334
O O7 0.784603 0.730455 0.267306
O O8 0.755020 0.814495 0.283600
O O9 0.164254 0.333334 0.833334
O O10 0.138830 0.351144 0.579848
O O11 0.149526 0.255015 0.640773
O O12 0.333334 0.172563 0.666667
O O13 0.000000 0.782989 0.500000
#
# Coordination Sequence:
#
# PCOD8322506 Si02
#       5
#    18  18  18  18  18
#     4  11  20  32  49  72 103 140 179 213 257 310
#     4  11  20  35  55  74 101 144 181 218 276 322
#     4  11  22  33  50  78 107 135 185 226 259 323
#     4  10  20  34  50  73 102 141 181 219 258 319
#     4  11  21  32  50  73 105 145 178 215 258 308
#
# _framework density 16.810396999999998
#
# number of rings (size 3 to 8) (size 9 to 14) (size 15 to 20)
#    0.000    1.200    4.000    7.800    0.000    0.000 
#    0.000    0.000    0.000    0.000    0.000    0.000 
#    2.000    1.600    2.400    0.000    0.000    0.000 
#
# Total GULP energy -371893.215057 kJ/mol
# GULP energy per Si atom -12396.440502 kJ/mol
# Density = 1.677214 g / cm^3
# Si number density = 16.810397 Si / 1000 Ang^3
#
#
#
# Elastic Constant Matrix: (Units=GPa)
#
#
# Indices 1 2 3 4 5 6 
#
# 1 87.7238 53.5326 31.1175 0.8759 0.0044 0.0021
# 2 53.5326 87.7200 31.1118 -0.8724 0.0019 0.0017
# 3 31.1175 31.1118 116.5640 0.0098 0.0275 0.0159
# 4 0.8759 -0.8724 0.0098 23.4093 0.0039 0.0029
# 5 0.0044 0.0019 0.0275 0.0039 23.4157 0.8801
# 6 0.0021 0.0017 0.0159 0.0029 0.8801 17.1008
#
#
#
# Elastic Compliance Matrix: (Units=1/GPa)
#
#
# Indices 1 2 3 4 5 6 
#
# 1 0.018664 -0.010641 -0.002142 -0.001094 0.000000 0.000001
# 2 -0.010641 0.018664 -0.002141 0.001095 0.000003 0.000001
# 3 -0.002142 -0.002141 0.009722 -0.000004 -0.000011 -0.000008
# 4 -0.001094 0.001095 -0.000004 0.042800 -0.000007 -0.000007
# 5 0.000000 0.000003 -0.000011 -0.000007 0.042789 -0.002202
# 6 0.000001 0.000001 -0.000008 -0.000007 -0.002202 0.058590
#
#
# Mechanical properties :
#
#
# Convention : Reuss Voigt Hill
#
# Bulk Modulus (GPa) = 58.13349 58.17019 58.15184
# Shear Modulus (GPa) = 22.04475 24.53488 23.28982
#
# Velocity S-wave (km/s) = 3.62522 3.82449 3.72619
# Velocity P-wave (km/s) = 7.22357 7.36078 7.29250
#
# Compressibility (1/GPa) = 0.01720179
#
# Stress axis : x y z
#
# Youngs Moduli (GPa) = 53.57975 53.57914 102.85648
#
# Poissons Ratio (x) = 0.57014 0.22034
# Poissons Ratio (y) = 0.57014 0.22021
# Poissons Ratio (z) = 0.11478 0.11471
#
# Static dielectric constant tensor:
#      x y z
#    x 3.157290 0.000000 -0.000020 
#    y 0.000000 3.157280 -0.000010 
#    z -0.000020 -0.000010 3.531390 
# 
# 
# High freq. dielectric constant tensor:
#      x y z
#    x 1.616460 0.000000 0.000000 
#    y 0.000000 1.616460 0.000000 
#    z 0.000000 0.000000 1.679420 
# 
# From -- ./inp_files/2736.got.cif
#   From: 2010.03.12/outbox.cif.g09.slc.cpg/sg155_2_cif.got.tgz:2736.got - 2010.04.03 13:54:13.
