data_PCOD8322102
_publ_section_title
;
Structure prediction by ZEFSAII (Michael W. Deem and Ramdas Pophale) SiO2 
 PCOD8322102
Probable space group: P 31 2 1
;
_chemical_formula_sum "Si O2"
_cell_formula_units_Z 42
_cell_length_a 9.334774
_cell_length_b 9.334774
_cell_length_c 27.911708
_cell_angle_alpha 90.000000
_cell_angle_beta 90.000000
_cell_angle_gamma 120.000000
_cell_volume 2106.321499
_symmetry_space_group_name_H-M "P 31 2 1"
_symmetry_group_IT_number 152
_symmetry_cell_setting 'hexagonal'
loop_
_space_group_symop_operation_xyz
x,y,z
-y,x-y,1/3+z
-x+y,-x,2/3+z
x-y,-y,2/3-z
-x,-x+y,1/3-z
y,x,-z
loop_
_atom_site_type_symbol
_atom_site_label
_atom_site_fract_x
_atom_site_fract_y
_atom_site_fract_z
Si Si1 0.025387 0.156033 0.404617
Si Si2 0.831451 0.831451 0.000000
Si Si3 0.690893 0.517274 0.938644
Si Si4 0.010427 0.010427 0.500000
Si Si5 0.860003 0.347437 0.978835
Si Si6 0.954162 0.670672 0.861825
Si Si7 0.673442 0.092074 0.419884
Si Si8 0.461820 0.826259 0.606865
O O1 0.097312 0.061117 0.375288
O O2 0.067281 0.154161 0.460565
O O3 0.122508 0.344503 0.389368
O O4 0.825494 0.072594 0.399088
O O5 0.798686 0.660733 0.977044
O O6 0.709358 0.363765 0.956427
O O7 0.497560 0.459611 0.938821
O O8 0.772930 0.578960 0.886391
O O9 0.842090 0.976084 0.525421
O O10 0.034177 0.517914 0.978591
O O11 0.812570 0.279367 0.033210
O O12 0.087425 0.648996 0.892290
O O13 0.937762 0.590876 0.809950
O O14 0.704130 0.273132 0.407913
#
# Coordination Sequence:
#
# PCOD8322102 Si02
#       8
#     6   3   6   3   6   6   6   6
#     4  10  22  39  62  89 120 164 202 252 308 369
#     4  12  22  38  64  90 118 164 204 250 304 368
#     4  11  22  39  62  92 123 162 206 256 304 377
#     4  10  20  40  62  92 118 166 206 254 300 390
#     4  10  22  38  60  87 124 158 199 251 310 352
#     4  10  20  39  63  86 125 162 206 250 315 360
#     4  10  22  38  64  91 123 160 210 254 311 365
#     4  10  21  40  61  89 123 162 199 257 299 370
#
# _framework density 19.939976999999999
#
# number of rings (size 3 to 8) (size 9 to 14) (size 15 to 20)
#    0.000    1.714    1.429    3.429    0.000    4.000 
#    2.571    0.000    0.000    0.857    0.000    0.000 
#    0.000    0.000    0.000    0.000    0.000    0.000 
#
# Total GULP energy -520781.067402 kJ/mol
# GULP energy per Si atom -12399.549224 kJ/mol
# Density = 1.989459 g / cm^3
# Si number density = 19.939977 Si / 1000 Ang^3
#
#
#
# Elastic Constant Matrix: (Units=GPa)
#
#
# Indices 1 2 3 4 5 6 
#
# 1 104.3519 49.2164 43.2860 3.5138 0.0000 0.0000
# 2 49.2164 104.3519 43.2860 -3.5138 0.0000 0.0000
# 3 43.2860 43.2860 93.6630 0.0000 0.0000 0.0000
# 4 3.5138 -3.5138 0.0000 35.1355 0.0000 0.0000
# 5 0.0000 0.0000 0.0000 0.0000 35.1355 3.5138
# 6 0.0000 0.0000 0.0000 0.0000 3.5138 27.5678
#
#
#
# Elastic Compliance Matrix: (Units=1/GPa)
#
#
# Indices 1 2 3 4 5 6 
#
# 1 0.013589 -0.004783 -0.004070 -0.001837 0.000000 0.000000
# 2 -0.004783 0.013589 -0.004070 0.001837 0.000000 0.000000
# 3 -0.004070 -0.004070 0.014438 0.000000 0.000000 0.000000
# 4 -0.001837 0.001837 0.000000 0.028829 0.000000 0.000000
# 5 0.000000 0.000000 0.000000 0.000000 0.028829 -0.003674
# 6 0.000000 0.000000 0.000000 0.000000 -0.003674 0.036743
#
#
# Mechanical properties :
#
#
# Convention : Reuss Voigt Hill
#
# Bulk Modulus (GPa) = 63.40564 63.77153 63.58858
# Shear Modulus (GPa) = 29.91927 30.67300 30.29613
#
# Velocity S-wave (km/s) = 3.87779 3.92633 3.90213
# Velocity P-wave (km/s) = 7.20534 7.25299 7.22921
#
# Compressibility (1/GPa) = 0.01577147
#
# Stress axis : x y z
#
# Youngs Moduli (GPa) = 73.59092 73.59092 69.26118
#
# Poissons Ratio (x) = 0.35196 0.28187
# Poissons Ratio (y) = 0.35196 0.28187
# Poissons Ratio (z) = 0.29949 0.29949
#
# Static dielectric constant tensor:
#      x y z
#    x 3.758140 0.000000 0.000000 
#    y 0.000000 3.758140 0.000000 
#    z 0.000000 0.000000 3.726990 
# 
# 
# High freq. dielectric constant tensor:
#      x y z
#    x 1.777610 0.000000 0.000000 
#    y 0.000000 1.777610 0.000000 
#    z 0.000000 0.000000 1.783640 
# 
# From -- ./inp_files/3757.got.cif
#   From: 2010.03.12/outbox.cif.g09.slc.cpg/sg152_2_cif.got.tgz:3757.got - 2010.04.03 13:45:27.
