data_PCOD8322864
_publ_section_title
;
Structure prediction by ZEFSAII (Michael W. Deem and Ramdas Pophale) SiO2 
 PCOD8322864
Probable space group: R 3 M
;
_chemical_formula_sum "Si O2"
_cell_formula_units_Z 126
_cell_length_a 16.951036
_cell_length_b 16.951036
_cell_length_c 25.925454
_cell_angle_alpha 90.000000
_cell_angle_beta 90.000000
_cell_angle_gamma 120.000000
_cell_volume 6451.333519
_symmetry_space_group_name_H-M "R 3 M"
_symmetry_group_IT_number 160
_symmetry_cell_setting 'hexagonal'
loop_
_space_group_symop_operation_xyz
x,y,z
-y,x-y,z
-x+y,-x,z
-x+y,y,z
x,x-y,z
-y,-x,z
2/3+x,1/3+y,1/3+z
2/3-y,1/3+x-y,1/3+z
2/3-x+y,1/3-x,1/3+z
2/3-x+y,1/3+y,1/3+z
2/3+x,1/3+x-y,1/3+z
2/3-y,1/3-x,1/3+z
1/3+x,2/3+y,2/3+z
1/3-y,2/3+x-y,2/3+z
1/3-x+y,2/3-x,2/3+z
1/3-x+y,2/3+y,2/3+z
1/3+x,2/3+x-y,2/3+z
1/3-y,2/3-x,2/3+z
loop_
_atom_site_type_symbol
_atom_site_label
_atom_site_fract_x
_atom_site_fract_y
_atom_site_fract_z
Si Si1 0.152077 0.668362 0.809692
Si Si2 0.281554 0.381736 0.522798
Si Si3 0.368512 0.275982 0.089601
Si Si4 0.764706 0.707666 0.247286
Si Si5 0.661862 0.739807 0.339805
Si Si6 0.493329 0.159733 0.858635
Si Si7 0.503043 0.835536 0.070578
O O1 0.134257 0.567129 0.800010
O O2 0.259159 0.740842 0.803591
O O3 0.094190 0.688839 0.767451
O O4 0.119121 0.675506 0.866763
O O5 0.202945 0.405890 0.535635
O O6 0.310344 0.406849 0.463418
O O7 0.369379 0.433036 0.560107
O O8 0.248901 0.276402 0.537536
O O9 0.389401 0.194701 0.098182
O O10 0.399208 0.312448 0.030301
O O11 0.858675 0.717349 0.269101
O O12 0.710540 0.729632 0.289928
O O13 0.633486 0.816743 0.330216
O O14 0.729136 0.761998 0.388028
O O15 0.567094 0.134187 0.882115
O O16 0.514576 0.257288 0.881530
O O17 0.504095 0.167792 0.797978
O O18 0.403134 0.806268 0.048255
O O19 0.532889 0.766445 0.047050
#
# Coordination Sequence:
#
# PCOD8322864 Si02
#       7
#    18  18  18  18  18  18  18
#     4   9  18  33  53  78 108 144 183 223 267 317
#     4  10  19  35  57  79 105 141 183 224 266 315
#     4  10  21  36  55  80 109 138 175 225 275 318
#     4  10  22  37  53  79 111 142 178 220 266 317
#     4  11  21  35  55  78 106 140 178 217 263 321
#     4   9  16  26  44  73 108 140 171 211 260 311
#     4   9  16  26  42  69 103 137 168 204 250 303
#
# _framework density 19.530846
#
# number of rings (size 3 to 8) (size 9 to 14) (size 15 to 20)
#    0.000    2.286    1.429    3.000    0.000    5.714 
#    0.000    0.000    0.000    9.714    0.000    2.000 
#    0.000    0.000    0.000    0.000    0.000    0.000 
#
# Total GULP energy -520339.133214 kJ/mol
# GULP energy per Si atom -12389.026981 kJ/mol
# Density = 1.948639 g / cm^3
# Si number density = 19.530846 Si / 1000 Ang^3
#
#
#
# Elastic Constant Matrix: (Units=GPa)
#
#
# Indices 1 2 3 4 5 6 
#
# 1 76.3711 40.7691 27.4887 2.1603 -0.0002 0.0000
# 2 40.7691 76.3711 27.4887 -2.1603 0.0002 0.0000
# 3 27.4887 27.4887 63.9991 0.0000 0.0000 0.0000
# 4 2.1603 -2.1603 0.0000 20.4609 0.0000 0.0002
# 5 -0.0002 0.0002 0.0000 0.0000 20.4609 2.1603
# 6 0.0000 0.0000 0.0000 0.0002 2.1603 17.8010
#
#
#
# Elastic Compliance Matrix: (Units=1/GPa)
#
#
# Indices 1 2 3 4 5 6 
#
# 1 0.019573 -0.008880 -0.004592 -0.003004 0.000000 0.000000
# 2 -0.008880 0.019573 -0.004592 0.003004 0.000000 0.000000
# 3 -0.004592 -0.004592 0.019570 0.000000 0.000000 0.000000
# 4 -0.003004 0.003004 0.000000 0.049508 0.000000 0.000000
# 5 0.000000 0.000000 0.000000 0.000000 0.049508 -0.006008
# 6 0.000000 0.000000 0.000000 0.000000 -0.006008 0.056906
#
#
# Mechanical properties :
#
#
# Convention : Reuss Voigt Hill
#
# Bulk Modulus (GPa) = 44.27765 45.35938 44.81851
# Shear Modulus (GPa) = 19.35762 19.81087 19.58425
#
# Velocity S-wave (km/s) = 3.15164 3.18832 3.17003
# Velocity P-wave (km/s) = 5.99697 6.06867 6.03293
#
# Compressibility (1/GPa) = 0.02258476
#
# Stress axis : x y z
#
# Youngs Moduli (GPa) = 51.09196 51.09196 51.09780
#
# Poissons Ratio (x) = 0.45372 0.23467
# Poissons Ratio (y) = 0.45372 0.23467
# Poissons Ratio (z) = 0.23464 0.23464
#
# Static dielectric constant tensor:
#      x y z
#    x 3.716880 0.000000 0.000000 
#    y 0.000000 3.716880 0.000000 
#    z 0.000000 0.000000 3.249000 
# 
# 
# High freq. dielectric constant tensor:
#      x y z
#    x 1.757430 0.000000 0.000000 
#    y 0.000000 1.757430 0.000000 
#    z 0.000000 0.000000 1.731860 
# 
# From -- ./inp_files/4157.got.cif
#   From: 2010.03.12/outbox.cif.g09.slc.cpg/sg160_3_cif.got.tgz:4157.got - 2010.04.02 06:26:15.
