data_PCOD8322114
_publ_section_title
;
Structure prediction by ZEFSAII (Michael W. Deem and Ramdas Pophale) SiO2 
 PCOD8322114
Probable space group: P 31 2 1
;
_chemical_formula_sum "Si O2"
_cell_formula_units_Z 30
_cell_length_a 8.827078
_cell_length_b 8.827078
_cell_length_c 21.645275
_cell_angle_alpha 90.000000
_cell_angle_beta 90.000000
_cell_angle_gamma 120.000000
_cell_volume 1460.587797
_symmetry_space_group_name_H-M "P 31 2 1"
_symmetry_group_IT_number 152
_symmetry_cell_setting 'hexagonal'
loop_
_space_group_symop_operation_xyz
x,y,z
-y,x-y,1/3+z
-x+y,-x,2/3+z
x-y,-y,2/3-z
-x,-x+y,1/3-z
y,x,-z
loop_
_atom_site_type_symbol
_atom_site_label
_atom_site_fract_x
_atom_site_fract_y
_atom_site_fract_z
Si Si1 0.827876 0.676788 0.204464
Si Si2 0.175629 0.332191 0.959549
Si Si3 0.165095 0.644412 0.017417
Si Si4 0.042132 0.444678 0.576523
Si Si5 0.185679 0.735960 0.350096
O O1 0.773625 0.789620 0.247113
O O2 0.864161 0.542630 0.244151
O O3 0.663015 0.565408 0.159480
O O4 0.000000 0.808784 0.166667
O O5 0.358797 0.444886 0.922939
O O6 0.186361 0.186361 0.000000
O O7 0.142809 0.454319 0.006451
O O8 0.360382 0.788692 0.998713
O O9 0.024750 0.668351 0.974918
O O10 0.140258 0.381740 0.623808
O O11 0.836269 0.301387 0.589421
#
# Coordination Sequence:
#
# PCOD8322114 Si02
#       5
#     6   6   6   6   6
#     4  12  26  40  64 100 131 164 224 277 322 383
#     4  11  24  43  67  90 130 176 216 258 334 394
#     4  11  21  41  65  96 121 172 220 260 322 394
#     4  10  22  42  64  92 129 172 210 268 322 387
#     4  10  20  41  67  89 129 171 212 256 335 384
#
# _framework density 20.539674999999999
#
# number of rings (size 3 to 8) (size 9 to 14) (size 15 to 20)
#    0.000    1.200    8.000    0.000    2.800    1.600 
#    0.000    3.000    0.000    0.000    0.000    0.000 
#    0.000    0.000    0.000    0.000    0.000    0.000 
#
# Total GULP energy -371735.934567 kJ/mol
# GULP energy per Si atom -12391.197819 kJ/mol
# Density = 2.049293 g / cm^3
# Si number density = 20.539675 Si / 1000 Ang^3
#
#
#
# Elastic Constant Matrix: (Units=GPa)
#
#
# Indices 1 2 3 4 5 6 
#
# 1 110.5959 59.3181 58.5929 2.2610 -0.0001 0.0000
# 2 59.3181 110.5959 58.5929 -2.2610 0.0001 0.0000
# 3 58.5929 58.5929 118.4854 0.0000 0.0000 0.0000
# 4 2.2610 -2.2610 0.0000 33.8407 0.0000 0.0001
# 5 -0.0001 0.0001 0.0000 0.0000 33.8407 2.2610
# 6 0.0000 0.0000 0.0000 0.0001 2.2610 25.6389
#
#
#
# Elastic Compliance Matrix: (Units=1/GPa)
#
#
# Indices 1 2 3 4 5 6 
#
# 1 0.014274 -0.005343 -0.004417 -0.001311 0.000000 0.000000
# 2 -0.005343 0.014274 -0.004417 0.001311 0.000000 0.000000
# 3 -0.004417 -0.004417 0.012808 0.000000 0.000000 0.000000
# 4 -0.001311 0.001311 0.000000 0.029725 0.000000 0.000000
# 5 0.000000 0.000000 0.000000 0.000000 0.029725 -0.002621
# 6 0.000000 0.000000 0.000000 0.000000 -0.002621 0.039234
#
#
# Mechanical properties :
#
#
# Convention : Reuss Voigt Hill
#
# Bulk Modulus (GPa) = 76.89890 76.96502 76.93196
# Shear Modulus (GPa) = 28.94701 29.54227 29.24464
#
# Velocity S-wave (km/s) = 3.75817 3.79661 3.77744
# Velocity P-wave (km/s) = 7.50681 7.53470 7.52077
#
# Compressibility (1/GPa) = 0.01300409
#
# Stress axis : x y z
#
# Youngs Moduli (GPa) = 70.05587 70.05587 78.07520
#
# Poissons Ratio (x) = 0.37430 0.34484
# Poissons Ratio (y) = 0.37430 0.34484
# Poissons Ratio (z) = 0.30942 0.30942
#
# Static dielectric constant tensor:
#      x y z
#    x 3.950860 0.000000 0.000000 
#    y 0.000000 3.950860 0.000000 
#    z 0.000000 0.000000 3.622780 
# 
# 
# High freq. dielectric constant tensor:
#      x y z
#    x 1.809670 0.000000 0.000000 
#    y 0.000000 1.809670 0.000000 
#    z 0.000000 0.000000 1.777220 
# 
# From -- ./inp_files/3000.got.cif
#   From: 2010.03.12/outbox.cif.g09.slc.cpg/sg152_2_cif.got.tgz:3000.got - 2010.04.03 13:45:27.
