data_PCOD8322520
_publ_section_title
;
Structure prediction by ZEFSAII (Michael W. Deem and Ramdas Pophale) SiO2 
 PCOD8322520
Probable space group: R 3 2
;
_chemical_formula_sum "Si O2"
_cell_formula_units_Z 144
_cell_length_a 21.280266
_cell_length_b 21.280266
_cell_length_c 19.096681
_cell_angle_alpha 90.000000
_cell_angle_beta 90.000000
_cell_angle_gamma 120.000000
_cell_volume 7489.324181
_symmetry_space_group_name_H-M "R 3 2"
_symmetry_group_IT_number 155
_symmetry_cell_setting 'hexagonal'
loop_
_space_group_symop_operation_xyz
x,y,z
-y,x-y,z
-x+y,-x,z
x-y,-y,-z
-x,-x+y,-z
y,x,-z
2/3+x,1/3+y,1/3+z
2/3-y,1/3+x-y,1/3+z
2/3-x+y,1/3-x,1/3+z
2/3+x-y,1/3-y,1/3-z
2/3-x,1/3-x+y,1/3-z
2/3+y,1/3+x,1/3-z
1/3+x,2/3+y,2/3+z
1/3-y,2/3+x-y,2/3+z
1/3-x+y,2/3-x,2/3+z
1/3+x-y,2/3-y,2/3-z
1/3-x,2/3-x+y,2/3-z
1/3+y,2/3+x,2/3-z
loop_
_atom_site_type_symbol
_atom_site_label
_atom_site_fract_x
_atom_site_fract_y
_atom_site_fract_z
Si Si1 0.168637 0.603070 0.421957
Si Si2 0.514909 0.912073 0.285850
Si Si3 0.269736 0.767766 0.411374
Si Si4 0.421262 0.151759 0.452518
Si Si5 0.084085 0.823047 0.013142
Si Si6 0.434236 0.505895 0.042515
Si Si7 0.594373 0.750752 0.153525
Si Si8 0.899096 0.160769 0.124153
O O1 0.112101 0.596978 0.363712
O O2 0.227814 0.685544 0.437848
O O3 0.208932 0.561144 0.395483
O O4 0.127197 0.571622 0.494264
O O5 0.558930 0.872926 0.261387
O O6 0.448795 0.890373 0.232016
O O7 0.570810 0.998386 0.284899
O O8 0.263641 0.818208 0.469620
O O9 0.238286 0.777755 0.339067
O O10 0.442962 0.217873 0.398684
O O11 0.334949 0.095857 0.451566
O O12 0.460411 0.107739 0.428057
O O13 0.127515 0.845148 0.940577
O O14 0.000000 0.794809 0.000000
O O15 0.488187 0.539151 0.107243
O O16 0.451370 0.451370 0.000000
O O17 0.538526 0.666667 0.166667
O O18 0.881962 0.215295 0.166667
#
# Coordination Sequence:
#
# PCOD8322520 Si02
#       8
#    18  18  18  18  18  18  18  18
#     4  10  20  36  58  84 115 152 196 241 291 347
#     4  10  22  38  58  86 118 155 195 244 296 355
#     4  10  20  36  58  84 115 152 196 241 291 347
#     4  10  22  38  58  86 118 155 195 244 296 355
#     4  11  22  39  58  87 120 155 196 245 299 356
#     4  11  21  38  60  85 118 156 197 242 296 352
#     4  11  22  39  58  87 120 155 196 245 299 356
#     4  11  21  38  60  85 118 156 197 242 296 352
#
# _framework density 19.227367999999998
#
# number of rings (size 3 to 8) (size 9 to 14) (size 15 to 20)
#    0.000    1.500    2.500    3.250    0.000    0.000 
#    0.000    0.000    0.000    7.000    0.000    0.000 
#    0.000    0.000    0.000    0.000    0.000    0.000 
#
# Total GULP energy -595476.578863 kJ/mol
# GULP energy per Si atom -12405.762060 kJ/mol
# Density = 1.918361 g / cm^3
# Si number density = 19.227368 Si / 1000 Ang^3
#
#
#
# Elastic Constant Matrix: (Units=GPa)
#
#
# Indices 1 2 3 4 5 6 
#
# 1 90.0718 39.3056 16.0275 0.3397 0.0000 0.0000
# 2 39.3056 90.0718 16.0275 -0.3397 0.0000 0.0000
# 3 16.0275 16.0275 57.3333 0.0000 0.0000 0.0000
# 4 0.3397 -0.3397 0.0000 30.5029 0.0000 0.0000
# 5 0.0000 0.0000 0.0000 0.0000 30.5029 0.3397
# 6 0.0000 0.0000 0.0000 0.0000 0.3397 25.3831
#
#
#
# Elastic Compliance Matrix: (Units=1/GPa)
#
#
# Indices 1 2 3 4 5 6 
#
# 1 0.014003 -0.005698 -0.002322 -0.000219 0.000000 0.000000
# 2 -0.005698 0.014003 -0.002322 0.000219 0.000000 0.000000
# 3 -0.002322 -0.002322 0.018740 0.000000 0.000000 0.000000
# 4 -0.000219 0.000219 0.000000 0.032789 0.000000 0.000000
# 5 0.000000 0.000000 0.000000 0.000000 0.032789 -0.000439
# 6 0.000000 0.000000 0.000000 0.000000 -0.000439 0.039402
#
#
# Mechanical properties :
#
#
# Convention : Reuss Voigt Hill
#
# Bulk Modulus (GPa) = 38.36895 42.24426 40.30660
# Shear Modulus (GPa) = 27.60979 28.35220 27.98100
#
# Velocity S-wave (km/s) = 3.79352 3.84419 3.81894
# Velocity P-wave (km/s) = 6.25991 6.45928 6.36037
#
# Compressibility (1/GPa) = 0.02606274
#
# Stress axis : x y z
#
# Youngs Moduli (GPa) = 71.41431 71.41431 53.36229
#
# Poissons Ratio (x) = 0.40694 0.12388
# Poissons Ratio (y) = 0.40694 0.12388
# Poissons Ratio (z) = 0.16579 0.16579
#
# Static dielectric constant tensor:
#      x y z
#    x 3.501220 0.000000 0.000000 
#    y 0.000000 3.501220 0.000000 
#    z 0.000000 0.000000 3.455410 
# 
# 
# High freq. dielectric constant tensor:
#      x y z
#    x 1.751790 0.000000 0.000000 
#    y 0.000000 1.751790 0.000000 
#    z 0.000000 0.000000 1.751830 
# 
# From -- ./inp_files/7040.got.cif
#   From: 2010.03.12/outbox.cif.g09.slc.cpg/sg155_4_cif.got.tgz:7040.got - 2010.04.03 13:54:13.
