data_PCOD8322604
_publ_section_title
;
Structure prediction by ZEFSAII (Michael W. Deem and Ramdas Pophale) SiO2 
 PCOD8322604
Probable space group: R 3 2
;
_chemical_formula_sum "Si O2"
_cell_formula_units_Z 144
_cell_length_a 22.284532
_cell_length_b 22.284532
_cell_length_c 19.032567
_cell_angle_alpha 90.000000
_cell_angle_beta 90.000000
_cell_angle_gamma 120.000000
_cell_volume 8185.308167
_symmetry_space_group_name_H-M "R 3 2"
_symmetry_group_IT_number 155
_symmetry_cell_setting 'hexagonal'
loop_
_space_group_symop_operation_xyz
x,y,z
-y,x-y,z
-x+y,-x,z
x-y,-y,-z
-x,-x+y,-z
y,x,-z
2/3+x,1/3+y,1/3+z
2/3-y,1/3+x-y,1/3+z
2/3-x+y,1/3-x,1/3+z
2/3+x-y,1/3-y,1/3-z
2/3-x,1/3-x+y,1/3-z
2/3+y,1/3+x,1/3-z
1/3+x,2/3+y,2/3+z
1/3-y,2/3+x-y,2/3+z
1/3-x+y,2/3-x,2/3+z
1/3+x-y,2/3-y,2/3-z
1/3-x,2/3-x+y,2/3-z
1/3+y,2/3+x,2/3-z
loop_
_atom_site_type_symbol
_atom_site_label
_atom_site_fract_x
_atom_site_fract_y
_atom_site_fract_z
Si Si1 0.190979 0.949797 0.685118
Si Si2 0.359950 0.409409 0.858269
Si Si3 0.257259 0.973385 0.191602
Si Si4 0.870794 0.606202 0.373326
Si Si5 0.142354 0.716869 0.981549
Si Si6 0.810210 0.050528 0.565166
Si Si7 0.264592 0.870794 0.626675
Si Si8 0.573652 0.717194 0.231833
O O1 0.112076 0.887924 0.689790
O O2 0.241664 0.924639 0.653487
O O3 0.215243 0.983983 0.761665
O O4 0.197812 0.010227 0.634097
O O5 0.304471 0.333334 0.833334
O O6 0.392029 0.457830 0.790449
O O7 0.317317 0.435407 0.905002
O O8 0.421033 0.409923 0.904615
O O9 0.208838 0.941305 0.123781
O O10 0.256743 0.912302 0.237949
O O11 0.333334 0.028865 0.166667
O O12 0.884838 0.551505 0.333334
O O13 0.924640 0.682976 0.346516
O O14 0.793272 0.586543 0.353848
O O15 0.135522 0.656439 0.032570
O O16 0.885506 0.114495 0.552240
O O17 0.790876 0.000000 0.500000
O O18 0.333334 0.884836 0.666667
O O19 0.542461 0.666667 0.166667
#
# Coordination Sequence:
#
# PCOD8322604 Si02
#       8
#    18  18  18  18  18  18  18  18
#     4  11  22  36  55  81 114 147 183 227 277 332
#     4  11  20  33  54  83 115 145 179 222 281 338
#     4  11  20  33  54  83 115 145 179 222 281 338
#     4  11  21  36  56  83 115 148 184 229 278 331
#     4  11  22  36  55  81 114 147 183 227 277 332
#     4  11  21  35  57  83 113 147 183 226 274 327
#     4  11  21  36  56  83 115 148 184 229 278 331
#     4  11  21  35  57  83 113 147 183 226 274 327
#
# _framework density 17.592495
#
# number of rings (size 3 to 8) (size 9 to 14) (size 15 to 20)
#    0.000    1.000    7.500    2.250    0.000    4.500 
#    0.000    0.000    0.000    4.750    0.000    1.750 
#    0.000    0.000    0.000    0.000    0.000    0.000 
#
# Total GULP energy -595371.096510 kJ/mol
# GULP energy per Si atom -12403.564511 kJ/mol
# Density = 1.755245 g / cm^3
# Si number density = 17.592495 Si / 1000 Ang^3
#
#
#
# Elastic Constant Matrix: (Units=GPa)
#
#
# Indices 1 2 3 4 5 6 
#
# 1 76.3910 46.0881 29.3334 2.3391 0.0004 0.0000
# 2 46.0881 76.3910 29.3334 -2.3391 -0.0004 0.0000
# 3 29.3334 29.3334 82.0809 0.0000 0.0000 0.0000
# 4 2.3391 -2.3391 0.0000 16.0106 0.0000 -0.0004
# 5 0.0004 -0.0004 0.0000 0.0000 16.0106 2.3391
# 6 0.0000 0.0000 0.0000 -0.0004 2.3391 15.1514
#
#
#
# Elastic Compliance Matrix: (Units=1/GPa)
#
#
# Indices 1 2 3 4 5 6 
#
# 1 0.021806 -0.011955 -0.003520 -0.004932 -0.000001 0.000000
# 2 -0.011955 0.021806 -0.003520 0.004932 0.000001 0.000000
# 3 -0.003520 -0.003520 0.014699 0.000000 0.000000 0.000000
# 4 -0.004932 0.004932 0.000000 0.063900 0.000000 0.000002
# 5 -0.000001 0.000001 0.000000 0.000000 0.063900 -0.009865
# 6 0.000000 0.000000 0.000000 0.000002 -0.009865 0.067523
#
#
# Mechanical properties :
#
#
# Convention : Reuss Voigt Hill
#
# Bulk Modulus (GPa) = 49.21404 49.37474 49.29439
# Shear Modulus (GPa) = 16.75598 18.10837 17.43218
#
# Velocity S-wave (km/s) = 3.08953 3.21179 3.15125
# Velocity P-wave (km/s) = 6.38452 6.47154 6.42818
#
# Compressibility (1/GPa) = 0.02031940
#
# Stress axis : x y z
#
# Youngs Moduli (GPa) = 45.85828 45.85828 68.03035
#
# Poissons Ratio (x) = 0.54825 0.23950
# Poissons Ratio (y) = 0.54825 0.23950
# Poissons Ratio (z) = 0.16144 0.16144
#
# Static dielectric constant tensor:
#      x y z
#    x 3.120130 0.000000 0.000000 
#    y 0.000000 3.120130 0.000000 
#    z 0.000000 0.000000 3.667970 
# 
# 
# High freq. dielectric constant tensor:
#      x y z
#    x 1.659270 0.000000 0.000000 
#    y 0.000000 1.659270 0.000000 
#    z 0.000000 0.000000 1.692680 
# 
# From -- ./inp_files/7048.got.cif
#   From: 2010.03.12/outbox.cif.g09.slc.cpg/sg155_4_cif.got.tgz:7048.got - 2010.04.03 13:54:13.
