data_PCOD8322486
_publ_section_title
;
Structure prediction by ZEFSAII (Michael W. Deem and Ramdas Pophale) SiO2 
 PCOD8322486
Probable space group: R 3 2
;
_chemical_formula_sum "Si O2"
_cell_formula_units_Z 72
_cell_length_a 21.542124
_cell_length_b 21.542124
_cell_length_c 9.651267
_cell_angle_alpha 90.000000
_cell_angle_beta 90.000000
_cell_angle_gamma 120.000000
_cell_volume 3878.751933
_symmetry_space_group_name_H-M "R 3 2"
_symmetry_group_IT_number 155
_symmetry_cell_setting 'hexagonal'
loop_
_space_group_symop_operation_xyz
x,y,z
-y,x-y,z
-x+y,-x,z
x-y,-y,-z
-x,-x+y,-z
y,x,-z
2/3+x,1/3+y,1/3+z
2/3-y,1/3+x-y,1/3+z
2/3-x+y,1/3-x,1/3+z
2/3+x-y,1/3-y,1/3-z
2/3-x,1/3-x+y,1/3-z
2/3+y,1/3+x,1/3-z
1/3+x,2/3+y,2/3+z
1/3-y,2/3+x-y,2/3+z
1/3-x+y,2/3-x,2/3+z
1/3+x-y,2/3-y,2/3-z
1/3-x,2/3-x+y,2/3-z
1/3+y,2/3+x,2/3-z
loop_
_atom_site_type_symbol
_atom_site_label
_atom_site_fract_x
_atom_site_fract_y
_atom_site_fract_z
Si Si1 0.469606 0.382016 0.705925
Si Si2 0.458052 0.409749 0.135587
Si Si3 0.417695 0.948446 0.381315
Si Si4 0.452215 0.046927 0.136031
O O1 0.471394 0.333334 0.833334
O O2 0.413439 0.409900 0.739687
O O3 0.446118 0.337153 0.561920
O O4 0.548525 0.451183 0.684856
O O5 0.542231 0.463040 0.166835
O O6 0.436895 0.436895 0.000000
O O7 0.341576 0.895464 0.452240
O O8 0.471143 0.000000 0.500000
O O9 0.406763 0.995543 0.263454
O O10 0.430044 0.000000 0.000000
#
# Coordination Sequence:
#
# PCOD8322486 Si02
#       4
#    18  18  18  18
#     4   9  18  31  47  71 101 136 173 213 263 318
#     4   8  16  30  47  67  96 132 168 207 254 304
#     4  11  21  32  52  79 106 138 178 222 267 318
#     4  10  19  33  51  75 106 140 173 214 266 316
#
# _framework density 18.562671000000002
#
# number of rings (size 3 to 8) (size 9 to 14) (size 15 to 20)
#    0.000    2.500    0.000    4.500    0.000    5.000 
#    0.000    3.750    0.000    1.000    0.000    7.000 
#    0.000    0.000    0.000    0.000    0.000    0.000 
#
# Total GULP energy -297441.354442 kJ/mol
# GULP energy per Si atom -12393.389768 kJ/mol
# Density = 1.852042 g / cm^3
# Si number density = 18.562671 Si / 1000 Ang^3
#
#
#
# Elastic Constant Matrix: (Units=GPa)
#
#
# Indices 1 2 3 4 5 6 
#
# 1 95.2120 69.5924 25.3321 -8.5959 0.0005 0.0012
# 2 69.5924 95.2113 25.3296 8.5964 0.0000 -0.0001
# 3 25.3321 25.3296 63.5328 0.0014 0.0008 0.0034
# 4 -8.5959 8.5964 0.0014 26.8055 0.0005 0.0006
# 5 0.0005 0.0000 0.0008 0.0005 26.8052 -8.5951
# 6 0.0012 -0.0001 0.0034 0.0006 -8.5951 12.8096
#
#
#
# Elastic Compliance Matrix: (Units=1/GPa)
#
#
# Indices 1 2 3 4 5 6 
#
# 1 0.028326 -0.021411 -0.002759 0.015950 -0.000002 -0.000004
# 2 -0.021411 0.028326 -0.002756 -0.015950 0.000003 0.000005
# 3 -0.002759 -0.002756 0.017939 -0.000002 -0.000002 -0.000006
# 4 0.015950 -0.015950 -0.000002 0.047535 -0.000003 -0.000006
# 5 -0.000002 0.000003 -0.000002 -0.000003 0.047533 0.031894
# 6 -0.000004 0.000005 -0.000006 -0.000006 0.031894 0.099467
#
#
# Mechanical properties :
#
#
# Convention : Reuss Voigt Hill
#
# Bulk Modulus (GPa) = 48.21485 54.94047 51.57766
# Shear Modulus (GPa) = 15.15658 22.19754 18.67706
#
# Velocity S-wave (km/s) = 2.86056 3.46181 3.17545
# Velocity P-wave (km/s) = 6.07790 6.75577 6.42578
#
# Compressibility (1/GPa) = 0.02074050
#
# Stress axis : x y z
#
# Youngs Moduli (GPa) = 35.30286 35.30359 55.74598
#
# Poissons Ratio (x) = 0.75587 0.15378
# Poissons Ratio (y) = 0.75586 0.15362
# Poissons Ratio (z) = 0.09739 0.09729
#
# Static dielectric constant tensor:
#      x y z
#    x 3.382490 0.000000 0.000000 
#    y 0.000000 3.382490 0.000000 
#    z 0.000000 0.000000 3.705720 
# 
# 
# High freq. dielectric constant tensor:
#      x y z
#    x 1.691840 0.000000 0.000000 
#    y 0.000000 1.691840 0.000000 
#    z 0.000000 0.000000 1.729660 
# 
# From -- ./inp_files/2445.got.cif
#   From: 2010.03.12/outbox.cif.g09.slc.cpg/sg155_2_cif.got.tgz:2445.got - 2010.04.03 13:54:13.
