data_PCOD8322271
_publ_section_title
;
Structure prediction by ZEFSAII (Michael W. Deem and Ramdas Pophale) SiO2 
 PCOD8322271
Probable space group: P 32 1 2
;
_chemical_formula_sum "Si O2"
_cell_formula_units_Z 48
_cell_length_a 12.585712
_cell_length_b 12.585712
_cell_length_c 19.078251
_cell_angle_alpha 90.000000
_cell_angle_beta 90.000000
_cell_angle_gamma 120.000000
_cell_volume 2617.126825
_symmetry_space_group_name_H-M "P 32 1 2"
_symmetry_group_IT_number 153
_symmetry_cell_setting 'hexagonal'
loop_
_space_group_symop_operation_xyz
x,y,z
-y,x-y,2/3+z
-x+y,-x,1/3+z
-y,-x,1/3-z
-x+y,y,2/3-z
x,x-y,-z
loop_
_atom_site_type_symbol
_atom_site_label
_atom_site_fract_x
_atom_site_fract_y
_atom_site_fract_z
Si Si1 0.879720 0.989162 0.850555
Si Si2 0.447353 0.667507 0.814099
Si Si3 0.516968 0.828303 0.680140
Si Si4 0.804448 0.721200 0.903125
Si Si5 0.791615 0.987735 0.696172
Si Si6 0.383778 0.924111 0.276110
Si Si7 0.121738 0.433307 0.285716
Si Si8 0.957663 0.774093 0.036518
O O1 0.829599 0.857014 0.885719
O O2 0.806118 0.978647 0.779724
O O3 0.023518 0.047036 0.833334
O O4 0.871537 0.080239 0.907305
O O5 0.307601 0.615202 0.833334
O O6 0.489744 0.775499 0.758103
O O7 0.450733 0.544567 0.791313
O O8 0.535202 0.728757 0.879457
O O9 0.651603 0.947577 0.679545
O O10 0.507267 0.720508 0.631165
O O11 0.422466 0.870810 0.655634
O O12 0.832046 0.664091 0.833334
O O13 0.666557 0.647029 0.934273
O O14 0.889480 0.717394 0.963872
O O15 0.828713 0.903065 0.651103
O O16 0.875045 0.124956 0.666667
O O17 0.492517 0.985034 0.333334
O O18 0.322229 0.007259 0.262835
O O19 0.189101 0.378202 0.333334
#
# Coordination Sequence:
#
# PCOD8322271 Si02
#       8
#     6   6   6   6   6   6   6   6
#     4  11  19  32  52  80 113 146 183 225 280 343
#     4  11  19  35  55  83 119 143 182 227 281 343
#     4  10  21  35  52  81 111 150 181 227 282 335
#     4  11  23  36  55  82 112 148 187 233 287 339
#     4  11  20  34  54  78 114 149 184 229 281 337
#     4   9  20  34  53  77 110 145 184 227 281 331
#     4  12  22  36  58  86 116 149 189 232 286 352
#     4  11  20  35  53  78 113 146 188 231 280 344
#
# _framework density 18.340723000000001
#
# number of rings (size 3 to 8) (size 9 to 14) (size 15 to 20)
#    0.000    1.250    6.250    2.250    3.500    1.500 
#    0.000    0.000    0.000    0.750    0.000    0.000 
#    0.000    0.000    0.000    0.000    0.000    0.000 
#
# Total GULP energy -594943.585442 kJ/mol
# GULP energy per Si atom -12394.658030 kJ/mol
# Density = 1.829898 g / cm^3
# Si number density = 18.340723 Si / 1000 Ang^3
#
#
#
# Elastic Constant Matrix: (Units=GPa)
#
#
# Indices 1 2 3 4 5 6 
#
# 1 69.8066 22.6109 24.9722 0.0000 -6.7699 0.0000
# 2 22.6109 69.8066 24.9722 0.0000 6.7699 0.0000
# 3 24.9722 24.9722 96.8869 0.0000 0.0000 0.0000
# 4 0.0000 0.0000 0.0000 -3.5250 0.0000 6.7699
# 5 -6.7699 6.7699 0.0000 0.0000 -3.5250 0.0000
# 6 0.0000 0.0000 0.0000 6.7699 0.0000 23.5979
#
#
#
# Elastic Compliance Matrix: (Units=1/GPa)
#
#
# Indices 1 2 3 4 5 6 
#
# 1 0.013116 -0.000545 -0.003240 0.000000 -0.026237 0.000000
# 2 -0.000545 0.013116 -0.003240 0.000000 0.026237 0.000000
# 3 -0.003240 -0.003240 0.011992 0.000000 0.000000 0.000000
# 4 0.000000 0.000000 0.000000 -0.182910 0.000000 0.052474
# 5 -0.026237 0.026237 0.000000 0.000000 -0.182910 0.000000
# 6 0.000000 0.000000 0.000000 0.052474 0.000000 0.027323
#
#
# Mechanical properties :
#
#
# Convention : Reuss Voigt Hill
#
# Bulk Modulus (GPa) = 41.36723 42.40116 41.88420
# Shear Modulus (GPa) = -17.97508 14.23923 -1.86792
#
# Velocity S-wave (km/s) = -3.13399 2.78937 -1.01028
# Velocity P-wave (km/s) = 3.08349 5.79162 4.63955
#
# Compressibility (1/GPa) = 0.02417372
#
# Stress axis : x y z
#
# Youngs Moduli (GPa) = 76.23999 76.23999 83.39141
#
# Poissons Ratio (x) = 0.04154 0.27021
# Poissons Ratio (y) = 0.04154 0.27021
# Poissons Ratio (z) = 0.24704 0.24704
#
# Static dielectric constant tensor:
#      x y z
#    x 3.301300 0.000000 0.000000 
#    y 0.000000 3.301300 0.000000 
#    z 0.000000 0.000000 3.569830 
# 
# 
# High freq. dielectric constant tensor:
#      x y z
#    x 1.683040 0.000000 0.000000 
#    y 0.000000 1.683040 0.000000 
#    z 0.000000 0.000000 1.729150 
# 
# From -- ./inp_files/4047.got.cif
#   From: 2010.03.12/outbox.cif.g09.slc.cpg/sg153_3_cif.got.tgz:4047.got - 2010.04.03 13:48:33.
