data_PCOD8322255
_publ_section_title
;
Structure prediction by ZEFSAII (Michael W. Deem and Ramdas Pophale) SiO2 
 PCOD8322255
Probable space group: P 32 1 2
;
_chemical_formula_sum "Si O2"
_cell_formula_units_Z 33
_cell_length_a 8.595362
_cell_length_b 8.595362
_cell_length_c 23.541054
_cell_angle_alpha 90.000000
_cell_angle_beta 90.000000
_cell_angle_gamma 120.000000
_cell_volume 1506.207755
_symmetry_space_group_name_H-M "P 32 1 2"
_symmetry_group_IT_number 153
_symmetry_cell_setting 'hexagonal'
loop_
_space_group_symop_operation_xyz
x,y,z
-y,x-y,2/3+z
-x+y,-x,1/3+z
-y,-x,1/3-z
-x+y,y,2/3-z
x,x-y,-z
loop_
_atom_site_type_symbol
_atom_site_label
_atom_site_fract_x
_atom_site_fract_y
_atom_site_fract_z
Si Si1 0.003997 0.370161 0.439507
Si Si2 0.825067 0.650926 0.922268
Si Si3 0.313611 0.026079 0.166097
Si Si4 0.585180 0.900789 0.174243
Si Si5 0.128896 0.871104 0.666667
Si Si6 0.517732 0.256779 0.064035
O O1 0.833902 0.178671 0.455658
O O2 0.912670 0.489353 0.426477
O O3 0.149299 0.446289 0.491676
O O4 0.114488 0.376683 0.383453
O O5 0.706189 0.672409 0.874662
O O6 0.717341 0.438689 0.938274
O O7 0.025912 0.718416 0.900147
O O8 0.856268 0.783660 0.975104
O O9 0.381720 0.091079 0.102397
O O10 0.404042 0.908037 0.184711
O O11 0.100364 0.899637 0.166667
O O12 0.442296 0.221148 0.000000
#
# Coordination Sequence:
#
# PCOD8322255 Si02
#       6
#     6   6   6   6   3   6
#     4  11  22  39  70  98 130 180 223 273 337 412
#     4   9  17  35  60  99 128 171 219 273 326 402
#     4  11  25  42  62  97 136 174 223 280 334 403
#     4   9  20  37  64  91 132 171 221 269 330 399
#     4  10  20  32  62 104 134 166 222 272 342 392
#     4  11  21  42  71  97 128 175 231 275 336 409
#
# _framework density 21.909329
#
# number of rings (size 3 to 8) (size 9 to 14) (size 15 to 20)
#    0.000    1.818    3.636    0.545    5.091    1.455 
#    1.636    0.000    0.000    2.182    0.000    0.000 
#    0.000    0.000    0.000    0.000    0.000    0.000 
#
# Total GULP energy -408843.828088 kJ/mol
# GULP energy per Si atom -12389.206912 kJ/mol
# Density = 2.185946 g / cm^3
# Si number density = 21.909329 Si / 1000 Ang^3
#
#
#
# Elastic Constant Matrix: (Units=GPa)
#
#
# Indices 1 2 3 4 5 6 
#
# 1 102.1913 35.3999 38.3213 0.0001 8.6813 0.0000
# 2 35.3999 102.1913 38.3213 -0.0001 -8.6813 0.0000
# 3 38.3213 38.3213 78.5906 0.0000 0.0000 0.0000
# 4 0.0001 -0.0001 0.0000 23.8776 0.0000 -8.6813
# 5 8.6813 -8.6813 0.0000 0.0000 23.8776 0.0001
# 6 0.0000 0.0000 0.0000 -8.6813 0.0001 33.3957
#
#
#
# Elastic Compliance Matrix: (Units=1/GPa)
#
#
# Indices 1 2 3 4 5 6 
#
# 1 0.013256 -0.003278 -0.004865 0.000000 -0.006012 0.000000
# 2 -0.003278 0.013256 -0.004865 0.000000 0.006012 0.000000
# 3 -0.004865 -0.004865 0.017469 0.000000 0.000000 0.000000
# 4 0.000000 0.000000 0.000000 0.046252 0.000000 0.012023
# 5 -0.006012 0.006012 0.000000 0.000000 0.046252 0.000000
# 6 0.000000 0.000000 0.000000 0.012023 0.000000 0.033069
#
#
# Mechanical properties :
#
#
# Convention : Reuss Voigt Hill
#
# Bulk Modulus (GPa) = 55.66813 56.33977 56.00395
# Shear Modulus (GPa) = 24.80646 27.62556 26.21601
#
# Velocity S-wave (km/s) = 3.36852 3.55477 3.46290
# Velocity P-wave (km/s) = 6.37125 6.52835 6.45028
#
# Compressibility (1/GPa) = 0.01796360
#
# Stress axis : x y z
#
# Youngs Moduli (GPa) = 75.43523 75.43523 57.24440
#
# Poissons Ratio (x) = 0.24730 0.27852
# Poissons Ratio (y) = 0.24730 0.27852
# Poissons Ratio (z) = 0.36702 0.36702
#
# Static dielectric constant tensor:
#      x y z
#    x 3.981570 0.000000 0.000000 
#    y 0.000000 3.981570 0.000000 
#    z 0.000000 0.000000 4.093420 
# 
# 
# High freq. dielectric constant tensor:
#      x y z
#    x 1.853270 0.000000 0.000000 
#    y 0.000000 1.853270 0.000000 
#    z 0.000000 0.000000 1.857870 
# 
# From -- ./inp_files/4719.got.cif
#   From: 2010.03.12/outbox.cif.g09.slc.cpg/sg153_3_cif.got.tgz:4719.got - 2010.04.03 13:48:33.
