data_PCOD8322689
_publ_section_title
;
Structure prediction by ZEFSAII (Michael W. Deem and Ramdas Pophale) SiO2 
 PCOD8322689
Probable space group: P 3 M 1
;
_chemical_formula_sum "Si O2"
_cell_formula_units_Z 36
_cell_length_a 12.632935
_cell_length_b 12.632935
_cell_length_c 15.172041
_cell_angle_alpha 90.000000
_cell_angle_beta 90.000000
_cell_angle_gamma 120.000000
_cell_volume 2096.926280
_symmetry_space_group_name_H-M "P 3 M 1"
_symmetry_group_IT_number 156
_symmetry_cell_setting 'hexagonal'
loop_
_space_group_symop_operation_xyz
x,y,z
-y,x-y,z
-x+y,-x,z
-x+y,y,z
x,x-y,z
-y,-x,z
loop_
_atom_site_type_symbol
_atom_site_label
_atom_site_fract_x
_atom_site_fract_y
_atom_site_fract_z
Si Si1 0.752676 0.752344 0.318640
Si Si2 0.333765 0.914289 0.155331
Si Si3 0.575949 0.909525 0.636609
Si Si4 0.913104 0.578591 0.991454
Si Si5 0.333463 0.910636 0.837529
Si Si6 0.667079 0.087587 0.481861
O O1 0.882614 0.765227 0.299435
O O2 0.665637 0.681284 0.237545
O O3 0.691410 0.676945 0.406495
O O4 0.771636 0.885818 0.331290
O O5 0.449104 0.898207 0.173945
O O6 0.217939 0.782062 0.141309
O O7 0.349550 0.991747 0.068428
O O8 0.433963 0.867926 0.624427
O O9 0.591991 0.795996 0.609467
O O10 0.617945 0.950633 0.736919
O O11 0.660665 0.023624 0.574825
O O12 0.796132 0.592264 0.005871
O O13 0.871951 0.435976 0.992193
O O14 0.975467 0.640518 0.898782
O O15 0.436659 0.873318 0.852917
O O16 0.205144 0.794857 0.863914
O O17 0.542552 0.085104 0.458970
O O18 0.773113 0.226888 0.488318
#
# Coordination Sequence:
#
# PCOD8322689 Si02
#       6
#     6   6   6   6   6   6
#     4  10  20  34  52  73  98 129 164 200 237 281
#     4  10  20  34  53  76 100 125 155 195 242 289
#     4   9  17  30  49  73  98 124 156 196 243 291
#     4  10  20  33  49  70  97 129 163 197 234 279
#     4   9  17  30  50  74  98 124 156 197 243 289
#     4  10  20  33  49  70  97 129 164 201 241 285
#
# _framework density 17.167987
#
# number of rings (size 3 to 8) (size 9 to 14) (size 15 to 20)
#    0.000    2.333    0.000    3.000    0.000    2.000 
#    0.000    1.667    0.000   16.667    0.000    0.000 
#    0.000    0.000    0.000    0.000    0.000    0.000 
#
# Total GULP energy -446502.978768 kJ/mol
# GULP energy per Si atom -12402.860521 kJ/mol
# Density = 1.712891 g / cm^3
# Si number density = 17.167987 Si / 1000 Ang^3
#
#
#
# Elastic Constant Matrix: (Units=GPa)
#
#
# Indices 1 2 3 4 5 6 
#
# 1 104.0345 63.8531 61.6679 -3.9667 -0.0003 0.0000
# 2 63.8531 104.0345 61.6679 3.9667 0.0003 0.0000
# 3 61.6679 61.6679 106.7738 0.0000 0.0000 0.0000
# 4 -3.9667 3.9667 0.0000 25.7167 0.0000 0.0003
# 5 -0.0003 0.0003 0.0000 0.0000 25.7167 -3.9667
# 6 0.0000 0.0000 0.0000 0.0003 -3.9667 20.0907
#
#
#
# Elastic Compliance Matrix: (Units=1/GPa)
#
#
# Indices 1 2 3 4 5 6 
#
# 1 0.018008 -0.007661 -0.005976 0.003959 0.000000 0.000000
# 2 -0.007661 0.018008 -0.005976 -0.003959 0.000000 0.000000
# 3 -0.005976 -0.005976 0.016268 0.000000 0.000000 0.000000
# 4 0.003959 -0.003959 0.000000 0.040107 0.000000 -0.000001
# 5 0.000000 0.000000 0.000000 0.000000 0.040107 0.007919
# 6 0.000000 0.000000 0.000000 -0.000001 0.007919 0.051338
#
#
# Mechanical properties :
#
#
# Convention : Reuss Voigt Hill
#
# Bulk Modulus (GPa) = 76.57956 76.58007 76.57981
# Shear Modulus (GPa) = 21.98658 22.81509 22.40083
#
# Velocity S-wave (km/s) = 3.58253 3.64941 3.61612
# Velocity P-wave (km/s) = 7.86229 7.90321 7.88278
#
# Compressibility (1/GPa) = 0.01305831
#
# Stress axis : x y z
#
# Youngs Moduli (GPa) = 55.53234 55.53234 61.47044
#
# Poissons Ratio (x) = 0.42545 0.36732
# Poissons Ratio (y) = 0.42545 0.36732
# Poissons Ratio (z) = 0.33183 0.33183
#
# Static dielectric constant tensor:
#      x y z
#    x 3.137200 0.000000 0.000000 
#    y 0.000000 3.137200 0.000000 
#    z 0.000000 0.000000 3.383510 
# 
# 
# High freq. dielectric constant tensor:
#      x y z
#    x 1.661780 0.000000 0.000000 
#    y 0.000000 1.661780 0.000000 
#    z 0.000000 0.000000 1.676360 
# 
# From -- ./inp_files/782.got.cif
#   From: 2010.03.12/outbox.cif.g09.slc.cpg/sg156_cif.got.tgz:782.got - 2010.04.03 13:58:47.
