data_PCOD8322503
_publ_section_title
;
Structure prediction by ZEFSAII (Michael W. Deem and Ramdas Pophale) SiO2 
 PCOD8322503
Probable space group: R 3 2
;
_chemical_formula_sum "Si O2"
_cell_formula_units_Z 99
_cell_length_a 25.034228
_cell_length_b 25.034228
_cell_length_c 10.341251
_cell_angle_alpha 90.000000
_cell_angle_beta 90.000000
_cell_angle_gamma 120.000000
_cell_volume 5612.703720
_symmetry_space_group_name_H-M "R 3 2"
_symmetry_group_IT_number 155
_symmetry_cell_setting 'hexagonal'
loop_
_space_group_symop_operation_xyz
x,y,z
-y,x-y,z
-x+y,-x,z
x-y,-y,-z
-x,-x+y,-z
y,x,-z
2/3+x,1/3+y,1/3+z
2/3-y,1/3+x-y,1/3+z
2/3-x+y,1/3-x,1/3+z
2/3+x-y,1/3-y,1/3-z
2/3-x,1/3-x+y,1/3-z
2/3+y,1/3+x,1/3-z
1/3+x,2/3+y,2/3+z
1/3-y,2/3+x-y,2/3+z
1/3-x+y,2/3-x,2/3+z
1/3+x-y,2/3-y,2/3-z
1/3-x,2/3-x+y,2/3-z
1/3+y,2/3+x,2/3-z
loop_
_atom_site_type_symbol
_atom_site_label
_atom_site_fract_x
_atom_site_fract_y
_atom_site_fract_z
Si Si1 0.403982 0.595751 0.928624
Si Si2 0.552553 0.738813 0.174137
Si Si3 0.908233 0.230469 0.918514
Si Si4 0.530512 0.738541 0.664154
Si Si5 0.740098 0.479391 0.063326
Si Si6 0.333334 0.038060 0.166667
O O1 0.408595 0.579536 0.780414
O O2 0.332940 0.557542 0.964382
O O3 0.428863 0.668193 0.941605
O O4 0.442678 0.576807 0.024871
O O5 0.528878 0.666667 0.166667
O O6 0.626984 0.774736 0.167854
O O7 0.527707 0.759761 0.052722
O O8 0.893231 0.162135 0.957828
O O9 0.973040 0.270658 0.845520
O O10 0.914450 0.267190 0.049373
O O11 0.509022 0.666667 0.666667
O O12 0.516970 0.759771 0.801425
#
# Coordination Sequence:
#
# PCOD8322503 Si02
#       6
#    18  18  18  18  18   9
#     4  10  21  34  53  74 101 139 174 222 257 307
#     4  10  21  32  50  75 107 139 175 208 252 311
#     4  11  20  32  48  78 110 149 176 203 254 306
#     4  10  20  33  51  75 106 137 177 211 249 308
#     4  10  20  36  52  73 102 139 176 217 262 305
#     4  10  20  28  52  68 114 158 172 196 246 308
#
# _framework density 17.638558
#
# number of rings (size 3 to 8) (size 9 to 14) (size 15 to 20)
#    0.000    1.818    2.727    2.545    5.091    0.727 
#    0.000    3.636    0.000    0.000    0.000    0.000 
#   27.273    0.000    0.000    0.000    0.000    0.000 
#
# Total GULP energy -409156.195069 kJ/mol
# GULP energy per Si atom -12398.672578 kJ/mol
# Density = 1.759841 g / cm^3
# Si number density = 17.638558 Si / 1000 Ang^3
#
#
#
# Elastic Constant Matrix: (Units=GPa)
#
#
# Indices 1 2 3 4 5 6 
#
# 1 76.7505 23.8703 11.6193 -7.7644 0.0075 -0.0023
# 2 23.8703 76.7458 11.6143 7.7610 -0.0088 0.0026
# 3 11.6193 11.6143 78.8776 0.0009 0.0088 0.0060
# 4 -7.7644 7.7610 0.0009 27.1571 -0.0065 0.0029
# 5 0.0075 -0.0088 0.0088 -0.0065 27.1479 -7.7596
# 6 -0.0023 0.0026 0.0060 0.0029 -7.7596 26.4400
#
#
#
# Elastic Compliance Matrix: (Units=1/GPa)
#
#
# Indices 1 2 3 4 5 6 
#
# 1 0.015466 -0.005178 -0.001516 0.005902 -0.000004 0.000000
# 2 -0.005178 0.015466 -0.001515 -0.005900 0.000006 0.000001
# 3 -0.001516 -0.001515 0.013124 -0.000001 -0.000006 -0.000005
# 4 0.005902 -0.005900 -0.000001 0.040196 0.000006 -0.000002
# 5 -0.000004 0.000006 -0.000006 0.000006 0.040208 0.011800
# 6 0.000000 0.000001 -0.000005 -0.000002 0.011800 0.041285
#
#
# Mechanical properties :
#
#
# Convention : Reuss Voigt Hill
#
# Bulk Modulus (GPa) = 36.17935 36.28684 36.23310
# Shear Modulus (GPa) = 26.12659 28.50033 27.31346
#
# Velocity S-wave (km/s) = 3.85284 4.02406 3.93938
# Velocity P-wave (km/s) = 6.35205 6.49676 6.42481
#
# Compressibility (1/GPa) = 0.02764007
#
# Stress axis : x y z
#
# Youngs Moduli (GPa) = 64.65737 64.65635 76.19518
#
# Poissons Ratio (x) = 0.33478 0.11551
# Poissons Ratio (y) = 0.33479 0.11540
# Poissons Ratio (z) = 0.09802 0.09792
#
# Static dielectric constant tensor:
#      x y z
#    x 2.951300 -0.000170 0.000030 
#    y -0.000170 2.951420 -0.000050 
#    z 0.000030 -0.000050 3.605890 
# 
# 
# High freq. dielectric constant tensor:
#      x y z
#    x 1.654310 0.000000 0.000000 
#    y 0.000000 1.654310 0.000000 
#    z 0.000000 0.000000 1.706350 
# 
# From -- ./inp_files/4004.got.cif
#   From: 2010.03.12/outbox.cif.g09.slc.cpg/sg155_3_cif.got.tgz:4004.got - 2010.04.03 13:54:13.
