data_PCOD8322967
_publ_section_title
;
Structure prediction by ZEFSAII (Michael W. Deem and Ramdas Pophale) SiO2 
 PCOD8322967
Probable space group: P -3 1 M 
;
_chemical_formula_sum "Si O2"
_cell_formula_units_Z 96
_cell_length_a 18.075212
_cell_length_b 18.075212
_cell_length_c 20.560074
_cell_angle_alpha 90.000000
_cell_angle_beta 90.000000
_cell_angle_gamma 120.000000
_cell_volume 5817.308620
_symmetry_space_group_name_H-M "P -3 1 M "
_symmetry_group_IT_number 162
_symmetry_cell_setting 'hexagonal'
loop_
_space_group_symop_operation_xyz
x,y,z
-y,x-y,z
-x+y,-x,z
-y,-x,-z
-x+y,y,-z
x,x-y,-z
-x,-y,-z
y,-x+y,-z
x-y,x,-z
y,x,z
x-y,-y,z
-x,-x+y,z
loop_
_atom_site_type_symbol
_atom_site_label
_atom_site_fract_x
_atom_site_fract_y
_atom_site_fract_z
Si Si1 0.264119 0.901983 0.687154
Si Si2 0.833877 0.330626 0.794609
Si Si3 0.264119 0.362136 0.687154
Si Si4 0.833877 0.330626 0.205391
Si Si5 0.468525 0.101202 0.572259
Si Si6 0.898798 0.531475 0.572259
Si Si7 0.095579 0.460124 0.070430
Si Si8 0.460124 0.364544 0.070430
O O1 0.316463 0.897536 0.748835
O O2 0.161906 0.838094 0.695876
O O3 0.291939 0.867826 0.624414
O O4 0.285146 0.000000 0.679685
O O5 0.735882 0.264118 0.776107
O O6 0.853440 0.426720 0.784904
O O7 0.847629 0.310067 0.868873
O O8 0.285146 0.285146 0.679685
O O9 0.316463 0.418927 0.748836
O O10 0.291939 0.424114 0.624414
O O11 0.847629 0.310067 0.131127
O O12 0.568698 0.137396 0.589359
O O13 0.460776 0.132600 0.500000
O O14 0.421599 0.000000 0.574003
O O15 0.000000 0.578402 0.574004
O O16 0.092541 0.546271 0.070226
O O17 0.000000 0.380872 0.079444
O O18 0.132483 0.451219 1.000000
O O19 0.380872 0.380872 0.079444
#
# Coordination Sequence:
#
# PCOD8322967 Si02
#       8
#    12  12  12  12  12  12  12  12
#     4  10  20  32  47  67  89 114 146 185 227 269
#     4  10  19  29  42  62  89 119 149 181 218 260
#     4  10  20  32  47  67  89 114 146 185 227 269
#     4  10  19  29  42  62  89 119 149 181 218 260
#     4   8  14  26  45  68  92 117 145 175 206 244
#     4   8  14  26  45  68  92 117 145 175 206 244
#     4   8  14  25  40  56  75 105 148 191 222 248
#     4   8  14  25  40  56  75 105 148 191 222 248
#
# _framework density 16.502476999999999
#
# number of rings (size 3 to 8) (size 9 to 14) (size 15 to 20)
#    0.000    3.000    0.000    3.250    0.000    3.500 
#    0.000    0.000    0.000    2.250    0.000    0.000 
#    0.000    0.000    0.000    6.250    0.000    0.000 
#
# Total GULP energy -1189409.448177 kJ/mol
# GULP energy per Si atom -12389.681752 kJ/mol
# Density = 1.646492 g / cm^3
# Si number density = 16.502477 Si / 1000 Ang^3
#
#
#
# Elastic Constant Matrix: (Units=GPa)
#
#
# Indices 1 2 3 4 5 6 
#
# 1 60.6411 32.6476 27.7958 0.0000 0.0000 0.0000
# 2 32.6476 60.6411 27.7958 0.0000 0.0000 0.0000
# 3 27.7958 27.7958 103.3318 0.0000 0.0000 0.0000
# 4 0.0000 0.0000 0.0000 15.6045 0.0000 0.0000
# 5 0.0000 0.0000 0.0000 0.0000 15.6045 0.0000
# 6 0.0000 0.0000 0.0000 0.0000 0.0000 13.9967
#
#
#
# Elastic Compliance Matrix: (Units=1/GPa)
#
#
# Indices 1 2 3 4 5 6 
#
# 1 0.024244 -0.011478 -0.003434 0.000000 0.000000 0.000000
# 2 -0.011478 0.024244 -0.003434 0.000000 0.000000 0.000000
# 3 -0.003434 -0.003434 0.011525 0.000000 0.000000 0.000000
# 4 0.000000 0.000000 0.000000 0.064084 0.000000 0.000000
# 5 0.000000 0.000000 0.000000 0.000000 0.064084 0.000000
# 6 0.000000 0.000000 0.000000 0.000000 0.000000 0.071445
#
#
# Mechanical properties :
#
#
# Convention : Reuss Voigt Hill
#
# Bulk Modulus (GPa) = 42.88029 44.56581 43.72305
# Shear Modulus (GPa) = 16.44234 18.13280 17.28757
#
# Velocity S-wave (km/s) = 3.15994 3.31840 3.24014
# Velocity P-wave (km/s) = 6.27329 6.46116 6.36792
#
# Compressibility (1/GPa) = 0.02332074
#
# Stress axis : x y z
#
# Youngs Moduli (GPa) = 41.24697 41.24697 86.76810
#
# Poissons Ratio (x) = 0.47345 0.29795
# Poissons Ratio (y) = 0.47345 0.29795
# Poissons Ratio (z) = 0.14164 0.14164
#
# Static dielectric constant tensor:
#      x y z
#    x 2.770250 0.000000 0.000000 
#    y 0.000000 2.770250 0.000000 
#    z 0.000000 0.000000 3.689840 
# 
# 
# High freq. dielectric constant tensor:
#      x y z
#    x 1.596770 0.000000 0.000000 
#    y 0.000000 1.596770 0.000000 
#    z 0.000000 0.000000 1.659440 
# 
# From -- ./inp_files/3883.got.cif
#   From: 2010.03.12/outbox.cif.g09.slc.cpg/sg162_2_cif.got.tgz:3883.got - 2010.04.02 06:27:41.
