data_PCOD8322683
_publ_section_title
;
Structure prediction by ZEFSAII (Michael W. Deem and Ramdas Pophale) SiO2 
 PCOD8322683
Probable space group: P 3 M 1
;
_chemical_formula_sum "Si O2"
_cell_formula_units_Z 42
_cell_length_a 12.565922
_cell_length_b 12.565922
_cell_length_c 17.781275
_cell_angle_alpha 90.000000
_cell_angle_beta 90.000000
_cell_angle_gamma 120.000000
_cell_volume 2431.544654
_symmetry_space_group_name_H-M "P 3 M 1"
_symmetry_group_IT_number 156
_symmetry_cell_setting 'hexagonal'
loop_
_space_group_symop_operation_xyz
x,y,z
-y,x-y,z
-x+y,-x,z
-x+y,y,z
x,x-y,z
-y,-x,z
loop_
_atom_site_type_symbol
_atom_site_label
_atom_site_fract_x
_atom_site_fract_y
_atom_site_fract_z
Si Si1 0.417993 0.333844 0.547030
Si Si2 0.247188 0.247341 0.125573
Si Si3 0.085966 0.668309 0.265284
Si Si4 0.085945 0.665454 0.687655
Si Si5 0.911685 0.578117 0.821032
Si Si6 0.750385 0.750507 0.406440
Si Si7 0.666566 0.089316 0.991651
O O1 0.439182 0.219591 0.554903
O O2 0.547531 0.452470 0.529702
O O3 0.358962 0.346042 0.623730
O O4 0.326860 0.317829 0.479813
O O5 0.250021 0.125011 0.145708
O O6 0.322995 0.347173 0.188688
O O7 0.308550 0.302493 0.045237
O O8 0.106881 0.213761 0.122556
O O9 0.073731 0.536866 0.269617
O O10 0.228690 0.771310 0.268333
O O11 0.012849 0.681571 0.334629
O O12 0.128140 0.564070 0.684984
O O13 0.202664 0.797337 0.674571
O O14 0.025707 0.663859 0.767785
O O15 0.797038 0.594075 0.799019
O O16 0.870766 0.435383 0.809703
O O17 0.955265 0.619871 0.906460
O O18 0.881550 0.763100 0.394433
O O19 0.770482 0.885241 0.416122
O O20 0.536330 0.072660 0.015528
O O21 0.767238 0.232763 0.999484
#
# Coordination Sequence:
#
# PCOD8322683 Si02
#       7
#     6   6   6   6   6   6   6
#     4  10  20  34  53  76 101 129 162 203 249 293
#     4  10  20  33  50  71  97 130 166 203 242 288
#     4  10  20  34  52  73  97 125 159 201 247 292
#     4  10  20  33  49  69  95 127 162 200 242 290
#     4   9  17  30  50  74  98 125 159 201 247 293
#     4  10  20  34  53  76 103 135 168 200 235 281
#     4   9  17  30  49  73  99 127 160 200 246 293
#
# _framework density 17.272971999999999
#
# number of rings (size 3 to 8) (size 9 to 14) (size 15 to 20)
#    0.000    2.286    0.000    3.143    0.000    1.714 
#    0.000    2.857    0.000   12.000    0.000    0.000 
#    0.000    0.000    0.000    0.000    0.000    0.000 
#
# Total GULP energy -520935.108433 kJ/mol
# GULP energy per Si atom -12403.216867 kJ/mol
# Density = 1.723366 g / cm^3
# Si number density = 17.272972 Si / 1000 Ang^3
#
#
#
# Elastic Constant Matrix: (Units=GPa)
#
#
# Indices 1 2 3 4 5 6 
#
# 1 95.7840 57.1127 54.6816 -2.5689 -0.0002 0.0000
# 2 57.1127 95.7840 54.6816 2.5689 0.0002 0.0000
# 3 54.6816 54.6816 114.3773 0.0000 0.0000 0.0000
# 4 -2.5689 2.5689 0.0000 24.1439 0.0000 0.0002
# 5 -0.0002 0.0002 0.0000 0.0000 24.1439 -2.5689
# 6 0.0000 0.0000 0.0000 0.0002 -2.5689 19.3357
#
#
#
# Elastic Compliance Matrix: (Units=1/GPa)
#
#
# Indices 1 2 3 4 5 6 
#
# 1 0.018084 -0.008145 -0.004752 0.002791 0.000000 0.000000
# 2 -0.008145 0.018084 -0.004752 -0.002791 0.000000 0.000000
# 3 -0.004752 -0.004752 0.013286 0.000000 0.000000 0.000000
# 4 0.002791 -0.002791 0.000000 0.042012 0.000000 0.000000
# 5 0.000000 0.000000 0.000000 0.000000 0.042012 0.005582
# 6 0.000000 0.000000 0.000000 0.000000 0.005582 0.052459
#
#
# Mechanical properties :
#
#
# Convention : Reuss Voigt Hill
#
# Bulk Modulus (GPa) = 70.63229 70.98858 70.81044
# Shear Modulus (GPa) = 22.12824 22.82267 22.47545
#
# Velocity S-wave (km/s) = 3.58312 3.63890 3.61112
# Velocity P-wave (km/s) = 7.62226 7.67091 7.64662
#
# Compressibility (1/GPa) = 0.01415783
#
# Stress axis : x y z
#
# Youngs Moduli (GPa) = 55.29621 55.29621 75.26485
#
# Poissons Ratio (x) = 0.45040 0.35764
# Poissons Ratio (y) = 0.45040 0.35764
# Poissons Ratio (z) = 0.26275 0.26275
#
# Static dielectric constant tensor:
#      x y z
#    x 3.129820 0.000000 0.000000 
#    y 0.000000 3.129820 0.000000 
#    z 0.000000 0.000000 3.432690 
# 
# 
# High freq. dielectric constant tensor:
#      x y z
#    x 1.665930 0.000000 0.000000 
#    y 0.000000 1.665930 0.000000 
#    z 0.000000 0.000000 1.682490 
# 
# From -- ./inp_files/952.got.cif
#   From: 2010.03.12/outbox.cif.g09.slc.cpg/sg156_cif.got.tgz:952.got - 2010.04.03 13:58:47.
