data_PCOD8322607
_publ_section_title
;
Structure prediction by ZEFSAII (Michael W. Deem and Ramdas Pophale) SiO2 
 PCOD8322607
Probable space group: R 3 2
;
_chemical_formula_sum "Si O2"
_cell_formula_units_Z 102
_cell_length_a 20.193246
_cell_length_b 20.193246
_cell_length_c 14.784345
_cell_angle_alpha 90.000000
_cell_angle_beta 90.000000
_cell_angle_gamma 120.000000
_cell_volume 5220.895399
_symmetry_space_group_name_H-M "R 3 2"
_symmetry_group_IT_number 155
_symmetry_cell_setting 'hexagonal'
loop_
_space_group_symop_operation_xyz
x,y,z
-y,x-y,z
-x+y,-x,z
x-y,-y,-z
-x,-x+y,-z
y,x,-z
2/3+x,1/3+y,1/3+z
2/3-y,1/3+x-y,1/3+z
2/3-x+y,1/3-x,1/3+z
2/3+x-y,1/3-y,1/3-z
2/3-x,1/3-x+y,1/3-z
2/3+y,1/3+x,1/3-z
1/3+x,2/3+y,2/3+z
1/3-y,2/3+x-y,2/3+z
1/3-x+y,2/3-x,2/3+z
1/3+x-y,2/3-y,2/3-z
1/3-x,2/3-x+y,2/3-z
1/3+y,2/3+x,2/3-z
loop_
_atom_site_type_symbol
_atom_site_label
_atom_site_fract_x
_atom_site_fract_y
_atom_site_fract_z
Si Si1 0.156526 0.241619 0.518992
Si Si2 0.432756 0.909409 0.997143
Si Si3 0.553817 0.166838 0.652882
Si Si4 0.734172 0.017249 0.897519
Si Si5 0.000000 0.000000 0.890928
Si Si6 0.814293 0.469030 0.144524
Si Si7 0.666667 0.333334 0.726423
O O1 0.176721 0.176721 0.500000
O O2 0.101024 0.227275 0.435906
O O3 0.110424 0.227970 0.610160
O O4 0.231472 0.324232 0.528290
O O5 0.344161 0.867414 0.965970
O O6 0.470882 0.872765 0.932526
O O7 0.473661 0.000000 0.000000
O O8 0.593723 0.160030 0.562956
O O9 0.598472 0.254027 0.688879
O O10 0.808485 0.007556 0.891296
O O11 0.666667 0.956454 0.833334
O O12 0.702596 0.000000 0.000000
O O13 0.947404 0.034303 0.852907
O O14 0.000000 0.000000 0.000000
O O15 0.666668 0.333334 0.833334
#
# Coordination Sequence:
#
# PCOD8322607 Si02
#       7
#    18  18  18  18   6  18   6
#     4  11  21  34  61  93 131 169 205 272 331 409
#     4  12  23  38  60  94 138 175 215 273 349 417
#     4  12  21  36  60  93 132 170 217 267 343 404
#     4  11  25  41  64  95 132 175 228 274 345 414
#     4  12  25  44  70 100 128 172 231 304 350 391
#     4  12  22  41  65  95 131 171 225 288 336 401
#     4  12  19  29  52  93 133 164 217 274 332 418
#
# _framework density 19.536878999999999
#
# number of rings (size 3 to 8) (size 9 to 14) (size 15 to 20)
#    0.000    0.353    7.059    3.706    2.471    0.000 
#    0.000    0.000    0.000   11.647    0.000    0.000 
#    0.000    0.000    0.000    0.000    0.000    0.000 
#
# Total GULP energy -421377.340525 kJ/mol
# GULP energy per Si atom -12393.451192 kJ/mol
# Density = 1.949241 g / cm^3
# Si number density = 19.536879 Si / 1000 Ang^3
#
#
#
# Elastic Constant Matrix: (Units=GPa)
#
#
# Indices 1 2 3 4 5 6 
#
# 1 94.0990 32.6824 18.0946 0.7993 -0.0001 0.0000
# 2 32.6824 94.0981 18.0944 -0.7997 0.0000 0.0001
# 3 18.0946 18.0944 101.3739 -0.0001 0.0000 0.0000
# 4 0.7993 -0.7997 -0.0001 27.0593 0.0000 0.0001
# 5 -0.0001 0.0000 0.0000 0.0000 27.0595 0.7994
# 6 0.0000 0.0001 0.0000 0.0001 0.7994 30.7082
#
#
#
# Elastic Compliance Matrix: (Units=1/GPa)
#
#
# Indices 1 2 3 4 5 6 
#
# 1 0.012303 -0.003992 -0.001483 -0.000481 0.000000 0.000000
# 2 -0.003992 0.012303 -0.001483 0.000482 0.000000 0.000000
# 3 -0.001483 -0.001483 0.010394 0.000000 0.000000 0.000000
# 4 -0.000481 0.000482 0.000000 0.036984 0.000000 0.000000
# 5 0.000000 0.000000 0.000000 0.000000 0.036984 -0.000963
# 6 0.000000 0.000000 0.000000 0.000000 -0.000963 0.032590
#
#
# Mechanical properties :
#
#
# Convention : Reuss Voigt Hill
#
# Bulk Modulus (GPa) = 47.43310 47.47931 47.45620
# Shear Modulus (GPa) = 30.76865 31.67873 31.22369
#
# Velocity S-wave (km/s) = 3.97281 4.03113 4.00208
# Velocity P-wave (km/s) = 6.73615 6.78394 6.76009
#
# Compressibility (1/GPa) = 0.02108233
#
# Stress axis : x y z
#
# Youngs Moduli (GPa) = 81.28154 81.28068 96.20892
#
# Poissons Ratio (x) = 0.32447 0.14272
# Poissons Ratio (y) = 0.32447 0.14272
# Poissons Ratio (z) = 0.12058 0.12058
#
# Static dielectric constant tensor:
#      x y z
#    x 3.568130 0.000000 0.000000 
#    y 0.000000 3.568140 0.000000 
#    z 0.000000 0.000000 3.607170 
# 
# 
# High freq. dielectric constant tensor:
#      x y z
#    x 1.750960 0.000000 0.000000 
#    y 0.000000 1.750960 0.000000 
#    z 0.000000 0.000000 1.764460 
# 
# From -- ./inp_files/5177.got.cif
#   From: 2010.03.12/outbox.cif.g09.slc.cpg/sg155_3_cif.got.tgz:5177.got - 2010.04.03 13:54:13.
