data_PCOD8322912
_publ_section_title
;
Structure prediction by ZEFSAII (Michael W. Deem and Ramdas Pophale) SiO2 
 PCOD8322912
Probable space group: R 3 C
;
_chemical_formula_sum "Si O2"
_cell_formula_units_Z 66
_cell_length_a 13.565480
_cell_length_b 13.565480
_cell_length_c 20.164854
_cell_angle_alpha 90.000000
_cell_angle_beta 90.000000
_cell_angle_gamma 120.000000
_cell_volume 3213.631269
_symmetry_space_group_name_H-M "R 3 C"
_symmetry_group_IT_number 161
_symmetry_cell_setting 'hexagonal'
loop_
_space_group_symop_operation_xyz
x,y,z
-y,x-y,z
-x+y,-x,z
-x+y,y,1/2+z
x,x-y,1/2+z
-y,-x,1/2+z
2/3+x,1/3+y,1/3+z
2/3-y,1/3+x-y,1/3+z
2/3-x+y,1/3-x,1/3+z
2/3-x+y,1/3+y,5/6+z
2/3+x,1/3+x-y,5/6+z
2/3-y,1/3-x,5/6+z
1/3+x,2/3+y,2/3+z
1/3-y,2/3+x-y,2/3+z
1/3-x+y,2/3-x,2/3+z
1/3-x+y,2/3+y,1/6+z
1/3+x,2/3+x-y,1/6+z
1/3-y,2/3-x,1/6+z
loop_
_atom_site_type_symbol
_atom_site_label
_atom_site_fract_x
_atom_site_fract_y
_atom_site_fract_z
Si Si1 0.092403 0.575697 0.817437
Si Si2 0.251033 0.826332 0.433833
Si Si3 0.666668 0.333334 0.622905
Si Si4 0.666668 0.333334 0.466028
Si Si5 0.663322 0.671050 0.879351
O O1 0.141364 0.683521 0.864973
O O2 0.201623 0.585231 0.777188
O O3 0.026533 0.461644 0.862053
O O4 0.015634 0.590609 0.763297
O O5 0.270633 0.736356 0.477939
O O6 0.119530 0.773630 0.413430
O O7 0.302742 0.940579 0.475965
O O8 0.666668 0.333334 0.544620
#
# Coordination Sequence:
#
# PCOD8322912 Si02
#       5
#    18  18   6   6  18
#     4  11  23  43  65  97 127 178 221 268 333 396
#     4  11  23  43  65  97 127 178 221 268 333 396
#     4   9  18  39  66  82 122 169 213 253 326 391
#     4   9  18  39  66  82 122 169 213 253 326 391
#     4  12  26  38  72  98 136 172 224 278 324 402
#
# _framework density 20.537516
#
# number of rings (size 3 to 8) (size 9 to 14) (size 15 to 20)
#    0.000    1.091    8.182    1.636    3.818    0.000 
#    0.000    0.000    0.000    4.364    0.000    0.000 
#    0.000    0.000    0.000    0.000    0.000    0.000 
#
# Total GULP energy -272585.953468 kJ/mol
# GULP energy per Si atom -12390.270612 kJ/mol
# Density = 2.049077 g / cm^3
# Si number density = 20.537516 Si / 1000 Ang^3
#
#
#
# Elastic Constant Matrix: (Units=GPa)
#
#
# Indices 1 2 3 4 5 6 
#
# 1 85.1714 31.8085 23.7601 -10.6004 0.0000 0.0000
# 2 31.8085 85.1713 23.7600 10.6001 0.0000 0.0000
# 3 23.7601 23.7600 40.0945 -0.0001 0.0000 0.0000
# 4 -10.6004 10.6001 -0.0001 25.8195 0.0000 0.0000
# 5 0.0000 0.0000 0.0000 0.0000 25.8198 -10.6005
# 6 0.0000 0.0000 0.0000 0.0000 -10.6005 26.6818
#
#
#
# Elastic Compliance Matrix: (Units=1/GPa)
#
#
# Indices 1 2 3 4 5 6 
#
# 1 0.016825 -0.005567 -0.006672 0.009193 0.000000 0.000000
# 2 -0.005567 0.016825 -0.006672 -0.009193 0.000000 0.000000
# 3 -0.006672 -0.006672 0.032849 0.000000 0.000000 0.000000
# 4 0.009193 -0.009193 0.000000 0.046279 0.000000 0.000000
# 5 0.000000 0.000000 0.000000 0.000000 0.046279 0.018386
# 6 0.000000 0.000000 0.000000 0.000000 0.018386 0.044784
#
#
# Mechanical properties :
#
#
# Convention : Reuss Voigt Hill
#
# Bulk Modulus (GPa) = 34.86946 41.01049 37.93997
# Shear Modulus (GPa) = 19.90281 24.40479 22.15380
#
# Velocity S-wave (km/s) = 3.11641 3.45092 3.28792
# Velocity P-wave (km/s) = 5.47399 5.99086 5.73825
#
# Compressibility (1/GPa) = 0.02867839
#
# Stress axis : x y z
#
# Youngs Moduli (GPa) = 59.43402 59.43410 30.44263
#
# Poissons Ratio (x) = 0.33084 0.20311
# Poissons Ratio (y) = 0.33084 0.20311
# Poissons Ratio (z) = 0.39654 0.39654
#
# Static dielectric constant tensor:
#      x y z
#    x 4.697620 0.000000 0.000000 
#    y 0.000000 4.697640 0.000000 
#    z 0.000000 0.000000 3.295840 
# 
# 
# High freq. dielectric constant tensor:
#      x y z
#    x 1.810010 0.000000 0.000000 
#    y 0.000000 1.810010 0.000000 
#    z 0.000000 0.000000 1.767200 
# 
# From -- ./inp_files/1206.got.cif
#   From: 2010.03.12/outbox.cif.g09.slc.cpg/sg161_cif.got.tgz:1206.got - 2010.04.02 06:27:14.
