data_PCOD8322618
_publ_section_title
;
Structure prediction by ZEFSAII (Michael W. Deem and Ramdas Pophale) SiO2 
 PCOD8322618
Probable space group: R 3 2
;
_chemical_formula_sum "Si O2"
_cell_formula_units_Z 144
_cell_length_a 30.275889
_cell_length_b 30.275889
_cell_length_c 8.648592
_cell_angle_alpha 90.000000
_cell_angle_beta 90.000000
_cell_angle_gamma 120.000000
_cell_volume 6865.463300
_symmetry_space_group_name_H-M "R 3 2"
_symmetry_group_IT_number 155
_symmetry_cell_setting 'hexagonal'
loop_
_space_group_symop_operation_xyz
x,y,z
-y,x-y,z
-x+y,-x,z
x-y,-y,-z
-x,-x+y,-z
y,x,-z
2/3+x,1/3+y,1/3+z
2/3-y,1/3+x-y,1/3+z
2/3-x+y,1/3-x,1/3+z
2/3+x-y,1/3-y,1/3-z
2/3-x,1/3-x+y,1/3-z
2/3+y,1/3+x,1/3-z
1/3+x,2/3+y,2/3+z
1/3-y,2/3+x-y,2/3+z
1/3-x+y,2/3-x,2/3+z
1/3+x-y,2/3-y,2/3-z
1/3-x,2/3-x+y,2/3-z
1/3+y,2/3+x,2/3-z
loop_
_atom_site_type_symbol
_atom_site_label
_atom_site_fract_x
_atom_site_fract_y
_atom_site_fract_z
Si Si1 0.571779 0.941197 0.022090
Si Si2 0.147081 0.946222 0.438237
Si Si3 0.053453 0.945411 0.935065
Si Si4 0.696465 0.148726 0.184293
Si Si5 0.705201 0.858525 0.956826
Si Si6 0.295846 0.154755 0.546252
Si Si7 0.945844 0.148743 0.930333
Si Si8 0.095642 0.140449 0.619720
O O1 0.585188 0.918521 0.166667
O O2 0.515099 0.933101 0.045479
O O3 0.570437 0.909215 0.872764
O O4 0.613635 0.000000 0.000000
O O5 0.158782 0.902914 0.500711
O O6 0.143582 0.948176 0.253288
O O7 0.094413 0.933216 0.515452
O O8 0.192065 0.000000 0.500000
O O9 0.050252 0.945579 0.748568
O O10 0.094774 0.929797 0.988940
O O11 0.000000 0.902651 0.000000
O O12 0.066740 0.000000 0.000000
O O13 0.666667 0.153935 0.333334
O O14 0.751585 0.156788 0.224556
O O15 0.703091 0.187853 0.047133
O O16 0.666667 0.817538 0.833334
O O17 0.665572 0.858928 0.079950
O O18 0.739862 0.836721 0.026463
O O19 0.333334 0.149830 0.666667
O O20 0.000000 0.191587 0.000000
O O21 0.108992 0.108992 0.500000
#
# Coordination Sequence:
#
# PCOD8322618 Si02
#       8
#    18  18  18  18  18  18  18  18
#     4  11  24  41  62  92 141 186 240 294 354 414
#     4  12  25  43  71 101 138 178 231 289 352 423
#     4  11  23  43  68  98 139 184 231 282 350 420
#     4  12  25  42  67 100 138 190 236 296 354 418
#     4  12  25  42  71 102 140 183 244 290 352 426
#     4  11  23  43  65  97 132 183 226 287 351 418
#     4  11  25  45  70 102 137 177 228 291 361 421
#     4  12  25  40  68 104 140 180 233 290 345 420
#
# _framework density 20.974549
#
# number of rings (size 3 to 8) (size 9 to 14) (size 15 to 20)
#    0.000    0.500    2.500    7.625    3.500    2.000 
#    0.000    0.000    0.000    1.750    0.000    0.000 
#    0.000    0.000    0.000    0.000    0.000    0.000 
#
# Total GULP energy -595135.545639 kJ/mol
# GULP energy per Si atom -12398.657201 kJ/mol
# Density = 2.092681 g / cm^3
# Si number density = 20.974549 Si / 1000 Ang^3
#
#
#
# Elastic Constant Matrix: (Units=GPa)
#
#
# Indices 1 2 3 4 5 6 
#
# 1 105.2538 77.9760 55.3953 -6.3849 0.0570 0.2393
# 2 77.9760 105.2788 55.2445 6.3398 -0.1038 -0.0055
# 3 55.3953 55.2445 157.0692 -0.0490 -0.2249 0.3336
# 4 -6.3849 6.3398 -0.0490 39.3900 0.0404 0.1211
# 5 0.0570 -0.1038 -0.2249 0.0404 39.3037 -6.3806
# 6 0.2393 -0.0055 0.3336 0.1211 -6.3806 13.2621
#
#
#
# Elastic Compliance Matrix: (Units=1/GPa)
#
#
# Indices 1 2 3 4 5 6 
#
# 1 0.023301 -0.016352 -0.002464 0.006407 -0.000181 -0.000511
# 2 -0.016352 0.023264 -0.002418 -0.006400 0.000159 0.000501
# 3 -0.002464 -0.002418 0.008087 0.000000 0.000019 -0.000151
# 4 0.006407 -0.006400 0.000000 0.027457 -0.000124 -0.000429
# 5 -0.000181 0.000159 0.000019 -0.000124 0.027600 0.013283
# 6 -0.000511 0.000501 -0.000151 -0.000429 0.013283 0.081811
#
#
# Mechanical properties :
#
#
# Convention : Reuss Voigt Hill
#
# Bulk Modulus (GPa) = 82.07322 82.75929 82.41625
# Shear Modulus (GPa) = 21.00400 30.32355 25.66378
#
# Velocity S-wave (km/s) = 3.16793 3.80640 3.50175
# Velocity P-wave (km/s) = 7.25230 7.67209 7.46515
#
# Compressibility (1/GPa) = 0.01218424
#
# Stress axis : x y z
#
# Youngs Moduli (GPa) = 42.91574 42.98444 123.66173
#
# Poissons Ratio (x) = 0.70287 0.30470
# Poissons Ratio (y) = 0.70174 0.29907
# Poissons Ratio (z) = 0.10574 0.10396
#
# Static dielectric constant tensor:
#      x y z
#    x 3.836610 0.000030 -0.001860 
#    y 0.000030 3.836770 -0.000360 
#    z -0.001860 -0.000360 4.668870 
# 
# 
# High freq. dielectric constant tensor:
#      x y z
#    x 1.814580 0.000000 -0.000040 
#    y 0.000000 1.814600 0.000000 
#    z -0.000040 0.000000 1.845910 
# 
# From -- ./inp_files/3076.got.cif
#   From: 2010.03.12/outbox.cif.g09.slc.cpg/sg155_2_cif.got.tgz:3076.got - 2010.04.03 13:54:13.
