data_PCOD8322044
_publ_section_title
;
Structure prediction by ZEFSAII (Michael W. Deem and Ramdas Pophale) SiO2 
 PCOD8322044
Probable space group: P 31 2 1
;
_chemical_formula_sum "Si O2"
_cell_formula_units_Z 36
_cell_length_a 9.095417
_cell_length_b 9.095417
_cell_length_c 28.228772
_cell_angle_alpha 90.000000
_cell_angle_beta 90.000000
_cell_angle_gamma 120.000000
_cell_volume 2022.403685
_symmetry_space_group_name_H-M "P 31 2 1"
_symmetry_group_IT_number 152
_symmetry_cell_setting 'hexagonal'
loop_
_space_group_symop_operation_xyz
x,y,z
-y,x-y,1/3+z
-x+y,-x,2/3+z
x-y,-y,2/3-z
-x,-x+y,1/3-z
y,x,-z
loop_
_atom_site_type_symbol
_atom_site_label
_atom_site_fract_x
_atom_site_fract_y
_atom_site_fract_z
Si Si1 0.339081 0.770957 0.169191
Si Si2 0.630905 0.076486 0.750855
Si Si3 0.628656 0.439875 0.013721
Si Si4 0.294109 0.749353 0.746595
Si Si5 0.867094 0.783208 0.204841
Si Si6 0.721834 0.085190 0.426671
O O1 0.194867 0.641933 0.205355
O O2 0.344166 0.668482 0.123878
O O3 0.288151 0.910886 0.154642
O O4 0.524785 0.866558 0.192276
O O5 0.717485 0.187687 0.704584
O O6 0.432642 0.947494 0.742363
O O7 0.721681 0.967383 0.761327
O O8 0.483640 0.303703 0.048636
O O9 0.586809 0.586809 0.000000
O O10 0.643088 0.345016 0.967771
O O11 0.114699 0.737228 0.752341
O O12 0.783976 0.867866 0.236461
O O13 0.000000 0.916384 0.166667
#
# Coordination Sequence:
#
# PCOD8322044 Si02
#       6
#     6   6   6   6   6   6
#     4   9  18  34  54  73 101 138 168 201 253 312
#     4   9  19  36  53  72 101 135 167 205 254 302
#     4   9  20  37  53  70 101 141 171 201 252 315
#     4  10  19  32  54  79 102 129 172 216 249 295
#     4   9  18  32  51  75 102 131 168 213 256 300
#     4  10  19  33  53  77 104 134 170 212 259 304
#
# _framework density 17.800601
#
# number of rings (size 3 to 8) (size 9 to 14) (size 15 to 20)
#    0.000    2.667    0.000    2.500    0.000    5.333 
#    0.000    4.167    0.000    2.000    0.000    0.000 
#    0.000    0.000    0.000    0.000    0.000    0.000 
#
# Total GULP energy -446424.079187 kJ/mol
# GULP energy per Si atom -12400.668866 kJ/mol
# Density = 1.776009 g / cm^3
# Si number density = 17.800601 Si / 1000 Ang^3
#
#
#
# Elastic Constant Matrix: (Units=GPa)
#
#
# Indices 1 2 3 4 5 6 
#
# 1 96.6107 51.3386 50.5583 9.0783 0.0000 0.0000
# 2 51.3386 96.6107 50.5583 -9.0783 0.0000 0.0000
# 3 50.5583 50.5583 122.8935 0.0000 0.0000 0.0000
# 4 9.0783 -9.0783 0.0000 27.5427 0.0000 0.0000
# 5 0.0000 0.0000 0.0000 0.0000 27.5427 9.0783
# 6 0.0000 0.0000 0.0000 0.0000 9.0783 22.6361
#
#
#
# Elastic Compliance Matrix: (Units=1/GPa)
#
#
# Indices 1 2 3 4 5 6 
#
# 1 0.017428 -0.008025 -0.003868 -0.008390 0.000000 0.000000
# 2 -0.008025 0.017428 -0.003868 0.008390 0.000000 0.000000
# 3 -0.003868 -0.003868 0.011320 0.000000 0.000000 0.000000
# 4 -0.008390 0.008390 0.000000 0.041838 0.000000 0.000000
# 5 0.000000 0.000000 0.000000 0.000000 0.041838 -0.016779
# 6 0.000000 0.000000 0.000000 0.000000 -0.016779 0.050907
#
#
# Mechanical properties :
#
#
# Convention : Reuss Voigt Hill
#
# Bulk Modulus (GPa) = 68.24808 69.00279 68.62544
# Shear Modulus (GPa) = 23.02381 26.45497 24.73939
#
# Velocity S-wave (km/s) = 3.60033 3.85929 3.73206
# Velocity P-wave (km/s) = 7.46369 7.66207 7.56353
#
# Compressibility (1/GPa) = 0.01465243
#
# Stress axis : x y z
#
# Youngs Moduli (GPa) = 57.37850 57.37850 88.33923
#
# Poissons Ratio (x) = 0.46047 0.34173
# Poissons Ratio (y) = 0.46047 0.34173
# Poissons Ratio (z) = 0.22196 0.22196
#
# Static dielectric constant tensor:
#      x y z
#    x 3.188500 0.000000 0.000000 
#    y 0.000000 3.188500 0.000000 
#    z 0.000000 0.000000 3.422530 
# 
# 
# High freq. dielectric constant tensor:
#      x y z
#    x 1.681720 0.000000 0.000000 
#    y 0.000000 1.681720 0.000000 
#    z 0.000000 0.000000 1.694070 
# 
# From -- ./inp_files/3340.got.cif
#   From: 2010.03.12/outbox.cif.g09.slc.cpg/sg152_2_cif.got.tgz:3340.got - 2010.04.03 13:45:27.
