data_PCOD8322867
_publ_section_title
;
Structure prediction by ZEFSAII (Michael W. Deem and Ramdas Pophale) SiO2 
 PCOD8322867
Probable space group: R 3 M
;
_chemical_formula_sum "Si O2"
_cell_formula_units_Z 126
_cell_length_a 17.747110
_cell_length_b 17.747110
_cell_length_c 24.432224
_cell_angle_alpha 90.000000
_cell_angle_beta 90.000000
_cell_angle_gamma 120.000000
_cell_volume 6664.213706
_symmetry_space_group_name_H-M "R 3 M"
_symmetry_group_IT_number 160
_symmetry_cell_setting 'hexagonal'
loop_
_space_group_symop_operation_xyz
x,y,z
-y,x-y,z
-x+y,-x,z
-x+y,y,z
x,x-y,z
-y,-x,z
2/3+x,1/3+y,1/3+z
2/3-y,1/3+x-y,1/3+z
2/3-x+y,1/3-x,1/3+z
2/3-x+y,1/3+y,1/3+z
2/3+x,1/3+x-y,1/3+z
2/3-y,1/3-x,1/3+z
1/3+x,2/3+y,2/3+z
1/3-y,2/3+x-y,2/3+z
1/3-x+y,2/3-x,2/3+z
1/3-x+y,2/3+y,2/3+z
1/3+x,2/3+x-y,2/3+z
1/3-y,2/3-x,2/3+z
loop_
_atom_site_type_symbol
_atom_site_label
_atom_site_fract_x
_atom_site_fract_y
_atom_site_fract_z
Si Si1 0.843898 0.509551 0.956350
Si Si2 0.999701 0.829225 0.049541
Si Si3 0.765428 0.069690 0.411854
Si Si4 0.592427 0.573903 0.865712
Si Si5 0.356665 0.263364 0.168394
Si Si6 0.999894 0.833848 0.925147
Si Si7 0.102914 0.721251 0.397929
O O1 0.758036 0.516071 0.949981
O O2 0.819547 0.409774 0.949246
O O3 0.912044 0.569293 0.909879
O O4 0.885296 0.545382 0.015545
O O5 0.906127 0.812253 0.070441
O O6 0.029212 0.770920 0.083876
O O7 0.068997 0.931004 0.056730
O O8 0.993563 0.798768 0.986723
O O9 0.855396 0.144605 0.382725
O O10 0.788505 0.055094 0.473420
O O11 0.715799 0.976351 0.381135
O O12 0.492048 0.507953 0.883249
O O13 0.608395 0.670996 0.857843
O O14 0.327581 0.163791 0.153677
O O15 0.419412 0.295763 0.219694
O O16 0.406295 0.325654 0.117222
O O17 0.062083 0.937918 0.925102
O O18 0.905820 0.811640 0.903525
O O19 0.187647 0.812354 0.412140
#
# Coordination Sequence:
#
# PCOD8322867 Si02
#       7
#    18  18  18  18  18  18  18
#     4  10  21  37  58  83 111 144 183 226 273 326
#     4   9  17  29  48  75 109 145 182 222 267 319
#     4   9  19  35  53  74 103 140 181 228 275 318
#     4   9  20  37  53  72 102 140 181 228 277 317
#     4  10  20  34  54  81 111 143 181 223 270 329
#     4   9  17  28  44  71 108 147 182 215 259 317
#     4  10  21  36  55  82 114 147 182 222 272 330
#
# _framework density 18.906956000000001
#
# number of rings (size 3 to 8) (size 9 to 14) (size 15 to 20)
#    0.000    2.571    0.000    1.286    2.000    6.857 
#    0.000    0.000    0.000    5.143    0.000    0.000 
#    0.000    0.000    0.000    0.000    0.000    0.000 
#
# Total GULP energy -520404.227641 kJ/mol
# GULP energy per Si atom -12390.576849 kJ/mol
# Density = 1.886392 g / cm^3
# Si number density = 18.906956 Si / 1000 Ang^3
#
#
#
# Elastic Constant Matrix: (Units=GPa)
#
#
# Indices 1 2 3 4 5 6 
#
# 1 107.0239 66.8051 37.9765 3.2268 -0.0001 0.0000
# 2 66.8051 107.0239 37.9765 -3.2268 0.0001 0.0000
# 3 37.9765 37.9765 70.8046 0.0000 0.0000 0.0000
# 4 3.2268 -3.2268 0.0000 24.1435 0.0000 0.0001
# 5 -0.0001 0.0001 0.0000 0.0000 24.1435 3.2268
# 6 0.0000 0.0000 0.0000 0.0001 3.2268 20.1094
#
#
#
# Elastic Compliance Matrix: (Units=1/GPa)
#
#
# Indices 1 2 3 4 5 6 
#
# 1 0.016461 -0.008948 -0.004030 -0.003396 0.000000 0.000000
# 2 -0.008948 0.016461 -0.004030 0.003396 0.000000 0.000000
# 3 -0.004030 -0.004030 0.018446 0.000000 0.000000 0.000000
# 4 -0.003396 0.003396 0.000000 0.042327 0.000000 0.000000
# 5 0.000000 0.000000 0.000000 0.000000 0.042327 -0.006792
# 6 0.000000 0.000000 0.000000 0.000000 -0.006792 0.050818
#
#
# Mechanical properties :
#
#
# Convention : Reuss Voigt Hill
#
# Bulk Modulus (GPa) = 57.62451 63.37429 60.49940
# Shear Modulus (GPa) = 22.06140 23.15222 22.60681
#
# Velocity S-wave (km/s) = 3.41961 3.50313 3.46162
# Velocity P-wave (km/s) = 6.79233 7.06784 6.93145
#
# Compressibility (1/GPa) = 0.01735373
#
# Stress axis : x y z
#
# Youngs Moduli (GPa) = 60.74862 60.74862 54.21115
#
# Poissons Ratio (x) = 0.54356 0.21847
# Poissons Ratio (y) = 0.54356 0.21847
# Poissons Ratio (z) = 0.24482 0.24482
#
# Static dielectric constant tensor:
#      x y z
#    x 3.584290 0.000000 0.000000 
#    y 0.000000 3.584290 0.000000 
#    z 0.000000 0.000000 3.454110 
# 
# 
# High freq. dielectric constant tensor:
#      x y z
#    x 1.727850 0.000000 0.000000 
#    y 0.000000 1.727850 0.000000 
#    z 0.000000 0.000000 1.732340 
# 
# From -- ./inp_files/3788.got.cif
#   From: 2010.03.12/outbox.cif.g09.slc.cpg/sg160_2_cif.got.tgz:3788.got - 2010.04.02 06:26:15.
