data_PCOD8322541
_publ_section_title
;
Structure prediction by ZEFSAII (Michael W. Deem and Ramdas Pophale) SiO2 
 PCOD8322541
Probable space group: R 3 2
;
_chemical_formula_sum "Si O2"
_cell_formula_units_Z 108
_cell_length_a 23.060303
_cell_length_b 23.060303
_cell_length_c 10.899803
_cell_angle_alpha 90.000000
_cell_angle_beta 90.000000
_cell_angle_gamma 120.000000
_cell_volume 5019.717761
_symmetry_space_group_name_H-M "R 3 2"
_symmetry_group_IT_number 155
_symmetry_cell_setting 'hexagonal'
loop_
_space_group_symop_operation_xyz
x,y,z
-y,x-y,z
-x+y,-x,z
x-y,-y,-z
-x,-x+y,-z
y,x,-z
2/3+x,1/3+y,1/3+z
2/3-y,1/3+x-y,1/3+z
2/3-x+y,1/3-x,1/3+z
2/3+x-y,1/3-y,1/3-z
2/3-x,1/3-x+y,1/3-z
2/3+y,1/3+x,1/3-z
1/3+x,2/3+y,2/3+z
1/3-y,2/3+x-y,2/3+z
1/3-x+y,2/3-x,2/3+z
1/3+x-y,2/3-y,2/3-z
1/3-x,2/3-x+y,2/3-z
1/3+y,2/3+x,2/3-z
loop_
_atom_site_type_symbol
_atom_site_label
_atom_site_fract_x
_atom_site_fract_y
_atom_site_fract_z
Si Si1 0.207518 0.269463 0.261383
Si Si2 0.598488 0.171442 0.902897
Si Si3 0.077306 0.841144 0.808100
Si Si4 0.835543 0.369051 0.664947
Si Si5 0.072030 0.366123 0.961765
Si Si6 0.978450 0.490284 0.300762
O O1 0.267150 0.333334 0.333334
O O2 0.156691 0.220259 0.362707
O O3 0.232561 0.226611 0.184705
O O4 0.175436 0.298570 0.166895
O O5 0.666667 0.223944 0.833334
O O6 0.541911 0.138689 0.798398
O O7 0.572333 0.209066 0.996144
O O8 0.077266 0.908308 0.760525
O O9 0.118171 0.827237 0.704099
O O10 0.109146 0.859641 0.943276
O O11 0.888189 0.346087 0.621955
O O12 0.070991 0.333334 0.833334
O O13 0.095283 0.325641 0.053344
O O14 0.000000 0.355028 0.000000
#
# Coordination Sequence:
#
# PCOD8322541 Si02
#       6
#    18  18  18  18  18  18
#     4  12  25  36  64  94 129 173 224 269 327 405
#     4  11  24  43  63  92 129 169 223 279 328 386
#     4  10  20  43  61  89 132 169 220 269 326 392
#     4  10  22  44  65  87 130 171 209 280 330 385
#     4  11  23  39  65  97 130 167 212 266 334 413
#     4  10  22  40  61  93 131 174 212 270 337 399
#
# _framework density 21.515153999999999
#
# number of rings (size 3 to 8) (size 9 to 14) (size 15 to 20)
#    0.000    1.333    5.000    2.500    4.667    3.333 
#    4.000    0.000    0.000    0.000    0.000    0.000 
#    0.000    0.000    0.000    0.000    0.000    0.000 
#
# Total GULP energy -446111.101504 kJ/mol
# GULP energy per Si atom -12391.975042 kJ/mol
# Density = 2.146618 g / cm^3
# Si number density = 21.515154 Si / 1000 Ang^3
#
#
#
# Elastic Constant Matrix: (Units=GPa)
#
#
# Indices 1 2 3 4 5 6 
#
# 1 92.4507 36.8031 16.9464 0.6996 -0.0003 0.0001
# 2 36.8031 92.4507 16.9472 -0.6994 0.0005 -0.0001
# 3 16.9464 16.9472 50.1749 0.0005 -0.0014 0.0001
# 4 0.6996 -0.6994 0.0005 30.5423 0.0002 0.0003
# 5 -0.0003 0.0005 -0.0014 0.0002 30.5416 0.6994
# 6 0.0001 -0.0001 0.0001 0.0003 0.6994 27.8237
#
#
#
# Elastic Compliance Matrix: (Units=1/GPa)
#
#
# Indices 1 2 3 4 5 6 
#
# 1 0.013235 -0.004746 -0.002867 -0.000412 0.000000 0.000000
# 2 -0.004746 0.013235 -0.002867 0.000412 0.000000 0.000000
# 3 -0.002867 -0.002867 0.021867 0.000000 0.000001 0.000000
# 4 -0.000412 0.000412 0.000000 0.032760 0.000000 0.000000
# 5 0.000000 0.000000 0.000001 0.000000 0.032761 -0.000823
# 6 0.000000 0.000000 0.000000 0.000000 -0.000823 0.035961
#
#
# Mechanical properties :
#
#
# Convention : Reuss Voigt Hill
#
# Bulk Modulus (GPa) = 36.52848 41.82995 39.17922
# Shear Modulus (GPa) = 27.79256 28.74017 28.26636
#
# Velocity S-wave (km/s) = 3.59801 3.65884 3.62855
# Velocity P-wave (km/s) = 5.85456 6.11014 5.98371
#
# Compressibility (1/GPa) = 0.02737590
#
# Stress axis : x y z
#
# Youngs Moduli (GPa) = 75.55998 75.55950 45.73103
#
# Poissons Ratio (x) = 0.35861 0.13111
# Poissons Ratio (y) = 0.35861 0.13112
# Poissons Ratio (z) = 0.21662 0.21664
#
# Static dielectric constant tensor:
#      x y z
#    x 4.042250 0.000000 0.000000 
#    y 0.000000 4.042250 0.000000 
#    z 0.000000 0.000000 3.906620 
# 
# 
# High freq. dielectric constant tensor:
#      x y z
#    x 1.835420 0.000000 0.000000 
#    y 0.000000 1.835420 0.000000 
#    z 0.000000 0.000000 1.839250 
# 
# From -- ./inp_files/4086.got.cif
#   From: 2010.03.12/outbox.cif.g09.slc.cpg/sg155_3_cif.got.tgz:4086.got - 2010.04.03 13:54:13.
