data_PCOD8322674
_publ_section_title
;
Structure prediction by ZEFSAII (Michael W. Deem and Ramdas Pophale) SiO2 
 PCOD8322674
Probable space group: P 3 M 1
;
_chemical_formula_sum "Si O2"
_cell_formula_units_Z 48
_cell_length_a 12.538227
_cell_length_b 12.538227
_cell_length_c 20.694720
_cell_angle_alpha 90.000000
_cell_angle_beta 90.000000
_cell_angle_gamma 120.000000
_cell_volume 2817.490388
_symmetry_space_group_name_H-M "P 3 M 1"
_symmetry_group_IT_number 156
_symmetry_cell_setting 'hexagonal'
loop_
_space_group_symop_operation_xyz
x,y,z
-y,x-y,z
-x+y,-x,z
-x+y,y,z
x,x-y,z
-y,-x,z
loop_
_atom_site_type_symbol
_atom_site_label
_atom_site_fract_x
_atom_site_fract_y
_atom_site_fract_z
Si Si1 0.583876 0.914808 0.611840
Si Si2 0.418926 0.334238 0.494680
Si Si3 0.083658 0.417300 0.373260
Si Si4 0.085191 0.669069 0.891863
Si Si5 0.749869 0.751251 0.251856
Si Si6 0.083671 0.666361 0.130440
Si Si7 0.093918 0.668312 0.751851
Si Si8 0.915310 0.334239 0.009021
O O1 0.443521 0.887041 0.612104
O O2 0.581077 0.790539 0.589677
O O3 0.646877 0.957800 0.683731
O O4 0.666784 0.023799 0.562876
O O5 0.407779 0.203890 0.483508
O O6 0.561809 0.438192 0.493628
O O7 0.344165 0.356428 0.438946
O O8 0.220042 0.440083 0.379470
O O9 0.093954 0.546977 0.359321
O O10 0.009782 0.327756 0.314745
O O11 0.112958 0.556479 0.891601
O O12 0.209461 0.790540 0.914025
O O13 0.042201 0.689078 0.819971
O O14 0.976196 0.642985 0.940824
O O15 0.786557 0.893279 0.251890
O O16 0.672298 0.682128 0.188937
O O17 0.871436 0.742873 0.251853
O O18 0.093893 0.546947 0.144418
O O19 0.220084 0.779917 0.124211
O O20 0.012280 0.655819 0.064750
O O21 0.058175 0.529088 0.751852
O O22 0.241571 0.758430 0.751851
O O23 0.876364 0.438182 0.010065
O O24 0.796118 0.203883 0.020203
#
# Coordination Sequence:
#
# PCOD8322674 Si02
#       8
#     6   6   6   6   6   6   6   6
#     4   9  16  27  46  71  97 122 150 190 239 289
#     4  10  20  33  48  66  92 127 164 199 234 277
#     4  10  20  34  54  78 102 126 154 195 245 292
#     4   9  16  27  46  71  97 122 150 190 239 289
#     4  10  20  34  52  74 102 136 170 198 224 262
#     4  10  20  34  54  78 102 126 154 195 245 292
#     4   8  13  22  39  66  96 122 148 182 232 288
#     4  10  20  33  48  66  92 127 164 199 234 277
#
# _framework density 17.036439000000001
#
# number of rings (size 3 to 8) (size 9 to 14) (size 15 to 20)
#    0.000    2.500    0.000    2.875    0.000    2.000 
#    0.000    4.375    0.000    9.000    0.000    1.750 
#    0.000    0.000    0.000    0.000    0.000    0.000 
#
# Total GULP energy -594955.461818 kJ/mol
# GULP energy per Si atom -12394.905455 kJ/mol
# Density = 1.699766 g / cm^3
# Si number density = 17.036439 Si / 1000 Ang^3
#
#
#
# Elastic Constant Matrix: (Units=GPa)
#
#
# Indices 1 2 3 4 5 6 
#
# 1 89.0296 55.4350 54.8491 -0.0023 0.0001 0.0000
# 2 55.4350 89.0296 54.8491 0.0023 -0.0001 0.0000
# 3 54.8491 54.8491 133.8798 0.0000 0.0000 0.0000
# 4 -0.0023 0.0023 0.0000 13.7696 0.0000 -0.0001
# 5 0.0001 -0.0001 0.0000 0.0000 13.7696 -0.0023
# 6 0.0000 0.0000 0.0000 -0.0001 -0.0023 16.7973
#
#
#
# Elastic Compliance Matrix: (Units=1/GPa)
#
#
# Indices 1 2 3 4 5 6 
#
# 1 0.019907 -0.009859 -0.004117 0.000005 0.000000 0.000000
# 2 -0.009859 0.019907 -0.004117 -0.000005 0.000000 0.000000
# 3 -0.004117 -0.004117 0.010842 0.000000 0.000000 0.000000
# 4 0.000005 -0.000005 0.000000 0.072624 0.000000 0.000000
# 5 0.000000 0.000000 0.000000 0.000000 0.072624 0.000010
# 6 0.000000 0.000000 0.000000 0.000000 0.000010 0.059533
#
#
# Mechanical properties :
#
#
# Convention : Reuss Voigt Hill
#
# Bulk Modulus (GPa) = 69.09815 71.35616 70.22716
# Shear Modulus (GPa) = 16.86646 18.65438 17.76042
#
# Velocity S-wave (km/s) = 3.14988 3.31262 3.23227
# Velocity P-wave (km/s) = 7.34003 7.52374 7.43245
#
# Compressibility (1/GPa) = 0.01447217
#
# Stress axis : x y z
#
# Youngs Moduli (GPa) = 50.23282 50.23282 92.23052
#
# Poissons Ratio (x) = 0.49526 0.37967
# Poissons Ratio (y) = 0.49526 0.37967
# Poissons Ratio (z) = 0.20679 0.20679
#
# Static dielectric constant tensor:
#      x y z
#    x 2.961340 0.000000 0.000000 
#    y 0.000000 2.961340 0.000000 
#    z 0.000000 0.000000 3.661190 
# 
# 
# High freq. dielectric constant tensor:
#      x y z
#    x 1.638750 0.000000 0.000000 
#    y 0.000000 1.638750 0.000000 
#    z 0.000000 0.000000 1.683750 
# 
# From -- ./inp_files/1123.got.cif
#   From: 2010.03.12/outbox.cif.g09.slc.cpg/sg156_cif.got.tgz:1123.got - 2010.04.03 13:58:47.
