data_PCOD8322074
_publ_section_title
;
Structure prediction by ZEFSAII (Michael W. Deem and Ramdas Pophale) SiO2 
 PCOD8322074
Probable space group: P 31 2 1
;
_chemical_formula_sum "Si O2"
_cell_formula_units_Z 48
_cell_length_a 11.832397
_cell_length_b 11.832397
_cell_length_c 20.162581
_cell_angle_alpha 90.000000
_cell_angle_beta 90.000000
_cell_angle_gamma 120.000000
_cell_volume 2444.681140
_symmetry_space_group_name_H-M "P 31 2 1"
_symmetry_group_IT_number 152
_symmetry_cell_setting 'hexagonal'
loop_
_space_group_symop_operation_xyz
x,y,z
-y,x-y,1/3+z
-x+y,-x,2/3+z
x-y,-y,2/3-z
-x,-x+y,1/3-z
y,x,-z
loop_
_atom_site_type_symbol
_atom_site_label
_atom_site_fract_x
_atom_site_fract_y
_atom_site_fract_z
Si Si1 0.288850 0.920410 0.519055
Si Si2 0.470291 0.652211 0.536354
Si Si3 0.706417 0.187970 0.592497
Si Si4 0.909998 0.359399 0.267121
Si Si5 0.860097 0.422447 0.686928
Si Si6 0.315821 0.174466 0.018990
Si Si7 0.400883 0.501577 0.272950
Si Si8 0.183720 0.509558 0.507627
O O1 0.231186 0.832174 0.453985
O O2 0.171039 0.873542 0.571761
O O3 0.406820 0.907955 0.550092
O O4 0.355333 0.075685 0.502001
O O5 0.536106 0.578625 0.568479
O O6 0.513247 0.704241 0.460884
O O7 0.507404 0.774402 0.584120
O O8 0.322105 0.533024 0.532081
O O9 0.750949 0.282868 0.656773
O O10 0.594071 0.204939 0.557878
O O11 0.639367 0.033378 0.610561
O O12 0.932971 0.249484 0.303352
O O13 0.866609 0.430276 0.321832
O O14 0.841997 0.543264 0.665470
O O15 0.861711 0.430453 0.766397
O O16 0.000000 0.443917 0.666667
O O17 0.198174 0.198174 0.000000
#
# Coordination Sequence:
#
# PCOD8322074 Si02
#       8
#     6   6   6   6   6   6   6   6
#     4  10  20  33  50  91 116 149 200 235 310 371
#     4  11  22  39  60  83 116 163 201 250 313 366
#     4  11  20  33  53  85 122 153 198 245 295 382
#     4  10  23  39  55  87 114 149 211 242 297 386
#     4  11  20  31  53  83 122 158 188 242 308 363
#     4  10  21  34  57  84 120 160 199 255 311 364
#     4  10  22  36  57  85 121 158 193 246 311 361
#     4  11  20  34  55  80 122 156 188 250 309 368
#
# _framework density 19.634463
#
# number of rings (size 3 to 8) (size 9 to 14) (size 15 to 20)
#    0.000    1.500    3.750    2.250    1.750    3.000 
#    0.000    0.000    0.000    0.750    6.500    0.000 
#    0.000    0.000    0.000    0.000    0.000    0.000 
#
# Total GULP energy -594770.668852 kJ/mol
# GULP energy per Si atom -12391.055601 kJ/mol
# Density = 1.958977 g / cm^3
# Si number density = 19.634463 Si / 1000 Ang^3
#
#
#
# Elastic Constant Matrix: (Units=GPa)
#
#
# Indices 1 2 3 4 5 6 
#
# 1 79.7697 30.1912 26.0016 -1.4918 0.0001 0.0000
# 2 30.1912 79.7697 26.0016 1.4918 -0.0001 0.0000
# 3 26.0016 26.0016 102.1361 0.0000 0.0000 0.0000
# 4 -1.4918 1.4918 0.0000 27.5517 0.0000 -0.0001
# 5 0.0001 -0.0001 0.0000 0.0000 27.5517 -1.4918
# 6 0.0000 0.0000 0.0000 -0.0001 -1.4918 24.7893
#
#
#
# Elastic Compliance Matrix: (Units=1/GPa)
#
#
# Indices 1 2 3 4 5 6 
#
# 1 0.015287 -0.004949 -0.002632 0.001096 0.000000 0.000000
# 2 -0.004949 0.015287 -0.002632 -0.001096 0.000000 0.000000
# 3 -0.002632 -0.002632 0.011131 0.000000 0.000000 0.000000
# 4 0.001096 -0.001096 0.000000 0.036414 0.000000 0.000000
# 5 0.000000 0.000000 0.000000 0.000000 0.036414 0.002191
# 6 0.000000 0.000000 0.000000 0.000000 0.002191 0.040472
#
#
# Mechanical properties :
#
#
# Convention : Reuss Voigt Hill
#
# Bulk Modulus (GPa) = 46.99120 47.34045 47.16582
# Shear Modulus (GPa) = 27.39354 27.94393 27.66874
#
# Velocity S-wave (km/s) = 3.73926 3.77664 3.75799
# Velocity P-wave (km/s) = 6.52899 6.57119 6.55012
#
# Compressibility (1/GPa) = 0.02128058
#
# Stress axis : x y z
#
# Youngs Moduli (GPa) = 65.41317 65.41317 89.83934
#
# Poissons Ratio (x) = 0.32370 0.23646
# Poissons Ratio (y) = 0.32370 0.23646
# Poissons Ratio (z) = 0.17217 0.17217
#
# Static dielectric constant tensor:
#      x y z
#    x 3.568490 0.000000 0.000000 
#    y 0.000000 3.568490 0.000000 
#    z 0.000000 0.000000 4.040400 
# 
# 
# High freq. dielectric constant tensor:
#      x y z
#    x 1.741310 0.000000 0.000000 
#    y 0.000000 1.741310 0.000000 
#    z 0.000000 0.000000 1.785860 
# 
# From -- ./inp_files/2850.got.cif
#   From: 2010.03.12/outbox.cif.g09.slc.cpg/sg152_2_cif.got.tgz:2850.got - 2010.04.03 13:45:27.
