data_PCOD8322525
_publ_section_title
;
Structure prediction by ZEFSAII (Michael W. Deem and Ramdas Pophale) SiO2 
 PCOD8322525
Probable space group: R 3 2
;
_chemical_formula_sum "Si O2"
_cell_formula_units_Z 108
_cell_length_a 22.151962
_cell_length_b 22.151962
_cell_length_c 12.209923
_cell_angle_alpha 90.000000
_cell_angle_beta 90.000000
_cell_angle_gamma 120.000000
_cell_volume 5188.812198
_symmetry_space_group_name_H-M "R 3 2"
_symmetry_group_IT_number 155
_symmetry_cell_setting 'hexagonal'
loop_
_space_group_symop_operation_xyz
x,y,z
-y,x-y,z
-x+y,-x,z
x-y,-y,-z
-x,-x+y,-z
y,x,-z
2/3+x,1/3+y,1/3+z
2/3-y,1/3+x-y,1/3+z
2/3-x+y,1/3-x,1/3+z
2/3+x-y,1/3-y,1/3-z
2/3-x,1/3-x+y,1/3-z
2/3+y,1/3+x,1/3-z
1/3+x,2/3+y,2/3+z
1/3-y,2/3+x-y,2/3+z
1/3-x+y,2/3-x,2/3+z
1/3+x-y,2/3-y,2/3-z
1/3-x,2/3-x+y,2/3-z
1/3+y,2/3+x,2/3-z
loop_
_atom_site_type_symbol
_atom_site_label
_atom_site_fract_x
_atom_site_fract_y
_atom_site_fract_z
Si Si1 0.414728 0.920894 0.648182
Si Si2 0.419166 0.494247 0.466283
Si Si3 0.762935 0.585078 0.684159
Si Si4 0.972236 0.258166 0.378159
Si Si5 0.147523 0.744831 0.123830
Si Si6 0.402797 0.494813 0.819646
O O1 0.333334 0.874734 0.666667
O O2 0.435308 0.917979 0.521651
O O3 0.452382 0.888871 0.719466
O O4 0.447810 0.002795 0.689581
O O5 0.430512 0.430512 0.500000
O O6 0.416757 0.501826 0.336239
O O7 0.346167 0.475430 0.521043
O O8 0.795553 0.666667 0.666667
O O9 0.679704 0.553881 0.659702
O O10 0.780395 0.572706 0.808591
O O11 0.794938 0.554219 0.599125
O O12 0.000000 0.271584 0.500000
O O13 0.993345 0.333334 0.333334
O O14 0.114134 0.666667 0.166667
O O15 0.091067 0.768640 0.149365
#
# Coordination Sequence:
#
# PCOD8322525 Si02
#       6
#    18  18  18  18  18  18
#     4  11  25  42  63  93 137 181 224 276 339 417
#     4  12  25  39  68  97 135 176 223 286 343 416
#     4   9  19  35  58  84 126 174 218 263 325 405
#     4  10  20  37  57  84 122 177 217 264 322 398
#     4  11  21  38  63  95 133 177 222 274 348 416
#     4  11  22  41  60  95 132 175 220 277 346 407
#
# _framework density 20.814012000000002
#
# number of rings (size 3 to 8) (size 9 to 14) (size 15 to 20)
#    0.000    1.333    3.333    4.000    0.000    5.333 
#    0.000    0.000    0.000    2.667    0.000    0.000 
#    0.000    0.000    0.000    0.000    0.000    0.000 
#
# Total GULP energy -446099.482853 kJ/mol
# GULP energy per Si atom -12391.652301 kJ/mol
# Density = 2.076664 g / cm^3
# Si number density = 20.814012 Si / 1000 Ang^3
#
#
#
# Elastic Constant Matrix: (Units=GPa)
#
#
# Indices 1 2 3 4 5 6 
#
# 1 112.6100 43.9792 48.2642 -0.6514 -0.0001 0.0000
# 2 43.9792 112.6100 48.2642 0.6514 0.0000 0.0000
# 3 48.2642 48.2642 153.9302 -0.0001 -0.0001 0.0000
# 4 -0.6514 0.6514 -0.0001 28.9253 0.0000 0.0001
# 5 -0.0001 0.0000 -0.0001 0.0000 28.9253 -0.6514
# 6 0.0000 0.0000 0.0000 0.0001 -0.6514 34.3154
#
#
#
# Elastic Compliance Matrix: (Units=1/GPa)
#
#
# Indices 1 2 3 4 5 6 
#
# 1 0.011247 -0.003330 -0.002482 0.000328 0.000000 0.000000
# 2 -0.003330 0.011247 -0.002482 -0.000328 0.000000 0.000000
# 3 -0.002482 -0.002482 0.008053 0.000000 0.000000 0.000000
# 4 0.000328 -0.000328 0.000000 0.034587 0.000000 0.000000
# 5 0.000000 0.000000 0.000000 0.000000 0.034587 0.000657
# 6 0.000000 0.000000 0.000000 0.000000 0.000657 0.029154
#
#
# Mechanical properties :
#
#
# Convention : Reuss Voigt Hill
#
# Bulk Modulus (GPa) = 71.64869 73.35170 72.50019
# Shear Modulus (GPa) = 33.30789 34.34271 33.82530
#
# Velocity S-wave (km/s) = 4.00467 4.06640 4.03565
# Velocity P-wave (km/s) = 7.47537 7.57400 7.52485
#
# Compressibility (1/GPa) = 0.01395699
#
# Stress axis : x y z
#
# Youngs Moduli (GPa) = 88.91589 88.91590 124.17806
#
# Poissons Ratio (x) = 0.29612 0.30822
# Poissons Ratio (y) = 0.29612 0.30822
# Poissons Ratio (z) = 0.22070 0.22070
#
# Static dielectric constant tensor:
#      x y z
#    x 3.770140 0.000000 0.000000 
#    y 0.000000 3.770140 0.000000 
#    z 0.000000 0.000000 4.024240 
# 
# 
# High freq. dielectric constant tensor:
#      x y z
#    x 1.793910 0.000000 0.000000 
#    y 0.000000 1.793910 0.000000 
#    z 0.000000 0.000000 1.839630 
# 
# From -- ./inp_files/4098.got.cif
#   From: 2010.03.12/outbox.cif.g09.slc.cpg/sg155_3_cif.got.tgz:4098.got - 2010.04.03 13:54:13.
