data_PCOD8322623
_publ_section_title
;
Structure prediction by ZEFSAII (Michael W. Deem and Ramdas Pophale) SiO2 
 PCOD8322623
Probable space group: R 3 2
;
_chemical_formula_sum "Si O2"
_cell_formula_units_Z 75
_cell_length_a 13.496244
_cell_length_b 13.496244
_cell_length_c 21.533288
_cell_angle_alpha 90.000000
_cell_angle_beta 90.000000
_cell_angle_gamma 120.000000
_cell_volume 3396.775335
_symmetry_space_group_name_H-M "R 3 2"
_symmetry_group_IT_number 155
_symmetry_cell_setting 'hexagonal'
loop_
_space_group_symop_operation_xyz
x,y,z
-y,x-y,z
-x+y,-x,z
x-y,-y,-z
-x,-x+y,-z
y,x,-z
2/3+x,1/3+y,1/3+z
2/3-y,1/3+x-y,1/3+z
2/3-x+y,1/3-x,1/3+z
2/3+x-y,1/3-y,1/3-z
2/3-x,1/3-x+y,1/3-z
2/3+y,1/3+x,1/3-z
1/3+x,2/3+y,2/3+z
1/3-y,2/3+x-y,2/3+z
1/3-x+y,2/3-x,2/3+z
1/3+x-y,2/3-y,2/3-z
1/3-x,2/3-x+y,2/3-z
1/3+y,2/3+x,2/3-z
loop_
_atom_site_type_symbol
_atom_site_label
_atom_site_fract_x
_atom_site_fract_y
_atom_site_fract_z
Si Si1 0.666667 0.333335 0.459799
Si Si2 0.666668 0.333334 0.605300
Si Si3 0.542745 0.469676 0.440789
Si Si4 0.143890 0.229389 0.671386
Si Si5 0.333334 0.164336 0.666667
Si Si6 0.947632 0.353315 0.765546
O O1 0.666668 0.333334 0.532721
O O2 0.572435 0.367497 0.438025
O O3 0.572106 0.205857 0.627839
O O4 0.465917 0.465917 0.500000
O O5 0.471999 0.461205 0.379039
O O6 0.664473 0.584180 0.442782
O O7 0.224787 0.178542 0.658366
O O8 0.105996 0.254422 0.605616
O O9 0.328179 0.092507 0.727833
O O10 0.888529 0.333334 0.833334
#
# Coordination Sequence:
#
# PCOD8322623 Si02
#       6
#     6   6  18  18   9  18
#     4  12  27  42  73 119 142 195 247 299 370 447
#     4  12  21  45  76 101 142 192 241 296 367 435
#     4  11  24  44  72 102 148 190 241 298 359 440
#     4  12  24  46  71 101 143 188 238 298 365 438
#     4  12  26  46  72 102 140 190 236 300 366 436
#     4  11  25  47  70 102 143 186 235 304 364 431
#
# _framework density 22.079764999999998
#
# number of rings (size 3 to 8) (size 9 to 14) (size 15 to 20)
#    0.000    0.480    7.200    0.000    6.720    0.960 
#    0.000    0.000    0.000    0.000    0.000    0.000 
#    0.000    0.000    0.000    0.000    0.000    0.000 
#
# Total GULP energy -310023.208583 kJ/mol
# GULP energy per Si atom -12400.928343 kJ/mol
# Density = 2.202951 g / cm^3
# Si number density = 22.079765 Si / 1000 Ang^3
#
#
#
# Elastic Constant Matrix: (Units=GPa)
#
#
# Indices 1 2 3 4 5 6 
#
# 1 149.5694 -62.4745 22.0702 -3.8293 -0.0012 0.0000
# 2 -62.4745 149.5806 22.0588 3.8299 0.0012 0.0000
# 3 22.0702 22.0588 159.0445 0.0000 0.0000 0.0000
# 4 -3.8293 3.8299 0.0000 24.6205 0.0000 0.0012
# 5 -0.0012 0.0012 0.0000 0.0000 24.6214 -3.8359
# 6 0.0000 0.0000 0.0000 0.0012 -3.8359 106.0059
#
#
#
# Elastic Compliance Matrix: (Units=1/GPa)
#
#
# Indices 1 2 3 4 5 6 
#
# 1 0.008546 0.003803 -0.001713 0.000738 0.000000 0.000000
# 2 0.003803 0.008545 -0.001713 -0.000738 0.000000 0.000000
# 3 -0.001713 -0.001713 0.006763 0.000000 0.000000 0.000000
# 4 0.000738 -0.000738 0.000000 0.040846 0.000000 0.000000
# 5 0.000000 0.000000 0.000000 0.000000 0.040845 0.001478
# 6 0.000000 0.000000 0.000000 0.000000 0.001478 0.009487
#
#
# Mechanical properties :
#
#
# Convention : Reuss Voigt Hill
#
# Bulk Modulus (GPa) = 40.63708 46.83372 43.73540
# Shear Modulus (GPa) = 40.82243 62.81889 51.82066
#
# Velocity S-wave (km/s) = 4.30450 5.33972 4.84981
# Velocity P-wave (km/s) = 6.56884 7.69896 7.15625
#
# Compressibility (1/GPa) = 0.02460807
#
# Stress axis : x y z
#
# Youngs Moduli (GPa) = 117.01159 117.02295 147.86565
#
# Poissons Ratio (x) = -0.44506 0.25336
# Poissons Ratio (y) = -0.44502 0.25329
# Poissons Ratio (z) = 0.20049 0.20046
#
# Static dielectric constant tensor:
#      x y z
#    x 1.202160 0.000000 0.000000 
#    y 0.000000 1.204050 0.000050 
#    z 0.000000 0.000050 4.066970 
# 
# 
# High freq. dielectric constant tensor:
#      x y z
#    x 1.872870 0.000000 0.000000 
#    y 0.000000 1.872870 0.000000 
#    z 0.000000 0.000000 1.866330 
# 
# From -- ./inp_files/6817.got.cif
#   From: 2010.03.12/outbox.cif.g09.slc.cpg/sg155_4_cif.got.tgz:6817.got - 2010.04.03 13:54:13.
