data_PCOD8322363
_publ_section_title
;
Structure prediction by ZEFSAII (Michael W. Deem and Ramdas Pophale) SiO2 
 PCOD8322363
Probable space group: P 32 2 1
;
_chemical_formula_sum "Si O2"
_cell_formula_units_Z 27
_cell_length_a 8.064990
_cell_length_b 8.064990
_cell_length_c 20.476650
_cell_angle_alpha 90.000000
_cell_angle_beta 90.000000
_cell_angle_gamma 120.000000
_cell_volume 1153.445835
_symmetry_space_group_name_H-M "P 32 2 1"
_symmetry_group_IT_number 154
_symmetry_cell_setting 'hexagonal'
loop_
_space_group_symop_operation_xyz
x,y,z
-y,x-y,2/3+z
-x+y,-x,1/3+z
x-y,-y,1/3-z
-x,-x+y,2/3-z
y,x,-z
loop_
_atom_site_type_symbol
_atom_site_label
_atom_site_fract_x
_atom_site_fract_y
_atom_site_fract_z
Si Si1 0.203171 0.127227 0.299982
Si Si2 0.525983 0.310960 0.738692
Si Si3 0.051100 0.378797 0.144404
Si Si4 0.225319 0.786355 0.347231
Si Si5 0.000000 0.025839 0.833334
O O1 0.319019 0.360162 0.305236
O O2 0.000000 0.058091 0.333334
O O3 0.305677 0.014018 0.330105
O O4 0.186204 0.085033 0.222532
O O5 0.602533 0.470390 0.794729
O O6 0.697378 0.332458 0.693241
O O7 0.444286 0.115195 0.780949
O O8 0.986824 0.157802 0.134971
O O9 0.218601 0.492930 0.090066
O O10 0.000000 0.668675 0.333334
#
# Coordination Sequence:
#
# PCOD8322363 Si02
#       5
#     6   6   6   6   3
#     4  10  21  40  68  91 131 186 220 279 348 414
#     4  11  26  42  68 101 139 174 235 289 346 425
#     4  11  24  44  65 101 135 182 228 286 354 416
#     4  11  22  44  69  97 136 184 232 284 351 423
#     4  10  20  42  66  90 134 176 230 270 352 412
#
# _framework density 23.40812
#
# number of rings (size 3 to 8) (size 9 to 14) (size 15 to 20)
#    0.000    1.333    4.444    2.000    6.222    1.778 
#    4.000    0.000    0.000    0.000    0.000    0.000 
#    0.000    0.000    0.000    0.000    0.000    0.000 
#
# Total GULP energy -334717.162615 kJ/mol
# GULP energy per Si atom -12396.931949 kJ/mol
# Density = 2.335484 g / cm^3
# Si number density = 23.408120 Si / 1000 Ang^3
#
#
#
# Elastic Constant Matrix: (Units=GPa)
#
#
# Indices 1 2 3 4 5 6 
#
# 1 84.9528 18.5921 14.4789 1.2678 0.0000 0.0000
# 2 18.5921 84.9528 14.4789 -1.2678 0.0000 0.0000
# 3 14.4789 14.4789 88.0306 0.0000 0.0000 0.0000
# 4 1.2678 -1.2678 0.0000 37.9407 0.0000 0.0000
# 5 0.0000 0.0000 0.0000 0.0000 37.9407 1.2678
# 6 0.0000 0.0000 0.0000 0.0000 1.2678 33.1803
#
#
#
# Elastic Compliance Matrix: (Units=1/GPa)
#
#
# Indices 1 2 3 4 5 6 
#
# 1 0.012606 -0.002483 -0.001665 -0.000504 0.000000 0.000000
# 2 -0.002483 0.012606 -0.001665 0.000504 0.000000 0.000000
# 3 -0.001665 -0.001665 0.011907 0.000000 0.000000 0.000000
# 4 -0.000504 0.000504 0.000000 0.026391 0.000000 0.000000
# 5 0.000000 0.000000 0.000000 0.000000 0.026391 -0.001008
# 6 0.000000 0.000000 0.000000 0.000000 -0.001008 0.030177
#
#
# Mechanical properties :
#
#
# Convention : Reuss Voigt Hill
#
# Bulk Modulus (GPa) = 39.22515 39.22623 39.22569
# Shear Modulus (GPa) = 35.66323 35.83810 35.75066
#
# Velocity S-wave (km/s) = 3.90749 3.91706 3.91228
# Velocity P-wave (km/s) = 6.09520 6.10342 6.09931
#
# Compressibility (1/GPa) = 0.02549384
#
# Stress axis : x y z
#
# Youngs Moduli (GPa) = 79.32820 79.32820 83.98141
#
# Poissons Ratio (x) = 0.19694 0.13983
# Poissons Ratio (y) = 0.19694 0.13983
# Poissons Ratio (z) = 0.13208 0.13208
#
# Static dielectric constant tensor:
#      x y z
#    x 4.162700 0.000000 0.000000 
#    y 0.000000 4.162700 0.000000 
#    z 0.000000 0.000000 4.400080 
# 
# 
# High freq. dielectric constant tensor:
#      x y z
#    x 1.916540 0.000000 0.000000 
#    y 0.000000 1.916540 0.000000 
#    z 0.000000 0.000000 1.936730 
# 
# From -- ./inp_files/2686.got.cif
#   From: 2010.03.12/outbox.cif.g09.slc.cpg/sg154_2_cif.got.tgz:2686.got - 2010.04.03 13:51:21.
