data_PCOD8322592
_publ_section_title
;
Structure prediction by ZEFSAII (Michael W. Deem and Ramdas Pophale) SiO2 
 PCOD8322592
Probable space group: R 3 2
;
_chemical_formula_sum "Si O2"
_cell_formula_units_Z 51
_cell_length_a 10.477983
_cell_length_b 10.477983
_cell_length_c 27.949409
_cell_angle_alpha 90.000000
_cell_angle_beta 90.000000
_cell_angle_gamma 120.000000
_cell_volume 2657.410457
_symmetry_space_group_name_H-M "R 3 2"
_symmetry_group_IT_number 155
_symmetry_cell_setting 'hexagonal'
loop_
_space_group_symop_operation_xyz
x,y,z
-y,x-y,z
-x+y,-x,z
x-y,-y,-z
-x,-x+y,-z
y,x,-z
2/3+x,1/3+y,1/3+z
2/3-y,1/3+x-y,1/3+z
2/3-x+y,1/3-x,1/3+z
2/3+x-y,1/3-y,1/3-z
2/3-x,1/3-x+y,1/3-z
2/3+y,1/3+x,1/3-z
1/3+x,2/3+y,2/3+z
1/3-y,2/3+x-y,2/3+z
1/3-x+y,2/3-x,2/3+z
1/3+x-y,2/3-y,2/3-z
1/3-x,2/3-x+y,2/3-z
1/3+y,2/3+x,2/3-z
loop_
_atom_site_type_symbol
_atom_site_label
_atom_site_fract_x
_atom_site_fract_y
_atom_site_fract_z
Si Si1 0.692369 0.951159 0.574262
Si Si2 0.000000 0.000000 0.441910
Si Si3 0.459814 0.848882 0.851058
Si Si4 0.333334 0.501728 0.666667
O O1 0.835723 0.933596 0.579315
O O2 0.588331 0.840862 0.533919
O O3 0.597194 0.918401 0.621725
O O4 0.752898 0.121030 0.559426
O O5 0.000000 0.000000 0.500000
O O6 0.284121 0.781666 0.855689
O O7 0.478254 0.666667 0.666667
#
# Coordination Sequence:
#
# PCOD8322592 Si02
#       4
#    18   6  18   9
#     4  11  22  42  65  92 131 165 211 269 319 379
#     4  12  24  42  63 102 129 174 210 261 330 370
#     4   9  20  36  63  99 119 160 216 260 317 367
#     4  10  24  46  66  94 122 170 216 260 328 378
#
# _framework density 19.191614999999999
#
# number of rings (size 3 to 8) (size 9 to 14) (size 15 to 20)
#    1.059    0.706    3.529    2.118    0.000    8.471 
#    9.529    0.000    0.000    0.000    0.000    0.000 
#    0.000    0.000    0.000    0.000    0.000    0.000 
#
# Total GULP energy -210673.985637 kJ/mol
# GULP energy per Si atom -12392.587390 kJ/mol
# Density = 1.914793 g / cm^3
# Si number density = 19.191615 Si / 1000 Ang^3
#
#
#
# Elastic Constant Matrix: (Units=GPa)
#
#
# Indices 1 2 3 4 5 6 
#
# 1 96.3811 10.0694 38.6049 -5.4189 -0.0005 0.0000
# 2 10.0694 96.3811 38.6049 5.4189 0.0005 0.0000
# 3 38.6049 38.6049 135.4299 0.0000 0.0000 0.0000
# 4 -5.4189 5.4189 0.0000 22.0103 0.0000 0.0005
# 5 -0.0005 0.0005 0.0000 0.0000 22.0103 -5.4189
# 6 0.0000 0.0000 0.0000 0.0005 -5.4189 43.1558
#
#
#
# Elastic Compliance Matrix: (Units=1/GPa)
#
#
# Indices 1 2 3 4 5 6 
#
# 1 0.011899 -0.000056 -0.003376 0.002943 0.000000 0.000000
# 2 -0.000056 0.011899 -0.003376 -0.002943 0.000000 0.000000
# 3 -0.003376 -0.003376 0.009308 0.000000 0.000000 0.000000
# 4 0.002943 -0.002943 0.000000 0.046883 0.000000 -0.000001
# 5 0.000000 0.000000 0.000000 0.000000 0.046883 0.005887
# 6 0.000000 0.000000 0.000000 -0.000001 0.005887 0.023911
#
#
# Mechanical properties :
#
#
# Convention : Reuss Voigt Hill
#
# Bulk Modulus (GPa) = 51.30722 55.86117 53.58420
# Shear Modulus (GPa) = 29.25765 33.49615 31.37690
#
# Velocity S-wave (km/s) = 3.90872 4.18227 4.04781
# Velocity P-wave (km/s) = 6.86754 7.24515 7.05887
#
# Compressibility (1/GPa) = 0.01949043
#
# Stress axis : x y z
#
# Youngs Moduli (GPa) = 84.04054 84.04054 107.42930
#
# Poissons Ratio (x) = 0.00475 0.36266
# Poissons Ratio (y) = 0.00475 0.36266
# Poissons Ratio (z) = 0.28370 0.28370
#
# Static dielectric constant tensor:
#      x y z
#    x 3.529760 0.000000 0.000000 
#    y 0.000000 3.529760 0.000000 
#    z 0.000000 0.000000 3.378770 
# 
# 
# High freq. dielectric constant tensor:
#      x y z
#    x 1.750110 0.000000 0.000000 
#    y 0.000000 1.750110 0.000000 
#    z 0.000000 0.000000 1.722960 
# 
# From -- ./inp_files/8201.got.cif
#   From: 2010.03.12/outbox.cif.g09.slc.cpg/sg155_5_cif.got.tgz:8201.got - 2010.04.03 13:54:13.
