data_PCOD8322441
_publ_section_title
;
Structure prediction by ZEFSAII (Michael W. Deem and Ramdas Pophale) SiO2 
 PCOD8322441
Probable space group: P 32 2 1
;
_chemical_formula_sum "Si O2"
_cell_formula_units_Z 42
_cell_length_a 8.848440
_cell_length_b 8.848440
_cell_length_c 28.268058
_cell_angle_alpha 90.000000
_cell_angle_beta 90.000000
_cell_angle_gamma 120.000000
_cell_volume 1916.725965
_symmetry_space_group_name_H-M "P 32 2 1"
_symmetry_group_IT_number 154
_symmetry_cell_setting 'hexagonal'
loop_
_space_group_symop_operation_xyz
x,y,z
-y,x-y,2/3+z
-x+y,-x,1/3+z
x-y,-y,1/3-z
-x,-x+y,2/3-z
y,x,-z
loop_
_atom_site_type_symbol
_atom_site_label
_atom_site_fract_x
_atom_site_fract_y
_atom_site_fract_z
Si Si1 0.461975 0.883232 0.382263
Si Si2 0.046891 0.850436 0.103297
Si Si3 0.881576 0.668219 0.464776
Si Si4 0.783818 0.555987 0.709978
Si Si5 0.750783 0.851180 0.048124
Si Si6 0.344693 0.531703 0.517782
Si Si7 0.579717 0.159694 0.564902
O O1 0.651698 0.938129 0.402737
O O2 0.433590 0.783747 0.332279
O O3 0.319832 0.765509 0.420759
O O4 0.433540 0.044063 0.371469
O O5 0.002673 0.785447 0.157606
O O6 0.881659 0.865250 0.088623
O O7 0.219371 0.043168 0.098611
O O8 0.714475 0.517104 0.491373
O O9 0.984128 0.593025 0.434530
O O10 0.782611 0.474050 0.760279
O O11 0.956717 0.741583 0.705150
O O12 0.556331 0.713420 0.064223
O O13 0.778757 0.778757 0.000000
O O14 0.375069 0.375069 0.500000
O O15 0.187785 0.526594 0.487764
#
# Coordination Sequence:
#
# PCOD8322441 Si02
#       7
#     6   6   6   6   6   6   6
#     4  12  26  48  74 105 146 191 244 296 371 439
#     4  11  24  46  72 101 144 186 234 298 362 423
#     4  11  25  43  74 106 144 184 239 297 364 423
#     4  12  28  46  76 106 146 193 244 301 370 436
#     4  12  27  47  69 106 147 188 238 301 359 435
#     4  12  24  46  74 108 143 192 245 301 356 436
#     4  12  27  46  73 107 147 188 246 296 366 438
#
# _framework density 21.912365000000001
#
# number of rings (size 3 to 8) (size 9 to 14) (size 15 to 20)
#    0.000    0.286    5.714    2.571    6.000    2.286 
#    0.000    0.000    0.000    0.000    0.000    0.000 
#    0.000    0.000    0.000    0.000    0.000    0.000 
#
# Total GULP energy -520972.576532 kJ/mol
# GULP energy per Si atom -12404.108965 kJ/mol
# Density = 2.186249 g / cm^3
# Si number density = 21.912365 Si / 1000 Ang^3
#
#
#
# Elastic Constant Matrix: (Units=GPa)
#
#
# Indices 1 2 3 4 5 6 
#
# 1 114.9290 37.2098 21.7806 2.8043 0.0000 0.0000
# 2 37.2098 114.9290 21.7806 -2.8043 0.0000 0.0000
# 3 21.7806 21.7806 110.2037 0.0000 0.0000 0.0000
# 4 2.8043 -2.8043 0.0000 31.9373 0.0000 0.0000
# 5 0.0000 0.0000 0.0000 0.0000 31.9373 2.8043
# 6 0.0000 0.0000 0.0000 0.0000 2.8043 38.8596
#
#
#
# Elastic Compliance Matrix: (Units=1/GPa)
#
#
# Indices 1 2 3 4 5 6 
#
# 1 0.009958 -0.002991 -0.001377 -0.001137 0.000000 0.000000
# 2 -0.002991 0.009958 -0.001377 0.001137 0.000000 0.000000
# 3 -0.001377 -0.001377 0.009618 0.000000 0.000000 0.000000
# 4 -0.001137 0.001137 0.000000 0.031511 0.000000 0.000000
# 5 0.000000 0.000000 0.000000 0.000000 0.031511 -0.002274
# 6 0.000000 0.000000 0.000000 0.000000 -0.002274 0.025898
#
#
# Mechanical properties :
#
#
# Convention : Reuss Voigt Hill
#
# Bulk Modulus (GPa) = 55.41750 55.73376 55.57563
# Shear Modulus (GPa) = 36.77584 37.83290 37.30437
#
# Velocity S-wave (km/s) = 4.10117 4.15969 4.13053
# Velocity P-wave (km/s) = 6.91169 6.96856 6.94018
#
# Compressibility (1/GPa) = 0.01804484
#
# Stress axis : x y z
#
# Youngs Moduli (GPa) = 100.42128 100.42128 103.96734
#
# Poissons Ratio (x) = 0.30034 0.14316
# Poissons Ratio (y) = 0.30034 0.14316
# Poissons Ratio (z) = 0.13828 0.13828
#
# Static dielectric constant tensor:
#      x y z
#    x 4.068490 0.000000 0.000000 
#    y 0.000000 4.068490 0.000000 
#    z 0.000000 0.000000 3.996390 
# 
# 
# High freq. dielectric constant tensor:
#      x y z
#    x 1.867060 0.000000 0.000000 
#    y 0.000000 1.867060 0.000000 
#    z 0.000000 0.000000 1.871660 
# 
# From -- ./inp_files/3788.got.cif
#   From: 2010.03.12/outbox.cif.g09.slc.cpg/sg154_2_cif.got.tgz:3788.got - 2010.04.03 13:51:21.
