data_PCOD8322099
_publ_section_title
;
Structure prediction by ZEFSAII (Michael W. Deem and Ramdas Pophale) SiO2 
 PCOD8322099
Probable space group: P 31 2 1
;
_chemical_formula_sum "Si O2"
_cell_formula_units_Z 36
_cell_length_a 11.552727
_cell_length_b 11.552727
_cell_length_c 14.153742
_cell_angle_alpha 90.000000
_cell_angle_beta 90.000000
_cell_angle_gamma 120.000000
_cell_volume 1635.953398
_symmetry_space_group_name_H-M "P 31 2 1"
_symmetry_group_IT_number 152
_symmetry_cell_setting 'hexagonal'
loop_
_space_group_symop_operation_xyz
x,y,z
-y,x-y,1/3+z
-x+y,-x,2/3+z
x-y,-y,2/3-z
-x,-x+y,1/3-z
y,x,-z
loop_
_atom_site_type_symbol
_atom_site_label
_atom_site_fract_x
_atom_site_fract_y
_atom_site_fract_z
Si Si1 0.058645 0.314020 0.913320
Si Si2 0.000000 0.842317 0.666667
Si Si3 0.391709 0.789447 0.562368
Si Si4 0.297811 0.135832 0.295441
Si Si5 0.194314 0.332542 0.308739
Si Si6 0.000000 0.135694 0.166667
Si Si7 0.569869 0.154172 0.321155
O O1 0.076821 0.461065 0.918719
O O2 0.116087 0.295868 0.815841
O O3 0.157239 0.297245 0.989426
O O4 0.903099 0.208622 0.934642
O O5 0.984774 0.916811 0.575140
O O6 0.509725 0.795666 0.625313
O O7 0.416940 0.786932 0.449840
O O8 0.249004 0.666981 0.596036
O O9 0.282903 0.262290 0.324832
O O10 0.434349 0.157429 0.340519
O O11 0.171872 0.000000 0.333334
O O12 0.107567 0.273431 0.214597
O O13 0.537756 0.000000 0.333334
#
# Coordination Sequence:
#
# PCOD8322099 Si02
#       7
#     6   3   6   6   6   3   6
#     4  10  24  41  67  99 134 178 234 284 351 426
#     4  10  20  38  64  98 132 170 226 284 338 426
#     4  11  27  44  74 100 142 187 240 297 356 431
#     4  10  23  43  67  99 138 185 228 284 358 431
#     4  11  25  40  69 102 141 176 233 301 356 418
#     4  10  22  36  66  98 134 172 224 286 354 418
#     4  10  26  47  73 103 140 195 246 291 362 434
#
# _framework density 22.005517000000001
#
# number of rings (size 3 to 8) (size 9 to 14) (size 15 to 20)
#    0.000    1.667    1.667    0.000   17.500    3.333 
#    0.000    0.000    0.000    0.000    0.000    0.000 
#    0.000    0.000    0.000    0.000    0.000    0.000 
#
# Total GULP energy -446107.758177 kJ/mol
# GULP energy per Si atom -12391.882172 kJ/mol
# Density = 2.195543 g / cm^3
# Si number density = 22.005517 Si / 1000 Ang^3
#
#
#
# Elastic Constant Matrix: (Units=GPa)
#
#
# Indices 1 2 3 4 5 6 
#
# 1 92.6532 23.8657 21.1031 5.9661 0.0000 0.0000
# 2 23.8657 92.6532 21.1031 -5.9661 0.0000 0.0000
# 3 21.1031 21.1031 82.7898 0.0000 0.0000 0.0000
# 4 5.9661 -5.9661 0.0000 31.0122 0.0000 0.0000
# 5 0.0000 0.0000 0.0000 0.0000 31.0122 5.9661
# 6 0.0000 0.0000 0.0000 0.0000 5.9661 34.3938
#
#
#
# Elastic Compliance Matrix: (Units=1/GPa)
#
#
# Indices 1 2 3 4 5 6 
#
# 1 0.012247 -0.002792 -0.002410 -0.002893 0.000000 0.000000
# 2 -0.002792 0.012247 -0.002410 0.002893 0.000000 0.000000
# 3 -0.002410 -0.002410 0.013307 0.000000 0.000000 0.000000
# 4 -0.002893 0.002893 0.000000 0.033359 0.000000 0.000000
# 5 0.000000 0.000000 0.000000 0.000000 0.033359 -0.005787
# 6 0.000000 0.000000 0.000000 0.000000 -0.005787 0.030079
#
#
# Mechanical properties :
#
#
# Convention : Reuss Voigt Hill
#
# Bulk Modulus (GPa) = 44.29188 44.47109 44.38148
# Shear Modulus (GPa) = 31.77660 32.75196 32.26428
#
# Velocity S-wave (km/s) = 3.80416 3.86210 3.83324
# Velocity P-wave (km/s) = 6.28226 6.33567 6.30902
#
# Compressibility (1/GPa) = 0.02257750
#
# Stress axis : x y z
#
# Youngs Moduli (GPa) = 81.65032 81.65032 75.14569
#
# Poissons Ratio (x) = 0.22797 0.18111
# Poissons Ratio (y) = 0.22797 0.18111
# Poissons Ratio (z) = 0.19679 0.19679
#
# Static dielectric constant tensor:
#      x y z
#    x 4.054150 0.000000 0.000000 
#    y 0.000000 4.054150 0.000000 
#    z 0.000000 0.000000 4.033650 
# 
# 
# High freq. dielectric constant tensor:
#      x y z
#    x 1.863150 0.000000 0.000000 
#    y 0.000000 1.863150 0.000000 
#    z 0.000000 0.000000 1.864000 
# 
# From -- ./inp_files/2053.got.cif
#   From: 2010.03.12/outbox.cif.g09.slc.cpg/sg152_2_cif.got.tgz:2053.got - 2010.04.03 13:45:27.
