data_PCOD8322262
_publ_section_title
;
Structure prediction by ZEFSAII (Michael W. Deem and Ramdas Pophale) SiO2 
 PCOD8322262
Probable space group: P 32 1 2
;
_chemical_formula_sum "Si O2"
_cell_formula_units_Z 39
_cell_length_a 9.311305
_cell_length_b 9.311305
_cell_length_c 24.951644
_cell_angle_alpha 90.000000
_cell_angle_beta 90.000000
_cell_angle_gamma 120.000000
_cell_volume 1873.487942
_symmetry_space_group_name_H-M "P 32 1 2"
_symmetry_group_IT_number 153
_symmetry_cell_setting 'hexagonal'
loop_
_space_group_symop_operation_xyz
x,y,z
-y,x-y,2/3+z
-x+y,-x,1/3+z
-y,-x,1/3-z
-x+y,y,2/3-z
x,x-y,-z
loop_
_atom_site_type_symbol
_atom_site_label
_atom_site_fract_x
_atom_site_fract_y
_atom_site_fract_z
Si Si1 0.933963 0.057220 0.882124
Si Si2 0.621518 0.110467 0.275037
Si Si3 0.359777 0.428836 0.810073
Si Si4 0.118901 0.201105 0.603471
Si Si5 0.793214 0.472382 0.230102
Si Si6 0.634465 0.667405 0.178894
Si Si7 0.833217 0.166783 0.666667
O O1 0.993418 0.986835 0.833334
O O2 0.033075 0.254336 0.880795
O O3 0.737323 0.992290 0.876495
O O4 0.986688 0.987613 0.932650
O O5 0.571378 0.142756 0.333334
O O6 0.693644 0.273797 0.237588
O O7 0.475891 0.958463 0.241383
O O8 0.758813 0.058981 0.287648
O O9 0.258686 0.517372 0.833334
O O10 0.469562 0.421733 0.858879
O O11 0.134309 0.311618 0.551262
O O12 0.022929 0.246462 0.647386
O O13 0.675344 0.532671 0.204119
O O14 0.850453 0.554925 0.287963
O O15 0.436302 0.563699 0.166667
#
# Coordination Sequence:
#
# PCOD8322262 Si02
#       7
#     6   6   6   6   6   6   3
#     4   8  16  34  59  89 113 155 207 247 291 371
#     4  12  26  40  58  96 132 164 208 269 323 374
#     4  10  21  38  67  93 123 168 210 259 313 389
#     4  10  23  37  60  84 123 162 201 260 310 376
#     4  10  20  39  64  90 123 163 211 255 310 384
#     4   9  17  34  62  90 116 152 203 254 306 371
#     4  10  20  40  64  90 116 166 214 258 320 364
#
# _framework density 20.816786
#
# number of rings (size 3 to 8) (size 9 to 14) (size 15 to 20)
#    0.000    2.154    0.769    5.077    4.308    4.308 
#    0.000    0.000    0.000    0.000    0.000    0.000 
#    0.000    0.000    0.000    0.000    0.000    0.000 
#
# Total GULP energy -483199.854516 kJ/mol
# GULP energy per Si atom -12389.739859 kJ/mol
# Density = 2.076941 g / cm^3
# Si number density = 20.816786 Si / 1000 Ang^3
#
#
#
# Elastic Constant Matrix: (Units=GPa)
#
#
# Indices 1 2 3 4 5 6 
#
# 1 87.3094 39.5710 19.7246 -0.0001 -1.8989 0.0000
# 2 39.5710 87.3094 19.7246 0.0001 1.8989 0.0000
# 3 19.7246 19.7246 75.7995 0.0000 0.0000 0.0000
# 4 -0.0001 0.0001 0.0000 18.2113 0.0000 1.8989
# 5 -1.8989 1.8989 0.0000 0.0000 18.2113 -0.0001
# 6 0.0000 0.0000 0.0000 1.8989 -0.0001 23.8692
#
#
#
# Elastic Compliance Matrix: (Units=1/GPa)
#
#
# Indices 1 2 3 4 5 6 
#
# 1 0.014849 -0.006274 -0.002231 0.000000 0.002202 0.000000
# 2 -0.006274 0.014849 -0.002231 0.000000 -0.002202 0.000000
# 3 -0.002231 -0.002231 0.014354 0.000000 0.000000 0.000000
# 4 0.000000 0.000000 0.000000 0.055370 0.000000 -0.004405
# 5 0.002202 -0.002202 0.000000 0.000000 0.055370 0.000000
# 6 0.000000 0.000000 0.000000 -0.004405 0.000000 0.042245
#
#
# Mechanical properties :
#
#
# Convention : Reuss Voigt Hill
#
# Bulk Modulus (GPa) = 44.28954 45.38430 44.83692
# Shear Modulus (GPa) = 22.12021 23.48489 22.80255
#
# Velocity S-wave (km/s) = 3.26331 3.36247 3.31326
# Velocity P-wave (km/s) = 5.95995 6.07652 6.01852
#
# Compressibility (1/GPa) = 0.02257870
#
# Stress axis : x y z
#
# Youngs Moduli (GPa) = 67.34477 67.34477 69.66676
#
# Poissons Ratio (x) = 0.42250 0.15546
# Poissons Ratio (y) = 0.42250 0.15546
# Poissons Ratio (z) = 0.15028 0.15028
#
# Static dielectric constant tensor:
#      x y z
#    x 3.725150 0.000000 0.000000 
#    y 0.000000 3.725150 0.000000 
#    z 0.000000 0.000000 3.736950 
# 
# 
# High freq. dielectric constant tensor:
#      x y z
#    x 1.804880 0.000000 0.000000 
#    y 0.000000 1.804880 0.000000 
#    z 0.000000 0.000000 1.803740 
# 
# From -- ./inp_files/5098.got.cif
#   From: 2010.03.12/outbox.cif.g09.slc.cpg/sg153_3_cif.got.tgz:5098.got - 2010.04.03 13:48:33.
