data_PCOD8322372
_publ_section_title
;
Structure prediction by ZEFSAII (Michael W. Deem and Ramdas Pophale) SiO2 
 PCOD8322372
Probable space group: P 32 2 1
;
_chemical_formula_sum "Si O2"
_cell_formula_units_Z 42
_cell_length_a 8.332846
_cell_length_b 8.332846
_cell_length_c 31.671738
_cell_angle_alpha 90.000000
_cell_angle_beta 90.000000
_cell_angle_gamma 120.000000
_cell_volume 1904.536232
_symmetry_space_group_name_H-M "P 32 2 1"
_symmetry_group_IT_number 154
_symmetry_cell_setting 'hexagonal'
loop_
_space_group_symop_operation_xyz
x,y,z
-y,x-y,2/3+z
-x+y,-x,1/3+z
x-y,-y,1/3-z
-x,-x+y,2/3-z
y,x,-z
loop_
_atom_site_type_symbol
_atom_site_label
_atom_site_fract_x
_atom_site_fract_y
_atom_site_fract_z
Si Si1 0.385006 0.354427 0.748060
Si Si2 0.205904 0.377603 0.826601
Si Si3 0.216483 0.285414 0.341079
Si Si4 0.598141 0.152742 0.630530
Si Si5 0.406069 0.936007 0.548861
Si Si6 0.293889 0.008649 0.394318
Si Si7 0.004542 0.193845 0.152206
O O1 0.283852 0.436603 0.778449
O O2 0.296342 0.322612 0.701880
O O3 0.373267 0.165453 0.762428
O O4 0.603494 0.497285 0.744455
O O5 0.326501 0.524407 0.862853
O O6 0.217545 0.193516 0.830088
O O7 0.000000 0.343370 0.833334
O O8 0.270058 0.491413 0.359782
O O9 0.000000 0.177585 0.333334
O O10 0.269060 0.161498 0.369775
O O11 0.823697 0.260725 0.631489
O O12 0.537963 0.000000 0.666667
O O13 0.549278 0.074915 0.582943
O O14 0.384004 0.037588 0.507023
O O15 0.167853 0.962726 0.435583
O O16 0.832116 0.000000 0.166667
#
# Coordination Sequence:
#
# PCOD8322372 Si02
#       7
#     6   6   6   6   6   6   6
#     4  11  25  44  63  97 140 167 221 286 338 401
#     4  10  22  39  67  95 127 176 223 276 333 406
#     4  11  25  45  67  97 132 178 229 276 331 421
#     4  11  23  43  69  93 130 181 224 274 339 411
#     4  11  20  43  66  92 133 170 222 278 334 406
#     4  12  25  42  67 101 130 177 224 279 350 414
#     4  10  21  38  67  95 124 166 222 282 334 400
#
# _framework density 22.052612
#
# number of rings (size 3 to 8) (size 9 to 14) (size 15 to 20)
#    0.000    1.143    5.714    1.286    6.000    1.143 
#    2.571    0.714    0.000    0.000    0.000    0.000 
#    0.000    0.000    0.000    0.000    0.000    0.000 
#
# Total GULP energy -520298.861301 kJ/mol
# GULP energy per Si atom -12388.068126 kJ/mol
# Density = 2.200242 g / cm^3
# Si number density = 22.052612 Si / 1000 Ang^3
#
#
#
# Elastic Constant Matrix: (Units=GPa)
#
#
# Indices 1 2 3 4 5 6 
#
# 1 70.5754 31.8491 37.7269 5.7491 -0.0001 0.0000
# 2 31.8491 70.5754 37.7269 -5.7491 0.0001 0.0000
# 3 37.7269 37.7269 138.7935 0.0000 0.0000 0.0000
# 4 5.7491 -5.7491 0.0000 15.2292 0.0000 0.0001
# 5 -0.0001 0.0001 0.0000 0.0000 15.2292 5.7491
# 6 0.0000 0.0000 0.0000 0.0001 5.7491 19.3632
#
#
#
# Elastic Compliance Matrix: (Units=1/GPa)
#
#
# Indices 1 2 3 4 5 6 
#
# 1 0.020645 -0.008437 -0.003318 -0.010979 0.000000 0.000000
# 2 -0.008437 0.020645 -0.003318 0.010979 0.000000 0.000000
# 3 -0.003318 -0.003318 0.009009 0.000000 0.000000 0.000000
# 4 -0.010979 0.010979 0.000000 0.073952 0.000000 -0.000001
# 5 0.000000 0.000000 0.000000 0.000000 0.073952 -0.021957
# 6 0.000000 0.000000 0.000000 -0.000001 -0.021957 0.058164
#
#
# Mechanical properties :
#
#
# Convention : Reuss Voigt Hill
#
# Bulk Modulus (GPa) = 49.62473 54.95001 52.28737
# Shear Modulus (GPa) = 17.05141 21.47376 19.26258
#
# Velocity S-wave (km/s) = 2.78369 3.12388 2.95868
# Velocity P-wave (km/s) = 5.73443 6.16306 5.95260
#
# Compressibility (1/GPa) = 0.02015124
#
# Stress axis : x y z
#
# Youngs Moduli (GPa) = 48.43827 48.43827 111.00095
#
# Poissons Ratio (x) = 0.40867 0.36834
# Poissons Ratio (y) = 0.40867 0.36834
# Poissons Ratio (z) = 0.16073 0.16073
#
# Static dielectric constant tensor:
#      x y z
#    x 4.015690 0.000000 0.000000 
#    y 0.000000 4.015690 0.000000 
#    z 0.000000 0.000000 4.384100 
# 
# 
# High freq. dielectric constant tensor:
#      x y z
#    x 1.854640 0.000000 0.000000 
#    y 0.000000 1.854640 0.000000 
#    z 0.000000 0.000000 1.887360 
# 
# From -- ./inp_files/3809.got.cif
#   From: 2010.03.12/outbox.cif.g09.slc.cpg/sg154_2_cif.got.tgz:3809.got - 2010.04.03 13:51:21.
