data_PCOD8322856
_publ_section_title
;
Structure prediction by ZEFSAII (Michael W. Deem and Ramdas Pophale) SiO2 
 PCOD8322856
Probable space group: R 3 M
;
_chemical_formula_sum "Si O2"
_cell_formula_units_Z 126
_cell_length_a 17.401755
_cell_length_b 17.401755
_cell_length_c 28.431692
_cell_angle_alpha 90.000000
_cell_angle_beta 90.000000
_cell_angle_gamma 120.000000
_cell_volume 7456.232424
_symmetry_space_group_name_H-M "R 3 M"
_symmetry_group_IT_number 160
_symmetry_cell_setting 'hexagonal'
loop_
_space_group_symop_operation_xyz
x,y,z
-y,x-y,z
-x+y,-x,z
-x+y,y,z
x,x-y,z
-y,-x,z
2/3+x,1/3+y,1/3+z
2/3-y,1/3+x-y,1/3+z
2/3-x+y,1/3-x,1/3+z
2/3-x+y,1/3+y,1/3+z
2/3+x,1/3+x-y,1/3+z
2/3-y,1/3-x,1/3+z
1/3+x,2/3+y,2/3+z
1/3-y,2/3+x-y,2/3+z
1/3-x+y,2/3-x,2/3+z
1/3-x+y,2/3+y,2/3+z
1/3+x,2/3+x-y,2/3+z
1/3-y,2/3-x,2/3+z
loop_
_atom_site_type_symbol
_atom_site_label
_atom_site_fract_x
_atom_site_fract_y
_atom_site_fract_z
Si Si1 0.936168 0.243485 0.979004
Si Si2 0.161988 0.495290 0.177874
Si Si3 0.512691 0.847258 0.362282
Si Si4 0.333912 0.836475 0.067162
Si Si5 0.570712 0.607148 0.452391
Si Si6 0.699793 0.938442 0.060126
Si Si7 0.092340 0.364457 0.539904
O O1 0.850881 0.149120 0.987009
O O2 0.974188 0.252130 0.926481
O O3 0.908045 0.317251 0.991645
O O4 0.009657 0.245768 0.014145
O O5 0.237596 0.475192 0.195300
O O6 0.190161 0.595081 0.193031
O O7 0.147059 0.483863 0.122494
O O8 0.071948 0.425220 0.202443
O O9 0.409802 0.819604 0.356127
O O10 0.523040 0.761520 0.354006
O O11 0.546448 0.885856 0.414540
O O12 0.430927 0.861853 0.047793
O O13 0.266639 0.733362 0.055816
O O14 0.301039 0.898550 0.044016
O O15 0.495067 0.504934 0.454641
O O16 0.662146 0.610116 0.437815
O O17 0.578048 0.649966 0.503417
O O18 0.719826 0.859913 0.074020
O O19 0.190558 0.381116 0.529824
#
# Coordination Sequence:
#
# PCOD8322856 Si02
#       7
#    18  18  18  18  18  18  18
#     4   9  20  35  48  68  98 130 164 203 243 280
#     4   9  16  26  42  67  99 131 159 187 224 274
#     4   9  17  30  48  71 100 133 165 194 227 274
#     4   9  16  26  43  69  99 128 157 191 231 278
#     4  10  20  33  51  75  98 122 156 200 248 291
#     4  10  19  32  51  71  93 126 165 205 244 287
#     4  10  19  32  50  71  99 132 162 194 236 286
#
# _framework density 16.898613999999998
#
# number of rings (size 3 to 8) (size 9 to 14) (size 15 to 20)
#    0.000    2.571    1.429    2.143    0.000    4.571 
#    0.000    0.000    0.000    4.286    0.000    0.000 
#    0.000    0.000    0.000    0.000    0.000    0.000 
#
# Total GULP energy -520631.264474 kJ/mol
# GULP energy per Si atom -12395.982487 kJ/mol
# Density = 1.686015 g / cm^3
# Si number density = 16.898614 Si / 1000 Ang^3
#
#
#
# Elastic Constant Matrix: (Units=GPa)
#
#
# Indices 1 2 3 4 5 6 
#
# 1 72.3487 34.9133 36.7467 0.9539 -0.0004 0.0000
# 2 34.9133 72.3487 36.7467 -0.9539 0.0004 0.0000
# 3 36.7467 36.7467 75.4139 0.0000 0.0000 0.0000
# 4 0.9539 -0.9539 0.0000 18.7536 0.0000 0.0004
# 5 -0.0004 0.0004 0.0000 0.0000 18.7536 0.9539
# 6 0.0000 0.0000 0.0000 0.0004 0.9539 18.7177
#
#
#
# Elastic Compliance Matrix: (Units=1/GPa)
#
#
# Indices 1 2 3 4 5 6 
#
# 1 0.020389 -0.006393 -0.006820 -0.001362 0.000001 0.000000
# 2 -0.006393 0.020389 -0.006820 0.001362 -0.000001 0.000000
# 3 -0.006820 -0.006820 0.019906 0.000000 0.000000 0.000000
# 4 -0.001362 0.001362 0.000000 0.053462 0.000000 -0.000001
# 5 0.000001 -0.000001 0.000000 0.000000 0.053462 -0.002725
# 6 0.000000 0.000000 0.000000 -0.000001 -0.002725 0.053564
#
#
# Mechanical properties :
#
#
# Convention : Reuss Voigt Hill
#
# Bulk Modulus (GPa) = 48.49922 48.54721 48.52322
# Shear Modulus (GPa) = 18.64913 18.69197 18.67055
#
# Velocity S-wave (km/s) = 3.32564 3.32945 3.32754
# Velocity P-wave (km/s) = 6.59613 6.60085 6.59849
#
# Compressibility (1/GPa) = 0.02061889
#
# Stress axis : x y z
#
# Youngs Moduli (GPa) = 49.04645 49.04645 50.23585
#
# Poissons Ratio (x) = 0.31357 0.34259
# Poissons Ratio (y) = 0.31357 0.34259
# Poissons Ratio (z) = 0.33448 0.33448
#
# Static dielectric constant tensor:
#      x y z
#    x 3.126000 0.000000 0.000000 
#    y 0.000000 3.126000 0.000000 
#    z 0.000000 0.000000 3.144190 
# 
# 
# High freq. dielectric constant tensor:
#      x y z
#    x 1.643080 0.000000 0.000000 
#    y 0.000000 1.643080 0.000000 
#    z 0.000000 0.000000 1.630890 
# 
# From -- ./inp_files/4147.got.cif
#   From: 2010.03.12/outbox.cif.g09.slc.cpg/sg160_3_cif.got.tgz:4147.got - 2010.04.02 06:26:15.
