data_PCOD8322825
_publ_section_title
;
Structure prediction by ZEFSAII (Michael W. Deem and Ramdas Pophale) SiO2 
 PCOD8322825
Probable space group: P 3 1 C
;
_chemical_formula_sum "Si O2"
_cell_formula_units_Z 34
_cell_length_a 14.348245
_cell_length_b 14.348245
_cell_length_c 8.477521
_cell_angle_alpha 90.000000
_cell_angle_beta 90.000000
_cell_angle_gamma 120.000000
_cell_volume 1511.461445
_symmetry_space_group_name_H-M "P 3 1 C"
_symmetry_group_IT_number 159
_symmetry_cell_setting 'hexagonal'
loop_
_space_group_symop_operation_xyz
x,y,z
-y,x-y,z
-x+y,-x,z
y,x,1/2+z
x-y,-y,1/2+z
-x,-x+y,1/2+z
loop_
_atom_site_type_symbol
_atom_site_label
_atom_site_fract_x
_atom_site_fract_y
_atom_site_fract_z
Si Si1 0.666667 0.333333 0.703416
Si Si2 0.494490 0.491600 0.978827
Si Si3 0.090818 0.860799 0.130454
Si Si4 0.860552 0.768531 0.262831
Si Si5 0.666667 0.333335 0.330413
Si Si6 0.545448 0.868285 0.231917
Si Si7 0.870571 0.333915 0.230031
O O1 0.666668 0.333334 0.516474
O O2 0.748285 0.451235 0.770872
O O3 0.402557 0.491995 0.083495
O O4 0.593669 0.498184 0.074023
O O5 0.435359 0.380803 0.880421
O O6 0.544769 0.597424 0.872426
O O7 0.140026 0.789608 0.194171
O O8 0.963508 0.797365 0.156313
O O9 0.143632 0.968772 0.232679
O O10 0.115309 0.884285 0.946712
O O11 0.769967 0.652096 0.203385
O O12 0.746530 0.293618 0.267073
#
# Coordination Sequence:
#
# PCOD8322825 Si02
#       7
#     2   6   6   6   2   6   6
#     4  12  24  43  68 103 147 184 239 298 363 430
#     4  10  24  44  70 102 142 188 244 290 362 434
#     4  12  27  48  76 108 147 196 252 311 372 438
#     4  12  27  48  76 108 147 196 252 311 372 438
#     4  12  24  43  68 103 147 184 239 298 363 430
#     4  11  25  45  71 104 143 192 238 304 362 438
#     4  11  25  45  71 104 143 192 238 304 362 438
#
# _framework density 22.494786000000001
#
# number of rings (size 3 to 8) (size 9 to 14) (size 15 to 20)
#    0.000    0.706    1.765    4.588    9.882    1.412 
#    0.000    0.000    0.000    0.000    0.000    0.000 
#    0.000    0.000    0.000    0.000    0.000    0.000 
#
# Total GULP energy -421910.498083 kJ/mol
# GULP energy per Si atom -12409.132297 kJ/mol
# Density = 2.244359 g / cm^3
# Si number density = 22.494786 Si / 1000 Ang^3
#
#
#
# Elastic Constant Matrix: (Units=GPa)
#
#
# Indices 1 2 3 4 5 6 
#
# 1 105.6741 4.1741 8.9083 -0.0002 -3.3655 -0.0001
# 2 4.1741 105.6735 8.9084 -0.0002 3.3653 -0.0003
# 3 8.9083 8.9084 80.4309 0.0002 0.0001 0.0001
# 4 -0.0002 -0.0002 0.0002 16.5749 -0.0002 3.3655
# 5 -3.3655 3.3653 0.0001 -0.0002 16.5751 0.0000
# 6 -0.0001 -0.0003 0.0001 3.3655 0.0000 50.7497
#
#
#
# Elastic Compliance Matrix: (Units=1/GPa)
#
#
# Indices 1 2 3 4 5 6 
#
# 1 0.009628 -0.000358 -0.001027 0.000000 0.002028 0.000000
# 2 -0.000358 0.009628 -0.001027 0.000000 -0.002028 0.000000
# 3 -0.001027 -0.001027 0.012660 0.000000 0.000000 0.000000
# 4 0.000000 0.000000 0.000000 0.061155 0.000001 -0.004056
# 5 0.002028 -0.002028 0.000000 0.000001 0.061155 0.000000
# 6 0.000000 0.000000 0.000000 -0.004056 0.000000 0.019973
#
#
# Mechanical properties :
#
#
# Convention : Reuss Voigt Hill
#
# Bulk Modulus (GPa) = 36.90907 37.30668 37.10787
# Shear Modulus (GPa) = 26.58786 34.76580 30.67683
#
# Velocity S-wave (km/s) = 3.44169 3.93556 3.69688
# Velocity P-wave (km/s) = 5.67777 6.10508 5.89530
#
# Compressibility (1/GPa) = 0.02709361
#
# Stress axis : x y z
#
# Youngs Moduli (GPa) = 103.85996 103.85954 78.98598
#
# Poissons Ratio (x) = 0.03722 0.08110
# Poissons Ratio (y) = 0.03722 0.08110
# Poissons Ratio (z) = 0.10664 0.10664
#
# Static dielectric constant tensor:
#      x y z
#    x 4.205630 0.000010 0.000000 
#    y 0.000010 4.205640 0.000000 
#    z 0.000000 0.000000 4.113030 
# 
# 
# High freq. dielectric constant tensor:
#      x y z
#    x 1.898500 0.000000 0.000000 
#    y 0.000000 1.898500 0.000000 
#    z 0.000000 0.000000 1.894790 
# 
# From -- ./inp_files/401.got.cif
#   From: 2010.03.12/outbox.cif.g09.slc.cpg/sg159_cif.got.tgz:401.got - 2010.04.03 14:00:19.
