data_PCOD8322304
_publ_section_title
;
Structure prediction by ZEFSAII (Michael W. Deem and Ramdas Pophale) SiO2 
 PCOD8322304
Probable space group: P 32 2 1
;
_chemical_formula_sum "Si O2"
_cell_formula_units_Z 39
_cell_length_a 14.602102
_cell_length_b 14.602102
_cell_length_c 11.705197
_cell_angle_alpha 90.000000
_cell_angle_beta 90.000000
_cell_angle_gamma 120.000000
_cell_volume 2161.424722
_symmetry_space_group_name_H-M "P 32 2 1"
_symmetry_group_IT_number 154
_symmetry_cell_setting 'hexagonal'
loop_
_space_group_symop_operation_xyz
x,y,z
-y,x-y,2/3+z
-x+y,-x,1/3+z
x-y,-y,1/3-z
-x,-x+y,2/3-z
y,x,-z
loop_
_atom_site_type_symbol
_atom_site_label
_atom_site_fract_x
_atom_site_fract_y
_atom_site_fract_z
Si Si1 0.603842 0.767662 0.215549
Si Si2 0.491822 0.744590 0.647630
Si Si3 0.540337 0.998593 0.968924
Si Si4 0.099232 0.525881 0.409985
Si Si5 0.028499 0.353168 0.961417
Si Si6 0.310924 0.537039 0.737784
Si Si7 0.326317 0.326317 0.500000
O O1 0.546742 0.700356 0.100271
O O2 0.678407 0.729429 0.278001
O O3 0.503918 0.738270 0.296387
O O4 0.679598 0.894372 0.195961
O O5 0.476835 0.844061 0.670227
O O6 0.609922 0.760348 0.666651
O O7 0.403931 0.656200 0.726921
O O8 0.468775 0.711839 0.514442
O O9 0.637311 0.100979 0.911160
O O10 0.480100 0.917665 0.867557
O O11 0.462051 0.026302 0.037074
O O12 0.590603 0.955942 0.061986
O O13 0.000000 0.449546 0.333334
O O14 0.000000 0.303335 0.833334
#
# Coordination Sequence:
#
# PCOD8322304 Si02
#       7
#     6   6   6   6   6   6   3
#     4  10  22  36  56  81 112 151 197 248 285 345
#     4  11  21  32  51  78 116 155 189 228 288 357
#     4   9  19  34  53  74 110 148 186 233 278 344
#     4  11  22  36  52  82 124 148 184 235 297 354
#     4  10  18  33  54  78 110 149 195 240 282 339
#     4  10  19  32  50  76 106 151 192 225 273 340
#     4  10  20  38  60  80 110 154 206 236 292 344
#
# _framework density 18.043652999999999
#
# number of rings (size 3 to 8) (size 9 to 14) (size 15 to 20)
#    0.000    1.846    3.846    0.923    0.000    3.692 
#    0.000    0.000    0.000    0.000    0.000    1.077 
#    0.000    0.000    0.000    0.000    0.000    0.000 
#
# Total GULP energy -483165.025945 kJ/mol
# GULP energy per Si atom -12388.846819 kJ/mol
# Density = 1.800258 g / cm^3
# Si number density = 18.043653 Si / 1000 Ang^3
#
#
#
# Elastic Constant Matrix: (Units=GPa)
#
#
# Indices 1 2 3 4 5 6 
#
# 1 80.5681 37.1777 29.4068 0.5602 0.0000 0.0000
# 2 37.1777 80.5681 29.4068 -0.5602 0.0000 0.0000
# 3 29.4068 29.4068 74.8232 0.0000 0.0000 0.0000
# 4 0.5602 -0.5602 0.0000 23.6311 0.0000 0.0000
# 5 0.0000 0.0000 0.0000 0.0000 23.6311 0.5602
# 6 0.0000 0.0000 0.0000 0.0000 0.5602 21.6952
#
#
#
# Elastic Compliance Matrix: (Units=1/GPa)
#
#
# Indices 1 2 3 4 5 6 
#
# 1 0.016814 -0.006247 -0.004153 -0.000547 0.000000 0.000000
# 2 -0.006247 0.016814 -0.004153 0.000547 0.000000 0.000000
# 3 -0.004153 -0.004153 0.016629 0.000000 0.000000 0.000000
# 4 -0.000547 0.000547 0.000000 0.042343 0.000000 0.000000
# 5 0.000000 0.000000 0.000000 0.000000 0.042343 -0.001093
# 6 0.000000 0.000000 0.000000 0.000000 -0.001093 0.046121
#
#
# Mechanical properties :
#
#
# Convention : Reuss Voigt Hill
#
# Bulk Modulus (GPa) = 47.27808 47.54914 47.41361
# Shear Modulus (GPa) = 23.01799 23.12268 23.07033
#
# Velocity S-wave (km/s) = 3.57555 3.58367 3.57961
# Velocity P-wave (km/s) = 6.58065 6.59796 6.58931
#
# Compressibility (1/GPa) = 0.02115145
#
# Stress axis : x y z
#
# Youngs Moduli (GPa) = 59.47417 59.47417 60.13459
#
# Poissons Ratio (x) = 0.37152 0.24975
# Poissons Ratio (y) = 0.37152 0.24975
# Poissons Ratio (z) = 0.24701 0.24701
#
# Static dielectric constant tensor:
#      x y z
#    x 3.287990 0.000000 0.000000 
#    y 0.000000 3.287990 0.000000 
#    z 0.000000 0.000000 3.447270 
# 
# 
# High freq. dielectric constant tensor:
#      x y z
#    x 1.674730 0.000000 0.000000 
#    y 0.000000 1.674730 0.000000 
#    z 0.000000 0.000000 1.709520 
# 
# From -- ./inp_files/1671.got.cif
#   From: 2010.03.12/outbox.cif.g09.slc.cpg/sg154_1_cif.got.tgz:1671.got - 2010.04.03 13:51:21.
