data_PCOD8322172
_publ_section_title
;
Structure prediction by ZEFSAII (Michael W. Deem and Ramdas Pophale) SiO2 
 PCOD8322172
Probable space group: P 31 2 1
;
_chemical_formula_sum "Si O2"
_cell_formula_units_Z 42
_cell_length_a 21.159414
_cell_length_b 21.159414
_cell_length_c 5.307974
_cell_angle_alpha 90.000000
_cell_angle_beta 90.000000
_cell_angle_gamma 120.000000
_cell_volume 2058.101032
_symmetry_space_group_name_H-M "P 31 2 1"
_symmetry_group_IT_number 152
_symmetry_cell_setting 'hexagonal'
loop_
_space_group_symop_operation_xyz
x,y,z
-y,x-y,1/3+z
-x+y,-x,2/3+z
x-y,-y,2/3-z
-x,-x+y,1/3-z
y,x,-z
loop_
_atom_site_type_symbol
_atom_site_label
_atom_site_fract_x
_atom_site_fract_y
_atom_site_fract_z
Si Si1 0.498399 0.383623 0.515745
Si Si2 0.715093 0.671278 0.739253
Si Si3 0.070685 0.480876 0.834451
Si Si4 0.371606 0.202412 0.994007
Si Si5 0.197304 0.585100 0.516678
Si Si6 0.282435 0.534880 0.162858
Si Si7 0.080129 0.736371 0.170455
O O1 0.530247 0.461523 0.644976
O O2 0.531249 0.397548 0.235419
O O3 0.525739 0.331057 0.628996
O O4 0.412089 0.344562 0.536056
O O5 0.719507 0.719507 0.500000
O O6 0.651022 0.589022 0.685180
O O7 0.790994 0.672509 0.742549
O O8 0.703430 0.703430 0.000000
O O9 0.151026 0.516432 0.701278
O O10 0.000000 0.455199 0.666667
O O11 0.458452 0.233043 0.981644
O O12 0.341339 0.211599 0.723282
O O13 0.352870 0.240416 0.218358
O O14 0.230218 0.561060 0.288247
O O15 0.259838 0.660443 0.643170
O O16 0.000000 0.728519 0.166667
#
# Coordination Sequence:
#
# PCOD8322172 Si02
#       7
#     6   6   6   6   6   6   6
#     4  10  23  37  55  82 115 153 203 273 328 379
#     4  11  25  42  65  95 124 167 212 256 320 385
#     4  10  25  36  60  87 115 153 211 269 334 386
#     4  11  23  44  66  92 130 166 206 266 317 381
#     4  11  23  42  57  84 110 161 214 278 335 395
#     4  10  24  39  60  79 116 160 216 273 344 383
#     4  11  24  40  68  94 126 166 211 254 319 383
#
# _framework density 20.407159
#
# number of rings (size 3 to 8) (size 9 to 14) (size 15 to 20)
#    0.000    1.429    1.429    2.143   14.000    3.429 
#    0.000    1.429    0.000    0.000    0.000    0.000 
#    0.000    0.000    0.000   54.000    0.000    0.000 
#
# Total GULP energy -520622.435131 kJ/mol
# GULP energy per Si atom -12395.772265 kJ/mol
# Density = 2.036071 g / cm^3
# Si number density = 20.407159 Si / 1000 Ang^3
#
#
#
# Elastic Constant Matrix: (Units=GPa)
#
#
# Indices 1 2 3 4 5 6 
#
# 1 78.2142 33.8014 24.6737 0.9051 -0.0001 0.0000
# 2 33.8014 78.2142 24.6737 -0.9051 0.0001 0.0000
# 3 24.6737 24.6737 95.0077 0.0000 0.0000 0.0000
# 4 0.9051 -0.9051 0.0000 28.6270 0.0000 0.0001
# 5 -0.0001 0.0001 0.0000 0.0000 28.6270 0.9051
# 6 0.0000 0.0000 0.0000 0.0001 0.9051 22.2064
#
#
#
# Elastic Compliance Matrix: (Units=1/GPa)
#
#
# Indices 1 2 3 4 5 6 
#
# 1 0.016313 -0.006232 -0.002618 -0.000713 0.000000 0.000000
# 2 -0.006232 0.016313 -0.002618 0.000713 0.000000 0.000000
# 3 -0.002618 -0.002618 0.011885 0.000000 0.000000 0.000000
# 4 -0.000713 0.000713 0.000000 0.034977 0.000000 0.000000
# 5 0.000000 0.000000 0.000000 0.000000 0.034977 -0.001426
# 6 0.000000 0.000000 0.000000 0.000000 -0.001426 0.045090
#
#
# Mechanical properties :
#
#
# Convention : Reuss Voigt Hill
#
# Bulk Modulus (GPa) = 46.35064 46.41486 46.38275
# Shear Modulus (GPa) = 26.35975 27.11126 26.73551
#
# Velocity S-wave (km/s) = 3.59791 3.64884 3.62346
# Velocity P-wave (km/s) = 6.32631 6.36756 6.34697
#
# Compressibility (1/GPa) = 0.02157468
#
# Stress axis : x y z
#
# Youngs Moduli (GPa) = 61.30135 61.30135 84.13799
#
# Poissons Ratio (x) = 0.38204 0.22027
# Poissons Ratio (y) = 0.38204 0.22027
# Poissons Ratio (z) = 0.16048 0.16048
#
# Static dielectric constant tensor:
#      x y z
#    x 3.608580 0.000000 0.000000 
#    y 0.000000 3.608580 0.000000 
#    z 0.000000 0.000000 3.838250 
# 
# 
# High freq. dielectric constant tensor:
#      x y z
#    x 1.777230 0.000000 0.000000 
#    y 0.000000 1.777230 0.000000 
#    z 0.000000 0.000000 1.812260 
# 
# From -- ./inp_files/517.got.cif
#   From: 2010.03.12/outbox.cif.g09.slc.cpg/sg152_1_cif.got.tgz:517.got - 2010.04.03 13:45:27.
