data_PCOD8322684
_publ_section_title
;
Structure prediction by ZEFSAII (Michael W. Deem and Ramdas Pophale) SiO2 
 PCOD8322684
Probable space group: P 3 M 1
;
_chemical_formula_sum "Si O2"
_cell_formula_units_Z 48
_cell_length_a 12.559868
_cell_length_b 12.559868
_cell_length_c 20.301540
_cell_angle_alpha 90.000000
_cell_angle_beta 90.000000
_cell_angle_gamma 120.000000
_cell_volume 2773.510185
_symmetry_space_group_name_H-M "P 3 M 1"
_symmetry_group_IT_number 156
_symmetry_cell_setting 'hexagonal'
loop_
_space_group_symop_operation_xyz
x,y,z
-y,x-y,z
-x+y,-x,z
-x+y,y,z
x,x-y,z
-y,-x,z
loop_
_atom_site_type_symbol
_atom_site_label
_atom_site_fract_x
_atom_site_fract_y
_atom_site_fract_z
Si Si1 0.247334 0.001214 0.285210
Si Si2 0.421861 0.333347 0.551689
Si Si3 0.911474 0.578154 0.401880
Si Si4 0.334547 0.420546 0.668359
Si Si5 0.582536 0.666822 0.038875
Si Si6 0.667078 0.084840 0.162134
Si Si7 0.418172 0.084426 0.791434
Si Si8 0.249048 0.249205 0.914692
O O1 0.130866 0.869134 0.273565
O O2 0.204785 0.102393 0.282820
O O3 0.307227 0.002847 0.355542
O O4 0.346664 0.026105 0.229406
O O5 0.406336 0.203168 0.571723
O O6 0.564636 0.435365 0.561219
O O7 0.379820 0.333334 0.476785
O O8 0.336184 0.362290 0.598028
O O9 0.768700 0.537399 0.392350
O O10 0.926996 0.463498 0.381845
O O11 0.202468 0.404935 0.680001
O O12 0.435726 0.564274 0.670752
O O13 0.359432 0.346105 0.724164
O O14 0.561407 0.780704 0.048254
O O15 0.452272 0.547729 0.026791
O O16 0.649061 0.656354 0.103502
O O17 0.666676 0.682187 0.976788
O O18 0.553920 0.107840 0.169427
O O19 0.786432 0.213569 0.146279
O O20 0.546908 0.093816 0.807283
O O21 0.441157 0.220579 0.784143
O O22 0.326053 0.010306 0.850071
O O23 0.237869 0.118935 0.926767
O O24 0.114042 0.228084 0.905310
#
# Coordination Sequence:
#
# PCOD8322684 Si02
#       8
#     6   6   6   6   6   6   6   6
#     4  10  20  33  49  69  95 128 164 200 238 283
#     4   9  17  30  50  75 100 126 158 199 246 292
#     4   9  17  30  50  75 100 126 158 199 246 292
#     4  10  20  33  49  69  95 128 164 200 238 283
#     4  10  20  34  52  74 101 133 168 204 243 288
#     4  10  20  34  53  76 100 126 158 199 247 295
#     4  10  20  34  53  76 100 126 158 199 247 295
#     4  10  20  34  52  74 101 133 168 204 243 288
#
# _framework density 17.30659
#
# number of rings (size 3 to 8) (size 9 to 14) (size 15 to 20)
#    0.000    2.250    0.000    3.250    0.000    1.500 
#    0.000    2.500    0.000   17.500    0.000    0.000 
#    0.000    0.000    0.000    0.000    0.000    0.000 
#
# Total GULP energy -595367.116969 kJ/mol
# GULP energy per Si atom -12403.481604 kJ/mol
# Density = 1.726720 g / cm^3
# Si number density = 17.306590 Si / 1000 Ang^3
#
#
#
# Elastic Constant Matrix: (Units=GPa)
#
#
# Indices 1 2 3 4 5 6 
#
# 1 87.8357 51.9096 54.5430 4.6223 0.0001 0.0000
# 2 51.9096 87.8357 54.5430 -4.6223 -0.0001 0.0000
# 3 54.5430 54.5430 109.6472 0.0000 0.0000 0.0000
# 4 4.6223 -4.6223 0.0000 24.8616 0.0000 -0.0001
# 5 0.0001 -0.0001 0.0000 0.0000 24.8616 4.6223
# 6 0.0000 0.0000 0.0000 -0.0001 4.6223 17.9631
#
#
#
# Elastic Compliance Matrix: (Units=1/GPa)
#
#
# Indices 1 2 3 4 5 6 
#
# 1 0.020466 -0.008768 -0.005819 -0.005435 0.000000 0.000000
# 2 -0.008768 0.020466 -0.005819 0.005435 0.000000 0.000000
# 3 -0.005819 -0.005819 0.014910 0.000000 0.000000 0.000000
# 4 -0.005435 0.005435 0.000000 0.042244 0.000000 0.000000
# 5 0.000000 0.000000 0.000000 0.000000 0.042244 -0.010870
# 6 0.000000 0.000000 0.000000 0.000000 -0.010870 0.058467
#
#
# Mechanical properties :
#
#
# Convention : Reuss Voigt Hill
#
# Bulk Modulus (GPa) = 66.53621 67.47886 67.00753
# Shear Modulus (GPa) = 20.44005 21.82546 21.13275
#
# Velocity S-wave (km/s) = 3.44038 3.55506 3.49819
# Velocity P-wave (km/s) = 7.36958 7.47838 7.42418
#
# Compressibility (1/GPa) = 0.01502941
#
# Stress axis : x y z
#
# Youngs Moduli (GPa) = 48.86164 48.86164 67.07071
#
# Poissons Ratio (x) = 0.42840 0.39030
# Poissons Ratio (y) = 0.42840 0.39030
# Poissons Ratio (z) = 0.28434 0.28434
#
# Static dielectric constant tensor:
#      x y z
#    x 3.142600 0.000000 0.000000 
#    y 0.000000 3.142600 0.000000 
#    z 0.000000 0.000000 3.427000 
# 
# 
# High freq. dielectric constant tensor:
#      x y z
#    x 1.667960 0.000000 0.000000 
#    y 0.000000 1.667960 0.000000 
#    z 0.000000 0.000000 1.684250 
# 
# From -- ./inp_files/1078.got.cif
#   From: 2010.03.12/outbox.cif.g09.slc.cpg/sg156_cif.got.tgz:1078.got - 2010.04.03 13:58:47.
