data_PCOD8322648
_publ_section_title
;
Structure prediction by ZEFSAII (Michael W. Deem and Ramdas Pophale) SiO2 
 PCOD8322648
Probable space group: P 3 M 1
;
_chemical_formula_sum "Si O2"
_cell_formula_units_Z 36
_cell_length_a 21.508422
_cell_length_b 21.508422
_cell_length_c 5.187728
_cell_angle_alpha 90.000000
_cell_angle_beta 90.000000
_cell_angle_gamma 120.000000
_cell_volume 2078.379867
_symmetry_space_group_name_H-M "P 3 M 1"
_symmetry_group_IT_number 156
_symmetry_cell_setting 'hexagonal'
loop_
_space_group_symop_operation_xyz
x,y,z
-y,x-y,z
-x+y,-x,z
-x+y,y,z
x,x-y,z
-y,-x,z
loop_
_atom_site_type_symbol
_atom_site_label
_atom_site_fract_x
_atom_site_fract_y
_atom_site_fract_z
Si Si1 0.171059 0.479558 0.395510
Si Si2 0.857562 0.288639 0.895510
Si Si3 0.302103 0.312355 0.895510
Si Si4 0.690089 0.914784 0.395510
Si Si5 0.097246 0.481260 0.895510
Si Si6 0.519371 0.186195 0.395510
O O1 0.256855 0.513710 0.395510
O O2 0.134062 0.394459 0.395510
O O3 0.148378 0.505189 0.648254
O O4 0.148378 0.505189 0.142766
O O5 0.789719 0.210282 0.895510
O O6 0.857733 0.332426 0.146555
O O7 0.924895 0.276000 0.895510
O O8 0.857733 0.332426 0.644465
O O9 0.250123 0.285441 0.142788
O O10 0.250123 0.285441 0.648232
O O11 0.357929 0.397518 0.895510
O O12 0.724013 0.862007 0.395510
O O13 0.057399 0.528700 0.895510
O O14 0.595457 0.190914 0.395510
O O15 0.533655 0.266828 0.395510
#
# Coordination Sequence:
#
# PCOD8322648 Si02
#       6
#     6   6   6   6   6   6
#     4   9  17  30  46  60  79 109 140 173 220 276
#     4  10  21  35  50  71 100 135 168 200 255 325
#     4  10  19  32  48  70  98 127 156 191 238 289
#     4   9  17  30  50  73  92 115 149 186 228 275
#     4  10  19  29  44  65  86 110 146 191 233 272
#     4  10  20  34  51  69  91 126 178 233 274 307
#
# _framework density 17.321183999999999
#
# number of rings (size 3 to 8) (size 9 to 14) (size 15 to 20)
#    0.000    2.333    0.000    3.167    0.000    5.333 
#    0.000    1.667    0.000    6.667    0.000    0.000 
#    0.000    0.000    0.000   10.000    0.000    0.000 
#
# Total GULP energy -446363.817892 kJ/mol
# GULP energy per Si atom -12398.994941 kJ/mol
# Density = 1.728176 g / cm^3
# Si number density = 17.321184 Si / 1000 Ang^3
#
#
#
# Elastic Constant Matrix: (Units=GPa)
#
#
# Indices 1 2 3 4 5 6 
#
# 1 56.8598 21.3237 35.0004 0.0000 0.0000 0.0000
# 2 21.3237 56.8598 35.0004 0.0000 0.0000 0.0000
# 3 35.0004 35.0004 168.7986 0.0000 0.0000 0.0000
# 4 0.0000 0.0000 0.0000 11.9750 0.0000 0.0000
# 5 0.0000 0.0000 0.0000 0.0000 11.9750 0.0000
# 6 0.0000 0.0000 0.0000 0.0000 0.0000 17.7680
#
#
#
# Elastic Compliance Matrix: (Units=1/GPa)
#
#
# Indices 1 2 3 4 5 6 
#
# 1 0.021923 -0.006217 -0.003257 0.000000 0.000000 0.000000
# 2 -0.006217 0.021923 -0.003257 0.000000 0.000000 0.000000
# 3 -0.003257 -0.003257 0.007275 0.000000 0.000000 0.000000
# 4 0.000000 0.000000 0.000000 0.083507 0.000000 0.000000
# 5 0.000000 0.000000 0.000000 0.000000 0.083507 0.000000
# 6 0.000000 0.000000 0.000000 0.000000 0.000000 0.056281
#
#
# Mechanical properties :
#
#
# Convention : Reuss Voigt Hill
#
# Bulk Modulus (GPa) = 38.97036 51.68527 45.32781
# Shear Modulus (GPa) = 16.21107 21.08985 18.65046
#
# Velocity S-wave (km/s) = 3.06258 3.49316 3.28494
# Velocity P-wave (km/s) = 5.92059 6.79512 6.37288
#
# Compressibility (1/GPa) = 0.02566053
#
# Stress axis : x y z
#
# Youngs Moduli (GPa) = 45.61347 45.61347 137.46126
#
# Poissons Ratio (x) = 0.28358 0.44767
# Poissons Ratio (y) = 0.28358 0.44767
# Poissons Ratio (z) = 0.14855 0.14855
#
# Static dielectric constant tensor:
#      x y z
#    x 2.995850 0.000000 0.000000 
#    y 0.000000 2.995850 0.000000 
#    z 0.000000 0.000000 3.658180 
# 
# 
# High freq. dielectric constant tensor:
#      x y z
#    x 1.640860 0.000000 0.000000 
#    y 0.000000 1.640860 0.000000 
#    z 0.000000 0.000000 1.694490 
# 
# From -- ./inp_files/160.got.cif
#   From: 2010.03.12/outbox.cif.g09.slc.cpg/sg156_cif.got.tgz:160.got - 2010.04.03 13:58:47.
