data_PCOD8322644
_publ_section_title
;
Structure prediction by ZEFSAII (Michael W. Deem and Ramdas Pophale) SiO2 
 PCOD8322644
Probable space group: P 3 M 1
;
_chemical_formula_sum "Si O2"
_cell_formula_units_Z 48
_cell_length_a 22.681796
_cell_length_b 22.681796
_cell_length_c 6.955388
_cell_angle_alpha 90.000000
_cell_angle_beta 90.000000
_cell_angle_gamma 120.000000
_cell_volume 3098.895088
_symmetry_space_group_name_H-M "P 3 M 1"
_symmetry_group_IT_number 156
_symmetry_cell_setting 'hexagonal'
loop_
_space_group_symop_operation_xyz
x,y,z
-y,x-y,z
-x+y,-x,z
-x+y,y,z
x,x-y,z
-y,-x,z
loop_
_atom_site_type_symbol
_atom_site_label
_atom_site_fract_x
_atom_site_fract_y
_atom_site_fract_z
Si Si1 0.607417 0.527758 0.511720
Si Si2 0.209457 0.286090 0.520544
Si Si3 0.590867 0.862150 0.246632
Si Si4 0.695449 0.617974 0.838494
Si Si5 0.862150 0.590868 0.246630
Si Si6 0.077472 0.382025 0.838497
Si Si7 0.527759 0.607416 0.511722
Si Si8 0.790543 0.076633 0.520540
O O1 0.550822 0.449179 0.532046
O O2 0.649316 0.551429 0.709916
O O3 0.656883 0.535107 0.336334
O O4 0.574711 0.574710 0.464844
O O5 0.128497 0.256994 0.516889
O O6 0.246634 0.335522 0.340809
O O7 0.240074 0.327565 0.716797
O O8 0.222682 0.222681 0.506589
O O9 0.567512 0.783756 0.289509
O O10 0.535107 0.878225 0.336339
O O11 0.595020 0.873058 0.019228
O O12 0.650639 0.650638 0.910119
O O13 0.759928 0.672435 0.716793
O O14 0.721965 0.595019 0.019225
O O15 0.783758 0.567515 0.289522
O O16 0.911115 0.664479 0.340806
O O17 0.097884 0.448570 0.709920
O O18 0.449180 0.550821 0.532048
O O19 0.871504 0.128497 0.516877
#
# Coordination Sequence:
#
# PCOD8322644 Si02
#       8
#     6   6   6   6   6   6   6   6
#     4   9  18  31  46  66  90 114 141 173 212 257
#     4   9  17  28  42  62  88 116 145 177 214 255
#     4  10  18  28  45  67  89 113 141 174 213 256
#     4   9  16  27  43  64  89 114 141 175 215 256
#     4  10  18  28  45  67  89 113 141 174 213 256
#     4   9  16  27  43  64  89 114 141 175 215 256
#     4   9  18  31  46  66  90 114 141 173 212 257
#     4   9  17  28  42  62  88 116 145 177 214 255
#
# _framework density 15.489390999999999
#
# number of rings (size 3 to 8) (size 9 to 14) (size 15 to 20)
#    0.000    2.750    0.000    4.500    0.000    2.000 
#    0.000    2.500    0.000    0.750    0.000    1.750 
#    0.000    0.000    0.000    8.000    0.000    0.000 
#
# Total GULP energy -595233.154387 kJ/mol
# GULP energy per Si atom -12400.690716 kJ/mol
# Density = 1.545414 g / cm^3
# Si number density = 15.489391 Si / 1000 Ang^3
#
#
#
# Elastic Constant Matrix: (Units=GPa)
#
#
# Indices 1 2 3 4 5 6 
#
# 1 90.2131 48.3690 33.5092 -0.0002 0.0001 0.0000
# 2 48.3690 90.2131 33.5092 0.0002 -0.0001 0.0000
# 3 33.5092 33.5092 91.8948 0.0000 0.0000 0.0000
# 4 -0.0002 0.0002 0.0000 16.5698 0.0000 -0.0001
# 5 0.0001 -0.0001 0.0000 0.0000 16.5698 -0.0002
# 6 0.0000 0.0000 0.0000 -0.0001 -0.0002 20.9221
#
#
#
# Elastic Compliance Matrix: (Units=1/GPa)
#
#
# Indices 1 2 3 4 5 6 
#
# 1 0.016330 -0.007569 -0.003195 0.000000 0.000000 0.000000
# 2 -0.007569 0.016330 -0.003195 0.000000 0.000000 0.000000
# 3 -0.003195 -0.003195 0.013212 0.000000 0.000000 0.000000
# 4 0.000000 0.000000 0.000000 0.060351 0.000000 0.000000
# 5 0.000000 0.000000 0.000000 0.000000 0.060351 0.000000
# 6 0.000000 0.000000 0.000000 0.000000 0.000000 0.047796
#
#
# Mechanical properties :
#
#
# Convention : Reuss Voigt Hill
#
# Bulk Modulus (GPa) = 55.69462 55.89953 55.79707
# Shear Modulus (GPa) = 20.13940 21.27459 20.70699
#
# Velocity S-wave (km/s) = 3.60975 3.71009 3.66026
# Velocity P-wave (km/s) = 7.30810 7.38378 7.34604
#
# Compressibility (1/GPa) = 0.01795506
#
# Stress axis : x y z
#
# Youngs Moduli (GPa) = 61.23877 61.23877 75.68972
#
# Poissons Ratio (x) = 0.46350 0.24180
# Poissons Ratio (y) = 0.46350 0.24180
# Poissons Ratio (z) = 0.19563 0.19563
#
# Static dielectric constant tensor:
#      x y z
#    x 2.866720 0.000000 0.000000 
#    y 0.000000 2.866720 0.000000 
#    z 0.000000 0.000000 2.928520 
# 
# 
# High freq. dielectric constant tensor:
#      x y z
#    x 1.574110 0.000000 0.000000 
#    y 0.000000 1.574110 0.000000 
#    z 0.000000 0.000000 1.600150 
# 
# From -- ./inp_files/262.got.cif
#   From: 2010.03.12/outbox.cif.g09.slc.cpg/sg156_cif.got.tgz:262.got - 2010.04.03 13:58:47.
