data_PCOD8322196
_publ_section_title
;
Structure prediction by ZEFSAII (Michael W. Deem and Ramdas Pophale) SiO2 
 PCOD8322196
Probable space group: P 31 2 1
;
_chemical_formula_sum "Si O2"
_cell_formula_units_Z 42
_cell_length_a 9.258274
_cell_length_b 9.258274
_cell_length_c 27.412662
_cell_angle_alpha 90.000000
_cell_angle_beta 90.000000
_cell_angle_gamma 120.000000
_cell_volume 2034.894520
_symmetry_space_group_name_H-M "P 31 2 1"
_symmetry_group_IT_number 152
_symmetry_cell_setting 'hexagonal'
loop_
_space_group_symop_operation_xyz
x,y,z
-y,x-y,1/3+z
-x+y,-x,2/3+z
x-y,-y,2/3-z
-x,-x+y,1/3-z
y,x,-z
loop_
_atom_site_type_symbol
_atom_site_label
_atom_site_fract_x
_atom_site_fract_y
_atom_site_fract_z
Si Si1 0.186452 0.483054 0.685280
Si Si2 0.794261 0.979771 0.483132
Si Si3 0.301069 0.698497 0.172613
Si Si4 0.393401 0.044773 0.139996
Si Si5 0.628733 0.988153 0.583474
Si Si6 0.528905 0.154591 0.727545
Si Si7 0.796130 0.284099 0.251196
O O1 0.227296 0.374899 0.722782
O O2 0.313801 0.538900 0.640766
O O3 0.200966 0.642788 0.711911
O O4 0.000000 0.366777 0.666667
O O5 0.909223 0.909223 0.500000
O O6 0.686082 0.979398 0.528747
O O7 0.673112 0.867625 0.440342
O O8 0.922262 0.164007 0.462013
O O9 0.466561 0.683942 0.169799
O O10 0.183821 0.593812 0.216969
O O11 0.210655 0.620382 0.121626
O O12 0.340358 0.889569 0.177189
O O13 0.460811 0.001800 0.090393
O O14 0.580199 0.824114 0.614933
O O15 0.402855 0.960561 0.717525
#
# Coordination Sequence:
#
# PCOD8322196 Si02
#       7
#     6   6   6   6   6   6   6
#     4  12  29  46  69  98 141 189 236 278 348 438
#     4  12  23  41  70 108 137 168 226 299 349 398
#     4  11  21  38  72 103 130 175 234 289 340 409
#     4  11  21  36  67 102 138 165 223 283 349 388
#     4  11  23  45  66  98 142 180 224 285 342 411
#     4  11  25  43  71  96 143 183 225 285 360 410
#     4  12  22  47  69 102 134 180 234 288 344 421
#
# _framework density 20.639889
#
# number of rings (size 3 to 8) (size 9 to 14) (size 15 to 20)
#    0.000    0.571    7.143    1.286    8.000    1.143 
#    0.000    0.714    0.000    0.000    0.000    0.000 
#    0.000    0.000    0.000    0.000    0.000    0.000 
#
# Total GULP energy -520805.998125 kJ/mol
# GULP energy per Si atom -12400.142812 kJ/mol
# Density = 2.059291 g / cm^3
# Si number density = 20.639889 Si / 1000 Ang^3
#
#
#
# Elastic Constant Matrix: (Units=GPa)
#
#
# Indices 1 2 3 4 5 6 
#
# 1 142.1785 79.9453 43.0481 -4.8951 0.0001 0.0000
# 2 79.9453 142.1785 43.0481 4.8951 -0.0001 0.0000
# 3 43.0481 43.0481 73.8713 0.0000 0.0000 0.0000
# 4 -4.8951 4.8951 0.0000 28.1889 0.0000 -0.0001
# 5 0.0001 -0.0001 0.0000 0.0000 28.1889 -4.8951
# 6 0.0000 0.0000 0.0000 -0.0001 -4.8951 31.1166
#
#
#
# Elastic Compliance Matrix: (Units=1/GPa)
#
#
# Indices 1 2 3 4 5 6 
#
# 1 0.011168 -0.005352 -0.003389 0.002869 0.000000 0.000000
# 2 -0.005352 0.011168 -0.003389 -0.002869 0.000000 0.000000
# 3 -0.003389 -0.003389 0.017487 0.000000 0.000000 0.000000
# 4 0.002869 -0.002869 0.000000 0.036471 0.000000 0.000000
# 5 0.000000 0.000000 0.000000 0.000000 0.036471 0.005738
# 6 0.000000 0.000000 0.000000 0.000000 0.005738 0.033040
#
#
# Mechanical properties :
#
#
# Convention : Reuss Voigt Hill
#
# Bulk Modulus (GPa) = 64.25881 76.70127 70.48004
# Shear Modulus (GPa) = 28.53026 30.31132 29.42079
#
# Velocity S-wave (km/s) = 3.72195 3.83636 3.77959
# Velocity P-wave (km/s) = 7.04779 7.54095 7.29854
#
# Compressibility (1/GPa) = 0.01556207
#
# Stress axis : x y z
#
# Youngs Moduli (GPa) = 89.54360 89.54360 57.18566
#
# Poissons Ratio (x) = 0.47925 0.19380
# Poissons Ratio (y) = 0.47925 0.19380
# Poissons Ratio (z) = 0.30346 0.30346
#
# Static dielectric constant tensor:
#      x y z
#    x 4.189700 0.000000 0.000000 
#    y 0.000000 4.189700 0.000000 
#    z 0.000000 0.000000 3.631070 
# 
# 
# High freq. dielectric constant tensor:
#      x y z
#    x 1.817950 0.000000 0.000000 
#    y 0.000000 1.817950 0.000000 
#    z 0.000000 0.000000 1.784560 
# 
# From -- ./inp_files/3747.got.cif
#   From: 2010.03.12/outbox.cif.g09.slc.cpg/sg152_2_cif.got.tgz:3747.got - 2010.04.03 13:45:27.
