data_PCOD8322164
_publ_section_title
;
Structure prediction by ZEFSAII (Michael W. Deem and Ramdas Pophale) SiO2 
 PCOD8322164
Probable space group: P 31 2 1
;
_chemical_formula_sum "Si O2"
_cell_formula_units_Z 42
_cell_length_a 9.128090
_cell_length_b 9.128090
_cell_length_c 27.184056
_cell_angle_alpha 90.000000
_cell_angle_beta 90.000000
_cell_angle_gamma 120.000000
_cell_volume 1961.574083
_symmetry_space_group_name_H-M "P 31 2 1"
_symmetry_group_IT_number 152
_symmetry_cell_setting 'hexagonal'
loop_
_space_group_symop_operation_xyz
x,y,z
-y,x-y,1/3+z
-x+y,-x,2/3+z
x-y,-y,2/3-z
-x,-x+y,1/3-z
y,x,-z
loop_
_atom_site_type_symbol
_atom_site_label
_atom_site_fract_x
_atom_site_fract_y
_atom_site_fract_z
Si Si1 0.181297 0.276002 0.175172
Si Si2 0.481664 0.029456 0.206672
Si Si3 0.268075 0.678460 0.387023
Si Si4 0.272048 0.355315 0.386002
Si Si5 0.831521 0.777386 0.191621
Si Si6 0.435298 0.706732 0.943975
Si Si7 0.693633 0.089215 0.056696
O O1 0.338658 0.442484 0.153196
O O2 0.206192 0.261201 0.233480
O O3 0.000000 0.266993 0.166667
O O4 0.171894 0.120728 0.145715
O O5 0.337055 0.961839 0.165396
O O6 0.436505 0.877985 0.244644
O O7 0.495855 0.186765 0.236706
O O8 0.347035 0.556720 0.395845
O O9 0.335500 0.774178 0.334839
O O10 0.063822 0.564202 0.385627
O O11 0.101720 0.254907 0.417675
O O12 0.409722 0.303164 0.401521
O O13 0.216279 0.316162 0.328802
O O14 0.000000 0.794739 0.166667
O O15 0.260861 0.696824 0.929803
#
# Coordination Sequence:
#
# PCOD8322164 Si02
#       7
#     6   6   6   6   6   6   6
#     4  11  27  44  63  96 136 175 226 275 344 402
#     4  12  24  42  68  96 135 177 216 285 335 408
#     4  10  22  42  67 100 137 175 220 274 342 406
#     4  10  22  42  69  96 132 174 228 273 332 416
#     4  11  23  44  64  99 130 170 227 274 337 408
#     4  10  23  41  69 101 130 177 229 272 337 410
#     4  10  22  44  67  94 133 176 217 281 338 395
#
# _framework density 21.411377000000002
#
# number of rings (size 3 to 8) (size 9 to 14) (size 15 to 20)
#    0.000    1.429    2.857    1.286    6.000    0.000 
#    0.000    4.286    0.000    0.000    0.000    0.000 
#    0.000    0.000    0.000    0.000    0.000    0.000 
#
# Total GULP energy -520724.883565 kJ/mol
# GULP energy per Si atom -12398.211513 kJ/mol
# Density = 2.136264 g / cm^3
# Si number density = 21.411377 Si / 1000 Ang^3
#
#
#
# Elastic Constant Matrix: (Units=GPa)
#
#
# Indices 1 2 3 4 5 6 
#
# 1 103.2618 32.8979 52.2889 -4.4041 0.0000 0.0000
# 2 32.8979 103.2618 52.2889 4.4041 0.0000 0.0000
# 3 52.2889 52.2889 132.2875 0.0000 0.0000 0.0000
# 4 -4.4041 4.4041 0.0000 33.5667 0.0000 0.0000
# 5 0.0000 0.0000 0.0000 0.0000 33.5667 -4.4041
# 6 0.0000 0.0000 0.0000 0.0000 -4.4041 35.1820
#
#
#
# Elastic Compliance Matrix: (Units=1/GPa)
#
#
# Indices 1 2 3 4 5 6 
#
# 1 0.012498 -0.001952 -0.004168 0.001896 0.000000 0.000000
# 2 -0.001952 0.012498 -0.004168 -0.001896 0.000000 0.000000
# 3 -0.004168 -0.004168 0.010855 0.000000 0.000000 0.000000
# 4 0.001896 -0.001896 0.000000 0.030289 0.000000 0.000000
# 5 0.000000 0.000000 0.000000 0.000000 0.030289 0.003792
# 6 0.000000 0.000000 0.000000 0.000000 0.003792 0.028898
#
#
# Mechanical properties :
#
#
# Convention : Reuss Voigt Hill
#
# Bulk Modulus (GPa) = 65.47669 68.19582 66.83625
# Shear Modulus (GPa) = 33.11400 33.88545 33.49973
#
# Velocity S-wave (km/s) = 3.93690 3.98250 3.95976
# Velocity P-wave (km/s) = 7.16326 7.28467 7.22422
#
# Compressibility (1/GPa) = 0.01527261
#
# Stress axis : x y z
#
# Youngs Moduli (GPa) = 80.01589 80.01589 92.12700
#
# Poissons Ratio (x) = 0.15616 0.38403
# Poissons Ratio (y) = 0.15616 0.38403
# Poissons Ratio (z) = 0.33354 0.33354
#
# Static dielectric constant tensor:
#      x y z
#    x 3.819510 0.000000 0.000000 
#    y 0.000000 3.819510 0.000000 
#    z 0.000000 0.000000 4.074570 
# 
# 
# High freq. dielectric constant tensor:
#      x y z
#    x 1.831600 0.000000 0.000000 
#    y 0.000000 1.831600 0.000000 
#    z 0.000000 0.000000 1.855010 
# 
# From -- ./inp_files/3692.got.cif
#   From: 2010.03.12/outbox.cif.g09.slc.cpg/sg152_2_cif.got.tgz:3692.got - 2010.04.03 13:45:27.
