data_PCOD8322667
_publ_section_title
;
Structure prediction by ZEFSAII (Michael W. Deem and Ramdas Pophale) SiO2 
 PCOD8322667
Probable space group: P 3 M 1
;
_chemical_formula_sum "Si O2"
_cell_formula_units_Z 48
_cell_length_a 12.561114
_cell_length_b 12.561114
_cell_length_c 20.691866
_cell_angle_alpha 90.000000
_cell_angle_beta 90.000000
_cell_angle_gamma 120.000000
_cell_volume 2827.395765
_symmetry_space_group_name_H-M "P 3 M 1"
_symmetry_group_IT_number 156
_symmetry_cell_setting 'hexagonal'
loop_
_space_group_symop_operation_xyz
x,y,z
-y,x-y,z
-x+y,-x,z
-x+y,y,z
x,x-y,z
-y,-x,z
loop_
_atom_site_type_symbol
_atom_site_label
_atom_site_fract_x
_atom_site_fract_y
_atom_site_fract_z
Si Si1 0.332359 0.915700 0.872040
Si Si2 0.419020 0.082819 0.754602
Si Si3 0.666466 0.582095 0.115024
Si Si4 0.419005 0.335152 0.474719
Si Si5 0.333106 0.418384 0.236395
Si Si6 0.249582 0.000229 0.993367
Si Si7 0.000765 0.752990 0.357359
Si Si8 0.664719 0.572942 0.614613
O O1 0.456877 0.913753 0.881275
O O2 0.222964 0.777037 0.869391
O O3 0.319216 0.989534 0.931353
O O4 0.330289 0.982990 0.806254
O O5 0.559969 0.119937 0.767915
O O6 0.409112 0.204556 0.761121
O O7 0.376200 0.019014 0.682723
O O8 0.780421 0.560841 0.123878
O O9 0.547743 0.452258 0.101017
O O10 0.653624 0.644419 0.179485
O O11 0.683551 0.670427 0.055820
O O12 0.449399 0.224700 0.476331
O O13 0.541784 0.458217 0.453043
O O14 0.310769 0.307572 0.425219
O O15 0.372747 0.352059 0.546382
O O16 0.212285 0.424570 0.219616
O O17 0.444372 0.555629 0.244540
O O18 0.319638 0.346327 0.302171
O O19 0.117453 0.882548 0.003145
O O20 0.231670 0.115835 0.983343
O O21 0.105832 0.894168 0.361398
O O22 0.873539 0.747078 0.341407
O O23 0.802161 0.604322 0.618567
O O24 0.573793 0.426207 0.612020
#
# Coordination Sequence:
#
# PCOD8322667 Si02
#       8
#     6   6   6   6   6   6   6   6
#     4  10  20  33  48  66  90 122 158 193 228 268
#     4   9  16  27  45  69  94 118 146 184 231 279
#     4  10  20  34  52  74 100 128 156 186 222 266
#     4   9  16  27  45  69  94 118 146 184 231 279
#     4  10  20  34  52  73  96 122 153 190 231 273
#     4  10  20  34  52  73  96 122 153 190 231 273
#     4  10  20  33  48  66  90 122 158 193 228 268
#     4   8  13  22  39  64  92 118 144 178 224 276
#
# _framework density 16.976752000000001
#
# number of rings (size 3 to 8) (size 9 to 14) (size 15 to 20)
#    0.000    2.500    0.000    2.875    0.000    2.000 
#    0.000    0.625    0.000   16.500    0.000    0.000 
#    0.000    0.000    0.000    0.000    0.000    0.000 
#
# Total GULP energy -594946.441416 kJ/mol
# GULP energy per Si atom -12394.717530 kJ/mol
# Density = 1.693811 g / cm^3
# Si number density = 16.976752 Si / 1000 Ang^3
#
#
#
# Elastic Constant Matrix: (Units=GPa)
#
#
# Indices 1 2 3 4 5 6 
#
# 1 68.1431 35.6487 51.1711 -2.1445 -0.0001 0.0000
# 2 35.6487 68.1431 51.1711 2.1445 0.0001 0.0000
# 3 51.1711 51.1711 125.1924 0.0000 0.0000 0.0000
# 4 -2.1445 2.1445 0.0000 24.6016 0.0000 0.0001
# 5 -0.0001 0.0001 0.0000 0.0000 24.6016 -2.1445
# 6 0.0000 0.0000 0.0000 0.0001 -2.1445 16.2472
#
#
#
# Elastic Compliance Matrix: (Units=1/GPa)
#
#
# Indices 1 2 3 4 5 6 
#
# 1 0.023636 -0.007497 -0.006597 0.002714 0.000000 0.000000
# 2 -0.007497 0.023636 -0.006597 -0.002714 0.000000 0.000000
# 3 -0.006597 -0.006597 0.013380 0.000000 0.000000 0.000000
# 4 0.002714 -0.002714 0.000000 0.041121 0.000000 0.000000
# 5 0.000000 0.000000 0.000000 0.000000 0.041121 0.005428
# 6 0.000000 0.000000 0.000000 0.000000 0.005428 0.062265
#
#
# Mechanical properties :
#
#
# Convention : Reuss Voigt Hill
#
# Bulk Modulus (GPa) = 51.88885 59.71781 55.80333
# Shear Modulus (GPa) = 19.76564 21.32260 20.54412
#
# Velocity S-wave (km/s) = 3.41585 3.54784 3.48247
# Velocity P-wave (km/s) = 6.79620 7.21356 7.00799
#
# Compressibility (1/GPa) = 0.01927196
#
# Stress axis : x y z
#
# Youngs Moduli (GPa) = 42.30828 42.30828 74.73592
#
# Poissons Ratio (x) = 0.31717 0.49302
# Poissons Ratio (y) = 0.31717 0.49302
# Poissons Ratio (z) = 0.27910 0.27910
#
# Static dielectric constant tensor:
#      x y z
#    x 3.040670 0.000000 0.000000 
#    y 0.000000 3.040670 0.000000 
#    z 0.000000 0.000000 3.563050 
# 
# 
# High freq. dielectric constant tensor:
#      x y z
#    x 1.644290 0.000000 0.000000 
#    y 0.000000 1.644290 0.000000 
#    z 0.000000 0.000000 1.677430 
# 
# From -- ./inp_files/1103.got.cif
#   From: 2010.03.12/outbox.cif.g09.slc.cpg/sg156_cif.got.tgz:1103.got - 2010.04.03 13:58:47.
