data_PCOD8322724
_publ_section_title
;
Structure prediction by ZEFSAII (Michael W. Deem and Ramdas Pophale) SiO2 
 PCOD8322724
Probable space group: P 3 1 M
;
_chemical_formula_sum "Si O2"
_cell_formula_units_Z 32
_cell_length_a 14.728148
_cell_length_b 14.728148
_cell_length_c 8.568819
_cell_angle_alpha 90.000000
_cell_angle_beta 90.000000
_cell_angle_gamma 120.000000
_cell_volume 1609.710883
_symmetry_space_group_name_H-M "P 3 1 M"
_symmetry_group_IT_number 157
_symmetry_cell_setting 'hexagonal'
loop_
_space_group_symop_operation_xyz
x,y,z
-y,x-y,z
-x+y,-x,z
y,x,z
x-y,-y,z
-x,-x+y,z
loop_
_atom_site_type_symbol
_atom_site_label
_atom_site_fract_x
_atom_site_fract_y
_atom_site_fract_z
Si Si1 0.256450 0.829477 0.962820
Si Si2 0.000000 0.000000 0.461461
Si Si3 0.519135 0.402478 0.595156
Si Si4 0.000000 0.000000 0.090937
Si Si5 0.743550 0.573027 0.589578
Si Si6 0.791501 0.791501 0.460920
Si Si7 0.597523 0.116657 0.957242
Si Si8 0.208499 0.000000 0.091478
O O1 0.252742 0.836013 0.776199
O O2 0.191729 0.711306 0.029667
O O3 0.373603 0.870377 0.028080
O O4 0.207606 0.896581 0.030884
O O5 0.895667 0.895667 0.522950
O O6 0.000000 0.000000 0.276199
O O7 0.425872 0.425872 0.564558
O O8 0.626397 0.496774 0.524318
O O9 0.480424 0.288694 0.522731
O O10 0.541434 0.397427 0.776199
O O11 0.000000 0.104333 0.029448
O O12 0.792394 0.688975 0.521514
O O13 0.789974 0.789974 0.276199
O O14 0.574128 0.000000 0.987839
#
# Coordination Sequence:
#
# PCOD8322724 Si02
#       8
#     6   1   6   1   6   3   6   3
#     4  10  19  35  59  86 115 146 182 227 278 338
#     4   9  24  45  58  71 106 156 199 233 286 345
#     4   9  17  30  52  84 114 140 173 218 275 332
#     4   9  24  45  58  71 106 156 199 233 286 345
#     4  10  19  35  59  86 115 146 182 227 278 338
#     4  11  23  41  60  79 108 152 197 241 286 333
#     4   9  17  30  52  84 114 140 173 218 275 332
#     4  11  23  41  60  79 108 152 197 241 286 333
#
# _framework density 19.879346000000002
#
# number of rings (size 3 to 8) (size 9 to 14) (size 15 to 20)
#    0.000    2.250    1.875    1.312    2.625    3.000 
#    0.000    4.688    0.000    0.000    0.000    0.000 
#    0.000    0.000    0.000    0.000    0.000    0.000 
#
# Total GULP energy -396658.909868 kJ/mol
# GULP energy per Si atom -12395.590933 kJ/mol
# Density = 1.983410 g / cm^3
# Si number density = 19.879346 Si / 1000 Ang^3
#
#
#
# Elastic Constant Matrix: (Units=GPa)
#
#
# Indices 1 2 3 4 5 6 
#
# 1 157.7857 88.1590 23.2183 0.0000 0.0000 0.0000
# 2 88.1590 157.7857 23.2183 0.0000 0.0000 0.0000
# 3 23.2183 23.2183 30.9556 0.0000 0.0000 0.0000
# 4 0.0000 0.0000 0.0000 17.5265 0.0000 0.0000
# 5 0.0000 0.0000 0.0000 0.0000 17.5265 0.0000
# 6 0.0000 0.0000 0.0000 0.0000 0.0000 34.8133
#
#
#
# Elastic Compliance Matrix: (Units=1/GPa)
#
#
# Indices 1 2 3 4 5 6 
#
# 1 0.009550 -0.004813 -0.003553 0.000000 0.000000 0.000000
# 2 -0.004813 0.009550 -0.003553 0.000000 0.000000 0.000000
# 3 -0.003553 -0.003553 0.037634 0.000000 0.000000 0.000000
# 4 0.000000 0.000000 0.000000 0.057056 0.000000 0.000000
# 5 0.000000 0.000000 0.000000 0.000000 0.057056 0.000000
# 6 0.000000 0.000000 0.000000 0.000000 0.000000 0.028725
#
#
# Mechanical properties :
#
#
# Convention : Reuss Voigt Hill
#
# Bulk Modulus (GPa) = 30.39867 68.41312 49.40589
# Shear Modulus (GPa) = 21.33357 28.10205 24.71781
#
# Velocity S-wave (km/s) = 3.27945 3.76391 3.53000
# Velocity P-wave (km/s) = 5.44652 7.30604 6.44371
#
# Compressibility (1/GPa) = 0.03289618
#
# Stress axis : x y z
#
# Youngs Moduli (GPa) = 104.71715 104.71715 26.57180
#
# Poissons Ratio (x) = 0.50398 0.09440
# Poissons Ratio (y) = 0.50398 0.09440
# Poissons Ratio (z) = 0.37204 0.37204
#
# Static dielectric constant tensor:
#      x y z
#    x 3.858930 0.000000 0.000000 
#    y 0.000000 3.858930 0.000000 
#    z 0.000000 0.000000 3.078180 
# 
# 
# High freq. dielectric constant tensor:
#      x y z
#    x 1.792190 0.000000 0.000000 
#    y 0.000000 1.792190 0.000000 
#    z 0.000000 0.000000 1.715070 
# 
# From -- ./inp_files/393.got.cif
#   From: 2010.03.12/outbox.cif.g09.slc.cpg/sg157_cif.got.tgz:393.got - 2010.04.03 13:59:21.
