data_PCOD8322091
_publ_section_title
;
Structure prediction by ZEFSAII (Michael W. Deem and Ramdas Pophale) SiO2 
 PCOD8322091
Probable space group: P 31 2 1
;
_chemical_formula_sum "Si O2"
_cell_formula_units_Z 30
_cell_length_a 8.512292
_cell_length_b 8.512292
_cell_length_c 23.573551
_cell_angle_alpha 90.000000
_cell_angle_beta 90.000000
_cell_angle_gamma 120.000000
_cell_volume 1479.274139
_symmetry_space_group_name_H-M "P 31 2 1"
_symmetry_group_IT_number 152
_symmetry_cell_setting 'hexagonal'
loop_
_space_group_symop_operation_xyz
x,y,z
-y,x-y,1/3+z
-x+y,-x,2/3+z
x-y,-y,2/3-z
-x,-x+y,1/3-z
y,x,-z
loop_
_atom_site_type_symbol
_atom_site_label
_atom_site_fract_x
_atom_site_fract_y
_atom_site_fract_z
Si Si1 0.760788 0.760788 0.000000
Si Si2 0.899936 0.400245 0.571558
Si Si3 0.000000 0.268447 0.166667
Si Si4 0.629927 0.003605 0.536811
Si Si5 0.770089 0.133872 0.014927
Si Si6 0.657088 0.537880 0.612455
O O1 0.633681 0.668525 0.944575
O O2 0.955426 0.784465 0.990639
O O3 0.988279 0.489725 0.511523
O O4 0.836986 0.519036 0.609306
O O5 0.728039 0.209613 0.555473
O O6 0.828723 0.067513 0.155525
O O7 0.965040 0.373698 0.216864
O O8 0.540684 0.877907 0.592977
O O9 0.975572 0.304643 0.012223
O O10 0.657393 0.148333 0.962995
#
# Coordination Sequence:
#
# PCOD8322091 Si02
#       6
#     3   6   3   6   6   6
#     4  10  22  36  54  84 114 142 188 238 280 334
#     4  10  21  37  57  82 111 146 185 231 283 338
#     4   8  18  36  58  82 112 148 190 234 280 330
#     4   9  19  36  56  80 111 146 187 230 279 335
#     4  10  20  37  57  82 114 149 189 232 277 336
#     4  10  20  37  60  82 113 153 188 228 281 336
#
# _framework density 20.280218000000001
#
# number of rings (size 3 to 8) (size 9 to 14) (size 15 to 20)
#    0.000    2.400    0.000    2.400    0.000    7.200 
#    0.000   14.000    0.000    1.200    0.000    0.000 
#    0.000    0.000    0.000    0.000    0.000    0.000 
#
# Total GULP energy -371686.040018 kJ/mol
# GULP energy per Si atom -12389.534667 kJ/mol
# Density = 2.023406 g / cm^3
# Si number density = 20.280218 Si / 1000 Ang^3
#
#
#
# Elastic Constant Matrix: (Units=GPa)
#
#
# Indices 1 2 3 4 5 6 
#
# 1 77.5057 34.1301 36.6753 0.1746 0.0001 0.0000
# 2 34.1301 77.5057 36.6753 -0.1746 -0.0001 0.0000
# 3 36.6753 36.6753 71.0105 0.0000 0.0000 0.0000
# 4 0.1746 -0.1746 0.0000 30.5537 0.0000 -0.0001
# 5 0.0001 -0.0001 0.0000 0.0000 30.5537 0.1746
# 6 0.0000 0.0000 0.0000 -0.0001 0.1746 21.6878
#
#
#
# Elastic Compliance Matrix: (Units=1/GPa)
#
#
# Indices 1 2 3 4 5 6 
#
# 1 0.018307 -0.004748 -0.007003 -0.000132 0.000000 0.000000
# 2 -0.004748 0.018307 -0.007003 0.000132 0.000000 0.000000
# 3 -0.007003 -0.007003 0.021316 0.000000 0.000000 0.000000
# 4 -0.000132 0.000132 0.000000 0.032731 0.000000 0.000000
# 5 0.000000 0.000000 0.000000 0.000000 0.032731 -0.000263
# 6 0.000000 0.000000 0.000000 0.000000 -0.000263 0.046111
#
#
# Mechanical properties :
#
#
# Convention : Reuss Voigt Hill
#
# Bulk Modulus (GPa) = 48.96574 48.99816 48.98195
# Shear Modulus (GPa) = 23.38430 24.46178 23.92304
#
# Velocity S-wave (km/s) = 3.39936 3.47679 3.43829
# Velocity P-wave (km/s) = 6.29321 6.35063 6.32198
#
# Compressibility (1/GPa) = 0.02042244
#
# Stress axis : x y z
#
# Youngs Moduli (GPa) = 54.62325 54.62325 46.91295
#
# Poissons Ratio (x) = 0.25937 0.32853
# Poissons Ratio (y) = 0.25937 0.32853
# Poissons Ratio (z) = 0.38252 0.38252
#
# Static dielectric constant tensor:
#      x y z
#    x 3.638400 0.000000 0.000000 
#    y 0.000000 3.638400 0.000000 
#    z 0.000000 0.000000 4.045740 
# 
# 
# High freq. dielectric constant tensor:
#      x y z
#    x 1.779900 0.000000 0.000000 
#    y 0.000000 1.779900 0.000000 
#    z 0.000000 0.000000 1.803630 
# 
# From -- ./inp_files/3016.got.cif
#   From: 2010.03.12/outbox.cif.g09.slc.cpg/sg152_2_cif.got.tgz:3016.got - 2010.04.03 13:45:27.
