data_PCOD8322075
_publ_section_title
;
Structure prediction by ZEFSAII (Michael W. Deem and Ramdas Pophale) SiO2 
 PCOD8322075
Probable space group: P 31 2 1
;
_chemical_formula_sum "Si O2"
_cell_formula_units_Z 36
_cell_length_a 8.736521
_cell_length_b 8.736521
_cell_length_c 26.484542
_cell_angle_alpha 90.000000
_cell_angle_beta 90.000000
_cell_angle_gamma 120.000000
_cell_volume 1750.653309
_symmetry_space_group_name_H-M "P 31 2 1"
_symmetry_group_IT_number 152
_symmetry_cell_setting 'hexagonal'
loop_
_space_group_symop_operation_xyz
x,y,z
-y,x-y,1/3+z
-x+y,-x,2/3+z
x-y,-y,2/3-z
-x,-x+y,1/3-z
y,x,-z
loop_
_atom_site_type_symbol
_atom_site_label
_atom_site_fract_x
_atom_site_fract_y
_atom_site_fract_z
Si Si1 0.981708 0.797116 0.780778
Si Si2 0.875525 0.819897 0.888219
Si Si3 0.030105 0.697245 0.267567
Si Si4 0.983993 0.297931 0.367567
Si Si5 0.300576 0.822926 0.735182
Si Si6 0.175153 0.694334 0.370288
O O1 0.876231 0.737950 0.833752
O O2 0.842132 0.675907 0.738171
O O3 0.154493 0.773781 0.779252
O O4 0.062110 0.003229 0.770234
O O5 0.719018 0.870204 0.891650
O O6 0.857220 0.686560 0.931302
O O7 0.171679 0.729792 0.310855
O O8 0.875369 0.715986 0.294449
O O9 0.948959 0.500365 0.243695
O O10 0.023494 0.493658 0.382958
O O11 0.918388 0.256331 0.310034
O O12 0.275585 0.641852 0.714394
#
# Coordination Sequence:
#
# PCOD8322075 Si02
#       6
#     6   6   6   6   6   6
#     4  10  21  37  54  77 111 151 186 225 283 343
#     4  10  21  37  55  77 110 151 190 223 274 344
#     4   9  19  37  58  78 108 148 188 231 277 336
#     4   9  19  36  56  78 111 147 180 227 285 335
#     4  10  20  35  57  85 110 139 186 238 283 332
#     4  10  20  34  56  86 110 139 187 234 277 334
#
# _framework density 20.563749999999999
#
# number of rings (size 3 to 8) (size 9 to 14) (size 15 to 20)
#    0.000    2.333    0.000    2.000    0.000    8.000 
#    0.000   10.000    0.000    0.000    0.000    0.000 
#    0.000    0.000    0.000    0.000    0.000    0.000 
#
# Total GULP energy -446307.271227 kJ/mol
# GULP energy per Si atom -12397.424201 kJ/mol
# Density = 2.051695 g / cm^3
# Si number density = 20.563750 Si / 1000 Ang^3
#
#
#
# Elastic Constant Matrix: (Units=GPa)
#
#
# Indices 1 2 3 4 5 6 
#
# 1 82.8782 27.6245 34.1785 3.7883 0.0000 0.0000
# 2 27.6245 82.8782 34.1785 -3.7883 0.0000 0.0000
# 3 34.1785 34.1785 69.2021 0.0000 0.0000 0.0000
# 4 3.7883 -3.7883 0.0000 26.0305 0.0000 0.0000
# 5 0.0000 0.0000 0.0000 0.0000 26.0305 3.7883
# 6 0.0000 0.0000 0.0000 0.0000 3.7883 27.6268
#
#
#
# Elastic Compliance Matrix: (Units=1/GPa)
#
#
# Indices 1 2 3 4 5 6 
#
# 1 0.015749 -0.002718 -0.006436 -0.002688 0.000000 0.000000
# 2 -0.002718 0.015749 -0.006436 0.002688 0.000000 0.000000
# 3 -0.006436 -0.006436 0.020808 0.000000 0.000000 0.000000
# 4 -0.002688 0.002688 0.000000 0.039199 0.000000 0.000000
# 5 0.000000 0.000000 0.000000 0.000000 0.039199 -0.005375
# 6 0.000000 0.000000 0.000000 0.000000 -0.005375 0.036934
#
#
# Mechanical properties :
#
#
# Convention : Reuss Voigt Hill
#
# Bulk Modulus (GPa) = 47.33524 47.43571 47.38548
# Shear Modulus (GPa) = 24.28863 25.20271 24.74567
#
# Velocity S-wave (km/s) = 3.44050 3.50464 3.47272
# Velocity P-wave (km/s) = 6.23309 6.28446 6.25883
#
# Compressibility (1/GPa) = 0.02112591
#
# Stress axis : x y z
#
# Youngs Moduli (GPa) = 63.49691 63.49691 48.05932
#
# Poissons Ratio (x) = 0.17259 0.30930
# Poissons Ratio (y) = 0.17259 0.30930
# Poissons Ratio (z) = 0.40865 0.40865
#
# Static dielectric constant tensor:
#      x y z
#    x 3.829660 0.000000 0.000000 
#    y 0.000000 3.829660 0.000000 
#    z 0.000000 0.000000 3.561780 
# 
# 
# High freq. dielectric constant tensor:
#      x y z
#    x 1.806100 0.000000 0.000000 
#    y 0.000000 1.806100 0.000000 
#    z 0.000000 0.000000 1.779720 
# 
# From -- ./inp_files/3359.got.cif
#   From: 2010.03.12/outbox.cif.g09.slc.cpg/sg152_2_cif.got.tgz:3359.got - 2010.04.03 13:45:27.
