data_PCOD8322963
_publ_section_title
;
Structure prediction by ZEFSAII (Michael W. Deem and Ramdas Pophale) SiO2 
 PCOD8322963
Probable space group: P -3 1 M 
;
_chemical_formula_sum "Si O2"
_cell_formula_units_Z 66
_cell_length_a 20.673382
_cell_length_b 20.673382
_cell_length_c 9.844665
_cell_angle_alpha 90.000000
_cell_angle_beta 90.000000
_cell_angle_gamma 120.000000
_cell_volume 3643.800852
_symmetry_space_group_name_H-M "P -3 1 M "
_symmetry_group_IT_number 162
_symmetry_cell_setting 'hexagonal'
loop_
_space_group_symop_operation_xyz
x,y,z
-y,x-y,z
-x+y,-x,z
-y,-x,-z
-x+y,y,-z
x,x-y,-z
-x,-y,-z
y,-x+y,-z
x-y,x,-z
y,x,z
x-y,-y,z
-x,-x+y,z
loop_
_atom_site_type_symbol
_atom_site_label
_atom_site_fract_x
_atom_site_fract_y
_atom_site_fract_z
Si Si1 0.788152 0.449794 0.086180
Si Si2 0.463865 0.463865 0.328340
Si Si3 0.326935 0.326935 0.230137
Si Si4 0.618791 0.772623 0.873659
Si Si5 0.258599 0.422155 0.628162
Si Si6 0.836083 0.403665 0.342627
Si Si7 0.646368 0.646368 0.476693
O O1 0.834510 0.538399 0.086459
O O2 0.783961 0.422015 0.243694
O O3 0.710944 0.421887 0.000000
O O4 0.831505 0.415753 0.000000
O O5 0.405410 0.405410 0.217853
O O6 0.542169 0.466193 0.308297
O O7 0.569554 0.569554 0.519894
O O8 0.258975 0.327414 0.157763
O O9 0.308895 0.308895 0.389491
O O10 0.618788 0.819480 0.746156
O O11 0.654752 0.827376 0.000000
O O12 0.214223 0.428446 0.500000
O O13 0.318416 0.504126 0.682833
O O14 0.299955 0.374978 0.603656
O O15 0.818478 0.409239 0.500000
#
# Coordination Sequence:
#
# PCOD8322963 Si02
#       7
#    12   6   6  12  12  12   6
#     4  11  23  40  53  72 111 160 190 244 311 355
#     4  10  18  37  56  91 112 151 192 252 305 337
#     4  10  18  41  62  79 118 161 182 247 307 336
#     4  11  23  40  59  84 115 152 197 243 296 359
#     4  12  22  37  58  89 113 146 198 245 302 360
#     4  12  20  34  60  83 110 146 200 255 289 353
#     4  10  19  37  63  86 117 152 183 253 299 344
#
# _framework density 18.112954999999999
#
# number of rings (size 3 to 8) (size 9 to 14) (size 15 to 20)
#    0.545    0.364    5.455    4.273    0.000    0.727 
#    0.000    3.636    0.000    2.545    0.000    0.000 
#    0.000    0.000    0.000   10.909    0.000    0.000 
#
# Total GULP energy -817930.192893 kJ/mol
# GULP energy per Si atom -12392.881710 kJ/mol
# Density = 1.807173 g / cm^3
# Si number density = 18.112955 Si / 1000 Ang^3
#
#
#
# Elastic Constant Matrix: (Units=GPa)
#
#
# Indices 1 2 3 4 5 6 
#
# 1 91.9285 46.2379 42.1177 0.0000 9.4118 0.0000
# 2 46.2379 91.9285 42.1177 0.0000 -9.4118 0.0000
# 3 42.1177 42.1177 116.8403 0.0000 0.0000 0.0000
# 4 0.0000 0.0000 0.0000 20.5836 0.0000 -9.4118
# 5 9.4118 -9.4118 0.0000 0.0000 20.5836 0.0000
# 6 0.0000 0.0000 0.0000 -9.4118 0.0000 22.8453
#
#
#
# Elastic Compliance Matrix: (Units=1/GPa)
#
#
# Indices 1 2 3 4 5 6 
#
# 1 0.018121 -0.008845 -0.003344 0.000000 -0.012330 0.000000
# 2 -0.008845 0.018121 -0.003344 0.000000 0.012330 0.000000
# 3 -0.003344 -0.003344 0.010969 0.000000 0.000000 0.000000
# 4 0.000000 0.000000 0.000000 0.059858 0.000000 0.024660
# 5 -0.012330 0.012330 0.000000 0.000000 0.059858 0.000000
# 6 0.000000 0.000000 0.000000 0.024660 0.000000 0.053932
#
#
# Mechanical properties :
#
#
# Convention : Reuss Voigt Hill
#
# Bulk Modulus (GPa) = 61.93253 62.40487 62.16870
# Shear Modulus (GPa) = 19.43195 24.15075 21.79135
#
# Velocity S-wave (km/s) = 3.27895 3.65546 3.47231
# Velocity P-wave (km/s) = 6.97151 7.23495 7.10445
#
# Compressibility (1/GPa) = 0.01614660
#
# Stress axis : x y z
#
# Youngs Moduli (GPa) = 55.18400 55.18400 91.16253
#
# Poissons Ratio (x) = 0.48810 0.30483
# Poissons Ratio (y) = 0.48810 0.30483
# Poissons Ratio (z) = 0.18453 0.18453
#
# Static dielectric constant tensor:
#      x y z
#    x 3.197070 0.000000 0.000000 
#    y 0.000000 3.197070 0.000000 
#    z 0.000000 0.000000 3.525180 
# 
# 
# High freq. dielectric constant tensor:
#      x y z
#    x 1.675950 0.000000 0.000000 
#    y 0.000000 1.675950 0.000000 
#    z 0.000000 0.000000 1.713390 
# 
# From -- ./inp_files/1635.got.cif
#   From: 2010.03.12/outbox.cif.g09.slc.cpg/sg162_1_cif.got.tgz:1635.got - 2010.04.02 06:27:41.
