data_PCOD8322220
_publ_section_title
;
Structure prediction by ZEFSAII (Michael W. Deem and Ramdas Pophale) SiO2 
 PCOD8322220
Probable space group: P 31 2 1
;
_chemical_formula_sum "Si O2"
_cell_formula_units_Z 30
_cell_length_a 8.698948
_cell_length_b 8.698948
_cell_length_c 21.465988
_cell_angle_alpha 90.000000
_cell_angle_beta 90.000000
_cell_angle_gamma 120.000000
_cell_volume 1406.743715
_symmetry_space_group_name_H-M "P 31 2 1"
_symmetry_group_IT_number 152
_symmetry_cell_setting 'hexagonal'
loop_
_space_group_symop_operation_xyz
x,y,z
-y,x-y,1/3+z
-x+y,-x,2/3+z
x-y,-y,2/3-z
-x,-x+y,1/3-z
y,x,-z
loop_
_atom_site_type_symbol
_atom_site_label
_atom_site_fract_x
_atom_site_fract_y
_atom_site_fract_z
Si Si1 0.000000 0.819102 0.166667
Si Si2 0.854620 0.000000 0.333334
Si Si3 0.686763 0.877984 0.203321
Si Si4 0.614370 0.715098 0.642532
Si Si5 0.677530 0.208045 0.147328
Si Si6 0.495261 0.355926 0.585156
O O1 0.002209 0.706729 0.106444
O O2 0.833335 0.849663 0.167852
O O3 0.719255 0.928460 0.275900
O O4 0.863006 0.826507 0.356656
O O5 0.514236 0.690977 0.197473
O O6 0.664734 0.030315 0.171950
O O7 0.525153 0.749145 0.584119
O O8 0.573696 0.515336 0.634523
O O9 0.522096 0.713790 0.707813
O O10 0.780462 0.372131 0.194111
#
# Coordination Sequence:
#
# PCOD8322220 Si02
#       6
#     3   3   6   6   6   6
#     4  12  24  48  74 110 146 198 248 304 378 456
#     4  12  24  46  74 106 142 198 248 302 378 446
#     4  12  27  47  73 109 147 199 252 309 380 449
#     4  12  26  47  74 109 150 195 248 309 373 451
#     4  12  27  47  76 106 150 198 247 315 375 447
#     4  12  26  48  77 107 150 196 245 309 378 449
#
# _framework density 21.325845999999999
#
# number of rings (size 3 to 8) (size 9 to 14) (size 15 to 20)
#    0.000    0.000    6.000    3.600    2.800    0.000 
#    0.000    0.000    0.000    0.000    0.000    0.000 
#    0.000    0.000    0.000    0.000    0.000    0.000 
#
# Total GULP energy -371845.356373 kJ/mol
# GULP energy per Si atom -12394.845212 kJ/mol
# Density = 2.127731 g / cm^3
# Si number density = 21.325846 Si / 1000 Ang^3
#
#
#
# Elastic Constant Matrix: (Units=GPa)
#
#
# Indices 1 2 3 4 5 6 
#
# 1 149.9027 71.7373 49.5889 5.0011 0.0000 0.0000
# 2 71.7373 149.9027 49.5889 -5.0011 0.0000 0.0000
# 3 49.5889 49.5889 116.9420 0.0000 0.0000 0.0000
# 4 5.0011 -5.0011 0.0000 45.3396 0.0000 0.0000
# 5 0.0000 0.0000 0.0000 0.0000 45.3396 5.0011
# 6 0.0000 0.0000 0.0000 0.0000 5.0011 39.0827
#
#
#
# Elastic Compliance Matrix: (Units=1/GPa)
#
#
# Indices 1 2 3 4 5 6 
#
# 1 0.009272 -0.003704 -0.002361 -0.001431 0.000000 0.000000
# 2 -0.003704 0.009272 -0.002361 0.001431 0.000000 0.000000
# 3 -0.002361 -0.002361 0.010554 0.000000 0.000000 0.000000
# 4 -0.001431 0.001431 0.000000 0.022372 0.000000 0.000000
# 5 0.000000 0.000000 0.000000 0.000000 0.022372 -0.002863
# 6 0.000000 0.000000 0.000000 0.000000 -0.002863 0.025953
#
#
# Mechanical properties :
#
#
# Convention : Reuss Voigt Hill
#
# Bulk Modulus (GPa) = 81.66210 84.28642 82.97426
# Shear Modulus (GPa) = 41.41468 42.34117 41.87792
#
# Velocity S-wave (km/s) = 4.41159 4.46066 4.43619
# Velocity P-wave (km/s) = 8.02030 8.13258 8.07664
#
# Compressibility (1/GPa) = 0.01224558
#
# Stress axis : x y z
#
# Youngs Moduli (GPa) = 107.84592 107.84592 94.75225
#
# Poissons Ratio (x) = 0.39947 0.22374
# Poissons Ratio (y) = 0.39947 0.22374
# Poissons Ratio (z) = 0.25465 0.25465
#
# Static dielectric constant tensor:
#      x y z
#    x 4.022910 0.000000 0.000000 
#    y 0.000000 4.022910 0.000000 
#    z 0.000000 0.000000 4.094050 
# 
# 
# High freq. dielectric constant tensor:
#      x y z
#    x 1.843930 0.000000 0.000000 
#    y 0.000000 1.843930 0.000000 
#    z 0.000000 0.000000 1.855700 
# 
# From -- ./inp_files/3038.got.cif
#   From: 2010.03.12/outbox.cif.g09.slc.cpg/sg152_2_cif.got.tgz:3038.got - 2010.04.03 13:45:27.
