data_PCOD8322980
_publ_section_title
;
Structure prediction by ZEFSAII (Michael W. Deem and Ramdas Pophale) SiO2 
 PCOD8322980
Probable space group: P -3 1 M 
;
_chemical_formula_sum "Si O2"
_cell_formula_units_Z 52
_cell_length_a 12.979711
_cell_length_b 12.979711
_cell_length_c 21.214566
_cell_angle_alpha 90.000000
_cell_angle_beta 90.000000
_cell_angle_gamma 120.000000
_cell_volume 3095.243561
_symmetry_space_group_name_H-M "P -3 1 M "
_symmetry_group_IT_number 162
_symmetry_cell_setting 'hexagonal'
loop_
_space_group_symop_operation_xyz
x,y,z
-y,x-y,z
-x+y,-x,z
-y,-x,-z
-x+y,y,-z
x,x-y,-z
-x,-y,-z
y,-x+y,-z
x-y,x,-z
y,x,z
x-y,-y,z
-x,-x+y,z
loop_
_atom_site_type_symbol
_atom_site_label
_atom_site_fract_x
_atom_site_fract_y
_atom_site_fract_z
Si Si1 0.642884 0.507200 0.661255
Si Si2 0.333335 0.666667 0.425642
Si Si3 0.700779 0.565760 0.268606
Si Si4 0.362191 0.866429 0.942493
Si Si5 0.439804 0.306426 0.875498
O O1 0.592703 0.592703 0.641346
O O2 0.646624 0.439555 0.598672
O O3 0.562636 0.411577 0.714442
O O4 0.774850 0.588527 0.689783
O O5 0.333334 0.666667 0.500000
O O6 0.668395 0.668395 0.283546
O O7 0.737239 0.570516 0.195849
O O8 0.222145 0.789124 0.926846
O O9 0.433517 0.861771 0.881196
O O10 0.391788 0.000000 0.958321
O O11 0.408541 0.817082 0.000000
O O12 0.334086 0.334086 0.892107
#
# Coordination Sequence:
#
# PCOD8322980 Si02
#       5
#    12   4  12  12  12
#     4   9  17  30  47  66  93 128 156 185 233 280
#     4   9  18  30  45  72 102 123 157 203 232 267
#     4   9  17  28  44  68  92 115 151 193 230 277
#     4  10  20  32  46  65  90 121 155 192 235 285
#     4  10  19  30  46  67  90 118 151 190 236 281
#
# _framework density 16.799969000000001
#
# number of rings (size 3 to 8) (size 9 to 14) (size 15 to 20)
#    0.000    2.538    0.000    3.000    0.000    3.231 
#    0.000    0.000    0.000    0.923    0.000    0.000 
#    0.000    6.462    0.000    0.000    0.000    0.000 
#
# Total GULP energy -644549.480129 kJ/mol
# GULP energy per Si atom -12395.182310 kJ/mol
# Density = 1.676173 g / cm^3
# Si number density = 16.799969 Si / 1000 Ang^3
#
#
#
# Elastic Constant Matrix: (Units=GPa)
#
#
# Indices 1 2 3 4 5 6 
#
# 1 100.0347 56.0207 54.0281 -0.0001 -1.7682 0.0000
# 2 56.0207 100.0350 54.0283 -0.0001 1.7680 0.0001
# 3 54.0281 54.0283 110.1663 -0.0004 -0.0002 0.0000
# 4 -0.0001 -0.0001 -0.0004 16.6482 0.0001 1.7681
# 5 -1.7682 1.7680 -0.0002 0.0001 16.6481 0.0000
# 6 0.0000 0.0001 0.0000 1.7681 0.0000 22.0071
#
#
#
# Elastic Compliance Matrix: (Units=1/GPa)
#
#
# Indices 1 2 3 4 5 6 
#
# 1 0.016309 -0.006606 -0.004759 0.000000 0.002434 0.000000
# 2 -0.006606 0.016309 -0.004759 0.000000 -0.002434 0.000000
# 3 -0.004759 -0.004759 0.013745 0.000000 0.000000 0.000000
# 4 0.000000 0.000000 0.000000 0.060583 0.000000 -0.004867
# 5 0.002434 -0.002434 0.000000 0.000000 0.060584 0.000000
# 6 0.000000 0.000000 0.000000 -0.004867 0.000000 0.045831
#
#
# Mechanical properties :
#
#
# Convention : Reuss Voigt Hill
#
# Bulk Modulus (GPa) = 70.84041 70.93226 70.88633
# Shear Modulus (GPa) = 19.97495 20.80460 20.38978
#
# Velocity S-wave (km/s) = 3.45191 3.52287 3.48757
# Velocity P-wave (km/s) = 7.62536 7.67208 7.64875
#
# Compressibility (1/GPa) = 0.01411624
#
# Stress axis : x y z
#
# Youngs Moduli (GPa) = 61.31501 61.31516 72.75598
#
# Poissons Ratio (x) = 0.40507 0.34621
# Poissons Ratio (y) = 0.40507 0.34621
# Poissons Ratio (z) = 0.29177 0.29177
#
# Static dielectric constant tensor:
#      x y z
#    x 3.118770 0.000000 0.000000 
#    y 0.000000 3.118770 0.000000 
#    z 0.000000 0.000000 2.952780 
# 
# 
# High freq. dielectric constant tensor:
#      x y z
#    x 1.630350 0.000000 0.000000 
#    y 0.000000 1.630340 0.000000 
#    z 0.000000 0.000000 1.636580 
# 
# From -- ./inp_files/3756.got.cif
#   From: 2010.03.12/outbox.cif.g09.slc.cpg/sg162_2_cif.got.tgz:3756.got - 2010.04.02 06:27:41.
