data_PCOD8322646
_publ_section_title
;
Structure prediction by ZEFSAII (Michael W. Deem and Ramdas Pophale) SiO2 
 PCOD8322646
Probable space group: P 3 M 1
;
_chemical_formula_sum "Si O2"
_cell_formula_units_Z 30
_cell_length_a 21.102980
_cell_length_b 21.102980
_cell_length_c 5.204822
_cell_angle_alpha 90.000000
_cell_angle_beta 90.000000
_cell_angle_gamma 120.000000
_cell_volume 2007.354556
_symmetry_space_group_name_H-M "P 3 M 1"
_symmetry_group_IT_number 156
_symmetry_cell_setting 'hexagonal'
loop_
_space_group_symop_operation_xyz
x,y,z
-y,x-y,z
-x+y,-x,z
-x+y,y,z
x,x-y,z
-y,-x,z
loop_
_atom_site_type_symbol
_atom_site_label
_atom_site_fract_x
_atom_site_fract_y
_atom_site_fract_z
Si Si1 0.582850 0.864994 0.135650
Si Si2 0.516425 0.627155 0.634599
Si Si3 0.893325 0.255106 0.657846
Si Si4 0.974557 0.305009 0.164136
Si Si5 0.455419 0.402469 0.476938
O O1 0.600480 0.800240 0.117267
O O2 0.538036 0.856890 0.393686
O O3 0.662186 0.938883 0.133833
O O4 0.533941 0.861460 0.895375
O O5 0.429914 0.570087 0.622529
O O6 0.560928 0.583655 0.634156
O O7 0.812491 0.187510 0.644600
O O8 0.888987 0.330210 0.636421
O O9 0.943318 0.254364 0.420868
O O10 0.931881 0.254758 0.922570
O O11 0.960707 0.374564 0.200793
O O12 0.541395 0.458606 0.434491
#
# Coordination Sequence:
#
# PCOD8322646 Si02
#       5
#     6   6   6   6   6
#     4  11  19  32  50  71  94 123 155 202 244 279
#     4  10  19  32  48  68  93 123 162 200 232 282
#     4  10  18  30  47  66  96 124 150 188 232 276
#     4   9  18  31  43  70  92 116 158 181 240 275
#     4   8  17  29  46  67  91 116 158 197 224 266
#
# _framework density 14.945043
#
# number of rings (size 3 to 8) (size 9 to 14) (size 15 to 20)
#    1.200    1.200    2.000    1.800    0.000    1.600 
#    0.000    0.000    0.000    8.400    0.000    1.400 
#    0.000    0.000    0.000   12.000    0.000    0.000 
#
# Total GULP energy -371659.661549 kJ/mol
# GULP energy per Si atom -12388.655385 kJ/mol
# Density = 1.491103 g / cm^3
# Si number density = 14.945043 Si / 1000 Ang^3
#
#
#
# Elastic Constant Matrix: (Units=GPa)
#
#
# Indices 1 2 3 4 5 6 
#
# 1 81.9579 43.9614 29.6288 0.7759 -0.0002 0.0000
# 2 43.9614 81.9579 29.6288 -0.7759 0.0002 0.0000
# 3 29.6288 29.6288 106.0733 0.0000 0.0000 0.0000
# 4 0.7759 -0.7759 0.0000 14.9849 0.0000 0.0002
# 5 -0.0002 0.0002 0.0000 0.0000 14.9849 0.7759
# 6 0.0000 0.0000 0.0000 0.0002 0.7759 18.9982
#
#
#
# Elastic Compliance Matrix: (Units=1/GPa)
#
#
# Indices 1 2 3 4 5 6 
#
# 1 0.017759 -0.008615 -0.002554 -0.001366 0.000000 0.000000
# 2 -0.008615 0.017759 -0.002554 0.001366 0.000000 0.000000
# 3 -0.002554 -0.002554 0.010854 0.000000 0.000000 0.000000
# 4 -0.001366 0.001366 0.000000 0.066875 0.000000 -0.000001
# 5 0.000000 0.000000 0.000000 0.000000 0.066875 -0.002731
# 6 0.000000 0.000000 0.000000 -0.000001 -0.002731 0.052748
#
#
# Mechanical properties :
#
#
# Convention : Reuss Voigt Hill
#
# Bulk Modulus (GPa) = 52.83946 52.93633 52.88790
# Shear Modulus (GPa) = 18.75292 20.91161 19.83226
#
# Velocity S-wave (km/s) = 3.54615 3.74469 3.64677
# Velocity P-wave (km/s) = 7.22492 7.36169 7.29363
#
# Compressibility (1/GPa) = 0.01892525
#
# Stress axis : x y z
#
# Youngs Moduli (GPa) = 56.31025 56.31025 92.12993
#
# Poissons Ratio (x) = 0.48513 0.23530
# Poissons Ratio (y) = 0.48513 0.23530
# Poissons Ratio (z) = 0.14382 0.14382
#
# Static dielectric constant tensor:
#      x y z
#    x 2.657270 0.000000 0.000000 
#    y 0.000000 2.657270 0.000000 
#    z 0.000000 0.000000 2.974190 
# 
# 
# High freq. dielectric constant tensor:
#      x y z
#    x 1.540410 0.000000 0.000000 
#    y 0.000000 1.540410 0.000000 
#    z 0.000000 0.000000 1.590670 
# 
# From -- ./inp_files/112.got.cif
#   From: 2010.03.12/outbox.cif.g09.slc.cpg/sg156_cif.got.tgz:112.got - 2010.04.03 13:58:47.
