data_PCOD8322504
_publ_section_title
;
Structure prediction by ZEFSAII (Michael W. Deem and Ramdas Pophale) SiO2 
 PCOD8322504
Probable space group: R 3 2
;
_chemical_formula_sum "Si O2"
_cell_formula_units_Z 108
_cell_length_a 22.237012
_cell_length_b 22.237012
_cell_length_c 14.299080
_cell_angle_alpha 90.000000
_cell_angle_beta 90.000000
_cell_angle_gamma 120.000000
_cell_volume 6123.385317
_symmetry_space_group_name_H-M "R 3 2"
_symmetry_group_IT_number 155
_symmetry_cell_setting 'hexagonal'
loop_
_space_group_symop_operation_xyz
x,y,z
-y,x-y,z
-x+y,-x,z
x-y,-y,-z
-x,-x+y,-z
y,x,-z
2/3+x,1/3+y,1/3+z
2/3-y,1/3+x-y,1/3+z
2/3-x+y,1/3-x,1/3+z
2/3+x-y,1/3-y,1/3-z
2/3-x,1/3-x+y,1/3-z
2/3+y,1/3+x,1/3-z
1/3+x,2/3+y,2/3+z
1/3-y,2/3+x-y,2/3+z
1/3-x+y,2/3-x,2/3+z
1/3+x-y,2/3-y,2/3-z
1/3-x,2/3-x+y,2/3-z
1/3+y,2/3+x,2/3-z
loop_
_atom_site_type_symbol
_atom_site_label
_atom_site_fract_x
_atom_site_fract_y
_atom_site_fract_z
Si Si1 0.745990 0.492874 0.065849
Si Si2 0.938542 0.194190 0.632352
Si Si3 0.587672 0.754425 0.086385
Si Si4 0.920678 0.080218 0.767483
Si Si5 0.087758 0.254338 0.080282
Si Si6 0.255648 0.061459 0.132352
O O1 0.666667 0.431891 0.083332
O O2 0.796614 0.463280 0.083332
O O3 0.760818 0.553481 0.138039
O O4 0.766788 0.528843 0.962396
O O5 0.903307 0.236640 0.666667
O O6 0.926484 0.164663 0.528081
O O7 0.905849 0.125997 0.695295
O O8 0.021663 0.246901 0.640314
O O9 0.666667 0.818295 0.083334
O O10 0.899880 0.095388 0.870937
O O11 0.021662 0.246900 0.140314
O O12 0.073516 0.238179 0.971919
O O13 0.333334 0.096695 0.166667
#
# Coordination Sequence:
#
# PCOD8322504 Si02
#       6
#    18  18  18  18  18  18
#     4  10  21  37  55  79 110 150 187 225 268 324
#     4  10  20  32  53  85 117 141 174 225 284 335
#     4  10  20  31  53  85 113 142 177 223 282 334
#     4  10  21  37  55  79 110 150 187 225 268 324
#     4  10  20  31  53  85 113 142 177 223 282 334
#     4  10  20  32  53  85 117 141 174 225 284 335
#
# _framework density 17.637302999999999
#
# number of rings (size 3 to 8) (size 9 to 14) (size 15 to 20)
#    0.000    2.000    3.333    0.333    4.667    1.333 
#    0.000    0.000    0.000    6.000    0.000    0.000 
#    0.000    0.000    0.000    0.000    0.000    0.000 
#
# Total GULP energy -446008.774439 kJ/mol
# GULP energy per Si atom -12389.132623 kJ/mol
# Density = 1.759716 g / cm^3
# Si number density = 17.637303 Si / 1000 Ang^3
#
#
#
# Elastic Constant Matrix: (Units=GPa)
#
#
# Indices 1 2 3 4 5 6 
#
# 1 98.9235 50.5562 36.2673 -3.9588 0.0000 0.0000
# 2 50.5562 98.9235 36.2673 3.9588 0.0000 0.0000
# 3 36.2673 36.2673 84.1480 0.0000 0.0000 0.0000
# 4 -3.9588 3.9588 0.0000 21.3053 0.0000 0.0000
# 5 0.0000 0.0000 0.0000 0.0000 21.3053 -3.9588
# 6 0.0000 0.0000 0.0000 0.0000 -3.9588 24.1836
#
#
#
# Elastic Compliance Matrix: (Units=1/GPa)
#
#
# Indices 1 2 3 4 5 6 
#
# 1 0.014891 -0.006432 -0.003646 0.003962 0.000000 0.000000
# 2 -0.006432 0.014891 -0.003646 -0.003962 0.000000 0.000000
# 3 -0.003646 -0.003646 0.015026 0.000000 0.000000 0.000000
# 4 0.003962 -0.003962 0.000000 0.048409 0.000000 0.000000
# 5 0.000000 0.000000 0.000000 0.000000 0.048409 0.007924
# 6 0.000000 0.000000 0.000000 0.000000 0.007924 0.042647
#
#
# Mechanical properties :
#
#
# Convention : Reuss Voigt Hill
#
# Bulk Modulus (GPa) = 57.59937 58.68630 58.14283
# Shear Modulus (GPa) = 22.98747 23.95246 23.46997
#
# Velocity S-wave (km/s) = 3.61410 3.68918 3.65183
# Velocity P-wave (km/s) = 7.08126 7.17586 7.12872
#
# Compressibility (1/GPa) = 0.01736130
#
# Stress axis : x y z
#
# Youngs Moduli (GPa) = 67.15305 67.15305 66.54935
#
# Poissons Ratio (x) = 0.43195 0.24262
# Poissons Ratio (y) = 0.43195 0.24262
# Poissons Ratio (z) = 0.24482 0.24482
#
# Static dielectric constant tensor:
#      x y z
#    x 3.084710 0.000000 0.000000 
#    y 0.000000 3.084710 0.000000 
#    z 0.000000 0.000000 3.663320 
# 
# 
# High freq. dielectric constant tensor:
#      x y z
#    x 1.658090 0.000000 0.000000 
#    y 0.000000 1.658090 0.000000 
#    z 0.000000 0.000000 1.708540 
# 
# From -- ./inp_files/5146.got.cif
#   From: 2010.03.12/outbox.cif.g09.slc.cpg/sg155_3_cif.got.tgz:5146.got - 2010.04.03 13:54:13.
