data_PCOD8322866
_publ_section_title
;
Structure prediction by ZEFSAII (Michael W. Deem and Ramdas Pophale) SiO2 
 PCOD8322866
Probable space group: R 3 M
;
_chemical_formula_sum "Si O2"
_cell_formula_units_Z 51
_cell_length_a 11.382568
_cell_length_b 11.382568
_cell_length_c 27.122689
_cell_angle_alpha 90.000000
_cell_angle_beta 90.000000
_cell_angle_gamma 120.000000
_cell_volume 3043.293811
_symmetry_space_group_name_H-M "R 3 M"
_symmetry_group_IT_number 160
_symmetry_cell_setting 'hexagonal'
loop_
_space_group_symop_operation_xyz
x,y,z
-y,x-y,z
-x+y,-x,z
-x+y,y,z
x,x-y,z
-y,-x,z
2/3+x,1/3+y,1/3+z
2/3-y,1/3+x-y,1/3+z
2/3-x+y,1/3-x,1/3+z
2/3-x+y,1/3+y,1/3+z
2/3+x,1/3+x-y,1/3+z
2/3-y,1/3-x,1/3+z
1/3+x,2/3+y,2/3+z
1/3-y,2/3+x-y,2/3+z
1/3-x+y,2/3-x,2/3+z
1/3-x+y,2/3+y,2/3+z
1/3+x,2/3+x-y,2/3+z
1/3-y,2/3-x,2/3+z
loop_
_atom_site_type_symbol
_atom_site_label
_atom_site_fract_x
_atom_site_fract_y
_atom_site_fract_z
Si Si1 0.912911 0.087090 0.725816
Si Si2 0.039950 0.519975 0.970086
Si Si3 0.823245 0.176756 0.821421
Si Si4 0.000000 0.000000 0.466190
Si Si5 0.333333 0.666667 0.016900
Si Si6 0.398843 0.328913 0.542811
O O1 0.877059 0.122942 0.672911
O O2 0.855594 0.144407 0.767345
O O3 0.077081 0.154161 0.729995
O O4 0.179537 0.589769 0.999450
O O5 0.033486 0.632315 0.934786
O O6 0.742396 0.257605 0.820128
O O7 0.961860 0.262405 0.851033
O O8 0.000000 0.000000 0.408277
O O9 0.391532 0.195766 0.517450
O O10 0.548464 0.451537 0.534799
#
# Coordination Sequence:
#
# PCOD8322866 Si02
#       6
#     9   9   9   3   3  18
#     4  10  24  38  55  83 121 156 201 236 312 365
#     4  10  19  36  61  84 112 146 195 261 288 356
#     4  12  22  38  58  86 123 160 197 251 297 368
#     4  12  21  36  57  93 108 153 207 246 297 352
#     4  12  18  36  63  84 108 141 204 258 306 331
#     4  10  21  36  60  86 118 151 202 243 300 356
#
# _framework density 16.758158000000002
#
# number of rings (size 3 to 8) (size 9 to 14) (size 15 to 20)
#    1.412    0.000    5.294    1.412    2.471    0.000 
#    4.235    0.000    0.000    0.000    0.000    0.000 
#    0.000    0.000    0.000    0.000    0.000    0.000 
#
# Total GULP energy -210696.355290 kJ/mol
# GULP energy per Si atom -12393.903252 kJ/mol
# Density = 1.672002 g / cm^3
# Si number density = 16.758158 Si / 1000 Ang^3
#
#
#
# Elastic Constant Matrix: (Units=GPa)
#
#
# Indices 1 2 3 4 5 6 
#
# 1 94.2696 20.2299 22.1026 -2.8472 0.0000 -0.0002
# 2 20.2299 94.2696 22.1026 2.8472 0.0000 0.0004
# 3 22.1026 22.1026 66.9385 0.0000 0.0001 -0.0002
# 4 -2.8472 2.8472 0.0000 33.8263 0.0000 0.0002
# 5 0.0000 0.0000 0.0001 0.0000 33.8263 -2.8472
# 6 -0.0002 0.0004 -0.0002 0.0002 -2.8472 37.0199
#
#
#
# Elastic Compliance Matrix: (Units=1/GPa)
#
#
# Indices 1 2 3 4 5 6 
#
# 1 0.011802 -0.001792 -0.003305 0.001144 0.000000 0.000000
# 2 -0.001792 0.011802 -0.003305 -0.001144 0.000000 0.000000
# 3 -0.003305 -0.003305 0.017122 0.000000 0.000000 0.000000
# 4 0.001144 -0.001144 0.000000 0.029755 0.000000 0.000000
# 5 0.000000 0.000000 0.000000 0.000000 0.029755 0.002288
# 6 0.000000 0.000000 0.000000 0.000000 0.002288 0.027189
#
#
# Mechanical properties :
#
#
# Convention : Reuss Voigt Hill
#
# Bulk Modulus (GPa) = 41.80495 42.70532 42.25513
# Shear Modulus (GPa) = 32.85074 33.67069 33.26071
#
# Velocity S-wave (km/s) = 4.43231 4.48729 4.45988
# Velocity P-wave (km/s) = 7.15500 7.23784 7.19654
#
# Compressibility (1/GPa) = 0.02392061
#
# Stress axis : x y z
#
# Youngs Moduli (GPa) = 84.73153 84.73157 58.40531
#
# Poissons Ratio (x) = 0.15186 0.19304
# Poissons Ratio (y) = 0.15186 0.19304
# Poissons Ratio (z) = 0.28005 0.28005
#
# Static dielectric constant tensor:
#      x y z
#    x 3.037620 0.000000 0.000000 
#    y 0.000000 3.037620 0.000000 
#    z 0.000000 0.000000 3.052900 
# 
# 
# High freq. dielectric constant tensor:
#      x y z
#    x 1.644480 0.000000 0.000000 
#    y 0.000000 1.644480 0.000000 
#    z 0.000000 0.000000 1.642910 
# 
# From -- ./inp_files/3164.got.cif
#   From: 2010.03.12/outbox.cif.g09.slc.cpg/sg160_2_cif.got.tgz:3164.got - 2010.04.02 06:26:15.
