data_PCOD8322343
_publ_section_title
;
Structure prediction by ZEFSAII (Michael W. Deem and Ramdas Pophale) SiO2 
 PCOD8322343
Probable space group: P 32 2 1
;
_chemical_formula_sum "Si O2"
_cell_formula_units_Z 45
_cell_length_a 11.550123
_cell_length_b 11.550123
_cell_length_c 18.170969
_cell_angle_alpha 90.000000
_cell_angle_beta 90.000000
_cell_angle_gamma 120.000000
_cell_volume 2099.335924
_symmetry_space_group_name_H-M "P 32 2 1"
_symmetry_group_IT_number 154
_symmetry_cell_setting 'hexagonal'
loop_
_space_group_symop_operation_xyz
x,y,z
-y,x-y,2/3+z
-x+y,-x,1/3+z
x-y,-y,1/3-z
-x,-x+y,2/3-z
y,x,-z
loop_
_atom_site_type_symbol
_atom_site_label
_atom_site_fract_x
_atom_site_fract_y
_atom_site_fract_z
Si Si1 0.294780 0.860251 0.953335
Si Si2 0.271931 0.832068 0.402921
Si Si3 0.681558 0.143122 0.342088
Si Si4 0.151122 0.243045 0.845535
Si Si5 0.894407 0.186246 0.446588
Si Si6 0.144797 0.803977 0.805229
Si Si7 0.271272 0.271272 0.000000
Si Si8 0.682543 0.139897 0.924844
O O1 0.380792 0.789210 0.976868
O O2 0.237958 0.808535 0.872014
O O3 0.359430 0.019198 0.965213
O O4 0.178440 0.796230 0.013535
O O5 0.234533 0.841785 0.485740
O O6 0.379663 0.780860 0.406170
O O7 0.135732 0.726197 0.358014
O O8 0.830356 0.215995 0.375191
O O9 0.692514 0.126985 0.254403
O O10 0.590793 0.012084 0.390497
O O11 0.181991 0.151228 0.791030
O O12 0.172660 0.215110 0.930101
O O13 0.249092 0.399147 0.821904
O O14 0.000000 0.207492 0.833334
O O15 0.051990 0.265443 0.433945
O O16 0.000000 0.770049 0.833334
#
# Coordination Sequence:
#
# PCOD8322343 Si02
#       8
#     6   6   6   6   6   6   3   6
#     4  10  21  38  60  89 124 163 207 262 315 377
#     4   9  20  38  62  86 124 164 204 264 312 378
#     4  10  21  38  59  88 123 164 207 252 313 384
#     4  10  20  37  62  98 131 171 207 269 332 384
#     4   9  20  37  60  89 128 163 204 258 323 371
#     4  11  20  37  63  94 121 159 214 263 315 387
#     4  10  20  40  62  94 132 164 226 264 312 402
#     4  10  20  39  60  85 126 166 203 259 320 368
#
# _framework density 21.435351000000001
#
# number of rings (size 3 to 8) (size 9 to 14) (size 15 to 20)
#    0.000    2.133    1.333    1.600    0.000    1.067 
#    9.600    2.000    0.000    0.000    0.000    0.000 
#    0.000    0.000    0.000    0.000    0.000    0.000 
#
# Total GULP energy -557523.161119 kJ/mol
# GULP energy per Si atom -12389.403580 kJ/mol
# Density = 2.138656 g / cm^3
# Si number density = 21.435351 Si / 1000 Ang^3
#
#
#
# Elastic Constant Matrix: (Units=GPa)
#
#
# Indices 1 2 3 4 5 6 
#
# 1 93.6222 36.7986 34.6073 4.2905 0.0000 0.0000
# 2 36.7986 93.6222 34.6073 -4.2905 0.0000 0.0000
# 3 34.6073 34.6073 87.6421 0.0000 0.0000 0.0000
# 4 4.2905 -4.2905 0.0000 24.9706 0.0000 0.0000
# 5 0.0000 0.0000 0.0000 0.0000 24.9706 4.2905
# 6 0.0000 0.0000 0.0000 0.0000 4.2905 28.4118
#
#
#
# Elastic Compliance Matrix: (Units=1/GPa)
#
#
# Indices 1 2 3 4 5 6 
#
# 1 0.013884 -0.004183 -0.003830 -0.003104 0.000000 0.000000
# 2 -0.004183 0.013884 -0.003830 0.003104 0.000000 0.000000
# 3 -0.003830 -0.003830 0.014435 0.000000 0.000000 0.000000
# 4 -0.003104 0.003104 0.000000 0.041114 0.000000 0.000000
# 5 0.000000 0.000000 0.000000 0.000000 0.041114 -0.006209
# 6 0.000000 0.000000 0.000000 0.000000 -0.006209 0.036134
#
#
# Mechanical properties :
#
#
# Convention : Reuss Voigt Hill
#
# Bulk Modulus (GPa) = 54.01272 54.10143 54.05708
# Shear Modulus (GPa) = 26.25717 26.92880 26.59299
#
# Velocity S-wave (km/s) = 3.50372 3.54825 3.52606
# Velocity P-wave (km/s) = 6.45141 6.48698 6.46922
#
# Compressibility (1/GPa) = 0.01851416
#
# Stress axis : x y z
#
# Youngs Moduli (GPa) = 72.02696 72.02696 69.27592
#
# Poissons Ratio (x) = 0.30132 0.26535
# Poissons Ratio (y) = 0.30132 0.26535
# Poissons Ratio (z) = 0.27589 0.27589
#
# Static dielectric constant tensor:
#      x y z
#    x 3.857600 0.000000 0.000000 
#    y 0.000000 3.857600 0.000000 
#    z 0.000000 0.000000 3.796740 
# 
# 
# High freq. dielectric constant tensor:
#      x y z
#    x 1.829890 0.000000 0.000000 
#    y 0.000000 1.829890 0.000000 
#    z 0.000000 0.000000 1.843290 
# 
# From -- ./inp_files/2522.got.cif
#   From: 2010.03.12/outbox.cif.g09.slc.cpg/sg154_2_cif.got.tgz:2522.got - 2010.04.03 13:51:21.
