data_PCOD8322563
_publ_section_title
;
Structure prediction by ZEFSAII (Michael W. Deem and Ramdas Pophale) SiO2 
 PCOD8322563
Probable space group: R 3 2
;
_chemical_formula_sum "Si O2"
_cell_formula_units_Z 108
_cell_length_a 22.348002
_cell_length_b 22.348002
_cell_length_c 12.064871
_cell_angle_alpha 90.000000
_cell_angle_beta 90.000000
_cell_angle_gamma 120.000000
_cell_volume 5218.320119
_symmetry_space_group_name_H-M "R 3 2"
_symmetry_group_IT_number 155
_symmetry_cell_setting 'hexagonal'
loop_
_space_group_symop_operation_xyz
x,y,z
-y,x-y,z
-x+y,-x,z
x-y,-y,-z
-x,-x+y,-z
y,x,-z
2/3+x,1/3+y,1/3+z
2/3-y,1/3+x-y,1/3+z
2/3-x+y,1/3-x,1/3+z
2/3+x-y,1/3-y,1/3-z
2/3-x,1/3-x+y,1/3-z
2/3+y,1/3+x,1/3-z
1/3+x,2/3+y,2/3+z
1/3-y,2/3+x-y,2/3+z
1/3-x+y,2/3-x,2/3+z
1/3+x-y,2/3-y,2/3-z
1/3-x,2/3-x+y,2/3-z
1/3+y,2/3+x,2/3-z
loop_
_atom_site_type_symbol
_atom_site_label
_atom_site_fract_x
_atom_site_fract_y
_atom_site_fract_z
Si Si1 0.491650 0.411751 0.535485
Si Si2 0.825215 0.414036 0.352062
Si Si3 0.826599 0.077560 0.827371
Si Si4 0.695907 0.742020 0.712186
Si Si5 0.281082 0.139477 0.429126
Si Si6 0.251545 0.080441 0.653046
O O1 0.462916 0.462916 0.500000
O O2 0.560796 0.424732 0.470824
O O3 0.431449 0.333598 0.517238
O O4 0.513045 0.419957 0.665442
O O5 0.798327 0.333334 0.333334
O O6 0.761333 0.428000 0.333334
O O7 0.884614 0.461531 0.268170
O O8 0.789480 0.123130 0.840764
O O9 0.879166 0.100896 0.723656
O O10 0.662045 0.666667 0.666667
O O11 0.666667 0.742469 0.833334
O O12 0.673649 0.784423 0.631726
O O13 0.779850 0.777208 0.701146
O O14 0.232519 0.084010 0.523414
O O15 0.333334 0.118592 0.666667
#
# Coordination Sequence:
#
# PCOD8322563 Si02
#       6
#    18  18  18  18  18  18
#     4  11  23  42  59  90 122 160 208 261 314 381
#     4  10  22  40  64  91 119 155 203 267 326 382
#     4  10  22  39  60  84 122 158 204 261 308 378
#     4  11  21  35  59  89 128 164 200 252 313 381
#     4  11  22  39  56  85 122 162 209 248 312 370
#     4   9  20  38  54  85 119 156 202 248 303 370
#
# _framework density 20.696315999999999
#
# number of rings (size 3 to 8) (size 9 to 14) (size 15 to 20)
#    0.000    1.667    1.667    4.167    2.333    1.333 
#    9.000    0.000    0.000    0.000    0.000    0.000 
#    0.000    0.000    0.000    0.000    0.000    0.000 
#
# Total GULP energy -446075.910121 kJ/mol
# GULP energy per Si atom -12390.997503 kJ/mol
# Density = 2.064921 g / cm^3
# Si number density = 20.696316 Si / 1000 Ang^3
#
#
#
# Elastic Constant Matrix: (Units=GPa)
#
#
# Indices 1 2 3 4 5 6 
#
# 1 74.0156 37.3949 26.1991 2.2416 -0.0002 0.0000
# 2 37.3949 74.0156 26.1992 -2.2416 0.0002 0.0000
# 3 26.1991 26.1992 157.1126 0.0000 0.0001 0.0000
# 4 2.2416 -2.2416 0.0000 29.8393 0.0000 0.0002
# 5 -0.0002 0.0002 0.0001 0.0000 29.8393 2.2416
# 6 0.0000 0.0000 0.0000 0.0002 2.2416 18.3104
#
#
#
# Elastic Compliance Matrix: (Units=1/GPa)
#
#
# Indices 1 2 3 4 5 6 
#
# 1 0.018650 -0.008910 -0.001624 -0.002070 0.000000 0.000000
# 2 -0.008910 0.018650 -0.001624 0.002070 0.000000 0.000000
# 3 -0.001624 -0.001624 0.006907 0.000000 0.000000 0.000000
# 4 -0.002070 0.002070 0.000000 0.033824 0.000000 0.000000
# 5 0.000000 0.000000 0.000000 0.000000 0.033824 -0.004141
# 6 0.000000 0.000000 0.000000 0.000000 -0.004141 0.055121
#
#
# Mechanical properties :
#
#
# Convention : Reuss Voigt Hill
#
# Bulk Modulus (GPa) = 50.27815 53.85889 52.06852
# Shear Modulus (GPa) = 25.26244 29.95450 27.60847
#
# Velocity S-wave (km/s) = 3.49753 3.80851 3.65633
# Velocity P-wave (km/s) = 6.37623 6.73941 6.56033
#
# Compressibility (1/GPa) = 0.01988936
#
# Stress axis : x y z
#
# Youngs Moduli (GPa) = 53.61922 53.61921 144.79068
#
# Poissons Ratio (x) = 0.47777 0.23516
# Poissons Ratio (y) = 0.47777 0.23516
# Poissons Ratio (z) = 0.08708 0.08708
#
# Static dielectric constant tensor:
#      x y z
#    x 3.770300 0.000000 0.000000 
#    y 0.000000 3.770300 0.000000 
#    z 0.000000 0.000000 4.178420 
# 
# 
# High freq. dielectric constant tensor:
#      x y z
#    x 1.789280 0.000000 0.000000 
#    y 0.000000 1.789280 0.000000 
#    z 0.000000 0.000000 1.826880 
# 
# From -- ./inp_files/4073.got.cif
#   From: 2010.03.12/outbox.cif.g09.slc.cpg/sg155_3_cif.got.tgz:4073.got - 2010.04.03 13:54:13.
