data_PCOD8322093
_publ_section_title
;
Structure prediction by ZEFSAII (Michael W. Deem and Ramdas Pophale) SiO2 
 PCOD8322093
Probable space group: P 31 2 1
;
_chemical_formula_sum "Si O2"
_cell_formula_units_Z 30
_cell_length_a 17.547117
_cell_length_b 17.547117
_cell_length_c 5.502646
_cell_angle_alpha 90.000000
_cell_angle_beta 90.000000
_cell_angle_gamma 120.000000
_cell_volume 1467.282540
_symmetry_space_group_name_H-M "P 31 2 1"
_symmetry_group_IT_number 152
_symmetry_cell_setting 'hexagonal'
loop_
_space_group_symop_operation_xyz
x,y,z
-y,x-y,1/3+z
-x+y,-x,2/3+z
x-y,-y,2/3-z
-x,-x+y,1/3-z
y,x,-z
loop_
_atom_site_type_symbol
_atom_site_label
_atom_site_fract_x
_atom_site_fract_y
_atom_site_fract_z
Si Si1 0.901920 0.384654 0.910030
Si Si2 0.423502 0.374623 0.240061
Si Si3 0.741306 0.327949 0.195078
Si Si4 0.230737 0.784819 0.452531
Si Si5 0.968545 0.281179 0.411233
O O1 0.928659 0.480300 0.810749
O O2 0.831509 0.302915 0.753641
O O3 0.989015 0.376780 0.938936
O O4 0.846601 0.374400 0.155294
O O5 0.401913 0.401913 0.500000
O O6 0.412252 0.279777 0.306063
O O7 0.363278 0.363278 0.000000
O O8 0.718790 0.401359 0.290974
O O9 0.719800 0.253396 0.395936
O O10 0.231856 0.863339 0.609929
O O11 0.000000 0.258007 0.666667
O O12 0.000000 0.251796 0.166667
#
# Coordination Sequence:
#
# PCOD8322093 Si02
#       5
#     6   6   6   6   6
#     4  11  23  40  62  84 118 159 222 272 312 370
#     4  12  28  42  62  93 129 170 213 265 336 392
#     4  12  23  35  54  84 119 165 216 273 325 377
#     4  11  24  41  61  81 120 164 216 268 324 381
#     4  10  20  37  61  85 106 150 204 267 300 356
#
# _framework density 20.445962000000002
#
# number of rings (size 3 to 8) (size 9 to 14) (size 15 to 20)
#    0.000    0.800    2.000    7.200    8.400    0.000 
#    0.000    0.000    0.000    0.000    0.000    0.000 
#    0.000    0.000    0.000  102.600    0.000    0.600 
#
# Total GULP energy -371647.103443 kJ/mol
# GULP energy per Si atom -12388.236781 kJ/mol
# Density = 2.039943 g / cm^3
# Si number density = 20.445962 Si / 1000 Ang^3
#
#
#
# Elastic Constant Matrix: (Units=GPa)
#
#
# Indices 1 2 3 4 5 6 
#
# 1 90.5207 41.5886 29.7665 -3.1525 0.0000 0.0000
# 2 41.5886 90.5207 29.7665 3.1525 0.0000 0.0000
# 3 29.7665 29.7665 117.4717 0.0000 0.0000 0.0000
# 4 -3.1525 3.1525 0.0000 26.2875 0.0000 0.0000
# 5 0.0000 0.0000 0.0000 0.0000 26.2875 -3.1525
# 6 0.0000 0.0000 0.0000 0.0000 -3.1525 24.4660
#
#
#
# Elastic Compliance Matrix: (Units=1/GPa)
#
#
# Indices 1 2 3 4 5 6 
#
# 1 0.014651 -0.006106 -0.002165 0.002489 0.000000 0.000000
# 2 -0.006106 0.014651 -0.002165 -0.002489 0.000000 0.000000
# 3 -0.002165 -0.002165 0.009610 0.000000 0.000000 0.000000
# 4 0.002489 -0.002489 0.000000 0.038638 0.000000 0.000000
# 5 0.000000 0.000000 0.000000 0.000000 0.038638 0.004979
# 6 0.000000 0.000000 0.000000 0.000000 0.004979 0.041515
#
#
# Mechanical properties :
#
#
# Convention : Reuss Voigt Hill
#
# Bulk Modulus (GPa) = 55.43450 55.63961 55.53705
# Shear Modulus (GPa) = 27.08716 28.56763 27.82739
#
# Velocity S-wave (km/s) = 3.64375 3.74200 3.69320
# Velocity P-wave (km/s) = 6.69882 6.77807 6.73856
#
# Compressibility (1/GPa) = 0.01803931
#
# Stress axis : x y z
#
# Youngs Moduli (GPa) = 68.25352 68.25352 104.05783
#
# Poissons Ratio (x) = 0.41676 0.22532
# Poissons Ratio (y) = 0.41676 0.22532
# Poissons Ratio (z) = 0.14779 0.14779
#
# Static dielectric constant tensor:
#      x y z
#    x 3.628190 0.000000 0.000000 
#    y 0.000000 3.628190 0.000000 
#    z 0.000000 0.000000 4.410870 
# 
# 
# High freq. dielectric constant tensor:
#      x y z
#    x 1.766310 0.000000 0.000000 
#    y 0.000000 1.766310 0.000000 
#    z 0.000000 0.000000 1.823350 
# 
# From -- ./inp_files/316.got.cif
#   From: 2010.03.12/outbox.cif.g09.slc.cpg/sg152_1_cif.got.tgz:316.got - 2010.04.03 13:45:27.
