data_PCOD8322969
_publ_section_title
;
Structure prediction by ZEFSAII (Michael W. Deem and Ramdas Pophale) SiO2 
 PCOD8322969
Probable space group: P -3 1 M 
;
_chemical_formula_sum "Si O2"
_cell_formula_units_Z 72
_cell_length_a 26.178947
_cell_length_b 26.178947
_cell_length_c 7.536623
_cell_angle_alpha 90.000000
_cell_angle_beta 90.000000
_cell_angle_gamma 120.000000
_cell_volume 4473.132583
_symmetry_space_group_name_H-M "P -3 1 M "
_symmetry_group_IT_number 162
_symmetry_cell_setting 'hexagonal'
loop_
_space_group_symop_operation_xyz
x,y,z
-y,x-y,z
-x+y,-x,z
-y,-x,-z
-x+y,y,-z
x,x-y,-z
-x,-y,-z
y,-x+y,-z
x-y,x,-z
y,x,z
x-y,-y,z
-x,-x+y,z
loop_
_atom_site_type_symbol
_atom_site_label
_atom_site_fract_x
_atom_site_fract_y
_atom_site_fract_z
Si Si1 0.330086 0.067051 0.797421
Si Si2 0.067179 0.248676 0.500001
Si Si3 0.546424 0.213423 0.500000
Si Si4 0.669914 0.736965 0.202580
Si Si5 0.544069 0.712898 0.798309
Si Si6 0.455931 0.287102 0.798309
O O1 0.288556 0.080436 0.674292
O O2 0.398190 0.107951 0.744154
O O3 0.315192 0.000000 0.770957
O O4 0.319571 0.079732 0.000001
O O5 0.111103 0.222206 0.500000
O O6 0.080436 0.288556 0.325710
O O7 0.000000 0.194600 0.500001
O O8 0.606221 0.212442 0.500000
O O9 0.561458 0.280729 0.500000
O O10 0.509784 0.179245 0.674050
O O11 0.509784 0.179245 0.325950
O O12 0.684808 0.684808 0.229044
O O13 0.601810 0.709761 0.255847
O O14 0.560095 0.780048 0.769304
O O15 0.524773 0.692112 0.000000
#
# Coordination Sequence:
#
# PCOD8322969 Si02
#       6
#    12  12  12  12  12  12
#     4   9  17  29  47  71  96 120 145 176 217 266
#     4  10  19  29  43  65  93 123 154 189 227 264
#     4  10  20  33  48  65  85 111 145 185 225 260
#     4   9  17  29  47  71  96 120 145 176 217 266
#     4   9  17  29  46  67  89 114 144 177 216 264
#     4   9  17  29  46  67  89 114 144 177 216 264
#
# _framework density 16.096101000000001
#
# number of rings (size 3 to 8) (size 9 to 14) (size 15 to 20)
#    0.000    2.667    0.000    2.167    0.000    4.000 
#    0.000    0.000    0.000    4.167    0.000    4.667 
#    0.000    0.000    0.000    8.333    0.000    0.000 
#
# Total GULP energy -892836.170358 kJ/mol
# GULP energy per Si atom -12400.502366 kJ/mol
# Density = 1.605947 g / cm^3
# Si number density = 16.096101 Si / 1000 Ang^3
#
#
#
# Elastic Constant Matrix: (Units=GPa)
#
#
# Indices 1 2 3 4 5 6 
#
# 1 110.5508 60.3626 54.2614 0.0000 -0.0001 0.0000
# 2 60.3626 110.5508 54.2614 0.0000 0.0001 0.0000
# 3 54.2614 54.2614 95.0884 0.0000 0.0000 0.0000
# 4 0.0000 0.0000 0.0000 13.9593 0.0000 0.0001
# 5 -0.0001 0.0001 0.0000 0.0000 13.9593 0.0000
# 6 0.0000 0.0000 0.0000 0.0001 0.0000 25.0941
#
#
#
# Elastic Compliance Matrix: (Units=1/GPa)
#
#
# Indices 1 2 3 4 5 6 
#
# 1 0.014550 -0.005375 -0.005236 0.000000 0.000000 0.000000
# 2 -0.005375 0.014550 -0.005236 0.000000 0.000000 0.000000
# 3 -0.005236 -0.005236 0.016492 0.000000 0.000000 0.000000
# 4 0.000000 0.000000 0.000000 0.071637 0.000000 0.000000
# 5 0.000000 0.000000 0.000000 0.000000 0.071637 0.000000
# 6 0.000000 0.000000 0.000000 0.000000 0.000000 0.039850
#
#
# Mechanical properties :
#
#
# Convention : Reuss Voigt Hill
#
# Bulk Modulus (GPa) = 71.94497 72.66232 72.30365
# Shear Modulus (GPa) = 18.86487 20.42285 19.64386
#
# Velocity S-wave (km/s) = 3.42718 3.56590 3.49723
# Velocity P-wave (km/s) = 7.77528 7.88638 7.83103
#
# Compressibility (1/GPa) = 0.01389951
#
# Stress axis : x y z
#
# Youngs Moduli (GPa) = 68.72735 68.72735 60.63478
#
# Poissons Ratio (x) = 0.36939 0.31748
# Poissons Ratio (y) = 0.36939 0.31748
# Poissons Ratio (z) = 0.35985 0.35985
#
# Static dielectric constant tensor:
#      x y z
#    x 2.890710 0.000000 0.000000 
#    y 0.000000 2.890710 0.000000 
#    z 0.000000 0.000000 3.360200 
# 
# 
# High freq. dielectric constant tensor:
#      x y z
#    x 1.599140 0.000000 0.000000 
#    y 0.000000 1.599140 0.000000 
#    z 0.000000 0.000000 1.639920 
# 
# From -- ./inp_files/1756.got.cif
#   From: 2010.03.12/outbox.cif.g09.slc.cpg/sg162_1_cif.got.tgz:1756.got - 2010.04.02 06:27:41.
