data_PCOD8322375
_publ_section_title
;
Structure prediction by ZEFSAII (Michael W. Deem and Ramdas Pophale) SiO2 
 PCOD8322375
Probable space group: P 32 2 1
;
_chemical_formula_sum "Si O2"
_cell_formula_units_Z 42
_cell_length_a 8.250885
_cell_length_b 8.250885
_cell_length_c 33.162247
_cell_angle_alpha 90.000000
_cell_angle_beta 90.000000
_cell_angle_gamma 120.000000
_cell_volume 1955.130044
_symmetry_space_group_name_H-M "P 32 2 1"
_symmetry_group_IT_number 154
_symmetry_cell_setting 'hexagonal'
loop_
_space_group_symop_operation_xyz
x,y,z
-y,x-y,2/3+z
-x+y,-x,1/3+z
x-y,-y,1/3-z
-x,-x+y,2/3-z
y,x,-z
loop_
_atom_site_type_symbol
_atom_site_label
_atom_site_fract_x
_atom_site_fract_y
_atom_site_fract_z
Si Si1 0.043925 0.497094 0.768039
Si Si2 0.131155 0.304990 0.144841
Si Si3 0.411332 0.411332 0.000000
Si Si4 0.414890 0.212450 0.635142
Si Si5 0.000000 0.739749 0.833334
Si Si6 0.249821 0.178392 0.715927
Si Si7 0.570514 0.939386 0.456490
Si Si8 0.892031 0.747525 0.406950
O O1 0.140864 0.616662 0.728248
O O2 0.179833 0.441566 0.791930
O O3 0.977415 0.614974 0.794476
O O4 0.864647 0.298805 0.756045
O O5 0.110286 0.468034 0.124280
O O6 0.314939 0.383096 0.172416
O O7 0.147073 0.182336 0.109583
O O8 0.945324 0.179794 0.171158
O O9 0.612171 0.430429 0.991476
O O10 0.300280 0.318797 0.959818
O O11 0.314049 0.262339 0.670911
O O12 0.264350 0.020451 0.612385
O O13 0.383621 0.326990 0.749548
O O14 0.047731 0.154187 0.720059
#
# Coordination Sequence:
#
# PCOD8322375 Si02
#       8
#     6   6   3   6   3   6   6   6
#     4  11  23  40  63  90 123 160 203 251 305 370
#     4  12  25  41  64  90 122 162 205 256 312 368
#     4  10  22  38  60  88 120 156 200 250 296 356
#     4  10  21  39  63  88 121 163 200 247 308 365
#     4  12  24  40  64  92 122 158 202 254 310 368
#     4   9  21  41  62  87 123 162 202 249 305 367
#     4  11  24  42  63  89 123 163 206 253 307 370
#     4  11  23  39  61  90 123 158 203 254 300 361
#
# _framework density 21.481945
#
# number of rings (size 3 to 8) (size 9 to 14) (size 15 to 20)
#    0.000    1.429    0.000    6.857    0.000    8.000 
#    0.000    0.000    0.000    0.000    0.000    0.000 
#    0.000    0.000    0.000    0.000    0.000    0.000 
#
# Total GULP energy -520804.090467 kJ/mol
# GULP energy per Si atom -12400.097392 kJ/mol
# Density = 2.143305 g / cm^3
# Si number density = 21.481945 Si / 1000 Ang^3
#
#
#
# Elastic Constant Matrix: (Units=GPa)
#
#
# Indices 1 2 3 4 5 6 
#
# 1 94.0365 30.5031 44.8705 -1.2952 0.0001 0.0000
# 2 30.5031 94.0365 44.8705 1.2952 -0.0001 0.0000
# 3 44.8705 44.8705 119.0151 0.0000 0.0000 0.0000
# 4 -1.2952 1.2952 0.0000 33.6198 0.0000 -0.0001
# 5 0.0001 -0.0001 0.0000 0.0000 33.6198 -1.2952
# 6 0.0000 0.0000 0.0000 -0.0001 -1.2952 31.7667
#
#
#
# Elastic Compliance Matrix: (Units=1/GPa)
#
#
# Indices 1 2 3 4 5 6 
#
# 1 0.013395 -0.002370 -0.004156 0.000607 0.000000 0.000000
# 2 -0.002370 0.013395 -0.004156 -0.000607 0.000000 0.000000
# 3 -0.004156 -0.004156 0.011536 0.000000 0.000000 0.000000
# 4 0.000607 -0.000607 0.000000 0.029791 0.000000 0.000000
# 5 0.000000 0.000000 0.000000 0.000000 0.029791 0.001215
# 6 0.000000 0.000000 0.000000 0.000000 0.001215 0.031529
#
#
# Mechanical properties :
#
#
# Convention : Reuss Voigt Hill
#
# Bulk Modulus (GPa) = 58.96280 60.84181 59.90230
# Shear Modulus (GPa) = 31.95790 32.25754 32.10772
#
# Velocity S-wave (km/s) = 3.86121 3.87927 3.87025
# Velocity P-wave (km/s) = 6.88373 6.96051 6.92223
#
# Compressibility (1/GPa) = 0.01695985
#
# Stress axis : x y z
#
# Youngs Moduli (GPa) = 74.65714 74.65714 86.68227
#
# Poissons Ratio (x) = 0.17693 0.36029
# Poissons Ratio (y) = 0.17693 0.36029
# Poissons Ratio (z) = 0.31031 0.31031
#
# Static dielectric constant tensor:
#      x y z
#    x 3.950950 0.000000 0.000000 
#    y 0.000000 3.950950 0.000000 
#    z 0.000000 0.000000 4.051090 
# 
# 
# High freq. dielectric constant tensor:
#      x y z
#    x 1.844880 0.000000 0.000000 
#    y 0.000000 1.844880 0.000000 
#    z 0.000000 0.000000 1.851480 
# 
# From -- ./inp_files/3843.got.cif
#   From: 2010.03.12/outbox.cif.g09.slc.cpg/sg154_2_cif.got.tgz:3843.got - 2010.04.03 13:51:21.
