data_PCOD8322942
_publ_section_title
;
Structure prediction by ZEFSAII (Michael W. Deem and Ramdas Pophale) SiO2 
 PCOD8322942
Probable space group: P -3 1 M 
;
_chemical_formula_sum "Si O2"
_cell_formula_units_Z 96
_cell_length_a 17.756168
_cell_length_b 17.756168
_cell_length_c 20.732502
_cell_angle_alpha 90.000000
_cell_angle_beta 90.000000
_cell_angle_gamma 120.000000
_cell_volume 5660.839460
_symmetry_space_group_name_H-M "P -3 1 M "
_symmetry_group_IT_number 162
_symmetry_cell_setting 'hexagonal'
loop_
_space_group_symop_operation_xyz
x,y,z
-y,x-y,z
-x+y,-x,z
-y,-x,-z
-x+y,y,-z
x,x-y,-z
-x,-y,-z
y,-x+y,-z
x-y,x,-z
y,x,z
x-y,-y,z
-x,-x+y,z
loop_
_atom_site_type_symbol
_atom_site_label
_atom_site_fract_x
_atom_site_fract_y
_atom_site_fract_z
Si Si1 0.496207 0.331167 0.502435
Si Si2 0.898365 0.268689 0.994954
Si Si3 0.371579 0.102674 0.241102
Si Si4 0.366754 0.100790 0.751142
Si Si5 0.532090 0.632959 0.120811
Si Si6 0.529698 0.898360 0.636661
Si Si7 0.466216 0.365605 0.124640
Si Si8 0.463726 0.101197 0.631623
O O1 0.569130 0.430871 0.500000
O O2 0.536777 0.268389 0.500000
O O3 0.443561 0.314471 0.569385
O O4 0.438115 0.315568 0.438487
O O5 0.881847 0.317032 0.053773
O O6 0.000000 0.293961 0.991336
O O7 0.836443 0.163558 0.000000
O O8 0.863337 0.294144 0.931694
O O9 0.324890 0.161588 0.240053
O O10 0.435368 0.135819 0.179663
O O11 0.433158 0.129531 0.303583
O O12 0.298761 0.000000 0.239147
O O13 0.435782 0.116122 0.806694
O O14 0.422942 0.133951 0.685869
O O15 0.289341 0.000000 0.749396
O O16 0.571307 0.571307 0.134439
O O17 0.426716 0.571580 0.121941
O O18 0.424208 0.855420 0.640804
O O19 0.570483 0.000000 0.637118
O O20 0.426393 0.426393 0.108813
O O21 0.422545 0.000000 0.641051
#
# Coordination Sequence:
#
# PCOD8322942 Si02
#       8
#    12  12  12  12  12  12  12  12
#     4  10  18  27  39  57  84 115 145 175 211 258
#     4  10  19  31  49  72  97 127 164 202 237 275
#     4  10  19  31  48  69  92 119 153 191 229 270
#     4  10  19  31  48  69  92 119 153 191 229 270
#     4   9  17  30  49  70  90 115 148 185 225 271
#     4   9  17  29  45  63  83 111 147 185 224 267
#     4   9  17  30  49  70  90 115 148 185 225 271
#     4   9  17  29  45  63  83 111 147 185 224 267
#
# _framework density 16.958617
#
# number of rings (size 3 to 8) (size 9 to 14) (size 15 to 20)
#    0.000    2.500    0.000    3.125    0.000    6.000 
#    0.000    0.000    0.000   13.875    0.000    0.000 
#    0.000    6.000    0.000    0.000    0.000   26.500 
#
# Total GULP energy -1189570.852355 kJ/mol
# GULP energy per Si atom -12391.363045 kJ/mol
# Density = 1.692002 g / cm^3
# Si number density = 16.958617 Si / 1000 Ang^3
#
#
#
# Elastic Constant Matrix: (Units=GPa)
#
#
# Indices 1 2 3 4 5 6 
#
# 1 55.2905 44.7780 18.2321 -0.0002 -8.4247 0.0000
# 2 44.7780 55.2905 18.2321 0.0002 8.4247 0.0000
# 3 18.2321 18.2321 112.7753 0.0000 0.0000 0.0000
# 4 -0.0002 0.0002 0.0000 -3.4716 0.0000 8.4247
# 5 -8.4247 8.4247 0.0000 0.0000 -3.4716 -0.0002
# 6 0.0000 0.0000 0.0000 8.4247 -0.0002 5.2562
#
#
#
# Elastic Compliance Matrix: (Units=1/GPa)
#
#
# Indices 1 2 3 4 5 6 
#
# 1 0.015037 -0.004418 -0.001717 -0.000001 -0.047212 0.000000
# 2 -0.004418 0.015037 -0.001717 0.000001 0.047212 0.000000
# 3 -0.001717 -0.001717 0.009422 0.000000 0.000000 0.000000
# 4 -0.000001 0.000001 0.000000 -0.058912 0.000000 0.094423
# 5 -0.047212 0.047212 0.000000 0.000000 -0.058912 -0.000002
# 6 0.000000 0.000000 0.000000 0.094423 -0.000002 0.038909
#
#
# Mechanical properties :
#
#
# Convention : Reuss Voigt Hill
#
# Bulk Modulus (GPa) = 42.02940 42.87120 42.45030
# Shear Modulus (GPa) = -316.75655 9.13689 -153.80983
#
# Velocity S-wave (km/s) = -13.68165 2.32367 -9.53384
# Velocity P-wave (km/s) = 14.99153 5.70386 9.80337
#
# Compressibility (1/GPa) = 0.02379287
#
# Stress axis : x y z
#
# Youngs Moduli (GPa) = 66.50420 66.50420 106.13165
#
# Poissons Ratio (x) = 0.29381 0.18220
# Poissons Ratio (y) = 0.29381 0.18220
# Poissons Ratio (z) = 0.11417 0.11417
#
# Static dielectric constant tensor:
#      x y z
#    x 2.848910 0.000000 0.000000 
#    y 0.000000 2.848910 0.000000 
#    z 0.000000 0.000000 3.498400 
# 
# 
# High freq. dielectric constant tensor:
#      x y z
#    x 1.623820 0.000000 0.000000 
#    y 0.000000 1.623820 0.000000 
#    z 0.000000 0.000000 1.680830 
# 
# From -- ./inp_files/3890.got.cif
#   From: 2010.03.12/outbox.cif.g09.slc.cpg/sg162_2_cif.got.tgz:3890.got - 2010.04.02 06:27:41.
