data_PCOD8322842
_publ_section_title
;
Structure prediction by ZEFSAII (Michael W. Deem and Ramdas Pophale) SiO2 
 PCOD8322842
Probable space group: R 3 M
;
_chemical_formula_sum "Si O2"
_cell_formula_units_Z 126
_cell_length_a 21.710976
_cell_length_b 21.710976
_cell_length_c 18.847628
_cell_angle_alpha 90.000000
_cell_angle_beta 90.000000
_cell_angle_gamma 120.000000
_cell_volume 7693.890970
_symmetry_space_group_name_H-M "R 3 M"
_symmetry_group_IT_number 160
_symmetry_cell_setting 'hexagonal'
loop_
_space_group_symop_operation_xyz
x,y,z
-y,x-y,z
-x+y,-x,z
-x+y,y,z
x,x-y,z
-y,-x,z
2/3+x,1/3+y,1/3+z
2/3-y,1/3+x-y,1/3+z
2/3-x+y,1/3-x,1/3+z
2/3-x+y,1/3+y,1/3+z
2/3+x,1/3+x-y,1/3+z
2/3-y,1/3-x,1/3+z
1/3+x,2/3+y,2/3+z
1/3-y,2/3+x-y,2/3+z
1/3-x+y,2/3-x,2/3+z
1/3-x+y,2/3+y,2/3+z
1/3+x,2/3+x-y,2/3+z
1/3-y,2/3-x,2/3+z
loop_
_atom_site_type_symbol
_atom_site_label
_atom_site_fract_x
_atom_site_fract_y
_atom_site_fract_z
Si Si1 0.362301 0.345381 0.491931
Si Si2 0.766222 0.101699 0.755505
Si Si3 0.380942 0.480564 0.573868
Si Si4 0.108893 0.357189 0.260385
Si Si5 0.099494 0.483585 0.305074
Si Si6 0.457956 0.059310 0.357533
Si Si7 0.513998 0.162199 0.108222
O O1 0.279946 0.305688 0.463136
O O2 0.385474 0.417018 0.535281
O O3 0.363500 0.287454 0.543166
O O4 0.420001 0.362141 0.431056
O O5 0.813268 0.186732 0.776052
O O6 0.752137 0.094327 0.671778
O O7 0.814799 0.069491 0.777347
O O8 0.459554 0.540447 0.600249
O O9 0.327530 0.452214 0.640346
O O10 0.355382 0.518680 0.516565
O O11 0.180184 0.360368 0.234289
O O12 0.124952 0.438986 0.257764
O O13 0.106448 0.553224 0.264955
O O14 0.145361 0.514340 0.376694
O O15 0.017261 0.429370 0.321791
O O16 0.538831 0.077661 0.371219
O O17 0.599620 0.199240 0.098473
#
# Coordination Sequence:
#
# PCOD8322842 Si02
#       7
#    18  18  18  18  18  18  18
#     4  11  18  31  48  72  94 129 165 206 245 293
#     4   8  15  27  43  66  96 124 154 197 244 292
#     4  11  20  32  50  71  98 130 167 208 247 292
#     4  10  19  32  47  69 101 131 162 208 252 288
#     4  10  17  29  49  73 100 132 167 199 239 295
#     4  11  21  33  49  73 102 130 163 199 242 297
#     4   9  16  28  47  72  99 128 163 199 239 287
#
# _framework density 16.376629000000001
#
# number of rings (size 3 to 8) (size 9 to 14) (size 15 to 20)
#    0.000    2.000    5.714    2.571    0.000    1.714 
#    0.000    0.000    0.000    8.000    0.000    0.000 
#    0.000    0.000    0.000    0.000    0.000    0.143 
#
# Total GULP energy -520357.498159 kJ/mol
# GULP energy per Si atom -12389.464242 kJ/mol
# Density = 1.633936 g / cm^3
# Si number density = 16.376629 Si / 1000 Ang^3
#
#
#
# Elastic Constant Matrix: (Units=GPa)
#
#
# Indices 1 2 3 4 5 6 
#
# 1 80.2747 45.2995 40.8079 31.4365 -0.0048 0.0000
# 2 45.2995 80.2747 40.8079 -31.4365 0.0048 0.0000
# 3 40.8079 40.8079 69.9410 0.0000 0.0000 0.0000
# 4 31.4365 -31.4365 0.0000 193.0689 0.0000 0.0048
# 5 -0.0048 0.0048 0.0000 0.0000 193.0689 31.4365
# 6 0.0000 0.0000 0.0000 0.0048 31.4365 17.4876
#
#
#
# Elastic Compliance Matrix: (Units=1/GPa)
#
#
# Indices 1 2 3 4 5 6 
#
# 1 0.026626 -0.013798 -0.007485 -0.006582 0.000001 0.000000
# 2 -0.013798 0.026626 -0.007485 0.006582 -0.000001 0.000000
# 3 -0.007485 -0.007485 0.023032 0.000000 0.000000 0.000000
# 4 -0.006582 0.006582 0.000000 0.007323 0.000000 -0.000002
# 5 0.000001 -0.000001 0.000000 0.000000 0.007323 -0.013164
# 6 0.000000 0.000000 0.000000 -0.000002 -0.013164 0.080848
#
#
# Mechanical properties :
#
#
# Convention : Reuss Voigt Hill
#
# Bulk Modulus (GPa) = 53.33566 53.81345 53.57455
# Shear Modulus (GPa) = 21.22592 87.63008 54.42800
#
# Velocity S-wave (km/s) = 3.60406 7.32294 5.77125
# Velocity P-wave (km/s) = 7.06809 10.21919 8.78606
#
# Compressibility (1/GPa) = 0.01874918
#
# Stress axis : x y z
#
# Youngs Moduli (GPa) = 37.55743 37.55743 43.41830
#
# Poissons Ratio (x) = 0.51821 0.32497
# Poissons Ratio (y) = 0.51821 0.32497
# Poissons Ratio (z) = 0.28110 0.28110
#
# Static dielectric constant tensor:
#      x y z
#    x 2.001340 0.000000 0.000000 
#    y 0.000000 2.001340 0.000000 
#    z 0.000000 0.000000 3.046230 
# 
# 
# High freq. dielectric constant tensor:
#      x y z
#    x 1.610270 0.000000 0.000000 
#    y 0.000000 1.610270 0.000000 
#    z 0.000000 0.000000 1.619190 
# 
# From -- ./inp_files/2921.got.cif
#   From: 2010.03.12/outbox.cif.g09.slc.cpg/sg160_2_cif.got.tgz:2921.got - 2010.04.02 06:26:15.
