data_PCOD8322000
_publ_section_title
;
Structure prediction by ZEFSAII (Michael W. Deem and Ramdas Pophale) SiO2 
 PCOD8322000
Probable space group: P 31 1 2
;
_chemical_formula_sum "Si O2"
_cell_formula_units_Z 33
_cell_length_a 11.612426
_cell_length_b 11.612426
_cell_length_c 14.322955
_cell_angle_alpha 90.000000
_cell_angle_beta 90.000000
_cell_angle_gamma 120.000000
_cell_volume 1672.665803
_symmetry_space_group_name_H-M "P 31 1 2"
_symmetry_group_IT_number 151
_symmetry_cell_setting 'hexagonal'
loop_
_space_group_symop_operation_xyz
x,y,z
-y,x-y,1/3+z
-x+y,-x,2/3+z
-y,-x,2/3-z
-x+y,y,1/3-z
x,x-y,-z
loop_
_atom_site_type_symbol
_atom_site_label
_atom_site_fract_x
_atom_site_fract_y
_atom_site_fract_z
Si Si1 0.052351 0.264852 0.347855
Si Si2 0.846320 0.166258 0.183430
Si Si3 0.916425 0.087104 0.673197
Si Si4 0.530135 0.114046 0.768293
Si Si5 0.500799 0.810070 0.597835
Si Si6 0.379805 0.189903 0.500000
O O1 0.084710 0.149279 0.374725
O O2 0.187223 0.398557 0.328525
O O3 0.966126 0.231800 0.255611
O O4 0.967306 0.274315 0.435840
O O5 0.801639 0.273928 0.154713
O O6 0.908233 0.136181 0.094514
O O7 0.878832 0.169799 0.743274
O O8 0.075414 0.150828 0.666667
O O9 0.588368 0.176736 0.666667
O O10 0.650676 0.120306 0.826675
O O11 0.408971 0.964297 0.757156
O O12 0.374976 0.749952 0.666667
O O13 0.464595 0.732298 0.500000
#
# Coordination Sequence:
#
# PCOD8322000 Si02
#       6
#     6   6   6   6   6   3
#     4  11  21  37  66  98 130 160 229 285 348 397
#     4  11  21  38  66 100 126 170 218 284 342 409
#     4  12  21  35  63 101 135 164 212 297 351 386
#     4  11  22  44  67  88 132 186 225 266 340 424
#     4  11  21  40  68  92 127 181 226 277 349 427
#     4  12  26  42  62  98 136 184 232 268 340 426
#
# _framework density 19.728985999999999
#
# number of rings (size 3 to 8) (size 9 to 14) (size 15 to 20)
#    0.000    0.727    7.273    2.727    0.000    0.000 
#    3.273    2.727    2.000    0.000    0.000    0.000 
#    0.000    0.000    0.000    0.000    0.000    0.000 
#
# Total GULP energy -409104.081577 kJ/mol
# GULP energy per Si atom -12397.093381 kJ/mol
# Density = 1.968408 g / cm^3
# Si number density = 19.728986 Si / 1000 Ang^3
#
#
#
# Elastic Constant Matrix: (Units=GPa)
#
#
# Indices 1 2 3 4 5 6 
#
# 1 104.7821 71.6968 58.0606 0.0000 -11.5431 0.0000
# 2 71.6968 104.7821 58.0606 0.0000 11.5431 0.0000
# 3 58.0606 58.0606 127.0784 0.0000 0.0000 0.0000
# 4 0.0000 0.0000 0.0000 25.6253 0.0000 11.5431
# 5 -11.5431 11.5431 0.0000 0.0000 25.6253 0.0000
# 6 0.0000 0.0000 0.0000 11.5431 0.0000 16.5427
#
#
#
# Elastic Compliance Matrix: (Units=1/GPa)
#
#
# Indices 1 2 3 4 5 6 
#
# 1 0.026091 -0.017989 -0.003702 0.000000 0.019856 0.000000
# 2 -0.017989 0.026091 -0.003702 0.000000 -0.019856 0.000000
# 3 -0.003702 -0.003702 0.011252 0.000000 0.000000 0.000000
# 4 0.000000 0.000000 0.000000 0.056912 0.000000 -0.039712
# 5 0.019856 -0.019856 0.000000 0.000000 0.056912 0.000000
# 6 0.000000 0.000000 0.000000 -0.039712 0.000000 0.088160
#
#
# Mechanical properties :
#
#
# Convention : Reuss Voigt Hill
#
# Bulk Modulus (GPa) = 79.05804 79.14204 79.10004
# Shear Modulus (GPa) = 15.60454 23.48030 19.54242
#
# Velocity S-wave (km/s) = 2.81543 3.45359 3.15070
# Velocity P-wave (km/s) = 7.12235 7.49031 7.30864
#
# Compressibility (1/GPa) = 0.01264894
#
# Stress axis : x y z
#
# Youngs Moduli (GPa) = 38.32740 38.32740 88.87520
#
# Poissons Ratio (x) = 0.68947 0.32899
# Poissons Ratio (y) = 0.68947 0.32899
# Poissons Ratio (z) = 0.14188 0.14188
#
# Static dielectric constant tensor:
#      x y z
#    x 3.726280 0.000000 0.000000 
#    y 0.000000 3.726280 0.000000 
#    z 0.000000 0.000000 3.965180 
# 
# 
# High freq. dielectric constant tensor:
#      x y z
#    x 1.757130 0.000000 0.000000 
#    y 0.000000 1.757130 0.000000 
#    z 0.000000 0.000000 1.782910 
# 
# From -- ./inp_files/2896.got.cif
#   From: 2010.03.12/outbox.cif.g09.slc.cpg/sg151_2_cif.got.tgz:2896.got - 2010.04.03 13:42:29.
