data_PCOD8322040
_publ_section_title
;
Structure prediction by ZEFSAII (Michael W. Deem and Ramdas Pophale) SiO2 
 PCOD8322040
Probable space group: P 31 2 1
;
_chemical_formula_sum "Si O2"
_cell_formula_units_Z 36
_cell_length_a 24.543265
_cell_length_b 24.543265
_cell_length_c 5.292156
_cell_angle_alpha 90.000000
_cell_angle_beta 90.000000
_cell_angle_gamma 120.000000
_cell_volume 2760.755478
_symmetry_space_group_name_H-M "P 31 2 1"
_symmetry_group_IT_number 152
_symmetry_cell_setting 'hexagonal'
loop_
_space_group_symop_operation_xyz
x,y,z
-y,x-y,1/3+z
-x+y,-x,2/3+z
x-y,-y,2/3-z
-x,-x+y,1/3-z
y,x,-z
loop_
_atom_site_type_symbol
_atom_site_label
_atom_site_fract_x
_atom_site_fract_y
_atom_site_fract_z
Si Si1 0.520996 0.246910 0.592189
Si Si2 0.422902 0.034854 0.083771
Si Si3 0.965485 0.518010 0.417535
Si Si4 0.625714 0.357574 0.128822
Si Si5 0.621973 0.176277 0.079348
Si Si6 0.493525 0.177247 0.074247
O O1 0.586429 0.247436 0.663252
O O2 0.538071 0.320076 0.551387
O O3 0.490166 0.208002 0.338703
O O4 0.480112 0.212577 0.841479
O O5 0.487282 0.033539 0.088842
O O6 0.436237 0.105894 0.081505
O O7 0.382744 0.000000 0.333334
O O8 0.383634 0.000000 0.833334
O O9 0.893989 0.504472 0.417977
O O10 0.000000 0.558535 0.666667
O O11 0.000000 0.557530 0.166667
O O12 0.614782 0.291371 0.226282
O O13 0.561788 0.351758 0.020156
O O14 0.557190 0.174919 0.024196
#
# Coordination Sequence:
#
# PCOD8322040 Si02
#       6
#     6   6   6   6   6   6
#     4  11  20  29  39  55  76  97 111 135 165 207
#     4   9  16  29  45  56  68  88 111 142 174 194
#     4   9  19  31  42  54  66  83 116 150 171 195
#     4  11  19  29  38  55  78  95 118 130 158 210
#     4  10  19  30  42  54  70  98 113 138 174 206
#     4  10  21  30  40  58  75  90 118 141 162 208
#
# _framework density 13.039908
#
# number of rings (size 3 to 8) (size 9 to 14) (size 15 to 20)
#    0.000    2.000    1.667    4.000    0.000   12.000 
#    0.000    0.000    0.000    0.000    0.000    0.000 
#    0.000    0.000    0.000    0.000    0.000    0.000 
#
# Total GULP energy -446016.117159 kJ/mol
# GULP energy per Si atom -12389.336588 kJ/mol
# Density = 1.301023 g / cm^3
# Si number density = 13.039908 Si / 1000 Ang^3
#
#
#
# Elastic Constant Matrix: (Units=GPa)
#
#
# Indices 1 2 3 4 5 6 
#
# 1 32.6073 14.4820 19.3292 -1.3448 0.0000 0.0000
# 2 14.4820 32.6073 19.3292 1.3448 0.0000 0.0000
# 3 19.3292 19.3292 92.7046 0.0000 0.0000 0.0000
# 4 -1.3448 1.3448 0.0000 15.5053 0.0000 0.0000
# 5 0.0000 0.0000 0.0000 0.0000 15.5053 -1.3448
# 6 0.0000 0.0000 0.0000 0.0000 -1.3448 9.0627
#
#
#
# Elastic Compliance Matrix: (Units=1/GPa)
#
#
# Indices 1 2 3 4 5 6 
#
# 1 0.040756 -0.015134 -0.005342 0.004847 0.000000 0.000000
# 2 -0.015134 0.040756 -0.005342 -0.004847 0.000000 0.000000
# 3 -0.005342 -0.005342 0.013015 0.000000 0.000000 0.000000
# 4 0.004847 -0.004847 0.000000 0.065335 0.000000 0.000000
# 5 0.000000 0.000000 0.000000 0.000000 0.065335 0.009695
# 6 0.000000 0.000000 0.000000 0.000000 0.009695 0.111781
#
#
# Mechanical properties :
#
#
# Convention : Reuss Voigt Hill
#
# Bulk Modulus (GPa) = 23.31562 29.35555 26.33558
# Shear Modulus (GPa) = 12.40963 14.99991 13.70477
#
# Velocity S-wave (km/s) = 3.08825 3.39530 3.24541
# Velocity P-wave (km/s) = 5.53493 6.15887 5.85522
#
# Compressibility (1/GPa) = 0.04288971
#
# Stress axis : x y z
#
# Youngs Moduli (GPa) = 24.53605 24.53605 76.83613
#
# Poissons Ratio (x) = 0.37134 0.41048
# Poissons Ratio (y) = 0.37134 0.41048
# Poissons Ratio (z) = 0.13108 0.13108
#
# Static dielectric constant tensor:
#      x y z
#    x 2.437660 0.000000 0.000000 
#    y 0.000000 2.437660 0.000000 
#    z 0.000000 0.000000 2.889240 
# 
# 
# High freq. dielectric constant tensor:
#      x y z
#    x 1.445130 0.000000 0.000000 
#    y 0.000000 1.445130 0.000000 
#    z 0.000000 0.000000 1.523640 
# 
# From -- ./inp_files/565.got.cif
#   From: 2010.03.12/outbox.cif.g09.slc.cpg/sg152_1_cif.got.tgz:565.got - 2010.04.03 13:45:27.
