data_PCOD8322384
_publ_section_title
;
Structure prediction by ZEFSAII (Michael W. Deem and Ramdas Pophale) SiO2 
 PCOD8322384
Probable space group: P 32 2 1
;
_chemical_formula_sum "Si O2"
_cell_formula_units_Z 33
_cell_length_a 11.123302
_cell_length_b 11.123302
_cell_length_c 14.990260
_cell_angle_alpha 90.000000
_cell_angle_beta 90.000000
_cell_angle_gamma 120.000000
_cell_volume 1606.228230
_symmetry_space_group_name_H-M "P 32 2 1"
_symmetry_group_IT_number 154
_symmetry_cell_setting 'hexagonal'
loop_
_space_group_symop_operation_xyz
x,y,z
-y,x-y,2/3+z
-x+y,-x,1/3+z
x-y,-y,1/3-z
-x,-x+y,2/3-z
y,x,-z
loop_
_atom_site_type_symbol
_atom_site_label
_atom_site_fract_x
_atom_site_fract_y
_atom_site_fract_z
Si Si1 0.361482 0.786442 0.710898
Si Si2 0.881629 0.142865 0.269707
Si Si3 0.242049 0.922440 0.252819
Si Si4 0.747411 0.379535 0.781600
Si Si5 0.345436 0.345436 0.000000
Si Si6 0.690373 0.834426 0.261252
O O1 0.262685 0.850098 0.704821
O O2 0.356329 0.731003 0.612356
O O3 0.308874 0.662648 0.783445
O O4 0.521634 0.904601 0.730192
O O5 0.927064 0.162838 0.165779
O O6 0.000000 0.150574 0.333334
O O7 0.752318 0.992378 0.292864
O O8 0.359132 0.880564 0.229562
O O9 0.094104 0.786205 0.270634
O O10 0.226037 0.000000 0.166667
O O11 0.288759 0.024043 0.337619
O O12 0.779168 0.529731 0.752335
#
# Coordination Sequence:
#
# PCOD8322384 Si02
#       6
#     6   6   6   6   3   6
#     4  10  21  43  67  97 128 170 219 277 328 399
#     4  10  22  41  67  90 129 171 218 266 332 394
#     4  11  25  43  66  95 136 174 219 279 340 398
#     4  10  23  40  68  95 130 168 221 273 336 395
#     4  10  24  46  62 100 134 168 234 276 324 416
#     4  10  24  40  63  98 128 171 219 275 325 411
#
# _framework density 20.545024000000002
#
# number of rings (size 3 to 8) (size 9 to 14) (size 15 to 20)
#    0.000    1.818    0.909    1.091    8.909    5.818 
#    9.818    0.000    0.000    0.000    0.000    0.000 
#    0.000    0.000    0.000    0.000    0.000    0.000 
#
# Total GULP energy -409130.204105 kJ/mol
# GULP energy per Si atom -12397.884973 kJ/mol
# Density = 2.049826 g / cm^3
# Si number density = 20.545024 Si / 1000 Ang^3
#
#
#
# Elastic Constant Matrix: (Units=GPa)
#
#
# Indices 1 2 3 4 5 6 
#
# 1 99.9071 40.5430 36.3242 8.0871 -0.0002 0.0000
# 2 40.5430 99.9071 36.3242 -8.0871 0.0002 0.0000
# 3 36.3242 36.3242 80.9078 0.0000 0.0000 0.0000
# 4 8.0871 -8.0871 0.0000 34.5167 0.0000 0.0002
# 5 -0.0002 0.0002 0.0000 0.0000 34.5167 8.0871
# 6 0.0000 0.0000 0.0000 0.0002 8.0871 29.6821
#
#
#
# Elastic Compliance Matrix: (Units=1/GPa)
#
#
# Indices 1 2 3 4 5 6 
#
# 1 0.013634 -0.004360 -0.004163 -0.004216 0.000000 0.000000
# 2 -0.004360 0.013634 -0.004163 0.004216 0.000000 0.000000
# 3 -0.004163 -0.004163 0.016098 0.000000 0.000000 0.000000
# 4 -0.004216 0.004216 0.000000 0.030947 0.000000 0.000000
# 5 0.000000 0.000000 0.000000 0.000000 0.030947 -0.008432
# 6 0.000000 0.000000 0.000000 0.000000 -0.008432 0.035988
#
#
# Mechanical properties :
#
#
# Convention : Reuss Voigt Hill
#
# Bulk Modulus (GPa) = 55.58180 56.34498 55.96339
# Shear Modulus (GPa) = 28.96565 30.91182 29.93874
#
# Velocity S-wave (km/s) = 3.75889 3.88311 3.82150
# Velocity P-wave (km/s) = 6.77874 6.89851 6.83889
#
# Compressibility (1/GPa) = 0.01799150
#
# Stress axis : x y z
#
# Youngs Moduli (GPa) = 73.34781 73.34781 62.11898
#
# Poissons Ratio (x) = 0.31981 0.25863
# Poissons Ratio (y) = 0.31981 0.25863
# Poissons Ratio (z) = 0.30538 0.30538
#
# Static dielectric constant tensor:
#      x y z
#    x 3.811140 0.000000 0.000000 
#    y 0.000000 3.811140 0.000000 
#    z 0.000000 0.000000 3.872710 
# 
# 
# High freq. dielectric constant tensor:
#      x y z
#    x 1.809790 0.000000 0.000000 
#    y 0.000000 1.809790 0.000000 
#    z 0.000000 0.000000 1.802160 
# 
# From -- ./inp_files/1994.got.cif
#   From: 2010.03.12/outbox.cif.g09.slc.cpg/sg154_1_cif.got.tgz:1994.got - 2010.04.03 13:51:21.
