data_PCOD8322281
_publ_section_title
;
Structure prediction by ZEFSAII (Michael W. Deem and Ramdas Pophale) SiO2 
 PCOD8322281
Probable space group: P 32 1 2
;
_chemical_formula_sum "Si O2"
_cell_formula_units_Z 18
_cell_length_a 10.692795
_cell_length_b 10.692795
_cell_length_c 7.583640
_cell_angle_alpha 90.000000
_cell_angle_beta 90.000000
_cell_angle_gamma 120.000000
_cell_volume 750.915073
_symmetry_space_group_name_H-M "P 32 1 2"
_symmetry_group_IT_number 153
_symmetry_cell_setting 'hexagonal'
loop_
_space_group_symop_operation_xyz
x,y,z
-y,x-y,2/3+z
-x+y,-x,1/3+z
-y,-x,1/3-z
-x+y,y,2/3-z
x,x-y,-z
loop_
_atom_site_type_symbol
_atom_site_label
_atom_site_fract_x
_atom_site_fract_y
_atom_site_fract_z
Si Si1 0.949703 0.412760 0.811279
Si Si2 0.456033 0.728017 0.500000
Si Si3 0.061350 0.122700 0.333334
Si Si4 0.746093 0.129724 0.977946
O O1 0.915118 0.492910 0.653880
O O2 0.107595 0.435802 0.772818
O O3 0.953642 0.476821 0.000000
O O4 0.826242 0.244460 0.820547
O O5 0.358158 0.716315 0.333334
O O6 0.225739 0.230864 0.272817
O O7 0.049650 0.024825 0.500000
O O8 0.810153 0.189848 0.166667
#
# Coordination Sequence:
#
# PCOD8322281 Si02
#       4
#     6   3   3   6
#     4   9  19  38  68  93 137 180 231 293 358 426
#     4  10  22  40  70 102 138 182 236 298 364 428
#     4  10  22  40  70 102 138 182 236 298 364 428
#     4   9  19  38  68  93 137 180 231 293 358 426
#
# _framework density 23.970752000000001
#
# number of rings (size 3 to 8) (size 9 to 14) (size 15 to 20)
#    0.000    2.667    0.000    0.000    4.667    0.000 
#    0.000    0.000   66.000    0.000    0.000    0.000 
#    0.000    0.000    0.000    0.000    0.000    0.000 
#
# Total GULP energy -223058.612095 kJ/mol
# GULP energy per Si atom -12392.145116 kJ/mol
# Density = 2.391619 g / cm^3
# Si number density = 23.970752 Si / 1000 Ang^3
#
#
#
# Elastic Constant Matrix: (Units=GPa)
#
#
# Indices 1 2 3 4 5 6 
#
# 1 191.2929 113.0347 36.3206 -0.0001 0.0000 0.0000
# 2 113.0347 191.2929 36.3206 0.0001 0.0000 0.0000
# 3 36.3206 36.3206 102.9074 0.0000 0.0000 0.0000
# 4 -0.0001 0.0001 0.0000 26.9480 0.0000 0.0000
# 5 0.0000 0.0000 0.0000 0.0000 26.9480 -0.0001
# 6 0.0000 0.0000 0.0000 0.0000 -0.0001 39.1291
#
#
#
# Elastic Compliance Matrix: (Units=1/GPa)
#
#
# Indices 1 2 3 4 5 6 
#
# 1 0.008183 -0.004595 -0.001266 0.000000 0.000000 0.000000
# 2 -0.004595 0.008183 -0.001266 0.000000 0.000000 0.000000
# 3 -0.001266 -0.001266 0.010611 0.000000 0.000000 0.000000
# 4 0.000000 0.000000 0.000000 0.037109 0.000000 0.000000
# 5 0.000000 0.000000 0.000000 0.000000 0.037109 0.000000
# 6 0.000000 0.000000 0.000000 0.000000 0.000000 0.025556
#
#
# Mechanical properties :
#
#
# Convention : Reuss Voigt Hill
#
# Bulk Modulus (GPa) = 78.60330 95.20500 86.90415
# Shear Modulus (GPa) = 34.42391 38.59282 36.50837
#
# Velocity S-wave (km/s) = 3.79368 4.01683 3.90685
# Velocity P-wave (km/s) = 7.21469 7.83049 7.52889
#
# Compressibility (1/GPa) = 0.01272211
#
# Stress axis : x y z
#
# Youngs Moduli (GPa) = 122.20127 122.20127 94.23792
#
# Poissons Ratio (x) = 0.56151 0.11935
# Poissons Ratio (y) = 0.56151 0.11935
# Poissons Ratio (z) = 0.15476 0.15476
#
# Static dielectric constant tensor:
#      x y z
#    x 4.714790 0.000000 0.000000 
#    y 0.000000 4.714790 0.000000 
#    z 0.000000 0.000000 4.223210 
# 
# 
# High freq. dielectric constant tensor:
#      x y z
#    x 1.951330 0.000000 0.000000 
#    y 0.000000 1.951330 0.000000 
#    z 0.000000 0.000000 1.962330 
# 
# From -- ./inp_files/1177.got.cif
#   From: 2010.03.12/outbox.cif.g09.slc.cpg/sg153_1_cif.got.tgz:1177.got - 2010.04.03 13:48:33.
