data_PCOD8322816
_publ_section_title
;
Structure prediction by ZEFSAII (Michael W. Deem and Ramdas Pophale) SiO2 
 PCOD8322816
Probable space group: P 3 1 C
;
_chemical_formula_sum "Si O2"
_cell_formula_units_Z 40
_cell_length_a 8.472822
_cell_length_b 8.472822
_cell_length_c 31.388296
_cell_angle_alpha 90.000000
_cell_angle_beta 90.000000
_cell_angle_gamma 120.000000
_cell_volume 1951.437006
_symmetry_space_group_name_H-M "P 3 1 C"
_symmetry_group_IT_number 159
_symmetry_cell_setting 'hexagonal'
loop_
_space_group_symop_operation_xyz
x,y,z
-y,x-y,z
-x+y,-x,z
y,x,1/2+z
x-y,-y,1/2+z
-x,-x+y,1/2+z
loop_
_atom_site_type_symbol
_atom_site_label
_atom_site_fract_x
_atom_site_fract_y
_atom_site_fract_z
Si Si1 0.960115 0.325141 0.920390
Si Si2 0.040566 0.673361 0.206018
Si Si3 0.338995 0.310238 0.547350
Si Si4 0.333334 0.666668 0.262943
Si Si5 0.335619 0.039196 0.175015
Si Si6 0.333334 0.666668 0.363304
Si Si7 0.041692 0.703691 0.951853
Si Si8 0.027980 0.345658 0.579361
O O1 0.840559 0.314157 0.878693
O O2 0.016571 0.507932 0.944771
O O3 0.152581 0.327486 0.915482
O O4 0.842167 0.153668 0.950222
O O5 0.159752 0.688766 0.248315
O O6 0.030688 0.508589 0.180001
O O7 0.831823 0.635302 0.209737
O O8 0.137278 0.862979 0.180608
O O9 0.365280 0.250221 0.500045
O O10 0.135775 0.277566 0.549638
O O11 0.469484 0.519042 0.560483
O O12 0.374323 0.184065 0.579669
O O13 0.333334 0.666667 0.313204
O O14 0.365435 0.111829 0.126786
#
# Coordination Sequence:
#
# PCOD8322816 Si02
#       8
#     6   6   6   2   6   2   6   6
#     4  10  22  37  63  85 116 157 192 239 296 357
#     4  10  22  37  63  85 116 157 192 239 296 357
#     4  12  24  36  53  80 115 159 206 259 300 329
#     4   9  21  45  69  96 120 141 183 243 306 372
#     4  11  20  38  55  83 116 157 206 243 289 358
#     4   9  21  45  69  96 120 141 183 243 306 372
#     4  11  20  38  55  83 116 157 206 243 289 358
#     4  12  24  36  53  80 115 159 206 259 300 329
#
# _framework density 20.497716
#
# number of rings (size 3 to 8) (size 9 to 14) (size 15 to 20)
#    0.000    1.200    0.000    8.100    0.000    0.000 
#    0.000    6.000    0.000    0.000    0.000    0.000 
#    0.000    0.000    0.000    0.000    0.000    0.000 
#
# Total GULP energy -495629.627458 kJ/mol
# GULP energy per Si atom -12390.740686 kJ/mol
# Density = 2.045106 g / cm^3
# Si number density = 20.497716 Si / 1000 Ang^3
#
#
#
# Elastic Constant Matrix: (Units=GPa)
#
#
# Indices 1 2 3 4 5 6 
#
# 1 118.1907 33.8707 36.3726 0.0000 6.2770 0.0000
# 2 33.8707 118.1907 36.3726 0.0000 -6.2770 0.0000
# 3 36.3726 36.3726 118.6824 0.0000 0.0000 0.0000
# 4 0.0000 0.0000 0.0000 19.9892 0.0000 -6.2770
# 5 6.2770 -6.2770 0.0000 0.0000 19.9892 0.0000
# 6 0.0000 0.0000 0.0000 -6.2770 0.0000 42.1600
#
#
#
# Elastic Compliance Matrix: (Units=1/GPa)
#
#
# Indices 1 2 3 4 5 6 
#
# 1 0.010074 -0.002368 -0.002362 0.000000 -0.003907 0.000000
# 2 -0.002368 0.010074 -0.002362 0.000000 0.003907 0.000000
# 3 -0.002362 -0.002362 0.009873 0.000000 0.000000 0.000000
# 4 0.000000 0.000000 0.000000 0.052481 0.000000 0.007814
# 5 -0.003907 0.003907 0.000000 0.000000 0.052481 0.000000
# 6 0.000000 0.000000 0.000000 0.007814 0.000000 0.024883
#
#
# Mechanical properties :
#
#
# Convention : Reuss Voigt Hill
#
# Bulk Modulus (GPa) = 63.13581 63.14397 63.13989
# Shear Modulus (GPa) = 27.88219 32.99086 30.43652
#
# Velocity S-wave (km/s) = 3.69217 4.01620 3.85759
# Velocity P-wave (km/s) = 7.00317 7.23731 7.12120
#
# Compressibility (1/GPa) = 0.01583887
#
# Stress axis : x y z
#
# Youngs Moduli (GPa) = 99.26862 99.26860 101.28194
#
# Poissons Ratio (x) = 0.23503 0.23920
# Poissons Ratio (y) = 0.23503 0.23920
# Poissons Ratio (z) = 0.23444 0.23444
#
# Static dielectric constant tensor:
#      x y z
#    x 3.983420 0.000000 0.000000 
#    y 0.000000 3.983420 0.000000 
#    z 0.000000 0.000000 3.201420 
# 
# 
# High freq. dielectric constant tensor:
#      x y z
#    x 1.820320 0.000000 0.000000 
#    y 0.000000 1.820320 0.000000 
#    z 0.000000 0.000000 1.747670 
# 
# From -- ./inp_files/1295.got.cif
#   From: 2010.03.12/outbox.cif.g09.slc.cpg/sg159_cif.got.tgz:1295.got - 2010.04.03 14:00:19.
