data_PCOD8322663
_publ_section_title
;
Structure prediction by ZEFSAII (Michael W. Deem and Ramdas Pophale) SiO2 
 PCOD8322663
Probable space group: P 3 M 1
;
_chemical_formula_sum "Si O2"
_cell_formula_units_Z 42
_cell_length_a 12.848929
_cell_length_b 12.848929
_cell_length_c 17.586132
_cell_angle_alpha 90.000000
_cell_angle_beta 90.000000
_cell_angle_gamma 120.000000
_cell_volume 2514.402611
_symmetry_space_group_name_H-M "P 3 M 1"
_symmetry_group_IT_number 156
_symmetry_cell_setting 'hexagonal'
loop_
_space_group_symop_operation_xyz
x,y,z
-y,x-y,z
-x+y,-x,z
-x+y,y,z
x,x-y,z
-y,-x,z
loop_
_atom_site_type_symbol
_atom_site_label
_atom_site_fract_x
_atom_site_fract_y
_atom_site_fract_z
Si Si1 0.427637 0.094507 0.946980
Si Si2 0.999002 0.242606 0.644752
Si Si3 0.427607 0.333053 0.515232
Si Si4 0.666837 0.094648 0.342162
Si Si5 0.906184 0.572782 0.773292
Si Si6 0.756768 0.757224 0.075999
Si Si7 0.333044 0.423631 0.212776
O O1 0.539507 0.079014 0.970894
O O2 0.467593 0.233797 0.958359
O O3 0.388691 0.054180 0.860209
O O4 0.314030 0.009760 0.998796
O O5 0.125188 0.250376 0.643641
O O6 0.990328 0.308244 0.569419
O O7 0.993672 0.310982 0.719868
O O8 0.895706 0.104295 0.646184
O O9 0.467272 0.233636 0.527531
O O10 0.539363 0.460638 0.537379
O O11 0.385531 0.330225 0.428657
O O12 0.567826 0.135651 0.333114
O O13 0.794116 0.205885 0.317127
O O14 0.636231 0.980984 0.289995
O O15 0.768745 0.537489 0.759882
O O16 0.917176 0.458588 0.750136
O O17 0.783722 0.891861 0.065586
O O18 0.666874 0.689496 0.144533
O O19 0.880544 0.761088 0.093965
O O20 0.224951 0.449902 0.223474
O O21 0.452470 0.547531 0.194057
#
# Coordination Sequence:
#
# PCOD8322663 Si02
#       7
#     6   6   6   6   6   6   6
#     4   9  17  30  49  73  98 121 147 183 230 280
#     4  10  20  32  46  65  92 126 160 192 226 268
#     4   9  17  30  50  74  96 118 147 188 236 281
#     4   9  17  30  49  73  98 121 147 184 233 284
#     4   9  17  30  50  74  96 118 147 188 235 278
#     4  10  20  33  49  69  94 124 157 193 232 274
#     4  10  20  33  49  68  92 124 161 198 232 269
#
# _framework density 16.703769000000001
#
# number of rings (size 3 to 8) (size 9 to 14) (size 15 to 20)
#    0.000    2.571    0.000    2.286    0.000    3.429 
#    0.000    1.429    0.000    9.143    0.000    0.000 
#    0.000    0.000    0.000    0.000    0.000    0.000 
#
# Total GULP energy -520879.646275 kJ/mol
# GULP energy per Si atom -12401.896340 kJ/mol
# Density = 1.666575 g / cm^3
# Si number density = 16.703769 Si / 1000 Ang^3
#
#
#
# Elastic Constant Matrix: (Units=GPa)
#
#
# Indices 1 2 3 4 5 6 
#
# 1 118.7083 72.6796 69.4440 0.1253 0.0001 0.0000
# 2 72.6796 118.7083 69.4440 -0.1253 -0.0001 0.0000
# 3 69.4440 69.4440 110.5765 0.0000 0.0000 0.0000
# 4 0.1253 -0.1253 0.0000 25.2734 0.0000 -0.0001
# 5 0.0001 -0.0001 0.0000 0.0000 25.2734 0.1253
# 6 0.0000 0.0000 0.0000 -0.0001 0.1253 23.0144
#
#
#
# Elastic Compliance Matrix: (Units=1/GPa)
#
#
# Indices 1 2 3 4 5 6 
#
# 1 0.015663 -0.006063 -0.006029 -0.000108 0.000000 0.000000
# 2 -0.006063 0.015663 -0.006029 0.000108 0.000000 0.000000
# 3 -0.006029 -0.006029 0.016616 0.000000 0.000000 0.000000
# 4 -0.000108 0.000108 0.000000 0.039568 0.000000 0.000000
# 5 0.000000 0.000000 0.000000 0.000000 0.039568 -0.000215
# 6 0.000000 0.000000 0.000000 0.000000 -0.000215 0.043452
#
#
# Mechanical properties :
#
#
# Convention : Reuss Voigt Hill
#
# Bulk Modulus (GPa) = 85.46782 85.68090 85.57436
# Shear Modulus (GPa) = 23.73330 23.80725 23.77028
#
# Velocity S-wave (km/s) = 3.77349 3.77936 3.77642
# Velocity P-wave (km/s) = 8.38233 8.39348 8.38791
#
# Compressibility (1/GPa) = 0.01170031
#
# Stress axis : x y z
#
# Youngs Moduli (GPa) = 63.84384 63.84384 60.18174
#
# Poissons Ratio (x) = 0.38708 0.36284
# Poissons Ratio (y) = 0.38708 0.36284
# Poissons Ratio (z) = 0.38492 0.38492
#
# Static dielectric constant tensor:
#      x y z
#    x 3.016110 0.000000 0.000000 
#    y 0.000000 3.016110 0.000000 
#    z 0.000000 0.000000 3.382720 
# 
# 
# High freq. dielectric constant tensor:
#      x y z
#    x 1.636310 0.000000 0.000000 
#    y 0.000000 1.636310 0.000000 
#    z 0.000000 0.000000 1.656430 
# 
# From -- ./inp_files/961.got.cif
#   From: 2010.03.12/outbox.cif.g09.slc.cpg/sg156_cif.got.tgz:961.got - 2010.04.03 13:58:47.
