data_PCOD8322030
_publ_section_title
;
Structure prediction by ZEFSAII (Michael W. Deem and Ramdas Pophale) SiO2 
 PCOD8322030
Probable space group: P 31 2 1
;
_chemical_formula_sum "Si O2"
_cell_formula_units_Z 45
_cell_length_a 14.702875
_cell_length_b 14.702875
_cell_length_c 11.100386
_cell_angle_alpha 90.000000
_cell_angle_beta 90.000000
_cell_angle_gamma 120.000000
_cell_volume 2078.132540
_symmetry_space_group_name_H-M "P 31 2 1"
_symmetry_group_IT_number 152
_symmetry_cell_setting 'hexagonal'
loop_
_space_group_symop_operation_xyz
x,y,z
-y,x-y,1/3+z
-x+y,-x,2/3+z
x-y,-y,2/3-z
-x,-x+y,1/3-z
y,x,-z
loop_
_atom_site_type_symbol
_atom_site_label
_atom_site_fract_x
_atom_site_fract_y
_atom_site_fract_z
Si Si1 0.980068 0.887080 0.304898
Si Si2 0.844463 0.688983 0.996820
Si Si3 0.806189 0.665992 0.280154
Si Si4 0.740785 0.410976 0.635529
Si Si5 0.000000 0.379571 0.666667
Si Si6 0.518781 0.351513 0.713415
Si Si7 0.428075 0.962636 0.082143
Si Si8 0.312052 0.508526 0.768702
O O1 0.074647 0.883028 0.375724
O O2 0.000000 0.879288 0.166667
O O3 0.870206 0.783328 0.339793
O O4 0.988010 0.000000 0.333334
O O5 0.829710 0.672625 0.139176
O O6 0.730790 0.648349 0.937153
O O7 0.880562 0.612852 0.934854
O O8 0.848856 0.590991 0.329983
O O9 0.682866 0.625731 0.306294
O O10 0.615133 0.362977 0.633053
O O11 0.796033 0.479022 0.517557
O O12 0.791001 0.480496 0.753634
O O13 0.756858 0.309607 0.629707
O O14 0.038140 0.464150 0.560873
O O15 0.531695 0.467400 0.701589
O O16 0.429966 0.858036 0.047025
#
# Coordination Sequence:
#
# PCOD8322030 Si02
#       8
#     6   6   6   6   3   6   6   6
#     4  10  21  42  66  92 121 161 212 273 320 365
#     4  10  20  35  65  92 115 155 211 261 312 365
#     4  10  22  39  62  94 126 159 212 259 315 380
#     4  10  22  37  58  86 131 169 204 253 313 382
#     4  10  18  34  56  90 114 152 216 264 294 350
#     4  11  22  40  59  90 131 170 205 252 324 380
#     4  11  21  35  59  89 123 164 210 255 300 376
#     4  11  20  36  59  89 126 169 210 251 310 366
#
# _framework density 21.654056000000001
#
# number of rings (size 3 to 8) (size 9 to 14) (size 15 to 20)
#    0.000    1.600    2.000    4.800    1.867    0.000 
#    0.000    3.333    0.000    0.000    0.000    0.000 
#    0.000    0.000    0.000    0.000    0.000    0.000 
#
# Total GULP energy -557589.145363 kJ/mol
# GULP energy per Si atom -12390.869897 kJ/mol
# Density = 2.160477 g / cm^3
# Si number density = 21.654056 Si / 1000 Ang^3
#
#
#
# Elastic Constant Matrix: (Units=GPa)
#
#
# Indices 1 2 3 4 5 6 
#
# 1 121.2582 54.4128 23.9384 -3.9414 0.0000 0.0000
# 2 54.4128 121.2582 23.9384 3.9414 0.0000 0.0000
# 3 23.9384 23.9384 44.3558 0.0000 0.0000 0.0000
# 4 -3.9414 3.9414 0.0000 20.4497 0.0000 0.0000
# 5 0.0000 0.0000 0.0000 0.0000 20.4497 -3.9414
# 6 0.0000 0.0000 0.0000 0.0000 -3.9414 33.4227
#
#
#
# Elastic Compliance Matrix: (Units=1/GPa)
#
#
# Indices 1 2 3 4 5 6 
#
# 1 0.010991 -0.004317 -0.003602 0.002950 0.000000 0.000000
# 2 -0.004317 0.010991 -0.003602 -0.002950 0.000000 0.000000
# 3 -0.003602 -0.003602 0.026433 0.000000 0.000000 0.000000
# 4 0.002950 -0.002950 0.000000 0.050038 0.000000 0.000000
# 5 0.000000 0.000000 0.000000 0.000000 0.050038 0.005901
# 6 0.000000 0.000000 0.000000 0.000000 0.005901 0.030616
#
#
# Mechanical properties :
#
#
# Convention : Reuss Voigt Hill
#
# Bulk Modulus (GPa) = 39.41155 54.60570 47.00863
# Shear Modulus (GPa) = 23.74110 27.16994 25.45552
#
# Velocity S-wave (km/s) = 3.31476 3.54606 3.43236
# Velocity P-wave (km/s) = 5.73500 6.48368 6.12080
#
# Compressibility (1/GPa) = 0.02537327
#
# Stress axis : x y z
#
# Youngs Moduli (GPa) = 90.98380 90.98380 37.83173
#
# Poissons Ratio (x) = 0.39276 0.13627
# Poissons Ratio (y) = 0.39276 0.13627
# Poissons Ratio (z) = 0.32772 0.32772
#
# Static dielectric constant tensor:
#      x y z
#    x 4.158510 0.000000 0.000000 
#    y 0.000000 4.158510 0.000000 
#    z 0.000000 0.000000 3.575850 
# 
# 
# High freq. dielectric constant tensor:
#      x y z
#    x 1.855670 0.000000 0.000000 
#    y 0.000000 1.855670 0.000000 
#    z 0.000000 0.000000 1.816790 
# 
# From -- ./inp_files/1888.got.cif
#   From: 2010.03.12/outbox.cif.g09.slc.cpg/sg152_1_cif.got.tgz:1888.got - 2010.04.03 13:45:27.
