data_PCOD8322847
_publ_section_title
;
Structure prediction by ZEFSAII (Michael W. Deem and Ramdas Pophale) SiO2 
 PCOD8322847
Probable space group: R 3 M
;
_chemical_formula_sum "Si O2"
_cell_formula_units_Z 126
_cell_length_a 17.255449
_cell_length_b 17.255449
_cell_length_c 28.225690
_cell_angle_alpha 90.000000
_cell_angle_beta 90.000000
_cell_angle_gamma 120.000000
_cell_volume 7278.262719
_symmetry_space_group_name_H-M "R 3 M"
_symmetry_group_IT_number 160
_symmetry_cell_setting 'hexagonal'
loop_
_space_group_symop_operation_xyz
x,y,z
-y,x-y,z
-x+y,-x,z
-x+y,y,z
x,x-y,z
-y,-x,z
2/3+x,1/3+y,1/3+z
2/3-y,1/3+x-y,1/3+z
2/3-x+y,1/3-x,1/3+z
2/3-x+y,1/3+y,1/3+z
2/3+x,1/3+x-y,1/3+z
2/3-y,1/3-x,1/3+z
1/3+x,2/3+y,2/3+z
1/3-y,2/3+x-y,2/3+z
1/3-x+y,2/3-x,2/3+z
1/3-x+y,2/3+y,2/3+z
1/3+x,2/3+x-y,2/3+z
1/3-y,2/3-x,2/3+z
loop_
_atom_site_type_symbol
_atom_site_label
_atom_site_fract_x
_atom_site_fract_y
_atom_site_fract_z
Si Si1 0.158659 0.491623 0.290730
Si Si2 0.172916 0.172700 0.515516
Si Si3 0.609628 0.040567 0.422818
Si Si4 0.486807 0.153069 0.513190
Si Si5 0.636244 0.906080 0.476275
Si Si6 0.908307 0.636079 0.228521
Si Si7 0.963419 0.392730 0.317438
O O1 0.236787 0.473573 0.308387
O O2 0.193234 0.596617 0.296683
O O3 0.132658 0.461669 0.236190
O O4 0.069943 0.432478 0.321094
O O5 0.194430 0.097215 0.497644
O O6 0.224827 0.257449 0.482169
O O7 0.066722 0.133443 0.512314
O O8 0.507101 0.014202 0.428400
O O9 0.669617 0.117878 0.460471
O O10 0.644619 0.075644 0.369770
O O11 0.610067 0.948933 0.433172
O O12 0.591135 0.182270 0.515971
O O13 0.475677 0.237839 0.525543
O O14 0.428957 0.074083 0.550818
O O15 0.608507 0.804254 0.464077
O O16 0.587178 0.905992 0.524725
O O17 0.808498 0.616996 0.222706
O O18 0.919672 0.609090 0.281313
O O19 0.943196 0.471598 0.302015
#
# Coordination Sequence:
#
# PCOD8322847 Si02
#       7
#    18  18  18  18  18  18  18
#     4   9  16  26  43  69  99 127 154 186 228 279
#     4   9  16  26  43  70 100 128 156 190 231 278
#     4   9  20  35  50  70  97 128 162 202 247 285
#     4   9  18  33  53  76  99 125 158 199 245 291
#     4  10  18  31  50  70  96 130 164 198 238 284
#     4  10  20  33  50  73  98 125 159 201 246 288
#     4  10  19  34  52  70  97 131 161 196 244 289
#
# _framework density 17.311824000000001
#
# number of rings (size 3 to 8) (size 9 to 14) (size 15 to 20)
#    0.000    2.571    1.429    2.143    0.000    5.143 
#    0.000    0.000    0.000    5.143    0.000    0.000 
#    0.000    5.714    0.000    0.000    0.000    0.000 
#
# Total GULP energy -520708.040821 kJ/mol
# GULP energy per Si atom -12397.810496 kJ/mol
# Density = 1.727242 g / cm^3
# Si number density = 17.311824 Si / 1000 Ang^3
#
#
#
# Elastic Constant Matrix: (Units=GPa)
#
#
# Indices 1 2 3 4 5 6 
#
# 1 72.9558 35.1477 26.7273 -3.8618 0.0001 0.0000
# 2 35.1477 72.9558 26.7273 3.8618 -0.0001 0.0000
# 3 26.7273 26.7273 75.7860 0.0000 0.0000 0.0000
# 4 -3.8618 3.8618 0.0000 19.6979 0.0000 -0.0001
# 5 0.0001 -0.0001 0.0000 0.0000 19.6979 -3.8618
# 6 0.0000 0.0000 0.0000 -0.0001 -3.8618 18.9040
#
#
#
# Elastic Compliance Matrix: (Units=1/GPa)
#
#
# Indices 1 2 3 4 5 6 
#
# 1 0.019379 -0.008174 -0.003951 0.005402 0.000000 0.000000
# 2 -0.008174 0.019379 -0.003951 -0.005402 0.000000 0.000000
# 3 -0.003951 -0.003951 0.015982 0.000000 0.000000 0.000000
# 4 0.005402 -0.005402 0.000000 0.052885 0.000000 0.000000
# 5 0.000000 0.000000 0.000000 0.000000 0.052885 0.010804
# 6 0.000000 0.000000 0.000000 0.000000 0.010804 0.055106
#
#
# Mechanical properties :
#
#
# Convention : Reuss Voigt Hill
#
# Bulk Modulus (GPa) = 44.27702 44.32248 44.29975
# Shear Modulus (GPa) = 19.58501 20.53299 20.05900
#
# Velocity S-wave (km/s) = 3.36714 3.44767 3.40764
# Velocity P-wave (km/s) = 6.38346 6.44256 6.41308
#
# Compressibility (1/GPa) = 0.02258508
#
# Stress axis : x y z
#
# Youngs Moduli (GPa) = 51.60339 51.60339 62.57001
#
# Poissons Ratio (x) = 0.42182 0.24724
# Poissons Ratio (y) = 0.42182 0.24724
# Poissons Ratio (z) = 0.20390 0.20390
#
# Static dielectric constant tensor:
#      x y z
#    x 3.163810 0.000000 0.000000 
#    y 0.000000 3.163810 0.000000 
#    z 0.000000 0.000000 3.110530 
# 
# 
# High freq. dielectric constant tensor:
#      x y z
#    x 1.664010 0.000000 0.000000 
#    y 0.000000 1.664010 0.000000 
#    z 0.000000 0.000000 1.645320 
# 
# From -- ./inp_files/4151.got.cif
#   From: 2010.03.12/outbox.cif.g09.slc.cpg/sg160_3_cif.got.tgz:4151.got - 2010.04.02 06:26:15.
