data_PCOD8322713
_publ_section_title
;
Structure prediction by ZEFSAII (Michael W. Deem and Ramdas Pophale) SiO2 
 PCOD8322713
Probable space group: P 3 M 1
;
_chemical_formula_sum "Si O2"
_cell_formula_units_Z 48
_cell_length_a 20.510389
_cell_length_b 20.510389
_cell_length_c 8.415244
_cell_angle_alpha 90.000000
_cell_angle_beta 90.000000
_cell_angle_gamma 120.000000
_cell_volume 3065.809313
_symmetry_space_group_name_H-M "P 3 M 1"
_symmetry_group_IT_number 156
_symmetry_cell_setting 'hexagonal'
loop_
_space_group_symop_operation_xyz
x,y,z
-y,x-y,z
-x+y,-x,z
-x+y,y,z
x,x-y,z
-y,-x,z
loop_
_atom_site_type_symbol
_atom_site_label
_atom_site_fract_x
_atom_site_fract_y
_atom_site_fract_z
Si Si1 0.613131 0.077678 0.642800
Si Si2 0.386870 0.922324 0.142800
Si Si3 0.480427 0.813833 0.867222
Si Si4 0.745837 0.639797 0.226281
Si Si5 0.519574 0.333406 0.367220
Si Si6 0.639797 0.745837 0.726280
Si Si7 0.667657 0.027810 0.928475
Si Si8 0.332343 0.360153 0.428475
O O1 0.532007 0.064014 0.696040
O O2 0.659925 0.155319 0.546536
O O3 0.661490 0.080947 0.795884
O O4 0.600081 0.008843 0.530395
O O5 0.467994 0.935988 0.196040
O O6 0.338511 0.919054 0.295884
O O7 0.340075 0.844682 0.046537
O O8 0.399919 0.991158 0.030394
O O9 0.413626 0.827251 0.806155
O O10 0.450889 0.725445 0.871476
O O11 0.549902 0.856833 0.747130
O O12 0.832955 0.665911 0.261902
O O13 0.693069 0.549902 0.247130
O O14 0.717788 0.681663 0.347960
O O15 0.737838 0.659655 0.044077
O O16 0.549111 0.274556 0.371472
O O17 0.586375 0.413626 0.306152
O O18 0.665910 0.832955 0.761902
O O19 0.681662 0.717788 0.847959
O O20 0.659655 0.737838 0.544077
#
# Coordination Sequence:
#
# PCOD8322713 Si02
#       8
#     6   6   6   6   6   6   6   6
#     4   9  16  25  39  58  80 107 143 185 220 254
#     4   9  16  25  39  58  80 107 143 185 220 254
#     4   9  17  28  41  57  80 113 151 189 226 260
#     4   9  18  31  45  63  86 111 140 172 210 253
#     4   9  17  28  41  57  80 113 151 189 226 260
#     4   9  18  31  45  63  86 111 140 172 210 253
#     4   9  17  28  43  62  83 109 138 170 214 255
#     4   9  17  28  43  62  83 109 138 170 214 255
#
# _framework density 15.656549999999999
#
# number of rings (size 3 to 8) (size 9 to 14) (size 15 to 20)
#    0.000    3.000    0.000    1.000    0.000    8.000 
#    0.000    3.750    0.000    0.000    0.000    8.750 
#    0.000    0.000    0.000    7.500    0.000    0.000 
#
# Total GULP energy -595053.582592 kJ/mol
# GULP energy per Si atom -12396.949637 kJ/mol
# Density = 1.562091 g / cm^3
# Si number density = 15.656550 Si / 1000 Ang^3
#
#
#
# Elastic Constant Matrix: (Units=GPa)
#
#
# Indices 1 2 3 4 5 6 
#
# 1 60.5456 28.8191 31.3181 0.0000 -0.0002 0.0000
# 2 28.8191 60.5456 31.3181 0.0000 0.0002 0.0000
# 3 31.3181 31.3181 90.1952 0.0000 0.0000 0.0000
# 4 0.0000 0.0000 0.0000 15.8398 0.0000 0.0002
# 5 -0.0002 0.0002 0.0000 0.0000 15.8398 0.0000
# 6 0.0000 0.0000 0.0000 0.0002 0.0000 15.8633
#
#
#
# Elastic Compliance Matrix: (Units=1/GPa)
#
#
# Indices 1 2 3 4 5 6 
#
# 1 0.023154 -0.008365 -0.005135 0.000000 0.000000 0.000000
# 2 -0.008365 0.023154 -0.005135 0.000000 0.000000 0.000000
# 3 -0.005135 -0.005135 0.014653 0.000000 0.000000 0.000000
# 4 0.000000 0.000000 0.000000 0.063132 0.000000 -0.000001
# 5 0.000000 0.000000 0.000000 0.000000 0.063132 0.000000
# 6 0.000000 0.000000 0.000000 -0.000001 0.000000 0.063039
#
#
# Mechanical properties :
#
#
# Convention : Reuss Voigt Hill
#
# Bulk Modulus (GPa) = 42.21002 43.79965 43.00483
# Shear Modulus (GPa) = 16.92428 17.49729 17.21079
#
# Velocity S-wave (km/s) = 3.29138 3.34663 3.31912
# Velocity P-wave (km/s) = 6.43916 6.55510 6.49739
#
# Compressibility (1/GPa) = 0.02369106
#
# Stress axis : x y z
#
# Youngs Moduli (GPa) = 43.18830 43.18830 68.24420
#
# Poissons Ratio (x) = 0.36127 0.35045
# Poissons Ratio (y) = 0.36127 0.35045
# Poissons Ratio (z) = 0.22178 0.22178
#
# Static dielectric constant tensor:
#      x y z
#    x 2.864560 0.000000 0.000000 
#    y 0.000000 2.864560 0.000000 
#    z 0.000000 0.000000 3.067560 
# 
# 
# High freq. dielectric constant tensor:
#      x y z
#    x 1.575930 0.000000 0.000000 
#    y 0.000000 1.575930 0.000000 
#    z 0.000000 0.000000 1.602070 
# 
# From -- ./inp_files/585.got.cif
#   From: 2010.03.12/outbox.cif.g09.slc.cpg/sg156_cif.got.tgz:585.got - 2010.04.03 13:58:47.
