data_PCOD8322551
_publ_section_title
;
Structure prediction by ZEFSAII (Michael W. Deem and Ramdas Pophale) SiO2 
 PCOD8322551
Probable space group: R 3 2
;
_chemical_formula_sum "Si O2"
_cell_formula_units_Z 69
_cell_length_a 15.230394
_cell_length_b 15.230394
_cell_length_c 15.981473
_cell_angle_alpha 90.000000
_cell_angle_beta 90.000000
_cell_angle_gamma 120.000000
_cell_volume 3210.478116
_symmetry_space_group_name_H-M "R 3 2"
_symmetry_group_IT_number 155
_symmetry_cell_setting 'hexagonal'
loop_
_space_group_symop_operation_xyz
x,y,z
-y,x-y,z
-x+y,-x,z
x-y,-y,-z
-x,-x+y,-z
y,x,-z
2/3+x,1/3+y,1/3+z
2/3-y,1/3+x-y,1/3+z
2/3-x+y,1/3-x,1/3+z
2/3+x-y,1/3-y,1/3-z
2/3-x,1/3-x+y,1/3-z
2/3+y,1/3+x,1/3-z
1/3+x,2/3+y,2/3+z
1/3-y,2/3+x-y,2/3+z
1/3-x+y,2/3-x,2/3+z
1/3+x-y,2/3-y,2/3-z
1/3-x,2/3-x+y,2/3-z
1/3+y,2/3+x,2/3-z
loop_
_atom_site_type_symbol
_atom_site_label
_atom_site_fract_x
_atom_site_fract_y
_atom_site_fract_z
Si Si1 0.022633 0.199903 0.367354
Si Si2 0.773065 0.608474 0.370719
Si Si3 0.509658 0.975405 0.886321
Si Si4 0.333334 0.666667 0.264145
Si Si5 0.333334 0.349277 0.666667
O O1 0.092190 0.236424 0.285362
O O2 0.096832 0.248474 0.448087
O O3 0.946021 0.241455 0.367067
O O4 0.966263 0.078471 0.369302
O O5 0.666667 0.514428 0.333334
O O6 0.802948 0.587948 0.463488
O O7 0.872084 0.634370 0.317266
O O8 0.621716 0.998672 0.915792
O O9 0.333334 0.666668 0.166667
#
# Coordination Sequence:
#
# PCOD8322551 Si02
#       5
#    18  18  18   6   9
#     4  10  21  37  63  94 128 169 217 277 349 399
#     4  12  23  43  67  96 131 177 228 273 345 403
#     4  10  21  42  65  97 132 172 227 277 332 417
#     4  12  21  33  60  99 130 161 214 291 351 399
#     4  10  24  44  66  96 132 182 232 282 346 404
#
# _framework density 21.492125000000001
#
# number of rings (size 3 to 8) (size 9 to 14) (size 15 to 20)
#    0.000    1.565    2.609    6.261    0.000    0.000 
#   14.870    0.000    0.000    0.000    0.000    0.000 
#    0.000    0.000    0.000    0.000    0.000    0.000 
#
# Total GULP energy -284954.215667 kJ/mol
# GULP energy per Si atom -12389.313725 kJ/mol
# Density = 2.144321 g / cm^3
# Si number density = 21.492125 Si / 1000 Ang^3
#
#
#
# Elastic Constant Matrix: (Units=GPa)
#
#
# Indices 1 2 3 4 5 6 
#
# 1 118.0425 34.7968 34.9439 1.5812 -0.0019 0.0000
# 2 34.7968 118.0433 34.9442 -1.5833 0.0002 -0.0002
# 3 34.9439 34.9442 70.3832 -0.0013 0.0003 0.0000
# 4 1.5812 -1.5833 -0.0013 -0.2848 -0.0018 0.0012
# 5 -0.0019 0.0002 0.0003 -0.0018 -0.2938 1.5800
# 6 0.0000 -0.0002 0.0000 0.0012 1.5800 41.6224
#
#
#
# Elastic Compliance Matrix: (Units=1/GPa)
#
#
# Indices 1 2 3 4 5 6 
#
# 1 0.009192 -0.000727 -0.004202 0.055089 -0.000343 0.000011
# 2 -0.000727 0.009191 -0.004203 -0.055109 0.000295 -0.000010
# 3 -0.004202 -0.004203 0.018381 -0.000043 0.000037 -0.000001
# 4 0.055089 -0.055109 -0.000043 -2.898815 0.014859 -0.000480
# 5 -0.000343 0.000295 0.000037 0.014859 -2.826981 0.107310
# 6 0.000011 -0.000010 -0.000001 -0.000480 0.107310 0.019952
#
#
# Mechanical properties :
#
#
# Convention : Reuss Voigt Hill
#
# Bulk Modulus (GPa) = 54.05433 57.31541 55.68487
# Shear Modulus (GPa) = -0.88579 21.66103 10.38762
#
# Velocity S-wave (km/s) = -0.64268 3.17812 2.20084
# Velocity P-wave (km/s) = 4.96534 6.33982 5.69420
#
# Compressibility (1/GPa) = 0.01849991
#
# Stress axis : x y z
#
# Youngs Moduli (GPa) = 108.79462 108.80437 54.40454
#
# Poissons Ratio (x) = 0.07908 0.22859
# Poissons Ratio (y) = 0.07907 0.22868
# Poissons Ratio (z) = 0.45711 0.45733
#
# Static dielectric constant tensor:
#      x y z
#    x 5.264830 -0.000130 0.000000 
#    y -0.000130 5.265150 0.000050 
#    z 0.000000 0.000050 3.765480 
# 
# 
# High freq. dielectric constant tensor:
#      x y z
#    x 1.841900 0.000000 0.000000 
#    y 0.000000 1.841900 0.000000 
#    z 0.000000 0.000000 1.829190 
# 
# From -- ./inp_files/5918.got.cif
#   From: 2010.03.12/outbox.cif.g09.slc.cpg/sg155_3_cif.got.tgz:5918.got - 2010.04.03 13:54:13.
