data_PCOD8322252
_publ_section_title
;
Structure prediction by ZEFSAII (Michael W. Deem and Ramdas Pophale) SiO2 
 PCOD8322252
Probable space group: P 32 1 2
;
_chemical_formula_sum "Si O2"
_cell_formula_units_Z 42
_cell_length_a 8.553795
_cell_length_b 8.553795
_cell_length_c 29.611708
_cell_angle_alpha 90.000000
_cell_angle_beta 90.000000
_cell_angle_gamma 120.000000
_cell_volume 1876.340987
_symmetry_space_group_name_H-M "P 32 1 2"
_symmetry_group_IT_number 153
_symmetry_cell_setting 'hexagonal'
loop_
_space_group_symop_operation_xyz
x,y,z
-y,x-y,2/3+z
-x+y,-x,1/3+z
-y,-x,1/3-z
-x+y,y,2/3-z
x,x-y,-z
loop_
_atom_site_type_symbol
_atom_site_label
_atom_site_fract_x
_atom_site_fract_y
_atom_site_fract_z
Si Si1 0.913240 0.600543 0.718404
Si Si2 0.393365 0.281133 0.912343
Si Si3 0.145646 0.736813 0.571036
Si Si4 0.577161 0.005647 0.699873
Si Si5 0.268364 0.770725 0.219118
Si Si6 0.820024 0.837957 0.183452
Si Si7 0.628856 0.926929 0.262037
O O1 0.865145 0.458482 0.760212
O O2 0.744829 0.631388 0.709555
O O3 0.090089 0.791145 0.729468
O O4 0.962037 0.496905 0.680071
O O5 0.246235 0.349187 0.916225
O O6 0.386360 0.166758 0.956730
O O7 0.341403 0.155119 0.868692
O O8 0.992013 0.558850 0.595752
O O9 0.306234 0.704094 0.558505
O O10 0.073359 0.763318 0.524786
O O11 0.573658 0.813091 0.702855
O O12 0.220034 0.779967 0.166667
O O13 0.457071 0.931680 0.239399
O O14 0.753836 0.925781 0.221487
O O15 0.017836 0.982165 0.166667
#
# Coordination Sequence:
#
# PCOD8322252 Si02
#       7
#     6   6   6   6   6   6   6
#     4  11  22  46  65  96 134 182 235 276 334 416
#     4  10  24  40  62  92 139 175 212 287 339 396
#     4  10  21  39  70  97 130 173 219 281 343 412
#     4  10  23  45  65  95 135 177 229 280 333 406
#     4  10  19  39  65  98 130 167 215 274 341 408
#     4  11  20  41  64 102 138 164 219 283 357 419
#     4  10  22  40  73  97 126 183 223 282 343 400
#
# _framework density 22.383994000000001
#
# number of rings (size 3 to 8) (size 9 to 14) (size 15 to 20)
#    0.000    1.714    2.857    1.286    0.000    0.000 
#   10.286    8.571    0.000    0.000    0.000    0.000 
#    0.000    0.000    0.000    0.000    0.000    0.000 
#
# Total GULP energy -520397.123952 kJ/mol
# GULP energy per Si atom -12390.407713 kJ/mol
# Density = 2.233305 g / cm^3
# Si number density = 22.383994 Si / 1000 Ang^3
#
#
#
# Elastic Constant Matrix: (Units=GPa)
#
#
# Indices 1 2 3 4 5 6 
#
# 1 109.3170 41.3941 45.0854 -0.0001 -7.6369 0.0000
# 2 41.3941 109.3170 45.0854 0.0001 7.6369 0.0000
# 3 45.0854 45.0854 100.5814 0.0000 0.0000 0.0000
# 4 -0.0001 0.0001 0.0000 33.1769 0.0000 7.6369
# 5 -7.6369 7.6369 0.0000 0.0000 33.1769 -0.0001
# 6 0.0000 0.0000 0.0000 7.6369 -0.0001 33.9615
#
#
#
# Elastic Compliance Matrix: (Units=1/GPa)
#
#
# Indices 1 2 3 4 5 6 
#
# 1 0.012297 -0.003230 -0.004064 0.000000 0.003574 0.000000
# 2 -0.003230 0.012297 -0.004064 0.000000 -0.003574 0.000000
# 3 -0.004064 -0.004064 0.013586 0.000000 0.000000 0.000000
# 4 0.000000 0.000000 0.000000 0.031787 0.000000 -0.007148
# 5 0.003574 -0.003574 0.000000 0.000000 0.031787 0.000000
# 6 0.000000 0.000000 0.000000 -0.007148 0.000000 0.031052
#
#
# Mechanical properties :
#
#
# Convention : Reuss Voigt Hill
#
# Bulk Modulus (GPa) = 64.67205 64.70502 64.68854
# Shear Modulus (GPa) = 31.11865 32.57307 31.84586
#
# Velocity S-wave (km/s) = 3.73261 3.81884 3.77597
# Velocity P-wave (km/s) = 6.89430 6.95804 6.92624
#
# Compressibility (1/GPa) = 0.01546263
#
# Stress axis : x y z
#
# Youngs Moduli (GPa) = 81.32373 81.32373 73.60667
#
# Poissons Ratio (x) = 0.26265 0.29915
# Poissons Ratio (y) = 0.26265 0.29915
# Poissons Ratio (z) = 0.33051 0.33051
#
# Static dielectric constant tensor:
#      x y z
#    x 4.145260 0.000000 0.000000 
#    y 0.000000 4.145260 0.000000 
#    z 0.000000 0.000000 3.960830 
# 
# 
# High freq. dielectric constant tensor:
#      x y z
#    x 1.881280 0.000000 0.000000 
#    y 0.000000 1.881280 0.000000 
#    z 0.000000 0.000000 1.868980 
# 
# From -- ./inp_files/5201.got.cif
#   From: 2010.03.12/outbox.cif.g09.slc.cpg/sg153_3_cif.got.tgz:5201.got - 2010.04.03 13:48:33.
