data_PCOD8322039
_publ_section_title
;
Structure prediction by ZEFSAII (Michael W. Deem and Ramdas Pophale) SiO2 
 PCOD8322039
Probable space group: P 31 2 1
;
_chemical_formula_sum "Si O2"
_cell_formula_units_Z 33
_cell_length_a 10.785141
_cell_length_b 10.785141
_cell_length_c 15.644769
_cell_angle_alpha 90.000000
_cell_angle_beta 90.000000
_cell_angle_gamma 120.000000
_cell_volume 1575.982683
_symmetry_space_group_name_H-M "P 31 2 1"
_symmetry_group_IT_number 152
_symmetry_cell_setting 'hexagonal'
loop_
_space_group_symop_operation_xyz
x,y,z
-y,x-y,1/3+z
-x+y,-x,2/3+z
x-y,-y,2/3-z
-x,-x+y,1/3-z
y,x,-z
loop_
_atom_site_type_symbol
_atom_site_label
_atom_site_fract_x
_atom_site_fract_y
_atom_site_fract_z
Si Si1 0.581418 0.254114 0.768827
Si Si2 0.900924 0.165816 0.584983
Si Si3 0.161487 0.899548 0.912164
Si Si4 0.760846 0.667021 0.239845
Si Si5 0.383457 0.383457 0.500000
Si Si6 0.418807 0.763451 0.075595
O O1 0.423449 0.232765 0.760887
O O2 0.580571 0.104110 0.778698
O O3 0.665369 0.320341 0.679531
O O4 0.653556 0.362092 0.846244
O O5 0.755171 0.167597 0.596955
O O6 0.000000 0.236259 0.666667
O O7 0.985371 0.249938 0.501824
O O8 0.859393 0.002817 0.572963
O O9 0.244688 0.000000 0.833334
O O10 0.222932 0.973895 0.004607
O O11 0.905305 0.657481 0.227832
O O12 0.621725 0.508920 0.243095
#
# Coordination Sequence:
#
# PCOD8322039 Si02
#       6
#     6   6   6   6   3   6
#     4  10  21  42  68  94 129 168 223 272 329 398
#     4  12  26  42  68  95 136 173 220 275 332 396
#     4  11  25  41  63  96 129 170 217 273 328 397
#     4  10  23  41  68  95 129 175 222 268 335 398
#     4  10  18  42  68  92 122 180 220 266 324 408
#     4  10  23  42  68  96 127 171 223 272 329 393
#
# _framework density 20.939318
#
# number of rings (size 3 to 8) (size 9 to 14) (size 15 to 20)
#    0.000    1.455    0.909    4.364    6.364    1.455 
#    0.000    0.000    0.000    0.000    0.000    0.000 
#    0.000    0.000    0.000    0.000    0.000    0.000 
#
# Total GULP energy -409207.817877 kJ/mol
# GULP energy per Si atom -12400.236905 kJ/mol
# Density = 2.089166 g / cm^3
# Si number density = 20.939318 Si / 1000 Ang^3
#
#
#
# Elastic Constant Matrix: (Units=GPa)
#
#
# Indices 1 2 3 4 5 6 
#
# 1 80.3706 30.8034 40.8922 1.3828 -0.0004 0.0000
# 2 30.8034 80.3706 40.8922 -1.3828 0.0004 0.0000
# 3 40.8922 40.8922 186.1843 0.0000 0.0000 0.0000
# 4 1.3828 -1.3828 0.0000 29.1168 0.0000 0.0004
# 5 -0.0004 0.0004 0.0000 0.0000 29.1168 1.3828
# 6 0.0000 0.0000 0.0000 0.0004 1.3828 24.7836
#
#
#
# Elastic Compliance Matrix: (Units=1/GPa)
#
#
# Indices 1 2 3 4 5 6 
#
# 1 0.015478 -0.004750 -0.002356 -0.000961 0.000000 0.000000
# 2 -0.004750 0.015478 -0.002356 0.000961 0.000000 0.000000
# 3 -0.002356 -0.002356 0.006406 0.000000 0.000000 0.000000
# 4 -0.000961 0.000961 0.000000 0.034436 0.000000 -0.000001
# 5 0.000000 0.000000 0.000000 0.000000 0.034436 -0.001921
# 6 0.000000 0.000000 0.000000 -0.000001 -0.001921 0.040457
#
#
# Mechanical properties :
#
#
# Convention : Reuss Voigt Hill
#
# Bulk Modulus (GPa) = 54.23726 63.56678 58.90202
# Shear Modulus (GPa) = 29.11015 32.22595 30.66805
#
# Velocity S-wave (km/s) = 3.73260 3.92729 3.83118
# Velocity P-wave (km/s) = 6.67344 7.14061 6.91097
#
# Compressibility (1/GPa) = 0.01843751
#
# Stress axis : x y z
#
# Youngs Moduli (GPa) = 64.60668 64.60668 156.10225
#
# Poissons Ratio (x) = 0.30688 0.36782
# Poissons Ratio (y) = 0.30688 0.36782
# Poissons Ratio (z) = 0.15223 0.15223
#
# Static dielectric constant tensor:
#      x y z
#    x 3.682600 0.000000 0.000000 
#    y 0.000000 3.682600 0.000000 
#    z 0.000000 0.000000 4.105520 
# 
# 
# High freq. dielectric constant tensor:
#      x y z
#    x 1.810090 0.000000 0.000000 
#    y 0.000000 1.810090 0.000000 
#    z 0.000000 0.000000 1.845900 
# 
# From -- ./inp_files/2023.got.cif
#   From: 2010.03.12/outbox.cif.g09.slc.cpg/sg152_2_cif.got.tgz:2023.got - 2010.04.03 13:45:27.
