data_PCOD8322904
_publ_section_title
;
Structure prediction by ZEFSAII (Michael W. Deem and Ramdas Pophale) SiO2 
 PCOD8322904
Probable space group: R 3 C
;
_chemical_formula_sum "Si O2"
_cell_formula_units_Z 108
_cell_length_a 16.577497
_cell_length_b 16.577497
_cell_length_c 21.186450
_cell_angle_alpha 90.000000
_cell_angle_beta 90.000000
_cell_angle_gamma 120.000000
_cell_volume 5042.277464
_symmetry_space_group_name_H-M "R 3 C"
_symmetry_group_IT_number 161
_symmetry_cell_setting 'hexagonal'
loop_
_space_group_symop_operation_xyz
x,y,z
-y,x-y,z
-x+y,-x,z
-x+y,y,1/2+z
x,x-y,1/2+z
-y,-x,1/2+z
2/3+x,1/3+y,1/3+z
2/3-y,1/3+x-y,1/3+z
2/3-x+y,1/3-x,1/3+z
2/3-x+y,1/3+y,5/6+z
2/3+x,1/3+x-y,5/6+z
2/3-y,1/3-x,5/6+z
1/3+x,2/3+y,2/3+z
1/3-y,2/3+x-y,2/3+z
1/3-x+y,2/3-x,2/3+z
1/3-x+y,2/3+y,1/6+z
1/3+x,2/3+x-y,1/6+z
1/3-y,2/3-x,1/6+z
loop_
_atom_site_type_symbol
_atom_site_label
_atom_site_fract_x
_atom_site_fract_y
_atom_site_fract_z
Si Si1 0.350046 0.336493 0.788764
Si Si2 0.084523 0.555694 0.606388
Si Si3 0.884491 0.920943 0.553815
Si Si4 0.468323 0.922439 0.830285
Si Si5 0.999337 0.330607 0.146962
Si Si6 0.792561 0.194230 0.135529
O O1 0.361794 0.246015 0.798481
O O2 0.423790 0.422202 0.831801
O O3 0.368558 0.368924 0.716572
O O4 0.249377 0.318656 0.807867
O O5 0.166116 0.617824 0.654435
O O6 0.015443 0.598853 0.602199
O O7 0.126303 0.561834 0.535038
O O8 0.823470 0.876077 0.615761
O O9 0.966975 0.895591 0.555576
O O10 0.433166 0.877909 0.900979
O O11 0.413638 0.972423 0.804354
O O12 0.903505 0.235751 0.133118
#
# Coordination Sequence:
#
# PCOD8322904 Si02
#       6
#    18  18  18  18  18  18
#     4  10  23  40  67  95 132 176 224 266 330 391
#     4  11  23  43  62 100 133 171 225 266 330 394
#     4  10  26  44  68  94 128 172 221 269 316 399
#     4  11  23  40  69  94 131 178 216 274 332 379
#     4  10  23  40  66  96 132 176 222 270 328 391
#     4  10  24  41  62  99 132 173 214 279 322 396
#
# _framework density 21.418893000000001
#
# number of rings (size 3 to 8) (size 9 to 14) (size 15 to 20)
#    0.333    1.333    1.667    1.000    9.333    0.000 
#    6.000    0.000    0.000    0.667    0.000    0.000 
#    0.000    0.000    0.000    0.000    0.000    0.000 
#
# Total GULP energy -446003.065293 kJ/mol
# GULP energy per Si atom -12388.974036 kJ/mol
# Density = 2.137014 g / cm^3
# Si number density = 21.418893 Si / 1000 Ang^3
#
#
#
# Elastic Constant Matrix: (Units=GPa)
#
#
# Indices 1 2 3 4 5 6 
#
# 1 88.2371 26.0002 16.6471 -0.1046 0.0000 0.0000
# 2 26.0002 88.2371 16.6471 0.1046 0.0000 0.0000
# 3 16.6471 16.6471 155.8772 0.0000 0.0000 0.0000
# 4 -0.1046 0.1046 0.0000 23.7677 0.0000 0.0000
# 5 0.0000 0.0000 0.0000 0.0000 23.7677 -0.1046
# 6 0.0000 0.0000 0.0000 0.0000 -0.1046 31.1184
#
#
#
# Elastic Compliance Matrix: (Units=1/GPa)
#
#
# Indices 1 2 3 4 5 6 
#
# 1 0.012551 -0.003516 -0.000965 0.000071 0.000000 0.000000
# 2 -0.003516 0.012551 -0.000965 -0.000071 0.000000 0.000000
# 3 -0.000965 -0.000965 0.006621 0.000000 0.000000 0.000000
# 4 0.000071 -0.000071 0.000000 0.042074 0.000000 0.000000
# 5 0.000000 0.000000 0.000000 0.000000 0.042074 0.000141
# 6 0.000000 0.000000 0.000000 0.000000 0.000141 0.032136
#
#
# Mechanical properties :
#
#
# Convention : Reuss Voigt Hill
#
# Bulk Modulus (GPa) = 48.00382 50.10445 49.05413
# Shear Modulus (GPa) = 30.14855 33.93457 32.04156
#
# Velocity S-wave (km/s) = 3.75583 3.98468 3.87195
# Velocity P-wave (km/s) = 6.42409 6.67935 6.55296
#
# Compressibility (1/GPa) = 0.02083167
#
# Stress axis : x y z
#
# Youngs Moduli (GPa) = 79.67234 79.67234 151.02545
#
# Poissons Ratio (x) = 0.28017 0.14572
# Poissons Ratio (y) = 0.28017 0.14572
# Poissons Ratio (z) = 0.07688 0.07688
#
# Static dielectric constant tensor:
#      x y z
#    x 3.701710 0.000000 0.000000 
#    y 0.000000 3.701710 0.000000 
#    z 0.000000 0.000000 4.360310 
# 
# 
# High freq. dielectric constant tensor:
#      x y z
#    x 1.822750 0.000000 0.000000 
#    y 0.000000 1.822750 0.000000 
#    z 0.000000 0.000000 1.868520 
# 
# From -- ./inp_files/1695.got.cif
#   From: 2010.03.12/outbox.cif.g09.slc.cpg/sg161_cif.got.tgz:1695.got - 2010.04.02 06:27:14.
