data_PCOD8322676
_publ_section_title
;
Structure prediction by ZEFSAII (Michael W. Deem and Ramdas Pophale) SiO2 
 PCOD8322676
Probable space group: P 3 M 1
;
_chemical_formula_sum "Si O2"
_cell_formula_units_Z 36
_cell_length_a 12.892391
_cell_length_b 12.892391
_cell_length_c 15.148182
_cell_angle_alpha 90.000000
_cell_angle_beta 90.000000
_cell_angle_gamma 120.000000
_cell_volume 2180.510000
_symmetry_space_group_name_H-M "P 3 M 1"
_symmetry_group_IT_number 156
_symmetry_cell_setting 'hexagonal'
loop_
_space_group_symop_operation_xyz
x,y,z
-y,x-y,z
-x+y,-x,z
-x+y,y,z
x,x-y,z
-y,-x,z
loop_
_atom_site_type_symbol
_atom_site_label
_atom_site_fract_x
_atom_site_fract_y
_atom_site_fract_z
Si Si1 0.424524 0.335158 0.008800
Si Si2 0.333592 0.423612 0.167783
Si Si3 0.333164 0.906984 0.858557
Si Si4 0.760481 0.999717 0.318766
Si Si5 0.333604 0.906490 0.658303
Si Si6 0.760530 0.759825 0.518656
O O1 0.412228 0.206114 0.016832
O O2 0.564252 0.435749 0.008853
O O3 0.355814 0.354442 0.089283
O O4 0.360318 0.340736 0.919278
O O5 0.214492 0.428983 0.146661
O O6 0.442239 0.557762 0.179060
O O7 0.321794 0.351826 0.257258
O O8 0.435407 0.870814 0.870770
O O9 0.207781 0.792220 0.886038
O O10 0.329743 0.947108 0.758365
O O11 0.873307 0.126694 0.291838
O O12 0.718175 0.001999 0.418646
O O13 0.800432 0.900216 0.308731
O O14 0.451490 0.902980 0.638268
O O15 0.225422 0.774579 0.640472
O O16 0.333045 0.000015 0.588744
O O17 0.884739 0.769477 0.539575
O O18 0.778692 0.889346 0.535902
#
# Coordination Sequence:
#
# PCOD8322676 Si02
#       6
#     6   6   6   6   6   6
#     4  10  20  33  49  68  91 120 154 191 228 269
#     4  10  20  33  50  72  97 123 151 186 228 274
#     4   9  17  30  49  71  94 121 154 192 232 275
#     4   9  17  30  48  69  92 120 155 193 232 274
#     4   9  17  29  46  69  95 123 155 191 232 276
#     4   9  17  29  46  67  91 121 157 195 232 272
#
# _framework density 16.509900999999999
#
# number of rings (size 3 to 8) (size 9 to 14) (size 15 to 20)
#    0.000    2.667    0.000    2.000    0.000    4.000 
#    0.000    1.667    0.000    6.333    0.000    0.000 
#    0.000    0.000    0.000    0.000    0.000    0.000 
#
# Total GULP energy -446388.996506 kJ/mol
# GULP energy per Si atom -12399.694347 kJ/mol
# Density = 1.647232 g / cm^3
# Si number density = 16.509901 Si / 1000 Ang^3
#
#
#
# Elastic Constant Matrix: (Units=GPa)
#
#
# Indices 1 2 3 4 5 6 
#
# 1 95.4317 55.0317 62.1281 -0.1921 -0.0006 0.0000
# 2 55.0317 95.4317 62.1281 0.1921 0.0006 0.0000
# 3 62.1281 62.1281 111.1954 0.0000 0.0000 0.0000
# 4 -0.1921 0.1921 0.0000 25.6427 0.0000 0.0006
# 5 -0.0006 0.0006 0.0000 0.0000 25.6427 -0.1921
# 6 0.0000 0.0000 0.0000 0.0006 -0.1921 20.2000
#
#
#
# Elastic Compliance Matrix: (Units=1/GPa)
#
#
# Indices 1 2 3 4 5 6 
#
# 1 0.018547 -0.006207 -0.006895 0.000185 0.000001 0.000000
# 2 -0.006207 0.018547 -0.006895 -0.000185 -0.000001 0.000000
# 3 -0.006895 -0.006895 0.016698 0.000000 0.000000 0.000000
# 4 0.000185 -0.000185 0.000000 0.039000 0.000000 -0.000001
# 5 0.000001 -0.000001 0.000000 0.000000 0.039000 0.000371
# 6 0.000000 0.000000 0.000000 -0.000001 0.000371 0.049508
#
#
# Mechanical properties :
#
#
# Convention : Reuss Voigt Hill
#
# Bulk Modulus (GPa) = 72.46988 73.40384 72.93686
# Shear Modulus (GPa) = 22.13433 22.48180 22.30807
#
# Velocity S-wave (km/s) = 3.66549 3.69415 3.67985
# Velocity P-wave (km/s) = 7.86794 7.92166 7.89484
#
# Compressibility (1/GPa) = 0.01379884
#
# Stress axis : x y z
#
# Youngs Moduli (GPa) = 53.91690 53.91690 59.88854
#
# Poissons Ratio (x) = 0.33467 0.41291
# Poissons Ratio (y) = 0.33467 0.41291
# Poissons Ratio (z) = 0.37174 0.37174
#
# Static dielectric constant tensor:
#      x y z
#    x 3.022600 0.000000 0.000000 
#    y 0.000000 3.022600 0.000000 
#    z 0.000000 0.000000 3.364810 
# 
# 
# High freq. dielectric constant tensor:
#      x y z
#    x 1.627220 0.000000 0.000000 
#    y 0.000000 1.627220 0.000000 
#    z 0.000000 0.000000 1.648730 
# 
# From -- ./inp_files/781.got.cif
#   From: 2010.03.12/outbox.cif.g09.slc.cpg/sg156_cif.got.tgz:781.got - 2010.04.03 13:58:47.
