data_PCOD8322439
_publ_section_title
;
Structure prediction by ZEFSAII (Michael W. Deem and Ramdas Pophale) SiO2 
 PCOD8322439
Probable space group: P 32 2 1
;
_chemical_formula_sum "Si O2"
_cell_formula_units_Z 18
_cell_length_a 7.408125
_cell_length_b 7.408125
_cell_length_c 17.173455
_cell_angle_alpha 90.000000
_cell_angle_beta 90.000000
_cell_angle_gamma 120.000000
_cell_volume 816.215639
_symmetry_space_group_name_H-M "P 32 2 1"
_symmetry_group_IT_number 154
_symmetry_cell_setting 'hexagonal'
loop_
_space_group_symop_operation_xyz
x,y,z
-y,x-y,2/3+z
-x+y,-x,1/3+z
x-y,-y,1/3-z
-x,-x+y,2/3-z
y,x,-z
loop_
_atom_site_type_symbol
_atom_site_label
_atom_site_fract_x
_atom_site_fract_y
_atom_site_fract_z
Si Si1 0.507652 0.465228 0.256099
Si Si2 0.044900 0.222922 0.191495
Si Si3 0.629763 0.124499 0.245568
O O1 0.664263 0.684971 0.215794
O O2 0.610810 0.327396 0.238295
O O3 0.506331 0.494820 0.348369
O O4 0.276110 0.372340 0.221624
O O5 0.872301 0.187966 0.257033
O O6 0.018561 0.000000 0.166667
O O7 0.538883 0.000000 0.166667
#
# Coordination Sequence:
#
# PCOD8322439 Si02
#       3
#     6   6   6
#     4  12  24  45  70 101 141 183 230 288 350 414
#     4  11  24  45  69 102 137 177 236 284 346 415
#     4  11  24  44  70 101 140 182 233 288 346 416
#
# _framework density 22.052994999999999
#
# number of rings (size 3 to 8) (size 9 to 14) (size 15 to 20)
#    0.000    0.667    3.333    6.000    0.000    0.000 
#    0.000    5.000    0.000    0.000    0.000    0.000 
#    0.000    0.000    0.000    0.000    0.000    0.000 
#
# Total GULP energy -223217.433234 kJ/mol
# GULP energy per Si atom -12400.968513 kJ/mol
# Density = 2.200280 g / cm^3
# Si number density = 22.052995 Si / 1000 Ang^3
#
#
#
# Elastic Constant Matrix: (Units=GPa)
#
#
# Indices 1 2 3 4 5 6 
#
# 1 313.0343 -204.6663 25.4698 -223.2221 0.0254 -0.0001
# 2 -204.6663 313.0343 25.4698 223.2221 -0.0254 0.0001
# 3 25.4698 25.4698 117.2802 0.0000 0.0000 0.0000
# 4 -223.2221 223.2221 0.0000 262.0500 -0.0001 -0.0252
# 5 0.0254 -0.0254 0.0000 -0.0001 262.0501 -223.2222
# 6 -0.0001 0.0001 0.0000 -0.0252 -223.2222 258.8503
#
#
#
# Elastic Compliance Matrix: (Units=1/GPa)
#
#
# Indices 1 2 3 4 5 6 
#
# 1 0.008777 0.001500 -0.002232 0.006199 -0.000001 0.000000
# 2 0.001500 0.008777 -0.002232 -0.006199 0.000001 0.000000
# 3 -0.002232 -0.002232 0.009496 0.000000 0.000000 0.000000
# 4 0.006199 -0.006199 0.000000 0.014378 0.000000 0.000001
# 5 -0.000001 0.000001 0.000000 0.000000 0.014378 0.012399
# 6 0.000000 0.000000 0.000000 0.000001 0.012399 0.014555
#
#
# Mechanical properties :
#
#
# Convention : Reuss Voigt Hill
#
# Bulk Modulus (GPa) = 47.34301 48.43280 47.88791
# Shear Modulus (GPa) = 60.00212 216.39510 138.19861
#
# Velocity S-wave (km/s) = 5.22180 9.91655 7.92481
# Velocity P-wave (km/s) = 7.60728 12.37445 10.27127
#
# Compressibility (1/GPa) = 0.02112244
#
# Stress axis : x y z
#
# Youngs Moduli (GPa) = 113.93008 113.93008 105.30785
#
# Poissons Ratio (x) = -0.17085 0.23503
# Poissons Ratio (y) = -0.17085 0.23503
# Poissons Ratio (z) = 0.25427 0.25427
#
# Static dielectric constant tensor:
#      x y z
#    x 3.472420 0.000000 0.000000 
#    y 0.000000 3.472420 0.000000 
#    z 0.000000 0.000000 4.134330 
# 
# 
# High freq. dielectric constant tensor:
#      x y z
#    x 1.878470 0.000000 0.000000 
#    y 0.000000 1.878470 0.000000 
#    z 0.000000 0.000000 1.866170 
# 
# From -- ./inp_files/2192.got.cif
#   From: 2010.03.12/outbox.cif.g09.slc.cpg/sg154_2_cif.got.tgz:2192.got - 2010.04.03 13:51:21.
