data_PCOD8322879
_publ_section_title
;
Structure prediction by ZEFSAII (Michael W. Deem and Ramdas Pophale) SiO2 
 PCOD8322879
Probable space group: R 3 M
;
_chemical_formula_sum "Si O2"
_cell_formula_units_Z 60
_cell_length_a 19.779157
_cell_length_b 19.779157
_cell_length_c 8.903586
_cell_angle_alpha 90.000000
_cell_angle_beta 90.000000
_cell_angle_gamma 120.000000
_cell_volume 3016.554285
_symmetry_space_group_name_H-M "R 3 M"
_symmetry_group_IT_number 160
_symmetry_cell_setting 'hexagonal'
loop_
_space_group_symop_operation_xyz
x,y,z
-y,x-y,z
-x+y,-x,z
-x+y,y,z
x,x-y,z
-y,-x,z
2/3+x,1/3+y,1/3+z
2/3-y,1/3+x-y,1/3+z
2/3-x+y,1/3-x,1/3+z
2/3-x+y,1/3+y,1/3+z
2/3+x,1/3+x-y,1/3+z
2/3-y,1/3-x,1/3+z
1/3+x,2/3+y,2/3+z
1/3-y,2/3+x-y,2/3+z
1/3-x+y,2/3-x,2/3+z
1/3-x+y,2/3+y,2/3+z
1/3+x,2/3+x-y,2/3+z
1/3-y,2/3-x,2/3+z
loop_
_atom_site_type_symbol
_atom_site_label
_atom_site_fract_x
_atom_site_fract_y
_atom_site_fract_z
Si Si1 0.666667 0.333334 0.509361
Si Si2 0.831270 0.915635 0.675374
Si Si3 0.417535 0.582466 0.987866
Si Si4 0.666667 0.333334 0.151365
Si Si5 0.720196 0.130004 0.231814
Si Si6 0.294808 0.431599 0.847008
O O1 0.710297 0.289704 0.568091
O O2 0.666667 0.333334 0.330574
O O3 0.843201 0.921601 0.499074
O O4 0.912968 0.956484 0.758589
O O5 0.783050 0.958363 0.732598
O O6 0.371223 0.491256 0.942428
O O7 0.795991 0.204010 0.307018
O O8 0.736336 0.058143 0.223595
O O9 0.645973 0.108040 0.335816
O O10 0.223263 0.446526 0.878674
#
# Coordination Sequence:
#
# PCOD8322879 Si02
#       6
#     3   9   9   3  18  18
#     4  12  22  35  61 102 127 170 202 267 340 386
#     4  10  24  39  59 104 132 164 218 275 327 384
#     4  12  22  38  67 100 133 161 215 274 327 383
#     4  12  22  38  67  90 136 179 217 270 322 389
#     4   9  22  41  61  92 126 170 215 258 318 395
#     4  11  22  41  69  91 129 173 216 264 325 390
#
# _framework density 19.890243000000002
#
# number of rings (size 3 to 8) (size 9 to 14) (size 15 to 20)
#    0.900    0.600    3.000    2.700    2.100    2.400 
#    0.000    0.000    0.000    0.000    0.000    0.000 
#    0.000    0.000    0.000    0.000    0.000    0.000 
#
# Total GULP energy -247844.097328 kJ/mol
# GULP energy per Si atom -12392.204866 kJ/mol
# Density = 1.984497 g / cm^3
# Si number density = 19.890243 Si / 1000 Ang^3
#
#
#
# Elastic Constant Matrix: (Units=GPa)
#
#
# Indices 1 2 3 4 5 6 
#
# 1 85.0715 44.9802 40.7611 1.9718 -0.0004 0.0002
# 2 44.9802 85.0720 40.7621 -1.9722 -0.0002 -0.0002
# 3 40.7611 40.7621 150.3949 -0.0008 -0.0025 0.0000
# 4 1.9718 -1.9722 -0.0008 18.4432 -0.0001 -0.0002
# 5 -0.0004 -0.0002 -0.0025 -0.0001 18.4430 1.9716
# 6 0.0002 -0.0002 0.0000 -0.0002 1.9716 20.0467
#
#
#
# Elastic Compliance Matrix: (Units=1/GPa)
#
#
# Indices 1 2 3 4 5 6 
#
# 1 0.017236 -0.007973 -0.002510 -0.002695 0.000000 0.000000
# 2 -0.007973 0.017236 -0.002511 0.002695 0.000000 0.000000
# 3 -0.002510 -0.002511 0.008010 0.000000 0.000001 0.000000
# 4 -0.002695 0.002695 0.000000 0.054797 0.000000 0.000000
# 5 0.000000 0.000000 0.000001 0.000000 0.054797 -0.005389
# 6 0.000000 0.000000 0.000000 0.000000 -0.005389 0.050414
#
#
# Mechanical properties :
#
#
# Convention : Reuss Voigt Hill
#
# Bulk Modulus (GPa) = 60.62890 63.72725 62.17807
# Shear Modulus (GPa) = 21.36988 24.32224 22.84606
#
# Velocity S-wave (km/s) = 3.28135 3.50068 3.39279
# Velocity P-wave (km/s) = 6.70106 6.96051 6.83202
#
# Compressibility (1/GPa) = 0.01649379
#
# Stress axis : x y z
#
# Youngs Moduli (GPa) = 58.01975 58.01973 124.84349
#
# Poissons Ratio (x) = 0.46256 0.31342
# Poissons Ratio (y) = 0.46256 0.31343
# Poissons Ratio (z) = 0.14566 0.14567
#
# Static dielectric constant tensor:
#      x y z
#    x 3.646950 0.000000 0.000000 
#    y 0.000000 3.646940 0.000000 
#    z 0.000000 0.000000 3.421480 
# 
# 
# High freq. dielectric constant tensor:
#      x y z
#    x 1.771870 0.000000 0.000000 
#    y 0.000000 1.771870 0.000000 
#    z 0.000000 0.000000 1.765210 
# 
# From -- ./inp_files/669.got.cif
#   From: 2010.03.12/outbox.cif.g09.slc.cpg/sg160_1_cif.got.tgz:669.got - 2010.04.02 06:26:15.
