data_PCOD8322895
_publ_section_title
;
Structure prediction by ZEFSAII (Michael W. Deem and Ramdas Pophale) SiO2 
 PCOD8322895
Probable space group: R 3 C
;
_chemical_formula_sum "Si O2"
_cell_formula_units_Z 84
_cell_length_a 19.115293
_cell_length_b 19.115293
_cell_length_c 12.746755
_cell_angle_alpha 90.000000
_cell_angle_beta 90.000000
_cell_angle_gamma 120.000000
_cell_volume 4033.594060
_symmetry_space_group_name_H-M "R 3 C"
_symmetry_group_IT_number 161
_symmetry_cell_setting 'hexagonal'
loop_
_space_group_symop_operation_xyz
x,y,z
-y,x-y,z
-x+y,-x,z
-x+y,y,1/2+z
x,x-y,1/2+z
-y,-x,1/2+z
2/3+x,1/3+y,1/3+z
2/3-y,1/3+x-y,1/3+z
2/3-x+y,1/3-x,1/3+z
2/3-x+y,1/3+y,5/6+z
2/3+x,1/3+x-y,5/6+z
2/3-y,1/3-x,5/6+z
1/3+x,2/3+y,2/3+z
1/3-y,2/3+x-y,2/3+z
1/3-x+y,2/3-x,2/3+z
1/3-x+y,2/3+y,1/6+z
1/3+x,2/3+x-y,1/6+z
1/3-y,2/3-x,1/6+z
loop_
_atom_site_type_symbol
_atom_site_label
_atom_site_fract_x
_atom_site_fract_y
_atom_site_fract_z
Si Si1 0.733681 0.481306 0.967753
Si Si2 0.624149 0.536793 0.469145
Si Si3 0.666668 0.333334 0.596687
Si Si4 0.644384 0.616665 0.679571
Si Si5 0.000000 0.000000 0.000746
Si Si6 0.618625 0.080980 0.404299
O O1 0.723228 0.425999 0.867315
O O2 0.701144 0.542687 0.945146
O O3 0.827085 0.529466 0.000204
O O4 0.678973 0.419085 0.058603
O O5 0.596685 0.562429 0.577179
O O6 0.653125 0.602339 0.376218
O O7 0.552247 0.455555 0.420052
O O8 0.666668 0.333334 0.715156
O O9 0.632553 0.561233 0.780909
O O10 0.737003 0.670243 0.640886
#
# Coordination Sequence:
#
# PCOD8322895 Si02
#       6
#    18  18   6  18   6  18
#     4  10  22  40  65 100 134 169 226 277 323 401
#     4  11  24  47  68  98 138 173 230 277 333 405
#     4  10  20  40  58 107 127 178 230 262 352 368
#     4  10  28  42  67 102 130 189 217 267 348 406
#     4  10  20  40  58 107 133 172 230 268 343 374
#     4  11  24  47  68  98 138 175 227 279 333 406
#
# _framework density 20.825101
#
# number of rings (size 3 to 8) (size 9 to 14) (size 15 to 20)
#    0.000    1.714    4.286    0.000   12.000    1.714 
#    7.714    0.000    0.000    0.000    0.000    0.000 
#    0.000    0.000    0.000    0.000    0.000    0.000 
#
# Total GULP energy -347016.711498 kJ/mol
# GULP energy per Si atom -12393.453982 kJ/mol
# Density = 2.077770 g / cm^3
# Si number density = 20.825101 Si / 1000 Ang^3
#
#
#
# Elastic Constant Matrix: (Units=GPa)
#
#
# Indices 1 2 3 4 5 6 
#
# 1 91.0044 27.1121 42.5619 3.6204 0.0000 0.0000
# 2 27.1121 91.0053 42.5621 -3.6202 0.0000 0.0000
# 3 42.5619 42.5621 177.8009 -0.0011 0.0000 0.0000
# 4 3.6204 -3.6202 -0.0011 9.0177 0.0000 0.0000
# 5 0.0000 0.0000 0.0000 0.0000 9.0195 3.6201
# 6 0.0000 0.0000 0.0000 0.0000 3.6201 31.9461
#
#
#
# Elastic Compliance Matrix: (Units=1/GPa)
#
#
# Indices 1 2 3 4 5 6 
#
# 1 0.013314 -0.003083 -0.002449 -0.006583 0.000000 0.000000
# 2 -0.003083 0.013314 -0.002449 0.006582 0.000000 0.000000
# 3 -0.002449 -0.002449 0.006797 0.000001 0.000000 0.000000
# 4 -0.006583 0.006582 0.000001 0.116178 0.000000 0.000000
# 5 0.000000 0.000000 0.000000 0.000000 0.116154 -0.013162
# 6 0.000000 0.000000 0.000000 0.000000 -0.013162 0.032794
#
#
# Mechanical properties :
#
#
# Convention : Reuss Voigt Hill
#
# Bulk Modulus (GPa) = 57.26502 64.92031 61.09267
# Shear Modulus (GPa) = 15.60864 26.50163 21.05513
#
# Velocity S-wave (km/s) = 2.74069 3.57120 3.18314
# Velocity P-wave (km/s) = 6.12968 6.94596 6.55054
#
# Compressibility (1/GPa) = 0.01746267
#
# Stress axis : x y z
#
# Youngs Moduli (GPa) = 75.10693 75.10831 147.12756
#
# Poissons Ratio (x) = 0.23156 0.36035
# Poissons Ratio (y) = 0.23156 0.36033
# Poissons Ratio (z) = 0.18395 0.18395
#
# Static dielectric constant tensor:
#      x y z
#    x 3.900740 0.000000 0.000000 
#    y 0.000000 3.900720 0.000000 
#    z 0.000000 0.000000 3.748110 
# 
# 
# High freq. dielectric constant tensor:
#      x y z
#    x 1.816230 0.000000 0.000000 
#    y 0.000000 1.816230 0.000000 
#    z 0.000000 0.000000 1.812690 
# 
# From -- ./inp_files/565.got.cif
#   From: 2010.03.12/outbox.cif.g09.slc.cpg/sg161_cif.got.tgz:565.got - 2010.04.02 06:27:14.
