data_PCOD8322430
_publ_section_title
;
Structure prediction by ZEFSAII (Michael W. Deem and Ramdas Pophale) SiO2 
 PCOD8322430
Probable space group: P 32 2 1
;
_chemical_formula_sum "Si O2"
_cell_formula_units_Z 36
_cell_length_a 11.443719
_cell_length_b 11.443719
_cell_length_c 15.545537
_cell_angle_alpha 90.000000
_cell_angle_beta 90.000000
_cell_angle_gamma 120.000000
_cell_volume 1763.074771
_symmetry_space_group_name_H-M "P 32 2 1"
_symmetry_group_IT_number 154
_symmetry_cell_setting 'hexagonal'
loop_
_space_group_symop_operation_xyz
x,y,z
-y,x-y,2/3+z
-x+y,-x,1/3+z
x-y,-y,1/3-z
-x,-x+y,2/3-z
y,x,-z
loop_
_atom_site_type_symbol
_atom_site_label
_atom_site_fract_x
_atom_site_fract_y
_atom_site_fract_z
Si Si1 0.348714 0.759288 0.881414
Si Si2 0.718856 0.790303 0.180959
Si Si3 0.360964 0.374293 0.231875
Si Si4 0.236329 0.594066 0.050835
Si Si5 0.964149 0.821372 0.972410
Si Si6 0.213128 0.316702 0.070717
O O1 0.313035 0.876652 0.865836
O O2 0.502373 0.835550 0.913955
O O3 0.328160 0.673781 0.793611
O O4 0.264640 0.665895 0.959380
O O5 0.727074 0.825582 0.079628
O O6 0.820328 0.736104 0.201323
O O7 0.769563 0.918485 0.240558
O O8 0.513333 0.416900 0.254460
O O9 0.243395 0.248041 0.282025
O O10 0.340039 0.343490 0.130016
O O11 0.228476 0.452650 0.029316
O O12 0.953657 0.953657 0.000000
O O13 0.211094 0.211094 0.000000
#
# Coordination Sequence:
#
# PCOD8322430 Si02
#       6
#     6   6   6   6   6   6
#     4  11  23  41  63  95 126 166 216 267 323 391
#     4  11  22  39  63  90 131 165 209 267 316 386
#     4  11  22  41  66  90 128 168 215 271 322 392
#     4  11  23  42  66  92 129 171 215 271 330 387
#     4  11  22  39  64  92 122 169 212 258 321 387
#     4  11  23  41  64  94 129 168 218 267 329 388
#
# _framework density 20.418873000000001
#
# number of rings (size 3 to 8) (size 9 to 14) (size 15 to 20)
#    0.000    1.000    5.000    2.500    0.000    0.000 
#    0.000    0.833    0.000    0.000    0.000    0.000 
#    0.000    0.000    0.000    0.000    0.000    0.000 
#
# Total GULP energy -446034.243753 kJ/mol
# GULP energy per Si atom -12389.840104 kJ/mol
# Density = 2.037240 g / cm^3
# Si number density = 20.418873 Si / 1000 Ang^3
#
#
#
# Elastic Constant Matrix: (Units=GPa)
#
#
# Indices 1 2 3 4 5 6 
#
# 1 80.0822 17.3782 29.5390 5.4440 0.0000 0.0000
# 2 17.3782 80.0822 29.5390 -5.4440 0.0000 0.0000
# 3 29.5390 29.5390 64.9874 0.0000 0.0000 0.0000
# 4 5.4440 -5.4440 0.0000 5.2596 0.0000 0.0000
# 5 0.0000 0.0000 0.0000 0.0000 5.2596 5.4440
# 6 0.0000 0.0000 0.0000 0.0000 5.4440 31.3520
#
#
#
# Elastic Compliance Matrix: (Units=1/GPa)
#
#
# Indices 1 2 3 4 5 6 
#
# 1 0.016803 -0.002640 -0.006437 -0.020124 0.000000 0.000000
# 2 -0.002640 0.016803 -0.006437 0.020124 0.000000 0.000000
# 3 -0.006437 -0.006437 0.021240 0.000000 0.000000 0.000000
# 4 -0.020124 0.020124 0.000000 0.231789 0.000000 0.000000
# 5 0.000000 0.000000 0.000000 0.000000 0.231789 -0.040248
# 6 0.000000 0.000000 0.000000 0.000000 -0.040248 0.038885
#
#
# Mechanical properties :
#
#
# Convention : Reuss Voigt Hill
#
# Bulk Modulus (GPa) = 41.98963 42.00714 41.99838
# Shear Modulus (GPa) = 8.38539 18.28727 13.33633
#
# Velocity S-wave (km/s) = 2.02869 2.99592 2.55843
# Velocity P-wave (km/s) = 5.10845 5.70830 5.41668
#
# Compressibility (1/GPa) = 0.02381540
#
# Stress axis : x y z
#
# Youngs Moduli (GPa) = 59.51475 59.51475 47.08155
#
# Poissons Ratio (x) = 0.15710 0.30309
# Poissons Ratio (y) = 0.15710 0.30309
# Poissons Ratio (z) = 0.38313 0.38313
#
# Static dielectric constant tensor:
#      x y z
#    x 3.761780 0.000000 0.000000 
#    y 0.000000 3.761780 0.000000 
#    z 0.000000 0.000000 3.725390 
# 
# 
# High freq. dielectric constant tensor:
#      x y z
#    x 1.799830 0.000000 0.000000 
#    y 0.000000 1.799830 0.000000 
#    z 0.000000 0.000000 1.806470 
# 
# From -- ./inp_files/1948.got.cif
#   From: 2010.03.12/outbox.cif.g09.slc.cpg/sg154_1_cif.got.tgz:1948.got - 2010.04.03 13:51:21.
