data_PCOD8322678
_publ_section_title
;
Structure prediction by ZEFSAII (Michael W. Deem and Ramdas Pophale) SiO2 
 PCOD8322678
Probable space group: P 3 M 1
;
_chemical_formula_sum "Si O2"
_cell_formula_units_Z 48
_cell_length_a 12.724991
_cell_length_b 12.724991
_cell_length_c 20.680490
_cell_angle_alpha 90.000000
_cell_angle_beta 90.000000
_cell_angle_gamma 120.000000
_cell_volume 2900.056266
_symmetry_space_group_name_H-M "P 3 M 1"
_symmetry_group_IT_number 156
_symmetry_cell_setting 'hexagonal'
loop_
_space_group_symop_operation_xyz
x,y,z
-y,x-y,z
-x+y,-x,z
-x+y,y,z
x,x-y,z
-y,-x,z
loop_
_atom_site_type_symbol
_atom_site_label
_atom_site_fract_x
_atom_site_fract_y
_atom_site_fract_z
Si Si1 0.664745 0.094765 0.726430
Si Si2 0.999845 0.245194 0.219489
Si Si3 0.333477 0.423443 0.478830
Si Si4 0.247219 0.001290 0.981989
Si Si5 0.913586 0.335322 0.866775
Si Si6 0.911966 0.331374 0.100616
Si Si7 0.575443 0.666322 0.333093
Si Si8 0.664435 0.577175 0.587177
O O1 0.575194 0.150387 0.727442
O O2 0.801080 0.198921 0.724592
O O3 0.646567 0.024920 0.794875
O O4 0.642598 0.021301 0.658499
O O5 0.122157 0.244313 0.202316
O O6 0.009634 0.311659 0.287016
O O7 0.975279 0.317886 0.164331
O O8 0.892467 0.107534 0.225001
O O9 0.212670 0.425340 0.491577
O O10 0.442363 0.557638 0.492385
O O11 0.340342 0.382056 0.405859
O O12 0.333878 0.329207 0.530473
O O13 0.126943 0.873058 0.989048
O O14 0.211181 0.105591 0.985207
O O15 0.312410 0.005092 0.914831
O O16 0.338415 0.017064 0.039262
O O17 0.913358 0.456679 0.889010
O O18 0.774465 0.225536 0.866955
O O19 0.923276 0.461638 0.100893
O O20 0.770757 0.229244 0.097855
O O21 0.535233 0.767617 0.328625
O O22 0.460894 0.539107 0.311960
O O23 0.787832 0.575663 0.587417
O O24 0.557666 0.442335 0.571321
#
# Coordination Sequence:
#
# PCOD8322678 Si02
#       8
#     6   6   6   6   6   6   6   6
#     4   8  13  22  38  62  89 115 143 177 222 272
#     4  10  20  33  50  71  96 125 154 183 215 258
#     4   9  17  29  45  64  86 115 152 192 230 267
#     4  10  20  33  49  68  92 123 156 187 218 258
#     4   9  16  27  46  70  93 115 143 184 231 275
#     4  10  20  34  53  75  97 119 145 182 226 267
#     4   9  17  30  48  68  89 115 150 192 234 271
#     4   9  16  26  42  64  90 117 145 181 226 276
#
# _framework density 16.551402
#
# number of rings (size 3 to 8) (size 9 to 14) (size 15 to 20)
#    0.000    2.750    0.000    2.125    0.000    3.500 
#    0.000    3.125    0.000    5.750    0.000    0.000 
#    0.000    0.000    0.000    0.000    0.000    0.000 
#
# Total GULP energy -594833.061650 kJ/mol
# GULP energy per Si atom -12392.355451 kJ/mol
# Density = 1.651373 g / cm^3
# Si number density = 16.551402 Si / 1000 Ang^3
#
#
#
# Elastic Constant Matrix: (Units=GPa)
#
#
# Indices 1 2 3 4 5 6 
#
# 1 84.7115 46.4055 56.6832 -0.8183 0.0001 0.0000
# 2 46.4055 84.7115 56.6832 0.8183 -0.0001 0.0000
# 3 56.6832 56.6832 135.9139 0.0000 0.0000 0.0000
# 4 -0.8183 0.8183 0.0000 22.5004 0.0000 -0.0001
# 5 0.0001 -0.0001 0.0000 0.0000 22.5004 -0.8183
# 6 0.0000 0.0000 0.0000 -0.0001 -0.8183 19.1530
#
#
#
# Elastic Compliance Matrix: (Units=1/GPa)
#
#
# Indices 1 2 3 4 5 6 
#
# 1 0.019037 -0.007109 -0.004975 0.000951 0.000000 0.000000
# 2 -0.007109 0.019037 -0.004975 -0.000951 0.000000 0.000000
# 3 -0.004975 -0.004975 0.011507 0.000000 0.000000 0.000000
# 4 0.000951 -0.000951 0.000000 0.044513 0.000000 0.000000
# 5 0.000000 0.000000 0.000000 0.000000 0.044513 0.001902
# 6 0.000000 0.000000 0.000000 0.000000 0.001902 0.052292
#
#
# Mechanical properties :
#
#
# Convention : Reuss Voigt Hill
#
# Bulk Modulus (GPa) = 64.66444 69.43118 67.04781
# Shear Modulus (GPa) = 21.72305 22.53510 22.12908
#
# Velocity S-wave (km/s) = 3.62672 3.69388 3.66046
# Velocity P-wave (km/s) = 7.52935 7.76099 7.64605
#
# Compressibility (1/GPa) = 0.01546445
#
# Stress axis : x y z
#
# Youngs Moduli (GPa) = 52.52927 52.52927 86.90453
#
# Poissons Ratio (x) = 0.37344 0.43231
# Poissons Ratio (y) = 0.37344 0.43231
# Poissons Ratio (z) = 0.26131 0.26131
#
# Static dielectric constant tensor:
#      x y z
#    x 2.896700 0.000000 0.000000 
#    y 0.000000 2.896700 0.000000 
#    z 0.000000 0.000000 3.630240 
# 
# 
# High freq. dielectric constant tensor:
#      x y z
#    x 1.615390 0.000000 0.000000 
#    y 0.000000 1.615390 0.000000 
#    z 0.000000 0.000000 1.662360 
# 
# From -- ./inp_files/1113.got.cif
#   From: 2010.03.12/outbox.cif.g09.slc.cpg/sg156_cif.got.tgz:1113.got - 2010.04.03 13:58:47.
