data_PCOD8322732
_publ_section_title
;
Structure prediction by ZEFSAII (Michael W. Deem and Ramdas Pophale) SiO2 
 PCOD8322732
Probable space group: P 3 1 M
;
_chemical_formula_sum "Si O2"
_cell_formula_units_Z 42
_cell_length_a 14.665283
_cell_length_b 14.665283
_cell_length_c 10.955831
_cell_angle_alpha 90.000000
_cell_angle_beta 90.000000
_cell_angle_gamma 120.000000
_cell_volume 2040.595160
_symmetry_space_group_name_H-M "P 3 1 M"
_symmetry_group_IT_number 157
_symmetry_cell_setting 'hexagonal'
loop_
_space_group_symop_operation_xyz
x,y,z
-y,x-y,z
-x+y,-x,z
y,x,z
x-y,-y,z
-x,-x+y,z
loop_
_atom_site_type_symbol
_atom_site_label
_atom_site_fract_x
_atom_site_fract_y
_atom_site_fract_z
Si Si1 0.881812 0.116572 0.142820
Si Si2 0.814141 0.535378 0.182756
Si Si3 0.513866 0.119537 0.295293
Si Si4 0.882733 0.766293 0.857714
Si Si5 0.877000 0.481334 0.924015
Si Si6 0.812068 0.274788 0.800714
Si Si7 0.214314 0.553368 0.546486
O O1 0.794159 0.134540 0.207047
O O2 0.000000 0.199854 0.187329
O O3 0.859791 0.000000 0.173947
O O4 0.868141 0.127806 0.000074
O O5 0.861366 0.493378 0.287109
O O6 0.689171 0.487841 0.198163
O O7 0.839990 0.502236 0.053384
O O8 0.488768 0.141619 0.432167
O O9 0.429107 0.000000 0.258653
O O10 0.862399 0.862399 0.830577
O O11 0.793113 0.662795 0.792943
O O12 0.000000 0.800253 0.810665
O O13 0.857475 0.362736 0.909068
O O14 0.805431 0.493429 0.820567
O O15 0.000000 0.566216 0.905905
O O16 0.839362 0.337233 0.673040
O O17 0.328223 0.560345 0.540047
#
# Coordination Sequence:
#
# PCOD8322732 Si02
#       7
#     6   6   6   6   6   6   6
#     4  10  20  36  58  86 122 161 203 250 304 367
#     4  12  23  41  60  90 132 165 208 257 307 383
#     4  12  25  42  68  92 121 170 218 266 320 369
#     4  10  21  38  59  88 126 168 211 258 310 372
#     4  12  24  38  61  95 131 170 203 246 318 388
#     4  12  22  40  64  92 131 164 208 261 314 384
#     4  10  20  45  64  87 122 166 209 264 317 371
#
# _framework density 20.582232000000001
#
# number of rings (size 3 to 8) (size 9 to 14) (size 15 to 20)
#    0.286    0.571    4.286    4.286    0.000    2.286 
#    0.000    0.000    0.000    0.000    0.000    0.000 
#    0.000    2.286    0.000    0.000    0.000    0.000 
#
# Total GULP energy -520661.487853 kJ/mol
# GULP energy per Si atom -12396.702092 kJ/mol
# Density = 2.053539 g / cm^3
# Si number density = 20.582232 Si / 1000 Ang^3
#
#
#
# Elastic Constant Matrix: (Units=GPa)
#
#
# Indices 1 2 3 4 5 6 
#
# 1 121.4635 48.2011 44.9059 0.0000 -5.7070 0.0000
# 2 48.2011 121.4635 44.9059 0.0000 5.7070 0.0000
# 3 44.9059 44.9059 79.6373 0.0000 0.0000 0.0000
# 4 0.0000 0.0000 0.0000 15.8948 0.0000 5.7070
# 5 -5.7070 5.7070 0.0000 0.0000 15.8948 0.0000
# 6 0.0000 0.0000 0.0000 5.7070 0.0000 36.6312
#
#
#
# Elastic Compliance Matrix: (Units=1/GPa)
#
#
# Indices 1 2 3 4 5 6 
#
# 1 0.011430 -0.003028 -0.004738 0.000000 0.005191 0.000000
# 2 -0.003028 0.011430 -0.004738 0.000000 -0.005191 0.000000
# 3 -0.004738 -0.004738 0.017900 0.000000 0.000000 0.000000
# 4 0.000000 0.000000 0.000000 0.066642 0.000000 -0.010383
# 5 0.005191 -0.005191 0.000000 0.000000 0.066642 0.000000
# 6 0.000000 0.000000 0.000000 -0.010383 0.000000 0.028917
#
#
# Mechanical properties :
#
#
# Convention : Reuss Voigt Hill
#
# Bulk Modulus (GPa) = 63.47996 66.51000 64.99498
# Shear Modulus (GPa) = 21.43916 25.98758 23.71337
#
# Velocity S-wave (km/s) = 3.23094 3.55719 3.39798
# Velocity P-wave (km/s) = 6.69535 7.01826 6.85870
#
# Compressibility (1/GPa) = 0.01575300
#
# Stress axis : x y z
#
# Youngs Moduli (GPa) = 87.48834 87.48834 55.86645
#
# Poissons Ratio (x) = 0.26494 0.26467
# Poissons Ratio (y) = 0.26494 0.26467
# Poissons Ratio (z) = 0.41449 0.41449
#
# Static dielectric constant tensor:
#      x y z
#    x 3.791810 0.000000 0.000000 
#    y 0.000000 3.791810 0.000000 
#    z 0.000000 0.000000 3.377510 
# 
# 
# High freq. dielectric constant tensor:
#      x y z
#    x 1.808500 0.000000 0.000000 
#    y 0.000000 1.808500 0.000000 
#    z 0.000000 0.000000 1.767680 
# 
# From -- ./inp_files/591.got.cif
#   From: 2010.03.12/outbox.cif.g09.slc.cpg/sg157_cif.got.tgz:591.got - 2010.04.03 13:59:21.
