data_PCOD8322055
_publ_section_title
;
Structure prediction by ZEFSAII (Michael W. Deem and Ramdas Pophale) SiO2 
 PCOD8322055
Probable space group: P 31 2 1
;
_chemical_formula_sum "Si O2"
_cell_formula_units_Z 42
_cell_length_a 11.540386
_cell_length_b 11.540386
_cell_length_c 18.155021
_cell_angle_alpha 90.000000
_cell_angle_beta 90.000000
_cell_angle_gamma 120.000000
_cell_volume 2093.958440
_symmetry_space_group_name_H-M "P 31 2 1"
_symmetry_group_IT_number 152
_symmetry_cell_setting 'hexagonal'
loop_
_space_group_symop_operation_xyz
x,y,z
-y,x-y,1/3+z
-x+y,-x,2/3+z
x-y,-y,2/3-z
-x,-x+y,1/3-z
y,x,-z
loop_
_atom_site_type_symbol
_atom_site_label
_atom_site_fract_x
_atom_site_fract_y
_atom_site_fract_z
Si Si1 0.769992 0.917688 0.722489
Si Si2 0.388690 0.558447 0.189526
Si Si3 0.440424 0.085224 0.562114
Si Si4 0.461410 0.736740 0.900588
Si Si5 0.241570 0.256560 0.224222
Si Si6 0.269105 0.508798 0.731904
Si Si7 0.379060 0.379060 0.500000
Si Si8 0.000000 0.000328 0.166667
O O1 0.693633 0.757938 0.732982
O O2 0.776928 0.949135 0.636959
O O3 0.680142 0.968753 0.761466
O O4 0.916361 0.988240 0.759619
O O5 0.514765 0.572734 0.232785
O O6 0.354650 0.657062 0.235301
O O7 0.274197 0.401780 0.192613
O O8 0.427738 0.616408 0.106170
O O9 0.457473 0.137532 0.478102
O O10 0.573532 0.192878 0.604946
O O11 0.483412 0.873205 0.860516
O O12 0.524216 0.748497 0.980944
O O13 0.375660 0.245212 0.225368
O O14 0.133423 0.145019 0.169995
#
# Coordination Sequence:
#
# PCOD8322055 Si02
#       8
#     6   6   6   6   6   6   3   3
#     4  10  19  38  61  87 115 156 202 257 300 345
#     4  10  22  38  56  87 126 157 194 246 307 380
#     4   9  20  36  57  87 120 150 200 252 297 360
#     4  10  19  36  60  86 116 153 204 247 300 358
#     4  11  22  40  61  84 127 160 200 256 311 363
#     4  10  20  38  61  87 115 158 202 248 305 365
#     4   9  18  33  60  96 108 139 210 261 280 350
#     4  11  24  37  58  90 120 155 214 247 300 378
#
# _framework density 20.057706
#
# number of rings (size 3 to 8) (size 9 to 14) (size 15 to 20)
#    0.000    2.000    1.429    2.143    0.000    1.143 
#    5.143    0.000    6.286    0.000    0.000    0.000 
#    0.000    0.000    0.000    0.000    0.000    0.000 
#
# Total GULP energy -520668.306541 kJ/mol
# GULP energy per Si atom -12396.864441 kJ/mol
# Density = 2.001205 g / cm^3
# Si number density = 20.057706 Si / 1000 Ang^3
#
#
#
# Elastic Constant Matrix: (Units=GPa)
#
#
# Indices 1 2 3 4 5 6 
#
# 1 89.6772 27.6323 20.0542 3.0871 0.0000 0.0000
# 2 27.6323 89.6772 20.0542 -3.0871 0.0000 0.0000
# 3 20.0542 20.0542 88.4743 0.0000 0.0000 0.0000
# 4 3.0871 -3.0871 0.0000 19.6384 0.0000 0.0000
# 5 0.0000 0.0000 0.0000 0.0000 19.6384 3.0871
# 6 0.0000 0.0000 0.0000 0.0000 3.0871 31.0225
#
#
#
# Elastic Compliance Matrix: (Units=1/GPa)
#
#
# Indices 1 2 3 4 5 6 
#
# 1 0.012807 -0.003566 -0.002095 -0.002574 0.000000 0.000000
# 2 -0.003566 0.012807 -0.002095 0.002574 0.000000 0.000000
# 3 -0.002095 -0.002095 0.012252 0.000000 0.000000 0.000000
# 4 -0.002574 0.002574 0.000000 0.051730 0.000000 0.000000
# 5 0.000000 0.000000 0.000000 0.000000 0.051730 -0.005148
# 6 0.000000 0.000000 0.000000 0.000000 -0.005148 0.032747
#
#
# Mechanical properties :
#
#
# Convention : Reuss Voigt Hill
#
# Bulk Modulus (GPa) = 44.73219 44.81224 44.77221
# Shear Modulus (GPa) = 25.37609 27.39905 26.38757
#
# Velocity S-wave (km/s) = 3.56076 3.69997 3.63103
# Velocity P-wave (km/s) = 6.26542 6.37520 6.32055
#
# Compressibility (1/GPa) = 0.02235527
#
# Stress axis : x y z
#
# Youngs Moduli (GPa) = 78.08212 78.08212 81.61767
#
# Poissons Ratio (x) = 0.27848 0.17095
# Poissons Ratio (y) = 0.27848 0.17095
# Poissons Ratio (z) = 0.16355 0.16355
#
# Static dielectric constant tensor:
#      x y z
#    x 3.721500 0.000000 0.000000 
#    y 0.000000 3.721500 0.000000 
#    z 0.000000 0.000000 3.455960 
# 
# 
# High freq. dielectric constant tensor:
#      x y z
#    x 1.781810 0.000000 0.000000 
#    y 0.000000 1.781810 0.000000 
#    z 0.000000 0.000000 1.769400 
# 
# From -- ./inp_files/2481.got.cif
#   From: 2010.03.12/outbox.cif.g09.slc.cpg/sg152_2_cif.got.tgz:2481.got - 2010.04.03 13:45:27.
