data_PCOD8322031
_publ_section_title
;
Structure prediction by ZEFSAII (Michael W. Deem and Ramdas Pophale) SiO2 
 PCOD8322031
Probable space group: P 31 2 1
;
_chemical_formula_sum "Si O2"
_cell_formula_units_Z 39
_cell_length_a 13.917194
_cell_length_b 13.917194
_cell_length_c 12.284432
_cell_angle_alpha 90.000000
_cell_angle_beta 90.000000
_cell_angle_gamma 120.000000
_cell_volume 2060.578076
_symmetry_space_group_name_H-M "P 31 2 1"
_symmetry_group_IT_number 152
_symmetry_cell_setting 'hexagonal'
loop_
_space_group_symop_operation_xyz
x,y,z
-y,x-y,1/3+z
-x+y,-x,2/3+z
x-y,-y,2/3-z
-x,-x+y,1/3-z
y,x,-z
loop_
_atom_site_type_symbol
_atom_site_label
_atom_site_fract_x
_atom_site_fract_y
_atom_site_fract_z
Si Si1 0.314164 0.515688 0.688714
Si Si2 0.610168 0.347695 0.542821
Si Si3 0.725754 0.012047 0.610621
Si Si4 0.159582 0.651139 0.899085
Si Si5 0.174318 0.960009 0.456477
Si Si6 0.927327 0.368942 0.566197
Si Si7 0.831458 0.000000 0.833334
O O1 0.391420 0.624909 0.760048
O O2 0.329656 0.532725 0.559288
O O3 0.339183 0.419864 0.721749
O O4 0.189134 0.477146 0.713996
O O5 0.563026 0.378183 0.647943
O O6 0.733891 0.445970 0.513146
O O7 0.834009 0.069043 0.531146
O O8 0.626060 0.892619 0.570111
O O9 0.767814 0.010421 0.730706
O O10 0.074637 0.529946 0.851601
O O11 0.290343 0.968126 0.492604
O O12 0.187194 0.000000 0.333334
O O13 0.153577 0.046963 0.524159
O O14 0.000000 0.439742 0.666667
#
# Coordination Sequence:
#
# PCOD8322031 Si02
#       7
#     6   6   6   6   6   6   3
#     4   9  18  32  53  76 104 143 180 226 264 336
#     4   9  19  35  51  74 114 148 174 214 297 324
#     4  10  19  32  55  84 103 137 192 224 275 332
#     4  10  20  34  54  79 115 144 177 229 271 350
#     4   8  17  34  55  78 100 134 190 231 262 314
#     4   9  18  32  53  81 104 137 185 226 269 314
#     4  10  18  34  60  76 108 140 184 238 272 318
#
# _framework density 18.926727
#
# number of rings (size 3 to 8) (size 9 to 14) (size 15 to 20)
#    0.000    2.769    0.000    1.846    2.154    0.000 
#    5.538    0.000   10.154    0.000    0.000    0.000 
#    0.000    0.000    0.000    0.000    0.000    0.000 
#
# Total GULP energy -483280.552748 kJ/mol
# GULP energy per Si atom -12391.809045 kJ/mol
# Density = 1.888365 g / cm^3
# Si number density = 18.926727 Si / 1000 Ang^3
#
#
#
# Elastic Constant Matrix: (Units=GPa)
#
#
# Indices 1 2 3 4 5 6 
#
# 1 89.1441 33.6530 17.9664 -28.8300 -0.0255 0.0000
# 2 33.6530 89.1441 17.9664 28.8300 0.0255 0.0000
# 3 17.9664 17.9664 37.7058 0.0000 0.0000 0.0000
# 4 -28.8300 28.8300 0.0000 139.3210 0.0000 0.0255
# 5 -0.0255 0.0255 0.0000 0.0000 139.3210 -28.8300
# 6 0.0000 0.0000 0.0000 0.0255 -28.8300 27.7455
#
#
#
# Elastic Compliance Matrix: (Units=1/GPa)
#
#
# Indices 1 2 3 4 5 6 
#
# 1 0.016210 -0.006747 -0.004509 0.004751 0.000004 0.000000
# 2 -0.006747 0.016210 -0.004509 -0.004751 -0.000004 0.000000
# 3 -0.004509 -0.004509 0.030818 0.000000 0.000000 0.000000
# 4 0.004751 -0.004751 0.000000 0.009144 0.000000 -0.000008
# 5 0.000004 -0.000004 0.000000 0.000000 0.009144 0.009501
# 6 0.000000 0.000000 0.000000 -0.000008 0.009501 0.045914
#
#
# Mechanical properties :
#
#
# Convention : Reuss Voigt Hill
#
# Bulk Modulus (GPa) = 31.53776 39.46286 35.50031
# Shear Modulus (GPa) = 29.49163 71.03803 50.26483
#
# Velocity S-wave (km/s) = 3.95169 6.13308 5.15900
# Velocity P-wave (km/s) = 6.12539 8.42903 7.36780
#
# Compressibility (1/GPa) = 0.03170802
#
# Stress axis : x y z
#
# Youngs Moduli (GPa) = 61.69012 61.69012 32.44843
#
# Poissons Ratio (x) = 0.41623 0.14631
# Poissons Ratio (y) = 0.41623 0.14631
# Poissons Ratio (z) = 0.27816 0.27816
#
# Static dielectric constant tensor:
#      x y z
#    x 2.060110 0.000000 0.000000 
#    y 0.000000 2.060110 0.000000 
#    z 0.000000 0.000000 3.210370 
# 
# 
# High freq. dielectric constant tensor:
#      x y z
#    x 1.735470 0.000000 0.000000 
#    y 0.000000 1.735470 0.000000 
#    z 0.000000 0.000000 1.709330 
# 
# From -- ./inp_files/1771.got.cif
#   From: 2010.03.12/outbox.cif.g09.slc.cpg/sg152_1_cif.got.tgz:1771.got - 2010.04.03 13:45:27.
