data_PCOD8322979
_publ_section_title
;
Structure prediction by ZEFSAII (Michael W. Deem and Ramdas Pophale) SiO2 
 PCOD8322979
Probable space group: P -3 1 M 
;
_chemical_formula_sum "Si O2"
_cell_formula_units_Z 40
_cell_length_a 17.398191
_cell_length_b 17.398191
_cell_length_c 9.041934
_cell_angle_alpha 90.000000
_cell_angle_beta 90.000000
_cell_angle_gamma 120.000000
_cell_volume 2370.282734
_symmetry_space_group_name_H-M "P -3 1 M "
_symmetry_group_IT_number 162
_symmetry_cell_setting 'hexagonal'
loop_
_space_group_symop_operation_xyz
x,y,z
-y,x-y,z
-x+y,-x,z
-y,-x,-z
-x+y,y,-z
x,x-y,-z
-x,-y,-z
y,-x+y,-z
x-y,x,-z
y,x,z
x-y,-y,z
-x,-x+y,z
loop_
_atom_site_type_symbol
_atom_site_label
_atom_site_fract_x
_atom_site_fract_y
_atom_site_fract_z
Si Si1 0.098738 0.901034 0.673375
Si Si2 0.897945 0.665060 0.879082
Si Si3 0.194926 0.535485 0.106609
Si Si4 0.333334 0.666667 0.320622
O O1 0.104554 0.895447 0.500000
O O2 0.120247 0.827454 0.734756
O O3 0.000000 0.877855 0.721753
O O4 0.167340 0.000000 0.732318
O O5 0.873273 0.564682 0.843992
O O6 0.000000 0.720256 0.930987
O O7 0.834414 0.668828 0.000000
O O8 0.237139 0.591946 0.257115
O O9 0.271623 0.543245 0.000000
O O10 0.144583 0.572292 0.000000
O O11 0.333334 0.666667 0.500000
#
# Coordination Sequence:
#
# PCOD8322979 Si02
#       4
#    12  12  12   4
#     4   9  17  29  44  62  87 120 153 182 215 256
#     4  10  19  30  46  67  90 116 147 184 220 255
#     4   8  16  31  47  65  90 117 143 173 218 270
#     4   9  16  29  52  72  85 110 148 183 211 254
#
# _framework density 16.875623000000001
#
# number of rings (size 3 to 8) (size 9 to 14) (size 15 to 20)
#    0.000    3.000    0.000    2.400    0.000    3.000 
#    0.000    0.000    0.000    5.700    0.000    0.000 
#    0.000    0.000    0.000    0.000    0.000    0.000 
#
# Total GULP energy -495633.954480 kJ/mol
# GULP energy per Si atom -12390.848862 kJ/mol
# Density = 1.683721 g / cm^3
# Si number density = 16.875623 Si / 1000 Ang^3
#
#
#
# Elastic Constant Matrix: (Units=GPa)
#
#
# Indices 1 2 3 4 5 6 
#
# 1 106.7388 56.9926 38.6024 -0.0001 -3.2464 0.0000
# 2 56.9926 106.7386 38.6022 -0.0001 3.2463 -0.0001
# 3 38.6024 38.6022 74.7223 -0.0002 -0.0001 -0.0001
# 4 -0.0001 -0.0001 -0.0002 22.6009 -0.0001 3.2463
# 5 -3.2464 3.2463 -0.0001 -0.0001 22.6009 -0.0001
# 6 0.0000 -0.0001 -0.0001 3.2463 -0.0001 24.8730
#
#
#
# Elastic Compliance Matrix: (Units=1/GPa)
#
#
# Indices 1 2 3 4 5 6 
#
# 1 0.014280 -0.006206 -0.004171 0.000000 0.002943 0.000000
# 2 -0.006206 0.014280 -0.004171 0.000000 -0.002943 0.000000
# 3 -0.004171 -0.004171 0.017693 0.000000 0.000000 0.000000
# 4 0.000000 0.000000 0.000000 0.045091 0.000000 -0.005885
# 5 0.002943 -0.002943 0.000000 0.000000 0.045091 0.000000
# 6 0.000000 0.000000 0.000000 -0.005885 0.000000 0.040972
#
#
# Mechanical properties :
#
#
# Convention : Reuss Voigt Hill
#
# Bulk Modulus (GPa) = 58.28740 61.84376 60.06558
# Shear Modulus (GPa) = 23.56000 24.28181 23.92090
#
# Velocity S-wave (km/s) = 3.74049 3.79736 3.76903
# Velocity P-wave (km/s) = 7.29859 7.48017 7.38994
#
# Compressibility (1/GPa) = 0.01715637
#
# Stress axis : x y z
#
# Youngs Moduli (GPa) = 70.02646 70.02649 56.52008
#
# Poissons Ratio (x) = 0.43457 0.23577
# Poissons Ratio (y) = 0.43457 0.23576
# Poissons Ratio (z) = 0.29211 0.29210
#
# Static dielectric constant tensor:
#      x y z
#    x 3.319960 0.000000 0.000000 
#    y 0.000000 3.319960 0.000000 
#    z 0.000000 0.000000 3.037490 
# 
# 
# High freq. dielectric constant tensor:
#      x y z
#    x 1.645450 0.000000 0.000000 
#    y 0.000000 1.645450 0.000000 
#    z 0.000000 0.000000 1.634230 
# 
# From -- ./inp_files/1121.got.cif
#   From: 2010.03.12/outbox.cif.g09.slc.cpg/sg162_1_cif.got.tgz:1121.got - 2010.04.02 06:27:41.
