data_PCOD8322094
_publ_section_title
;
Structure prediction by ZEFSAII (Michael W. Deem and Ramdas Pophale) SiO2 
 PCOD8322094
Probable space group: P 31 2 1
;
_chemical_formula_sum "Si O2"
_cell_formula_units_Z 36
_cell_length_a 8.328190
_cell_length_b 8.328190
_cell_length_c 26.597609
_cell_angle_alpha 90.000000
_cell_angle_beta 90.000000
_cell_angle_gamma 120.000000
_cell_volume 1597.623641
_symmetry_space_group_name_H-M "P 31 2 1"
_symmetry_group_IT_number 152
_symmetry_cell_setting 'hexagonal'
loop_
_space_group_symop_operation_xyz
x,y,z
-y,x-y,1/3+z
-x+y,-x,2/3+z
x-y,-y,2/3-z
-x,-x+y,1/3-z
y,x,-z
loop_
_atom_site_type_symbol
_atom_site_label
_atom_site_fract_x
_atom_site_fract_y
_atom_site_fract_z
Si Si1 0.640631 0.693177 0.621768
Si Si2 0.711732 0.027434 0.959989
Si Si3 0.345595 0.307651 0.788876
Si Si4 0.291094 0.974769 0.237936
Si Si5 0.293266 0.449503 0.106518
Si Si6 0.468747 0.192674 0.533340
O O1 0.478823 0.494350 0.641145
O O2 0.707612 0.848426 0.664581
O O3 0.807699 0.660210 0.604306
O O4 0.576801 0.767317 0.573838
O O5 0.791760 0.129191 0.907363
O O6 0.694310 0.827750 0.953498
O O7 0.307708 0.253227 0.847731
O O8 0.501459 0.523416 0.784489
O O9 0.152383 0.266436 0.765818
O O10 0.220178 0.845903 0.188070
O O11 0.502693 0.031693 0.249812
O O12 0.277482 0.615591 0.132751
#
# Coordination Sequence:
#
# PCOD8322094 Si02
#       6
#     6   6   6   6   6   6
#     4  11  23  40  60  85 122 166 206 251 312 376
#     4  11  23  40  61  86 119 162 209 253 304 371
#     4  10  20  37  61  91 123 153 196 254 313 371
#     4  10  21  38  63  92 121 155 203 257 305 367
#     4   9  20  39  64  90 120 158 200 251 310 370
#     4   9  19  38  63  89 117 156 202 249 304 368
#
# _framework density 22.533467000000002
#
# number of rings (size 3 to 8) (size 9 to 14) (size 15 to 20)
#    0.000    2.000    0.000    3.000    0.000    7.333 
#    0.000    3.333    0.000    2.000    0.000    0.000 
#    0.000    0.000    0.000    0.000    0.000    0.000 
#
# Total GULP energy -446379.633872 kJ/mol
# GULP energy per Si atom -12399.434274 kJ/mol
# Density = 2.248218 g / cm^3
# Si number density = 22.533467 Si / 1000 Ang^3
#
#
#
# Elastic Constant Matrix: (Units=GPa)
#
#
# Indices 1 2 3 4 5 6 
#
# 1 95.1437 41.6968 58.3757 3.1814 0.0000 0.0000
# 2 41.6968 95.1437 58.3757 -3.1814 0.0000 0.0000
# 3 58.3757 58.3757 87.0206 0.0000 0.0000 0.0000
# 4 3.1814 -3.1814 0.0000 33.0978 0.0000 0.0000
# 5 0.0000 0.0000 0.0000 0.0000 33.0978 3.1814
# 6 0.0000 0.0000 0.0000 0.0000 3.1814 26.7235
#
#
#
# Elastic Compliance Matrix: (Units=1/GPa)
#
#
# Indices 1 2 3 4 5 6 
#
# 1 0.018007 -0.000919 -0.011463 -0.001819 0.000000 0.000000
# 2 -0.000919 0.018007 -0.011463 0.001819 0.000000 0.000000
# 3 -0.011463 -0.011463 0.026871 0.000000 0.000000 0.000000
# 4 -0.001819 0.001819 0.000000 0.030563 0.000000 0.000000
# 5 0.000000 0.000000 0.000000 0.000000 0.030563 -0.003638
# 6 0.000000 0.000000 0.000000 0.000000 -0.003638 0.037853
#
#
# Mechanical properties :
#
#
# Convention : Reuss Voigt Hill
#
# Bulk Modulus (GPa) = 65.81248 66.02271 65.91759
# Shear Modulus (GPa) = 23.29680 26.50779 24.90229
#
# Velocity S-wave (km/s) = 3.21888 3.43355 3.32795
# Velocity P-wave (km/s) = 6.56391 6.71435 6.63955
#
# Compressibility (1/GPa) = 0.01519469
#
# Stress axis : x y z
#
# Youngs Moduli (GPa) = 55.53280 55.53280 37.21478
#
# Poissons Ratio (x) = 0.05105 0.42660
# Poissons Ratio (y) = 0.05105 0.42660
# Poissons Ratio (z) = 0.63658 0.63658
#
# Static dielectric constant tensor:
#      x y z
#    x 4.088940 0.000000 0.000000 
#    y 0.000000 4.088940 0.000000 
#    z 0.000000 0.000000 3.874620 
# 
# 
# High freq. dielectric constant tensor:
#      x y z
#    x 1.889780 0.000000 0.000000 
#    y 0.000000 1.889780 0.000000 
#    z 0.000000 0.000000 1.876370 
# 
# From -- ./inp_files/3357.got.cif
#   From: 2010.03.12/outbox.cif.g09.slc.cpg/sg152_2_cif.got.tgz:3357.got - 2010.04.03 13:45:27.
