data_PCOD8322210
_publ_section_title
;
Structure prediction by ZEFSAII (Michael W. Deem and Ramdas Pophale) SiO2 
 PCOD8322210
Probable space group: P 31 2 1
;
_chemical_formula_sum "Si O2"
_cell_formula_units_Z 45
_cell_length_a 11.057937
_cell_length_b 11.057937
_cell_length_c 17.906720
_cell_angle_alpha 90.000000
_cell_angle_beta 90.000000
_cell_angle_gamma 120.000000
_cell_volume 1896.246958
_symmetry_space_group_name_H-M "P 31 2 1"
_symmetry_group_IT_number 152
_symmetry_cell_setting 'hexagonal'
loop_
_space_group_symop_operation_xyz
x,y,z
-y,x-y,1/3+z
-x+y,-x,2/3+z
x-y,-y,2/3-z
-x,-x+y,1/3-z
y,x,-z
loop_
_atom_site_type_symbol
_atom_site_label
_atom_site_fract_x
_atom_site_fract_y
_atom_site_fract_z
Si Si1 0.000000 0.562894 0.166667
Si Si2 0.995269 0.187417 0.961595
Si Si3 0.663471 0.544076 0.946456
Si Si4 0.291232 0.250174 0.361471
Si Si5 0.575982 0.896486 0.560579
Si Si6 0.062648 0.437729 0.473591
Si Si7 0.708871 0.340992 0.188182
Si Si8 0.921545 0.801223 0.553282
O O1 0.940468 0.617336 0.100528
O O2 0.877174 0.416065 0.201040
O O3 0.942989 0.288420 0.929638
O O4 0.128429 0.207355 0.915940
O O5 0.872800 0.023058 0.952018
O O6 0.044911 0.233952 0.046449
O O7 0.662888 0.623728 0.871294
O O8 0.633861 0.387555 0.925293
O O9 0.542523 0.542523 0.000000
O O10 0.813809 0.641125 0.983957
O O11 0.270038 0.357880 0.308128
O O12 0.555753 0.028913 0.552388
O O13 0.426111 0.755265 0.552768
O O14 0.662004 0.888378 0.490335
O O15 0.219974 0.529273 0.501795
O O16 0.910828 0.910828 0.500000
#
# Coordination Sequence:
#
# PCOD8322210 Si02
#       8
#     3   6   6   6   6   6   6   6
#     4  12  28  44  74 116 166 198 276 314 402 482
#     4  11  26  44  76 112 153 201 257 329 389 465
#     4  11  26  47  80 111 157 204 271 324 402 486
#     4  12  25  46  75 118 153 208 257 327 394 475
#     4  11  26  47  78 104 159 200 262 323 395 479
#     4  11  24  51  75 111 147 206 264 330 396 474
#     4  11  26  49  75 114 150 209 258 329 394 473
#     4  11  25  46  70 111 152 197 255 319 401 459
#
# _framework density 23.731088
#
# number of rings (size 3 to 8) (size 9 to 14) (size 15 to 20)
#    0.000    0.800    4.000    1.600    5.600    4.267 
#    9.600    4.000    0.000    0.000    0.000    0.000 
#    0.000    0.000    0.000    0.000    0.000    0.000 
#
# Total GULP energy -557751.906832 kJ/mol
# GULP energy per Si atom -12394.486818 kJ/mol
# Density = 2.367707 g / cm^3
# Si number density = 23.731088 Si / 1000 Ang^3
#
#
#
# Elastic Constant Matrix: (Units=GPa)
#
#
# Indices 1 2 3 4 5 6 
#
# 1 114.8959 52.7448 48.1848 2.9136 0.0000 0.0000
# 2 52.7448 114.8959 48.1848 -2.9136 0.0000 0.0000
# 3 48.1848 48.1848 125.1707 0.0000 0.0000 0.0000
# 4 2.9136 -2.9136 0.0000 38.5140 0.0000 0.0000
# 5 0.0000 0.0000 0.0000 0.0000 38.5140 2.9136
# 6 0.0000 0.0000 0.0000 0.0000 2.9136 31.0756
#
#
#
# Elastic Compliance Matrix: (Units=1/GPa)
#
#
# Indices 1 2 3 4 5 6 
#
# 1 0.011933 -0.004272 -0.002949 -0.001226 0.000000 0.000000
# 2 -0.004272 0.011933 -0.002949 0.001226 0.000000 0.000000
# 3 -0.002949 -0.002949 0.010259 0.000000 0.000000 0.000000
# 4 -0.001226 0.001226 0.000000 0.026150 0.000000 0.000000
# 5 0.000000 0.000000 0.000000 0.000000 0.026150 -0.002452
# 6 0.000000 0.000000 0.000000 0.000000 -0.002452 0.032410
#
#
# Mechanical properties :
#
#
# Convention : Reuss Voigt Hill
#
# Bulk Modulus (GPa) = 72.54460 72.57682 72.56071
# Shear Modulus (GPa) = 34.77804 35.34393 35.06099
#
# Velocity S-wave (km/s) = 3.83235 3.86340 3.84790
# Velocity P-wave (km/s) = 7.08649 7.10989 7.09820
#
# Compressibility (1/GPa) = 0.01378462
#
# Stress axis : x y z
#
# Youngs Moduli (GPa) = 83.80450 83.80450 97.47126
#
# Poissons Ratio (x) = 0.35803 0.28743
# Poissons Ratio (y) = 0.35803 0.28743
# Poissons Ratio (z) = 0.24713 0.24713
#
# Static dielectric constant tensor:
#      x y z
#    x 4.390750 0.000000 0.000000 
#    y 0.000000 4.390750 0.000000 
#    z 0.000000 0.000000 4.289660 
# 
# 
# High freq. dielectric constant tensor:
#      x y z
#    x 1.946110 0.000000 0.000000 
#    y 0.000000 1.946110 0.000000 
#    z 0.000000 0.000000 1.936510 
# 
# From -- ./inp_files/2517.got.cif
#   From: 2010.03.12/outbox.cif.g09.slc.cpg/sg152_2_cif.got.tgz:2517.got - 2010.04.03 13:45:27.
