data_PCOD8322202
_publ_section_title
;
Structure prediction by ZEFSAII (Michael W. Deem and Ramdas Pophale) SiO2 
 PCOD8322202
Probable space group: P 31 2 1
;
_chemical_formula_sum "Si O2"
_cell_formula_units_Z 24
_cell_length_a 14.163188
_cell_length_b 14.163188
_cell_length_c 6.520268
_cell_angle_alpha 90.000000
_cell_angle_beta 90.000000
_cell_angle_gamma 120.000000
_cell_volume 1132.708393
_symmetry_space_group_name_H-M "P 31 2 1"
_symmetry_group_IT_number 152
_symmetry_cell_setting 'hexagonal'
loop_
_space_group_symop_operation_xyz
x,y,z
-y,x-y,1/3+z
-x+y,-x,2/3+z
x-y,-y,2/3-z
-x,-x+y,1/3-z
y,x,-z
loop_
_atom_site_type_symbol
_atom_site_label
_atom_site_fract_x
_atom_site_fract_y
_atom_site_fract_z
Si Si1 0.233080 0.341006 0.131229
Si Si2 0.699099 0.699099 0.500000
Si Si3 0.659937 0.248984 0.306505
Si Si4 0.620757 0.000000 0.833334
Si Si5 0.428658 0.931541 0.132015
O O1 0.102153 0.284572 0.121267
O O2 0.282292 0.459466 0.031131
O O3 0.272647 0.351067 0.366290
O O4 0.266681 0.266681 0.000000
O O5 0.618920 0.647831 0.694870
O O6 0.741063 0.365566 0.409714
O O7 0.553272 0.192940 0.455315
O O8 0.586256 0.067984 0.685359
O O9 0.488102 0.000000 0.333334
#
# Coordination Sequence:
#
# PCOD8322202 Si02
#       5
#     6   3   6   3   6
#     4  12  26  47  68  96 139 183 234 285 346 402
#     4  11  28  42  73 100 132 188 235 288 333 410
#     4  12  25  38  67 107 146 181 219 273 347 429
#     4  11  22  42  67  92 130 182 219 276 339 396
#     4  11  22  43  66  99 141 174 223 270 341 414
#
# _framework density 21.188154999999998
#
# number of rings (size 3 to 8) (size 9 to 14) (size 15 to 20)
#    0.000    0.500    5.000    3.000   10.500    2.000 
#    0.000    1.250    0.000    0.000    0.000    0.000 
#    0.000    0.000    0.000    0.000    0.000    0.000 
#
# Total GULP energy -297566.088871 kJ/mol
# GULP energy per Si atom -12398.587036 kJ/mol
# Density = 2.113993 g / cm^3
# Si number density = 21.188155 Si / 1000 Ang^3
#
#
#
# Elastic Constant Matrix: (Units=GPa)
#
#
# Indices 1 2 3 4 5 6 
#
# 1 130.3916 69.9769 52.3232 -0.4609 -0.0001 0.0000
# 2 69.9769 130.3916 52.3232 0.4609 0.0001 0.0000
# 3 52.3232 52.3232 125.7661 0.0000 0.0000 0.0000
# 4 -0.4609 0.4609 0.0000 33.5087 0.0000 0.0001
# 5 -0.0001 0.0001 0.0000 0.0000 33.5087 -0.4609
# 6 0.0000 0.0000 0.0000 0.0001 -0.4609 30.2074
#
#
#
# Elastic Compliance Matrix: (Units=1/GPa)
#
#
# Indices 1 2 3 4 5 6 
#
# 1 0.011466 -0.005090 -0.002653 0.000228 0.000000 0.000000
# 2 -0.005090 0.011466 -0.002653 -0.000228 0.000000 0.000000
# 3 -0.002653 -0.002653 0.010159 0.000000 0.000000 0.000000
# 4 0.000228 -0.000228 0.000000 0.029849 0.000000 0.000000
# 5 0.000000 0.000000 0.000000 0.000000 0.029849 0.000455
# 6 0.000000 0.000000 0.000000 0.000000 0.000455 0.033111
#
#
# Mechanical properties :
#
#
# Convention : Reuss Voigt Hill
#
# Bulk Modulus (GPa) = 81.30042 81.75508 81.52775
# Shear Modulus (GPa) = 33.15847 33.57335 33.36591
#
# Velocity S-wave (km/s) = 3.96024 3.98494 3.97261
# Velocity P-wave (km/s) = 7.70489 7.73576 7.72034
#
# Compressibility (1/GPa) = 0.01230006
#
# Stress axis : x y z
#
# Youngs Moduli (GPa) = 87.21446 87.21446 98.43927
#
# Poissons Ratio (x) = 0.44390 0.26113
# Poissons Ratio (y) = 0.44390 0.26113
# Poissons Ratio (z) = 0.23136 0.23136
#
# Static dielectric constant tensor:
#      x y z
#    x 3.936020 0.000000 0.000000 
#    y 0.000000 3.936020 0.000000 
#    z 0.000000 0.000000 4.153460 
# 
# 
# High freq. dielectric constant tensor:
#      x y z
#    x 1.817360 0.000000 0.000000 
#    y 0.000000 1.817360 0.000000 
#    z 0.000000 0.000000 1.849460 
# 
# From -- ./inp_files/212.got.cif
#   From: 2010.03.12/outbox.cif.g09.slc.cpg/sg152_1_cif.got.tgz:212.got - 2010.04.03 13:45:27.
