data_PCOD8322675
_publ_section_title
;
Structure prediction by ZEFSAII (Michael W. Deem and Ramdas Pophale) SiO2 
 PCOD8322675
Probable space group: P 3 M 1
;
_chemical_formula_sum "Si O2"
_cell_formula_units_Z 42
_cell_length_a 12.857498
_cell_length_b 12.857498
_cell_length_c 18.035708
_cell_angle_alpha 90.000000
_cell_angle_beta 90.000000
_cell_angle_gamma 120.000000
_cell_volume 2582.122000
_symmetry_space_group_name_H-M "P 3 M 1"
_symmetry_group_IT_number 156
_symmetry_cell_setting 'hexagonal'
loop_
_space_group_symop_operation_xyz
x,y,z
-y,x-y,z
-x+y,-x,z
-x+y,y,z
x,x-y,z
-y,-x,z
loop_
_atom_site_type_symbol
_atom_site_label
_atom_site_fract_x
_atom_site_fract_y
_atom_site_fract_z
Si Si1 0.000501 0.756389 0.591460
Si Si2 0.000384 0.759899 0.020765
Si Si3 0.911041 0.574410 0.141557
Si Si4 0.664666 0.575204 0.462371
Si Si5 0.577564 0.909122 0.725765
Si Si6 0.240860 0.240807 0.852504
Si Si7 0.664906 0.097723 0.301446
O O1 0.880223 0.760445 0.607916
O O2 0.990778 0.684053 0.516919
O O3 0.022042 0.688330 0.658432
O O4 0.108734 0.891267 0.582116
O O5 0.892673 0.785345 0.034510
O O6 0.996199 0.662784 0.078070
O O7 0.997681 0.716122 0.936690
O O8 0.119680 0.880321 0.039027
O O9 0.782641 0.565281 0.141562
O O10 0.889859 0.444930 0.121073
O O11 0.974706 0.618588 0.223588
O O12 0.772786 0.545572 0.461124
O O13 0.544363 0.455638 0.488607
O O14 0.645105 0.616995 0.379899
O O15 0.460945 0.921889 0.718544
O O16 0.537943 0.768972 0.725736
O O17 0.646654 0.973044 0.801274
O O18 0.252271 0.126136 0.829804
O O19 0.101951 0.203902 0.842016
O O20 0.576725 0.153449 0.301311
O O21 0.800394 0.199606 0.300368
#
# Coordination Sequence:
#
# PCOD8322675 Si02
#       7
#     6   6   6   6   6   6   6
#     4  10  20  33  49  68  91 120 152 185 218 254
#     4   9  17  29  45  65  89 118 152 188 223 259
#     4   9  16  26  42  64  89 116 147 185 228 271
#     4   9  16  27  45  68  92 116 144 181 226 273
#     4  10  20  33  49  68  90 115 143 178 220 264
#     4   9  17  30  49  70  90 115 149 188 224 258
#     4   8  13  22  38  61  87 114 145 181 221 265
#
# _framework density 16.265692000000001
#
# number of rings (size 3 to 8) (size 9 to 14) (size 15 to 20)
#    0.000    2.857    0.000    1.857    0.000    4.000 
#    0.000    2.143    0.000    3.714    0.000    2.000 
#    0.000    0.000    0.000    0.000    0.000    0.000 
#
# Total GULP energy -520429.601332 kJ/mol
# GULP energy per Si atom -12391.180984 kJ/mol
# Density = 1.622867 g / cm^3
# Si number density = 16.265692 Si / 1000 Ang^3
#
#
#
# Elastic Constant Matrix: (Units=GPa)
#
#
# Indices 1 2 3 4 5 6 
#
# 1 82.0529 41.3490 60.0487 2.1927 0.0001 0.0000
# 2 41.3490 82.0529 60.0487 -2.1927 -0.0001 0.0000
# 3 60.0487 60.0487 135.2820 0.0000 0.0000 0.0000
# 4 2.1927 -2.1927 0.0000 23.8982 0.0000 -0.0001
# 5 0.0001 -0.0001 0.0000 0.0000 23.8982 2.1927
# 6 0.0000 0.0000 0.0000 -0.0001 2.1927 20.3519
#
#
#
# Elastic Compliance Matrix: (Units=1/GPa)
#
#
# Indices 1 2 3 4 5 6 
#
# 1 0.019540 -0.005273 -0.006333 -0.002277 0.000000 0.000000
# 2 -0.005273 0.019540 -0.006333 0.002277 0.000000 0.000000
# 3 -0.006333 -0.006333 0.013014 0.000000 0.000000 0.000000
# 4 -0.002277 0.002277 0.000000 0.042262 0.000000 0.000000
# 5 0.000000 0.000000 0.000000 0.000000 0.042262 -0.004553
# 6 0.000000 0.000000 0.000000 0.000000 -0.004553 0.049626
#
#
# Mechanical properties :
#
#
# Convention : Reuss Voigt Hill
#
# Bulk Modulus (GPa) = 61.66547 69.14230 65.40388
# Shear Modulus (GPa) = 21.97553 22.82575 22.40064
#
# Velocity S-wave (km/s) = 3.67963 3.75014 3.71505
# Velocity P-wave (km/s) = 7.48643 7.83273 7.66154
#
# Compressibility (1/GPa) = 0.01621653
#
# Stress axis : x y z
#
# Youngs Moduli (GPa) = 51.17752 51.17752 76.84137
#
# Poissons Ratio (x) = 0.26987 0.48661
# Poissons Ratio (y) = 0.26987 0.48661
# Poissons Ratio (z) = 0.32409 0.32409
#
# Static dielectric constant tensor:
#      x y z
#    x 2.862980 0.000000 0.000000 
#    y 0.000000 2.862980 0.000000 
#    z 0.000000 0.000000 3.568310 
# 
# 
# High freq. dielectric constant tensor:
#      x y z
#    x 1.603150 0.000000 0.000000 
#    y 0.000000 1.603150 0.000000 
#    z 0.000000 0.000000 1.648760 
# 
# From -- ./inp_files/971.got.cif
#   From: 2010.03.12/outbox.cif.g09.slc.cpg/sg156_cif.got.tgz:971.got - 2010.04.03 13:58:47.
