data_PCOD8322301
_publ_section_title
;
Structure prediction by ZEFSAII (Michael W. Deem and Ramdas Pophale) SiO2 
 PCOD8322301
Probable space group: P 32 2 1
;
_chemical_formula_sum "Si O2"
_cell_formula_units_Z 39
_cell_length_a 13.173126
_cell_length_b 13.173126
_cell_length_c 12.375767
_cell_angle_alpha 90.000000
_cell_angle_beta 90.000000
_cell_angle_gamma 120.000000
_cell_volume 1859.860829
_symmetry_space_group_name_H-M "P 32 2 1"
_symmetry_group_IT_number 154
_symmetry_cell_setting 'hexagonal'
loop_
_space_group_symop_operation_xyz
x,y,z
-y,x-y,2/3+z
-x+y,-x,1/3+z
x-y,-y,1/3-z
-x,-x+y,2/3-z
y,x,-z
loop_
_atom_site_type_symbol
_atom_site_label
_atom_site_fract_x
_atom_site_fract_y
_atom_site_fract_z
Si Si1 0.595627 0.845390 0.956010
Si Si2 0.409296 0.136670 0.138486
Si Si3 0.258130 0.000000 0.666667
Si Si4 0.891995 0.678985 0.670196
Si Si5 0.774319 0.112885 0.606099
Si Si6 0.005797 0.131829 0.534114
Si Si7 0.367786 0.505062 0.495463
O O1 0.571470 0.855563 0.828824
O O2 0.702730 0.969227 0.996210
O O3 0.621985 0.737047 0.963755
O O4 0.490590 0.817218 0.038543
O O5 0.373281 0.206444 0.221915
O O6 0.550312 0.191243 0.139141
O O7 0.338669 0.000000 0.166667
O O8 0.382561 0.158979 0.017231
O O9 0.215244 0.046945 0.568495
O O10 0.875005 0.788177 0.701469
O O11 0.830877 0.572013 0.757434
O O12 0.868860 0.078600 0.560440
O O13 0.671784 0.000000 0.666667
O O14 0.022991 0.022991 0.500000
O O15 0.451842 0.451842 0.500000
#
# Coordination Sequence:
#
# PCOD8322301 Si02
#       7
#     6   6   3   6   6   6   6
#     4  10  19  34  56  84 118 163 205 252 306 370
#     4  11  22  38  57  87 124 165 209 258 309 372
#     4  10  18  28  48  84 120 158 204 246 288 364
#     4  11  18  36  59  81 119 163 215 254 304 372
#     4  11  23  33  52  90 136 169 196 246 315 389
#     4  11  20  29  49  82 130 176 206 236 288 382
#     4   9  20  38  60  80 103 156 223 262 300 354
#
# _framework density 20.969311999999999
#
# number of rings (size 3 to 8) (size 9 to 14) (size 15 to 20)
#    0.000    1.538    6.154    0.462    1.077    0.615 
#    0.000    1.538    0.000    0.000    2.000    0.000 
#    0.000    0.000    0.000    0.000    0.000    0.000 
#
# Total GULP energy -483316.732605 kJ/mol
# GULP energy per Si atom -12392.736733 kJ/mol
# Density = 2.092158 g / cm^3
# Si number density = 20.969312 Si / 1000 Ang^3
#
#
#
# Elastic Constant Matrix: (Units=GPa)
#
#
# Indices 1 2 3 4 5 6 
#
# 1 49.0943 17.7073 22.9654 0.5195 0.0000 0.0000
# 2 17.7073 49.0943 22.9654 -0.5195 0.0000 0.0000
# 3 22.9654 22.9654 148.0995 0.0000 0.0000 0.0000
# 4 0.5195 -0.5195 0.0000 22.7637 0.0000 0.0000
# 5 0.0000 0.0000 0.0000 0.0000 22.7637 0.5195
# 6 0.0000 0.0000 0.0000 0.0000 0.5195 15.6935
#
#
#
# Elastic Compliance Matrix: (Units=1/GPa)
#
#
# Indices 1 2 3 4 5 6 
#
# 1 0.024320 -0.007564 -0.002598 -0.000728 0.000000 0.000000
# 2 -0.007564 0.024320 -0.002598 0.000728 0.000000 0.000000
# 3 -0.002598 -0.002598 0.007558 0.000000 0.000000 0.000000
# 4 -0.000728 0.000728 0.000000 0.043963 0.000000 0.000000
# 5 0.000000 0.000000 0.000000 0.000000 0.043963 -0.001455
# 6 0.000000 0.000000 0.000000 0.000000 -0.001455 0.063769
#
#
# Mechanical properties :
#
#
# Convention : Reuss Voigt Hill
#
# Bulk Modulus (GPa) = 32.59754 41.50714 37.05234
# Shear Modulus (GPa) = 20.52209 24.42087 22.47148
#
# Velocity S-wave (km/s) = 3.13177 3.41633 3.27714
# Velocity P-wave (km/s) = 5.35317 5.94970 5.65930
#
# Compressibility (1/GPa) = 0.03067716
#
# Stress axis : x y z
#
# Youngs Moduli (GPa) = 41.11793 41.11793 132.30911
#
# Poissons Ratio (x) = 0.31102 0.34379
# Poissons Ratio (y) = 0.31102 0.34379
# Poissons Ratio (z) = 0.10684 0.10684
#
# Static dielectric constant tensor:
#      x y z
#    x 3.536230 0.000000 0.000000 
#    y 0.000000 3.536230 0.000000 
#    z 0.000000 0.000000 4.139500 
# 
# 
# High freq. dielectric constant tensor:
#      x y z
#    x 1.785810 0.000000 0.000000 
#    y 0.000000 1.785810 0.000000 
#    z 0.000000 0.000000 1.842270 
# 
# From -- ./inp_files/1672.got.cif
#   From: 2010.03.12/outbox.cif.g09.slc.cpg/sg154_1_cif.got.tgz:1672.got - 2010.04.03 13:51:21.
