data_PCOD8322409
_publ_section_title
;
Structure prediction by ZEFSAII (Michael W. Deem and Ramdas Pophale) SiO2 
 PCOD8322409
Probable space group: P 32 2 1
;
_chemical_formula_sum "Si O2"
_cell_formula_units_Z 36
_cell_length_a 8.643960
_cell_length_b 8.643960
_cell_length_c 27.911054
_cell_angle_alpha 90.000000
_cell_angle_beta 90.000000
_cell_angle_gamma 120.000000
_cell_volume 1806.060797
_symmetry_space_group_name_H-M "P 32 2 1"
_symmetry_group_IT_number 154
_symmetry_cell_setting 'hexagonal'
loop_
_space_group_symop_operation_xyz
x,y,z
-y,x-y,2/3+z
-x+y,-x,1/3+z
x-y,-y,1/3-z
-x,-x+y,2/3-z
y,x,-z
loop_
_atom_site_type_symbol
_atom_site_label
_atom_site_fract_x
_atom_site_fract_y
_atom_site_fract_z
Si Si1 0.776172 0.328571 0.445480
Si Si2 0.781742 0.927036 0.219987
Si Si3 0.890743 0.453539 0.726072
Si Si4 0.523880 0.575049 0.787098
Si Si5 0.780630 0.853470 0.948405
Si Si6 0.451639 0.252106 0.293033
O O1 0.724323 0.462829 0.418976
O O2 0.603757 0.137200 0.453045
O O3 0.860165 0.417276 0.495680
O O4 0.917993 0.302064 0.414411
O O5 0.620412 0.952431 0.238639
O O6 0.739803 0.723016 0.221087
O O7 0.828997 0.000000 0.166667
O O8 0.948714 0.034818 0.254710
O O9 0.795443 0.473723 0.678997
O O10 0.061644 0.437140 0.713464
O O11 0.395084 0.581346 0.746259
O O12 0.769268 0.029237 0.954347
O O13 0.770674 0.770674 0.000000
#
# Coordination Sequence:
#
# PCOD8322409 Si02
#       6
#     6   6   6   6   6   6
#     4  10  23  42  61  93 126 164 211 263 320 387
#     4  11  22  40  67  92 126 172 211 260 331 392
#     4  11  24  42  65  92 127 167 218 264 326 384
#     4  10  23  40  64  90 129 162 212 261 318 384
#     4  11  22  41  67  91 130 169 208 267 328 387
#     4  11  24  42  64  93 127 170 214 272 321 388
#
# _framework density 19.932884000000001
#
# number of rings (size 3 to 8) (size 9 to 14) (size 15 to 20)
#    0.000    1.333    3.333    3.000    4.667    1.333 
#    0.000    0.833    0.000    0.000    0.000    0.000 
#    0.000    0.000    0.000    0.000    0.000    0.000 
#
# Total GULP energy -446533.731034 kJ/mol
# GULP energy per Si atom -12403.714751 kJ/mol
# Density = 1.988752 g / cm^3
# Si number density = 19.932884 Si / 1000 Ang^3
#
#
#
# Elastic Constant Matrix: (Units=GPa)
#
#
# Indices 1 2 3 4 5 6 
#
# 1 89.4459 22.3887 39.3567 0.6091 0.0008 0.0000
# 2 22.3887 89.4459 39.3567 -0.6091 -0.0008 0.0000
# 3 39.3567 39.3567 121.8634 0.0000 0.0000 0.0000
# 4 0.6091 -0.6091 0.0000 41.2467 0.0000 -0.0008
# 5 0.0008 -0.0008 0.0000 0.0000 41.2467 0.6091
# 6 0.0000 0.0000 0.0000 -0.0008 0.6091 33.5286
#
#
#
# Elastic Compliance Matrix: (Units=1/GPa)
#
#
# Indices 1 2 3 4 5 6 
#
# 1 0.013244 -0.001672 -0.003737 -0.000220 0.000000 0.000000
# 2 -0.001672 0.013244 -0.003737 0.000220 0.000000 0.000000
# 3 -0.003737 -0.003737 0.010620 0.000000 0.000000 0.000000
# 4 -0.000220 0.000220 0.000000 0.024251 0.000000 0.000001
# 5 0.000000 0.000000 0.000000 0.000000 0.024251 -0.000441
# 6 0.000000 0.000000 0.000000 0.000001 -0.000441 0.029833
#
#
# Mechanical properties :
#
#
# Convention : Reuss Voigt Hill
#
# Bulk Modulus (GPa) = 53.14896 55.88440 54.51668
# Shear Modulus (GPa) = 35.71190 36.51459 36.11325
#
# Velocity S-wave (km/s) = 4.23733 4.28469 4.26107
# Velocity P-wave (km/s) = 7.11771 7.25088 7.18460
#
# Compressibility (1/GPa) = 0.01881504
#
# Stress axis : x y z
#
# Youngs Moduli (GPa) = 75.50328 75.50328 94.16265
#
# Poissons Ratio (x) = 0.12626 0.35192
# Poissons Ratio (y) = 0.12626 0.35192
# Poissons Ratio (z) = 0.28218 0.28218
#
# Static dielectric constant tensor:
#      x y z
#    x 3.093390 0.000000 0.000000 
#    y 0.000000 3.093390 0.000000 
#    z 0.000000 0.000000 3.888260 
# 
# 
# High freq. dielectric constant tensor:
#      x y z
#    x 1.775300 0.000000 0.000000 
#    y 0.000000 1.775300 0.000000 
#    z 0.000000 0.000000 1.800320 
# 
# From -- ./inp_files/3460.got.cif
#   From: 2010.03.12/outbox.cif.g09.slc.cpg/sg154_2_cif.got.tgz:3460.got - 2010.04.03 13:51:21.
