data_PCOD8322587
_publ_section_title
;
Structure prediction by ZEFSAII (Michael W. Deem and Ramdas Pophale) SiO2 
 PCOD8322587
Probable space group: R 3 2
;
_chemical_formula_sum "Si O2"
_cell_formula_units_Z 114
_cell_length_a 20.769750
_cell_length_b 20.769750
_cell_length_c 14.035914
_cell_angle_alpha 90.000000
_cell_angle_beta 90.000000
_cell_angle_gamma 120.000000
_cell_volume 5243.652082
_symmetry_space_group_name_H-M "R 3 2"
_symmetry_group_IT_number 155
_symmetry_cell_setting 'hexagonal'
loop_
_space_group_symop_operation_xyz
x,y,z
-y,x-y,z
-x+y,-x,z
x-y,-y,-z
-x,-x+y,-z
y,x,-z
2/3+x,1/3+y,1/3+z
2/3-y,1/3+x-y,1/3+z
2/3-x+y,1/3-x,1/3+z
2/3+x-y,1/3-y,1/3-z
2/3-x,1/3-x+y,1/3-z
2/3+y,1/3+x,1/3-z
1/3+x,2/3+y,2/3+z
1/3-y,2/3+x-y,2/3+z
1/3-x+y,2/3-x,2/3+z
1/3+x-y,2/3-y,2/3-z
1/3-x,2/3-x+y,2/3-z
1/3+y,2/3+x,2/3-z
loop_
_atom_site_type_symbol
_atom_site_label
_atom_site_fract_x
_atom_site_fract_y
_atom_site_fract_z
Si Si1 0.000000 0.000000 0.385386
Si Si2 0.324727 0.516114 0.353073
Si Si3 0.535400 0.461395 0.542595
Si Si4 0.054383 0.387036 0.420696
Si Si5 0.957822 0.562805 0.906319
Si Si6 0.454151 0.915104 0.836806
Si Si7 0.417467 0.837033 0.648696
O O1 0.074194 0.071293 0.345727
O O2 0.000000 0.000000 0.500000
O O3 0.402167 0.517712 0.373532
O O4 0.283452 0.456353 0.268348
O O5 0.279000 0.487814 0.451292
O O6 0.462438 0.462438 0.500000
O O7 0.585439 0.541848 0.592196
O O8 0.577119 0.444938 0.457319
O O9 0.033141 0.333334 0.333334
O O10 0.139448 0.420995 0.445539
O O11 0.000000 0.332349 0.500000
O O12 0.951787 0.618453 0.833334
O O13 0.005028 0.530777 0.855975
O O14 0.000000 0.609828 0.000000
O O15 0.441227 0.904166 0.723800
O O16 0.333334 0.772720 0.666667
O O17 0.471573 0.804906 0.666667
#
# Coordination Sequence:
#
# PCOD8322587 Si02
#       7
#     6  18  18  18  18  18  18
#     4  12  27  45  72  97 137 178 243 294 351 414
#     4  11  24  45  70  99 137 186 230 297 343 416
#     4  11  26  43  69 108 143 180 242 291 352 435
#     4  11  25  43  69 100 136 184 231 295 362 420
#     4  10  24  43  66  95 134 181 232 283 346 419
#     4  11  24  45  67  98 140 180 233 283 353 432
#     4  12  25  45  74 109 145 185 233 293 362 430
#
# _framework density 21.740572
#
# number of rings (size 3 to 8) (size 9 to 14) (size 15 to 20)
#    0.000    0.947    3.158    3.000    6.632    3.158 
#    0.000    5.526    0.000    0.000    0.000    0.000 
#    0.000    0.000    0.000    0.000    0.000    0.000 
#
# Total GULP energy -471230.443176 kJ/mol
# GULP energy per Si atom -12400.801136 kJ/mol
# Density = 2.169109 g / cm^3
# Si number density = 21.740572 Si / 1000 Ang^3
#
#
#
# Elastic Constant Matrix: (Units=GPa)
#
#
# Indices 1 2 3 4 5 6 
#
# 1 108.2311 40.5125 24.0184 -3.3669 -0.0002 0.0000
# 2 40.5125 108.2311 24.0184 3.3669 0.0002 0.0000
# 3 24.0184 24.0184 69.1848 0.0000 0.0000 0.0000
# 4 -3.3669 3.3669 0.0000 29.7452 0.0000 0.0002
# 5 -0.0002 0.0002 0.0000 0.0000 29.7452 -3.3669
# 6 0.0000 0.0000 0.0000 0.0002 -3.3669 33.8593
#
#
#
# Elastic Compliance Matrix: (Units=1/GPa)
#
#
# Indices 1 2 3 4 5 6 
#
# 1 0.011254 -0.003682 -0.002629 0.001691 0.000000 0.000000
# 2 -0.003682 0.011254 -0.002629 -0.001691 0.000000 0.000000
# 3 -0.002629 -0.002629 0.016279 0.000000 0.000000 0.000000
# 4 0.001691 -0.001691 0.000000 0.034002 0.000000 0.000000
# 5 0.000000 0.000000 0.000000 0.000000 0.034002 0.003381
# 6 0.000000 0.000000 0.000000 0.000000 0.003381 0.029870
#
#
# Mechanical properties :
#
#
# Convention : Reuss Voigt Hill
#
# Bulk Modulus (GPa) = 47.82795 51.41619 49.62207
# Shear Modulus (GPa) = 30.95841 31.80977 31.38409
#
# Velocity S-wave (km/s) = 3.77768 3.82927 3.80356
# Velocity P-wave (km/s) = 6.40897 6.57665 6.49335
#
# Compressibility (1/GPa) = 0.02090828
#
# Stress axis : x y z
#
# Youngs Moduli (GPa) = 88.86122 88.86122 61.42803
#
# Poissons Ratio (x) = 0.32715 0.16148
# Poissons Ratio (y) = 0.32715 0.16148
# Poissons Ratio (z) = 0.23359 0.23359
#
# Static dielectric constant tensor:
#      x y z
#    x 4.016490 0.000000 0.000000 
#    y 0.000000 4.016490 0.000000 
#    z 0.000000 0.000000 4.070180 
# 
# 
# High freq. dielectric constant tensor:
#      x y z
#    x 1.859240 0.000000 0.000000 
#    y 0.000000 1.859240 0.000000 
#    z 0.000000 0.000000 1.858370 
# 
# From -- ./inp_files/5196.got.cif
#   From: 2010.03.12/outbox.cif.g09.slc.cpg/sg155_3_cif.got.tgz:5196.got - 2010.04.03 13:54:13.
