data_PCOD8322175
_publ_section_title
;
Structure prediction by ZEFSAII (Michael W. Deem and Ramdas Pophale) SiO2 
 PCOD8322175
Probable space group: P 31 2 1
;
_chemical_formula_sum "Si O2"
_cell_formula_units_Z 27
_cell_length_a 11.965049
_cell_length_b 11.965049
_cell_length_c 10.212643
_cell_angle_alpha 90.000000
_cell_angle_beta 90.000000
_cell_angle_gamma 120.000000
_cell_volume 1266.186694
_symmetry_space_group_name_H-M "P 31 2 1"
_symmetry_group_IT_number 152
_symmetry_cell_setting 'hexagonal'
loop_
_space_group_symop_operation_xyz
x,y,z
-y,x-y,1/3+z
-x+y,-x,2/3+z
x-y,-y,2/3-z
-x,-x+y,1/3-z
y,x,-z
loop_
_atom_site_type_symbol
_atom_site_label
_atom_site_fract_x
_atom_site_fract_y
_atom_site_fract_z
Si Si1 0.568656 0.568656 0.000000
Si Si2 0.777859 0.257177 0.030290
Si Si3 0.621903 0.009915 0.532010
Si Si4 0.237144 0.000000 0.833334
Si Si5 0.482717 0.264718 0.397605
Si Si6 0.198431 0.198431 0.000000
O O1 0.471347 0.520575 0.875933
O O2 0.570433 0.703201 0.022895
O O3 0.914281 0.281797 0.084797
O O4 0.738491 0.366706 0.047967
O O5 0.674805 0.141958 0.118650
O O6 0.770369 0.215364 0.880480
O O7 0.664415 0.073822 0.673760
O O8 0.751036 0.055447 0.448083
O O9 0.118694 0.930929 0.729099
#
# Coordination Sequence:
#
# PCOD8322175 Si02
#       6
#     3   6   6   3   6   3
#     4  11  24  42  63 100 136 178 221 288 349 416
#     4  11  25  43  69 100 139 180 234 289 350 428
#     4  10  23  42  65  95 138 172 229 279 352 419
#     4  10  24  48  70 100 138 188 236 294 360 420
#     4  12  24  42  68 103 134 184 227 284 352 420
#     4   9  22  46  67  98 134 184 227 294 351 418
#
# _framework density 21.323871
#
# number of rings (size 3 to 8) (size 9 to 14) (size 15 to 20)
#    0.000    1.333    2.222    2.000    6.222    0.000 
#    8.000    0.000    0.000    0.000    0.000    0.000 
#    0.000    0.000    0.000    0.000    0.000    0.000 
#
# Total GULP energy -334534.234086 kJ/mol
# GULP energy per Si atom -12390.156818 kJ/mol
# Density = 2.127534 g / cm^3
# Si number density = 21.323871 Si / 1000 Ang^3
#
#
#
# Elastic Constant Matrix: (Units=GPa)
#
#
# Indices 1 2 3 4 5 6 
#
# 1 77.9598 40.4242 28.4880 -15.2732 -0.0001 0.0000
# 2 40.4242 77.9598 28.4880 15.2732 0.0001 0.0000
# 3 28.4880 28.4880 119.7545 0.0000 0.0000 0.0000
# 4 -15.2732 15.2732 0.0000 20.1123 0.0000 0.0001
# 5 -0.0001 0.0001 0.0000 0.0000 20.1123 -15.2732
# 6 0.0000 0.0000 0.0000 0.0001 -15.2732 18.7678
#
#
#
# Elastic Compliance Matrix: (Units=1/GPa)
#
#
# Indices 1 2 3 4 5 6 
#
# 1 0.039640 -0.030101 -0.002269 0.052961 0.000000 0.000000
# 2 -0.030101 0.039640 -0.002269 -0.052961 0.000000 0.000000
# 3 -0.002269 -0.002269 0.009430 0.000000 0.000000 0.000000
# 4 0.052961 -0.052961 0.000000 0.130157 0.000000 -0.000001
# 5 0.000000 0.000000 0.000000 0.000000 0.130157 0.105922
# 6 0.000000 0.000000 0.000000 -0.000001 0.105922 0.139482
#
#
# Mechanical properties :
#
#
# Convention : Reuss Voigt Hill
#
# Bulk Modulus (GPa) = 51.46281 52.27495 51.86888
# Shear Modulus (GPa) = 8.86112 23.68340 16.27226
#
# Velocity S-wave (km/s) = 2.04071 3.33626 2.76542
# Velocity P-wave (km/s) = 5.45335 6.27764 5.87996
#
# Compressibility (1/GPa) = 0.01943151
#
# Stress axis : x y z
#
# Youngs Moduli (GPa) = 25.22702 25.22702 106.04374
#
# Poissons Ratio (x) = 0.75935 0.24064
# Poissons Ratio (y) = 0.75935 0.24064
# Poissons Ratio (z) = 0.05725 0.05725
#
# Static dielectric constant tensor:
#      x y z
#    x 3.880500 0.000000 0.000000 
#    y 0.000000 3.880500 0.000000 
#    z 0.000000 0.000000 4.006260 
# 
# 
# High freq. dielectric constant tensor:
#      x y z
#    x 1.836250 0.000000 0.000000 
#    y 0.000000 1.836250 0.000000 
#    z 0.000000 0.000000 1.847220 
# 
# From -- ./inp_files/1711.got.cif
#   From: 2010.03.12/outbox.cif.g09.slc.cpg/sg152_1_cif.got.tgz:1711.got - 2010.04.03 13:45:27.
