data_PCOD8322453
_publ_section_title
;
Structure prediction by ZEFSAII (Michael W. Deem and Ramdas Pophale) SiO2 
 PCOD8322453
Probable space group: R 3 2
;
_chemical_formula_sum "Si O2"
_cell_formula_units_Z 135
_cell_length_a 17.732298
_cell_length_b 17.732298
_cell_length_c 26.818601
_cell_angle_alpha 90.000000
_cell_angle_beta 90.000000
_cell_angle_gamma 120.000000
_cell_volume 7302.924203
_symmetry_space_group_name_H-M "R 3 2"
_symmetry_group_IT_number 155
_symmetry_cell_setting 'hexagonal'
loop_
_space_group_symop_operation_xyz
x,y,z
-y,x-y,z
-x+y,-x,z
x-y,-y,-z
-x,-x+y,-z
y,x,-z
2/3+x,1/3+y,1/3+z
2/3-y,1/3+x-y,1/3+z
2/3-x+y,1/3-x,1/3+z
2/3+x-y,1/3-y,1/3-z
2/3-x,1/3-x+y,1/3-z
2/3+y,1/3+x,1/3-z
1/3+x,2/3+y,2/3+z
1/3-y,2/3+x-y,2/3+z
1/3-x+y,2/3-x,2/3+z
1/3+x-y,2/3-y,2/3-z
1/3-x,2/3-x+y,2/3-z
1/3+y,2/3+x,2/3-z
loop_
_atom_site_type_symbol
_atom_site_label
_atom_site_fract_x
_atom_site_fract_y
_atom_site_fract_z
Si Si1 0.071538 0.355792 0.459531
Si Si2 0.152942 0.965655 0.403510
Si Si3 0.350515 0.293199 0.900136
Si Si4 0.700404 0.033737 0.666667
Si Si5 0.341644 0.506691 0.944718
Si Si6 0.309080 0.518503 0.110662
Si Si7 0.138207 0.739353 0.480806
Si Si8 0.511987 0.672914 0.959870
O O1 0.033401 0.257995 0.439979
O O2 0.165388 0.388752 0.484645
O O3 0.088949 0.422596 0.413338
O O4 0.000000 0.351413 0.500000
O O5 0.059827 0.876826 0.408198
O O6 0.119339 0.031170 0.420160
O O7 0.195993 0.983838 0.348756
O O8 0.326954 0.292903 0.957652
O O9 0.413258 0.252912 0.890954
O O10 0.261801 0.229319 0.869527
O O11 0.408511 0.391126 0.878852
O O12 0.714482 0.124201 0.644109
O O13 0.339575 0.487522 0.885471
O O14 0.409650 0.608872 0.949308
O O15 0.243871 0.474541 0.960919
O O16 0.333334 0.555678 0.166667
#
# Coordination Sequence:
#
# PCOD8322453 Si02
#       8
#    18  18  18   9  18  18  18  18
#     4  11  22  37  53  78 111 151 195 234 292 351
#     4  12  22  33  51  78 118 156 193 233 284 336
#     4  10  16  31  49  76  99 135 183 218 277 323
#     4  10  20  32  56  84 110 140 178 238 282 346
#     4  10  22  37  57  81 110 144 193 230 286 338
#     4  12  21  32  50  77 116 151 197 224 265 333
#     4   9  18  33  54  71 102 143 180 228 273 332
#     4  11  23  38  57  82 111 154 189 246 290 343
#
# _framework density 18.485745999999999
#
# number of rings (size 3 to 8) (size 9 to 14) (size 15 to 20)
#    0.000    1.333    2.667    5.333    3.733    0.000 
#    4.800    0.000    0.000    0.000    0.000    0.000 
#    0.000    0.000    0.000    0.000    0.000    0.000 
#
# Total GULP energy -557532.033204 kJ/mol
# GULP energy per Si atom -12389.600738 kJ/mol
# Density = 1.844367 g / cm^3
# Si number density = 18.485746 Si / 1000 Ang^3
#
#
#
# Elastic Constant Matrix: (Units=GPa)
#
#
# Indices 1 2 3 4 5 6 
#
# 1 52.9856 20.8631 25.3588 -0.7909 -0.0002 0.0000
# 2 20.8631 52.9856 25.3588 0.7909 0.0002 0.0000
# 3 25.3588 25.3588 124.8718 0.0000 0.0000 0.0000
# 4 -0.7909 0.7909 0.0000 27.7537 0.0000 0.0002
# 5 -0.0002 0.0002 0.0000 0.0000 27.7537 -0.7909
# 6 0.0000 0.0000 0.0000 0.0002 -0.7909 16.0612
#
#
#
# Elastic Compliance Matrix: (Units=1/GPa)
#
#
# Indices 1 2 3 4 5 6 
#
# 1 0.023455 -0.007719 -0.003196 0.000888 0.000000 0.000000
# 2 -0.007719 0.023455 -0.003196 -0.000888 0.000000 0.000000
# 3 -0.003196 -0.003196 0.009306 0.000000 0.000000 0.000000
# 4 0.000888 -0.000888 0.000000 0.036082 0.000000 0.000000
# 5 0.000000 0.000000 0.000000 0.000000 0.036082 0.001777
# 6 0.000000 0.000000 0.000000 0.000000 0.001777 0.062349
#
#
# Mechanical properties :
#
#
# Convention : Reuss Voigt Hill
#
# Bulk Modulus (GPa) = 35.72014 41.55604 38.63809
# Shear Modulus (GPa) = 21.90267 24.93120 23.41693
#
# Velocity S-wave (km/s) = 3.44589 3.67641 3.56301
# Velocity P-wave (km/s) = 5.93272 6.36790 6.15416
#
# Compressibility (1/GPa) = 0.02799541
#
# Stress axis : x y z
#
# Youngs Moduli (GPa) = 42.63438 42.63438 107.45598
#
# Poissons Ratio (x) = 0.32911 0.34339
# Poissons Ratio (y) = 0.32911 0.34339
# Poissons Ratio (z) = 0.13624 0.13624
#
# Static dielectric constant tensor:
#      x y z
#    x 3.165290 0.000000 0.000000 
#    y 0.000000 3.165290 0.000000 
#    z 0.000000 0.000000 3.754600 
# 
# 
# High freq. dielectric constant tensor:
#      x y z
#    x 1.689870 0.000000 0.000000 
#    y 0.000000 1.689870 0.000000 
#    z 0.000000 0.000000 1.728550 
# 
# From -- ./inp_files/8563.got.cif
#   From: 2010.03.12/outbox.cif.g09.slc.cpg/sg155_5_cif.got.tgz:8563.got - 2010.04.03 13:54:13.
