data_PCOD8322730
_publ_section_title
;
Structure prediction by ZEFSAII (Michael W. Deem and Ramdas Pophale) SiO2 
 PCOD8322730
Probable space group: P 3 1 M
;
_chemical_formula_sum "Si O2"
_cell_formula_units_Z 30
_cell_length_a 14.153951
_cell_length_b 14.153951
_cell_length_c 9.119130
_cell_angle_alpha 90.000000
_cell_angle_beta 90.000000
_cell_angle_gamma 120.000000
_cell_volume 1582.119977
_symmetry_space_group_name_H-M "P 3 1 M"
_symmetry_group_IT_number 157
_symmetry_cell_setting 'hexagonal'
loop_
_space_group_symop_operation_xyz
x,y,z
-y,x-y,z
-x+y,-x,z
y,x,z
x-y,-y,z
-x,-x+y,z
loop_
_atom_site_type_symbol
_atom_site_label
_atom_site_fract_x
_atom_site_fract_y
_atom_site_fract_z
Si Si1 0.742027 0.472890 0.382380
Si Si2 0.874960 0.749804 0.892632
Si Si3 0.560823 0.787924 0.696564
Si Si4 0.300664 0.425771 0.105500
Si Si5 0.877810 0.439437 0.850430
O O1 0.609799 0.400616 0.383358
O O2 0.771231 0.550185 0.523009
O O3 0.792045 0.546984 0.239702
O O4 0.805906 0.805906 0.940464
O O5 0.831509 0.686776 0.737354
O O6 0.000000 0.842823 0.876767
O O7 0.857432 0.659155 0.010652
O O8 0.526437 0.877143 0.736797
O O9 0.479176 0.681795 0.793606
O O10 0.369381 0.369381 0.160423
O O11 0.380248 0.534669 0.011042
O O12 0.000000 0.458785 0.854566
#
# Coordination Sequence:
#
# PCOD8322730 Si02
#       5
#     6   6   6   6   6
#     4  10  21  36  53  85 122 168 190 226 290 353
#     4  10  22  41  64  86 110 148 203 263 309 349
#     4  11  19  36  56  83 119 156 190 233 288 353
#     4   9  21  37  57  85 118 155 197 246 293 346
#     4  10  20  34  54  81 110 151 196 234 282 335
#
# _framework density 18.961898999999999
#
# number of rings (size 3 to 8) (size 9 to 14) (size 15 to 20)
#    0.400    1.600    2.000    3.000    5.600    1.600 
#    0.000    2.000    0.000    0.000    0.000    2.800 
#    0.000    0.000    0.000    0.000    0.000    0.000 
#
# Total GULP energy -371836.610983 kJ/mol
# GULP energy per Si atom -12394.553699 kJ/mol
# Density = 1.891874 g / cm^3
# Si number density = 18.961899 Si / 1000 Ang^3
#
#
#
# Elastic Constant Matrix: (Units=GPa)
#
#
# Indices 1 2 3 4 5 6 
#
# 1 80.0377 25.4914 45.1688 0.0000 1.2571 0.0000
# 2 25.4914 80.0377 45.1688 0.0000 -1.2571 0.0000
# 3 45.1688 45.1688 115.4623 0.0000 0.0000 0.0000
# 4 0.0000 0.0000 0.0000 18.2336 0.0000 -1.2571
# 5 1.2571 -1.2571 0.0000 0.0000 18.2336 0.0000
# 6 0.0000 0.0000 0.0000 -1.2571 0.0000 27.2732
#
#
#
# Elastic Compliance Matrix: (Units=1/GPa)
#
#
# Indices 1 2 3 4 5 6 
#
# 1 0.016319 -0.002072 -0.005574 0.000000 -0.001268 0.000000
# 2 -0.002072 0.016319 -0.005574 0.000000 0.001268 0.000000
# 3 -0.005574 -0.005574 0.013022 0.000000 0.000000 0.000000
# 4 0.000000 0.000000 0.000000 0.055019 0.000000 0.002536
# 5 -0.001268 0.001268 0.000000 0.000000 0.055019 0.000000
# 6 0.000000 0.000000 0.000000 0.002536 0.000000 0.036783
#
#
# Mechanical properties :
#
#
# Convention : Reuss Voigt Hill
#
# Bulk Modulus (GPa) = 52.02379 56.35506 54.18943
# Shear Modulus (GPa) = 22.19003 23.39531 22.79267
#
# Velocity S-wave (km/s) = 3.42459 3.51637 3.47078
# Velocity P-wave (km/s) = 6.56754 6.80229 6.68595
#
# Compressibility (1/GPa) = 0.01922197
#
# Stress axis : x y z
#
# Youngs Moduli (GPa) = 61.27690 61.27690 76.79587
#
# Poissons Ratio (x) = 0.12697 0.42802
# Poissons Ratio (y) = 0.12697 0.42802
# Poissons Ratio (z) = 0.34153 0.34153
#
# Static dielectric constant tensor:
#      x y z
#    x 3.385760 0.000000 0.000000 
#    y 0.000000 3.385760 0.000000 
#    z 0.000000 0.000000 3.296850 
# 
# 
# High freq. dielectric constant tensor:
#      x y z
#    x 1.728480 0.000000 0.000000 
#    y 0.000000 1.728480 0.000000 
#    z 0.000000 0.000000 1.722760 
# 
# From -- ./inp_files/331.got.cif
#   From: 2010.03.12/outbox.cif.g09.slc.cpg/sg157_cif.got.tgz:331.got - 2010.04.03 13:59:21.
