data_PCOD8322517
_publ_section_title
;
Structure prediction by ZEFSAII (Michael W. Deem and Ramdas Pophale) SiO2 
 PCOD8322517
Probable space group: R 3 2
;
_chemical_formula_sum "Si O2"
_cell_formula_units_Z 90
_cell_length_a 23.235135
_cell_length_b 23.235135
_cell_length_c 9.180940
_cell_angle_alpha 90.000000
_cell_angle_beta 90.000000
_cell_angle_gamma 120.000000
_cell_volume 4292.479020
_symmetry_space_group_name_H-M "R 3 2"
_symmetry_group_IT_number 155
_symmetry_cell_setting 'hexagonal'
loop_
_space_group_symop_operation_xyz
x,y,z
-y,x-y,z
-x+y,-x,z
x-y,-y,-z
-x,-x+y,-z
y,x,-z
2/3+x,1/3+y,1/3+z
2/3-y,1/3+x-y,1/3+z
2/3-x+y,1/3-x,1/3+z
2/3+x-y,1/3-y,1/3-z
2/3-x,1/3-x+y,1/3-z
2/3+y,1/3+x,1/3-z
1/3+x,2/3+y,2/3+z
1/3-y,2/3+x-y,2/3+z
1/3-x+y,2/3-x,2/3+z
1/3+x-y,2/3-y,2/3-z
1/3-x,2/3-x+y,2/3-z
1/3+y,2/3+x,2/3-z
loop_
_atom_site_type_symbol
_atom_site_label
_atom_site_fract_x
_atom_site_fract_y
_atom_site_fract_z
Si Si1 0.000000 0.875679 0.500000
Si Si2 0.421602 0.622534 0.914238
Si Si3 0.128520 0.128520 0.000000
Si Si4 0.557807 0.421614 0.583430
Si Si5 0.033339 0.432956 0.356648
Si Si6 0.466796 0.057627 0.089804
O O1 0.950760 0.889955 0.598817
O O2 0.958032 0.814152 0.390423
O O3 0.371837 0.599402 0.778017
O O4 0.470145 0.700255 0.906577
O O5 0.460661 0.581466 0.895576
O O6 0.143570 0.193520 0.901439
O O7 0.554981 0.488452 0.607340
O O8 0.089431 0.412932 0.321814
O O9 0.000000 0.391488 0.500000
O O10 0.973030 0.407669 0.244547
O O11 0.470907 0.000000 0.000000
#
# Coordination Sequence:
#
# PCOD8322517 Si02
#       6
#     9  18   9  18  18  18
#     4  10  20  36  52  70 106 146 186 218 288 300
#     4  10  21  37  52  78 112 144 184 235 267 326
#     4  10  20  36  52  70 106 146 186 218 288 300
#     4  10  21  37  52  78 112 144 184 235 267 326
#     4  11  21  34  55  82 118 148 184 217 268 333
#     4  11  21  34  55  82 118 148 184 217 268 333
#
# _framework density 20.966905000000001
#
# number of rings (size 3 to 8) (size 9 to 14) (size 15 to 20)
#    0.000    1.600    0.000    6.000    0.000    6.400 
#   24.000    0.000    0.000    0.000    0.000    0.000 
#  252.000    0.000    0.000    0.000    0.000    0.000 
#
# Total GULP energy -371806.748902 kJ/mol
# GULP energy per Si atom -12393.558297 kJ/mol
# Density = 2.091918 g / cm^3
# Si number density = 20.966905 Si / 1000 Ang^3
#
#
#
# Elastic Constant Matrix: (Units=GPa)
#
#
# Indices 1 2 3 4 5 6 
#
# 1 85.7353 29.4592 28.1013 -2.7608 0.0243 0.0015
# 2 29.4592 85.7238 28.0686 2.7620 -0.0001 0.0000
# 3 28.1013 28.0686 136.7855 -0.0012 0.0764 0.0037
# 4 -2.7608 2.7620 -0.0012 23.4207 0.0012 0.0013
# 5 0.0243 -0.0001 0.0764 0.0012 23.4753 -2.7610
# 6 0.0015 0.0000 0.0037 0.0013 -2.7610 28.1313
#
#
#
# Elastic Compliance Matrix: (Units=1/GPa)
#
#
# Indices 1 2 3 4 5 6 
#
# 1 0.013813 -0.004166 -0.001983 0.002120 -0.000008 -0.000001
# 2 -0.004166 0.013813 -0.001979 -0.002120 0.000011 0.000002
# 3 -0.001983 -0.001979 0.008124 0.000000 -0.000025 -0.000003
# 4 0.002120 -0.002120 0.000000 0.043197 -0.000005 -0.000003
# 5 -0.000008 0.000011 -0.000025 -0.000005 0.043096 0.004230
# 6 -0.000001 0.000002 -0.000003 -0.000003 0.004230 0.035963
#
#
# Mechanical properties :
#
#
# Convention : Reuss Voigt Hill
#
# Bulk Modulus (GPa) = 51.29374 53.27809 52.28592
# Shear Modulus (GPa) = 27.66097 29.84649 28.75373
#
# Velocity S-wave (km/s) = 3.63611 3.77703 3.70724
# Velocity P-wave (km/s) = 6.49197 6.66986 6.58152
#
# Compressibility (1/GPa) = 0.01949556
#
# Stress axis : x y z
#
# Youngs Moduli (GPa) = 72.39303 72.39434 123.09009
#
# Poissons Ratio (x) = 0.30160 0.24408
# Poissons Ratio (y) = 0.30159 0.24355
# Poissons Ratio (z) = 0.14355 0.14324
#
# Static dielectric constant tensor:
#      x y z
#    x 3.778550 -0.000040 -0.000070 
#    y -0.000040 3.778530 -0.000020 
#    z -0.000070 -0.000020 4.098890 
# 
# 
# High freq. dielectric constant tensor:
#      x y z
#    x 1.792310 0.000000 0.000000 
#    y 0.000000 1.792310 0.000000 
#    z 0.000000 0.000000 1.847770 
# 
# From -- ./inp_files/2832.got.cif
#   From: 2010.03.12/outbox.cif.g09.slc.cpg/sg155_2_cif.got.tgz:2832.got - 2010.04.03 13:54:13.
