data_PCOD8322526
_publ_section_title
;
Structure prediction by ZEFSAII (Michael W. Deem and Ramdas Pophale) SiO2 
 PCOD8322526
Probable space group: R 3 2
;
_chemical_formula_sum "Si O2"
_cell_formula_units_Z 108
_cell_length_a 18.053299
_cell_length_b 18.053299
_cell_length_c 18.999768
_cell_angle_alpha 90.000000
_cell_angle_beta 90.000000
_cell_angle_gamma 120.000000
_cell_volume 5362.805915
_symmetry_space_group_name_H-M "R 3 2"
_symmetry_group_IT_number 155
_symmetry_cell_setting 'hexagonal'
loop_
_space_group_symop_operation_xyz
x,y,z
-y,x-y,z
-x+y,-x,z
x-y,-y,-z
-x,-x+y,-z
y,x,-z
2/3+x,1/3+y,1/3+z
2/3-y,1/3+x-y,1/3+z
2/3-x+y,1/3-x,1/3+z
2/3+x-y,1/3-y,1/3-z
2/3-x,1/3-x+y,1/3-z
2/3+y,1/3+x,1/3-z
1/3+x,2/3+y,2/3+z
1/3-y,2/3+x-y,2/3+z
1/3-x+y,2/3-x,2/3+z
1/3+x-y,2/3-y,2/3-z
1/3-x,2/3-x+y,2/3-z
1/3+y,2/3+x,2/3-z
loop_
_atom_site_type_symbol
_atom_site_label
_atom_site_fract_x
_atom_site_fract_y
_atom_site_fract_z
Si Si1 0.247421 0.103930 0.645827
Si Si2 0.431029 0.904244 0.662479
Si Si3 0.907829 0.150600 0.346729
Si Si4 0.095890 0.901333 0.503433
Si Si5 0.005851 0.774112 0.904291
Si Si6 0.766925 0.007315 0.258360
O O1 0.333334 0.102538 0.666667
O O2 0.252908 0.138699 0.565979
O O3 0.248584 0.174370 0.697588
O O4 0.171486 0.006271 0.656415
O O5 0.333334 0.828999 0.666667
O O6 0.468967 0.893482 0.588793
O O7 0.490614 0.899897 0.723432
O O8 0.435073 0.995869 0.668333
O O9 0.865733 0.110516 0.423266
O O10 0.857334 0.083726 0.285420
O O11 0.000000 0.884089 0.500000
O O12 0.162222 0.000000 0.500000
O O13 0.988518 0.774642 0.822516
O O14 0.024818 0.698468 0.929886
#
# Coordination Sequence:
#
# PCOD8322526 Si02
#       6
#    18  18  18  18  18  18
#     4  11  24  37  60  92 121 160 206 257 305 381
#     4  10  21  41  66  88 124 165 207 263 321 388
#     4  10  22  40  60  89 126 165 203 253 324 382
#     4  10  20  37  58  87 122 160 201 245 312 376
#     4   9  22  40  64  95 118 165 213 264 323 369
#     4  10  21  41  64  90 128 159 214 266 312 384
#
# _framework density 20.138711000000001
#
# number of rings (size 3 to 8) (size 9 to 14) (size 15 to 20)
#    0.000    2.000    1.667    0.667    7.000    1.333 
#    5.000    0.000    0.000    0.000    0.000    0.000 
#    0.000    0.000    0.000    0.000    0.000    0.000 
#
# Total GULP energy -446049.603772 kJ/mol
# GULP energy per Si atom -12390.266771 kJ/mol
# Density = 2.009287 g / cm^3
# Si number density = 20.138711 Si / 1000 Ang^3
#
#
#
# Elastic Constant Matrix: (Units=GPa)
#
#
# Indices 1 2 3 4 5 6 
#
# 1 95.5195 42.5969 45.7370 0.9422 0.0002 0.0000
# 2 42.5969 95.5195 45.7370 -0.9422 -0.0002 0.0000
# 3 45.7370 45.7370 148.6706 0.0000 0.0000 0.0000
# 4 0.9422 -0.9422 0.0000 25.2420 0.0000 -0.0002
# 5 0.0002 -0.0002 0.0000 0.0000 25.2420 0.9422
# 6 0.0000 0.0000 0.0000 -0.0002 0.9422 26.4613
#
#
#
# Elastic Compliance Matrix: (Units=1/GPa)
#
#
# Indices 1 2 3 4 5 6 
#
# 1 0.014007 -0.004914 -0.002797 -0.000706 0.000000 0.000000
# 2 -0.004914 0.014007 -0.002797 0.000706 0.000000 0.000000
# 3 -0.002797 -0.002797 0.008447 0.000000 0.000000 0.000000
# 4 -0.000706 0.000706 0.000000 0.039669 0.000000 0.000000
# 5 0.000000 0.000000 0.000000 0.000000 0.039669 -0.001412
# 6 0.000000 0.000000 0.000000 0.000000 -0.001412 0.037841
#
#
# Mechanical properties :
#
#
# Convention : Reuss Voigt Hill
#
# Bulk Modulus (GPa) = 64.75041 67.53904 66.14472
# Shear Modulus (GPa) = 27.80775 29.09830 28.45303
#
# Velocity S-wave (km/s) = 3.71996 3.80530 3.76287
# Velocity P-wave (km/s) = 7.11848 7.27439 7.19686
#
# Compressibility (1/GPa) = 0.01544392
#
# Stress axis : x y z
#
# Youngs Moduli (GPa) = 71.39382 71.39382 118.37917
#
# Poissons Ratio (x) = 0.35082 0.33115
# Poissons Ratio (y) = 0.35082 0.33115
# Poissons Ratio (z) = 0.19971 0.19971
#
# Static dielectric constant tensor:
#      x y z
#    x 3.543180 0.000000 0.000000 
#    y 0.000000 3.543180 0.000000 
#    z 0.000000 0.000000 4.135620 
# 
# 
# High freq. dielectric constant tensor:
#      x y z
#    x 1.780360 0.000000 0.000000 
#    y 0.000000 1.780360 0.000000 
#    z 0.000000 0.000000 1.798440 
# 
# From -- ./inp_files/6995.got.cif
#   From: 2010.03.12/outbox.cif.g09.slc.cpg/sg155_4_cif.got.tgz:6995.got - 2010.04.03 13:54:13.
