data_PCOD8322054
_publ_section_title
;
Structure prediction by ZEFSAII (Michael W. Deem and Ramdas Pophale) SiO2 
 PCOD8322054
Probable space group: P 31 2 1
;
_chemical_formula_sum "Si O2"
_cell_formula_units_Z 42
_cell_length_a 9.538652
_cell_length_b 9.538652
_cell_length_c 26.982087
_cell_angle_alpha 90.000000
_cell_angle_beta 90.000000
_cell_angle_gamma 120.000000
_cell_volume 2126.082826
_symmetry_space_group_name_H-M "P 31 2 1"
_symmetry_group_IT_number 152
_symmetry_cell_setting 'hexagonal'
loop_
_space_group_symop_operation_xyz
x,y,z
-y,x-y,1/3+z
-x+y,-x,2/3+z
x-y,-y,2/3-z
-x,-x+y,1/3-z
y,x,-z
loop_
_atom_site_type_symbol
_atom_site_label
_atom_site_fract_x
_atom_site_fract_y
_atom_site_fract_z
Si Si1 0.230990 0.844623 0.863867
Si Si2 0.532996 0.127279 0.186995
Si Si3 0.579671 0.455910 0.225401
Si Si4 0.599993 0.161931 0.717529
Si Si5 0.332715 0.970110 0.280172
Si Si6 0.759797 0.008437 0.609563
Si Si7 0.461009 0.290407 0.640762
O O1 0.138700 0.703861 0.823716
O O2 0.340923 0.801416 0.898301
O O3 0.103394 0.865785 0.898228
O O4 0.344051 0.000000 0.833334
O O5 0.554037 0.305877 0.190279
O O6 0.416819 0.014961 0.142147
O O7 0.470026 0.034594 0.238760
O O8 0.432511 0.384289 0.264811
O O9 0.749933 0.542791 0.254885
O O10 0.782717 0.203344 0.726517
O O11 0.594422 0.278462 0.674882
O O12 0.495001 0.970444 0.703509
O O13 0.420646 0.000000 0.333334
O O14 0.232538 0.065777 0.279060
O O15 0.709845 0.910664 0.661889
#
# Coordination Sequence:
#
# PCOD8322054 Si02
#       7
#     6   6   6   6   6   6   6
#     4  10  21  38  59  86 125 164 207 266 311 379
#     4  10  21  37  57  89 119 161 205 253 320 365
#     4  10  19  36  60  83 123 159 206 256 311 372
#     4  11  22  35  66  92 124 159 223 255 317 376
#     4  11  20  38  61  85 119 168 200 259 308 392
#     4   9  20  37  60  84 122 162 204 254 321 366
#     4  11  19  38  60  97 117 167 204 266 307 378
#
# _framework density 19.754638
#
# number of rings (size 3 to 8) (size 9 to 14) (size 15 to 20)
#    0.000    1.714    2.857    2.571    0.000    0.000 
#    0.000    5.000    0.000    0.000    0.000    0.000 
#    0.000    0.000    0.000    0.000    0.000    0.000 
#
# Total GULP energy -520517.874611 kJ/mol
# GULP energy per Si atom -12393.282729 kJ/mol
# Density = 1.970968 g / cm^3
# Si number density = 19.754638 Si / 1000 Ang^3
#
#
#
# Elastic Constant Matrix: (Units=GPa)
#
#
# Indices 1 2 3 4 5 6 
#
# 1 94.8490 41.9694 55.5361 -1.2354 0.0004 0.0000
# 2 41.9694 94.8490 55.5361 1.2354 -0.0004 0.0000
# 3 55.5361 55.5361 123.5012 0.0000 0.0000 0.0000
# 4 -1.2354 1.2354 0.0000 31.6780 0.0000 -0.0004
# 5 0.0004 -0.0004 0.0000 0.0000 31.6780 -1.2354
# 6 0.0000 0.0000 0.0000 -0.0004 -1.2354 26.4398
#
#
#
# Elastic Compliance Matrix: (Units=1/GPa)
#
#
# Indices 1 2 3 4 5 6 
#
# 1 0.015228 -0.003717 -0.005176 0.000739 0.000000 0.000000
# 2 -0.003717 0.015228 -0.005176 -0.000739 0.000000 0.000000
# 3 -0.005176 -0.005176 0.012753 0.000000 0.000000 0.000000
# 4 0.000739 -0.000739 0.000000 0.031625 0.000000 0.000000
# 5 0.000000 0.000000 0.000000 0.000000 0.031625 0.001478
# 6 0.000000 0.000000 0.000000 0.000000 0.001478 0.037891
#
#
# Mechanical properties :
#
#
# Convention : Reuss Voigt Hill
#
# Bulk Modulus (GPa) = 66.35922 68.80914 67.58418
# Shear Modulus (GPa) = 28.16687 28.63632 28.40160
#
# Velocity S-wave (km/s) = 3.78012 3.81149 3.79584
# Velocity P-wave (km/s) = 7.26065 7.36732 7.31418
#
# Compressibility (1/GPa) = 0.01506950
#
# Stress axis : x y z
#
# Youngs Moduli (GPa) = 65.66707 65.66707 78.41576
#
# Poissons Ratio (x) = 0.24409 0.40591
# Poissons Ratio (y) = 0.24409 0.40591
# Poissons Ratio (z) = 0.33992 0.33992
#
# Static dielectric constant tensor:
#      x y z
#    x 3.512500 0.000000 0.000000 
#    y 0.000000 3.512500 0.000000 
#    z 0.000000 0.000000 3.925460 
# 
# 
# High freq. dielectric constant tensor:
#      x y z
#    x 1.750170 0.000000 0.000000 
#    y 0.000000 1.750170 0.000000 
#    z 0.000000 0.000000 1.788790 
# 
# From -- ./inp_files/3718.got.cif
#   From: 2010.03.12/outbox.cif.g09.slc.cpg/sg152_2_cif.got.tgz:3718.got - 2010.04.03 13:45:27.
