data_PCOD8322601
_publ_section_title
;
Structure prediction by ZEFSAII (Michael W. Deem and Ramdas Pophale) SiO2 
 PCOD8322601
Probable space group: R 3 2
;
_chemical_formula_sum "Si O2"
_cell_formula_units_Z 54
_cell_length_a 22.581065
_cell_length_b 22.581065
_cell_length_c 7.305930
_cell_angle_alpha 90.000000
_cell_angle_beta 90.000000
_cell_angle_gamma 120.000000
_cell_volume 3226.227437
_symmetry_space_group_name_H-M "R 3 2"
_symmetry_group_IT_number 155
_symmetry_cell_setting 'hexagonal'
loop_
_space_group_symop_operation_xyz
x,y,z
-y,x-y,z
-x+y,-x,z
x-y,-y,-z
-x,-x+y,-z
y,x,-z
2/3+x,1/3+y,1/3+z
2/3-y,1/3+x-y,1/3+z
2/3-x+y,1/3-x,1/3+z
2/3+x-y,1/3-y,1/3-z
2/3-x,1/3-x+y,1/3-z
2/3+y,1/3+x,1/3-z
1/3+x,2/3+y,2/3+z
1/3-y,2/3+x-y,2/3+z
1/3-x+y,2/3-x,2/3+z
1/3+x-y,2/3-y,2/3-z
1/3-x,2/3-x+y,2/3-z
1/3+y,2/3+x,2/3-z
loop_
_atom_site_type_symbol
_atom_site_label
_atom_site_fract_x
_atom_site_fract_y
_atom_site_fract_z
Si Si1 0.000000 0.557601 0.500000
Si Si2 0.945791 0.333334 0.333334
Si Si3 0.251494 0.224019 0.692911
Si Si4 0.129420 0.289649 0.160809
O O1 0.932021 0.564238 0.498906
O O2 0.004185 0.519654 0.319923
O O3 0.870902 0.277531 0.403644
O O4 0.000000 0.360758 0.500000
O O5 0.213491 0.213491 0.500000
O O6 0.333334 0.265663 0.666667
O O7 0.232330 0.149285 0.775067
O O8 0.129769 0.333334 0.333334
#
# Coordination Sequence:
#
# PCOD8322601 Si02
#       4
#     9   9  18  18
#     4  12  18  32  54  84 116 148 170 224 294 348
#     4  12  24  40  56  70 106 160 208 248 260 312
#     4  11  18  29  50  81 120 146 169 216 281 356
#     4  11  22  33  52  79 106 153 196 223 280 334
#
# _framework density 16.737815000000001
#
# number of rings (size 3 to 8) (size 9 to 14) (size 15 to 20)
#    0.000    0.667   11.667    1.000    0.000    0.000 
#    0.000    0.000    0.000    0.000    0.000    0.000 
#   13.333    0.000   12.000    0.000    0.000    0.000 
#
# Total GULP energy -223005.949101 kJ/mol
# GULP energy per Si atom -12389.219394 kJ/mol
# Density = 1.669972 g / cm^3
# Si number density = 16.737815 Si / 1000 Ang^3
#
#
#
# Elastic Constant Matrix: (Units=GPa)
#
#
# Indices 1 2 3 4 5 6 
#
# 1 92.8608 58.1233 44.5923 4.8328 0.0120 0.0045
# 2 58.1233 92.8431 44.6155 -4.8336 0.0062 0.0063
# 3 44.5923 44.6155 113.1358 -0.0073 0.0249 -0.0011
# 4 4.8328 -4.8336 -0.0073 30.3274 -0.0117 0.0055
# 5 0.0120 0.0062 0.0249 -0.0117 30.3544 4.8449
# 6 0.0045 0.0063 -0.0011 0.0055 4.8449 17.3571
#
#
#
# Elastic Compliance Matrix: (Units=1/GPa)
#
#
# Indices 1 2 3 4 5 6 
#
# 1 0.019379 -0.010748 -0.003400 -0.004802 -0.000005 0.000001
# 2 -0.010748 0.019388 -0.003409 0.004802 0.000006 -0.000008
# 3 -0.003400 -0.003409 0.011523 0.000001 -0.000008 0.000005
# 4 -0.004802 0.004802 0.000001 0.034504 0.000017 -0.000016
# 5 -0.000005 0.000006 -0.000008 0.000017 0.034480 -0.009624
# 6 0.000001 -0.000008 0.000005 -0.000016 -0.009624 0.060300
#
#
# Mechanical properties :
#
#
# Convention : Reuss Voigt Hill
#
# Bulk Modulus (GPa) = 65.89350 65.94465 65.91908
# Shear Modulus (GPa) = 22.75348 25.70835 24.23091
#
# Velocity S-wave (km/s) = 3.69101 3.92336 3.80896
# Velocity P-wave (km/s) = 7.59067 7.74647 7.66897
#
# Compressibility (1/GPa) = 0.01517600
#
# Stress axis : x y z
#
# Youngs Moduli (GPa) = 51.60287 51.57901 86.78041
#
# Poissons Ratio (x) = 0.55437 0.29504
# Poissons Ratio (y) = 0.55463 0.29583
# Poissons Ratio (z) = 0.17544 0.17583
#
# Static dielectric constant tensor:
#      x y z
#    x 3.096260 -0.000070 -0.000130 
#    y -0.000070 3.096330 -0.000080 
#    z -0.000130 -0.000080 3.687600 
# 
# 
# High freq. dielectric constant tensor:
#      x y z
#    x 1.606960 0.000000 -0.000010 
#    y 0.000000 1.606970 0.000000 
#    z -0.000010 0.000000 1.684010 
# 
# From -- ./inp_files/1899.got.cif
#   From: 2010.03.12/outbox.cif.g09.slc.cpg/sg155_1_cif.got.tgz:1899.got - 2010.04.03 13:54:13.
