data_PCOD8322566
_publ_section_title
;
Structure prediction by ZEFSAII (Michael W. Deem and Ramdas Pophale) SiO2 
 PCOD8322566
Probable space group: R 3 2
;
_chemical_formula_sum "Si O2"
_cell_formula_units_Z 93
_cell_length_a 13.946571
_cell_length_b 13.946571
_cell_length_c 26.683755
_cell_angle_alpha 90.000000
_cell_angle_beta 90.000000
_cell_angle_gamma 120.000000
_cell_volume 4494.821612
_symmetry_space_group_name_H-M "R 3 2"
_symmetry_group_IT_number 155
_symmetry_cell_setting 'hexagonal'
loop_
_space_group_symop_operation_xyz
x,y,z
-y,x-y,z
-x+y,-x,z
x-y,-y,-z
-x,-x+y,-z
y,x,-z
2/3+x,1/3+y,1/3+z
2/3-y,1/3+x-y,1/3+z
2/3-x+y,1/3-x,1/3+z
2/3+x-y,1/3-y,1/3-z
2/3-x,1/3-x+y,1/3-z
2/3+y,1/3+x,1/3-z
1/3+x,2/3+y,2/3+z
1/3-y,2/3+x-y,2/3+z
1/3-x+y,2/3-x,2/3+z
1/3+x-y,2/3-y,2/3-z
1/3-x,2/3-x+y,2/3-z
1/3+y,2/3+x,2/3-z
loop_
_atom_site_type_symbol
_atom_site_label
_atom_site_fract_x
_atom_site_fract_y
_atom_site_fract_z
Si Si1 0.000000 0.000000 0.128061
Si Si2 0.434925 0.274297 0.072285
Si Si3 0.370333 0.037943 0.111626
Si Si4 0.666667 0.080817 0.333334
Si Si5 0.666668 0.333334 0.582537
Si Si6 0.775650 0.868521 0.087951
Si Si7 0.777555 0.106507 0.815106
O O1 0.000000 0.000000 0.188279
O O2 0.992878 0.103648 0.104608
O O3 0.422851 0.156569 0.086112
O O4 0.566800 0.349389 0.063060
O O5 0.399541 0.328229 0.116280
O O6 0.366678 0.270942 0.023459
O O7 0.333334 0.050683 0.166667
O O8 0.453573 0.987738 0.116516
O O9 0.262407 0.953544 0.079167
O O10 0.728299 0.179823 0.372445
O O11 0.739599 0.912590 0.134965
O O12 0.666667 0.110116 0.833334
#
# Coordination Sequence:
#
# PCOD8322566 Si02
#       7
#     6  18  18   9   6  18  18
#     4  12  21  37  73 102 132 168 220 289 342 409
#     4  12  22  42  65  99 132 175 232 275 350 407
#     4  10  22  39  67 100 129 170 224 282 341 412
#     4  12  28  42  60  98 148 192 214 282 356 426
#     4  12  21  42  73 106 114 175 241 300 324 394
#     4  11  24  40  62 101 138 172 220 270 361 415
#     4  11  21  39  70  94 128 171 234 290 327 401
#
# _framework density 20.690477999999999
#
# number of rings (size 3 to 8) (size 9 to 14) (size 15 to 20)
#    0.000    0.774    5.806    2.903    0.000    3.097 
#    3.484    0.000    0.000   10.452    0.000    0.000 
#    0.000    0.000    0.000    0.000    0.000    0.000 
#
# Total GULP energy -384156.681215 kJ/mol
# GULP energy per Si atom -12392.151007 kJ/mol
# Density = 2.064339 g / cm^3
# Si number density = 20.690478 Si / 1000 Ang^3
#
#
#
# Elastic Constant Matrix: (Units=GPa)
#
#
# Indices 1 2 3 4 5 6 
#
# 1 113.4678 52.6682 30.1463 8.0798 0.0000 0.0000
# 2 52.6682 113.4683 30.1461 -8.0798 0.0000 0.0000
# 3 30.1463 30.1461 69.7788 -0.0002 0.0000 0.0000
# 4 8.0798 -8.0798 -0.0002 30.9629 0.0000 0.0000
# 5 0.0000 0.0000 0.0000 0.0000 30.9628 8.0800
# 6 0.0000 0.0000 0.0000 0.0000 8.0800 30.4001
#
#
#
# Elastic Compliance Matrix: (Units=1/GPa)
#
#
# Indices 1 2 3 4 5 6 
#
# 1 0.012406 -0.005267 -0.003084 -0.004612 0.000000 0.000000
# 2 -0.005267 0.012406 -0.003084 0.004612 0.000000 0.000000
# 3 -0.003084 -0.003084 0.016996 0.000000 0.000000 0.000000
# 4 -0.004612 0.004612 0.000000 0.034704 0.000000 0.000000
# 5 0.000000 0.000000 0.000000 0.000000 0.034704 -0.009224
# 6 0.000000 0.000000 0.000000 0.000000 -0.009224 0.035346
#
#
# Mechanical properties :
#
#
# Convention : Reuss Voigt Hill
#
# Bulk Modulus (GPa) = 52.80779 58.07067 55.43923
# Shear Modulus (GPa) = 28.45051 30.71544 29.58298
#
# Velocity S-wave (km/s) = 3.71219 3.85713 3.78535
# Velocity P-wave (km/s) = 6.62963 6.92560 6.77923
#
# Compressibility (1/GPa) = 0.01893660
#
# Stress axis : x y z
#
# Youngs Moduli (GPa) = 80.60749 80.60816 58.83842
#
# Poissons Ratio (x) = 0.42459 0.18146
# Poissons Ratio (y) = 0.42459 0.18145
# Poissons Ratio (z) = 0.24859 0.24859
#
# Static dielectric constant tensor:
#      x y z
#    x 3.986820 0.000000 0.000000 
#    y 0.000000 3.986810 0.000000 
#    z 0.000000 0.000000 3.579310 
# 
# 
# High freq. dielectric constant tensor:
#      x y z
#    x 1.811520 0.000000 0.000000 
#    y 0.000000 1.811520 0.000000 
#    z 0.000000 0.000000 1.785350 
# 
# From -- ./inp_files/7923.got.cif
#   From: 2010.03.12/outbox.cif.g09.slc.cpg/sg155_4_cif.got.tgz:7923.got - 2010.04.03 13:54:13.
