data_PCOD8322975
_publ_section_title
;
Structure prediction by ZEFSAII (Michael W. Deem and Ramdas Pophale) SiO2 
 PCOD8322975
Probable space group: P -3 1 M 
;
_chemical_formula_sum "Si O2"
_cell_formula_units_Z 96
_cell_length_a 17.710967
_cell_length_b 17.710967
_cell_length_c 20.508364
_cell_angle_alpha 90.000000
_cell_angle_beta 90.000000
_cell_angle_gamma 120.000000
_cell_volume 5571.167250
_symmetry_space_group_name_H-M "P -3 1 M "
_symmetry_group_IT_number 162
_symmetry_cell_setting 'hexagonal'
loop_
_space_group_symop_operation_xyz
x,y,z
-y,x-y,z
-x+y,-x,z
-y,-x,-z
-x+y,y,-z
x,x-y,-z
-x,-y,-z
y,-x+y,-z
x-y,x,-z
y,x,z
x-y,-y,z
-x,-x+y,z
loop_
_atom_site_type_symbol
_atom_site_label
_atom_site_fract_x
_atom_site_fract_y
_atom_site_fract_z
Si Si1 0.267666 0.366146 0.750511
Si Si2 0.900657 0.268863 0.744021
Si Si3 0.532710 0.635006 0.372347
Si Si4 0.269499 0.898156 0.495713
Si Si5 0.505282 0.838992 0.140496
Si Si6 0.672045 0.507029 0.136025
Si Si7 0.541169 0.903542 0.001149
Si Si8 0.634351 0.101510 0.376209
O O1 0.286770 0.286770 0.739041
O O2 0.163258 0.327756 0.751328
O O3 0.312025 0.439539 0.694860
O O4 0.310168 0.411958 0.818786
O O5 0.899415 0.320169 0.808277
O O6 0.862551 0.297706 0.683394
O O7 0.000000 0.290044 0.732642
O O8 0.574515 0.574515 0.380233
O O9 0.567294 0.701863 0.432323
O O10 0.427347 0.572659 0.375344
O O11 0.164041 0.835960 0.500000
O O12 0.315577 0.879989 0.555914
O O13 0.294935 0.000000 0.492576
O O14 0.472003 0.737572 0.154658
O O15 0.426544 0.858086 0.147437
O O16 0.546709 0.860184 0.068279
O O17 0.691632 0.540429 0.061461
O O18 0.624397 0.000000 0.996580
O O19 0.454058 0.908115 0.000000
O O20 0.573580 0.000000 0.363588
#
# Coordination Sequence:
#
# PCOD8322975 Si02
#       8
#    12  12  12  12  12  12  12  12
#     4  10  20  33  50  71  94 122 156 194 234 277
#     4  10  20  33  50  71  94 122 156 194 234 277
#     4   9  17  30  49  71  93 119 152 188 227 274
#     4  10  19  31  49  72  97 127 164 204 243 283
#     4  10  19  30  45  66  93 124 157 193 232 274
#     4  10  19  30  45  66  93 124 157 193 232 274
#     4   9  17  28  42  60  84 119 161 197 227 264
#     4   9  17  30  49  71  93 119 152 188 227 274
#
# _framework density 17.231577000000001
#
# number of rings (size 3 to 8) (size 9 to 14) (size 15 to 20)
#    0.000    2.375    0.000    3.250    0.000    4.000 
#    0.000    1.250    0.000    8.875    0.000    0.000 
#    0.000    6.000    0.000    0.000    0.000   26.500 
#
# Total GULP energy -1190055.087018 kJ/mol
# GULP energy per Si atom -12396.407156 kJ/mol
# Density = 1.719236 g / cm^3
# Si number density = 17.231577 Si / 1000 Ang^3
#
#
#
# Elastic Constant Matrix: (Units=GPa)
#
#
# Indices 1 2 3 4 5 6 
#
# 1 73.6053 39.9238 15.5100 -0.0001 0.6096 0.0000
# 2 39.9238 73.6053 15.5100 0.0001 -0.6096 0.0000
# 3 15.5100 15.5100 101.0055 0.0000 0.0000 0.0000
# 4 -0.0001 0.0001 0.0000 17.9723 0.0000 -0.6096
# 5 0.6096 -0.6096 0.0000 0.0000 17.9723 -0.0001
# 6 0.0000 0.0000 0.0000 -0.6096 -0.0001 16.8407
#
#
#
# Elastic Compliance Matrix: (Units=1/GPa)
#
#
# Indices 1 2 3 4 5 6 
#
# 1 0.019460 -0.010266 -0.001412 0.000000 -0.001008 0.000000
# 2 -0.010266 0.019460 -0.001412 0.000000 0.001008 0.000000
# 3 -0.001412 -0.001412 0.010334 0.000000 0.000000 0.000000
# 4 0.000000 0.000000 0.000000 0.055710 0.000000 0.002017
# 5 -0.001008 0.001008 0.000000 0.000000 0.055710 0.000000
# 6 0.000000 0.000000 0.000000 0.002017 0.000000 0.059453
#
#
# Mechanical properties :
#
#
# Convention : Reuss Voigt Hill
#
# Bulk Modulus (GPa) = 43.33702 43.34484 43.34093
# Shear Modulus (GPa) = 19.68522 22.37522 21.03022
#
# Velocity S-wave (km/s) = 3.38360 3.60738 3.49728
# Velocity P-wave (km/s) = 6.36155 6.52379 6.44318
#
# Compressibility (1/GPa) = 0.02307496
#
# Stress axis : x y z
#
# Youngs Moduli (GPa) = 51.38684 51.38684 96.76768
#
# Poissons Ratio (x) = 0.52755 0.13662
# Poissons Ratio (y) = 0.52755 0.13662
# Poissons Ratio (z) = 0.07255 0.07255
#
# Static dielectric constant tensor:
#      x y z
#    x 3.020090 0.000000 0.000000 
#    y 0.000000 3.020090 0.000000 
#    z 0.000000 0.000000 3.468930 
# 
# 
# High freq. dielectric constant tensor:
#      x y z
#    x 1.638560 0.000000 0.000000 
#    y 0.000000 1.638560 0.000000 
#    z 0.000000 0.000000 1.687950 
# 
# From -- ./inp_files/3878.got.cif
#   From: 2010.03.12/outbox.cif.g09.slc.cpg/sg162_2_cif.got.tgz:3878.got - 2010.04.02 06:27:41.
