data_PCOD8322983
_publ_section_title
;
Structure prediction by ZEFSAII (Michael W. Deem and Ramdas Pophale) SiO2 
 PCOD8322983
Probable space group: P -3 1 M 
;
_chemical_formula_sum "Si O2"
_cell_formula_units_Z 84
_cell_length_a 20.029733
_cell_length_b 20.029733
_cell_length_c 12.388984
_cell_angle_alpha 90.000000
_cell_angle_beta 90.000000
_cell_angle_gamma 120.000000
_cell_volume 4304.439856
_symmetry_space_group_name_H-M "P -3 1 M "
_symmetry_group_IT_number 162
_symmetry_cell_setting 'hexagonal'
loop_
_space_group_symop_operation_xyz
x,y,z
-y,x-y,z
-x+y,-x,z
-y,-x,-z
-x+y,y,-z
x,x-y,-z
-x,-y,-z
y,-x+y,-z
x-y,x,-z
y,x,z
x-y,-y,z
-x,-x+y,z
loop_
_atom_site_type_symbol
_atom_site_label
_atom_site_fract_x
_atom_site_fract_y
_atom_site_fract_z
Si Si1 0.912731 0.722526 0.087112
Si Si2 0.915954 0.738675 0.324240
Si Si3 0.653885 0.089612 0.798902
Si Si4 0.679572 0.595149 0.603867
Si Si5 0.447983 0.293796 0.031229
Si Si6 0.092725 0.505549 0.782796
Si Si7 0.908218 0.656721 0.610824
O O1 0.906697 0.758104 0.201155
O O2 0.865432 0.630184 0.092600
O O3 0.000000 0.749659 0.055135
O O4 0.877733 0.755466 0.000000
O O5 0.921138 0.661254 0.317692
O O6 0.840040 0.720509 0.392820
O O7 0.000000 0.806932 0.371181
O O8 0.595497 0.120290 0.769771
O O9 0.727353 0.124385 0.717615
O O10 0.609992 0.000000 0.776802
O O11 0.678563 0.105051 0.922132
O O12 0.610087 0.610087 0.572256
O O13 0.641158 0.516842 0.675261
O O14 0.724064 0.598351 0.492457
O O15 0.499650 0.365297 0.108983
O O16 0.491254 0.245627 0.000000
O O17 0.000000 0.450997 0.796235
O O18 0.000000 0.705667 0.601988
#
# Coordination Sequence:
#
# PCOD8322983 Si02
#       7
#    12  12  12  12  12  12  12
#     4  10  19  30  48  73 103 139 182 231 283 343
#     4  10  19  33  52  78 109 146 187 227 283 341
#     4  10  21  33  51  80 110 140 178 227 285 337
#     4   9  18  32  52  76 105 140 177 219 275 331
#     4  11  20  31  50  75 105 140 183 227 275 330
#     4  10  19  34  54  77 106 142 181 223 276 342
#     4  10  20  34  52  81 115 143 181 235 284 335
#
# _framework density 19.514734000000001
#
# number of rings (size 3 to 8) (size 9 to 14) (size 15 to 20)
#    0.000    2.000    1.429    3.857    0.000    3.429 
#    0.000    2.857    0.000    2.714    0.000    0.000 
#    0.000    3.429    0.000    0.000    0.000    0.000 
#
# Total GULP energy -1040662.533699 kJ/mol
# GULP energy per Si atom -12388.839687 kJ/mol
# Density = 1.947032 g / cm^3
# Si number density = 19.514734 Si / 1000 Ang^3
#
#
#
# Elastic Constant Matrix: (Units=GPa)
#
#
# Indices 1 2 3 4 5 6 
#
# 1 68.9570 19.7755 29.5522 0.0001 1.4524 0.0000
# 2 19.7755 68.9570 29.5522 -0.0001 -1.4524 0.0000
# 3 29.5522 29.5522 126.1800 0.0000 0.0000 0.0000
# 4 0.0001 -0.0001 0.0000 19.2403 0.0000 -1.4524
# 5 1.4524 -1.4524 0.0000 0.0000 19.2403 0.0001
# 6 0.0000 0.0000 0.0000 -1.4524 0.0001 24.5907
#
#
#
# Elastic Compliance Matrix: (Units=1/GPa)
#
#
# Indices 1 2 3 4 5 6 
#
# 1 0.016888 -0.003535 -0.003127 0.000000 -0.001542 0.000000
# 2 -0.003535 0.016888 -0.003127 0.000000 0.001542 0.000000
# 3 -0.003127 -0.003127 0.009390 0.000000 0.000000 0.000000
# 4 0.000000 0.000000 0.000000 0.052207 0.000000 0.003083
# 5 -0.001542 0.001542 0.000000 0.000000 0.052207 0.000000
# 6 0.000000 0.000000 0.000000 0.003083 0.000000 0.040848
#
#
# Mechanical properties :
#
#
# Convention : Reuss Voigt Hill
#
# Bulk Modulus (GPa) = 42.39699 46.87262 44.63481
# Shear Modulus (GPa) = 23.16198 24.96190 24.06194
#
# Velocity S-wave (km/s) = 3.44887 3.58037 3.51524
# Velocity P-wave (km/s) = 6.13453 6.41587 6.27677
#
# Compressibility (1/GPa) = 0.02358658
#
# Stress axis : x y z
#
# Youngs Moduli (GPa) = 59.21216 59.21216 106.49542
#
# Poissons Ratio (x) = 0.20934 0.33305
# Poissons Ratio (y) = 0.20934 0.33305
# Poissons Ratio (z) = 0.18518 0.18518
#
# Static dielectric constant tensor:
#      x y z
#    x 3.483120 0.000000 0.000000 
#    y 0.000000 3.483120 0.000000 
#    z 0.000000 0.000000 3.736170 
# 
# 
# High freq. dielectric constant tensor:
#      x y z
#    x 1.728250 0.000000 0.000000 
#    y 0.000000 1.728250 0.000000 
#    z 0.000000 0.000000 1.777290 
# 
# From -- ./inp_files/2492.got.cif
#   From: 2010.03.12/outbox.cif.g09.slc.cpg/sg162_2_cif.got.tgz:2492.got - 2010.04.02 06:27:41.
