data_PCOD8322029
_publ_section_title
;
Structure prediction by ZEFSAII (Michael W. Deem and Ramdas Pophale) SiO2 
 PCOD8322029
Probable space group: P 31 2 1
;
_chemical_formula_sum "Si O2"
_cell_formula_units_Z 36
_cell_length_a 11.397133
_cell_length_b 11.397133
_cell_length_c 18.389716
_cell_angle_alpha 90.000000
_cell_angle_beta 90.000000
_cell_angle_gamma 120.000000
_cell_volume 2068.697010
_symmetry_space_group_name_H-M "P 31 2 1"
_symmetry_group_IT_number 152
_symmetry_cell_setting 'hexagonal'
loop_
_space_group_symop_operation_xyz
x,y,z
-y,x-y,1/3+z
-x+y,-x,2/3+z
x-y,-y,2/3-z
-x,-x+y,1/3-z
y,x,-z
loop_
_atom_site_type_symbol
_atom_site_label
_atom_site_fract_x
_atom_site_fract_y
_atom_site_fract_z
Si Si1 0.086816 0.582589 0.372176
Si Si2 0.624105 0.300778 0.909479
Si Si3 0.141979 0.719961 0.865295
Si Si4 0.212070 0.343089 0.044616
Si Si5 0.760568 0.680046 0.336636
Si Si6 0.316462 0.372876 0.421864
O O1 0.242948 0.678248 0.396023
O O2 0.049159 0.427962 0.367077
O O3 0.063306 0.634921 0.294997
O O4 0.990691 0.587242 0.433936
O O5 0.574458 0.328093 0.831450
O O6 0.501718 0.257634 0.967660
O O7 0.648946 0.175361 0.902899
O O8 0.095626 0.778007 0.797367
O O9 0.223568 0.839015 0.922401
O O10 0.059281 0.242790 0.018338
O O11 0.314517 0.314517 0.000000
O O12 0.885145 0.715453 0.282428
O O13 0.308965 0.308965 0.500000
#
# Coordination Sequence:
#
# PCOD8322029 Si02
#       6
#     6   6   6   6   6   6
#     4  10  18  34  55  84 111 143 181 237 278 334
#     4   9  20  33  55  84 111 146 184 233 288 323
#     4   9  20  34  55  82 110 144 186 223 283 331
#     4  10  21  38  56  80 113 150 187 232 271 335
#     4  10  19  35  56  80 110 151 189 222 273 339
#     4  10  19  34  56  84 114 146 190 234 281 329
#
# _framework density 17.402256999999999
#
# number of rings (size 3 to 8) (size 9 to 14) (size 15 to 20)
#    1.000    1.333    1.667    1.500    0.000    1.333 
#    6.000    1.667    0.000    6.000    0.000    0.000 
#    0.000    0.000    0.000    0.000    0.000    0.000 
#
# Total GULP energy -446194.311262 kJ/mol
# GULP energy per Si atom -12394.286424 kJ/mol
# Density = 1.736265 g / cm^3
# Si number density = 17.402257 Si / 1000 Ang^3
#
#
#
# Elastic Constant Matrix: (Units=GPa)
#
#
# Indices 1 2 3 4 5 6 
#
# 1 82.6012 39.9585 44.8999 8.4678 0.0000 0.0000
# 2 39.9585 82.6012 44.8999 -8.4678 0.0000 0.0000
# 3 44.8999 44.8999 112.8547 0.0000 0.0000 0.0000
# 4 8.4678 -8.4678 0.0000 28.4829 0.0000 0.0000
# 5 0.0000 0.0000 0.0000 0.0000 28.4829 8.4678
# 6 0.0000 0.0000 0.0000 0.0000 8.4678 21.3213
#
#
#
# Elastic Compliance Matrix: (Units=1/GPa)
#
#
# Indices 1 2 3 4 5 6 
#
# 1 0.019053 -0.007537 -0.004582 -0.007905 0.000000 0.000000
# 2 -0.007537 0.019053 -0.004582 0.007905 0.000000 0.000000
# 3 -0.004582 -0.004582 0.012507 0.000000 0.000000 0.000000
# 4 -0.007905 0.007905 0.000000 0.039809 0.000000 0.000000
# 5 0.000000 0.000000 0.000000 0.000000 0.039809 -0.015810
# 6 0.000000 0.000000 0.000000 0.000000 -0.015810 0.053181
#
#
# Mechanical properties :
#
#
# Convention : Reuss Voigt Hill
#
# Bulk Modulus (GPa) = 58.09845 59.73040 58.91443
# Shear Modulus (GPa) = 22.46676 25.54402 24.00539
#
# Velocity S-wave (km/s) = 3.59698 3.83542 3.71811
# Velocity P-wave (km/s) = 7.12103 7.34927 7.23605
#
# Compressibility (1/GPa) = 0.01721216
#
# Stress axis : x y z
#
# Youngs Moduli (GPa) = 52.48422 52.48422 79.95653
#
# Poissons Ratio (x) = 0.39557 0.36635
# Poissons Ratio (y) = 0.39557 0.36635
# Poissons Ratio (z) = 0.24048 0.24048
#
# Static dielectric constant tensor:
#      x y z
#    x 3.116380 0.000000 0.000000 
#    y 0.000000 3.116380 0.000000 
#    z 0.000000 0.000000 3.270840 
# 
# 
# High freq. dielectric constant tensor:
#      x y z
#    x 1.659300 0.000000 0.000000 
#    y 0.000000 1.659300 0.000000 
#    z 0.000000 0.000000 1.675550 
# 
# From -- ./inp_files/2397.got.cif
#   From: 2010.03.12/outbox.cif.g09.slc.cpg/sg152_2_cif.got.tgz:2397.got - 2010.04.03 13:45:27.
