data_PCOD8322446
_publ_section_title
;
Structure prediction by ZEFSAII (Michael W. Deem and Ramdas Pophale) SiO2 
 PCOD8322446
Probable space group: P 32 2 1
;
_chemical_formula_sum "Si O2"
_cell_formula_units_Z 39
_cell_length_a 13.507101
_cell_length_b 13.507101
_cell_length_c 11.975896
_cell_angle_alpha 90.000000
_cell_angle_beta 90.000000
_cell_angle_gamma 120.000000
_cell_volume 1892.182154
_symmetry_space_group_name_H-M "P 32 2 1"
_symmetry_group_IT_number 154
_symmetry_cell_setting 'hexagonal'
loop_
_space_group_symop_operation_xyz
x,y,z
-y,x-y,2/3+z
-x+y,-x,1/3+z
x-y,-y,1/3-z
-x,-x+y,2/3-z
y,x,-z
loop_
_atom_site_type_symbol
_atom_site_label
_atom_site_fract_x
_atom_site_fract_y
_atom_site_fract_z
Si Si1 0.269864 0.741653 0.060732
Si Si2 0.614205 0.730162 0.959732
Si Si3 0.410950 0.921297 0.405076
Si Si4 0.285113 0.285113 0.000000
Si Si5 0.682170 0.440447 0.851768
Si Si6 0.890451 0.226299 0.769703
Si Si7 0.440357 0.341921 0.795836
O O1 0.195097 0.606145 0.058340
O O2 0.392917 0.764731 0.106861
O O3 0.216284 0.797960 0.139517
O O4 0.276729 0.783475 0.933385
O O5 0.567244 0.645820 0.854912
O O6 0.636867 0.858595 0.937072
O O7 0.729532 0.729532 0.000000
O O8 0.524181 0.676174 0.059335
O O9 0.338764 0.933767 0.305198
O O10 0.541635 0.026229 0.391886
O O11 0.275019 0.163017 0.026886
O O12 0.346758 0.366836 0.103348
O O13 0.551364 0.336180 0.837969
O O14 0.000000 0.236344 0.833334
#
# Coordination Sequence:
#
# PCOD8322446 Si02
#       7
#     6   6   6   3   6   6   6
#     4  12  22  38  64  96 141 182 227 282 354 420
#     4  12  25  39  64  98 144 191 231 279 352 431
#     4  12  23  41  67 103 143 182 230 292 358 427
#     4  12  24  46  74  96 134 184 242 284 352 436
#     4  12  22  36  59  98 146 185 221 274 341 421
#     4  12  27  44  71 102 137 184 241 300 362 425
#     4  12  23  39  68 101 135 184 233 281 340 430
#
# _framework density 20.611124
#
# number of rings (size 3 to 8) (size 9 to 14) (size 15 to 20)
#    0.000    0.000    9.231    1.846    0.000    0.000 
#    0.000    0.000    1.692    0.000    0.000    0.000 
#    0.000    0.000    0.000    0.000    0.000    0.000 
#
# Total GULP energy -483502.022131 kJ/mol
# GULP energy per Si atom -12397.487747 kJ/mol
# Density = 2.056421 g / cm^3
# Si number density = 20.611124 Si / 1000 Ang^3
#
#
#
# Elastic Constant Matrix: (Units=GPa)
#
#
# Indices 1 2 3 4 5 6 
#
# 1 95.0966 19.7506 24.0548 -3.0015 0.0000 0.0000
# 2 19.7506 95.0966 24.0548 3.0015 0.0000 0.0000
# 3 24.0548 24.0548 103.8599 0.0000 0.0000 0.0000
# 4 -3.0015 3.0015 0.0000 26.8547 0.0000 0.0000
# 5 0.0000 0.0000 0.0000 0.0000 26.8547 -3.0015
# 6 0.0000 0.0000 0.0000 0.0000 -3.0015 37.6730
#
#
#
# Elastic Compliance Matrix: (Units=1/GPa)
#
#
# Indices 1 2 3 4 5 6 
#
# 1 0.011517 -0.001874 -0.002233 0.001497 0.000000 0.000000
# 2 -0.001874 0.011517 -0.002233 -0.001497 0.000000 0.000000
# 3 -0.002233 -0.002233 0.010663 0.000000 0.000000 0.000000
# 4 0.001497 -0.001497 0.000000 0.037572 0.000000 0.000000
# 5 0.000000 0.000000 0.000000 0.000000 0.037572 0.002993
# 6 0.000000 0.000000 0.000000 0.000000 0.002993 0.026783
#
#
# Mechanical properties :
#
#
# Convention : Reuss Voigt Hill
#
# Bulk Modulus (GPa) = 47.58493 47.75258 47.66876
# Shear Modulus (GPa) = 32.19354 33.35602 32.77478
#
# Velocity S-wave (km/s) = 3.95644 4.02724 3.99199
# Velocity P-wave (km/s) = 6.63388 6.69653 6.66528
#
# Compressibility (1/GPa) = 0.02101505
#
# Stress axis : x y z
#
# Youngs Moduli (GPa) = 86.82767 86.82767 93.78330
#
# Poissons Ratio (x) = 0.16274 0.20945
# Poissons Ratio (y) = 0.16274 0.20945
# Poissons Ratio (z) = 0.19392 0.19392
#
# Static dielectric constant tensor:
#      x y z
#    x 3.664500 0.000000 0.000000 
#    y 0.000000 3.664500 0.000000 
#    z 0.000000 0.000000 3.905340 
# 
# 
# High freq. dielectric constant tensor:
#      x y z
#    x 1.788470 0.000000 0.000000 
#    y 0.000000 1.788470 0.000000 
#    z 0.000000 0.000000 1.818950 
# 
# From -- ./inp_files/1678.got.cif
#   From: 2010.03.12/outbox.cif.g09.slc.cpg/sg154_1_cif.got.tgz:1678.got - 2010.04.03 13:51:21.
