data_PCOD8322391
_publ_section_title
;
Structure prediction by ZEFSAII (Michael W. Deem and Ramdas Pophale) SiO2 
 PCOD8322391
Probable space group: P 32 2 1
;
_chemical_formula_sum "Si O2"
_cell_formula_units_Z 45
_cell_length_a 11.880116
_cell_length_b 11.880116
_cell_length_c 17.997766
_cell_angle_alpha 90.000000
_cell_angle_beta 90.000000
_cell_angle_gamma 120.000000
_cell_volume 2199.837470
_symmetry_space_group_name_H-M "P 32 2 1"
_symmetry_group_IT_number 154
_symmetry_cell_setting 'hexagonal'
loop_
_space_group_symop_operation_xyz
x,y,z
-y,x-y,2/3+z
-x+y,-x,1/3+z
x-y,-y,1/3-z
-x,-x+y,2/3-z
y,x,-z
loop_
_atom_site_type_symbol
_atom_site_label
_atom_site_fract_x
_atom_site_fract_y
_atom_site_fract_z
Si Si1 0.507324 0.545611 0.223570
Si Si2 0.749590 0.000000 0.166667
Si Si3 0.735993 0.110732 0.932730
Si Si4 0.786643 0.239512 0.784528
Si Si5 0.974336 0.549210 0.255613
Si Si6 0.086859 0.142659 0.637121
Si Si7 0.708430 0.209954 0.085012
Si Si8 0.125022 0.347558 0.039330
O O1 0.388893 0.398421 0.235731
O O2 0.492025 0.569863 0.135596
O O3 0.483478 0.650253 0.264358
O O4 0.645355 0.561715 0.248369
O O5 0.816271 0.972548 0.096228
O O6 0.735380 0.123899 0.144278
O O7 0.821491 0.219902 0.869478
O O8 0.831021 0.061791 0.960930
O O9 0.681745 0.156251 0.001711
O O10 0.778320 0.369068 0.783997
O O11 0.880059 0.244885 0.717091
O O12 0.647500 0.116488 0.774142
O O13 0.884247 0.615179 0.267160
O O14 0.000000 0.500036 0.333334
O O15 0.979211 0.177984 0.608201
O O16 0.016690 0.000000 0.666667
#
# Coordination Sequence:
#
# PCOD8322391 Si02
#       8
#     6   3   6   6   6   6   6   6
#     4  11  22  40  67  89 133 176 211 286 336 414
#     4  10  24  42  58  92 128 170 218 270 350 412
#     4  10  23  42  60 105 128 168 236 269 344 419
#     4  10  22  39  70  97 128 173 222 282 326 411
#     4   9  22  39  62  99 125 166 231 270 331 407
#     4  11  24  44  68  92 135 176 224 291 351 418
#     4  11  23  42  63  90 135 177 212 274 346 405
#     4  11  21  42  66  96 132 172 224 286 346 398
#
# _framework density 20.456057999999999
#
# number of rings (size 3 to 8) (size 9 to 14) (size 15 to 20)
#    0.000    1.600    4.000    1.200    3.733    6.933 
#    0.000    0.667    0.000    0.000    0.000    0.000 
#    0.000    0.000    0.000    0.000    0.000    0.000 
#
# Total GULP energy -557475.929352 kJ/mol
# GULP energy per Si atom -12388.353986 kJ/mol
# Density = 2.040950 g / cm^3
# Si number density = 20.456058 Si / 1000 Ang^3
#
#
#
# Elastic Constant Matrix: (Units=GPa)
#
#
# Indices 1 2 3 4 5 6 
#
# 1 92.3584 37.4544 42.3986 5.2869 -0.0001 0.0000
# 2 37.4544 92.3584 42.3986 -5.2869 0.0001 0.0000
# 3 42.3986 42.3986 139.0402 0.0000 0.0000 0.0000
# 4 5.2869 -5.2869 0.0000 28.9191 0.0000 0.0001
# 5 -0.0001 0.0001 0.0000 0.0000 28.9191 5.2869
# 6 0.0000 0.0000 0.0000 0.0001 5.2869 27.4520
#
#
#
# Elastic Compliance Matrix: (Units=1/GPa)
#
#
# Indices 1 2 3 4 5 6 
#
# 1 0.014249 -0.004629 -0.002933 -0.003451 0.000000 0.000000
# 2 -0.004629 0.014249 -0.002933 0.003451 0.000000 0.000000
# 3 -0.002933 -0.002933 0.008981 0.000000 0.000000 0.000000
# 4 -0.003451 0.003451 0.000000 0.035841 0.000000 0.000000
# 5 0.000000 0.000000 0.000000 0.000000 0.035841 -0.006903
# 6 0.000000 0.000000 0.000000 0.000000 -0.006903 0.037757
#
#
# Mechanical properties :
#
#
# Convention : Reuss Voigt Hill
#
# Bulk Modulus (GPa) = 60.65460 63.14004 61.89732
# Shear Modulus (GPa) = 28.83414 30.49175 29.66294
#
# Velocity S-wave (km/s) = 3.75849 3.86501 3.81212
# Velocity P-wave (km/s) = 6.96782 7.13099 7.04988
#
# Compressibility (1/GPa) = 0.01648680
#
# Stress axis : x y z
#
# Youngs Moduli (GPa) = 70.18077 70.18077 111.34432
#
# Poissons Ratio (x) = 0.32489 0.32661
# Poissons Ratio (y) = 0.32489 0.32661
# Poissons Ratio (z) = 0.20587 0.20587
#
# Static dielectric constant tensor:
#      x y z
#    x 3.607600 0.000000 0.000000 
#    y 0.000000 3.607600 0.000000 
#    z 0.000000 0.000000 4.562170 
# 
# 
# High freq. dielectric constant tensor:
#      x y z
#    x 1.791410 0.000000 0.000000 
#    y 0.000000 1.791410 0.000000 
#    z 0.000000 0.000000 1.819780 
# 
# From -- ./inp_files/2509.got.cif
#   From: 2010.03.12/outbox.cif.g09.slc.cpg/sg154_2_cif.got.tgz:2509.got - 2010.04.03 13:51:21.
