data_PCOD8322649
_publ_section_title
;
Structure prediction by ZEFSAII (Michael W. Deem and Ramdas Pophale) SiO2 
 PCOD8322649
Probable space group: P 3 M 1
;
_chemical_formula_sum "Si O2"
_cell_formula_units_Z 36
_cell_length_a 18.025549
_cell_length_b 18.025549
_cell_length_c 7.533206
_cell_angle_alpha 90.000000
_cell_angle_beta 90.000000
_cell_angle_gamma 120.000000
_cell_volume 2119.763828
_symmetry_space_group_name_H-M "P 3 M 1"
_symmetry_group_IT_number 156
_symmetry_cell_setting 'hexagonal'
loop_
_space_group_symop_operation_xyz
x,y,z
-y,x-y,z
-x+y,-x,z
-x+y,y,z
x,x-y,z
-y,-x,z
loop_
_atom_site_type_symbol
_atom_site_label
_atom_site_fract_x
_atom_site_fract_y
_atom_site_fract_z
Si Si1 0.099704 0.466457 0.990900
Si Si2 0.735634 0.638340 0.316290
Si Si3 0.097293 0.735634 0.316291
Si Si4 0.633248 0.099704 0.990896
Si Si5 0.668396 0.165239 0.609275
Si Si6 0.331605 0.834762 0.609277
O O1 0.125323 0.562662 0.049746
O O2 0.149561 0.468361 0.813776
O O3 1.000000 0.412012 0.947275
O O4 0.125641 0.423841 0.146675
O O5 0.837907 0.675814 0.331890
O O6 0.716955 0.716955 0.299138
O O7 0.686053 0.583657 0.488768
O O8 0.701801 0.576159 0.146673
O O9 0.162093 0.837908 0.331889
O O10 0.102396 0.686055 0.488771
O O11 0.562662 0.125324 0.049738
O O12 0.681203 0.149561 0.813773
O O13 0.572961 0.145921 0.570519
O O14 0.736392 0.263609 0.562386
O O15 0.427040 0.854080 0.570516
O O16 0.263609 0.736392 0.562391
#
# Coordination Sequence:
#
# PCOD8322649 Si02
#       6
#     6   6   6   6   6   6
#     4   9  17  29  46  68  93 122 155 187 219 258
#     4  10  20  33  49  68  90 117 151 191 233 276
#     4  10  20  33  49  68  90 117 151 191 233 276
#     4   9  17  29  46  68  93 122 155 187 219 258
#     4  10  19  30  45  67  96 128 159 189 220 256
#     4  10  19  30  45  67  96 128 159 189 220 256
#
# _framework density 16.983025000000001
#
# number of rings (size 3 to 8) (size 9 to 14) (size 15 to 20)
#    0.000    2.333    0.000    3.333    0.000    3.333 
#    0.000    0.000    0.000   11.000    0.000    0.000 
#    0.000    0.000    0.000   10.667    0.000    0.000 
#
# Total GULP energy -446415.780183 kJ/mol
# GULP energy per Si atom -12400.438338 kJ/mol
# Density = 1.694437 g / cm^3
# Si number density = 16.983025 Si / 1000 Ang^3
#
#
#
# Elastic Constant Matrix: (Units=GPa)
#
#
# Indices 1 2 3 4 5 6 
#
# 1 78.4453 48.0563 36.0431 0.0001 0.0000 0.0000
# 2 48.0563 78.4453 36.0431 -0.0001 0.0000 0.0000
# 3 36.0431 36.0431 71.4043 0.0000 0.0000 0.0000
# 4 0.0001 -0.0001 0.0000 22.4253 0.0000 0.0000
# 5 0.0000 0.0000 0.0000 0.0000 22.4253 0.0001
# 6 0.0000 0.0000 0.0000 0.0000 0.0001 15.1945
#
#
#
# Elastic Compliance Matrix: (Units=1/GPa)
#
#
# Indices 1 2 3 4 5 6 
#
# 1 0.022002 -0.010905 -0.005601 0.000000 0.000000 0.000000
# 2 -0.010905 0.022002 -0.005601 0.000000 0.000000 0.000000
# 3 -0.005601 -0.005601 0.019660 0.000000 0.000000 0.000000
# 4 0.000000 0.000000 0.000000 0.044593 0.000000 0.000000
# 5 0.000000 0.000000 0.000000 0.000000 0.044593 0.000000
# 6 0.000000 0.000000 0.000000 0.000000 0.000000 0.065813
#
#
# Mechanical properties :
#
#
# Convention : Reuss Voigt Hill
#
# Bulk Modulus (GPa) = 51.41969 52.06443 51.74206
# Shear Modulus (GPa) = 18.56251 19.21917 18.89084
#
# Velocity S-wave (km/s) = 3.30965 3.36768 3.33879
# Velocity P-wave (km/s) = 6.70432 6.77089 6.73769
#
# Compressibility (1/GPa) = 0.01944780
#
# Stress axis : x y z
#
# Youngs Moduli (GPa) = 45.45074 45.45074 50.86536
#
# Poissons Ratio (x) = 0.49563 0.28492
# Poissons Ratio (y) = 0.49563 0.28492
# Poissons Ratio (z) = 0.25459 0.25459
#
# Static dielectric constant tensor:
#      x y z
#    x 2.996290 0.000000 0.000000 
#    y 0.000000 2.996290 0.000000 
#    z 0.000000 0.000000 3.278870 
# 
# 
# High freq. dielectric constant tensor:
#      x y z
#    x 1.636220 0.000000 0.000000 
#    y 0.000000 1.636220 0.000000 
#    z 0.000000 0.000000 1.669110 
# 
# From -- ./inp_files/166.got.cif
#   From: 2010.03.12/outbox.cif.g09.slc.cpg/sg156_cif.got.tgz:166.got - 2010.04.03 13:58:47.
