data_PCOD8322666
_publ_section_title
;
Structure prediction by ZEFSAII (Michael W. Deem and Ramdas Pophale) SiO2 
 PCOD8322666
Probable space group: P 3 M 1
;
_chemical_formula_sum "Si O2"
_cell_formula_units_Z 30
_cell_length_a 12.684522
_cell_length_b 12.684522
_cell_length_c 13.039544
_cell_angle_alpha 90.000000
_cell_angle_beta 90.000000
_cell_angle_gamma 120.000000
_cell_volume 1816.942769
_symmetry_space_group_name_H-M "P 3 M 1"
_symmetry_group_IT_number 156
_symmetry_cell_setting 'hexagonal'
loop_
_space_group_symop_operation_xyz
x,y,z
-y,x-y,z
-x+y,-x,z
-x+y,y,z
x,x-y,z
-y,-x,z
loop_
_atom_site_type_symbol
_atom_site_label
_atom_site_fract_x
_atom_site_fract_y
_atom_site_fract_z
Si Si1 0.914197 0.578915 0.143580
Si Si2 0.663806 0.085140 0.699136
Si Si3 0.086794 0.667812 0.516537
Si Si4 0.664723 0.094283 0.921439
Si Si5 0.000648 0.753983 0.326714
O O1 0.775281 0.550561 0.142018
O O2 0.913170 0.456585 0.177601
O O3 0.996038 0.685727 0.221727
O O4 0.976240 0.624108 0.029608
O O5 0.560720 0.121439 0.677560
O O6 0.794146 0.205855 0.688465
O O7 0.643066 0.022363 0.813326
O O8 0.653222 0.985931 0.617778
O O9 0.089771 0.544886 0.502703
O O10 0.223469 0.776532 0.526800
O O11 0.019513 0.682849 0.419062
O O12 0.574938 0.149876 0.925348
O O13 0.800934 0.199067 0.915428
O O14 0.108454 0.891547 0.317749
O O15 0.877256 0.754512 0.347544
#
# Coordination Sequence:
#
# PCOD8322666 Si02
#       5
#     6   6   6   6   6
#     4   9  16  27  45  69  94 117 142 175 216 259
#     4   9  16  27  45  69  94 117 142 175 216 259
#     4  10  20  33  48  65  86 114 147 182 219 259
#     4   8  13  22  39  64  92 118 142 170 208 254
#     4  10  20  33  48  65  86 114 147 182 219 259
#
# _framework density 16.511251000000001
#
# number of rings (size 3 to 8) (size 9 to 14) (size 15 to 20)
#    0.000    2.800    0.000    2.200    0.000    3.200 
#    0.000    1.000    0.000    7.200    0.000    0.000 
#    0.000    0.000    0.000    0.000    0.000    0.000 
#
# Total GULP energy -371666.649379 kJ/mol
# GULP energy per Si atom -12388.888313 kJ/mol
# Density = 1.647367 g / cm^3
# Si number density = 16.511251 Si / 1000 Ang^3
#
#
#
# Elastic Constant Matrix: (Units=GPa)
#
#
# Indices 1 2 3 4 5 6 
#
# 1 68.8147 40.5803 57.7261 -1.8823 -0.0001 0.0000
# 2 40.5803 68.8147 57.7261 1.8823 0.0001 0.0000
# 3 57.7261 57.7261 153.5009 0.0000 0.0000 0.0000
# 4 -1.8823 1.8823 0.0000 20.7696 0.0000 0.0001
# 5 -0.0001 0.0001 0.0000 0.0000 20.7696 -1.8823
# 6 0.0000 0.0000 0.0000 0.0001 -1.8823 14.1172
#
#
#
# Elastic Compliance Matrix: (Units=1/GPa)
#
#
# Indices 1 2 3 4 5 6 
#
# 1 0.025504 -0.010347 -0.005700 0.003249 0.000000 0.000000
# 2 -0.010347 0.025504 -0.005700 -0.003249 0.000000 0.000000
# 3 -0.005700 -0.005700 0.010802 0.000000 0.000000 0.000000
# 4 0.003249 -0.003249 0.000000 0.048736 0.000000 0.000000
# 5 0.000000 0.000000 0.000000 0.000000 0.048736 0.006498
# 6 0.000000 0.000000 0.000000 0.000000 0.006498 0.071702
#
#
# Mechanical properties :
#
#
# Convention : Reuss Voigt Hill
#
# Bulk Modulus (GPa) = 54.59861 67.02172 60.81017
# Shear Modulus (GPa) = 17.82007 20.13780 18.97894
#
# Velocity S-wave (km/s) = 3.28879 3.49612 3.39404
# Velocity P-wave (km/s) = 6.89643 7.54830 7.22972
#
# Compressibility (1/GPa) = 0.01831548
#
# Stress axis : x y z
#
# Youngs Moduli (GPa) = 39.20985 39.20985 92.57842
#
# Poissons Ratio (x) = 0.40571 0.52769
# Poissons Ratio (y) = 0.40571 0.52769
# Poissons Ratio (z) = 0.22349 0.22349
#
# Static dielectric constant tensor:
#      x y z
#    x 2.873620 0.000000 0.000000 
#    y 0.000000 2.873620 0.000000 
#    z 0.000000 0.000000 3.665890 
# 
# 
# High freq. dielectric constant tensor:
#      x y z
#    x 1.612130 0.000000 0.000000 
#    y 0.000000 1.612130 0.000000 
#    z 0.000000 0.000000 1.662890 
# 
# From -- ./inp_files/769.got.cif
#   From: 2010.03.12/outbox.cif.g09.slc.cpg/sg156_cif.got.tgz:769.got - 2010.04.03 13:58:47.
