data_PCOD8322268
_publ_section_title
;
Structure prediction by ZEFSAII (Michael W. Deem and Ramdas Pophale) SiO2 
 PCOD8322268
Probable space group: P 32 1 2
;
_chemical_formula_sum "Si O2"
_cell_formula_units_Z 33
_cell_length_a 7.277686
_cell_length_b 7.277686
_cell_length_c 28.669776
_cell_angle_alpha 90.000000
_cell_angle_beta 90.000000
_cell_angle_gamma 120.000000
_cell_volume 1315.047860
_symmetry_space_group_name_H-M "P 32 1 2"
_symmetry_group_IT_number 153
_symmetry_cell_setting 'hexagonal'
loop_
_space_group_symop_operation_xyz
x,y,z
-y,x-y,2/3+z
-x+y,-x,1/3+z
-y,-x,1/3-z
-x+y,y,2/3-z
x,x-y,-z
loop_
_atom_site_type_symbol
_atom_site_label
_atom_site_fract_x
_atom_site_fract_y
_atom_site_fract_z
Si Si1 0.150141 0.849860 0.166667
Si Si2 0.122296 0.396191 0.073731
Si Si3 0.993549 0.412346 0.670186
Si Si4 0.612848 0.645629 0.841157
Si Si5 0.194823 0.258848 0.393612
Si Si6 0.746504 0.971187 0.400130
O O1 0.042334 0.607376 0.182233
O O2 0.034946 0.864099 0.119851
O O3 0.171307 0.398304 0.128969
O O4 0.944272 0.168560 0.056770
O O5 0.027968 0.554368 0.064984
O O6 0.337865 0.462733 0.045268
O O7 0.050549 0.275031 0.704595
O O8 0.073851 0.640736 0.692228
O O9 0.735916 0.264085 0.666667
O O10 0.788631 0.577262 0.833334
O O11 0.652461 0.781202 0.887484
O O12 0.234936 0.184228 0.288157
#
# Coordination Sequence:
#
# PCOD8322268 Si02
#       6
#     3   6   6   6   6   6
#     4  10  20  42  78 108 152 192 254 316 376 456
#     4  10  24  48  71 109 158 192 260 320 377 461
#     4  12  25  48  73 113 159 201 254 321 390 463
#     4   9  20  42  76 107 147 198 248 316 377 454
#     4  11  24  48  77 110 151 205 255 309 396 454
#     4  11  24  46  75 106 147 206 252 313 383 456
#
# _framework density 25.094142000000002
#
# number of rings (size 3 to 8) (size 9 to 14) (size 15 to 20)
#    0.000    1.455    3.636    0.545    3.818    1.455 
#   13.091    0.000    8.000    0.000    0.000    0.000 
#    0.000    0.000    0.000    0.000    0.000    0.000 
#
# Total GULP energy -409051.690422 kJ/mol
# GULP energy per Si atom -12395.505770 kJ/mol
# Density = 2.503703 g / cm^3
# Si number density = 25.094142 Si / 1000 Ang^3
#
#
#
# Elastic Constant Matrix: (Units=GPa)
#
#
# Indices 1 2 3 4 5 6 
#
# 1 103.9918 28.9421 60.5757 -0.0001 11.1553 0.0000
# 2 28.9421 103.9918 60.5757 0.0001 -11.1553 0.0000
# 3 60.5757 60.5757 150.9601 0.0000 0.0000 0.0000
# 4 -0.0001 0.0001 0.0000 32.4403 0.0000 -11.1553
# 5 11.1553 -11.1553 0.0000 0.0000 32.4403 -0.0001
# 6 0.0000 0.0000 0.0000 -11.1553 -0.0001 37.5248
#
#
#
# Elastic Compliance Matrix: (Units=1/GPa)
#
#
# Indices 1 2 3 4 5 6 
#
# 1 0.013351 -0.001491 -0.004759 0.000000 -0.005104 0.000000
# 2 -0.001491 0.013351 -0.004759 0.000000 0.005104 0.000000
# 3 -0.004759 -0.004759 0.010443 0.000000 0.000000 0.000000
# 4 0.000000 0.000000 0.000000 0.034336 0.000000 0.010207
# 5 -0.005104 0.005104 0.000000 0.000000 0.034336 0.000000
# 6 0.000000 0.000000 0.000000 0.010207 0.000000 0.029683
#
#
# Mechanical properties :
#
#
# Convention : Reuss Voigt Hill
#
# Bulk Modulus (GPa) = 66.10644 73.23673 69.67159
# Shear Modulus (GPa) = 30.75785 34.40443 32.58114
#
# Velocity S-wave (km/s) = 3.50480 3.70674 3.60718
# Velocity P-wave (km/s) = 6.54054 6.89696 6.72111
#
# Compressibility (1/GPa) = 0.01512712
#
# Stress axis : x y z
#
# Youngs Moduli (GPa) = 74.90252 74.90252 95.75346
#
# Poissons Ratio (x) = 0.11168 0.45568
# Poissons Ratio (y) = 0.11168 0.45568
# Poissons Ratio (z) = 0.35645 0.35645
#
# Static dielectric constant tensor:
#      x y z
#    x 4.566210 0.000000 0.000000 
#    y 0.000000 4.566210 0.000000 
#    z 0.000000 0.000000 5.240090 
# 
# 
# High freq. dielectric constant tensor:
#      x y z
#    x 1.995100 0.000000 0.000000 
#    y 0.000000 1.995100 0.000000 
#    z 0.000000 0.000000 2.030310 
# 
# From -- ./inp_files/4749.got.cif
#   From: 2010.03.12/outbox.cif.g09.slc.cpg/sg153_3_cif.got.tgz:4749.got - 2010.04.03 13:48:33.
