data_PCOD8322625
_publ_section_title
;
Structure prediction by ZEFSAII (Michael W. Deem and Ramdas Pophale) SiO2 
 PCOD8322625
Probable space group: R 3 2
;
_chemical_formula_sum "Si O2"
_cell_formula_units_Z 75
_cell_length_a 14.031094
_cell_length_b 14.031094
_cell_length_c 20.201910
_cell_angle_alpha 90.000000
_cell_angle_beta 90.000000
_cell_angle_gamma 120.000000
_cell_volume 3444.340926
_symmetry_space_group_name_H-M "R 3 2"
_symmetry_group_IT_number 155
_symmetry_cell_setting 'hexagonal'
loop_
_space_group_symop_operation_xyz
x,y,z
-y,x-y,z
-x+y,-x,z
x-y,-y,-z
-x,-x+y,-z
y,x,-z
2/3+x,1/3+y,1/3+z
2/3-y,1/3+x-y,1/3+z
2/3-x+y,1/3-x,1/3+z
2/3+x-y,1/3-y,1/3-z
2/3-x,1/3-x+y,1/3-z
2/3+y,1/3+x,1/3-z
1/3+x,2/3+y,2/3+z
1/3-y,2/3+x-y,2/3+z
1/3-x+y,2/3-x,2/3+z
1/3+x-y,2/3-y,2/3-z
1/3-x,2/3-x+y,2/3-z
1/3+y,2/3+x,2/3-z
loop_
_atom_site_type_symbol
_atom_site_label
_atom_site_fract_x
_atom_site_fract_y
_atom_site_fract_z
Si Si1 0.903171 0.386742 0.219525
Si Si2 0.862911 0.666667 0.666667
Si Si3 0.666667 0.333334 0.756712
Si Si4 0.431168 0.247668 0.954680
Si Si5 0.333334 0.666667 0.590146
Si Si6 0.079386 0.439072 0.406077
O O1 0.792119 0.387044 0.234728
O O2 0.877845 0.324308 0.149358
O O3 0.004055 0.510473 0.232697
O O4 0.939746 0.320909 0.269207
O O5 0.892043 0.591864 0.713160
O O6 0.758244 0.591341 0.622301
O O7 0.666668 0.333334 0.833334
O O8 0.624438 0.414737 0.733327
O O9 0.415354 0.206029 0.031472
O O10 0.333334 0.666668 0.666667
#
# Coordination Sequence:
#
# PCOD8322625 Si02
#       6
#    18   9   6  18   6  18
#     4  11  27  44  73  99 145 183 242 282 359 421
#     4  12  26  42  78 100 140 182 236 294 364 420
#     4  12  27  43  74 106 138 180 235 293 358 429
#     4  12  25  46  72 101 144 183 231 295 359 421
#     4  12  27  46  71 103 138 195 238 299 346 429
#     4  11  24  49  68 103 143 186 226 303 350 419
#
# _framework density 21.774847999999999
#
# number of rings (size 3 to 8) (size 9 to 14) (size 15 to 20)
#    0.000    0.480    4.800    1.440   15.120    0.000 
#    0.000    0.000    0.000    0.000    0.000    0.000 
#    0.000    0.000    0.000    0.000    0.000    0.000 
#
# Total GULP energy -309706.012419 kJ/mol
# GULP energy per Si atom -12388.240497 kJ/mol
# Density = 2.172529 g / cm^3
# Si number density = 21.774848 Si / 1000 Ang^3
#
#
#
# Elastic Constant Matrix: (Units=GPa)
#
#
# Indices 1 2 3 4 5 6 
#
# 1 101.4072 36.7105 5.8227 2.8724 -0.0008 0.0000
# 2 36.7105 101.4067 5.8221 -2.8729 0.0009 0.0001
# 3 5.8227 5.8221 77.9041 -0.0001 0.0001 0.0000
# 4 2.8724 -2.8729 -0.0001 34.6666 0.0000 0.0007
# 5 -0.0008 0.0009 0.0001 0.0000 34.6670 2.8727
# 6 0.0000 0.0001 0.0000 0.0007 2.8727 32.3484
#
#
#
# Elastic Compliance Matrix: (Units=1/GPa)
#
#
# Indices 1 2 3 4 5 6 
#
# 1 0.011429 -0.004143 -0.000545 -0.001290 0.000000 0.000000
# 2 -0.004143 0.011429 -0.000544 0.001290 0.000000 0.000000
# 3 -0.000545 -0.000544 0.012918 0.000000 0.000000 0.000000
# 4 -0.001290 0.001290 0.000000 0.029060 0.000000 -0.000001
# 5 0.000000 0.000000 0.000000 0.000000 0.029060 -0.002581
# 6 0.000000 0.000000 0.000000 -0.000001 -0.002581 0.031143
#
#
# Mechanical properties :
#
#
# Convention : Reuss Voigt Hill
#
# Bulk Modulus (GPa) = 39.50735 41.93651 40.72193
# Shear Modulus (GPa) = 34.73708 35.82722 35.28215
#
# Velocity S-wave (km/s) = 3.99843 4.06069 4.02968
# Velocity P-wave (km/s) = 6.28487 6.42546 6.35556
#
# Compressibility (1/GPa) = 0.02531174
#
# Stress axis : x y z
#
# Youngs Moduli (GPa) = 87.49883 87.49833 77.41323
#
# Poissons Ratio (x) = 0.36247 0.04216
# Poissons Ratio (y) = 0.36248 0.04215
# Poissons Ratio (z) = 0.04765 0.04764
#
# Static dielectric constant tensor:
#      x y z
#    x 3.868100 0.000000 0.000000 
#    y 0.000000 3.868110 0.000020 
#    z 0.000000 0.000020 4.023140 
# 
# 
# High freq. dielectric constant tensor:
#      x y z
#    x 1.862580 0.000000 0.000000 
#    y 0.000000 1.862590 0.000000 
#    z 0.000000 0.000000 1.858480 
# 
# From -- ./inp_files/6848.got.cif
#   From: 2010.03.12/outbox.cif.g09.slc.cpg/sg155_4_cif.got.tgz:6848.got - 2010.04.03 13:54:13.
