data_PCOD8322319
_publ_section_title
;
Structure prediction by ZEFSAII (Michael W. Deem and Ramdas Pophale) SiO2 
 PCOD8322319
Probable space group: P 32 2 1
;
_chemical_formula_sum "Si O2"
_cell_formula_units_Z 42
_cell_length_a 8.112750
_cell_length_b 8.112750
_cell_length_c 33.566760
_cell_angle_alpha 90.000000
_cell_angle_beta 90.000000
_cell_angle_gamma 120.000000
_cell_volume 1913.269910
_symmetry_space_group_name_H-M "P 32 2 1"
_symmetry_group_IT_number 154
_symmetry_cell_setting 'hexagonal'
loop_
_space_group_symop_operation_xyz
x,y,z
-y,x-y,2/3+z
-x+y,-x,1/3+z
x-y,-y,1/3-z
-x,-x+y,2/3-z
y,x,-z
loop_
_atom_site_type_symbol
_atom_site_label
_atom_site_fract_x
_atom_site_fract_y
_atom_site_fract_z
Si Si1 0.358731 0.225714 0.036223
Si Si2 0.101499 0.599426 0.082311
Si Si3 0.308422 0.405272 0.110952
Si Si4 0.461621 0.896570 0.043892
Si Si5 0.223901 0.445914 0.299154
Si Si6 0.184059 0.196262 0.810783
Si Si7 0.218820 0.910696 0.757479
O O1 0.275205 0.240078 0.079148
O O2 0.396302 0.050282 0.038110
O O3 0.560899 0.405079 0.027712
O O4 0.219708 0.219708 0.000000
O O5 0.136963 0.447321 0.104504
O O6 0.123367 0.768198 0.110904
O O7 0.886548 0.488033 0.065366
O O8 0.264251 0.696828 0.048292
O O9 0.285616 0.351100 0.156992
O O10 0.519086 0.580107 0.105223
O O11 0.605364 0.920879 0.080940
O O12 0.583266 0.889258 0.006886
O O13 0.041006 0.254187 0.282335
O O14 0.000000 0.167902 0.833334
O O15 0.142741 0.993126 0.792224
#
# Coordination Sequence:
#
# PCOD8322319 Si02
#       7
#     6   6   6   6   6   6   6
#     4  11  22  37  59  88 119 155 196 241 296 355
#     4  10  22  38  60  87 115 154 197 243 297 349
#     4  10  20  39  60  81 115 156 200 243 294 354
#     4  11  20  37  58  85 118 150 194 247 297 346
#     4  10  19  36  60  83 115 153 192 236 293 359
#     4  11  22  38  57  84 118 151 195 248 296 350
#     4   9  21  37  57  82 111 155 197 236 293 361
#
# _framework density 21.951947000000001
#
# number of rings (size 3 to 8) (size 9 to 14) (size 15 to 20)
#    0.000    1.714    0.000    6.429    0.000    1.143 
#    0.000   15.000    0.000    0.000    0.000    0.000 
#    0.000    0.000    0.000    0.000    0.000    0.000 
#
# Total GULP energy -520339.299237 kJ/mol
# GULP energy per Si atom -12389.030934 kJ/mol
# Density = 2.190198 g / cm^3
# Si number density = 21.951947 Si / 1000 Ang^3
#
#
#
# Elastic Constant Matrix: (Units=GPa)
#
#
# Indices 1 2 3 4 5 6 
#
# 1 82.2618 20.0874 33.1874 -3.1753 0.0001 0.0000
# 2 20.0874 82.2618 33.1874 3.1753 -0.0001 0.0000
# 3 33.1874 33.1874 97.6612 0.0000 0.0000 0.0000
# 4 -3.1753 3.1753 0.0000 30.5049 0.0000 -0.0001
# 5 0.0001 -0.0001 0.0000 0.0000 30.5049 -3.1753
# 6 0.0000 0.0000 0.0000 -0.0001 -3.1753 31.0872
#
#
#
# Elastic Compliance Matrix: (Units=1/GPa)
#
#
# Indices 1 2 3 4 5 6 
#
# 1 0.014394 -0.001862 -0.004259 0.001692 0.000000 0.000000
# 2 -0.001862 0.014394 -0.004259 -0.001692 0.000000 0.000000
# 3 -0.004259 -0.004259 0.013134 0.000000 0.000000 0.000000
# 4 0.001692 -0.001692 0.000000 0.033134 0.000000 0.000000
# 5 0.000000 0.000000 0.000000 0.000000 0.033134 0.003384
# 6 0.000000 0.000000 0.000000 0.000000 0.003384 0.032513
#
#
# Mechanical properties :
#
#
# Convention : Reuss Voigt Hill
#
# Bulk Modulus (GPa) = 47.25104 48.34545 47.79825
# Shear Modulus (GPa) = 29.67047 30.13425 29.90236
#
# Velocity S-wave (km/s) = 3.68041 3.70907 3.69477
# Velocity P-wave (km/s) = 6.29540 6.35720 6.32638
#
# Compressibility (1/GPa) = 0.02116356
#
# Stress axis : x y z
#
# Youngs Moduli (GPa) = 69.47110 69.47110 76.13874
#
# Poissons Ratio (x) = 0.12936 0.32426
# Poissons Ratio (y) = 0.12936 0.32426
# Poissons Ratio (z) = 0.29586 0.29586
#
# Static dielectric constant tensor:
#      x y z
#    x 3.974100 0.000000 0.000000 
#    y 0.000000 3.974100 0.000000 
#    z 0.000000 0.000000 4.208050 
# 
# 
# High freq. dielectric constant tensor:
#      x y z
#    x 1.854190 0.000000 0.000000 
#    y 0.000000 1.854190 0.000000 
#    z 0.000000 0.000000 1.868350 
# 
# From -- ./inp_files/3783.got.cif
#   From: 2010.03.12/outbox.cif.g09.slc.cpg/sg154_2_cif.got.tgz:3783.got - 2010.04.03 13:51:21.
