data_PCOD8322545
_publ_section_title
;
Structure prediction by ZEFSAII (Michael W. Deem and Ramdas Pophale) SiO2 
 PCOD8322545
Probable space group: R 3 2
;
_chemical_formula_sum "Si O2"
_cell_formula_units_Z 123
_cell_length_a 17.620275
_cell_length_b 17.620275
_cell_length_c 22.091135
_cell_angle_alpha 90.000000
_cell_angle_beta 90.000000
_cell_angle_gamma 120.000000
_cell_volume 5939.830139
_symmetry_space_group_name_H-M "R 3 2"
_symmetry_group_IT_number 155
_symmetry_cell_setting 'hexagonal'
loop_
_space_group_symop_operation_xyz
x,y,z
-y,x-y,z
-x+y,-x,z
x-y,-y,-z
-x,-x+y,-z
y,x,-z
2/3+x,1/3+y,1/3+z
2/3-y,1/3+x-y,1/3+z
2/3-x+y,1/3-x,1/3+z
2/3+x-y,1/3-y,1/3-z
2/3-x,1/3-x+y,1/3-z
2/3+y,1/3+x,1/3-z
1/3+x,2/3+y,2/3+z
1/3-y,2/3+x-y,2/3+z
1/3-x+y,2/3-x,2/3+z
1/3+x-y,2/3-y,2/3-z
1/3-x,2/3-x+y,2/3-z
1/3+y,2/3+x,2/3-z
loop_
_atom_site_type_symbol
_atom_site_label
_atom_site_fract_x
_atom_site_fract_y
_atom_site_fract_z
Si Si1 0.437021 0.503819 0.675951
Si Si2 0.288693 0.417954 0.465250
Si Si3 0.912276 0.391938 0.205377
Si Si4 0.931338 0.777097 0.547858
Si Si5 0.666667 0.577774 0.833334
Si Si6 0.666667 0.333334 0.261086
Si Si7 0.109911 0.194505 0.886946
Si Si8 0.563109 0.897254 0.333450
O O1 0.333334 0.456349 0.666667
O O2 0.468967 0.572990 0.730740
O O3 0.470357 0.549964 0.611629
O O4 0.468915 0.433828 0.686585
O O5 0.205678 0.426437 0.482561
O O6 0.247904 0.313120 0.461935
O O7 0.365573 0.465321 0.516265
O O8 0.328433 0.467478 0.401457
O O9 0.835117 0.296903 0.184969
O O10 0.006339 0.397650 0.210309
O O11 0.838825 0.773027 0.540272
O O12 0.963001 0.809698 0.616697
O O13 0.000000 0.846702 0.500000
O O14 0.666668 0.333334 0.333334
O O15 0.742596 0.426540 0.236509
O O16 0.666667 0.942949 0.333334
#
# Coordination Sequence:
#
# PCOD8322545 Si02
#       8
#    18  18  18  18   9   6  18  18
#     4  11  20  36  60  95 126 161 221 275 307 377
#     4  10  21  36  59  91 128 165 214 267 315 389
#     4  11  22  40  57  92 136 176 212 265 337 395
#     4  10  21  43  70  90 115 160 215 275 332 390
#     4  10  24  42  66  90 128 164 208 280 350 394
#     4  12  21  36  57  87 132 189 220 257 295 378
#     4  12  22  35  60  92 131 177 220 253 313 384
#     4   9  20  35  60  90 115 152 210 266 325 375
#
# _framework density 20.707661999999999
#
# number of rings (size 3 to 8) (size 9 to 14) (size 15 to 20)
#    0.000    1.463    2.927    3.512    4.098    1.171 
#    0.439   10.244    0.000    0.000    0.000    0.000 
#    0.000    0.000    0.000    0.000    0.000    0.000 
#
# Total GULP energy -508056.130697 kJ/mol
# GULP energy per Si atom -12391.612944 kJ/mol
# Density = 2.066053 g / cm^3
# Si number density = 20.707662 Si / 1000 Ang^3
#
#
#
# Elastic Constant Matrix: (Units=GPa)
#
#
# Indices 1 2 3 4 5 6 
#
# 1 77.7205 21.7056 24.1057 -3.2032 0.0000 0.0000
# 2 21.7056 77.7209 24.1058 3.2031 0.0000 0.0000
# 3 24.1057 24.1058 103.6518 0.0000 0.0000 0.0000
# 4 -3.2032 3.2031 0.0000 21.6005 0.0000 0.0000
# 5 0.0000 0.0000 0.0000 0.0000 21.6006 -3.2032
# 6 0.0000 0.0000 0.0000 0.0000 -3.2032 28.0071
#
#
#
# Elastic Compliance Matrix: (Units=1/GPa)
#
#
# Indices 1 2 3 4 5 6 
#
# 1 0.014748 -0.003412 -0.002636 0.002693 0.000000 0.000000
# 2 -0.003412 0.014748 -0.002636 -0.002693 0.000000 0.000000
# 3 -0.002636 -0.002636 0.010874 0.000000 0.000000 0.000000
# 4 0.002693 -0.002693 0.000000 0.047094 0.000000 0.000000
# 5 0.000000 0.000000 0.000000 0.000000 0.047094 0.005386
# 6 0.000000 0.000000 0.000000 0.000000 0.005386 0.036321
#
#
# Mechanical properties :
#
#
# Convention : Reuss Voigt Hill
#
# Bulk Modulus (GPa) = 43.47713 44.32526 43.90119
# Shear Modulus (GPa) = 25.52114 26.85336 26.18725
#
# Velocity S-wave (km/s) = 3.51443 3.60500 3.56000
# Velocity P-wave (km/s) = 6.12451 6.22734 6.17614
#
# Compressibility (1/GPa) = 0.02300060
#
# Stress axis : x y z
#
# Youngs Moduli (GPa) = 67.80472 67.80505 91.96301
#
# Poissons Ratio (x) = 0.23136 0.24245
# Poissons Ratio (y) = 0.23136 0.24245
# Poissons Ratio (z) = 0.17876 0.17876
#
# Static dielectric constant tensor:
#      x y z
#    x 3.660850 0.000000 0.000000 
#    y 0.000000 3.660840 0.000000 
#    z 0.000000 0.000000 4.273670 
# 
# 
# High freq. dielectric constant tensor:
#      x y z
#    x 1.796460 0.000000 0.000000 
#    y 0.000000 1.796460 0.000000 
#    z 0.000000 0.000000 1.807170 
# 
# From -- ./inp_files/7567.got.cif
#   From: 2010.03.12/outbox.cif.g09.slc.cpg/sg155_4_cif.got.tgz:7567.got - 2010.04.03 13:54:13.
