data_PCOD8322821
_publ_section_title
;
Structure prediction by ZEFSAII (Michael W. Deem and Ramdas Pophale) SiO2 
 PCOD8322821
Probable space group: P 3 1 C
;
_chemical_formula_sum "Si O2"
_cell_formula_units_Z 42
_cell_length_a 8.433890
_cell_length_b 8.433890
_cell_length_c 32.173481
_cell_angle_alpha 90.000000
_cell_angle_beta 90.000000
_cell_angle_gamma 120.000000
_cell_volume 1981.912826
_symmetry_space_group_name_H-M "P 3 1 C"
_symmetry_group_IT_number 159
_symmetry_cell_setting 'hexagonal'
loop_
_space_group_symop_operation_xyz
x,y,z
-y,x-y,z
-x+y,-x,z
y,x,1/2+z
x-y,-y,1/2+z
-x,-x+y,1/2+z
loop_
_atom_site_type_symbol
_atom_site_label
_atom_site_fract_x
_atom_site_fract_y
_atom_site_fract_z
Si Si1 0.010097 0.669941 0.710270
Si Si2 0.666134 0.537650 0.932915
Si Si3 0.675783 0.664942 0.676086
Si Si4 0.024474 0.216081 0.086100
Si Si5 0.662829 0.990613 0.807705
Si Si6 0.009685 0.339793 0.341967
Si Si7 0.672689 0.540782 0.507640
O O1 0.043836 0.676238 0.759016
O O2 0.865053 0.735142 0.700714
O O3 0.929883 0.468492 0.690879
O O4 0.201695 0.800864 0.688062
O O5 0.486371 0.332511 0.935102
O O6 0.678477 0.646305 0.891319
O O7 0.659469 0.663858 0.969536
O O8 0.709879 0.669455 0.627063
O O9 0.033108 0.345211 0.048700
O O10 0.189658 0.168021 0.084801
O O11 0.599194 0.799478 0.830863
O O12 0.539326 0.072814 0.823859
O O13 0.870888 0.134439 0.819776
O O14 0.489435 0.338533 0.506410
#
# Coordination Sequence:
#
# PCOD8322821 Si02
#       7
#     6   6   6   6   6   6   6
#     4  12  24  42  67  99 138 182 234 291 348 412
#     4  10  23  46  70  95 137 176 221 268 349 408
#     4  12  25  45  68 100 137 185 233 288 353 415
#     4  10  23  46  70  95 135 179 220 275 346 408
#     4  12  24  42  67  99 138 182 234 291 348 407
#     4  12  25  45  68 100 137 185 233 288 348 417
#     4  10  26  40  72 104 134 167 227 283 338 417
#
# _framework density 21.191647
#
# number of rings (size 3 to 8) (size 9 to 14) (size 15 to 20)
#    0.857    0.000    2.857    4.286    6.000    0.000 
#    0.000    0.000    0.000    0.000    0.000    0.000 
#    0.000    0.000    0.000    0.000    0.000    0.000 
#
# Total GULP energy -520827.732708 kJ/mol
# GULP energy per Si atom -12400.660303 kJ/mol
# Density = 2.114341 g / cm^3
# Si number density = 21.191647 Si / 1000 Ang^3
#
#
#
# Elastic Constant Matrix: (Units=GPa)
#
#
# Indices 1 2 3 4 5 6 
#
# 1 78.2905 29.6121 55.0312 0.0000 -0.0713 0.0000
# 2 29.6121 78.2905 55.0312 0.0000 0.0713 0.0000
# 3 55.0312 55.0312 190.1516 0.0000 0.0000 0.0000
# 4 0.0000 0.0000 0.0000 30.7708 0.0000 0.0713
# 5 -0.0713 0.0713 0.0000 0.0000 30.7708 0.0000
# 6 0.0000 0.0000 0.0000 0.0713 0.0000 24.3392
#
#
#
# Elastic Compliance Matrix: (Units=1/GPa)
#
#
# Indices 1 2 3 4 5 6 
#
# 1 0.016846 -0.003697 -0.003805 0.000000 0.000048 0.000000
# 2 -0.003697 0.016846 -0.003805 0.000000 -0.000048 0.000000
# 3 -0.003805 -0.003805 0.007462 0.000000 0.000000 0.000000
# 4 0.000000 0.000000 0.000000 0.032499 0.000000 -0.000095
# 5 0.000048 -0.000048 0.000000 0.000000 0.032499 0.000000
# 6 0.000000 0.000000 0.000000 -0.000095 0.000000 0.041086
#
#
# Mechanical properties :
#
#
# Convention : Reuss Voigt Hill
#
# Bulk Modulus (GPa) = 53.94258 69.56461 61.75359
# Shear Modulus (GPa) = 28.40381 30.98002 29.69192
#
# Velocity S-wave (km/s) = 3.66502 3.82763 3.74721
# Velocity P-wave (km/s) = 6.58937 7.24099 6.92285
#
# Compressibility (1/GPa) = 0.01853823
#
# Stress axis : x y z
#
# Youngs Moduli (GPa) = 59.36057 59.36057 134.01890
#
# Poissons Ratio (x) = 0.21945 0.51001
# Poissons Ratio (y) = 0.21945 0.51001
# Poissons Ratio (z) = 0.22590 0.22590
#
# Static dielectric constant tensor:
#      x y z
#    x 3.646420 0.000000 0.000000 
#    y 0.000000 3.646420 0.000000 
#    z 0.000000 0.000000 3.738200 
# 
# 
# High freq. dielectric constant tensor:
#      x y z
#    x 1.824810 0.000000 0.000000 
#    y 0.000000 1.824810 0.000000 
#    z 0.000000 0.000000 1.839270 
# 
# From -- ./inp_files/1308.got.cif
#   From: 2010.03.12/outbox.cif.g09.slc.cpg/sg159_cif.got.tgz:1308.got - 2010.04.03 14:00:19.
