data_PCOD8322309
_publ_section_title
;
Structure prediction by ZEFSAII (Michael W. Deem and Ramdas Pophale) SiO2 
 PCOD8322309
Probable space group: P 32 2 1
;
_chemical_formula_sum "Si O2"
_cell_formula_units_Z 39
_cell_length_a 11.226052
_cell_length_b 11.226052
_cell_length_c 19.693917
_cell_angle_alpha 90.000000
_cell_angle_beta 90.000000
_cell_angle_gamma 120.000000
_cell_volume 2149.397969
_symmetry_space_group_name_H-M "P 32 2 1"
_symmetry_group_IT_number 154
_symmetry_cell_setting 'hexagonal'
loop_
_space_group_symop_operation_xyz
x,y,z
-y,x-y,2/3+z
-x+y,-x,1/3+z
x-y,-y,1/3-z
-x,-x+y,2/3-z
y,x,-z
loop_
_atom_site_type_symbol
_atom_site_label
_atom_site_fract_x
_atom_site_fract_y
_atom_site_fract_z
Si Si1 0.517350 0.407960 0.231702
Si Si2 0.352150 0.975531 0.550324
Si Si3 0.457700 0.457700 0.000000
Si Si4 0.257640 0.384283 0.450475
Si Si5 0.498739 0.655321 0.500903
Si Si6 0.845913 0.572373 0.035709
Si Si7 0.296751 0.720991 0.311906
O O1 0.618540 0.521093 0.178552
O O2 0.452349 0.256476 0.198388
O O3 0.394462 0.432383 0.253159
O O4 0.609278 0.424736 0.295678
O O5 0.210934 0.866831 0.587769
O O6 0.479156 0.035964 0.602112
O O7 0.342933 0.105684 0.524440
O O8 0.450319 0.312010 0.012761
O O9 0.296582 0.296582 0.500000
O O10 0.367336 0.545032 0.458494
O O11 0.257705 0.351872 0.369974
O O12 0.624483 0.624483 0.500000
O O13 0.449657 0.642341 0.577704
O O14 0.720286 0.419009 0.025041
#
# Coordination Sequence:
#
# PCOD8322309 Si02
#       7
#     6   6   3   6   6   6   6
#     4  12  23  34  61  91 119 156 205 242 303 371
#     4  11  21  38  60  86 118 156 200 249 289 359
#     4  10  18  36  62  76 120 148 198 242 290 348
#     4  11  21  40  61  86 121 156 197 250 302 352
#     4  11  22  38  57  85 127 154 186 251 313 348
#     4  11  22  37  60  89 119 156 201 250 299 359
#     4  11  22  38  58  91 117 154 196 251 298 355
#
# _framework density 18.144615999999999
#
# number of rings (size 3 to 8) (size 9 to 14) (size 15 to 20)
#    0.000    0.923    7.692    2.769    2.154    0.000 
#    0.000    0.769    0.000    0.000    0.000    0.000 
#    0.000    0.000    0.000    0.000    0.000    0.000 
#
# Total GULP energy -483606.190937 kJ/mol
# GULP energy per Si atom -12400.158742 kJ/mol
# Density = 1.810332 g / cm^3
# Si number density = 18.144616 Si / 1000 Ang^3
#
#
#
# Elastic Constant Matrix: (Units=GPa)
#
#
# Indices 1 2 3 4 5 6 
#
# 1 73.0912 37.5064 29.4942 3.6898 0.0000 0.0000
# 2 37.5064 73.0912 29.4942 -3.6898 0.0000 0.0000
# 3 29.4942 29.4942 101.0238 0.0000 0.0000 0.0000
# 4 3.6898 -3.6898 0.0000 27.3857 0.0000 0.0000
# 5 0.0000 0.0000 0.0000 0.0000 27.3857 3.6898
# 6 0.0000 0.0000 0.0000 0.0000 3.6898 17.7924
#
#
#
# Elastic Compliance Matrix: (Units=1/GPa)
#
#
# Indices 1 2 3 4 5 6 
#
# 1 0.019810 -0.009100 -0.003127 -0.003895 0.000000 0.000000
# 2 -0.009100 0.019810 -0.003127 0.003895 0.000000 0.000000
# 3 -0.003127 -0.003127 0.011724 0.000000 0.000000 0.000000
# 4 -0.003895 0.003895 0.000000 0.037565 0.000000 0.000000
# 5 0.000000 0.000000 0.000000 0.000000 0.037565 -0.007790
# 6 0.000000 0.000000 0.000000 0.000000 -0.007790 0.057819
#
#
# Mechanical properties :
#
#
# Convention : Reuss Voigt Hill
#
# Bulk Modulus (GPa) = 48.45766 48.91066 48.68416
# Shear Modulus (GPa) = 22.53485 24.56018 23.54751
#
# Velocity S-wave (km/s) = 3.52797 3.68309 3.60636
# Velocity P-wave (km/s) = 6.58481 6.71576 6.65061
#
# Compressibility (1/GPa) = 0.02063657
#
# Stress axis : x y z
#
# Youngs Moduli (GPa) = 50.48073 50.48073 85.29279
#
# Poissons Ratio (x) = 0.45938 0.26668
# Poissons Ratio (y) = 0.45938 0.26668
# Poissons Ratio (z) = 0.15784 0.15784
#
# Static dielectric constant tensor:
#      x y z
#    x 3.351990 0.000000 0.000000 
#    y 0.000000 3.351990 0.000000 
#    z 0.000000 0.000000 3.750160 
# 
# 
# High freq. dielectric constant tensor:
#      x y z
#    x 1.688400 0.000000 0.000000 
#    y 0.000000 1.688400 0.000000 
#    z 0.000000 0.000000 1.726970 
# 
# From -- ./inp_files/2419.got.cif
#   From: 2010.03.12/outbox.cif.g09.slc.cpg/sg154_2_cif.got.tgz:2419.got - 2010.04.03 13:51:21.
