data_PCOD8322789
_publ_section_title
;
Structure prediction by ZEFSAII (Michael W. Deem and Ramdas Pophale) SiO2 
 PCOD8322789
Probable space group: P 3 1 C
;
_chemical_formula_sum "Si O2"
_cell_formula_units_Z 28
_cell_length_a 10.843085
_cell_length_b 10.843085
_cell_length_c 13.511679
_cell_angle_alpha 90.000000
_cell_angle_beta 90.000000
_cell_angle_gamma 120.000000
_cell_volume 1375.769494
_symmetry_space_group_name_H-M "P 3 1 C"
_symmetry_group_IT_number 159
_symmetry_cell_setting 'hexagonal'
loop_
_space_group_symop_operation_xyz
x,y,z
-y,x-y,z
-x+y,-x,z
y,x,1/2+z
x-y,-y,1/2+z
-x,-x+y,1/2+z
loop_
_atom_site_type_symbol
_atom_site_label
_atom_site_fract_x
_atom_site_fract_y
_atom_site_fract_z
Si Si1 0.666668 0.333335 0.756256
Si Si2 0.452068 0.092117 0.621577
Si Si3 0.333334 0.666668 0.491696
Si Si4 0.922903 0.615972 0.517372
Si Si5 0.689093 0.188374 0.317244
Si Si6 0.801957 0.189694 0.112395
O O1 0.540965 0.178707 0.718466
O O2 0.666668 0.333334 0.873632
O O3 0.433884 0.199226 0.551194
O O4 0.536210 0.031236 0.558903
O O5 0.293009 0.964180 0.647956
O O6 0.272806 0.764240 0.531597
O O7 0.917267 0.613704 0.397653
O O8 0.043172 0.772308 0.557207
O O9 0.816028 0.353559 0.328335
O O10 0.697787 0.136243 0.207723
#
# Coordination Sequence:
#
# PCOD8322789 Si02
#       6
#     2   6   2   6   6   6
#     4   9  24  39  64  89 127 162 201 255 304 371
#     4  10  21  42  59  90 124 161 203 248 308 357
#     4  12  21  39  58 104 124 144 207 267 316 326
#     4  11  21  38  64  88 118 164 203 249 296 372
#     4  10  18  37  62  87 116 167 199 233 311 378
#     4  12  23  37  63  92 127 152 205 262 299 362
#
# _framework density 20.352246000000001
#
# number of rings (size 3 to 8) (size 9 to 14) (size 15 to 20)
#    0.429    0.857    6.429    0.429    0.000    6.857 
#    1.286    0.000    0.000    0.000    5.571    0.000 
#    0.000    0.000    0.000    0.000    0.000    0.000 
#
# Total GULP energy -346997.966711 kJ/mol
# GULP energy per Si atom -12392.784525 kJ/mol
# Density = 2.030592 g / cm^3
# Si number density = 20.352246 Si / 1000 Ang^3
#
#
#
# Elastic Constant Matrix: (Units=GPa)
#
#
# Indices 1 2 3 4 5 6 
#
# 1 67.4089 19.9448 41.4096 -0.0001 -5.3011 -0.0001
# 2 19.9448 67.4087 41.4095 -0.0001 5.3009 -0.0001
# 3 41.4096 41.4095 177.9652 0.0001 0.0000 -0.0001
# 4 -0.0001 -0.0001 0.0001 19.5545 -0.0001 5.3010
# 5 -5.3011 5.3009 0.0000 -0.0001 19.5547 0.0000
# 6 -0.0001 -0.0001 -0.0001 5.3010 0.0000 23.7320
#
#
#
# Elastic Compliance Matrix: (Units=1/GPa)
#
#
# Indices 1 2 3 4 5 6 
#
# 1 0.018557 -0.003869 -0.003418 0.000000 0.006080 0.000000
# 2 -0.003869 0.018557 -0.003418 0.000000 -0.006079 0.000000
# 3 -0.003418 -0.003418 0.007210 0.000000 0.000000 0.000000
# 4 0.000000 0.000000 0.000000 0.054435 0.000000 -0.012159
# 5 0.006080 -0.006079 0.000000 0.000000 0.054435 0.000000
# 6 0.000000 0.000000 0.000000 -0.012159 0.000000 0.044853
#
#
# Mechanical properties :
#
#
# Convention : Reuss Voigt Hill
#
# Bulk Modulus (GPa) = 43.63978 57.59006 50.61492
# Shear Modulus (GPa) = 22.01724 26.56951 24.29338
#
# Velocity S-wave (km/s) = 3.29265 3.61707 3.45867
# Velocity P-wave (km/s) = 5.99535 6.76774 6.39322
#
# Compressibility (1/GPa) = 0.02291487
#
# Stress axis : x y z
#
# Youngs Moduli (GPa) = 53.88728 53.88716 138.70522
#
# Poissons Ratio (x) = 0.20851 0.47405
# Poissons Ratio (y) = 0.20851 0.47404
# Poissons Ratio (z) = 0.18417 0.18417
#
# Static dielectric constant tensor:
#      x y z
#    x 3.610490 0.000010 0.000000 
#    y 0.000010 3.610500 0.000000 
#    z 0.000000 0.000000 3.578250 
# 
# 
# High freq. dielectric constant tensor:
#      x y z
#    x 1.771540 0.000000 0.000000 
#    y 0.000000 1.771540 0.000000 
#    z 0.000000 0.000000 1.798420 
# 
# From -- ./inp_files/793.got.cif
#   From: 2010.03.12/outbox.cif.g09.slc.cpg/sg159_cif.got.tgz:793.got - 2010.04.03 14:00:19.
