data_PCOD8322398
_publ_section_title
;
Structure prediction by ZEFSAII (Michael W. Deem and Ramdas Pophale) SiO2 
 PCOD8322398
Probable space group: P 32 2 1
;
_chemical_formula_sum "Si O2"
_cell_formula_units_Z 42
_cell_length_a 8.677825
_cell_length_b 8.677825
_cell_length_c 29.343293
_cell_angle_alpha 90.000000
_cell_angle_beta 90.000000
_cell_angle_gamma 120.000000
_cell_volume 1913.644482
_symmetry_space_group_name_H-M "P 32 2 1"
_symmetry_group_IT_number 154
_symmetry_cell_setting 'hexagonal'
loop_
_space_group_symop_operation_xyz
x,y,z
-y,x-y,2/3+z
-x+y,-x,1/3+z
x-y,-y,1/3-z
-x,-x+y,2/3-z
y,x,-z
loop_
_atom_site_type_symbol
_atom_site_label
_atom_site_fract_x
_atom_site_fract_y
_atom_site_fract_z
Si Si1 0.452008 0.712119 0.668400
Si Si2 0.626847 0.000161 0.740236
Si Si3 0.811116 0.000000 0.166667
Si Si4 0.019597 0.404776 0.484177
Si Si5 0.428328 0.341991 0.677423
Si Si6 0.083873 0.019931 0.097084
Si Si7 0.362290 0.308372 0.782955
Si Si8 0.000000 0.065302 0.333334
O O1 0.503267 0.824021 0.621919
O O2 0.452468 0.529869 0.662237
O O3 0.252505 0.661579 0.680249
O O4 0.583973 0.830677 0.708822
O O5 0.792934 0.052687 0.774606
O O6 0.452923 0.943076 0.770368
O O7 0.810762 0.186889 0.171499
O O8 0.901390 0.983596 0.212509
O O9 0.982576 0.503346 0.525737
O O10 0.839801 0.217084 0.478966
O O11 0.434416 0.324197 0.731886
O O12 0.254243 0.173994 0.656418
O O13 0.097216 0.848153 0.113449
O O14 0.063845 0.021729 0.042655
#
# Coordination Sequence:
#
# PCOD8322398 Si02
#       8
#     6   6   3   6   6   6   6   3
#     4  11  26  40  67 100 139 181 229 287 353 417
#     4  11  23  44  68  96 142 183 226 289 355 414
#     4  10  24  40  68 100 128 178 232 278 356 420
#     4  11  23  46  66  97 131 182 227 289 347 424
#     4  11  25  43  65 105 136 179 228 291 351 426
#     4  10  22  42  70 100 127 184 229 281 350 429
#     4  10  24  43  70  96 136 177 230 289 351 422
#     4  10  22  42  74  92 142 176 232 282 356 416
#
# _framework density 21.947652000000001
#
# number of rings (size 3 to 8) (size 9 to 14) (size 15 to 20)
#    0.000    1.429    1.429    3.429   14.000    0.000 
#    0.000    1.429    0.000    0.000    0.000    0.000 
#    0.000    0.000    0.000    0.000    0.000    0.000 
#
# Total GULP energy -520714.238370 kJ/mol
# GULP energy per Si atom -12397.958056 kJ/mol
# Density = 2.189770 g / cm^3
# Si number density = 21.947652 Si / 1000 Ang^3
#
#
#
# Elastic Constant Matrix: (Units=GPa)
#
#
# Indices 1 2 3 4 5 6 
#
# 1 132.2722 53.1513 24.3197 -5.3284 0.0000 0.0000
# 2 53.1513 132.2722 24.3197 5.3284 0.0000 0.0000
# 3 24.3197 24.3197 70.2473 0.0000 0.0000 0.0000
# 4 -5.3284 5.3284 0.0000 31.9919 0.0000 0.0000
# 5 0.0000 0.0000 0.0000 0.0000 31.9919 -5.3284
# 6 0.0000 0.0000 0.0000 0.0000 -5.3284 39.5605
#
#
#
# Elastic Compliance Matrix: (Units=1/GPa)
#
#
# Indices 1 2 3 4 5 6 
#
# 1 0.009430 -0.003499 -0.002054 0.002153 0.000000 0.000000
# 2 -0.003499 0.009430 -0.002054 -0.002153 0.000000 0.000000
# 3 -0.002054 -0.002054 0.015657 0.000000 0.000000 0.000000
# 4 0.002153 -0.002153 0.000000 0.031975 0.000000 0.000000
# 5 0.000000 0.000000 0.000000 0.000000 0.031975 0.004307
# 6 0.000000 0.000000 0.000000 0.000000 0.004307 0.025858
#
#
# Mechanical properties :
#
#
# Convention : Reuss Voigt Hill
#
# Bulk Modulus (GPa) = 51.79602 59.81923 55.80762
# Shear Modulus (GPa) = 34.25286 36.24226 35.24756
#
# Velocity S-wave (km/s) = 3.95481 4.06803 4.01182
# Velocity P-wave (km/s) = 6.67121 7.02707 6.85145
#
# Compressibility (1/GPa) = 0.01930650
#
# Stress axis : x y z
#
# Youngs Moduli (GPa) = 106.04082 106.04082 63.86785
#
# Poissons Ratio (x) = 0.37099 0.13116
# Poissons Ratio (y) = 0.37099 0.13116
# Poissons Ratio (z) = 0.21776 0.21776
#
# Static dielectric constant tensor:
#      x y z
#    x 4.047350 0.000000 0.000000 
#    y 0.000000 4.047350 0.000000 
#    z 0.000000 0.000000 3.891930 
# 
# 
# High freq. dielectric constant tensor:
#      x y z
#    x 1.858380 0.000000 0.000000 
#    y 0.000000 1.858380 0.000000 
#    z 0.000000 0.000000 1.867890 
# 
# From -- ./inp_files/3824.got.cif
#   From: 2010.03.12/outbox.cif.g09.slc.cpg/sg154_2_cif.got.tgz:3824.got - 2010.04.03 13:51:21.
