data_PCOD8322511
_publ_section_title
;
Structure prediction by ZEFSAII (Michael W. Deem and Ramdas Pophale) SiO2 
 PCOD8322511
Probable space group: R 3 2
;
_chemical_formula_sum "Si O2"
_cell_formula_units_Z 81
_cell_length_a 20.379432
_cell_length_b 20.379432
_cell_length_c 11.235948
_cell_angle_alpha 90.000000
_cell_angle_beta 90.000000
_cell_angle_gamma 120.000000
_cell_volume 4041.331755
_symmetry_space_group_name_H-M "R 3 2"
_symmetry_group_IT_number 155
_symmetry_cell_setting 'hexagonal'
loop_
_space_group_symop_operation_xyz
x,y,z
-y,x-y,z
-x+y,-x,z
x-y,-y,-z
-x,-x+y,-z
y,x,-z
2/3+x,1/3+y,1/3+z
2/3-y,1/3+x-y,1/3+z
2/3-x+y,1/3-x,1/3+z
2/3+x-y,1/3-y,1/3-z
2/3-x,1/3-x+y,1/3-z
2/3+y,1/3+x,1/3-z
1/3+x,2/3+y,2/3+z
1/3-y,2/3+x-y,2/3+z
1/3-x+y,2/3-x,2/3+z
1/3+x-y,2/3-y,2/3-z
1/3-x,2/3-x+y,2/3-z
1/3+y,2/3+x,2/3-z
loop_
_atom_site_type_symbol
_atom_site_label
_atom_site_fract_x
_atom_site_fract_y
_atom_site_fract_z
Si Si1 0.619480 0.666667 0.166667
Si Si2 0.216822 0.996249 0.247302
Si Si3 0.288337 0.207283 0.500111
Si Si4 0.097128 0.839496 0.765371
Si Si5 0.929793 0.783876 0.734527
O O1 0.702919 0.740779 0.169535
O O2 0.571921 0.663179 0.282057
O O3 0.125358 0.942451 0.234168
O O4 0.236604 0.076939 0.192661
O O5 0.286188 0.286188 0.500000
O O6 0.273618 0.167270 0.374166
O O7 0.221058 0.153019 0.591146
O O8 0.367064 0.221618 0.546297
O O9 0.110438 0.777105 0.833334
O O10 0.013914 0.829120 0.791661
#
# Coordination Sequence:
#
# PCOD8322511 Si02
#       5
#     9  18  18  18  18
#     4  10  20  34  62  80 116 144 194 246 286 348
#     4  11  20  36  54  86 109 152 190 240 293 338
#     4   9  18  35  57  80 106 141 183 234 286 341
#     4  11  22  36  55  84 116 147 193 238 287 348
#     4  10  20  35  56  79 110 149 187 231 290 341
#
# _framework density 20.042898000000001
#
# number of rings (size 3 to 8) (size 9 to 14) (size 15 to 20)
#    0.000    1.778    1.111    6.000    0.000    2.667 
#    1.333    0.000    0.000    0.000    0.000    0.000 
#    0.000    0.000    0.000    0.000    0.000    0.000 
#
# Total GULP energy -334640.126092 kJ/mol
# GULP energy per Si atom -12394.078744 kJ/mol
# Density = 1.999728 g / cm^3
# Si number density = 20.042898 Si / 1000 Ang^3
#
#
#
# Elastic Constant Matrix: (Units=GPa)
#
#
# Indices 1 2 3 4 5 6 
#
# 1 114.8988 46.1607 20.2235 1.2935 -0.0001 0.0000
# 2 46.1607 114.8988 20.2235 -1.2935 0.0001 0.0000
# 3 20.2235 20.2235 33.9947 0.0000 0.0000 0.0000
# 4 1.2935 -1.2935 0.0000 15.8847 0.0000 0.0001
# 5 -0.0001 0.0001 0.0000 0.0000 15.8847 1.2935
# 6 0.0000 0.0000 0.0000 0.0001 1.2935 34.3690
#
#
#
# Elastic Compliance Matrix: (Units=1/GPa)
#
#
# Indices 1 2 3 4 5 6 
#
# 1 0.010946 -0.003647 -0.004342 -0.001188 0.000000 0.000000
# 2 -0.003647 0.010946 -0.004342 0.001188 0.000000 0.000000
# 3 -0.004342 -0.004342 0.034583 0.000000 0.000000 0.000000
# 4 -0.001188 0.001188 0.000000 0.063147 0.000000 0.000000
# 5 0.000000 0.000000 0.000000 0.000000 0.063147 -0.002377
# 6 0.000000 0.000000 0.000000 0.000000 -0.002377 0.029185
#
#
# Mechanical properties :
#
#
# Convention : Reuss Voigt Hill
#
# Bulk Modulus (GPa) = 31.43461 48.55641 39.99551
# Shear Modulus (GPa) = 20.22473 25.03998 22.63236
#
# Velocity S-wave (km/s) = 3.18004 3.53841 3.36400
# Velocity P-wave (km/s) = 5.40381 6.40098 5.92342
#
# Compressibility (1/GPa) = 0.03181207
#
# Stress axis : x y z
#
# Youngs Moduli (GPa) = 91.35714 91.35713 28.91596
#
# Poissons Ratio (x) = 0.33315 0.12557
# Poissons Ratio (y) = 0.33315 0.12557
# Poissons Ratio (z) = 0.39671 0.39671
#
# Static dielectric constant tensor:
#      x y z
#    x 3.690030 0.000000 0.000000 
#    y 0.000000 3.690030 0.000000 
#    z 0.000000 0.000000 3.640600 
# 
# 
# High freq. dielectric constant tensor:
#      x y z
#    x 1.770410 0.000000 0.000000 
#    y 0.000000 1.770410 0.000000 
#    z 0.000000 0.000000 1.772510 
# 
# From -- ./inp_files/3789.got.cif
#   From: 2010.03.12/outbox.cif.g09.slc.cpg/sg155_2_cif.got.tgz:3789.got - 2010.04.03 13:54:13.
