data_PCOD8322082
_publ_section_title
;
Structure prediction by ZEFSAII (Michael W. Deem and Ramdas Pophale) SiO2 
 PCOD8322082
Probable space group: P 31 2 1
;
_chemical_formula_sum "Si O2"
_cell_formula_units_Z 24
_cell_length_a 8.815679
_cell_length_b 8.815679
_cell_length_c 19.401597
_cell_angle_alpha 90.000000
_cell_angle_beta 90.000000
_cell_angle_gamma 120.000000
_cell_volume 1305.808969
_symmetry_space_group_name_H-M "P 31 2 1"
_symmetry_group_IT_number 152
_symmetry_cell_setting 'hexagonal'
loop_
_space_group_symop_operation_xyz
x,y,z
-y,x-y,1/3+z
-x+y,-x,2/3+z
x-y,-y,2/3-z
-x,-x+y,1/3-z
y,x,-z
loop_
_atom_site_type_symbol
_atom_site_label
_atom_site_fract_x
_atom_site_fract_y
_atom_site_fract_z
Si Si1 0.000000 0.844505 0.166667
Si Si2 0.867795 0.665276 0.301743
Si Si3 0.493512 0.492917 0.750043
Si Si4 0.797469 0.131743 0.468499
Si Si5 0.844991 0.000000 0.333334
O O1 0.005671 0.742809 0.098494
O O2 0.826698 0.861249 0.162110
O O3 0.938723 0.577409 0.353443
O O4 0.676009 0.517546 0.276650
O O5 0.861664 0.826650 0.337873
O O6 0.676591 0.517215 0.776928
O O7 0.361287 0.420953 0.813084
O O8 0.743263 0.005567 0.401508
#
# Coordination Sequence:
#
# PCOD8322082 Si02
#       5
#     3   6   6   6   3
#     4   8  18  36  56  74 104 148 178 196 254 334
#     4  10  20  36  55  79 106 138 176 216 258 309
#     4  10  22  36  54  80 108 134 174 222 262 302
#     4  10  20  36  55  79 106 138 176 216 258 309
#     4   8  18  36  56  74 104 148 178 196 254 334
#
# _framework density 18.379411999999999
#
# number of rings (size 3 to 8) (size 9 to 14) (size 15 to 20)
#    0.000    3.000    0.000    3.000    0.000    8.000 
#    0.000    0.000    0.000    0.000    0.000    0.000 
#    0.000    0.000    0.000    0.000    0.000    0.000 
#
# Total GULP energy -297520.535643 kJ/mol
# GULP energy per Si atom -12396.688985 kJ/mol
# Density = 1.833758 g / cm^3
# Si number density = 18.379412 Si / 1000 Ang^3
#
#
#
# Elastic Constant Matrix: (Units=GPa)
#
#
# Indices 1 2 3 4 5 6 
#
# 1 98.6053 43.2515 85.9972 -9.7575 0.0002 0.0000
# 2 43.2515 98.6053 85.9972 9.7575 -0.0002 0.0000
# 3 85.9972 85.9972 188.1996 0.0000 0.0000 0.0000
# 4 -9.7575 9.7575 0.0000 36.9975 0.0000 -0.0002
# 5 0.0002 -0.0002 0.0000 0.0000 36.9975 -9.7575
# 6 0.0000 0.0000 0.0000 -0.0002 -9.7575 27.6769
#
#
#
# Elastic Compliance Matrix: (Units=1/GPa)
#
#
# Indices 1 2 3 4 5 6 
#
# 1 0.017862 -0.002055 -0.007223 0.005253 0.000000 0.000000
# 2 -0.002055 0.017862 -0.007223 -0.005253 0.000000 0.000000
# 3 -0.007223 -0.007223 0.011914 0.000000 0.000000 0.000000
# 4 0.005253 -0.005253 0.000000 0.029800 0.000000 0.000000
# 5 0.000000 0.000000 0.000000 0.000000 0.029800 0.010506
# 6 0.000000 0.000000 0.000000 0.000000 0.010506 0.039835
#
#
# Mechanical properties :
#
#
# Convention : Reuss Voigt Hill
#
# Bulk Modulus (GPa) = 68.32241 90.65580 79.48910
# Shear Modulus (GPa) = 27.03379 31.67865 29.35622
#
# Velocity S-wave (km/s) = 3.83936 4.15612 4.00088
# Velocity P-wave (km/s) = 7.54376 8.51251 8.04273
#
# Compressibility (1/GPa) = 0.01463649
#
# Stress axis : x y z
#
# Youngs Moduli (GPa) = 55.98451 55.98451 83.93212
#
# Poissons Ratio (x) = 0.11507 0.60623
# Poissons Ratio (y) = 0.11507 0.60623
# Poissons Ratio (z) = 0.40437 0.40437
#
# Static dielectric constant tensor:
#      x y z
#    x 3.318750 0.000000 0.000000 
#    y 0.000000 3.318750 0.000000 
#    z 0.000000 0.000000 3.570740 
# 
# 
# High freq. dielectric constant tensor:
#      x y z
#    x 1.705140 0.000000 0.000000 
#    y 0.000000 1.705140 0.000000 
#    z 0.000000 0.000000 1.730580 
# 
# From -- ./inp_files/2669.got.cif
#   From: 2010.03.12/outbox.cif.g09.slc.cpg/sg152_2_cif.got.tgz:2669.got - 2010.04.03 13:45:27.
