data_PCOD8322129
_publ_section_title
;
Structure prediction by ZEFSAII (Michael W. Deem and Ramdas Pophale) SiO2 
 PCOD8322129
Probable space group: P 31 2 1
;
_chemical_formula_sum "Si O2"
_cell_formula_units_Z 30
_cell_length_a 8.631453
_cell_length_b 8.631453
_cell_length_c 23.065220
_cell_angle_alpha 90.000000
_cell_angle_beta 90.000000
_cell_angle_gamma 120.000000
_cell_volume 1488.182020
_symmetry_space_group_name_H-M "P 31 2 1"
_symmetry_group_IT_number 152
_symmetry_cell_setting 'hexagonal'
loop_
_space_group_symop_operation_xyz
x,y,z
-y,x-y,1/3+z
-x+y,-x,2/3+z
x-y,-y,2/3-z
-x,-x+y,1/3-z
y,x,-z
loop_
_atom_site_type_symbol
_atom_site_label
_atom_site_fract_x
_atom_site_fract_y
_atom_site_fract_z
Si Si1 0.338519 0.486234 0.678444
Si Si2 0.686099 0.870501 0.125361
Si Si3 0.828788 0.000000 0.833334
Si Si4 0.661999 0.154385 0.919734
Si Si5 0.352983 0.483646 0.120164
Si Si6 0.495874 0.495874 0.000000
O O1 0.264496 0.331995 0.727637
O O2 0.447465 0.455639 0.628976
O O3 0.468587 0.673894 0.709299
O O4 0.169493 0.484427 0.648505
O O5 0.872347 0.874463 0.129019
O O6 0.529081 0.668409 0.138031
O O7 0.683671 0.011700 0.169464
O O8 0.783337 0.115227 0.876992
O O9 0.524263 0.189232 0.881769
O O10 0.369676 0.417002 0.055982
#
# Coordination Sequence:
#
# PCOD8322129 Si02
#       6
#     6   6   3   6   6   3
#     4  10  21  38  59  84 113 153 192 236 290 346
#     4  10  22  39  59  85 117 155 196 239 292 349
#     4  12  24  38  58  90 122 152 192 246 296 346
#     4  10  23  39  60  86 117 153 193 240 293 346
#     4  10  21  38  60  85 115 157 197 239 291 354
#     4   8  18  36  58  82 110 146 192 240 288 340
#
# _framework density 20.158823999999999
#
# number of rings (size 3 to 8) (size 9 to 14) (size 15 to 20)
#    0.000    2.400    0.000    4.800    0.000   10.400 
#    0.000    0.000    0.000    0.000    0.000    0.000 
#    0.000    0.000    0.000    0.000    0.000    0.000 
#
# Total GULP energy -371964.076747 kJ/mol
# GULP energy per Si atom -12398.802558 kJ/mol
# Density = 2.011294 g / cm^3
# Si number density = 20.158824 Si / 1000 Ang^3
#
#
#
# Elastic Constant Matrix: (Units=GPa)
#
#
# Indices 1 2 3 4 5 6 
#
# 1 90.7617 20.3427 16.5016 9.1094 0.0000 0.0000
# 2 20.3427 90.7617 16.5016 -9.1094 0.0000 0.0000
# 3 16.5016 16.5016 41.2764 0.0000 0.0000 0.0000
# 4 9.1094 -9.1094 0.0000 30.6902 0.0000 0.0000
# 5 0.0000 0.0000 0.0000 0.0000 30.6902 9.1094
# 6 0.0000 0.0000 0.0000 0.0000 9.1094 35.2095
#
#
#
# Elastic Compliance Matrix: (Units=1/GPa)
#
#
# Indices 1 2 3 4 5 6 
#
# 1 0.012798 -0.002584 -0.004083 -0.004566 0.000000 0.000000
# 2 -0.002584 0.012798 -0.004083 0.004566 0.000000 0.000000
# 3 -0.004083 -0.004083 0.027492 0.000000 0.000000 0.000000
# 4 -0.004566 0.004566 0.000000 0.035294 0.000000 0.000000
# 5 0.000000 0.000000 0.000000 0.000000 0.035294 -0.009131
# 6 0.000000 0.000000 0.000000 0.000000 -0.009131 0.030764
#
#
# Mechanical properties :
#
#
# Convention : Reuss Voigt Hill
#
# Bulk Modulus (GPa) = 31.65970 36.61019 34.13495
# Shear Modulus (GPa) = 26.81415 30.61492 28.71453
#
# Velocity S-wave (km/s) = 3.65107 3.90126 3.77824
# Velocity P-wave (km/s) = 5.78904 6.20431 6.00027
#
# Compressibility (1/GPa) = 0.03158590
#
# Stress axis : x y z
#
# Youngs Moduli (GPa) = 78.13910 78.13910 36.37465
#
# Poissons Ratio (x) = 0.20193 0.14852
# Poissons Ratio (y) = 0.20193 0.14852
# Poissons Ratio (z) = 0.31905 0.31905
#
# Static dielectric constant tensor:
#      x y z
#    x 3.673450 0.000000 0.000000 
#    y 0.000000 3.673450 0.000000 
#    z 0.000000 0.000000 3.729350 
# 
# 
# High freq. dielectric constant tensor:
#      x y z
#    x 1.786890 0.000000 0.000000 
#    y 0.000000 1.786890 0.000000 
#    z 0.000000 0.000000 1.790330 
# 
# From -- ./inp_files/3040.got.cif
#   From: 2010.03.12/outbox.cif.g09.slc.cpg/sg152_2_cif.got.tgz:3040.got - 2010.04.03 13:45:27.
