data_PCOD8322467
_publ_section_title
;
Structure prediction by ZEFSAII (Michael W. Deem and Ramdas Pophale) SiO2 
 PCOD8322467
Probable space group: R 3 2
;
_chemical_formula_sum "Si O2"
_cell_formula_units_Z 126
_cell_length_a 22.207882
_cell_length_b 22.207882
_cell_length_c 16.377334
_cell_angle_alpha 90.000000
_cell_angle_beta 90.000000
_cell_angle_gamma 120.000000
_cell_volume 6995.006465
_symmetry_space_group_name_H-M "R 3 2"
_symmetry_group_IT_number 155
_symmetry_cell_setting 'hexagonal'
loop_
_space_group_symop_operation_xyz
x,y,z
-y,x-y,z
-x+y,-x,z
x-y,-y,-z
-x,-x+y,-z
y,x,-z
2/3+x,1/3+y,1/3+z
2/3-y,1/3+x-y,1/3+z
2/3-x+y,1/3-x,1/3+z
2/3+x-y,1/3-y,1/3-z
2/3-x,1/3-x+y,1/3-z
2/3+y,1/3+x,1/3-z
1/3+x,2/3+y,2/3+z
1/3-y,2/3+x-y,2/3+z
1/3-x+y,2/3-x,2/3+z
1/3+x-y,2/3-y,2/3-z
1/3-x,2/3-x+y,2/3-z
1/3+y,2/3+x,2/3-z
loop_
_atom_site_type_symbol
_atom_site_label
_atom_site_fract_x
_atom_site_fract_y
_atom_site_fract_z
Si Si1 0.811126 0.079793 0.499632
Si Si2 0.588228 0.758774 0.850620
Si Si3 0.263565 0.061591 0.562122
Si Si4 0.242407 0.056267 0.746202
Si Si5 0.618515 0.871373 0.981278
Si Si6 0.561966 0.853530 0.743502
Si Si7 0.583758 0.862762 0.435757
O O1 0.888802 0.122261 0.535110
O O2 0.809107 0.104991 0.407827
O O3 0.762308 0.095296 0.557888
O O4 0.789563 0.000000 0.500000
O O5 0.666667 0.774939 0.833334
O O6 0.537330 0.677021 0.865035
O O7 0.589791 0.800219 0.931349
O O8 0.557166 0.781453 0.773598
O O9 0.237488 0.032474 0.652578
O O10 0.346402 0.103331 0.554642
O O11 0.237278 0.000000 0.500000
O O12 0.218894 0.114006 0.753627
O O13 0.691171 0.931505 0.944831
O O14 0.562317 0.897189 0.973586
O O15 0.511996 0.845329 0.666667
O O16 0.539069 0.885175 0.815371
#
# Coordination Sequence:
#
# PCOD8322467 Si02
#       7
#    18  18  18  18  18  18  18
#     4  11  20  30  50  79 108 138 174 213 273 333
#     4   9  19  34  55  76 103 144 187 221 276 329
#     4  10  21  35  53  74 105 142 179 225 266 313
#     4  10  20  36  52  75 109 143 180 225 265 328
#     4  10  19  32  52  78 109 143 174 222 269 333
#     4  10  18  33  54  81 111 140 177 231 271 334
#     4  10  20  31  50  79 110 141 173 214 281 327
#
# _framework density 18.01285
#
# number of rings (size 3 to 8) (size 9 to 14) (size 15 to 20)
#    0.000    2.000    1.429    4.286    0.000    1.143 
#    0.000    0.714    0.000    4.857    0.000    8.000 
#    0.000    0.000    0.000    0.000    0.000    0.000 
#
# Total GULP energy -520798.970585 kJ/mol
# GULP energy per Si atom -12399.975490 kJ/mol
# Density = 1.797185 g / cm^3
# Si number density = 18.012850 Si / 1000 Ang^3
#
#
#
# Elastic Constant Matrix: (Units=GPa)
#
#
# Indices 1 2 3 4 5 6 
#
# 1 95.4054 42.5176 33.9012 -0.0885 0.0000 0.0000
# 2 42.5176 95.4054 33.9012 0.0885 0.0000 0.0000
# 3 33.9012 33.9012 53.9263 0.0000 0.0000 0.0000
# 4 -0.0885 0.0885 0.0000 27.6432 0.0000 0.0000
# 5 0.0000 0.0000 0.0000 0.0000 27.6432 -0.0885
# 6 0.0000 0.0000 0.0000 0.0000 -0.0885 26.4439
#
#
#
# Elastic Compliance Matrix: (Units=1/GPa)
#
#
# Indices 1 2 3 4 5 6 
#
# 1 0.014701 -0.004207 -0.006597 0.000061 0.000000 0.000000
# 2 -0.004207 0.014701 -0.006597 -0.000061 0.000000 0.000000
# 3 -0.006597 -0.006597 0.026838 0.000000 0.000000 0.000000
# 4 0.000061 -0.000061 0.000000 0.036176 0.000000 0.000000
# 5 0.000000 0.000000 0.000000 0.000000 0.036176 0.000121
# 6 0.000000 0.000000 0.000000 0.000000 0.000121 0.037816
#
#
# Mechanical properties :
#
#
# Convention : Reuss Voigt Hill
#
# Bulk Modulus (GPa) = 46.64662 51.70856 49.17759
# Shear Modulus (GPa) = 23.99753 25.30720 24.65237
#
# Velocity S-wave (km/s) = 3.65395 3.75234 3.70347
# Velocity P-wave (km/s) = 6.61471 6.89508 6.75635
#
# Compressibility (1/GPa) = 0.02143778
#
# Stress axis : x y z
#
# Youngs Moduli (GPa) = 68.02370 68.02370 37.26062
#
# Poissons Ratio (x) = 0.28620 0.24580
# Poissons Ratio (y) = 0.28620 0.24580
# Poissons Ratio (z) = 0.44873 0.44873
#
# Static dielectric constant tensor:
#      x y z
#    x 3.238430 0.000000 0.000000 
#    y 0.000000 3.238430 0.000000 
#    z 0.000000 0.000000 3.534170 
# 
# 
# High freq. dielectric constant tensor:
#      x y z
#    x 1.679200 0.000000 0.000000 
#    y 0.000000 1.679200 0.000000 
#    z 0.000000 0.000000 1.713280 
# 
# From -- ./inp_files/6255.got.cif
#   From: 2010.03.12/outbox.cif.g09.slc.cpg/sg155_4_cif.got.tgz:6255.got - 2010.04.03 13:54:13.
