data_PCOD8322007
_publ_section_title
;
Structure prediction by ZEFSAII (Michael W. Deem and Ramdas Pophale) SiO2 
 PCOD8322007
Probable space group: P 31 1 2
;
_chemical_formula_sum "Si O2"
_cell_formula_units_Z 42
_cell_length_a 13.770334
_cell_length_b 13.770334
_cell_length_c 12.303446
_cell_angle_alpha 90.000000
_cell_angle_beta 90.000000
_cell_angle_gamma 120.000000
_cell_volume 2020.441813
_symmetry_space_group_name_H-M "P 31 1 2"
_symmetry_group_IT_number 151
_symmetry_cell_setting 'hexagonal'
loop_
_space_group_symop_operation_xyz
x,y,z
-y,x-y,1/3+z
-x+y,-x,2/3+z
-y,-x,2/3-z
-x+y,y,1/3-z
x,x-y,-z
loop_
_atom_site_type_symbol
_atom_site_label
_atom_site_fract_x
_atom_site_fract_y
_atom_site_fract_z
Si Si1 0.964862 0.685029 0.511635
Si Si2 0.278376 0.041549 0.553331
Si Si3 0.558562 0.013668 0.375655
Si Si4 0.896909 0.974233 0.235861
Si Si5 0.639268 0.221460 0.048000
Si Si6 0.718219 0.126050 0.567912
Si Si7 0.092165 0.408161 0.696673
O O1 0.027611 0.818895 0.513902
O O2 0.007883 0.655270 0.403772
O O3 0.992268 0.630098 0.615240
O O4 0.833916 0.645243 0.499811
O O5 0.330225 0.165113 0.500000
O O6 0.342420 0.049056 0.663579
O O7 0.154714 0.007460 0.597177
O O8 0.281818 0.953285 0.469657
O O9 0.526732 0.111714 0.359846
O O10 0.620991 0.037471 0.490311
O O11 0.432529 0.904613 0.383279
O O12 0.010113 0.020225 0.166667
O O13 0.937422 0.062579 0.333334
O O14 0.588592 0.177184 0.166667
O O15 0.773532 0.296703 0.049778
O O16 0.588668 0.294334 0.000000
O O17 0.216797 0.433594 0.666667
#
# Coordination Sequence:
#
# PCOD8322007 Si02
#       7
#     6   6   6   6   6   6   6
#     4  12  22  43  69  99 138 177 229 286 354 432
#     4  11  23  40  64  97 137 182 222 278 355 422
#     4  12  24  42  65  98 131 182 235 284 348 408
#     4  11  24  38  65  98 137 173 217 278 358 432
#     4  12  21  35  56  93 139 179 214 263 334 422
#     4  12  24  38  64  98 143 170 221 283 349 422
#     4  12  25  45  69  94 133 189 246 291 334 426
#
# _framework density 20.787531000000001
#
# number of rings (size 3 to 8) (size 9 to 14) (size 15 to 20)
#    0.000    0.286    7.143    2.571    4.000    0.571 
#    0.000    0.000    0.000    3.429    0.000    0.000 
#    0.000    0.000    0.000    0.000    0.000    0.000 
#
# Total GULP energy -520469.393292 kJ/mol
# GULP energy per Si atom -12392.128412 kJ/mol
# Density = 2.074022 g / cm^3
# Si number density = 20.787531 Si / 1000 Ang^3
#
#
#
# Elastic Constant Matrix: (Units=GPa)
#
#
# Indices 1 2 3 4 5 6 
#
# 1 102.4791 36.6666 47.2019 0.0001 -1.8326 0.0000
# 2 36.6666 102.4791 47.2019 -0.0001 1.8326 0.0000
# 3 47.2019 47.2019 126.4928 0.0000 0.0000 0.0000
# 4 0.0001 -0.0001 0.0000 28.4154 0.0000 1.8326
# 5 -1.8326 1.8326 0.0000 0.0000 28.4154 0.0001
# 6 0.0000 0.0000 0.0000 1.8326 0.0001 32.9062
#
#
#
# Elastic Compliance Matrix: (Units=1/GPa)
#
#
# Indices 1 2 3 4 5 6 
#
# 1 0.012436 -0.002813 -0.003591 0.000000 0.000983 0.000000
# 2 -0.002813 0.012436 -0.003591 0.000000 -0.000983 0.000000
# 3 -0.003591 -0.003591 0.010586 0.000000 0.000000 0.000000
# 4 0.000000 0.000000 0.000000 0.035319 0.000000 -0.001967
# 5 0.000983 -0.000983 0.000000 0.000000 0.035319 0.000000
# 6 0.000000 0.000000 0.000000 -0.001967 0.000000 0.030499
#
#
# Mechanical properties :
#
#
# Convention : Reuss Voigt Hill
#
# Bulk Modulus (GPa) = 64.65007 65.95465 65.30236
# Shear Modulus (GPa) = 30.91360 31.30609 31.10984
#
# Velocity S-wave (km/s) = 3.86051 3.88494 3.87274
# Velocity P-wave (km/s) = 7.14418 7.20559 7.17495
#
# Compressibility (1/GPa) = 0.01546789
#
# Stress axis : x y z
#
# Youngs Moduli (GPa) = 80.41033 80.41033 94.46847
#
# Poissons Ratio (x) = 0.22621 0.33923
# Poissons Ratio (y) = 0.22621 0.33923
# Poissons Ratio (z) = 0.28875 0.28875
#
# Static dielectric constant tensor:
#      x y z
#    x 3.828240 0.000000 0.000000 
#    y 0.000000 3.828240 0.000000 
#    z 0.000000 0.000000 3.751870 
# 
# 
# High freq. dielectric constant tensor:
#      x y z
#    x 1.803850 0.000000 0.000000 
#    y 0.000000 1.803850 0.000000 
#    z 0.000000 0.000000 1.819150 
# 
# From -- ./inp_files/2580.got.cif
#   From: 2010.03.12/outbox.cif.g09.slc.cpg/sg151_2_cif.got.tgz:2580.got - 2010.04.03 13:42:29.
