data_PCOD8322468
_publ_section_title
;
Structure prediction by ZEFSAII (Michael W. Deem and Ramdas Pophale) SiO2 
 PCOD8322468
Probable space group: R 3 2
;
_chemical_formula_sum "Si O2"
_cell_formula_units_Z 108
_cell_length_a 14.120245
_cell_length_b 14.120245
_cell_length_c 28.858109
_cell_angle_alpha 90.000000
_cell_angle_beta 90.000000
_cell_angle_gamma 120.000000
_cell_volume 4982.909110
_symmetry_space_group_name_H-M "R 3 2"
_symmetry_group_IT_number 155
_symmetry_cell_setting 'hexagonal'
loop_
_space_group_symop_operation_xyz
x,y,z
-y,x-y,z
-x+y,-x,z
x-y,-y,-z
-x,-x+y,-z
y,x,-z
2/3+x,1/3+y,1/3+z
2/3-y,1/3+x-y,1/3+z
2/3-x+y,1/3-x,1/3+z
2/3+x-y,1/3-y,1/3-z
2/3-x,1/3-x+y,1/3-z
2/3+y,1/3+x,1/3-z
1/3+x,2/3+y,2/3+z
1/3-y,2/3+x-y,2/3+z
1/3-x+y,2/3-x,2/3+z
1/3+x-y,2/3-y,2/3-z
1/3-x,2/3-x+y,2/3-z
1/3+y,2/3+x,2/3-z
loop_
_atom_site_type_symbol
_atom_site_label
_atom_site_fract_x
_atom_site_fract_y
_atom_site_fract_z
Si Si1 0.771667 0.589714 0.454004
Si Si2 0.058830 0.565442 0.132192
Si Si3 0.330815 0.897728 0.062925
Si Si4 0.135733 0.482062 0.373367
Si Si5 0.823923 0.997307 0.241750
Si Si6 0.251794 0.455564 0.813889
O O1 0.791847 0.648860 0.503846
O O2 0.806399 0.683089 0.415167
O O3 0.848984 0.536538 0.446525
O O4 0.644524 0.497735 0.452513
O O5 0.132719 0.666667 0.166667
O O6 0.130909 0.532956 0.099039
O O7 0.973951 0.584401 0.100820
O O8 0.386456 0.026141 0.054604
O O9 0.319344 0.835195 0.015230
O O10 0.091204 0.559180 0.394174
O O11 0.252876 0.520371 0.395801
O O12 0.891660 0.028681 0.193213
O O13 0.196052 0.333334 0.833334
#
# Coordination Sequence:
#
# PCOD8322468 Si02
#       6
#    18  18  18  18  18  18
#     4  11  21  37  62  90 122 159 203 262 321 371
#     4  10  21  36  58  89 123 158 203 254 304 367
#     4  10  22  39  58  84 121 168 205 237 310 381
#     4  10  21  36  58  84 118 160 202 253 300 370
#     4  10  18  33  55  85 115 145 199 257 305 345
#     4  11  21  35  61  96 124 153 201 267 326 368
#
# _framework density 21.674085999999999
#
# number of rings (size 3 to 8) (size 9 to 14) (size 15 to 20)
#    0.000    1.667    0.000    8.167    0.000    2.667 
#    0.000    3.333    0.000   18.667    0.000    0.000 
#    0.000    0.000    0.000    0.000    0.000    0.000 
#
# Total GULP energy -446169.766640 kJ/mol
# GULP energy per Si atom -12393.604629 kJ/mol
# Density = 2.162475 g / cm^3
# Si number density = 21.674086 Si / 1000 Ang^3
#
#
#
# Elastic Constant Matrix: (Units=GPa)
#
#
# Indices 1 2 3 4 5 6 
#
# 1 91.5087 31.9727 39.3490 -6.4173 0.0000 0.0000
# 2 31.9727 91.5087 39.3490 6.4173 0.0000 0.0000
# 3 39.3490 39.3490 115.3351 0.0000 0.0000 0.0000
# 4 -6.4173 6.4173 0.0000 30.5212 0.0000 0.0000
# 5 0.0000 0.0000 0.0000 0.0000 30.5212 -6.4173
# 6 0.0000 0.0000 0.0000 0.0000 -6.4173 29.7680
#
#
#
# Elastic Compliance Matrix: (Units=1/GPa)
#
#
# Indices 1 2 3 4 5 6 
#
# 1 0.013971 -0.003623 -0.003531 0.003699 0.000000 0.000000
# 2 -0.003623 0.013971 -0.003531 -0.003699 0.000000 0.000000
# 3 -0.003531 -0.003531 0.011079 0.000000 0.000000 0.000000
# 4 0.003699 -0.003699 0.000000 0.034320 0.000000 0.000000
# 5 0.000000 0.000000 0.000000 0.000000 0.034320 0.007399
# 6 0.000000 0.000000 0.000000 0.000000 0.007399 0.035188
#
#
# Mechanical properties :
#
#
# Convention : Reuss Voigt Hill
#
# Bulk Modulus (GPa) = 56.64416 57.74378 57.19397
# Shear Modulus (GPa) = 29.39410 30.67420 30.03415
#
# Velocity S-wave (km/s) = 3.68664 3.76606 3.72656
# Velocity P-wave (km/s) = 6.65680 6.75356 6.70536
#
# Compressibility (1/GPa) = 0.01765407
#
# Stress axis : x y z
#
# Youngs Moduli (GPa) = 71.57535 71.57535 90.25690
#
# Poissons Ratio (x) = 0.25930 0.31866
# Poissons Ratio (y) = 0.25930 0.31866
# Poissons Ratio (z) = 0.25271 0.25271
#
# Static dielectric constant tensor:
#      x y z
#    x 3.857800 0.000000 0.000000 
#    y 0.000000 3.857800 0.000000 
#    z 0.000000 0.000000 4.019080 
# 
# 
# High freq. dielectric constant tensor:
#      x y z
#    x 1.844710 0.000000 0.000000 
#    y 0.000000 1.844710 0.000000 
#    z 0.000000 0.000000 1.831190 
# 
# From -- ./inp_files/8427.got.cif
#   From: 2010.03.12/outbox.cif.g09.slc.cpg/sg155_5_cif.got.tgz:8427.got - 2010.04.03 13:54:13.
