data_PCOD8322530
_publ_section_title
;
Structure prediction by ZEFSAII (Michael W. Deem and Ramdas Pophale) SiO2 
 PCOD8322530
Probable space group: R 3 2
;
_chemical_formula_sum "Si O2"
_cell_formula_units_Z 81
_cell_length_a 20.354446
_cell_length_b 20.354446
_cell_length_c 11.488101
_cell_angle_alpha 90.000000
_cell_angle_beta 90.000000
_cell_angle_gamma 120.000000
_cell_volume 4121.899984
_symmetry_space_group_name_H-M "R 3 2"
_symmetry_group_IT_number 155
_symmetry_cell_setting 'hexagonal'
loop_
_space_group_symop_operation_xyz
x,y,z
-y,x-y,z
-x+y,-x,z
x-y,-y,-z
-x,-x+y,-z
y,x,-z
2/3+x,1/3+y,1/3+z
2/3-y,1/3+x-y,1/3+z
2/3-x+y,1/3-x,1/3+z
2/3+x-y,1/3-y,1/3-z
2/3-x,1/3-x+y,1/3-z
2/3+y,1/3+x,1/3-z
1/3+x,2/3+y,2/3+z
1/3-y,2/3+x-y,2/3+z
1/3-x+y,2/3-x,2/3+z
1/3+x-y,2/3-y,2/3-z
1/3-x,2/3-x+y,2/3-z
1/3+y,2/3+x,2/3-z
loop_
_atom_site_type_symbol
_atom_site_label
_atom_site_fract_x
_atom_site_fract_y
_atom_site_fract_z
Si Si1 0.190558 0.745483 0.900010
Si Si2 0.548494 0.662449 0.958250
Si Si3 0.416249 0.465917 0.668346
Si Si4 0.312258 0.000000 0.500000
Si Si5 0.589770 0.834030 0.399309
O O1 0.278216 0.796733 0.938505
O O2 0.188341 0.741715 0.758724
O O3 0.147873 0.661576 0.955574
O O4 0.147571 0.785937 0.952226
O O5 0.592847 0.655124 0.847144
O O6 0.477167 0.581189 0.988977
O O7 0.609357 0.688162 0.060560
O O8 0.333334 0.388564 0.666667
O O9 0.438460 0.500451 0.796654
O O10 0.666667 0.896291 0.333334
#
# Coordination Sequence:
#
# PCOD8322530 Si02
#       5
#    18  18  18   9  18
#     4  10  21  36  60  85 115 156 194 250 297 358
#     4  11  22  38  57  91 116 160 202 248 311 353
#     4   9  19  37  58  86 113 145 198 241 303 352
#     4  10  20  38  60  82 126 148 202 258 292 370
#     4  11  22  39  58  87 122 158 198 252 298 366
#
# _framework density 19.651130999999999
#
# number of rings (size 3 to 8) (size 9 to 14) (size 15 to 20)
#    0.000    1.778    2.222    3.333    0.000    5.333 
#    1.333    0.000    0.000    0.000    0.000    0.000 
#    0.000    0.000    0.000    0.000    0.000    0.000 
#
# Total GULP energy -334612.414527 kJ/mol
# GULP energy per Si atom -12393.052390 kJ/mol
# Density = 1.960640 g / cm^3
# Si number density = 19.651131 Si / 1000 Ang^3
#
#
#
# Elastic Constant Matrix: (Units=GPa)
#
#
# Indices 1 2 3 4 5 6 
#
# 1 111.2435 41.0117 31.0283 0.0215 0.0001 0.0000
# 2 41.0117 111.2435 31.0283 -0.0215 -0.0001 0.0000
# 3 31.0283 31.0283 80.3876 0.0000 0.0000 0.0000
# 4 0.0215 -0.0215 0.0000 19.2407 0.0000 -0.0001
# 5 0.0001 -0.0001 0.0000 0.0000 19.2407 0.0215
# 6 0.0000 0.0000 0.0000 -0.0001 0.0215 35.1159
#
#
#
# Elastic Compliance Matrix: (Units=1/GPa)
#
#
# Indices 1 2 3 4 5 6 
#
# 1 0.011016 -0.003222 -0.003008 -0.000016 0.000000 0.000000
# 2 -0.003222 0.011016 -0.003008 0.000016 0.000000 0.000000
# 3 -0.003008 -0.003008 0.014762 0.000000 0.000000 0.000000
# 4 -0.000016 0.000016 0.000000 0.051973 0.000000 0.000000
# 5 0.000000 0.000000 0.000000 0.000000 0.051973 -0.000032
# 6 0.000000 0.000000 0.000000 0.000000 -0.000032 0.028477
#
#
# Mechanical properties :
#
#
# Convention : Reuss Voigt Hill
#
# Bulk Modulus (GPa) = 54.59493 56.55680 55.57587
# Shear Modulus (GPa) = 25.79954 28.03987 26.91970
#
# Velocity S-wave (km/s) = 3.62730 3.78151 3.70521
# Velocity P-wave (km/s) = 6.73687 6.92166 6.82989
#
# Compressibility (1/GPa) = 0.01831672
#
# Stress axis : x y z
#
# Youngs Moduli (GPa) = 90.77425 90.77425 67.74099
#
# Poissons Ratio (x) = 0.29250 0.20379
# Poissons Ratio (y) = 0.29250 0.20379
# Poissons Ratio (z) = 0.27308 0.27308
#
# Static dielectric constant tensor:
#      x y z
#    x 3.515810 0.000000 0.000000 
#    y 0.000000 3.515810 0.000000 
#    z 0.000000 0.000000 3.885000 
# 
# 
# High freq. dielectric constant tensor:
#      x y z
#    x 1.749640 0.000000 0.000000 
#    y 0.000000 1.749640 0.000000 
#    z 0.000000 0.000000 1.771230 
# 
# From -- ./inp_files/3788.got.cif
#   From: 2010.03.12/outbox.cif.g09.slc.cpg/sg155_2_cif.got.tgz:3788.got - 2010.04.03 13:54:13.
