data_PCOD8322697
_publ_section_title
;
Structure prediction by ZEFSAII (Michael W. Deem and Ramdas Pophale) SiO2 
 PCOD8322697
Probable space group: P 3 M 1
;
_chemical_formula_sum "Si O2"
_cell_formula_units_Z 48
_cell_length_a 12.657638
_cell_length_b 12.657638
_cell_length_c 20.424455
_cell_angle_alpha 90.000000
_cell_angle_beta 90.000000
_cell_angle_gamma 120.000000
_cell_volume 2833.912589
_symmetry_space_group_name_H-M "P 3 M 1"
_symmetry_group_IT_number 156
_symmetry_cell_setting 'hexagonal'
loop_
_space_group_symop_operation_xyz
x,y,z
-y,x-y,z
-x+y,-x,z
-x+y,y,z
x,x-y,z
-y,-x,z
loop_
_atom_site_type_symbol
_atom_site_label
_atom_site_fract_x
_atom_site_fract_y
_atom_site_fract_z
Si Si1 0.913793 0.582238 0.520430
Si Si2 0.912787 0.333071 0.277770
Si Si3 0.089167 0.666637 0.161141
Si Si4 0.247307 0.245953 0.642172
Si Si5 0.332274 0.421590 0.014240
Si Si6 0.248602 0.001883 0.399143
Si Si7 0.421441 0.088934 0.905832
Si Si8 0.421556 0.333075 0.758339
O O1 0.772332 0.544663 0.516944
O O2 0.922500 0.461250 0.518967
O O3 0.987557 0.665930 0.459376
O O4 0.976625 0.655939 0.585973
O O5 0.914218 0.457109 0.295279
O O6 0.773614 0.226387 0.273342
O O7 0.986369 0.307312 0.332926
O O8 0.977420 0.341142 0.208895
O O9 0.129527 0.564764 0.165953
O O10 0.204994 0.795007 0.181040
O O11 0.043232 0.670710 0.087725
O O12 0.128907 0.257814 0.632192
O O13 0.309584 0.305874 0.711188
O O14 0.207626 0.103813 0.639385
O O15 0.222203 0.444406 0.002550
O O16 0.451348 0.548653 0.001762
O O17 0.325341 0.327047 0.959375
O O18 0.210302 0.105151 0.403663
O O19 0.128441 0.871560 0.401065
O O20 0.552991 0.105981 0.917843
O O21 0.435398 0.217699 0.918977
O O22 0.375914 0.042018 0.832093
O O23 0.459840 0.229920 0.750079
O O24 0.538583 0.461418 0.739688
#
# Coordination Sequence:
#
# PCOD8322697 Si02
#       8
#     6   6   6   6   6   6   6   6
#     4  10  20  34  54  78 102 128 159 197 238 280
#     4  10  20  33  50  72  99 129 159 194 237 285
#     4   9  17  30  48  69  92 120 156 197 239 281
#     4  10  20  33  50  71  96 126 159 196 236 280
#     4   9  17  29  46  67  91 121 157 196 235 277
#     4  10  20  34  53  75  99 128 162 199 235 274
#     4   9  17  29  46  69  95 123 155 192 237 285
#     4   9  17  30  49  71  94 121 155 197 241 284
#
# _framework density 16.937712999999999
#
# number of rings (size 3 to 8) (size 9 to 14) (size 15 to 20)
#    0.000    2.500    0.000    2.500    0.000    3.000 
#    0.000    3.750    0.000    9.750    0.000    0.000 
#    0.000    0.000    0.000    0.000    0.000    0.000 
#
# Total GULP energy -595198.495847 kJ/mol
# GULP energy per Si atom -12399.968663 kJ/mol
# Density = 1.689916 g / cm^3
# Si number density = 16.937713 Si / 1000 Ang^3
#
#
#
# Elastic Constant Matrix: (Units=GPa)
#
#
# Indices 1 2 3 4 5 6 
#
# 1 96.6751 50.5373 54.9769 2.6375 0.0002 0.0000
# 2 50.5373 96.6751 54.9769 -2.6375 -0.0002 0.0000
# 3 54.9769 54.9769 118.6322 0.0000 0.0000 0.0000
# 4 2.6375 -2.6375 0.0000 24.9797 0.0000 -0.0002
# 5 0.0002 -0.0002 0.0000 0.0000 24.9797 2.6375
# 6 0.0000 0.0000 0.0000 -0.0002 2.6375 23.0689
#
#
#
# Elastic Compliance Matrix: (Units=1/GPa)
#
#
# Indices 1 2 3 4 5 6 
#
# 1 0.016164 -0.005775 -0.004814 -0.002316 0.000000 0.000000
# 2 -0.005775 0.016164 -0.004814 0.002316 0.000000 0.000000
# 3 -0.004814 -0.004814 0.012892 0.000000 0.000000 0.000000
# 4 -0.002316 0.002316 0.000000 0.040522 0.000000 0.000000
# 5 0.000000 0.000000 0.000000 0.000000 0.040522 -0.004633
# 6 0.000000 0.000000 0.000000 0.000000 -0.004633 0.043878
#
#
# Mechanical properties :
#
#
# Convention : Reuss Voigt Hill
#
# Bulk Modulus (GPa) = 69.38855 70.32943 69.85899
# Shear Modulus (GPa) = 24.30100 24.70506 24.50303
#
# Velocity S-wave (km/s) = 3.79189 3.82328 3.80762
# Velocity P-wave (km/s) = 7.76061 7.81681 7.78876
#
# Compressibility (1/GPa) = 0.01441160
#
# Stress axis : x y z
#
# Youngs Moduli (GPa) = 61.86614 61.86614 77.56956
#
# Poissons Ratio (x) = 0.35728 0.37345
# Poissons Ratio (y) = 0.35728 0.37345
# Poissons Ratio (z) = 0.29785 0.29785
#
# Static dielectric constant tensor:
#      x y z
#    x 3.045290 0.000000 0.000000 
#    y 0.000000 3.045290 0.000000 
#    z 0.000000 0.000000 3.510620 
# 
# 
# High freq. dielectric constant tensor:
#      x y z
#    x 1.643360 0.000000 0.000000 
#    y 0.000000 1.643360 0.000000 
#    z 0.000000 0.000000 1.671720 
# 
# From -- ./inp_files/1098.got.cif
#   From: 2010.03.12/outbox.cif.g09.slc.cpg/sg156_cif.got.tgz:1098.got - 2010.04.03 13:58:47.
