data_PCOD8322952
_publ_section_title
;
Structure prediction by ZEFSAII (Michael W. Deem and Ramdas Pophale) SiO2 
 PCOD8322952
Probable space group: P -3 1 M 
;
_chemical_formula_sum "Si O2"
_cell_formula_units_Z 78
_cell_length_a 20.227742
_cell_length_b 20.227742
_cell_length_c 13.056612
_cell_angle_alpha 90.000000
_cell_angle_beta 90.000000
_cell_angle_gamma 120.000000
_cell_volume 4626.535954
_symmetry_space_group_name_H-M "P -3 1 M "
_symmetry_group_IT_number 162
_symmetry_cell_setting 'hexagonal'
loop_
_space_group_symop_operation_xyz
x,y,z
-y,x-y,z
-x+y,-x,z
-y,-x,-z
-x+y,y,-z
x,x-y,-z
-x,-y,-z
y,-x+y,-z
x-y,x,-z
y,x,z
x-y,-y,z
-x,-x+y,z
loop_
_atom_site_type_symbol
_atom_site_label
_atom_site_fract_x
_atom_site_fract_y
_atom_site_fract_z
Si Si1 0.681049 0.085309 0.371502
Si Si2 0.420732 0.909292 0.785799
Si Si3 0.342816 0.433421 0.818180
Si Si4 0.412249 0.321695 0.044624
Si Si5 0.785766 0.695955 0.300359
Si Si6 0.638924 0.819462 0.500000
Si Si7 0.084299 0.297535 0.808635
O O1 0.626194 0.113299 0.321083
O O2 0.733565 0.146847 0.456948
O O3 0.733363 0.081571 0.283282
O O4 0.631200 0.000000 0.420375
O O5 0.479045 0.876750 0.783123
O O6 0.363883 0.875855 0.883735
O O7 0.466471 0.000000 0.795131
O O8 0.390028 0.390028 0.825517
O O9 0.275115 0.390231 0.736038
O O10 0.309477 0.434543 0.930498
O O11 0.374674 0.374674 0.042197
O O12 0.350584 0.239169 0.090170
O O13 0.751756 0.751756 0.299914
O O14 0.816031 0.693496 0.413046
O O15 0.855950 0.730362 0.219447
O O16 0.000000 0.224097 0.824456
#
# Coordination Sequence:
#
# PCOD8322952 Si02
#       7
#    12  12  12  12  12   6  12
#     4   8  14  25  42  62  83 112 151 193 235 281
#     4   8  13  23  40  63  93 122 142 166 210 268
#     4   9  16  25  39  65  99 121 138 173 219 267
#     4   8  13  23  42  66  93 126 150 164 199 265
#     4  10  20  31  45  67  92 118 153 202 255 296
#     4  10  18  30  44  56  81 120 162 204 245 296
#     4   8  15  28  45  65  91 124 157 187 227 288
#
# _framework density 16.859266000000002
#
# number of rings (size 3 to 8) (size 9 to 14) (size 15 to 20)
#    0.000    3.385    0.000    2.769    0.000    3.077 
#    0.000    0.769    0.000    4.000    0.000    0.538 
#   55.385    0.000    8.308    7.692    0.000    0.000 
#
# Total GULP energy -966503.039769 kJ/mol
# GULP energy per Si atom -12391.064612 kJ/mol
# Density = 1.682089 g / cm^3
# Si number density = 16.859266 Si / 1000 Ang^3
#
#
#
# Elastic Constant Matrix: (Units=GPa)
#
#
# Indices 1 2 3 4 5 6 
#
# 1 74.3436 43.6624 45.4277 -0.0001 -0.9302 0.0000
# 2 43.6624 74.3436 45.4277 0.0001 0.9302 0.0000
# 3 45.4277 45.4277 78.3866 0.0000 0.0000 0.0000
# 4 -0.0001 0.0001 0.0000 23.2824 0.0000 0.9302
# 5 -0.9302 0.9302 0.0000 0.0000 23.2824 -0.0001
# 6 0.0000 0.0000 0.0000 0.9302 -0.0001 15.3406
#
#
#
# Elastic Compliance Matrix: (Units=1/GPa)
#
#
# Indices 1 2 3 4 5 6 
#
# 1 0.023987 -0.008685 -0.008868 0.000000 0.001305 0.000000
# 2 -0.008685 0.023987 -0.008868 0.000000 -0.001305 0.000000
# 3 -0.008868 -0.008868 0.023036 0.000000 0.000000 0.000000
# 4 0.000000 0.000000 0.000000 0.043055 0.000000 -0.002611
# 5 0.001305 -0.001305 0.000000 0.000000 0.043055 0.000000
# 6 0.000000 0.000000 0.000000 -0.002611 0.000000 0.065345
#
#
# Mechanical properties :
#
#
# Convention : Reuss Voigt Hill
#
# Bulk Modulus (GPa) = 55.04274 55.12329 55.08301
# Shear Modulus (GPa) = 17.77059 18.55144 18.16102
#
# Velocity S-wave (km/s) = 3.25014 3.32078 3.28565
# Velocity P-wave (km/s) = 6.84133 6.88989 6.86565
#
# Compressibility (1/GPa) = 0.01816770
#
# Stress axis : x y z
#
# Youngs Moduli (GPa) = 41.68907 41.68907 43.41075
#
# Poissons Ratio (x) = 0.36209 0.38496
# Poissons Ratio (y) = 0.36209 0.38496
# Poissons Ratio (z) = 0.36969 0.36969
#
# Static dielectric constant tensor:
#      x y z
#    x 3.138460 0.000000 0.000000 
#    y 0.000000 3.138460 0.000000 
#    z 0.000000 0.000000 3.361200 
# 
# 
# High freq. dielectric constant tensor:
#      x y z
#    x 1.615580 0.000000 0.000000 
#    y 0.000000 1.615580 0.000000 
#    z 0.000000 0.000000 1.651770 
# 
# From -- ./inp_files/3285.got.cif
#   From: 2010.03.12/outbox.cif.g09.slc.cpg/sg162_2_cif.got.tgz:3285.got - 2010.04.02 06:27:41.
