data_PCOD8322347
_publ_section_title
;
Structure prediction by ZEFSAII (Michael W. Deem and Ramdas Pophale) SiO2 
 PCOD8322347
Probable space group: P 32 2 1
;
_chemical_formula_sum "Si O2"
_cell_formula_units_Z 33
_cell_length_a 8.788743
_cell_length_b 8.788743
_cell_length_c 25.839131
_cell_angle_alpha 90.000000
_cell_angle_beta 90.000000
_cell_angle_gamma 120.000000
_cell_volume 1728.470873
_symmetry_space_group_name_H-M "P 32 2 1"
_symmetry_group_IT_number 154
_symmetry_cell_setting 'hexagonal'
loop_
_space_group_symop_operation_xyz
x,y,z
-y,x-y,2/3+z
-x+y,-x,1/3+z
x-y,-y,1/3-z
-x,-x+y,2/3-z
y,x,-z
loop_
_atom_site_type_symbol
_atom_site_label
_atom_site_fract_x
_atom_site_fract_y
_atom_site_fract_z
Si Si1 0.000000 0.549773 0.833334
Si Si2 0.146231 0.826467 0.918242
Si Si3 0.509472 0.853800 0.896378
Si Si4 0.316295 0.489495 0.848375
Si Si5 0.983805 0.798917 0.024083
Si Si6 0.946224 0.863970 0.442977
O O1 0.991913 0.655422 0.783254
O O2 0.830104 0.359412 0.841794
O O3 0.331667 0.843358 0.911684
O O4 0.159718 0.008152 0.900757
O O5 0.098914 0.785541 0.978325
O O6 0.476255 0.673324 0.869172
O O7 0.612293 0.871737 0.948862
O O8 0.618157 0.023096 0.861084
O O9 0.232688 0.341638 0.893737
O O10 0.844342 0.844342 0.000000
O O11 0.109123 0.941828 0.066012
O O12 0.899285 0.899285 0.500000
#
# Coordination Sequence:
#
# PCOD8322347 Si02
#       6
#     3   6   6   6   6   6
#     4  10  20  38  60  88 116 168 208 242 298 378
#     4  10  23  38  62  90 121 160 208 247 310 368
#     4  11  23  38  59  93 124 155 203 261 302 365
#     4  11  22  37  63  91 119 161 207 250 307 365
#     4  10  23  40  60  85 120 164 197 245 310 368
#     4  11  19  40  65  83 119 162 204 250 304 370
#
# _framework density 19.092017999999999
#
# number of rings (size 3 to 8) (size 9 to 14) (size 15 to 20)
#    0.000    1.455    3.636    1.091    0.000    5.818 
#    0.000    4.545    0.000    0.000    0.000    0.000 
#    0.000    0.000    0.000    0.000    0.000    0.000 
#
# Total GULP energy -409187.987721 kJ/mol
# GULP energy per Si atom -12399.635992 kJ/mol
# Density = 1.904856 g / cm^3
# Si number density = 19.092018 Si / 1000 Ang^3
#
#
#
# Elastic Constant Matrix: (Units=GPa)
#
#
# Indices 1 2 3 4 5 6 
#
# 1 96.8788 45.4387 53.1757 5.7943 0.0001 0.0000
# 2 45.4387 96.8788 53.1757 -5.7943 -0.0001 0.0000
# 3 53.1757 53.1757 139.1251 0.0000 0.0000 0.0000
# 4 5.7943 -5.7943 0.0000 29.4217 0.0000 -0.0001
# 5 0.0001 -0.0001 0.0000 0.0000 29.4217 5.7943
# 6 0.0000 0.0000 0.0000 -0.0001 5.7943 25.7200
#
#
#
# Elastic Compliance Matrix: (Units=1/GPa)
#
#
# Indices 1 2 3 4 5 6 
#
# 1 0.015089 -0.005253 -0.003759 -0.004006 0.000000 0.000000
# 2 -0.005253 0.015089 -0.003759 0.004006 0.000000 0.000000
# 3 -0.003759 -0.003759 0.010062 0.000000 0.000000 0.000000
# 4 -0.004006 0.004006 0.000000 0.035567 0.000000 0.000000
# 5 0.000000 0.000000 0.000000 0.000000 0.035567 -0.008013
# 6 0.000000 0.000000 0.000000 0.000000 -0.008013 0.040685
#
#
# Mechanical properties :
#
#
# Convention : Reuss Voigt Hill
#
# Bulk Modulus (GPa) = 68.04721 70.71810 69.38265
# Shear Modulus (GPa) = 27.39702 28.98551 28.19126
#
# Velocity S-wave (km/s) = 3.79225 3.90064 3.84682
# Velocity P-wave (km/s) = 7.40904 7.57679 7.49338
#
# Compressibility (1/GPa) = 0.01469568
#
# Stress axis : x y z
#
# Youngs Moduli (GPa) = 66.27220 66.27220 99.38782
#
# Poissons Ratio (x) = 0.34815 0.37364
# Poissons Ratio (y) = 0.34815 0.37364
# Poissons Ratio (z) = 0.24915 0.24915
#
# Static dielectric constant tensor:
#      x y z
#    x 3.806310 0.000000 0.000000 
#    y 0.000000 3.806310 0.000000 
#    z 0.000000 0.000000 3.976340 
# 
# 
# High freq. dielectric constant tensor:
#      x y z
#    x 1.751590 0.000000 0.000000 
#    y 0.000000 1.751590 0.000000 
#    z 0.000000 0.000000 1.737540 
# 
# From -- ./inp_files/3384.got.cif
#   From: 2010.03.12/outbox.cif.g09.slc.cpg/sg154_2_cif.got.tgz:3384.got - 2010.04.03 13:51:21.
