data_PCOD8322045
_publ_section_title
;
Structure prediction by ZEFSAII (Michael W. Deem and Ramdas Pophale) SiO2 
 PCOD8322045
Probable space group: P 31 2 1
;
_chemical_formula_sum "Si O2"
_cell_formula_units_Z 30
_cell_length_a 11.987223
_cell_length_b 11.987223
_cell_length_c 14.783045
_cell_angle_alpha 90.000000
_cell_angle_beta 90.000000
_cell_angle_gamma 120.000000
_cell_volume 1839.635154
_symmetry_space_group_name_H-M "P 31 2 1"
_symmetry_group_IT_number 152
_symmetry_cell_setting 'hexagonal'
loop_
_space_group_symop_operation_xyz
x,y,z
-y,x-y,1/3+z
-x+y,-x,2/3+z
x-y,-y,2/3-z
-x,-x+y,1/3-z
y,x,-z
loop_
_atom_site_type_symbol
_atom_site_label
_atom_site_fract_x
_atom_site_fract_y
_atom_site_fract_z
Si Si1 0.417169 0.649888 0.089905
Si Si2 0.377943 0.367981 0.898905
Si Si3 0.705431 0.859832 0.100101
Si Si4 0.264888 0.138001 0.442022
Si Si5 0.548241 0.205669 0.446610
O O1 0.347274 0.499053 0.115403
O O2 0.568895 0.729222 0.115704
O O3 0.333490 0.696223 0.144323
O O4 0.406031 0.676721 0.984790
O O5 0.263093 0.287951 0.827731
O O6 0.441904 0.520020 0.886843
O O7 0.322184 0.322184 0.000000
O O8 0.818676 0.831736 0.128126
O O9 0.728792 0.905312 0.996290
O O10 0.220859 0.220859 0.500000
O O11 0.405797 0.171422 0.473111
#
# Coordination Sequence:
#
# PCOD8322045 Si02
#       5
#     6   6   6   6   6
#     4   9  16  29  51  72  95 117 153 202 236 274
#     4   9  16  30  52  72  94 120 155 202 234 272
#     4   9  18  33  49  71  92 124 165 189 229 281
#     4  10  19  33  50  67  96 130 160 188 225 287
#     4   9  17  29  48  73  94 123 157 190 236 280
#
# _framework density 16.307580999999999
#
# number of rings (size 3 to 8) (size 9 to 14) (size 15 to 20)
#    0.000    2.800    2.000    0.000    0.000    1.600 
#    3.600    0.000    0.000    1.200    0.000    0.000 
#    0.000    0.000    0.000    0.000    0.000    0.000 
#
# Total GULP energy -371872.917250 kJ/mol
# GULP energy per Si atom -12395.763908 kJ/mol
# Density = 1.627046 g / cm^3
# Si number density = 16.307581 Si / 1000 Ang^3
#
#
#
# Elastic Constant Matrix: (Units=GPa)
#
#
# Indices 1 2 3 4 5 6 
#
# 1 81.8482 37.3809 54.9016 9.5484 0.0000 0.0000
# 2 37.3809 81.8482 54.9016 -9.5484 0.0000 0.0000
# 3 54.9016 54.9016 86.0136 0.0000 0.0000 0.0000
# 4 9.5484 -9.5484 0.0000 28.1081 0.0000 0.0000
# 5 0.0000 0.0000 0.0000 0.0000 28.1081 9.5484
# 6 0.0000 0.0000 0.0000 0.0000 9.5484 22.2336
#
#
#
# Elastic Compliance Matrix: (Units=1/GPa)
#
#
# Indices 1 2 3 4 5 6 
#
# 1 0.023339 -0.002990 -0.012988 -0.008944 0.000000 0.000000
# 2 -0.002990 0.023339 -0.012988 0.008944 0.000000 0.000000
# 3 -0.012988 -0.012988 0.028207 0.000000 0.000000 0.000000
# 4 -0.008944 0.008944 0.000000 0.041654 0.000000 0.000000
# 5 0.000000 0.000000 0.000000 0.000000 0.041654 -0.017889
# 6 0.000000 0.000000 0.000000 0.000000 -0.017889 0.052659
#
#
# Mechanical properties :
#
#
# Convention : Reuss Voigt Hill
#
# Bulk Modulus (GPa) = 58.99455 60.45312 59.72383
# Shear Modulus (GPa) = 18.21914 22.52502 20.37208
#
# Velocity S-wave (km/s) = 3.34611 3.72056 3.53829
# Velocity P-wave (km/s) = 7.15425 7.45707 7.30723
#
# Compressibility (1/GPa) = 0.01695072
#
# Stress axis : x y z
#
# Youngs Moduli (GPa) = 42.84634 42.84634 35.45245
#
# Poissons Ratio (x) = 0.12813 0.46047
# Poissons Ratio (y) = 0.12813 0.46047
# Poissons Ratio (z) = 0.55651 0.55651
#
# Static dielectric constant tensor:
#      x y z
#    x 2.985500 0.000000 0.000000 
#    y 0.000000 2.985500 0.000000 
#    z 0.000000 0.000000 3.163210 
# 
# 
# High freq. dielectric constant tensor:
#      x y z
#    x 1.613140 0.000000 0.000000 
#    y 0.000000 1.613140 0.000000 
#    z 0.000000 0.000000 1.626930 
# 
# From -- ./inp_files/1941.got.cif
#   From: 2010.03.12/outbox.cif.g09.slc.cpg/sg152_1_cif.got.tgz:1941.got - 2010.04.03 13:45:27.
