data_PCOD8322261
_publ_section_title
;
Structure prediction by ZEFSAII (Michael W. Deem and Ramdas Pophale) SiO2 
 PCOD8322261
Probable space group: P 32 1 2
;
_chemical_formula_sum "Si O2"
_cell_formula_units_Z 42
_cell_length_a 8.990780
_cell_length_b 8.990780
_cell_length_c 30.232285
_cell_angle_alpha 90.000000
_cell_angle_beta 90.000000
_cell_angle_gamma 120.000000
_cell_volume 2116.393146
_symmetry_space_group_name_H-M "P 32 1 2"
_symmetry_group_IT_number 153
_symmetry_cell_setting 'hexagonal'
loop_
_space_group_symop_operation_xyz
x,y,z
-y,x-y,2/3+z
-x+y,-x,1/3+z
-y,-x,1/3-z
-x+y,y,2/3-z
x,x-y,-z
loop_
_atom_site_type_symbol
_atom_site_label
_atom_site_fract_x
_atom_site_fract_y
_atom_site_fract_z
Si Si1 0.603869 0.769449 0.590290
Si Si2 0.980835 0.997697 0.572099
Si Si3 0.580782 0.419219 0.166667
Si Si4 0.497437 0.502564 0.666667
Si Si5 0.532028 0.432676 0.798839
Si Si6 0.535603 0.949784 0.113873
Si Si7 0.743455 0.940764 0.839945
Si Si8 0.860209 0.200695 0.066153
O O1 0.535262 0.661911 0.635412
O O2 0.618145 0.653349 0.552649
O O3 0.465192 0.821328 0.575697
O O4 0.795382 0.938188 0.594378
O O5 0.044226 0.130415 0.532014
O O6 0.133867 0.098655 0.608228
O O7 0.977362 0.828485 0.552023
O O8 0.703136 0.424012 0.125957
O O9 0.385691 0.346366 0.152101
O O10 0.675082 0.556286 0.692104
O O11 0.520082 0.441238 0.852082
O O12 0.680218 0.607793 0.776856
O O13 0.597994 0.848159 0.145985
O O14 0.662633 0.056065 0.073782
#
# Coordination Sequence:
#
# PCOD8322261 Si02
#       8
#     6   6   3   3   6   6   6   6
#     4  11  24  40  64  88 126 173 216 260 310 381
#     4  10  20  39  59  91 125 164 201 255 316 378
#     4  12  20  30  52  92 132 158 188 240 308 386
#     4  10  26  46  60  84 120 180 228 260 308 368
#     4  11  20  36  58  94 130 158 193 254 331 389
#     4  11  21  38  64  96 122 165 198 264 331 377
#     4  10  22  33  55  99 134 152 193 247 322 400
#     4  10  21  41  65  84 126 166 209 261 314 375
#
# _framework density 19.845085000000001
#
# number of rings (size 3 to 8) (size 9 to 14) (size 15 to 20)
#    0.000    1.429    4.286    1.286    4.000    0.571 
#    0.000    4.286    0.000    0.000    0.000    0.000 
#    0.000    0.000    0.000    0.000    0.000    0.000 
#
# Total GULP energy -520334.934048 kJ/mol
# GULP energy per Si atom -12388.927001 kJ/mol
# Density = 1.979992 g / cm^3
# Si number density = 19.845085 Si / 1000 Ang^3
#
#
#
# Elastic Constant Matrix: (Units=GPa)
#
#
# Indices 1 2 3 4 5 6 
#
# 1 126.6041 68.5118 46.9500 0.0002 4.9507 0.0000
# 2 68.5118 126.6041 46.9500 -0.0002 -4.9507 0.0000
# 3 46.9500 46.9500 85.8364 0.0000 0.0000 0.0000
# 4 0.0002 -0.0002 0.0000 20.9618 0.0000 -4.9507
# 5 4.9507 -4.9507 0.0000 0.0000 20.9618 0.0002
# 6 0.0000 0.0000 0.0000 -4.9507 0.0002 29.0462
#
#
#
# Elastic Compliance Matrix: (Units=1/GPa)
#
#
# Indices 1 2 3 4 5 6 
#
# 1 0.012446 -0.005490 -0.003805 0.000000 -0.004236 0.000000
# 2 -0.005490 0.012446 -0.003805 0.000000 0.004236 0.000000
# 3 -0.003805 -0.003805 0.015812 0.000000 0.000000 0.000000
# 4 0.000000 0.000000 0.000000 0.049707 0.000000 0.008472
# 5 -0.004236 0.004236 0.000000 0.000000 0.049707 0.000000
# 6 0.000000 0.000000 0.000000 0.008472 0.000000 0.035872
#
#
# Mechanical properties :
#
#
# Convention : Reuss Voigt Hill
#
# Bulk Modulus (GPa) = 68.93976 73.76311 71.35143
# Shear Modulus (GPa) = 24.15171 25.96946 25.06058
#
# Velocity S-wave (km/s) = 3.49235 3.62139 3.55746
# Velocity P-wave (km/s) = 7.14678 7.39839 7.27367
#
# Compressibility (1/GPa) = 0.01450542
#
# Stress axis : x y z
#
# Youngs Moduli (GPa) = 80.34624 80.34624 63.24162
#
# Poissons Ratio (x) = 0.44109 0.24063
# Poissons Ratio (y) = 0.44109 0.24063
# Poissons Ratio (z) = 0.30571 0.30571
#
# Static dielectric constant tensor:
#      x y z
#    x 3.729160 0.000000 0.000000 
#    y 0.000000 3.729160 0.000000 
#    z 0.000000 0.000000 3.234670 
# 
# 
# High freq. dielectric constant tensor:
#      x y z
#    x 1.784320 0.000000 0.000000 
#    y 0.000000 1.784320 0.000000 
#    z 0.000000 0.000000 1.726450 
# 
# From -- ./inp_files/5242.got.cif
#   From: 2010.03.12/outbox.cif.g09.slc.cpg/sg153_3_cif.got.tgz:5242.got - 2010.04.03 13:48:33.
