data_PCOD8322291
_publ_section_title
;
Structure prediction by ZEFSAII (Michael W. Deem and Ramdas Pophale) SiO2 
 PCOD8322291
Probable space group: P 32 1 2
;
_chemical_formula_sum "Si O2"
_cell_formula_units_Z 18
_cell_length_a 9.970246
_cell_length_b 9.970246
_cell_length_c 9.392287
_cell_angle_alpha 90.000000
_cell_angle_beta 90.000000
_cell_angle_gamma 120.000000
_cell_volume 808.562759
_symmetry_space_group_name_H-M "P 32 1 2"
_symmetry_group_IT_number 153
_symmetry_cell_setting 'hexagonal'
loop_
_space_group_symop_operation_xyz
x,y,z
-y,x-y,2/3+z
-x+y,-x,1/3+z
-y,-x,1/3-z
-x+y,y,2/3-z
x,x-y,-z
loop_
_atom_site_type_symbol
_atom_site_label
_atom_site_fract_x
_atom_site_fract_y
_atom_site_fract_z
Si Si1 0.769467 0.782741 0.218527
Si Si2 0.961512 0.281606 0.240478
Si Si3 0.369222 0.835805 0.053866
O O1 0.898277 0.796553 0.333334
O O2 0.594334 0.668727 0.268817
O O3 0.789987 0.948657 0.181220
O O4 0.774698 0.704781 0.070635
O O5 0.793236 0.206765 0.166667
O O6 0.045529 0.464479 0.214318
O O7 0.228538 0.771462 0.166667
O O8 0.381155 0.690578 0.000000
#
# Coordination Sequence:
#
# PCOD8322291 Si02
#       3
#     6   6   6
#     4  11  26  42  68 103 143 185 236 295 355 423
#     4  11  25  44  67 101 145 185 236 294 354 425
#     4  12  22  45  79 108 138 188 246 299 353 428
#
# _framework density 22.261723
#
# number of rings (size 3 to 8) (size 9 to 14) (size 15 to 20)
#    0.000    0.667    6.667    1.000    9.333    0.000 
#    0.000    3.333    0.000    0.000    0.000    0.000 
#    0.000    0.000    0.000    0.000    0.000    0.000 
#
# Total GULP energy -223078.351086 kJ/mol
# GULP energy per Si atom -12393.241727 kJ/mol
# Density = 2.221105 g / cm^3
# Si number density = 22.261723 Si / 1000 Ang^3
#
#
#
# Elastic Constant Matrix: (Units=GPa)
#
#
# Indices 1 2 3 4 5 6 
#
# 1 114.5691 57.7445 73.5875 0.0003 -6.0679 0.0000
# 2 57.7445 114.5691 73.5875 -0.0003 6.0679 0.0000
# 3 73.5875 73.5875 141.6727 0.0000 0.0000 0.0000
# 4 0.0003 -0.0003 0.0000 29.0305 0.0000 6.0679
# 5 -6.0679 6.0679 0.0000 0.0000 29.0305 0.0003
# 6 0.0000 0.0000 0.0000 6.0679 0.0003 28.4123
#
#
#
# Elastic Compliance Matrix: (Units=1/GPa)
#
#
# Indices 1 2 3 4 5 6 
#
# 1 0.014426 -0.003995 -0.005418 0.000000 0.003850 0.000000
# 2 -0.003995 0.014426 -0.005418 0.000000 -0.003850 0.000000
# 3 -0.005418 -0.005418 0.012687 0.000000 0.000000 0.000000
# 4 0.000000 0.000000 0.000000 0.036056 0.000000 -0.007700
# 5 0.003850 -0.003850 0.000000 0.000000 0.036056 0.000000
# 6 0.000000 0.000000 0.000000 -0.007700 0.000000 0.036841
#
#
# Mechanical properties :
#
#
# Convention : Reuss Voigt Hill
#
# Bulk Modulus (GPa) = 84.19798 86.73887 85.46843
# Shear Modulus (GPa) = 27.15750 28.35412 27.75581
#
# Velocity S-wave (km/s) = 3.49652 3.57272 3.53483
# Velocity P-wave (km/s) = 7.36240 7.48779 7.42536
#
# Compressibility (1/GPa) = 0.01187677
#
# Stress axis : x y z
#
# Youngs Moduli (GPa) = 69.32106 69.32106 78.82083
#
# Poissons Ratio (x) = 0.27691 0.42706
# Poissons Ratio (y) = 0.27691 0.42706
# Poissons Ratio (z) = 0.37559 0.37559
#
# Static dielectric constant tensor:
#      x y z
#    x 4.049910 0.000000 0.000000 
#    y 0.000000 4.049910 0.000000 
#    z 0.000000 0.000000 4.005980 
# 
# 
# High freq. dielectric constant tensor:
#      x y z
#    x 1.868110 0.000000 0.000000 
#    y 0.000000 1.868110 0.000000 
#    z 0.000000 0.000000 1.893710 
# 
# From -- ./inp_files/1248.got.cif
#   From: 2010.03.12/outbox.cif.g09.slc.cpg/sg153_1_cif.got.tgz:1248.got - 2010.04.03 13:48:33.
