data_PCOD8322306
_publ_section_title
;
Structure prediction by ZEFSAII (Michael W. Deem and Ramdas Pophale) SiO2 
 PCOD8322306
Probable space group: P 32 2 1
;
_chemical_formula_sum "Si O2"
_cell_formula_units_Z 42
_cell_length_a 8.349228
_cell_length_b 8.349228
_cell_length_c 29.736896
_cell_angle_alpha 90.000000
_cell_angle_beta 90.000000
_cell_angle_gamma 120.000000
_cell_volume 1795.225082
_symmetry_space_group_name_H-M "P 32 2 1"
_symmetry_group_IT_number 154
_symmetry_cell_setting 'hexagonal'
loop_
_space_group_symop_operation_xyz
x,y,z
-y,x-y,2/3+z
-x+y,-x,1/3+z
x-y,-y,1/3-z
-x,-x+y,2/3-z
y,x,-z
loop_
_atom_site_type_symbol
_atom_site_label
_atom_site_fract_x
_atom_site_fract_y
_atom_site_fract_z
Si Si1 0.480701 0.463688 0.553489
Si Si2 0.810693 0.013599 0.511120
Si Si3 0.108732 0.364071 0.006449
Si Si4 0.238037 0.745331 0.047123
Si Si5 0.286601 0.087339 0.424853
Si Si6 0.693719 0.153634 0.745925
Si Si7 0.869808 0.556482 0.090205
O O1 0.458160 0.458160 0.500000
O O2 0.650844 0.439027 0.571528
O O3 0.291501 0.311375 0.577815
O O4 0.515254 0.655888 0.571241
O O5 0.768175 0.098732 0.468624
O O6 0.005365 0.165966 0.530780
O O7 0.657896 0.987650 0.548319
O O8 0.830997 0.830997 0.500000
O O9 0.238963 0.572103 0.024375
O O10 0.037032 0.216795 0.047528
O O11 0.238614 0.343704 0.968223
O O12 0.920629 0.342799 0.985323
O O13 0.025695 0.695952 0.055230
O O14 0.481840 0.095983 0.431576
O O15 0.510849 0.172332 0.739592
#
# Coordination Sequence:
#
# PCOD8322306 Si02
#       7
#     6   6   6   6   6   6   6
#     4  10  19  35  58  88 118 154 204 256 310 368
#     4  12  23  39  59  87 122 159 201 258 327 381
#     4  10  19  35  56  86 119 158 205 247 314 378
#     4  10  18  33  61  90 121 158 207 266 312 381
#     4  10  23  37  58  85 119 158 198 256 309 381
#     4  10  21  36  60  85 118 160 203 255 309 383
#     4  10  21  39  62  89 114 155 208 258 316 376
#
# _framework density 23.395395000000001
#
# number of rings (size 3 to 8) (size 9 to 14) (size 15 to 20)
#    0.000    1.714    0.000    7.714    0.000    4.000 
#    0.000    2.857    0.000    1.714    0.000    0.000 
#    0.000    0.000    0.000    0.000    0.000    0.000 
#
# Total GULP energy -520442.640633 kJ/mol
# GULP energy per Si atom -12391.491444 kJ/mol
# Density = 2.334215 g / cm^3
# Si number density = 23.395395 Si / 1000 Ang^3
#
#
#
# Elastic Constant Matrix: (Units=GPa)
#
#
# Indices 1 2 3 4 5 6 
#
# 1 67.2088 24.1920 22.4932 -8.8418 0.0000 0.0000
# 2 24.1920 67.2088 22.4932 8.8418 0.0000 0.0000
# 3 22.4932 22.4932 116.5644 0.0000 0.0000 0.0000
# 4 -8.8418 8.8418 0.0000 39.6136 0.0000 0.0000
# 5 0.0000 0.0000 0.0000 0.0000 39.6136 -8.8418
# 6 0.0000 0.0000 0.0000 0.0000 -8.8418 21.5084
#
#
#
# Elastic Compliance Matrix: (Units=1/GPa)
#
#
# Indices 1 2 3 4 5 6 
#
# 1 0.018842 -0.006753 -0.002333 0.005713 0.000000 0.000000
# 2 -0.006753 0.018842 -0.002333 -0.005713 0.000000 0.000000
# 3 -0.002333 -0.002333 0.009479 0.000000 0.000000 0.000000
# 4 0.005713 -0.005713 0.000000 0.027794 0.000000 0.000000
# 5 0.000000 0.000000 0.000000 0.000000 0.027794 0.011426
# 6 0.000000 0.000000 0.000000 0.000000 0.011426 0.051190
#
#
# Mechanical properties :
#
#
# Convention : Reuss Voigt Hill
#
# Bulk Modulus (GPa) = 41.10814 43.25988 42.18401
# Shear Modulus (GPa) = 27.04338 32.26734 29.65536
#
# Velocity S-wave (km/s) = 3.40358 3.71781 3.56416
# Velocity P-wave (km/s) = 5.74935 6.07951 5.91673
#
# Compressibility (1/GPa) = 0.02432608
#
# Stress axis : x y z
#
# Youngs Moduli (GPa) = 53.07264 53.07264 105.49348
#
# Poissons Ratio (x) = 0.35840 0.24609
# Poissons Ratio (y) = 0.35840 0.24609
# Poissons Ratio (z) = 0.12381 0.12381
#
# Static dielectric constant tensor:
#      x y z
#    x 4.481220 0.000000 0.000000 
#    y 0.000000 4.481220 0.000000 
#    z 0.000000 0.000000 5.583680 
# 
# 
# High freq. dielectric constant tensor:
#      x y z
#    x 1.916180 0.000000 0.000000 
#    y 0.000000 1.916180 0.000000 
#    z 0.000000 0.000000 1.939260 
# 
# From -- ./inp_files/3785.got.cif
#   From: 2010.03.12/outbox.cif.g09.slc.cpg/sg154_2_cif.got.tgz:3785.got - 2010.04.03 13:51:21.
