data_PCOD8322916
_publ_section_title
;
Structure prediction by ZEFSAII (Michael W. Deem and Ramdas Pophale) SiO2 
 PCOD8322916
Probable space group: R 3 C
;
_chemical_formula_sum "Si O2"
_cell_formula_units_Z 66
_cell_length_a 14.722189
_cell_length_b 14.722189
_cell_length_c 14.488159
_cell_angle_alpha 90.000000
_cell_angle_beta 90.000000
_cell_angle_gamma 120.000000
_cell_volume 2719.497180
_symmetry_space_group_name_H-M "R 3 C"
_symmetry_group_IT_number 161
_symmetry_cell_setting 'hexagonal'
loop_
_space_group_symop_operation_xyz
x,y,z
-y,x-y,z
-x+y,-x,z
-x+y,y,1/2+z
x,x-y,1/2+z
-y,-x,1/2+z
2/3+x,1/3+y,1/3+z
2/3-y,1/3+x-y,1/3+z
2/3-x+y,1/3-x,1/3+z
2/3-x+y,1/3+y,5/6+z
2/3+x,1/3+x-y,5/6+z
2/3-y,1/3-x,5/6+z
1/3+x,2/3+y,2/3+z
1/3-y,2/3+x-y,2/3+z
1/3-x+y,2/3-x,2/3+z
1/3-x+y,2/3+y,1/6+z
1/3+x,2/3+x-y,1/6+z
1/3-y,2/3-x,1/6+z
loop_
_atom_site_type_symbol
_atom_site_label
_atom_site_fract_x
_atom_site_fract_y
_atom_site_fract_z
Si Si1 0.000000 0.000000 0.730298
Si Si2 0.666668 0.333334 0.846316
Si Si3 0.235140 0.131031 0.019934
Si Si4 0.897472 0.438109 0.570505
Si Si5 0.387567 0.026937 0.214377
O O1 0.985446 0.888120 0.762831
O O2 0.000000 0.000000 0.621430
O O3 0.603938 0.390025 0.810441
O O4 0.241394 0.124243 0.128770
O O5 0.269849 0.249978 0.999013
O O6 0.313014 0.101531 0.966427
O O7 0.910922 0.537097 0.628827
O O8 0.985409 0.406850 0.593389
#
# Coordination Sequence:
#
# PCOD8322916 Si02
#       5
#     6   6  18  18  18
#     4   9  24  46  74 106 151 194 250 313 377 433
#     4   9  21  46  71 100 151 197 247 313 380 433
#     4  11  26  46  74 109 150 194 256 315 371 457
#     4  11  27  48  75 108 151 200 248 318 375 456
#     4  12  28  44  80 109 151 199 255 303 391 445
#
# _framework density 24.269192
#
# number of rings (size 3 to 8) (size 9 to 14) (size 15 to 20)
#    0.000    1.091    0.000    3.273   22.909    2.182 
#    0.000    0.000    0.000    0.000    0.000    0.000 
#    0.000    0.000    0.000    0.000    0.000    0.000 
#
# Total GULP energy -272682.024330 kJ/mol
# GULP energy per Si atom -12394.637470 kJ/mol
# Density = 2.421395 g / cm^3
# Si number density = 24.269192 Si / 1000 Ang^3
#
#
#
# Elastic Constant Matrix: (Units=GPa)
#
#
# Indices 1 2 3 4 5 6 
#
# 1 145.4219 74.8595 32.6715 7.8396 0.0000 0.0000
# 2 74.8595 145.4221 32.6708 -7.8393 0.0000 0.0000
# 3 32.6715 32.6708 107.1600 0.0001 0.0000 0.0000
# 4 7.8396 -7.8393 0.0001 26.2882 0.0000 0.0000
# 5 0.0000 0.0000 0.0000 0.0000 26.2885 7.8391
# 6 0.0000 0.0000 0.0000 0.0000 7.8391 35.2831
#
#
#
# Elastic Compliance Matrix: (Units=1/GPa)
#
#
# Indices 1 2 3 4 5 6 
#
# 1 0.010084 -0.005093 -0.001522 -0.004526 0.000000 0.000000
# 2 -0.005093 0.010084 -0.001522 0.004526 0.000000 0.000000
# 3 -0.001522 -0.001522 0.010260 0.000000 0.000000 0.000000
# 4 -0.004526 0.004526 0.000000 0.040739 0.000000 0.000000
# 5 0.000000 0.000000 0.000000 0.000000 0.040738 -0.009051
# 6 0.000000 0.000000 0.000000 0.000000 -0.009051 0.030353
#
#
# Mechanical properties :
#
#
# Convention : Reuss Voigt Hill
#
# Bulk Modulus (GPa) = 70.64617 75.37864 73.01240
# Shear Modulus (GPa) = 30.62772 34.75876 32.69324
#
# Velocity S-wave (km/s) = 3.55632 3.78857 3.67428
# Velocity P-wave (km/s) = 6.78497 7.08975 6.93903
#
# Compressibility (1/GPa) = 0.01415505
#
# Stress axis : x y z
#
# Youngs Moduli (GPa) = 99.16398 99.16450 97.46875
#
# Poissons Ratio (x) = 0.50507 0.14832
# Poissons Ratio (y) = 0.50507 0.14831
# Poissons Ratio (z) = 0.15090 0.15089
#
# Static dielectric constant tensor:
#      x y z
#    x 4.686680 0.000000 0.000000 
#    y 0.000000 4.686700 0.000000 
#    z 0.000000 0.000000 4.193780 
# 
# 
# High freq. dielectric constant tensor:
#      x y z
#    x 1.967260 0.000000 0.000000 
#    y 0.000000 1.967260 0.000000 
#    z 0.000000 0.000000 1.970100 
# 
# From -- ./inp_files/813.got.cif
#   From: 2010.03.12/outbox.cif.g09.slc.cpg/sg161_cif.got.tgz:813.got - 2010.04.02 06:27:14.
