data_PCOD8322889
_publ_section_title
;
Structure prediction by ZEFSAII (Michael W. Deem and Ramdas Pophale) SiO2 
 PCOD8322889
Probable space group: R 3 C
;
_chemical_formula_sum "Si O2"
_cell_formula_units_Z 120
_cell_length_a 17.298878
_cell_length_b 17.298878
_cell_length_c 22.950208
_cell_angle_alpha 90.000000
_cell_angle_beta 90.000000
_cell_angle_gamma 120.000000
_cell_volume 5947.755802
_symmetry_space_group_name_H-M "R 3 C"
_symmetry_group_IT_number 161
_symmetry_cell_setting 'hexagonal'
loop_
_space_group_symop_operation_xyz
x,y,z
-y,x-y,z
-x+y,-x,z
-x+y,y,1/2+z
x,x-y,1/2+z
-y,-x,1/2+z
2/3+x,1/3+y,1/3+z
2/3-y,1/3+x-y,1/3+z
2/3-x+y,1/3-x,1/3+z
2/3-x+y,1/3+y,5/6+z
2/3+x,1/3+x-y,5/6+z
2/3-y,1/3-x,5/6+z
1/3+x,2/3+y,2/3+z
1/3-y,2/3+x-y,2/3+z
1/3-x+y,2/3-x,2/3+z
1/3-x+y,2/3+y,1/6+z
1/3+x,2/3+x-y,1/6+z
1/3-y,2/3-x,1/6+z
loop_
_atom_site_type_symbol
_atom_site_label
_atom_site_fract_x
_atom_site_fract_y
_atom_site_fract_z
Si Si1 0.706584 0.189258 0.077616
Si Si2 0.000000 0.000000 0.087530
Si Si3 0.372740 0.283654 0.183441
Si Si4 0.283654 0.910915 0.132951
Si Si5 0.293420 0.482674 0.738776
Si Si6 0.333334 0.666668 0.895524
Si Si7 0.142313 0.390195 0.822027
Si Si8 0.752119 0.142310 0.494366
O O1 0.677088 0.119417 0.130296
O O2 0.710387 0.280713 0.092565
O O3 0.633160 0.146424 0.026533
O O4 0.806009 0.216625 0.056007
O O5 0.096340 0.052628 0.057155
O O6 0.000000 0.000000 0.158194
O O7 0.424833 0.333333 0.241530
O O8 0.341777 0.178113 0.189361
O O9 0.295666 0.309696 0.171056
O O10 0.322915 0.880590 0.186097
O O11 0.178115 0.836334 0.127032
O O12 0.309693 0.014030 0.145334
O O13 0.193994 0.410620 0.760385
O O14 0.366843 0.513264 0.789860
#
# Coordination Sequence:
#
# PCOD8322889 Si02
#       8
#    18   6  18  18  18   6  18  18
#     4  11  21  36  64  92 112 156 212 257 303 355
#     4  12  18  39  64  89 112 147 207 268 290 352
#     4  11  23  38  58  90 127 163 198 250 318 378
#     4  11  23  38  58  90 127 163 198 250 318 378
#     4  11  21  36  64  92 112 156 212 257 303 355
#     4  12  18  39  64  89 112 147 207 268 290 352
#     4  10  19  38  62  86 119 156 209 259 294 359
#     4  10  19  38  62  86 119 156 209 259 294 359
#
# _framework density 20.175677
#
# number of rings (size 3 to 8) (size 9 to 14) (size 15 to 20)
#    0.000    1.200    3.000    7.200    0.000    1.200 
#    0.000    4.500    0.000    0.000    0.000    0.000 
#    0.000    0.000    0.000    0.000    0.000    0.000 
#
# Total GULP energy -495659.069290 kJ/mol
# GULP energy per Si atom -12391.476732 kJ/mol
# Density = 2.012976 g / cm^3
# Si number density = 20.175677 Si / 1000 Ang^3
#
#
#
# Elastic Constant Matrix: (Units=GPa)
#
#
# Indices 1 2 3 4 5 6 
#
# 1 101.3830 40.8467 55.9461 1.0170 0.0000 0.0000
# 2 40.8467 101.3835 55.9461 -1.0168 0.0000 0.0000
# 3 55.9461 55.9461 118.4857 0.0000 0.0000 0.0000
# 4 1.0170 -1.0168 0.0000 26.9193 0.0000 0.0000
# 5 0.0000 0.0000 0.0000 0.0000 26.9191 1.0170
# 6 0.0000 0.0000 0.0000 0.0000 1.0170 30.2680
#
#
#
# Elastic Compliance Matrix: (Units=1/GPa)
#
#
# Indices 1 2 3 4 5 6 
#
# 1 0.013863 -0.002677 -0.005282 -0.000625 0.000000 0.000000
# 2 -0.002677 0.013863 -0.005282 0.000625 0.000000 0.000000
# 3 -0.005282 -0.005282 0.013428 0.000000 0.000000 0.000000
# 4 -0.000625 0.000625 0.000000 0.037195 0.000000 0.000000
# 5 0.000000 0.000000 0.000000 0.000000 0.037196 -0.001250
# 6 0.000000 0.000000 0.000000 0.000000 -0.001250 0.033080
#
#
# Mechanical properties :
#
#
# Convention : Reuss Voigt Hill
#
# Bulk Modulus (GPa) = 68.15397 69.63665 68.89531
# Shear Modulus (GPa) = 27.77831 28.05550 27.91691
#
# Velocity S-wave (km/s) = 3.71458 3.73307 3.72384
# Velocity P-wave (km/s) = 7.22849 7.29185 7.26024
#
# Compressibility (1/GPa) = 0.01467266
#
# Stress axis : x y z
#
# Youngs Moduli (GPa) = 72.13430 72.13476 74.47294
#
# Poissons Ratio (x) = 0.19310 0.39335
# Poissons Ratio (y) = 0.19310 0.39335
# Poissons Ratio (z) = 0.38100 0.38100
#
# Static dielectric constant tensor:
#      x y z
#    x 3.654460 0.000000 0.000000 
#    y 0.000000 3.654460 0.000000 
#    z 0.000000 0.000000 3.439410 
# 
# 
# High freq. dielectric constant tensor:
#      x y z
#    x 1.788450 0.000000 0.000000 
#    y 0.000000 1.788440 0.000000 
#    z 0.000000 0.000000 1.761740 
# 
# From -- ./inp_files/1949.got.cif
#   From: 2010.03.12/outbox.cif.g09.slc.cpg/sg161_cif.got.tgz:1949.got - 2010.04.02 06:27:14.
