data_PCOD8322298
_publ_section_title
;
Structure prediction by ZEFSAII (Michael W. Deem and Ramdas Pophale) SiO2 
 PCOD8322298
Probable space group: P 32 2 1
;
_chemical_formula_sum "Si O2"
_cell_formula_units_Z 48
_cell_length_a 11.061151
_cell_length_b 11.061151
_cell_length_c 24.623428
_cell_angle_alpha 90.000000
_cell_angle_beta 90.000000
_cell_angle_gamma 120.000000
_cell_volume 2609.034295
_symmetry_space_group_name_H-M "P 32 2 1"
_symmetry_group_IT_number 154
_symmetry_cell_setting 'hexagonal'
loop_
_space_group_symop_operation_xyz
x,y,z
-y,x-y,2/3+z
-x+y,-x,1/3+z
x-y,-y,1/3-z
-x,-x+y,2/3-z
y,x,-z
loop_
_atom_site_type_symbol
_atom_site_label
_atom_site_fract_x
_atom_site_fract_y
_atom_site_fract_z
Si Si1 0.957582 0.973891 0.563279
Si Si2 0.277798 0.125987 0.411568
Si Si3 0.709308 0.032934 0.768457
Si Si4 0.827388 0.701930 0.622157
Si Si5 0.273545 0.838090 0.416300
Si Si6 0.506706 0.300932 0.198242
Si Si7 0.452949 0.163218 0.038080
Si Si8 0.382760 0.521546 0.533051
O O1 0.944790 0.944790 0.500000
O O2 0.824148 0.983964 0.580804
O O3 0.954726 0.844112 0.595571
O O4 0.097640 0.120714 0.577105
O O5 0.318770 0.185113 0.350164
O O6 0.386971 0.231346 0.456184
O O7 0.274704 0.981862 0.419600
O O8 0.721137 0.099660 0.827429
O O9 0.705650 0.141753 0.725162
O O10 0.578620 0.876076 0.765018
O O11 0.786315 0.563750 0.587540
O O12 0.695663 0.722488 0.623143
O O13 0.391687 0.855301 0.457848
O O14 0.314735 0.809529 0.356810
O O15 0.610175 0.254215 0.171079
O O16 0.560575 0.141565 0.074020
O O17 0.479661 0.479661 0.500000
#
# Coordination Sequence:
#
# PCOD8322298 Si02
#       8
#     6   6   6   6   6   6   6   6
#     4  10  17  32  56  82 107 135 175 223 273 316
#     4  10  22  34  52  81 114 138 172 223 274 330
#     4   9  19  32  54  79 103 138 179 224 264 310
#     4  10  18  34  56  81 104 137 183 224 268 314
#     4  10  21  35  52  79 109 139 176 220 276 317
#     4  11  21  33  57  76 106 147 179 225 264 328
#     4   9  18  34  57  78 102 134 182 230 262 312
#     4  11  21  36  55  79 107 141 179 218 273 320
#
# _framework density 18.39761
#
# number of rings (size 3 to 8) (size 9 to 14) (size 15 to 20)
#    0.000    2.000    2.500    1.875    1.750    3.000 
#    0.000    0.000    0.000    0.000    0.000    1.750 
#    0.000    0.000    0.000    0.000    0.000    0.000 
#
# Total GULP energy -594815.031938 kJ/mol
# GULP energy per Si atom -12391.979832 kJ/mol
# Density = 1.835574 g / cm^3
# Si number density = 18.397610 Si / 1000 Ang^3
#
#
#
# Elastic Constant Matrix: (Units=GPa)
#
#
# Indices 1 2 3 4 5 6 
#
# 1 71.1167 24.6646 23.0093 -3.6521 0.0000 0.0000
# 2 24.6646 71.1167 23.0093 3.6521 0.0000 0.0000
# 3 23.0093 23.0093 45.6766 0.0000 0.0000 0.0000
# 4 -3.6521 3.6521 0.0000 20.1858 0.0000 0.0000
# 5 0.0000 0.0000 0.0000 0.0000 20.1858 -3.6521
# 6 0.0000 0.0000 0.0000 0.0000 -3.6521 23.2261
#
#
#
# Elastic Compliance Matrix: (Units=1/GPa)
#
#
# Indices 1 2 3 4 5 6 
#
# 1 0.017966 -0.004192 -0.006939 0.004009 0.000000 0.000000
# 2 -0.004192 0.017966 -0.006939 -0.004009 0.000000 0.000000
# 3 -0.006939 -0.006939 0.028884 0.000000 0.000000 0.000000
# 4 0.004009 -0.004009 0.000000 0.050990 0.000000 0.000000
# 5 0.000000 0.000000 0.000000 0.000000 0.050990 0.008018
# 6 0.000000 0.000000 0.000000 0.000000 0.008018 0.044316
#
#
# Mechanical properties :
#
#
# Convention : Reuss Voigt Hill
#
# Bulk Modulus (GPa) = 34.87067 36.58625 35.72846
# Shear Modulus (GPa) = 19.46966 20.53466 20.00216
#
# Velocity S-wave (km/s) = 3.25664 3.34452 3.30087
# Velocity P-wave (km/s) = 5.75639 5.90288 5.83009
#
# Compressibility (1/GPa) = 0.02867740
#
# Stress axis : x y z
#
# Youngs Moduli (GPa) = 55.66060 55.66060 34.62164
#
# Poissons Ratio (x) = 0.23332 0.24023
# Poissons Ratio (y) = 0.23332 0.24023
# Poissons Ratio (z) = 0.38621 0.38621
#
# Static dielectric constant tensor:
#      x y z
#    x 3.308040 0.000000 0.000000 
#    y 0.000000 3.308040 0.000000 
#    z 0.000000 0.000000 3.511570 
# 
# 
# High freq. dielectric constant tensor:
#      x y z
#    x 1.695390 0.000000 0.000000 
#    y 0.000000 1.695390 0.000000 
#    z 0.000000 0.000000 1.723050 
# 
# From -- ./inp_files/3206.got.cif
#   From: 2010.03.12/outbox.cif.g09.slc.cpg/sg154_2_cif.got.tgz:3206.got - 2010.04.03 13:51:21.
