data_PCOD8322194
_publ_section_title
;
Structure prediction by ZEFSAII (Michael W. Deem and Ramdas Pophale) SiO2 
 PCOD8322194
Probable space group: P 31 2 1
;
_chemical_formula_sum "Si O2"
_cell_formula_units_Z 30
_cell_length_a 12.210592
_cell_length_b 12.210592
_cell_length_c 13.477014
_cell_angle_alpha 90.000000
_cell_angle_beta 90.000000
_cell_angle_gamma 120.000000
_cell_volume 1740.194339
_symmetry_space_group_name_H-M "P 31 2 1"
_symmetry_group_IT_number 152
_symmetry_cell_setting 'hexagonal'
loop_
_space_group_symop_operation_xyz
x,y,z
-y,x-y,1/3+z
-x+y,-x,2/3+z
x-y,-y,2/3-z
-x,-x+y,1/3-z
y,x,-z
loop_
_atom_site_type_symbol
_atom_site_label
_atom_site_fract_x
_atom_site_fract_y
_atom_site_fract_z
Si Si1 0.948792 0.606248 0.555644
Si Si2 0.343322 0.760239 0.396490
Si Si3 0.733405 0.698117 0.888678
Si Si4 0.458743 0.610072 0.842789
Si Si5 0.865318 0.993267 0.216271
O O1 0.811240 0.480701 0.552739
O O2 0.000000 0.632874 0.666667
O O3 0.047535 0.584069 0.492881
O O4 0.939973 0.725440 0.515148
O O5 0.361509 0.774094 0.279358
O O6 0.255330 0.612159 0.423401
O O7 0.283285 0.842275 0.439725
O O8 0.610520 0.692811 0.837732
O O9 0.848566 0.790804 0.819373
O O10 0.753593 0.753593 0.000000
O O11 0.885321 0.000000 0.333334
O O12 0.000000 0.067813 0.166667
#
# Coordination Sequence:
#
# PCOD8322194 Si02
#       5
#     6   6   6   6   6
#     4   8  16  30  50  73  96 127 173 208 244 296
#     4   9  16  30  53  78 102 130 168 216 257 300
#     4   9  18  33  55  77 100 133 178 216 251 303
#     4   9  16  30  53  78 100 130 168 216 256 297
#     4  11  21  35  53  72 103 137 175 212 249 313
#
# _framework density 17.239453000000001
#
# number of rings (size 3 to 8) (size 9 to 14) (size 15 to 20)
#    0.000    2.800    2.000    3.000    0.000    0.000 
#    3.600    0.000    0.000    1.200    0.000    0.000 
#    0.000    0.000    0.000    0.000    0.000    0.000 
#
# Total GULP energy -371794.093189 kJ/mol
# GULP energy per Si atom -12393.136440 kJ/mol
# Density = 1.720022 g / cm^3
# Si number density = 17.239453 Si / 1000 Ang^3
#
#
#
# Elastic Constant Matrix: (Units=GPa)
#
#
# Indices 1 2 3 4 5 6 
#
# 1 84.3072 41.2299 32.5157 -1.1287 -0.0001 0.0000
# 2 41.2299 84.3072 32.5157 1.1287 0.0001 0.0000
# 3 32.5157 32.5157 56.6096 0.0000 0.0000 0.0000
# 4 -1.1287 1.1287 0.0000 20.4440 0.0000 0.0001
# 5 -0.0001 0.0001 0.0000 0.0000 20.4440 -1.1287
# 6 0.0000 0.0000 0.0000 0.0001 -1.1287 21.5386
#
#
#
# Elastic Compliance Matrix: (Units=1/GPa)
#
#
# Indices 1 2 3 4 5 6 
#
# 1 0.017311 -0.005971 -0.006513 0.001285 0.000000 0.000000
# 2 -0.005971 0.017311 -0.006513 -0.001285 0.000000 0.000000
# 3 -0.006513 -0.006513 0.025147 0.000000 0.000000 0.000000
# 4 0.001285 -0.001285 0.000000 0.049056 0.000000 0.000000
# 5 0.000000 0.000000 0.000000 0.000000 0.049056 0.002571
# 6 0.000000 0.000000 0.000000 0.000000 0.002571 0.046563
#
#
# Mechanical properties :
#
#
# Convention : Reuss Voigt Hill
#
# Bulk Modulus (GPa) = 45.92791 48.63853 47.28322
# Shear Modulus (GPa) = 20.02426 20.41616 20.22021
#
# Velocity S-wave (km/s) = 3.41183 3.44505 3.42848
# Velocity P-wave (km/s) = 6.49768 6.64073 6.56959
#
# Compressibility (1/GPa) = 0.02177325
#
# Stress axis : x y z
#
# Youngs Moduli (GPa) = 57.76776 57.76776 39.76558
#
# Poissons Ratio (x) = 0.34492 0.25901
# Poissons Ratio (y) = 0.34492 0.25901
# Poissons Ratio (z) = 0.37627 0.37627
#
# Static dielectric constant tensor:
#      x y z
#    x 3.297450 0.000000 0.000000 
#    y 0.000000 3.297450 0.000000 
#    z 0.000000 0.000000 2.923670 
# 
# 
# High freq. dielectric constant tensor:
#      x y z
#    x 1.659740 0.000000 0.000000 
#    y 0.000000 1.659740 0.000000 
#    z 0.000000 0.000000 1.638720 
# 
# From -- ./inp_files/1943.got.cif
#   From: 2010.03.12/outbox.cif.g09.slc.cpg/sg152_1_cif.got.tgz:1943.got - 2010.04.03 13:45:27.
