data_PCOD8322077
_publ_section_title
;
Structure prediction by ZEFSAII (Michael W. Deem and Ramdas Pophale) SiO2 
 PCOD8322077
Probable space group: P 31 2 1
;
_chemical_formula_sum "Si O2"
_cell_formula_units_Z 30
_cell_length_a 11.807930
_cell_length_b 11.807930
_cell_length_c 14.337855
_cell_angle_alpha 90.000000
_cell_angle_beta 90.000000
_cell_angle_gamma 120.000000
_cell_volume 1731.260241
_symmetry_space_group_name_H-M "P 31 2 1"
_symmetry_group_IT_number 152
_symmetry_cell_setting 'hexagonal'
loop_
_space_group_symop_operation_xyz
x,y,z
-y,x-y,1/3+z
-x+y,-x,2/3+z
x-y,-y,2/3-z
-x,-x+y,1/3-z
y,x,-z
loop_
_atom_site_type_symbol
_atom_site_label
_atom_site_fract_x
_atom_site_fract_y
_atom_site_fract_z
Si Si1 0.287716 0.622150 0.757712
Si Si2 0.861575 0.233869 0.689518
Si Si3 0.158282 0.544043 0.952943
Si Si4 0.687210 0.042170 0.935305
Si Si5 0.575710 0.684693 0.773256
O O1 0.177859 0.482949 0.721233
O O2 0.249230 0.626696 0.865223
O O3 0.290610 0.743468 0.700627
O O4 0.427013 0.630395 0.738517
O O5 0.873107 0.311680 0.783216
O O6 0.000000 0.248738 0.666667
O O7 0.771588 0.078976 0.689162
O O8 0.042804 0.398081 0.925408
O O9 0.076842 0.607336 0.992575
O O10 0.834049 0.165939 0.928161
O O11 0.616534 0.000000 0.833334
#
# Coordination Sequence:
#
# PCOD8322077 Si02
#       5
#     6   6   6   6   6
#     4  11  21  33  53  88 112 147 187 234 292 338
#     4  11  19  33  56  77 109 147 187 228 275 342
#     4  11  21  35  58  84 122 143 187 244 290 341
#     4   9  21  35  53  80 108 148 193 224 275 344
#     4  10  20  35  54  79 114 148 185 232 283 339
#
# _framework density 17.328415
#
# number of rings (size 3 to 8) (size 9 to 14) (size 15 to 20)
#    0.000    1.600    6.000    0.000    0.000    0.000 
#    0.000    0.000    0.000   10.800    0.000    0.000 
#    0.000    0.000    0.000    0.000    0.000    0.000 
#
# Total GULP energy -371719.915081 kJ/mol
# GULP energy per Si atom -12390.663836 kJ/mol
# Density = 1.728898 g / cm^3
# Si number density = 17.328415 Si / 1000 Ang^3
#
#
#
# Elastic Constant Matrix: (Units=GPa)
#
#
# Indices 1 2 3 4 5 6 
#
# 1 98.2618 46.9656 35.8654 -1.5684 -0.0001 0.0000
# 2 46.9656 98.2618 35.8654 1.5684 0.0001 0.0000
# 3 35.8654 35.8654 81.4365 0.0000 0.0000 0.0000
# 4 -1.5684 1.5684 0.0000 23.5945 0.0000 0.0001
# 5 -0.0001 0.0001 0.0000 0.0000 23.5945 -1.5684
# 6 0.0000 0.0000 0.0000 0.0001 -1.5684 25.6481
#
#
#
# Elastic Compliance Matrix: (Units=1/GPa)
#
#
# Indices 1 2 3 4 5 6 
#
# 1 0.014187 -0.005387 -0.003876 0.001301 0.000000 0.000000
# 2 -0.005387 0.014187 -0.003876 -0.001301 0.000000 0.000000
# 3 -0.003876 -0.003876 0.015693 0.000000 0.000000 0.000000
# 4 0.001301 -0.001301 0.000000 0.042556 0.000000 0.000000
# 5 0.000000 0.000000 0.000000 0.000000 0.042556 0.002602
# 6 0.000000 0.000000 0.000000 0.000000 0.002602 0.039148
#
#
# Mechanical properties :
#
#
# Convention : Reuss Voigt Hill
#
# Bulk Modulus (GPa) = 56.20882 57.26140 56.73511
# Shear Modulus (GPa) = 24.93342 25.18501 25.05921
#
# Velocity S-wave (km/s) = 3.79737 3.81648 3.80693
# Velocity P-wave (km/s) = 7.19267 7.24825 7.22051
#
# Compressibility (1/GPa) = 0.01779080
#
# Stress axis : x y z
#
# Youngs Moduli (GPa) = 70.48663 70.48663 63.72192
#
# Poissons Ratio (x) = 0.37972 0.24696
# Poissons Ratio (y) = 0.37972 0.24696
# Poissons Ratio (z) = 0.27318 0.27318
#
# Static dielectric constant tensor:
#      x y z
#    x 3.276610 0.000000 0.000000 
#    y 0.000000 3.276610 0.000000 
#    z 0.000000 0.000000 3.403000 
# 
# 
# High freq. dielectric constant tensor:
#      x y z
#    x 1.656850 0.000000 0.000000 
#    y 0.000000 1.656850 0.000000 
#    z 0.000000 0.000000 1.680730 
# 
# From -- ./inp_files/1944.got.cif
#   From: 2010.03.12/outbox.cif.g09.slc.cpg/sg152_1_cif.got.tgz:1944.got - 2010.04.03 13:45:27.
