data_PCOD8322750
_publ_section_title
;
Structure prediction by ZEFSAII (Michael W. Deem and Ramdas Pophale) SiO2 
 PCOD8322750
Probable space group: P 3 C 1
;
_chemical_formula_sum "Si O2"
_cell_formula_units_Z 48
_cell_length_a 18.923257
_cell_length_b 18.923257
_cell_length_c 8.795399
_cell_angle_alpha 90.000000
_cell_angle_beta 90.000000
_cell_angle_gamma 120.000000
_cell_volume 2727.582861
_symmetry_space_group_name_H-M "P 3 C 1"
_symmetry_group_IT_number 158
_symmetry_cell_setting 'hexagonal'
loop_
_space_group_symop_operation_xyz
x,y,z
-y,x-y,z
-x+y,-x,z
-x+y,y,1/2+z
x,x-y,1/2+z
-y,-x,1/2+z
loop_
_atom_site_type_symbol
_atom_site_label
_atom_site_fract_x
_atom_site_fract_y
_atom_site_fract_z
Si Si1 0.429224 0.145293 0.898520
Si Si2 0.236139 0.050630 0.234331
Si Si3 0.716069 0.145293 0.738308
Si Si4 0.572509 0.995367 0.249476
Si Si5 0.004633 0.577142 0.887352
Si Si6 0.814492 0.050630 0.402497
Si Si7 0.098158 0.345431 0.885741
Si Si8 0.654569 0.901842 0.751087
O O1 0.467705 0.233852 0.818414
O O2 0.450929 0.087636 0.799403
O O3 0.332893 0.107031 0.910681
O O4 0.465973 0.155162 0.068414
O O5 0.332893 0.107031 0.226147
O O6 0.196915 0.098458 0.318414
O O7 0.216746 0.964361 0.308217
O O8 0.196809 0.033035 0.068414
O O9 0.636707 0.087636 0.837425
O O10 0.484962 0.969924 0.318414
O O11 0.594778 0.930441 0.317708
O O12 0.569278 0.989826 0.068414
O O13 0.069559 0.664337 0.819120
O O14 0.747615 0.964361 0.328611
O O15 0.186776 0.373552 0.818414
O O16 0.098679 0.350565 0.068414
#
# Coordination Sequence:
#
# PCOD8322750 Si02
#       8
#     6   6   6   6   6   6   6   6
#     4   9  16  28  46  71  99 127 159 197 241 295
#     4   8  15  26  43  67  95 122 153 191 235 288
#     4   9  16  28  46  71  99 127 159 197 241 295
#     4  11  21  34  52  75 103 137 175 221 269 316
#     4  11  21  34  52  75 103 137 175 221 269 316
#     4   8  15  26  43  67  95 122 153 191 235 288
#     4  10  20  34  51  75 103 134 173 219 267 319
#     4  10  20  34  51  75 103 134 173 219 267 319
#
# _framework density 17.597999000000002
#
# number of rings (size 3 to 8) (size 9 to 14) (size 15 to 20)
#    0.000    2.500    0.000    5.250    0.000    7.000 
#    0.000    0.000    0.000    1.500    0.000    7.000 
#    0.000    0.000    0.000    0.000    0.000    0.000 
#
# Total GULP energy -594902.050558 kJ/mol
# GULP energy per Si atom -12393.792720 kJ/mol
# Density = 1.755794 g / cm^3
# Si number density = 17.597999 Si / 1000 Ang^3
#
#
#
# Elastic Constant Matrix: (Units=GPa)
#
#
# Indices 1 2 3 4 5 6 
#
# 1 93.8507 58.3676 51.5578 0.0000 0.0000 0.0000
# 2 58.3676 93.8507 51.5578 0.0000 0.0000 0.0000
# 3 51.5578 51.5578 134.8390 0.0000 0.0000 0.0000
# 4 0.0000 0.0000 0.0000 24.6280 0.0000 0.0000
# 5 0.0000 0.0000 0.0000 0.0000 24.6280 0.0000
# 6 0.0000 0.0000 0.0000 0.0000 0.0000 17.7415
#
#
#
# Elastic Compliance Matrix: (Units=1/GPa)
#
#
# Indices 1 2 3 4 5 6 
#
# 1 0.018524 -0.009658 -0.003390 0.000000 0.000000 0.000000
# 2 -0.009658 0.018524 -0.003390 0.000000 0.000000 0.000000
# 3 -0.003390 -0.003390 0.010009 0.000000 0.000000 0.000000
# 4 0.000000 0.000000 0.000000 0.040604 0.000000 0.000000
# 5 0.000000 0.000000 0.000000 0.000000 0.040604 0.000000
# 6 0.000000 0.000000 0.000000 0.000000 0.000000 0.056365
#
#
# Mechanical properties :
#
#
# Convention : Reuss Voigt Hill
#
# Bulk Modulus (GPa) = 70.51928 71.72297 71.12112
# Shear Modulus (GPa) = 22.49881 24.13665 23.31773
#
# Velocity S-wave (km/s) = 3.57947 3.70747 3.64403
# Velocity P-wave (km/s) = 7.56590 7.69233 7.62938
#
# Compressibility (1/GPa) = 0.01418052
#
# Stress axis : x y z
#
# Youngs Moduli (GPa) = 53.98336 53.98336 99.91272
#
# Poissons Ratio (x) = 0.52138 0.33871
# Poissons Ratio (y) = 0.52138 0.33871
# Poissons Ratio (z) = 0.18301 0.18301
#
# Static dielectric constant tensor:
#      x y z
#    x 3.119990 0.000000 0.000000 
#    y 0.000000 3.119990 0.000000 
#    z 0.000000 0.000000 3.505130 
# 
# 
# High freq. dielectric constant tensor:
#      x y z
#    x 1.653690 0.000000 0.000000 
#    y 0.000000 1.653690 0.000000 
#    z 0.000000 0.000000 1.695100 
# 
# From -- ./inp_files/230.got.cif
#   From: 2010.03.12/outbox.cif.g09.slc.cpg/sg158_cif.got.tgz:230.got - 2010.04.03 13:59:47.
