data_PCOD8322571
_publ_section_title
;
Structure prediction by ZEFSAII (Michael W. Deem and Ramdas Pophale) SiO2 
 PCOD8322571
Probable space group: R 3 2
;
_chemical_formula_sum "Si O2"
_cell_formula_units_Z 45
_cell_length_a 8.616178
_cell_length_b 8.616178
_cell_length_c 33.180452
_cell_angle_alpha 90.000000
_cell_angle_beta 90.000000
_cell_angle_gamma 120.000000
_cell_volume 2133.252456
_symmetry_space_group_name_H-M "R 3 2"
_symmetry_group_IT_number 155
_symmetry_cell_setting 'hexagonal'
loop_
_space_group_symop_operation_xyz
x,y,z
-y,x-y,z
-x+y,-x,z
x-y,-y,-z
-x,-x+y,-z
y,x,-z
2/3+x,1/3+y,1/3+z
2/3-y,1/3+x-y,1/3+z
2/3-x+y,1/3-x,1/3+z
2/3+x-y,1/3-y,1/3-z
2/3-x,1/3-x+y,1/3-z
2/3+y,1/3+x,1/3-z
1/3+x,2/3+y,2/3+z
1/3-y,2/3+x-y,2/3+z
1/3-x+y,2/3-x,2/3+z
1/3+x-y,2/3-y,2/3-z
1/3-x,2/3-x+y,2/3-z
1/3+y,2/3+x,2/3-z
loop_
_atom_site_type_symbol
_atom_site_label
_atom_site_fract_x
_atom_site_fract_y
_atom_site_fract_z
Si Si1 0.669264 0.661878 0.919685
Si Si2 0.333334 0.666668 0.289653
Si Si3 0.333334 0.666668 0.618499
Si Si4 0.533583 0.666667 0.166667
Si Si5 0.333334 0.666667 0.948623
O O1 0.727738 0.529993 0.939850
O O2 0.804134 0.861516 0.934921
O O3 0.673046 0.649559 0.871539
O O4 0.469592 0.605352 0.932915
O O5 0.333334 0.666667 0.337052
O O6 0.333334 0.666668 0.666667
O O7 0.509482 0.842815 0.166667
#
# Coordination Sequence:
#
# PCOD8322571 Si02
#       5
#    18   6   6   9   6
#     4  12  25  44  72  97 138 182 222 283 338 397
#     4  12  21  46  68  97 141 180 217 287 337 402
#     4  12  27  46  68 106 141 177 229 278 334 408
#     4  10  22  46  72  94 134 176 228 280 340 398
#     4  12  27  40  68 106 132 177 235 266 346 411
#
# _framework density 21.094548
#
# number of rings (size 3 to 8) (size 9 to 14) (size 15 to 20)
#    0.400    0.000    4.000    6.000    0.000    3.200 
#    0.000    0.000    0.000    0.000    0.000    0.000 
#    0.000    0.000    0.000    0.000    0.000    0.000 
#
# Total GULP energy -186116.294842 kJ/mol
# GULP energy per Si atom -12407.752989 kJ/mol
# Density = 2.104654 g / cm^3
# Si number density = 21.094548 Si / 1000 Ang^3
#
#
#
# Elastic Constant Matrix: (Units=GPa)
#
#
# Indices 1 2 3 4 5 6 
#
# 1 101.6660 -4.8851 46.5371 40.2631 0.0141 -0.0007
# 2 -4.8851 101.6729 46.5408 -40.2635 -0.0147 0.0004
# 3 46.5371 46.5408 239.9701 -0.0049 -0.0004 -0.0004
# 4 40.2631 -40.2635 -0.0049 69.1610 0.0001 -0.0153
# 5 0.0141 -0.0147 -0.0004 0.0001 69.1323 40.2497
# 6 -0.0007 0.0004 -0.0004 -0.0153 40.2497 53.2777
#
#
#
# Elastic Compliance Matrix: (Units=1/GPa)
#
#
# Indices 1 2 3 4 5 6 
#
# 1 0.014730 -0.002028 -0.002463 -0.009756 -0.000003 0.000000
# 2 -0.002028 0.014729 -0.002463 0.009755 0.000004 0.000000
# 3 -0.002463 -0.002463 0.005123 0.000001 0.000000 0.000000
# 4 -0.009756 0.009755 0.000001 0.025818 0.000000 0.000007
# 5 -0.000003 0.000004 0.000000 0.000000 0.025823 -0.019509
# 6 0.000000 0.000000 0.000000 0.000007 -0.019509 0.033508
#
#
# Mechanical properties :
#
#
# Convention : Reuss Voigt Hill
#
# Bulk Modulus (GPa) = 48.37461 68.85498 58.61480
# Shear Modulus (GPa) = 35.57952 61.98860 48.78406
#
# Velocity S-wave (km/s) = 4.11136 5.42677 4.81421
# Velocity P-wave (km/s) = 6.74684 8.48401 7.66480
#
# Compressibility (1/GPa) = 0.02067200
#
# Stress axis : x y z
#
# Youngs Moduli (GPa) = 67.88819 67.89518 195.21344
#
# Poissons Ratio (x) = 0.13771 0.48089
# Poissons Ratio (y) = 0.13769 0.48081
# Poissons Ratio (z) = 0.16724 0.16723
#
# Static dielectric constant tensor:
#      x y z
#    x 3.591480 0.000000 0.000000 
#    y 0.000000 3.591520 0.000020 
#    z 0.000000 0.000020 3.892460 
# 
# 
# High freq. dielectric constant tensor:
#      x y z
#    x 1.825720 0.000000 0.000000 
#    y 0.000000 1.825720 0.000000 
#    z 0.000000 0.000000 1.845210 
# 
# From -- ./inp_files/8179.got.cif
#   From: 2010.03.12/outbox.cif.g09.slc.cpg/sg155_5_cif.got.tgz:8179.got - 2010.04.03 13:54:13.
