data_PCOD8322800
_publ_section_title
;
Structure prediction by ZEFSAII (Michael W. Deem and Ramdas Pophale) SiO2 
 PCOD8322800
Probable space group: P 3 1 C
;
_chemical_formula_sum "Si O2"
_cell_formula_units_Z 36
_cell_length_a 12.342411
_cell_length_b 12.342411
_cell_length_c 15.270220
_cell_angle_alpha 90.000000
_cell_angle_beta 90.000000
_cell_angle_gamma 120.000000
_cell_volume 2014.540182
_symmetry_space_group_name_H-M "P 3 1 C"
_symmetry_group_IT_number 159
_symmetry_cell_setting 'hexagonal'
loop_
_space_group_symop_operation_xyz
x,y,z
-y,x-y,z
-x+y,-x,z
y,x,1/2+z
x-y,-y,1/2+z
-x,-x+y,1/2+z
loop_
_atom_site_type_symbol
_atom_site_label
_atom_site_fract_x
_atom_site_fract_y
_atom_site_fract_z
Si Si1 0.081410 0.414669 0.649490
Si Si2 0.081746 0.415059 0.316146
Si Si3 0.918253 0.584941 0.816145
Si Si4 0.998788 0.748372 0.983462
Si Si5 0.585331 0.918591 0.649489
Si Si6 0.251629 0.001213 0.983463
O O1 0.076949 0.538474 0.626679
O O2 0.224728 0.449456 0.650214
O O3 0.021248 0.358706 0.743059
O O4 0.002715 0.311677 0.576643
O O5 0.206062 0.412127 0.292054
O O6 0.116000 0.558000 0.319931
O O7 0.026227 0.352874 0.409187
O O8 0.973774 0.647127 0.909185
O O9 0.021246 0.662544 0.743058
O O10 0.895679 0.791358 0.979885
O O11 0.132874 0.867127 0.967429
O O12 0.997286 0.688321 0.076641
#
# Coordination Sequence:
#
# PCOD8322800 Si02
#       6
#     6   6   6   6   6   6
#     4  10  20  34  53  76 103 135 170 209 252 300
#     4  10  20  34  53  76 103 135 170 209 252 300
#     4  10  20  34  53  76 103 135 170 209 252 300
#     4  10  20  34  52  74 100 130 166 208 254 302
#     4  10  20  34  53  76 103 135 170 209 252 300
#     4  10  20  34  52  74 100 130 166 208 254 302
#
# _framework density 17.870083000000001
#
# number of rings (size 3 to 8) (size 9 to 14) (size 15 to 20)
#    0.000    2.000    0.000    4.000    0.000    0.000 
#    0.000    3.333    0.000   20.000    0.000    0.000 
#    0.000    0.000    0.000    0.000    0.000    0.000 
#
# Total GULP energy -446575.100296 kJ/mol
# GULP energy per Si atom -12404.863897 kJ/mol
# Density = 1.782941 g / cm^3
# Si number density = 17.870083 Si / 1000 Ang^3
#
#
#
# Elastic Constant Matrix: (Units=GPa)
#
#
# Indices 1 2 3 4 5 6 
#
# 1 76.4003 28.2938 17.4870 0.0000 0.0002 0.0000
# 2 28.2938 76.4003 17.4870 0.0000 -0.0002 0.0000
# 3 17.4870 17.4870 77.7026 0.0000 0.0000 0.0000
# 4 0.0000 0.0000 0.0000 27.8295 0.0000 -0.0002
# 5 0.0002 -0.0002 0.0000 0.0000 27.8295 0.0000
# 6 0.0000 0.0000 0.0000 -0.0002 0.0000 24.0532
#
#
#
# Elastic Compliance Matrix: (Units=1/GPa)
#
#
# Indices 1 2 3 4 5 6 
#
# 1 0.015558 -0.005230 -0.002324 0.000000 0.000000 0.000000
# 2 -0.005230 0.015558 -0.002324 0.000000 0.000000 0.000000
# 3 -0.002324 -0.002324 0.013916 0.000000 0.000000 0.000000
# 4 0.000000 0.000000 0.000000 0.035933 0.000000 0.000000
# 5 0.000000 0.000000 0.000000 0.000000 0.035933 0.000000
# 6 0.000000 0.000000 0.000000 0.000000 0.000000 0.041574
#
#
# Mechanical properties :
#
#
# Convention : Reuss Voigt Hill
#
# Bulk Modulus (GPa) = 39.56541 39.67098 39.61819
# Shear Modulus (GPa) = 26.78767 27.09149 26.93958
#
# Velocity S-wave (km/s) = 3.87592 3.89784 3.88690
# Velocity P-wave (km/s) = 6.49762 6.51962 6.50863
#
# Compressibility (1/GPa) = 0.02527460
#
# Stress axis : x y z
#
# Youngs Moduli (GPa) = 64.27701 64.27701 71.86095
#
# Poissons Ratio (x) = 0.33614 0.16703
# Poissons Ratio (y) = 0.33614 0.16703
# Poissons Ratio (z) = 0.14940 0.14940
#
# Static dielectric constant tensor:
#      x y z
#    x 3.254020 0.000000 0.000000 
#    y 0.000000 3.254020 0.000000 
#    z 0.000000 0.000000 3.426880 
# 
# 
# High freq. dielectric constant tensor:
#      x y z
#    x 1.696080 0.000000 0.000000 
#    y 0.000000 1.696080 0.000000 
#    z 0.000000 0.000000 1.706610 
# 
# From -- ./inp_files/874.got.cif
#   From: 2010.03.12/outbox.cif.g09.slc.cpg/sg159_cif.got.tgz:874.got - 2010.04.03 14:00:19.
