data_PCOD8322521
_publ_section_title
;
Structure prediction by ZEFSAII (Michael W. Deem and Ramdas Pophale) SiO2 
 PCOD8322521
Probable space group: R 3 2
;
_chemical_formula_sum "Si O2"
_cell_formula_units_Z 81
_cell_length_a 18.088884
_cell_length_b 18.088884
_cell_length_c 15.357420
_cell_angle_alpha 90.000000
_cell_angle_beta 90.000000
_cell_angle_gamma 120.000000
_cell_volume 4351.835202
_symmetry_space_group_name_H-M "R 3 2"
_symmetry_group_IT_number 155
_symmetry_cell_setting 'hexagonal'
loop_
_space_group_symop_operation_xyz
x,y,z
-y,x-y,z
-x+y,-x,z
x-y,-y,-z
-x,-x+y,-z
y,x,-z
2/3+x,1/3+y,1/3+z
2/3-y,1/3+x-y,1/3+z
2/3-x+y,1/3-x,1/3+z
2/3+x-y,1/3-y,1/3-z
2/3-x,1/3-x+y,1/3-z
2/3+y,1/3+x,1/3-z
1/3+x,2/3+y,2/3+z
1/3-y,2/3+x-y,2/3+z
1/3-x+y,2/3-x,2/3+z
1/3+x-y,2/3-y,2/3-z
1/3-x,2/3-x+y,2/3-z
1/3+y,2/3+x,2/3-z
loop_
_atom_site_type_symbol
_atom_site_label
_atom_site_fract_x
_atom_site_fract_y
_atom_site_fract_z
Si Si1 0.809979 0.048668 0.200130
Si Si2 0.071683 0.333334 0.333334
Si Si3 0.846587 0.372073 0.420476
Si Si4 0.449563 0.976565 0.334066
Si Si5 0.476455 0.540221 0.842824
O O1 0.745661 0.078995 0.166667
O O2 0.881167 0.058166 0.128762
O O3 0.857154 0.103674 0.286035
O O4 0.756056 0.948463 0.217196
O O5 0.071173 0.420661 0.315436
O O6 0.118469 0.328383 0.247567
O O7 0.788066 0.333334 0.333334
O O8 0.818835 0.298999 0.492625
O O9 0.945822 0.409090 0.396496
O O10 0.506146 0.011103 0.246809
#
# Coordination Sequence:
#
# PCOD8322521 Si02
#       5
#    18   9  18  18  18
#     4  10  22  38  56  85 129 161 193 257 318 367
#     4  12  20  36  64  90 116 154 222 258 284 364
#     4   9  18  34  59  86 114 152 197 246 307 364
#     4  10  20  36  63  85 122 154 206 258 303 352
#     4  11  22  35  60  90 116 160 206 248 310 370
#
# _framework density 18.612836999999999
#
# number of rings (size 3 to 8) (size 9 to 14) (size 15 to 20)
#    0.000    1.778    5.556    0.667    0.000    9.778 
#    1.333    0.000    0.000    0.000    0.000    0.000 
#    0.000    0.000    0.000    0.000    0.000    0.000 
#
# Total GULP energy -334689.054549 kJ/mol
# GULP energy per Si atom -12395.890909 kJ/mol
# Density = 1.857047 g / cm^3
# Si number density = 18.612837 Si / 1000 Ang^3
#
#
#
# Elastic Constant Matrix: (Units=GPa)
#
#
# Indices 1 2 3 4 5 6 
#
# 1 96.4052 48.7230 43.1812 -3.1137 -0.0001 0.0000
# 2 48.7230 96.4052 43.1812 3.1137 0.0001 0.0000
# 3 43.1812 43.1812 73.8770 0.0000 0.0000 0.0000
# 4 -3.1137 3.1137 0.0000 24.6181 0.0000 0.0001
# 5 -0.0001 0.0001 0.0000 0.0000 24.6181 -3.1137
# 6 0.0000 0.0000 0.0000 0.0001 -3.1137 23.8411
#
#
#
# Elastic Compliance Matrix: (Units=1/GPa)
#
#
# Indices 1 2 3 4 5 6 
#
# 1 0.015945 -0.005380 -0.006175 0.002697 0.000000 0.000000
# 2 -0.005380 0.015945 -0.006175 -0.002697 0.000000 0.000000
# 3 -0.006175 -0.006175 0.020755 0.000000 0.000000 0.000000
# 4 0.002697 -0.002697 0.000000 0.041303 0.000000 0.000000
# 5 0.000000 0.000000 0.000000 0.000000 0.041303 0.005394
# 6 0.000000 0.000000 0.000000 0.000000 0.005394 0.042649
#
#
# Mechanical properties :
#
#
# Convention : Reuss Voigt Hill
#
# Bulk Modulus (GPa) = 58.19369 59.65091 58.92230
# Shear Modulus (GPa) = 22.82186 23.38892 23.10539
#
# Velocity S-wave (km/s) = 3.50542 3.54870 3.52713
# Velocity P-wave (km/s) = 6.90776 6.99349 6.95076
#
# Compressibility (1/GPa) = 0.01718399
#
# Stress axis : x y z
#
# Youngs Moduli (GPa) = 62.71611 62.71611 48.18089
#
# Poissons Ratio (x) = 0.33738 0.29754
# Poissons Ratio (y) = 0.33738 0.29754
# Poissons Ratio (z) = 0.38730 0.38730
#
# Static dielectric constant tensor:
#      x y z
#    x 3.268960 0.000000 0.000000 
#    y 0.000000 3.268960 0.000000 
#    z 0.000000 0.000000 3.554630 
# 
# 
# High freq. dielectric constant tensor:
#      x y z
#    x 1.705700 0.000000 0.000000 
#    y 0.000000 1.705700 0.000000 
#    z 0.000000 0.000000 1.720410 
# 
# From -- ./inp_files/4941.got.cif
#   From: 2010.03.12/outbox.cif.g09.slc.cpg/sg155_3_cif.got.tgz:4941.got - 2010.04.03 13:54:13.
