data_PCOD8322797
_publ_section_title
;
Structure prediction by ZEFSAII (Michael W. Deem and Ramdas Pophale) SiO2 
 PCOD8322797
Probable space group: P 3 1 C
;
_chemical_formula_sum "Si O2"
_cell_formula_units_Z 36
_cell_length_a 15.216832
_cell_length_b 15.216832
_cell_length_c 9.076983
_cell_angle_alpha 90.000000
_cell_angle_beta 90.000000
_cell_angle_gamma 120.000000
_cell_volume 1820.206435
_symmetry_space_group_name_H-M "P 3 1 C"
_symmetry_group_IT_number 159
_symmetry_cell_setting 'hexagonal'
loop_
_space_group_symop_operation_xyz
x,y,z
-y,x-y,z
-x+y,-x,z
y,x,1/2+z
x-y,-y,1/2+z
-x,-x+y,1/2+z
loop_
_atom_site_type_symbol
_atom_site_label
_atom_site_fract_x
_atom_site_fract_y
_atom_site_fract_z
Si Si1 0.778122 0.221876 0.458450
Si Si2 0.922081 0.599031 0.708451
Si Si3 0.556246 0.778124 0.458450
Si Si4 0.400967 0.077921 0.208450
Si Si5 0.367121 0.863269 0.208450
Si Si6 0.632877 0.136733 0.208450
O O1 0.747242 0.122987 0.562255
O O2 0.877010 0.252753 0.354644
O O3 0.798416 0.315364 0.562882
O O4 0.684635 0.201586 0.354019
O O5 0.877014 0.624255 0.854646
O O6 0.891085 0.481601 0.708451
O O7 0.043558 0.657406 0.708450
O O8 0.624257 0.747245 0.562253
O O9 0.483052 0.684637 0.354016
O O10 0.483050 0.798413 0.562884
O O11 0.518397 0.108918 0.208450
O O12 0.342592 0.956444 0.208451
#
# Coordination Sequence:
#
# PCOD8322797 Si02
#       6
#     6   6   6   6   6   6
#     4  10  20  32  48  76  88 128 182 212 234 294
#     4  10  20  36  51  68 102 141 168 205 267 307
#     4  10  20  32  48  76  88 128 182 212 234 294
#     4  10  20  36  51  68 102 141 168 205 267 307
#     4  10  20  36  51  68 102 141 168 205 267 307
#     4  10  20  36  51  68 102 141 168 205 267 307
#
# _framework density 19.777977
#
# number of rings (size 3 to 8) (size 9 to 14) (size 15 to 20)
#    0.000    2.000    0.000    4.000    0.000    5.333 
#   40.000    0.000    0.000    0.000    0.000    0.000 
#    0.000    0.000    0.000  924.000    0.000    0.000 
#
# Total GULP energy -446088.149757 kJ/mol
# GULP energy per Si atom -12391.337493 kJ/mol
# Density = 1.973296 g / cm^3
# Si number density = 19.777977 Si / 1000 Ang^3
#
#
#
# Elastic Constant Matrix: (Units=GPa)
#
#
# Indices 1 2 3 4 5 6 
#
# 1 69.4169 26.8017 33.6257 0.0000 -0.0003 0.0000
# 2 26.8017 69.4169 33.6257 0.0000 0.0003 0.0000
# 3 33.6257 33.6257 161.7792 0.0000 0.0000 0.0000
# 4 0.0000 0.0000 0.0000 19.1356 0.0000 0.0003
# 5 -0.0003 0.0003 0.0000 0.0000 19.1356 0.0000
# 6 0.0000 0.0000 0.0000 0.0003 0.0000 21.3076
#
#
#
# Elastic Compliance Matrix: (Units=1/GPa)
#
#
# Indices 1 2 3 4 5 6 
#
# 1 0.017813 -0.005653 -0.002527 0.000000 0.000000 0.000000
# 2 -0.005653 0.017813 -0.002527 0.000000 0.000000 0.000000
# 3 -0.002527 -0.002527 0.007232 0.000000 0.000000 0.000000
# 4 0.000000 0.000000 0.000000 0.052259 0.000000 -0.000001
# 5 0.000000 0.000000 0.000000 0.000000 0.052259 0.000000
# 6 0.000000 0.000000 0.000000 -0.000001 0.000000 0.046932
#
#
# Mechanical properties :
#
#
# Convention : Reuss Voigt Hill
#
# Bulk Modulus (GPa) = 46.63861 54.30212 50.47037
# Shear Modulus (GPa) = 22.43472 25.68642 24.06057
#
# Velocity S-wave (km/s) = 3.37163 3.60771 3.49167
# Velocity P-wave (km/s) = 6.22812 6.69847 6.46757
#
# Compressibility (1/GPa) = 0.02144146
#
# Stress axis : x y z
#
# Youngs Moduli (GPa) = 56.13999 56.13999 138.27672
#
# Poissons Ratio (x) = 0.31737 0.34947
# Poissons Ratio (y) = 0.31737 0.34947
# Poissons Ratio (z) = 0.14188 0.14188
#
# Static dielectric constant tensor:
#      x y z
#    x 3.590920 0.000000 0.000000 
#    y 0.000000 3.590920 0.000000 
#    z 0.000000 0.000000 4.035540 
# 
# 
# High freq. dielectric constant tensor:
#      x y z
#    x 1.733520 0.000000 0.000000 
#    y 0.000000 1.733520 0.000000 
#    z 0.000000 0.000000 1.805660 
# 
# From -- ./inp_files/410.got.cif
#   From: 2010.03.12/outbox.cif.g09.slc.cpg/sg159_cif.got.tgz:410.got - 2010.04.03 14:00:19.
