data_PCOD8322116
_publ_section_title
;
Structure prediction by ZEFSAII (Michael W. Deem and Ramdas Pophale) SiO2 
 PCOD8322116
Probable space group: P 31 2 1
;
_chemical_formula_sum "Si O2"
_cell_formula_units_Z 42
_cell_length_a 20.572104
_cell_length_b 20.572104
_cell_length_c 5.894239
_cell_angle_alpha 90.000000
_cell_angle_beta 90.000000
_cell_angle_gamma 120.000000
_cell_volume 2160.308606
_symmetry_space_group_name_H-M "P 31 2 1"
_symmetry_group_IT_number 152
_symmetry_cell_setting 'hexagonal'
loop_
_space_group_symop_operation_xyz
x,y,z
-y,x-y,1/3+z
-x+y,-x,2/3+z
x-y,-y,2/3-z
-x,-x+y,1/3-z
y,x,-z
loop_
_atom_site_type_symbol
_atom_site_label
_atom_site_fract_x
_atom_site_fract_y
_atom_site_fract_z
Si Si1 0.645954 0.125405 0.123759
Si Si2 0.822879 0.405271 0.809200
Si Si3 0.142095 0.374254 0.900283
Si Si4 0.734496 0.077080 0.440204
Si Si5 0.505538 0.267324 0.400292
Si Si6 0.629810 0.000000 0.833334
Si Si7 0.435933 0.078012 0.721988
Si Si8 0.323984 0.000000 0.333334
O O1 0.581132 0.140015 0.229378
O O2 0.687744 0.111549 0.329678
O O3 0.707378 0.193468 0.971034
O O4 0.604711 0.046931 0.990273
O O5 0.752941 0.322883 0.780002
O O6 0.795772 0.461197 0.892291
O O7 0.878621 0.402712 0.996637
O O8 0.179456 0.321763 0.935980
O O9 0.194155 0.434947 0.709557
O O10 0.057718 0.312295 0.820756
O O11 0.130441 0.414627 0.122334
O O12 0.706048 0.058965 0.700442
O O13 0.722380 0.000000 0.333334
O O14 0.394435 0.058569 0.481624
O O15 0.416761 0.000000 0.833334
#
# Coordination Sequence:
#
# PCOD8322116 Si02
#       8
#     6   6   6   6   6   3   6   3
#     4  11  23  42  58  88 115 154 199 257 317 376
#     4  12  27  41  60  85 113 160 205 266 314 375
#     4  11  21  43  63  88 120 164 202 257 316 376
#     4  10  21  38  64  90 120 158 192 248 313 374
#     4  12  27  41  61  82 116 159 209 264 317 379
#     4  10  20  42  60  92 116 152 192 242 318 372
#     4  10  24  44  63  88 121 158 213 256 314 379
#     4  10  22  40  64  88 114 168 196 260 304 374
#
# _framework density 19.441668
#
# number of rings (size 3 to 8) (size 9 to 14) (size 15 to 20)
#    0.000    1.143    4.286    0.857    4.000    0.000 
#   16.714    0.000    0.000    0.000    0.000    0.000 
#    0.000    0.000   48.571    0.000    0.000    0.000 
#
# Total GULP energy -520375.654884 kJ/mol
# GULP energy per Si atom -12389.896545 kJ/mol
# Density = 1.939742 g / cm^3
# Si number density = 19.441668 Si / 1000 Ang^3
#
#
#
# Elastic Constant Matrix: (Units=GPa)
#
#
# Indices 1 2 3 4 5 6 
#
# 1 103.5680 61.4112 39.8598 5.3521 0.0000 0.0000
# 2 61.4112 103.5680 39.8598 -5.3521 0.0000 0.0000
# 3 39.8598 39.8598 97.5311 0.0000 0.0000 0.0000
# 4 5.3521 -5.3521 0.0000 35.8580 0.0000 0.0000
# 5 0.0000 0.0000 0.0000 0.0000 35.8580 5.3521
# 6 0.0000 0.0000 0.0000 0.0000 5.3521 21.0784
#
#
#
# Elastic Compliance Matrix: (Units=1/GPa)
#
#
# Indices 1 2 3 4 5 6 
#
# 1 0.016104 -0.008551 -0.003087 -0.003680 0.000000 0.000000
# 2 -0.008551 0.016104 -0.003087 0.003680 0.000000 0.000000
# 3 -0.003087 -0.003087 0.012776 0.000000 0.000000 0.000000
# 4 -0.003680 0.003680 0.000000 0.028986 0.000000 0.000000
# 5 0.000000 0.000000 0.000000 0.000000 0.028986 -0.007360
# 6 0.000000 0.000000 0.000000 0.000000 -0.007360 0.049311
#
#
# Mechanical properties :
#
#
# Convention : Reuss Voigt Hill
#
# Bulk Modulus (GPa) = 64.37114 65.21428 64.79271
# Shear Modulus (GPa) = 26.75289 29.46130 28.10710
#
# Velocity S-wave (km/s) = 3.71355 3.89700 3.80638
# Velocity P-wave (km/s) = 7.18116 7.33929 7.26065
#
# Compressibility (1/GPa) = 0.01553491
#
# Stress axis : x y z
#
# Youngs Moduli (GPa) = 62.09587 62.09587 78.27052
#
# Poissons Ratio (x) = 0.53099 0.24160
# Poissons Ratio (y) = 0.53099 0.24160
# Poissons Ratio (z) = 0.19168 0.19168
#
# Static dielectric constant tensor:
#      x y z
#    x 3.716030 0.000000 0.000000 
#    y 0.000000 3.716030 0.000000 
#    z 0.000000 0.000000 3.934770 
# 
# 
# High freq. dielectric constant tensor:
#      x y z
#    x 1.740000 0.000000 0.000000 
#    y 0.000000 1.740000 0.000000 
#    z 0.000000 0.000000 1.778900 
# 
# From -- ./inp_files/552.got.cif
#   From: 2010.03.12/outbox.cif.g09.slc.cpg/sg152_1_cif.got.tgz:552.got - 2010.04.03 13:45:27.
