data_PCOD8322876
_publ_section_title
;
Structure prediction by ZEFSAII (Michael W. Deem and Ramdas Pophale) SiO2 
 PCOD8322876
Probable space group: R 3 M
;
_chemical_formula_sum "Si O2"
_cell_formula_units_Z 54
_cell_length_a 20.306205
_cell_length_b 20.306205
_cell_length_c 7.784976
_cell_angle_alpha 90.000000
_cell_angle_beta 90.000000
_cell_angle_gamma 120.000000
_cell_volume 2780.004137
_symmetry_space_group_name_H-M "R 3 M"
_symmetry_group_IT_number 160
_symmetry_cell_setting 'hexagonal'
loop_
_space_group_symop_operation_xyz
x,y,z
-y,x-y,z
-x+y,-x,z
-x+y,y,z
x,x-y,z
-y,-x,z
2/3+x,1/3+y,1/3+z
2/3-y,1/3+x-y,1/3+z
2/3-x+y,1/3-x,1/3+z
2/3-x+y,1/3+y,1/3+z
2/3+x,1/3+x-y,1/3+z
2/3-y,1/3-x,1/3+z
1/3+x,2/3+y,2/3+z
1/3-y,2/3+x-y,2/3+z
1/3-x+y,2/3-x,2/3+z
1/3-x+y,2/3+y,2/3+z
1/3+x,2/3+x-y,2/3+z
1/3-y,2/3-x,2/3+z
loop_
_atom_site_type_symbol
_atom_site_label
_atom_site_fract_x
_atom_site_fract_y
_atom_site_fract_z
Si Si1 0.580953 0.868313 0.041311
Si Si2 0.510397 0.333336 0.040674
Si Si3 0.419056 0.131692 0.373367
O O1 0.582090 0.791045 0.039928
O O2 0.536449 0.871545 0.208967
O O3 0.666671 0.939277 0.040650
O O4 0.536571 0.869922 0.874034
O O5 0.520064 0.260032 0.037927
O O6 0.593386 0.406615 0.043369
O O7 0.463587 0.335127 0.205755
O O8 0.417910 0.208955 0.374650
#
# Coordination Sequence:
#
# PCOD8322876 Si02
#       3
#    18  18  18
#     4  10  22  37  56  83 112 146 185 226 274 327
#     4  10  21  38  60  84 111 144 184 230 278 328
#     4  10  22  37  56  83 112 146 185 226 274 327
#
# _framework density 19.424430999999998
#
# number of rings (size 3 to 8) (size 9 to 14) (size 15 to 20)
#    0.000    2.000    0.000    2.333    4.667    0.000 
#    0.000   10.000    0.000   10.667    0.000    0.000 
#    0.000    0.000    0.000    0.000    0.000    0.000 
#
# Total GULP energy -223246.633377 kJ/mol
# GULP energy per Si atom -12402.590743 kJ/mol
# Density = 1.938022 g / cm^3
# Si number density = 19.424431 Si / 1000 Ang^3
#
#
#
# Elastic Constant Matrix: (Units=GPa)
#
#
# Indices 1 2 3 4 5 6 
#
# 1 39.9144 53.6745 52.9220 -2.2263 -0.1035 -0.1420
# 2 53.6745 40.0167 53.0748 2.1786 0.0145 -0.0049
# 3 52.9220 53.0748 202.0099 -0.0501 -0.0737 -0.1154
# 4 -2.2263 2.1786 -0.0501 33.3820 -0.0484 -0.0610
# 5 -0.1035 0.0145 -0.0737 -0.0484 33.3421 -2.2922
# 6 -0.1420 -0.0049 -0.1154 -0.0610 -2.2922 -6.9614
#
#
#
# Elastic Compliance Matrix: (Units=1/GPa)
#
#
# Indices 1 2 3 4 5 6 
#
# 1 -0.028136 0.043314 -0.004010 -0.004708 -0.000075 0.000676
# 2 0.043314 -0.028111 -0.003961 0.004716 0.000085 -0.000867
# 3 -0.004010 -0.003961 0.007041 0.000002 0.000003 -0.000033
# 4 -0.004708 0.004716 0.000002 0.029334 0.000014 -0.000169
# 5 -0.000075 0.000085 0.000003 0.000014 0.029328 -0.009656
# 6 0.000676 -0.000867 -0.000033 -0.000169 -0.009656 -0.140480
#
#
# Mechanical properties :
#
#
# Convention : Reuss Voigt Hill
#
# Bulk Modulus (GPa) = 46.55359 66.80930 56.68144
# Shear Modulus (GPa) = -25.70029 20.10384 -2.79822
#
# Velocity S-wave (km/s) = -3.64138 3.22060 -1.20154
# Velocity P-wave (km/s) = 2.51774 6.94973 5.22675
#
# Compressibility (1/GPa) = 0.02148062
#
# Stress axis : x y z
#
# Youngs Moduli (GPa) = -35.54135 -35.57323 142.01834
#
# Poissons Ratio (x) = 1.54081 0.56946
# Poissons Ratio (y) = 1.53943 0.56251
# Poissons Ratio (z) = -0.14251 -0.14090
#
# Static dielectric constant tensor:
#      x y z
#    x 3.564780 0.000020 -0.000060 
#    y 0.000020 3.564800 0.000090 
#    z -0.000060 0.000090 3.877280 
# 
# 
# High freq. dielectric constant tensor:
#      x y z
#    x 1.758320 0.000000 0.000000 
#    y 0.000000 1.758320 0.000000 
#    z 0.000000 0.000000 1.772780 
# 
# From -- ./inp_files/157.got.cif
#   From: 2010.03.12/outbox.cif.g09.slc.cpg/sg160_1_cif.got.tgz:157.got - 2010.04.02 06:26:15.
