data_PCOD8322373
_publ_section_title
;
Structure prediction by ZEFSAII (Michael W. Deem and Ramdas Pophale) SiO2 
 PCOD8322373
Probable space group: P 32 2 1
;
_chemical_formula_sum "Si O2"
_cell_formula_units_Z 36
_cell_length_a 8.562461
_cell_length_b 8.562461
_cell_length_c 26.606262
_cell_angle_alpha 90.000000
_cell_angle_beta 90.000000
_cell_angle_gamma 120.000000
_cell_volume 1689.319160
_symmetry_space_group_name_H-M "P 32 2 1"
_symmetry_group_IT_number 154
_symmetry_cell_setting 'hexagonal'
loop_
_space_group_symop_operation_xyz
x,y,z
-y,x-y,2/3+z
-x+y,-x,1/3+z
x-y,-y,1/3-z
-x,-x+y,2/3-z
y,x,-z
loop_
_atom_site_type_symbol
_atom_site_label
_atom_site_fract_x
_atom_site_fract_y
_atom_site_fract_z
Si Si1 0.528885 0.768438 0.540427
Si Si2 0.111777 0.564509 0.034111
Si Si3 0.388888 0.325685 0.947490
Si Si4 0.152439 0.858272 0.103307
Si Si5 0.782994 0.531353 0.732688
Si Si6 0.041597 0.057906 0.611862
O O1 0.587420 0.846047 0.484089
O O2 0.664900 0.710236 0.562747
O O3 0.332145 0.588021 0.549110
O O4 0.539893 0.937353 0.570610
O O5 0.263893 0.535501 0.061529
O O6 0.142733 0.755104 0.052576
O O7 0.913593 0.403691 0.046783
O O8 0.143284 0.584498 0.974198
O O9 0.431687 0.431687 0.000000
O O10 0.196243 0.147793 0.949789
O O11 0.982514 0.894593 0.098438
O O12 0.935954 0.742152 0.739537
O O13 0.083375 0.000000 0.666667
#
# Coordination Sequence:
#
# PCOD8322373 Si02
#       6
#     6   6   6   6   6   6
#     4  10  21  39  59  83 122 161 201 250 322 382
#     4  11  21  35  60  88 119 155 206 258 308 371
#     4   9  17  33  57  81 110 157 201 235 301 378
#     4  10  21  39  60  85 118 162 198 260 317 377
#     4  11  21  36  60  90 120 158 206 260 311 375
#     4   9  17  34  60  86 113 153 205 249 305 382
#
# _framework density 21.310362000000001
#
# number of rings (size 3 to 8) (size 9 to 14) (size 15 to 20)
#    0.000    2.000    3.333    1.000    0.000    1.333 
#    0.000   15.000    0.000    0.000    0.000    0.000 
#    0.000    0.000    0.000    0.000    0.000    0.000 
#
# Total GULP energy -445994.257187 kJ/mol
# GULP energy per Si atom -12388.729366 kJ/mol
# Density = 2.126186 g / cm^3
# Si number density = 21.310362 Si / 1000 Ang^3
#
#
#
# Elastic Constant Matrix: (Units=GPa)
#
#
# Indices 1 2 3 4 5 6 
#
# 1 67.9270 7.4871 17.5255 -6.8419 0.0000 0.0000
# 2 7.4871 67.9270 17.5255 6.8419 0.0000 0.0000
# 3 17.5255 17.5255 75.6674 0.0000 0.0000 0.0000
# 4 -6.8419 6.8419 0.0000 27.8521 0.0000 0.0000
# 5 0.0000 0.0000 0.0000 0.0000 27.8521 -6.8419
# 6 0.0000 0.0000 0.0000 0.0000 -6.8419 30.2199
#
#
#
# Elastic Compliance Matrix: (Units=1/GPa)
#
#
# Indices 1 2 3 4 5 6 
#
# 1 0.016190 -0.001330 -0.003442 0.004304 0.000000 0.000000
# 2 -0.001330 0.016190 -0.003442 -0.004304 0.000000 0.000000
# 3 -0.003442 -0.003442 0.014810 0.000000 0.000000 0.000000
# 4 0.004304 -0.004304 0.000000 0.038018 0.000000 0.000000
# 5 0.000000 0.000000 0.000000 0.000000 0.038018 0.008607
# 6 0.000000 0.000000 0.000000 0.000000 0.008607 0.035039
#
#
# Mechanical properties :
#
#
# Convention : Reuss Voigt Hill
#
# Bulk Modulus (GPa) = 32.50686 32.95526 32.73106
# Shear Modulus (GPa) = 27.03483 28.45039 27.74261
#
# Velocity S-wave (km/s) = 3.56564 3.65780 3.61201
# Velocity P-wave (km/s) = 5.67792 5.77385 5.72609
#
# Compressibility (1/GPa) = 0.03076274
#
# Stress axis : x y z
#
# Youngs Moduli (GPa) = 61.76749 61.76749 67.52189
#
# Poissons Ratio (x) = 0.08215 0.23239
# Poissons Ratio (y) = 0.08215 0.23239
# Poissons Ratio (z) = 0.21258 0.21258
#
# Static dielectric constant tensor:
#      x y z
#    x 3.833090 0.000000 0.000000 
#    y 0.000000 3.833090 0.000000 
#    z 0.000000 0.000000 3.851990 
# 
# 
# High freq. dielectric constant tensor:
#      x y z
#    x 1.822750 0.000000 0.000000 
#    y 0.000000 1.822750 0.000000 
#    z 0.000000 0.000000 1.818540 
# 
# From -- ./inp_files/3444.got.cif
#   From: 2010.03.12/outbox.cif.g09.slc.cpg/sg154_2_cif.got.tgz:3444.got - 2010.04.03 13:51:21.
