data_PCOD8322321
_publ_section_title
;
Structure prediction by ZEFSAII (Michael W. Deem and Ramdas Pophale) SiO2 
 PCOD8322321
Probable space group: P 32 2 1
;
_chemical_formula_sum "Si O2"
_cell_formula_units_Z 42
_cell_length_a 15.061788
_cell_length_b 15.061788
_cell_length_c 11.241228
_cell_angle_alpha 90.000000
_cell_angle_beta 90.000000
_cell_angle_gamma 120.000000
_cell_volume 2208.500231
_symmetry_space_group_name_H-M "P 32 2 1"
_symmetry_group_IT_number 154
_symmetry_cell_setting 'hexagonal'
loop_
_space_group_symop_operation_xyz
x,y,z
-y,x-y,2/3+z
-x+y,-x,1/3+z
x-y,-y,1/3-z
-x,-x+y,2/3-z
y,x,-z
loop_
_atom_site_type_symbol
_atom_site_label
_atom_site_fract_x
_atom_site_fract_y
_atom_site_fract_z
Si Si1 0.534124 0.545016 0.142229
Si Si2 0.800131 0.483376 0.168599
Si Si3 0.946742 0.235642 0.164134
Si Si4 0.298033 0.597550 0.918041
Si Si5 0.702926 0.856602 0.926503
Si Si6 0.288997 0.231559 0.376690
Si Si7 0.641675 0.155742 0.949547
O O1 0.427077 0.529532 0.187160
O O2 0.622536 0.650122 0.199500
O O3 0.549722 0.456238 0.198317
O O4 0.543580 0.543580 0.000000
O O5 0.772018 0.466557 0.306663
O O6 0.707307 0.402348 0.087321
O O7 0.829606 0.598021 0.136838
O O8 0.879109 0.204487 0.283209
O O9 0.881298 0.156163 0.059393
O O10 0.052160 0.232612 0.179337
O O11 0.279664 0.533136 0.797041
O O12 0.199826 0.612945 0.934632
O O13 0.773799 0.978531 0.950012
O O14 0.277805 0.277805 0.500000
O O15 0.398938 0.309721 0.324189
#
# Coordination Sequence:
#
# PCOD8322321 Si02
#       7
#     6   6   6   6   6   6   6
#     4  12  20  35  60  89 117 160 204 246 296 367
#     4  11  20  35  57  86 122 154 204 241 293 356
#     4  10  20  36  60  90 114 153 205 254 302 361
#     4  10  22  34  57  82 121 164 191 239 288 366
#     4  10  19  36  62  89 114 150 202 255 301 353
#     4  10  22  39  60  91 118 149 200 256 310 356
#     4  11  22  39  53  89 122 159 196 237 306 360
#
# _framework density 19.017431999999999
#
# number of rings (size 3 to 8) (size 9 to 14) (size 15 to 20)
#    0.000    1.429    4.286    3.429    0.000    3.429 
#    2.571    0.000    0.000    0.000   78.000    0.000 
#    0.000    0.000    0.000    0.000    0.000    0.000 
#
# Total GULP energy -520801.213735 kJ/mol
# GULP energy per Si atom -12400.028898 kJ/mol
# Density = 1.897415 g / cm^3
# Si number density = 19.017432 Si / 1000 Ang^3
#
#
#
# Elastic Constant Matrix: (Units=GPa)
#
#
# Indices 1 2 3 4 5 6 
#
# 1 122.5452 54.5015 41.1183 -0.8836 0.0000 0.0000
# 2 54.5015 122.5452 41.1183 0.8836 0.0000 0.0000
# 3 41.1183 41.1183 50.8720 0.0000 0.0000 0.0000
# 4 -0.8836 0.8836 0.0000 27.0741 0.0000 0.0000
# 5 0.0000 0.0000 0.0000 0.0000 27.0741 -0.8836
# 6 0.0000 0.0000 0.0000 0.0000 -0.8836 34.0218
#
#
#
# Elastic Compliance Matrix: (Units=1/GPa)
#
#
# Indices 1 2 3 4 5 6 
#
# 1 0.011876 -0.002833 -0.007310 0.000480 0.000000 0.000000
# 2 -0.002833 0.011876 -0.007310 -0.000480 0.000000 0.000000
# 3 -0.007310 -0.007310 0.031473 0.000000 0.000000 0.000000
# 4 0.000480 -0.000480 0.000000 0.036967 0.000000 0.000000
# 5 0.000000 0.000000 0.000000 0.000000 0.036967 0.000960
# 6 0.000000 0.000000 0.000000 0.000000 0.000960 0.029418
#
#
# Mechanical properties :
#
#
# Convention : Reuss Voigt Hill
#
# Bulk Modulus (GPa) = 49.20761 63.27096 56.23929
# Shear Modulus (GPa) = 24.96815 28.24896 26.60855
#
# Velocity S-wave (km/s) = 3.62734 3.85830 3.74460
# Velocity P-wave (km/s) = 6.59353 7.29321 6.95218
#
# Compressibility (1/GPa) = 0.02032206
#
# Stress axis : x y z
#
# Youngs Moduli (GPa) = 84.20220 84.20220 31.77295
#
# Poissons Ratio (x) = 0.23852 0.23225
# Poissons Ratio (y) = 0.23852 0.23225
# Poissons Ratio (z) = 0.61548 0.61548
#
# Static dielectric constant tensor:
#      x y z
#    x 3.657470 0.000000 0.000000 
#    y 0.000000 3.657470 0.000000 
#    z 0.000000 0.000000 3.360310 
# 
# 
# High freq. dielectric constant tensor:
#      x y z
#    x 1.743950 0.000000 0.000000 
#    y 0.000000 1.743950 0.000000 
#    z 0.000000 0.000000 1.717510 
# 
# From -- ./inp_files/1742.got.cif
#   From: 2010.03.12/outbox.cif.g09.slc.cpg/sg154_1_cif.got.tgz:1742.got - 2010.04.03 13:51:21.
