data_PCOD8322590
_publ_section_title
;
Structure prediction by ZEFSAII (Michael W. Deem and Ramdas Pophale) SiO2 
 PCOD8322590
Probable space group: R 3 2
;
_chemical_formula_sum "Si O2"
_cell_formula_units_Z 69
_cell_length_a 22.060870
_cell_length_b 22.060870
_cell_length_c 7.840385
_cell_angle_alpha 90.000000
_cell_angle_beta 90.000000
_cell_angle_gamma 120.000000
_cell_volume 3304.557337
_symmetry_space_group_name_H-M "R 3 2"
_symmetry_group_IT_number 155
_symmetry_cell_setting 'hexagonal'
loop_
_space_group_symop_operation_xyz
x,y,z
-y,x-y,z
-x+y,-x,z
x-y,-y,-z
-x,-x+y,-z
y,x,-z
2/3+x,1/3+y,1/3+z
2/3-y,1/3+x-y,1/3+z
2/3-x+y,1/3-x,1/3+z
2/3+x-y,1/3-y,1/3-z
2/3-x,1/3-x+y,1/3-z
2/3+y,1/3+x,1/3-z
1/3+x,2/3+y,2/3+z
1/3-y,2/3+x-y,2/3+z
1/3-x+y,2/3-x,2/3+z
1/3+x-y,2/3-y,2/3-z
1/3-x,2/3-x+y,2/3-z
1/3+y,2/3+x,2/3-z
loop_
_atom_site_type_symbol
_atom_site_label
_atom_site_fract_x
_atom_site_fract_y
_atom_site_fract_z
Si Si1 0.188943 0.929185 0.911897
Si Si2 0.153778 0.218089 0.134572
Si Si3 0.541066 0.204381 0.027636
Si Si4 0.333334 0.666667 0.868412
Si Si5 0.666667 0.950650 0.333334
O O1 0.237395 0.904061 0.833334
O O2 0.146954 0.949224 0.780457
O O3 0.134451 0.865819 0.030547
O O4 0.244262 0.000000 0.000000
O O5 0.081580 0.163521 0.228334
O O6 0.210969 0.265577 0.276922
O O7 0.180347 0.180347 0.000000
O O8 0.588936 0.286934 0.057508
O O9 0.519958 0.186624 0.833334
O O10 0.333334 0.666668 0.666667
O O11 0.686194 0.000000 0.500000
#
# Coordination Sequence:
#
# PCOD8322590 Si02
#       5
#    18  18  18   6   9
#     4  10  24  44  67  96 133 180 226 284 347 414
#     4  11  25  44  70 100 140 186 234 297 362 427
#     4  11  24  42  68 105 136 182 233 287 360 429
#     4  12  22  41  67  96 139 170 220 288 349 416
#     4  12  28  48  68 106 142 194 248 300 362 436
#
# _framework density 20.880253
#
# number of rings (size 3 to 8) (size 9 to 14) (size 15 to 20)
#    0.000    1.043    1.304    5.478    7.304    3.130 
#    4.696    0.000    0.000    0.000    0.000    0.000 
#    0.000    0.000    0.000    0.000    0.000    0.000 
#
# Total GULP energy -285039.996946 kJ/mol
# GULP energy per Si atom -12393.043345 kJ/mol
# Density = 2.083273 g / cm^3
# Si number density = 20.880253 Si / 1000 Ang^3
#
#
#
# Elastic Constant Matrix: (Units=GPa)
#
#
# Indices 1 2 3 4 5 6 
#
# 1 85.4705 49.0306 45.2422 32.7890 0.1771 -0.1959
# 2 49.0306 85.1175 44.8100 -32.7243 -0.0240 0.1740
# 3 45.2422 44.8100 128.6811 0.0879 0.1539 -0.0591
# 4 32.7890 -32.7243 0.0879 34.3500 0.0641 -0.0056
# 5 0.1771 -0.0240 0.1539 0.0641 34.5061 32.6836
# 6 -0.1959 0.1740 -0.0591 -0.0056 32.6836 18.3008
#
#
#
# Elastic Compliance Matrix: (Units=1/GPa)
#
#
# Indices 1 2 3 4 5 6 
#
# 1 -0.014210 0.023944 -0.003366 0.036385 -0.000573 0.000645
# 2 0.023944 -0.014226 -0.003441 -0.036402 0.000578 -0.000663
# 3 -0.003366 -0.003441 0.010153 -0.000091 0.000084 -0.000121
# 4 0.036385 -0.036402 -0.000091 -0.040300 0.001188 -0.001399
# 5 -0.000573 0.000578 0.000084 0.001188 -0.041921 0.074855
# 6 0.000645 -0.000663 -0.000121 -0.001399 0.074855 -0.079030
#
#
# Mechanical properties :
#
#
# Convention : Reuss Voigt Hill
#
# Bulk Modulus (GPa) = 62.53148 64.15942 63.34545
# Shear Modulus (GPa) = -23.98315 28.11047 2.06366
#
# Velocity S-wave (km/s) = -3.39278 3.67314 0.99523
# Velocity P-wave (km/s) = 3.82945 6.98450 5.63240
#
# Compressibility (1/GPa) = 0.01599194
#
# Stress axis : x y z
#
# Youngs Moduli (GPa) = -70.37460 -70.29142 98.49727
#
# Poissons Ratio (x) = 1.68308 0.33154
# Poissons Ratio (y) = 1.68507 0.33888
# Poissons Ratio (z) = -0.23688 -0.24184
#
# Static dielectric constant tensor:
#      x y z
#    x 3.785290 -0.000080 0.000010 
#    y -0.000080 3.785410 0.000010 
#    z 0.000010 0.000010 3.959760 
# 
# 
# High freq. dielectric constant tensor:
#      x y z
#    x 1.828890 0.000000 -0.000010 
#    y 0.000000 1.828900 0.000000 
#    z -0.000010 0.000000 1.825500 
# 
# From -- ./inp_files/2184.got.cif
#   From: 2010.03.12/outbox.cif.g09.slc.cpg/sg155_2_cif.got.tgz:2184.got - 2010.04.03 13:54:13.
