data_PCOD8322944
_publ_section_title
;
Structure prediction by ZEFSAII (Michael W. Deem and Ramdas Pophale) SiO2 
 PCOD8322944
Probable space group: P -3 1 M 
;
_chemical_formula_sum "Si O2"
_cell_formula_units_Z 64
_cell_length_a 23.323949
_cell_length_b 23.323949
_cell_length_c 11.538889
_cell_angle_alpha 90.000000
_cell_angle_beta 90.000000
_cell_angle_gamma 120.000000
_cell_volume 5436.242150
_symmetry_space_group_name_H-M "P -3 1 M "
_symmetry_group_IT_number 162
_symmetry_cell_setting 'hexagonal'
loop_
_space_group_symop_operation_xyz
x,y,z
-y,x-y,z
-x+y,-x,z
-y,-x,-z
-x+y,y,-z
x,x-y,-z
-x,-y,-z
y,-x+y,-z
x-y,x,-z
y,x,z
x-y,-y,z
-x,-x+y,z
loop_
_atom_site_type_symbol
_atom_site_label
_atom_site_fract_x
_atom_site_fract_y
_atom_site_fract_z
Si Si1 0.130766 0.497399 0.743988
Si Si2 0.482720 0.741360 0.860184
Si Si3 0.925008 0.395097 0.499999
Si Si4 0.000000 0.432223 0.873112
Si Si5 0.567775 0.567775 0.126889
Si Si6 0.333334 0.666668 0.136243
Si Si7 0.502599 0.869234 0.743988
O O1 0.186777 0.486079 0.802350
O O2 0.119529 0.474739 0.610171
O O3 0.064530 0.443990 0.806763
O O4 0.145560 0.572779 0.760847
O O5 0.407347 0.703669 0.817820
O O6 0.513917 0.813222 0.802350
O O7 0.491386 0.745693 0.000000
O O8 0.936104 0.468052 0.500000
O O9 0.880470 0.355211 0.389829
O O10 0.000000 0.405487 0.499998
O O11 0.000000 0.499999 0.881253
O O12 0.000000 0.404201 0.000001
O O13 0.556008 0.620538 0.193238
O O14 0.333334 0.666667 0.000000
#
# Coordination Sequence:
#
# PCOD8322944 Si02
#       7
#    12  12  12   6   6   4  12
#     4  10  18  28  42  56  73  96 124 151 185 227
#     4  11  20  29  41  57  78 101 121 148 188 235
#     4   9  16  29  44  56  70  92 119 156 190 218
#     4   9  16  25  39  57  71  88 121 159 185 214
#     4   9  16  25  39  57  71  88 121 159 185 214
#     4   9  18  30  39  46  74 109 123 138 178 236
#     4  10  18  28  42  56  73  96 124 151 185 227
#
# _framework density 11.772838
#
# number of rings (size 3 to 8) (size 9 to 14) (size 15 to 20)
#    0.000    2.250    3.750    1.125    0.000    2.250 
#    0.000    0.000    0.000    0.000    0.000    0.000 
#    0.000    0.000    0.000    0.000    0.000    0.000 
#
# Total GULP energy -793114.336919 kJ/mol
# GULP energy per Si atom -12392.411514 kJ/mol
# Density = 1.174604 g / cm^3
# Si number density = 11.772838 Si / 1000 Ang^3
#
#
#
# Elastic Constant Matrix: (Units=GPa)
#
#
# Indices 1 2 3 4 5 6 
#
# 1 59.1620 34.7182 38.2649 0.0000 -0.0002 0.0001
# 2 34.7182 59.1620 38.2651 0.0000 0.0002 0.0000
# 3 38.2649 38.2651 113.1348 0.0001 0.0001 -0.0001
# 4 0.0000 0.0000 0.0001 5.1289 0.0000 0.0002
# 5 -0.0002 0.0002 0.0001 0.0000 5.1288 0.0000
# 6 0.0001 0.0000 -0.0001 0.0002 0.0000 12.2220
#
#
#
# Elastic Compliance Matrix: (Units=1/GPa)
#
#
# Indices 1 2 3 4 5 6 
#
# 1 0.027808 -0.013102 -0.004974 0.000000 0.000002 0.000000
# 2 -0.013102 0.027809 -0.004974 0.000000 -0.000002 0.000000
# 3 -0.004974 -0.004974 0.012204 0.000000 0.000000 0.000000
# 4 0.000000 0.000000 0.000000 0.194973 0.000001 -0.000004
# 5 0.000002 -0.000002 0.000000 0.000001 0.194976 0.000000
# 6 0.000000 0.000000 0.000000 -0.000004 0.000000 0.081820
#
#
# Mechanical properties :
#
#
# Convention : Reuss Voigt Hill
#
# Bulk Modulus (GPa) = 46.03926 50.43944 48.23935
# Shear Modulus (GPa) = 8.43269 12.50998 10.47134
#
# Velocity S-wave (km/s) = 2.67925 3.26331 2.98560
# Velocity P-wave (km/s) = 6.98301 7.55883 7.27662
#
# Compressibility (1/GPa) = 0.02172059
#
# Stress axis : x y z
#
# Youngs Moduli (GPa) = 35.96031 35.96021 81.94158
#
# Poissons Ratio (x) = 0.47114 0.40759
# Poissons Ratio (y) = 0.47114 0.40760
# Poissons Ratio (z) = 0.17887 0.17888
#
# Static dielectric constant tensor:
#      x y z
#    x 2.316240 0.000000 0.000000 
#    y 0.000000 2.316230 0.000000 
#    z 0.000000 0.000000 2.791940 
# 
# 
# High freq. dielectric constant tensor:
#      x y z
#    x 1.410400 0.000000 0.000000 
#    y 0.000000 1.410400 0.000000 
#    z 0.000000 0.000000 1.464910 
# 
# From -- ./inp_files/2448.got.cif
#   From: 2010.03.12/outbox.cif.g09.slc.cpg/sg162_2_cif.got.tgz:2448.got - 2010.04.02 06:27:41.
