data_PCOD8322317
_publ_section_title
;
Structure prediction by ZEFSAII (Michael W. Deem and Ramdas Pophale) SiO2 
 PCOD8322317
Probable space group: P 32 2 1
;
_chemical_formula_sum "Si O2"
_cell_formula_units_Z 45
_cell_length_a 11.906249
_cell_length_b 11.906249
_cell_length_c 17.377330
_cell_angle_alpha 90.000000
_cell_angle_beta 90.000000
_cell_angle_gamma 120.000000
_cell_volume 2133.357318
_symmetry_space_group_name_H-M "P 32 2 1"
_symmetry_group_IT_number 154
_symmetry_cell_setting 'hexagonal'
loop_
_space_group_symop_operation_xyz
x,y,z
-y,x-y,2/3+z
-x+y,-x,1/3+z
x-y,-y,1/3-z
-x,-x+y,2/3-z
y,x,-z
loop_
_atom_site_type_symbol
_atom_site_label
_atom_site_fract_x
_atom_site_fract_y
_atom_site_fract_z
Si Si1 0.653260 0.827058 0.890374
Si Si2 0.547599 0.904979 0.023193
Si Si3 0.353470 0.913571 0.925304
Si Si4 0.667875 0.039241 0.582653
Si Si5 0.243290 0.588553 0.448749
Si Si6 0.144052 0.564885 0.165141
Si Si7 0.000000 0.135071 0.333334
Si Si8 0.186203 0.246015 0.582033
O O1 0.688748 0.891869 0.804541
O O2 0.523789 0.687439 0.893979
O O3 0.616043 0.916257 0.941333
O O4 0.769285 0.811016 0.925955
O O5 0.519368 0.775699 0.068368
O O6 0.663606 0.024331 0.069769
O O7 0.411878 0.903476 0.008791
O O8 0.342402 0.802994 0.868289
O O9 0.214080 0.904777 0.927532
O O10 0.461789 0.053876 0.898166
O O11 0.613593 0.138120 0.594329
O O12 0.697419 0.000000 0.666667
O O13 0.559127 0.910430 0.539280
O O14 0.382192 0.720125 0.456654
O O15 0.126283 0.127264 0.357498
O O16 0.181831 0.181831 0.500000
#
# Coordination Sequence:
#
# PCOD8322317 Si02
#       8
#     6   6   6   6   6   6   3   6
#     4  10  20  36  58  95 122 156 228 270 322 392
#     4  11  21  37  58  94 126 166 210 275 332 398
#     4  11  22  38  59  94 130 162 216 272 323 408
#     4  10  20  33  56  88 127 165 202 264 339 392
#     4  10  21  35  57  88 122 161 209 264 329 392
#     4  10  19  35  56  89 129 163 206 263 329 398
#     4  10  24  38  72  92 120 178 232 292 312 382
#     4  11  23  42  67  96 127 174 229 278 335 399
#
# _framework density 21.093513999999999
#
# number of rings (size 3 to 8) (size 9 to 14) (size 15 to 20)
#    0.000    1.600    5.333    1.600    8.400    0.000 
#    0.000    0.000   13.200    0.800    0.000    0.000 
#    0.000    0.000    0.000    0.000    0.000    0.000 
#
# Total GULP energy -557573.371235 kJ/mol
# GULP energy per Si atom -12390.519361 kJ/mol
# Density = 2.104550 g / cm^3
# Si number density = 21.093514 Si / 1000 Ang^3
#
#
#
# Elastic Constant Matrix: (Units=GPa)
#
#
# Indices 1 2 3 4 5 6 
#
# 1 72.3045 19.6128 24.5811 -0.7906 -0.0001 0.0000
# 2 19.6128 72.3045 24.5811 0.7906 0.0001 0.0000
# 3 24.5811 24.5811 82.0180 0.0000 0.0000 0.0000
# 4 -0.7906 0.7906 0.0000 27.7095 0.0000 0.0001
# 5 -0.0001 0.0001 0.0000 0.0000 27.7095 -0.7906
# 6 0.0000 0.0000 0.0000 0.0001 -0.7906 26.3459
#
#
#
# Elastic Compliance Matrix: (Units=1/GPa)
#
#
# Indices 1 2 3 4 5 6 
#
# 1 0.015975 -0.003019 -0.003883 0.000542 0.000000 0.000000
# 2 -0.003019 0.015975 -0.003883 -0.000542 0.000000 0.000000
# 3 -0.003883 -0.003883 0.014520 0.000000 0.000000 0.000000
# 4 0.000542 -0.000542 0.000000 0.036120 0.000000 0.000000
# 5 0.000000 0.000000 0.000000 0.000000 0.036120 0.001084
# 6 0.000000 0.000000 0.000000 0.000000 0.001084 0.037989
#
#
# Mechanical properties :
#
#
# Convention : Reuss Voigt Hill
#
# Bulk Modulus (GPa) = 40.16021 40.46410 40.31216
# Shear Modulus (GPa) = 26.79963 26.87643 26.83803
#
# Velocity S-wave (km/s) = 3.56830 3.57340 3.57085
# Velocity P-wave (km/s) = 6.00478 6.02084 6.01282
#
# Compressibility (1/GPa) = 0.02490027
#
# Stress axis : x y z
#
# Youngs Moduli (GPa) = 62.59631 62.59631 68.87070
#
# Poissons Ratio (x) = 0.18899 0.26743
# Poissons Ratio (y) = 0.18899 0.26743
# Poissons Ratio (z) = 0.24306 0.24306
#
# Static dielectric constant tensor:
#      x y z
#    x 3.847030 0.000000 0.000000 
#    y 0.000000 3.847030 0.000000 
#    z 0.000000 0.000000 3.860430 
# 
# 
# High freq. dielectric constant tensor:
#      x y z
#    x 1.811030 0.000000 0.000000 
#    y 0.000000 1.811030 0.000000 
#    z 0.000000 0.000000 1.818680 
# 
# From -- ./inp_files/2514.got.cif
#   From: 2010.03.12/outbox.cif.g09.slc.cpg/sg154_2_cif.got.tgz:2514.got - 2010.04.03 13:51:21.
