data_PCOD8322659
_publ_section_title
;
Structure prediction by ZEFSAII (Michael W. Deem and Ramdas Pophale) SiO2 
 PCOD8322659
Probable space group: P 3 M 1
;
_chemical_formula_sum "Si O2"
_cell_formula_units_Z 48
_cell_length_a 12.785293
_cell_length_b 12.785293
_cell_length_c 20.603574
_cell_angle_alpha 90.000000
_cell_angle_beta 90.000000
_cell_angle_gamma 120.000000
_cell_volume 2916.718820
_symmetry_space_group_name_H-M "P 3 M 1"
_symmetry_group_IT_number 156
_symmetry_cell_setting 'hexagonal'
loop_
_space_group_symop_operation_xyz
x,y,z
-y,x-y,z
-x+y,-x,z
-x+y,y,z
x,x-y,z
-y,-x,z
loop_
_atom_site_type_symbol
_atom_site_label
_atom_site_fract_x
_atom_site_fract_y
_atom_site_fract_z
Si Si1 0.755346 0.754612 0.204470
Si Si2 0.907404 0.333600 0.949326
Si Si3 0.912142 0.579550 0.089488
Si Si4 0.665349 0.087084 0.809058
Si Si5 0.243809 0.244205 0.575365
Si Si6 0.907171 0.573802 0.315899
Si Si7 0.906636 0.573488 0.464031
Si Si8 0.332505 0.911378 0.693660
O O1 0.892959 0.785918 0.201700
O O2 0.681408 0.676337 0.142632
O O3 0.690978 0.684947 0.270364
O O4 0.752399 0.876200 0.203259
O O5 0.883996 0.441998 0.961271
O O6 0.778974 0.221027 0.936890
O O7 0.975670 0.346508 0.880720
O O8 0.964815 0.323265 0.017846
O O9 0.773069 0.546138 0.096310
O O10 0.919088 0.459544 0.101349
O O11 0.561914 0.123827 0.801961
O O12 0.794577 0.205424 0.796983
O O13 0.647192 0.986292 0.757457
O O14 0.107719 0.215438 0.568011
O O15 0.312565 0.303930 0.508522
O O16 0.313972 0.336844 0.632666
O O17 0.241816 0.120908 0.591163
O O18 0.768515 0.537029 0.304944
O O19 0.919125 0.459563 0.295909
O O20 0.947582 0.612847 0.389997
O O21 0.766559 0.533118 0.473441
O O22 0.922205 0.461103 0.484412
O O23 0.453265 0.906529 0.682096
O O24 0.223482 0.776519 0.702533
#
# Coordination Sequence:
#
# PCOD8322659 Si02
#       8
#     6   6   6   6   6   6   6   6
#     4  10  20  32  45  62  87 121 157 189 221 260
#     4   8  13  22  39  65  94 118 139 169 217 274
#     4   9  16  27  46  71  94 114 140 180 229 275
#     4   9  16  27  45  69  95 119 143 176 222 275
#     4  10  20  33  49  69  93 121 152 186 224 265
#     4   9  17  30  50  74  96 116 141 179 226 270
#     4   9  17  30  49  73  98 121 144 174 217 267
#     4  10  20  33  48  65  87 118 156 195 230 264
#
# _framework density 16.456848999999998
#
# number of rings (size 3 to 8) (size 9 to 14) (size 15 to 20)
#    0.000    2.750    0.000    2.125    0.000    3.500 
#    0.000    1.875    0.000    8.000    0.000    0.000 
#    0.000    0.000    0.000    0.000    0.000    0.000 
#
# Total GULP energy -594867.255615 kJ/mol
# GULP energy per Si atom -12393.067825 kJ/mol
# Density = 1.641939 g / cm^3
# Si number density = 16.456849 Si / 1000 Ang^3
#
#
#
# Elastic Constant Matrix: (Units=GPa)
#
#
# Indices 1 2 3 4 5 6 
#
# 1 92.7269 50.2546 63.1690 -1.1212 -0.0003 0.0000
# 2 50.2546 92.7269 63.1690 1.1212 0.0003 0.0000
# 3 63.1690 63.1690 133.4838 0.0000 0.0000 0.0000
# 4 -1.1212 1.1212 0.0000 21.5055 0.0000 0.0003
# 5 -0.0003 0.0003 0.0000 0.0000 21.5055 -1.1212
# 6 0.0000 0.0000 0.0000 0.0003 -1.1212 21.2362
#
#
#
# Elastic Compliance Matrix: (Units=1/GPa)
#
#
# Indices 1 2 3 4 5 6 
#
# 1 0.017815 -0.005795 -0.005688 0.001231 0.000000 0.000000
# 2 -0.005795 0.017815 -0.005688 -0.001231 0.000000 0.000000
# 3 -0.005688 -0.005688 0.012875 0.000000 0.000000 0.000000
# 4 0.001231 -0.001231 0.000000 0.046628 0.000000 -0.000001
# 5 0.000000 0.000000 0.000000 0.000000 0.046628 0.002462
# 6 0.000000 0.000000 0.000000 -0.000001 0.002462 0.047219
#
#
# Mechanical properties :
#
#
# Convention : Reuss Voigt Hill
#
# Bulk Modulus (GPa) = 70.61007 74.68029 72.64518
# Shear Modulus (GPa) = 21.92557 22.33912 22.13235
#
# Velocity S-wave (km/s) = 3.65404 3.68834 3.67123
# Velocity P-wave (km/s) = 7.79756 7.97599 7.88728
#
# Compressibility (1/GPa) = 0.01416229
#
# Stress axis : x y z
#
# Youngs Moduli (GPa) = 56.13281 56.13281 77.66796
#
# Poissons Ratio (x) = 0.32528 0.44180
# Poissons Ratio (y) = 0.32528 0.44180
# Poissons Ratio (z) = 0.31930 0.31930
#
# Static dielectric constant tensor:
#      x y z
#    x 2.886580 0.000000 0.000000 
#    y 0.000000 2.886580 0.000000 
#    z 0.000000 0.000000 3.457720 
# 
# 
# High freq. dielectric constant tensor:
#      x y z
#    x 1.613610 0.000000 0.000000 
#    y 0.000000 1.613610 0.000000 
#    z 0.000000 0.000000 1.657840 
# 
# From -- ./inp_files/1121.got.cif
#   From: 2010.03.12/outbox.cif.g09.slc.cpg/sg156_cif.got.tgz:1121.got - 2010.04.03 13:58:47.
