data_PCOD8322035
_publ_section_title
;
Structure prediction by ZEFSAII (Michael W. Deem and Ramdas Pophale) SiO2 
 PCOD8322035
Probable space group: P 31 2 1
;
_chemical_formula_sum "Si O2"
_cell_formula_units_Z 42
_cell_length_a 9.312559
_cell_length_b 9.312559
_cell_length_c 27.250947
_cell_angle_alpha 90.000000
_cell_angle_beta 90.000000
_cell_angle_gamma 120.000000
_cell_volume 2046.681695
_symmetry_space_group_name_H-M "P 31 2 1"
_symmetry_group_IT_number 152
_symmetry_cell_setting 'hexagonal'
loop_
_space_group_symop_operation_xyz
x,y,z
-y,x-y,1/3+z
-x+y,-x,2/3+z
x-y,-y,2/3-z
-x,-x+y,1/3-z
y,x,-z
loop_
_atom_site_type_symbol
_atom_site_label
_atom_site_fract_x
_atom_site_fract_y
_atom_site_fract_z
Si Si1 0.677468 0.233488 0.471066
Si Si2 0.404316 0.133523 0.891577
Si Si3 0.080650 0.881673 0.944184
Si Si4 0.417398 0.270343 0.534508
Si Si5 0.125599 0.961769 0.053611
Si Si6 0.927116 0.609127 0.473094
Si Si7 0.615005 0.965453 0.280072
O O1 0.523847 0.221212 0.500051
O O2 0.710816 0.096500 0.496225
O O3 0.624647 0.173900 0.414679
O O4 0.846519 0.409916 0.471294
O O5 0.559781 0.103313 0.895597
O O6 0.360920 0.148522 0.834007
O O7 0.445109 0.308089 0.916358
O O8 0.263187 0.991090 0.922862
O O9 0.021375 0.710580 0.914755
O O10 0.093439 0.862795 0.002348
O O11 0.960913 0.956621 0.931294
O O12 0.290628 0.290628 0.500000
O O13 0.308928 0.126235 0.573333
O O14 0.262025 0.153361 0.046560
O O15 0.564244 0.000000 0.333334
#
# Coordination Sequence:
#
# PCOD8322035 Si02
#       7
#     6   6   6   6   6   6   6
#     4  10  22  37  59  92 118 161 203 250 311 364
#     4   9  18  35  59  85 115 155 200 241 294 356
#     4  10  19  38  60  88 115 159 206 248 304 365
#     4  11  23  39  57  85 123 155 202 253 306 366
#     4  10  21  37  61  89 119 155 207 255 300 362
#     4  10  20  35  60  87 123 155 203 248 300 372
#     4  10  18  37  64  86 119 157 203 250 293 366
#
# _framework density 20.521023
#
# number of rings (size 3 to 8) (size 9 to 14) (size 15 to 20)
#    0.000    2.000    2.857    3.000    0.000    5.714 
#    2.571    0.000    9.429    0.000    0.000    0.000 
#    0.000    0.000    0.000    0.000    0.000    0.000 
#
# Total GULP energy -520481.136853 kJ/mol
# GULP energy per Si atom -12392.408020 kJ/mol
# Density = 2.047432 g / cm^3
# Si number density = 20.521023 Si / 1000 Ang^3
#
#
#
# Elastic Constant Matrix: (Units=GPa)
#
#
# Indices 1 2 3 4 5 6 
#
# 1 67.4227 28.3859 45.2436 0.6213 -0.0001 0.0000
# 2 28.3859 67.4227 45.2436 -0.6213 0.0001 0.0000
# 3 45.2436 45.2436 137.3260 0.0000 0.0000 0.0000
# 4 0.6213 -0.6213 0.0000 30.4586 0.0000 0.0001
# 5 -0.0001 0.0001 0.0000 0.0000 30.4586 0.6213
# 6 0.0000 0.0000 0.0000 0.0001 0.6213 19.5184
#
#
#
# Elastic Compliance Matrix: (Units=1/GPa)
#
#
# Indices 1 2 3 4 5 6 
#
# 1 0.020393 -0.005241 -0.004992 -0.000523 0.000000 0.000000
# 2 -0.005241 0.020393 -0.004992 0.000523 0.000000 0.000000
# 3 -0.004992 -0.004992 0.010571 0.000000 0.000000 0.000000
# 4 -0.000523 0.000523 0.000000 0.032853 0.000000 0.000000
# 5 0.000000 0.000000 0.000000 0.000000 0.032853 -0.001046
# 6 0.000000 0.000000 0.000000 0.000000 -0.001046 0.051267
#
#
# Mechanical properties :
#
#
# Convention : Reuss Voigt Hill
#
# Bulk Modulus (GPa) = 47.82957 56.65752 52.24355
# Shear Modulus (GPa) = 24.30154 26.30703 25.30428
#
# Velocity S-wave (km/s) = 3.44499 3.58432 3.51535
# Velocity P-wave (km/s) = 6.25957 6.69323 6.48002
#
# Compressibility (1/GPa) = 0.02090757
#
# Stress axis : x y z
#
# Youngs Moduli (GPa) = 49.03670 49.03670 94.59522
#
# Poissons Ratio (x) = 0.25698 0.47223
# Poissons Ratio (y) = 0.25698 0.47223
# Poissons Ratio (z) = 0.24480 0.24480
#
# Static dielectric constant tensor:
#      x y z
#    x 3.717140 0.000000 0.000000 
#    y 0.000000 3.717140 0.000000 
#    z 0.000000 0.000000 4.098910 
# 
# 
# High freq. dielectric constant tensor:
#      x y z
#    x 1.787480 0.000000 0.000000 
#    y 0.000000 1.787480 0.000000 
#    z 0.000000 0.000000 1.810040 
# 
# From -- ./inp_files/3689.got.cif
#   From: 2010.03.12/outbox.cif.g09.slc.cpg/sg152_2_cif.got.tgz:3689.got - 2010.04.03 13:45:27.
