data_PCOD8322022
_publ_section_title
;
Structure prediction by ZEFSAII (Michael W. Deem and Ramdas Pophale) SiO2 
 PCOD8322022
Probable space group: P 31 2 1
;
_chemical_formula_sum "Si O2"
_cell_formula_units_Z 42
_cell_length_a 29.248260
_cell_length_b 29.248260
_cell_length_c 5.169864
_cell_angle_alpha 90.000000
_cell_angle_beta 90.000000
_cell_angle_gamma 120.000000
_cell_volume 3830.097412
_symmetry_space_group_name_H-M "P 31 2 1"
_symmetry_group_IT_number 152
_symmetry_cell_setting 'hexagonal'
loop_
_space_group_symop_operation_xyz
x,y,z
-y,x-y,1/3+z
-x+y,-x,2/3+z
x-y,-y,2/3-z
-x,-x+y,1/3-z
y,x,-z
loop_
_atom_site_type_symbol
_atom_site_label
_atom_site_fract_x
_atom_site_fract_y
_atom_site_fract_z
Si Si1 0.478954 0.713640 0.406686
Si Si2 0.477012 0.876363 0.848334
Si Si3 0.235505 0.700176 0.249216
Si Si4 0.507994 0.630699 0.509137
Si Si5 0.365126 0.645315 0.404469
Si Si6 0.567521 0.058575 0.332309
Si Si7 0.941631 0.402099 0.663222
O O1 0.480191 0.741514 0.672878
O O2 0.516801 0.688897 0.443375
O O3 0.424130 0.658884 0.344708
O O4 0.491323 0.754510 0.169057
O O5 0.483229 0.824864 0.854963
O O6 0.415937 0.862391 0.863285
O O7 0.505082 0.909535 0.592590
O O8 0.512081 0.909770 0.089720
O O9 0.264172 0.664951 0.285992
O O10 0.538060 0.619529 0.283438
O O11 0.539159 0.635605 0.775674
O O12 0.373174 0.702336 0.485064
O O13 0.510900 0.052335 0.377201
O O14 0.560519 0.000000 0.333334
O O15 0.000000 0.408581 0.666667
#
# Coordination Sequence:
#
# PCOD8322022 Si02
#       7
#     6   6   6   6   6   6   6
#     4  11  21  29  39  50  68  88 110 128 155 172
#     4  10  18  29  40  54  69  83 104 129 154 183
#     4  11  21  29  39  50  68  88 110 128 155 172
#     4  10  18  29  40  54  69  83 104 129 154 183
#     4  10  18  28  36  46  59  80 112 140 146 162
#     4   9  17  28  43  56  67  79  96 124 162 196
#     4   9  17  28  43  56  67  79  96 124 162 196
#
# _framework density 10.965780000000001
#
# number of rings (size 3 to 8) (size 9 to 14) (size 15 to 20)
#    0.000    2.000    2.857    2.571    0.000    3.429 
#    0.000    0.000    0.000    0.000    0.000    0.000 
#    0.000    0.000    0.000    0.000    0.000    0.000 
#
# Total GULP energy -520343.753695 kJ/mol
# GULP energy per Si atom -12389.136993 kJ/mol
# Density = 1.094082 g / cm^3
# Si number density = 10.965780 Si / 1000 Ang^3
#
#
#
# Elastic Constant Matrix: (Units=GPa)
#
#
# Indices 1 2 3 4 5 6 
#
# 1 36.4817 21.1330 15.3910 0.2201 0.0000 0.0000
# 2 21.1330 36.4817 15.3910 -0.2201 0.0000 0.0000
# 3 15.3910 15.3910 67.1228 0.0000 0.0000 0.0000
# 4 0.2201 -0.2201 0.0000 11.8760 0.0000 0.0000
# 5 0.0000 0.0000 0.0000 0.0000 11.8760 0.2201
# 6 0.0000 0.0000 0.0000 0.0000 0.2201 7.6744
#
#
#
# Elastic Compliance Matrix: (Units=1/GPa)
#
#
# Indices 1 2 3 4 5 6 
#
# 1 0.042483 -0.022703 -0.004535 -0.001208 0.000000 0.000000
# 2 -0.022703 0.042483 -0.004535 0.001208 0.000000 0.000000
# 3 -0.004535 -0.004535 0.016978 0.000000 0.000000 0.000000
# 4 -0.001208 0.001208 0.000000 0.084248 0.000000 0.000000
# 5 0.000000 0.000000 0.000000 0.000000 0.084248 -0.002417
# 6 0.000000 0.000000 0.000000 0.000000 -0.002417 0.130373
#
#
# Mechanical properties :
#
#
# Convention : Reuss Voigt Hill
#
# Bulk Modulus (GPa) = 26.04445 27.10180 26.57313
# Shear Modulus (GPa) = 10.47865 12.16338 11.32102
#
# Velocity S-wave (km/s) = 3.09460 3.33410 3.21658
# Velocity P-wave (km/s) = 6.04739 6.29207 6.17094
#
# Compressibility (1/GPa) = 0.03839590
#
# Stress axis : x y z
#
# Youngs Moduli (GPa) = 23.53871 23.53871 58.89988
#
# Poissons Ratio (x) = 0.53441 0.26714
# Poissons Ratio (y) = 0.53441 0.26714
# Poissons Ratio (z) = 0.10676 0.10676
#
# Static dielectric constant tensor:
#      x y z
#    x 2.195940 0.000000 0.000000 
#    y 0.000000 2.195940 0.000000 
#    z 0.000000 0.000000 2.428820 
# 
# 
# High freq. dielectric constant tensor:
#      x y z
#    x 1.374900 0.000000 0.000000 
#    y 0.000000 1.374900 0.000000 
#    z 0.000000 0.000000 1.434230 
# 
# From -- ./inp_files/578.got.cif
#   From: 2010.03.12/outbox.cif.g09.slc.cpg/sg152_1_cif.got.tgz:578.got - 2010.04.03 13:45:27.
