data_PCOD8322956
_publ_section_title
;
Structure prediction by ZEFSAII (Michael W. Deem and Ramdas Pophale) SiO2 
 PCOD8322956
Probable space group: P -3 1 M 
;
_chemical_formula_sum "Si O2"
_cell_formula_units_Z 72
_cell_length_a 22.472568
_cell_length_b 22.472568
_cell_length_c 10.004654
_cell_angle_alpha 90.000000
_cell_angle_beta 90.000000
_cell_angle_gamma 120.000000
_cell_volume 4375.605019
_symmetry_space_group_name_H-M "P -3 1 M "
_symmetry_group_IT_number 162
_symmetry_cell_setting 'hexagonal'
loop_
_space_group_symop_operation_xyz
x,y,z
-y,x-y,z
-x+y,-x,z
-y,-x,-z
-x+y,y,-z
x,x-y,-z
-x,-y,-z
y,-x+y,-z
x-y,x,-z
y,x,z
x-y,-y,z
-x,-x+y,z
loop_
_atom_site_type_symbol
_atom_site_label
_atom_site_fract_x
_atom_site_fract_y
_atom_site_fract_z
Si Si1 0.591484 0.509394 0.101134
Si Si2 0.296971 0.080622 0.771931
Si Si3 0.080157 0.363455 0.508675
Si Si4 0.801432 0.077646 0.720947
Si Si5 0.717018 0.639112 0.028932
Si Si6 0.082046 0.488917 0.404356
O O1 0.552067 0.552067 0.101147
O O2 0.669632 0.557261 0.048811
O O3 0.593893 0.485768 0.252943
O O4 0.554964 0.445037 0.000000
O O5 0.355319 0.099135 0.659818
O O6 0.252953 0.119137 0.748825
O O7 0.241101 0.000000 0.775918
O O8 0.340042 0.111596 0.908648
O O9 0.102051 0.319715 0.415059
O O10 0.113740 0.442764 0.462042
O O11 0.000000 0.332659 0.491997
O O12 0.753067 0.081066 0.833081
O O13 0.789648 0.000000 0.712353
O O14 0.667821 0.667821 0.982157
O O15 0.110084 0.555042 0.500000
O O16 0.000000 0.446319 0.406224
#
# Coordination Sequence:
#
# PCOD8322956 Si02
#       6
#    12  12  12  12  12  12
#     4   9  16  25  39  60  87 120 150 170 196 242
#     4  10  20  30  45  68  89 115 159 207 251 305
#     4   9  17  29  43  62  89 118 150 186 227 281
#     4  10  18  32  49  62  85 123 159 199 253 309
#     4   9  17  29  43  62  89 118 150 186 227 281
#     4   9  16  25  39  60  87 120 150 170 196 242
#
# _framework density 16.454868000000001
#
# number of rings (size 3 to 8) (size 9 to 14) (size 15 to 20)
#    0.000    2.667    1.667    1.000    2.333    0.000 
#    0.000    0.000    0.000    0.333    0.000    0.000 
#    0.000    8.000    0.000   20.000    0.000   14.667 
#
# Total GULP energy -892230.214558 kJ/mol
# GULP energy per Si atom -12392.086313 kJ/mol
# Density = 1.641742 g / cm^3
# Si number density = 16.454868 Si / 1000 Ang^3
#
#
#
# Elastic Constant Matrix: (Units=GPa)
#
#
# Indices 1 2 3 4 5 6 
#
# 1 56.0804 30.6496 20.8719 0.0000 -3.1492 0.0000
# 2 30.6496 56.0804 20.8719 0.0000 3.1492 0.0000
# 3 20.8719 20.8719 81.0379 0.0000 0.0000 0.0000
# 4 0.0000 0.0000 0.0000 15.3350 0.0000 3.1492
# 5 -3.1492 3.1492 0.0000 0.0000 15.3350 0.0000
# 6 0.0000 0.0000 0.0000 3.1492 0.0000 12.7154
#
#
#
# Elastic Compliance Matrix: (Units=1/GPa)
#
#
# Indices 1 2 3 4 5 6 
#
# 1 0.027296 -0.014134 -0.003390 0.000000 0.008508 0.000000
# 2 -0.014134 0.027296 -0.003390 0.000000 -0.008508 0.000000
# 3 -0.003390 -0.003390 0.014086 0.000000 0.000000 0.000000
# 4 0.000000 0.000000 0.000000 0.068705 0.000000 -0.017016
# 5 0.008508 -0.008508 0.000000 0.000000 0.068705 0.000000
# 6 0.000000 0.000000 0.000000 -0.017016 0.000000 0.082859
#
#
# Mechanical properties :
#
#
# Convention : Reuss Voigt Hill
#
# Bulk Modulus (GPa) = 37.24418 37.55392 37.39905
# Shear Modulus (GPa) = 14.71784 16.73074 15.72429
#
# Velocity S-wave (km/s) = 2.99396 3.19214 3.09463
# Velocity P-wave (km/s) = 5.88515 6.03807 5.96210
#
# Compressibility (1/GPa) = 0.02684983
#
# Stress axis : x y z
#
# Youngs Moduli (GPa) = 36.63593 36.63593 70.99209
#
# Poissons Ratio (x) = 0.51781 0.24065
# Poissons Ratio (y) = 0.51781 0.24065
# Poissons Ratio (z) = 0.12419 0.12419
#
# Static dielectric constant tensor:
#      x y z
#    x 2.919140 0.000000 0.000000 
#    y 0.000000 2.919140 0.000000 
#    z 0.000000 0.000000 3.407870 
# 
# 
# High freq. dielectric constant tensor:
#      x y z
#    x 1.591400 0.000000 0.000000 
#    y 0.000000 1.591400 0.000000 
#    z 0.000000 0.000000 1.658450 
# 
# From -- ./inp_files/1763.got.cif
#   From: 2010.03.12/outbox.cif.g09.slc.cpg/sg162_1_cif.got.tgz:1763.got - 2010.04.02 06:27:41.
