data_PCOD8322737
_publ_section_title
;
Structure prediction by ZEFSAII (Michael W. Deem and Ramdas Pophale) SiO2 
 PCOD8322737
Probable space group: P 3 1 M
;
_chemical_formula_sum "Si O2"
_cell_formula_units_Z 32
_cell_length_a 14.222724
_cell_length_b 14.222724
_cell_length_c 8.823274
_cell_angle_alpha 90.000000
_cell_angle_beta 90.000000
_cell_angle_gamma 120.000000
_cell_volume 1545.702690
_symmetry_space_group_name_H-M "P 3 1 M"
_symmetry_group_IT_number 157
_symmetry_cell_setting 'hexagonal'
loop_
_space_group_symop_operation_xyz
x,y,z
-y,x-y,z
-x+y,-x,z
y,x,z
x-y,-y,z
-x,-x+y,z
loop_
_atom_site_type_symbol
_atom_site_label
_atom_site_fract_x
_atom_site_fract_y
_atom_site_fract_z
Si Si1 0.229817 0.796675 0.101240
Si Si2 0.000000 0.000000 0.600163
Si Si3 0.547207 0.422386 0.608728
Si Si4 0.000000 0.000000 0.959763
Si Si5 0.770185 0.566860 0.458685
Si Si6 0.794479 0.794479 0.459318
Si Si7 0.577615 0.124821 0.951202
Si Si8 0.205523 0.000000 0.100604
O O1 0.221198 0.784229 0.279963
O O2 0.211590 0.894643 0.048537
O O3 0.137733 0.687015 0.024359
O O4 0.344551 0.811830 0.049428
O O5 0.106350 0.000000 0.542201
O O6 0.000000 0.000000 0.779963
O O7 0.512706 0.512706 0.605838
O O8 0.655451 0.467284 0.510503
O O9 0.450720 0.312988 0.535567
O O10 0.569508 0.399455 0.779965
O O11 0.893649 0.893649 0.017723
O O12 0.788416 0.683056 0.511388
O O13 0.811725 0.811725 0.279962
O O14 0.487295 0.000000 0.954105
#
# Coordination Sequence:
#
# PCOD8322737 Si02
#       8
#     6   1   6   1   6   3   6   3
#     4  11  23  42  68  95 126 167 215 263 312 376
#     4  12  28  44  67  96 127 170 217 264 322 386
#     4  11  24  41  63  94 131 167 205 256 319 381
#     4  12  28  44  67  96 127 170 217 264 322 386
#     4  11  23  42  68  95 126 167 215 263 312 376
#     4  10  24  46  69  94 127 168 217 270 320 370
#     4  11  24  41  63  94 131 167 205 256 319 381
#     4  10  24  46  69  94 127 168 217 270 320 370
#
# _framework density 20.702558
#
# number of rings (size 3 to 8) (size 9 to 14) (size 15 to 20)
#    0.000    1.125    1.875    3.562    2.625    5.250 
#    0.000    0.000    0.000    0.000    0.000    0.000 
#    0.000    0.000    0.000    0.000    0.000    0.000 
#
# Total GULP energy -396979.715456 kJ/mol
# GULP energy per Si atom -12405.616108 kJ/mol
# Density = 2.065544 g / cm^3
# Si number density = 20.702558 Si / 1000 Ang^3
#
#
#
# Elastic Constant Matrix: (Units=GPa)
#
#
# Indices 1 2 3 4 5 6 
#
# 1 102.2933 24.7760 25.8333 0.0000 -0.0001 0.0000
# 2 24.7760 102.2933 25.8333 0.0000 0.0001 0.0000
# 3 25.8333 25.8333 61.7300 0.0000 0.0000 0.0000
# 4 0.0000 0.0000 0.0000 33.3395 0.0000 0.0001
# 5 -0.0001 0.0001 0.0000 0.0000 33.3395 0.0000
# 6 0.0000 0.0000 0.0000 0.0001 0.0000 38.7587
#
#
#
# Elastic Compliance Matrix: (Units=1/GPa)
#
#
# Indices 1 2 3 4 5 6 
#
# 1 0.011192 -0.001708 -0.003969 0.000000 0.000000 0.000000
# 2 -0.001708 0.011192 -0.003969 0.000000 0.000000 0.000000
# 3 -0.003969 -0.003969 0.019521 0.000000 0.000000 0.000000
# 4 0.000000 0.000000 0.000000 0.029994 0.000000 0.000000
# 5 0.000000 0.000000 0.000000 0.000000 0.029994 0.000000
# 6 0.000000 0.000000 0.000000 0.000000 0.000000 0.025801
#
#
# Mechanical properties :
#
#
# Convention : Reuss Voigt Hill
#
# Bulk Modulus (GPa) = 44.22176 46.57800 45.39988
# Shear Modulus (GPa) = 32.35740 33.74580 33.05160
#
# Velocity S-wave (km/s) = 3.95773 4.04174 3.99996
# Velocity P-wave (km/s) = 6.50321 6.65796 6.58104
#
# Compressibility (1/GPa) = 0.02261330
#
# Stress axis : x y z
#
# Youngs Moduli (GPa) = 89.35056 89.35056 51.22605
#
# Poissons Ratio (x) = 0.15265 0.20330
# Poissons Ratio (y) = 0.15265 0.20330
# Poissons Ratio (z) = 0.35461 0.35461
#
# Static dielectric constant tensor:
#      x y z
#    x 3.785910 0.000000 0.000000 
#    y 0.000000 3.785910 0.000000 
#    z 0.000000 0.000000 3.795040 
# 
# 
# High freq. dielectric constant tensor:
#      x y z
#    x 1.818630 0.000000 0.000000 
#    y 0.000000 1.818630 0.000000 
#    z 0.000000 0.000000 1.816550 
# 
# From -- ./inp_files/388.got.cif
#   From: 2010.03.12/outbox.cif.g09.slc.cpg/sg157_cif.got.tgz:388.got - 2010.04.03 13:59:21.
