data_PCOD8322012
_publ_section_title
;
Structure prediction by ZEFSAII (Michael W. Deem and Ramdas Pophale) SiO2 
 PCOD8322012
Probable space group: P 31 1 2
;
_chemical_formula_sum "Si O2"
_cell_formula_units_Z 24
_cell_length_a 15.748791
_cell_length_b 15.748791
_cell_length_c 4.965440
_cell_angle_alpha 90.000000
_cell_angle_beta 90.000000
_cell_angle_gamma 120.000000
_cell_volume 1066.553903
_symmetry_space_group_name_H-M "P 31 1 2"
_symmetry_group_IT_number 151
_symmetry_cell_setting 'hexagonal'
loop_
_space_group_symop_operation_xyz
x,y,z
-y,x-y,1/3+z
-x+y,-x,2/3+z
-y,-x,2/3-z
-x+y,y,1/3-z
x,x-y,-z
loop_
_atom_site_type_symbol
_atom_site_label
_atom_site_fract_x
_atom_site_fract_y
_atom_site_fract_z
Si Si1 0.473880 0.333427 0.908000
Si Si2 0.500977 0.693112 0.256595
Si Si3 0.975563 0.335024 0.930568
Si Si4 0.860091 0.833897 0.416499
O O1 0.581926 0.418075 0.833334
O O2 0.403633 0.304772 0.650931
O O3 0.479163 0.239582 0.000000
O O4 0.432773 0.370563 0.149430
O O5 0.398142 0.601859 0.333334
O O6 0.542746 0.771373 0.500000
O O7 0.576827 0.657492 0.178641
O O8 0.483194 0.741597 0.000000
O O9 0.985650 0.242273 0.000506
O O10 0.899892 0.799785 0.666667
O O11 0.843022 0.921511 0.500000
O O12 0.934994 0.869987 0.166667
#
# Coordination Sequence:
#
# PCOD8322012 Si02
#       4
#     6   6   6   6
#     4  12  26  46  71 101 135 176 222 276 336 400
#     4  12  25  44  69 100 136 178 224 276 333 396
#     4  12  26  46  70 100 136 178 224 276 334 398
#     4  12  25  44  68  99 137 180 226 276 331 394
#
# _framework density 22.502379999999999
#
# number of rings (size 3 to 8) (size 9 to 14) (size 15 to 20)
#    0.000    0.000    0.000   12.000    0.000    4.000 
#    0.000    0.000    0.000    0.000    0.000    0.000 
#    0.000    0.000    0.000    0.000    0.000    0.000 
#
# Total GULP energy -297874.986077 kJ/mol
# GULP energy per Si atom -12411.457753 kJ/mol
# Density = 2.245116 g / cm^3
# Si number density = 22.502380 Si / 1000 Ang^3
#
#
#
# Elastic Constant Matrix: (Units=GPa)
#
#
# Indices 1 2 3 4 5 6 
#
# 1 148.5103 87.2586 76.3454 0.0159 -14.8272 0.0000
# 2 87.2586 148.5103 76.3454 -0.0159 14.8272 0.0000
# 3 76.3454 76.3454 177.0816 0.0000 0.0000 0.0000
# 4 0.0159 -0.0159 0.0000 50.1653 0.0000 14.8272
# 5 -14.8272 14.8272 0.0000 0.0000 50.1653 0.0159
# 6 0.0000 0.0000 0.0000 14.8272 0.0159 30.6259
#
#
#
# Elastic Compliance Matrix: (Units=1/GPa)
#
#
# Indices 1 2 3 4 5 6 
#
# 1 0.012468 -0.006584 -0.002537 -0.000006 0.005631 0.000000
# 2 -0.006584 0.012468 -0.002537 0.000006 -0.005631 0.000000
# 3 -0.002537 -0.002537 0.007835 0.000000 0.000000 0.000000
# 4 -0.000006 0.000006 0.000000 0.023263 0.000000 -0.011263
# 5 0.005631 -0.005631 0.000000 0.000000 0.023263 -0.000012
# 6 0.000000 0.000000 0.000000 -0.011263 -0.000012 0.038105
#
#
# Mechanical properties :
#
#
# Convention : Reuss Voigt Hill
#
# Bulk Modulus (GPa) = 105.75657 106.00008 105.87833
# Shear Modulus (GPa) = 34.75362 41.80150 38.27756
#
# Velocity S-wave (km/s) = 3.93420 4.31472 4.12885
# Velocity P-wave (km/s) = 8.23026 8.48710 8.35967
#
# Compressibility (1/GPa) = 0.00945568
#
# Stress axis : x y z
#
# Youngs Moduli (GPa) = 80.20255 80.20255 127.63815
#
# Poissons Ratio (x) = 0.52805 0.32381
# Poissons Ratio (y) = 0.52805 0.32381
# Poissons Ratio (z) = 0.20347 0.20347
#
# Static dielectric constant tensor:
#      x y z
#    x 4.089710 0.000000 0.000000 
#    y 0.000000 4.089710 0.000000 
#    z 0.000000 0.000000 4.521160 
# 
# 
# High freq. dielectric constant tensor:
#      x y z
#    x 1.903310 0.000000 0.000000 
#    y 0.000000 1.903310 0.000000 
#    z 0.000000 0.000000 1.907850 
# 
# From -- ./inp_files/182.got.cif
#   From: 2010.03.12/outbox.cif.g09.slc.cpg/sg151_1_cif.got.tgz:182.got - 2010.04.03 13:42:29.
