data_PCOD8322354
_publ_section_title
;
Structure prediction by ZEFSAII (Michael W. Deem and Ramdas Pophale) SiO2 
 PCOD8322354
Probable space group: P 32 2 1
;
_chemical_formula_sum "Si O2"
_cell_formula_units_Z 36
_cell_length_a 8.637415
_cell_length_b 8.637415
_cell_length_c 26.324901
_cell_angle_alpha 90.000000
_cell_angle_beta 90.000000
_cell_angle_gamma 120.000000
_cell_volume 1700.845837
_symmetry_space_group_name_H-M "P 32 2 1"
_symmetry_group_IT_number 154
_symmetry_cell_setting 'hexagonal'
loop_
_space_group_symop_operation_xyz
x,y,z
-y,x-y,2/3+z
-x+y,-x,1/3+z
x-y,-y,1/3-z
-x,-x+y,2/3-z
y,x,-z
loop_
_atom_site_type_symbol
_atom_site_label
_atom_site_fract_x
_atom_site_fract_y
_atom_site_fract_z
Si Si1 0.056328 0.911243 0.744175
Si Si2 0.350267 0.350267 0.500000
Si Si3 0.485569 0.214479 0.138586
Si Si4 0.136574 0.280493 0.771721
Si Si5 0.282086 0.585120 0.969251
Si Si6 0.643932 0.643932 0.000000
Si Si7 0.245458 0.910692 0.995424
O O1 0.025255 0.757078 0.782203
O O2 0.892772 0.838657 0.703730
O O3 0.066381 0.071269 0.777832
O O4 0.246330 0.991565 0.716526
O O5 0.540562 0.357607 0.493601
O O6 0.402171 0.282956 0.184003
O O7 0.547671 0.333442 0.087548
O O8 0.339609 0.022017 0.117307
O O9 0.195626 0.340452 0.713816
O O10 0.281198 0.770573 0.965420
O O11 0.448045 0.620838 0.003724
O O12 0.098989 0.424013 0.993045
#
# Coordination Sequence:
#
# PCOD8322354 Si02
#       7
#     6   3   6   6   6   3   6
#     4  12  22  42  67 100 133 172 222 273 332 397
#     4  10  20  38  66  96 124 180 210 272 330 398
#     4   9  20  39  63  94 134 168 219 265 334 396
#     4   9  19  35  66  92 124 173 213 265 324 388
#     4  11  25  43  64 100 131 179 219 279 329 395
#     4  12  28  40  66 102 140 164 230 280 322 400
#     4  11  22  41  70  92 134 173 228 266 337 390
#
# _framework density 21.165939999999999
#
# number of rings (size 3 to 8) (size 9 to 14) (size 15 to 20)
#    0.000    1.667    3.333    2.000    9.333    0.000 
#    0.000    3.333    0.000    0.000    0.000    0.000 
#    0.000    0.000    0.000    0.000    0.000    0.000 
#
# Total GULP energy -445988.942767 kJ/mol
# GULP energy per Si atom -12388.581744 kJ/mol
# Density = 2.111777 g / cm^3
# Si number density = 21.165940 Si / 1000 Ang^3
#
#
#
# Elastic Constant Matrix: (Units=GPa)
#
#
# Indices 1 2 3 4 5 6 
#
# 1 92.3040 38.6632 34.5933 -4.8099 0.0000 0.0000
# 2 38.6632 92.3040 34.5933 4.8099 0.0000 0.0000
# 3 34.5933 34.5933 128.4654 0.0000 0.0000 0.0000
# 4 -4.8099 4.8099 0.0000 24.5501 0.0000 0.0000
# 5 0.0000 0.0000 0.0000 0.0000 24.5501 -4.8099
# 6 0.0000 0.0000 0.0000 0.0000 -4.8099 26.8204
#
#
#
# Elastic Compliance Matrix: (Units=1/GPa)
#
#
# Indices 1 2 3 4 5 6 
#
# 1 0.014112 -0.005210 -0.002397 0.003786 0.000000 0.000000
# 2 -0.005210 0.014112 -0.002397 -0.003786 0.000000 0.000000
# 3 -0.002397 -0.002397 0.009075 0.000000 0.000000 0.000000
# 4 0.003786 -0.003786 0.000000 0.042216 0.000000 0.000000
# 5 0.000000 0.000000 0.000000 0.000000 0.042216 0.007571
# 6 0.000000 0.000000 0.000000 0.000000 0.007571 0.038643
#
#
# Mechanical properties :
#
#
# Convention : Reuss Voigt Hill
#
# Bulk Modulus (GPa) = 57.83536 58.75254 58.29395
# Shear Modulus (GPa) = 26.86069 28.86567 27.86318
#
# Velocity S-wave (km/s) = 3.56624 3.69694 3.63218
# Velocity P-wave (km/s) = 6.65894 6.78539 6.72246
#
# Compressibility (1/GPa) = 0.01729046
#
# Stress axis : x y z
#
# Youngs Moduli (GPa) = 70.86355 70.86355 110.19059
#
# Poissons Ratio (x) = 0.36918 0.26414
# Poissons Ratio (y) = 0.36918 0.26414
# Poissons Ratio (z) = 0.16987 0.16987
#
# Static dielectric constant tensor:
#      x y z
#    x 3.674550 0.000000 0.000000 
#    y 0.000000 3.674550 0.000000 
#    z 0.000000 0.000000 4.766940 
# 
# 
# High freq. dielectric constant tensor:
#      x y z
#    x 1.811390 0.000000 0.000000 
#    y 0.000000 1.811390 0.000000 
#    z 0.000000 0.000000 1.850760 
# 
# From -- ./inp_files/3664.got.cif
#   From: 2010.03.12/outbox.cif.g09.slc.cpg/sg154_2_cif.got.tgz:3664.got - 2010.04.03 13:51:21.
