data_PCOD8322626
_publ_section_title
;
Structure prediction by ZEFSAII (Michael W. Deem and Ramdas Pophale) SiO2 
 PCOD8322626
Probable space group: R 3 2
;
_chemical_formula_sum "Si O2"
_cell_formula_units_Z 60
_cell_length_a 11.466779
_cell_length_b 11.466779
_cell_length_c 24.214019
_cell_angle_alpha 90.000000
_cell_angle_beta 90.000000
_cell_angle_gamma 120.000000
_cell_volume 2757.276982
_symmetry_space_group_name_H-M "R 3 2"
_symmetry_group_IT_number 155
_symmetry_cell_setting 'hexagonal'
loop_
_space_group_symop_operation_xyz
x,y,z
-y,x-y,z
-x+y,-x,z
x-y,-y,-z
-x,-x+y,-z
y,x,-z
2/3+x,1/3+y,1/3+z
2/3-y,1/3+x-y,1/3+z
2/3-x+y,1/3-x,1/3+z
2/3+x-y,1/3-y,1/3-z
2/3-x,1/3-x+y,1/3-z
2/3+y,1/3+x,1/3-z
1/3+x,2/3+y,2/3+z
1/3-y,2/3+x-y,2/3+z
1/3-x+y,2/3-x,2/3+z
1/3+x-y,2/3-y,2/3-z
1/3-x,2/3-x+y,2/3-z
1/3+y,2/3+x,2/3-z
loop_
_atom_site_type_symbol
_atom_site_label
_atom_site_fract_x
_atom_site_fract_y
_atom_site_fract_z
Si Si1 0.702328 0.852170 0.894300
Si Si2 0.333334 0.666668 0.733215
Si Si3 0.746265 0.758458 0.566426
Si Si4 0.018367 0.741053 0.393917
O O1 0.666667 0.796888 0.833334
O O2 0.855467 0.962450 0.908775
O O3 0.663962 0.711380 0.924158
O O4 0.612028 0.921448 0.904710
O O5 0.333334 0.666668 0.666667
O O6 0.767628 0.767628 0.500000
O O7 0.877234 0.773097 0.595774
O O8 0.719074 0.873960 0.589009
O O9 0.022564 0.689231 0.333334
#
# Coordination Sequence:
#
# PCOD8322626 Si02
#       4
#    18   6  18  18
#     4  11  25  44  73 103 138 183 243 292 355 434
#     4  12  24  45  78 102 135 189 249 297 358 428
#     4  11  25  47  72 100 143 193 234 285 360 440
#     4  12  27  44  74 104 144 184 239 299 356 422
#
# _framework density 21.760598999999999
#
# number of rings (size 3 to 8) (size 9 to 14) (size 15 to 20)
#    0.000    0.600    3.000    4.200    8.400    0.000 
#    1.800    0.000    0.000    0.000    0.000    0.000 
#    0.000    0.000    0.000    0.000    0.000    0.000 
#
# Total GULP energy -247774.956557 kJ/mol
# GULP energy per Si atom -12388.747828 kJ/mol
# Density = 2.171107 g / cm^3
# Si number density = 21.760599 Si / 1000 Ang^3
#
#
#
# Elastic Constant Matrix: (Units=GPa)
#
#
# Indices 1 2 3 4 5 6 
#
# 1 134.3530 25.9359 43.3042 4.6988 -0.0015 0.0000
# 2 25.9359 134.3524 43.3041 -4.6987 0.0017 -0.0003
# 3 43.3042 43.3041 95.6000 0.0002 0.0000 -0.0001
# 4 4.6988 -4.6987 0.0002 32.0400 -0.0001 0.0016
# 5 -0.0015 0.0017 0.0000 -0.0001 32.0401 4.6982
# 6 0.0000 -0.0003 -0.0001 0.0016 4.6982 54.2096
#
#
#
# Elastic Compliance Matrix: (Units=1/GPa)
#
#
# Indices 1 2 3 4 5 6 
#
# 1 0.008801 -0.000541 -0.003742 -0.001370 0.000000 0.000000
# 2 -0.000541 0.008802 -0.003742 0.001370 0.000000 0.000000
# 3 -0.003742 -0.003742 0.013850 0.000000 0.000000 0.000000
# 4 -0.001370 0.001370 0.000000 0.031613 0.000000 -0.000001
# 5 0.000000 0.000000 0.000000 0.000000 0.031613 -0.002740
# 6 0.000000 0.000000 0.000000 -0.000001 -0.002740 0.018684
#
#
# Mechanical properties :
#
#
# Convention : Reuss Voigt Hill
#
# Bulk Modulus (GPa) = 64.91815 65.48819 65.20317
# Shear Modulus (GPa) = 37.16182 40.44201 38.80192
#
# Velocity S-wave (km/s) = 4.13699 4.31571 4.22729
# Velocity P-wave (km/s) = 7.26066 7.41579 7.33863
#
# Compressibility (1/GPa) = 0.01540401
#
# Stress axis : x y z
#
# Youngs Moduli (GPa) = 113.61751 113.61694 72.20160
#
# Poissons Ratio (x) = 0.06146 0.27016
# Poissons Ratio (y) = 0.06146 0.27016
# Poissons Ratio (z) = 0.42513 0.42513
#
# Static dielectric constant tensor:
#      x y z
#    x 4.005780 0.000000 0.000000 
#    y 0.000000 4.005760 0.000010 
#    z 0.000000 0.000010 3.934810 
# 
# 
# High freq. dielectric constant tensor:
#      x y z
#    x 1.869850 0.000000 0.000000 
#    y 0.000000 1.869860 0.000000 
#    z 0.000000 0.000000 1.849840 
# 
# From -- ./inp_files/7766.got.cif
#   From: 2010.03.12/outbox.cif.g09.slc.cpg/sg155_4_cif.got.tgz:7766.got - 2010.04.03 13:54:13.
