data_PCOD8322764
_publ_section_title
;
Structure prediction by ZEFSAII (Michael W. Deem and Ramdas Pophale) SiO2 
 PCOD8322764
Probable space group: P 3 C 1
;
_chemical_formula_sum "Si O2"
_cell_formula_units_Z 30
_cell_length_a 11.214826
_cell_length_b 11.214826
_cell_length_c 12.123106
_cell_angle_alpha 90.000000
_cell_angle_beta 90.000000
_cell_angle_gamma 120.000000
_cell_volume 1320.473268
_symmetry_space_group_name_H-M "P 3 C 1"
_symmetry_group_IT_number 158
_symmetry_cell_setting 'hexagonal'
loop_
_space_group_symop_operation_xyz
x,y,z
-y,x-y,z
-x+y,-x,z
-x+y,y,1/2+z
x,x-y,1/2+z
-y,-x,1/2+z
loop_
_atom_site_type_symbol
_atom_site_label
_atom_site_fract_x
_atom_site_fract_y
_atom_site_fract_z
Si Si1 0.265277 0.173070 0.900750
Si Si2 0.505396 0.191177 0.539937
Si Si3 0.280019 0.280019 0.208686
Si Si4 0.734723 0.826930 0.016622
Si Si5 0.494604 0.685781 0.877435
O O1 0.160693 0.231291 0.909607
O O2 0.245175 0.095614 0.785954
O O3 0.231291 0.070598 0.007766
O O4 0.422238 0.294492 0.924857
O O5 0.648664 0.189290 0.543238
O O6 0.415810 0.102387 0.642183
O O7 0.313422 0.415810 0.275189
O O8 0.149562 0.245175 0.131418
O O9 0.577763 0.705508 0.992515
O O10 0.459374 0.810710 0.874135
#
# Coordination Sequence:
#
# PCOD8322764 Si02
#       5
#     6   6   6   6   6
#     4  10  22  39  60  89 123 159 208 261 309 366
#     4   9  22  40  57  93 120 164 201 262 306 360
#     4  10  22  38  64  88 118 170 206 250 320 376
#     4  10  22  39  60  89 123 159 208 261 309 366
#     4   9  22  40  57  93 120 164 201 262 306 360
#
# _framework density 22.719127
#
# number of rings (size 3 to 8) (size 9 to 14) (size 15 to 20)
#    0.800    1.600    0.000    0.400    0.000   19.200 
#    0.000    0.000    0.000    0.000    0.000    0.000 
#    0.000    0.000    0.000    0.000    0.000    0.000 
#
# Total GULP energy -371729.026813 kJ/mol
# GULP energy per Si atom -12390.967560 kJ/mol
# Density = 2.266742 g / cm^3
# Si number density = 22.719127 Si / 1000 Ang^3
#
#
#
# Elastic Constant Matrix: (Units=GPa)
#
#
# Indices 1 2 3 4 5 6 
#
# 1 59.2649 10.1290 4.2440 3.2462 0.0000 0.0000
# 2 10.1290 59.2649 4.2440 -3.2462 0.0000 0.0000
# 3 4.2440 4.2440 93.6244 0.0000 0.0000 0.0000
# 4 3.2462 -3.2462 0.0000 28.9516 0.0000 0.0000
# 5 0.0000 0.0000 0.0000 0.0000 28.9516 3.2462
# 6 0.0000 0.0000 0.0000 0.0000 3.2462 24.5679
#
#
#
# Elastic Compliance Matrix: (Units=1/GPa)
#
#
# Indices 1 2 3 4 5 6 
#
# 1 0.017574 -0.003083 -0.000657 -0.002316 0.000000 0.000000
# 2 -0.003083 0.017574 -0.000657 0.002316 0.000000 0.000000
# 3 -0.000657 -0.000657 0.010741 0.000000 0.000000 0.000000
# 4 -0.002316 0.002316 0.000000 0.035060 0.000000 0.000000
# 5 0.000000 0.000000 0.000000 0.000000 0.035060 -0.004633
# 6 0.000000 0.000000 0.000000 0.000000 -0.004633 0.041316
#
#
# Mechanical properties :
#
#
# Convention : Reuss Voigt Hill
#
# Bulk Modulus (GPa) = 26.95803 27.70981 27.33392
# Shear Modulus (GPa) = 28.01374 29.39668 28.70521
#
# Velocity S-wave (km/s) = 3.51529 3.60101 3.55841
# Velocity P-wave (km/s) = 5.32615 5.43257 5.37962
#
# Compressibility (1/GPa) = 0.03709471
#
# Stress axis : x y z
#
# Youngs Moduli (GPa) = 56.90124 56.90124 93.10528
#
# Poissons Ratio (x) = 0.17545 0.06116
# Poissons Ratio (y) = 0.17545 0.06116
# Poissons Ratio (z) = 0.03738 0.03738
#
# Static dielectric constant tensor:
#      x y z
#    x 4.054650 0.000000 0.000000 
#    y 0.000000 4.054650 0.000000 
#    z 0.000000 0.000000 3.784960 
# 
# 
# High freq. dielectric constant tensor:
#      x y z
#    x 1.903120 0.000000 0.000000 
#    y 0.000000 1.903120 0.000000 
#    z 0.000000 0.000000 1.873510 
# 
# From -- ./inp_files/425.got.cif
#   From: 2010.03.12/outbox.cif.g09.slc.cpg/sg158_cif.got.tgz:425.got - 2010.04.03 13:59:47.
