data_PCOD8322170
_publ_section_title
;
Structure prediction by ZEFSAII (Michael W. Deem and Ramdas Pophale) SiO2 
 PCOD8322170
Probable space group: P 31 2 1
;
_chemical_formula_sum "Si O2"
_cell_formula_units_Z 21
_cell_length_a 13.628723
_cell_length_b 13.628723
_cell_length_c 6.393668
_cell_angle_alpha 90.000000
_cell_angle_beta 90.000000
_cell_angle_gamma 120.000000
_cell_volume 1028.468613
_symmetry_space_group_name_H-M "P 31 2 1"
_symmetry_group_IT_number 152
_symmetry_cell_setting 'hexagonal'
loop_
_space_group_symop_operation_xyz
x,y,z
-y,x-y,1/3+z
-x+y,-x,2/3+z
x-y,-y,2/3-z
-x,-x+y,1/3-z
y,x,-z
loop_
_atom_site_type_symbol
_atom_site_label
_atom_site_fract_x
_atom_site_fract_y
_atom_site_fract_z
Si Si1 0.731305 0.731305 0.000000
Si Si2 0.418399 0.757982 0.141776
Si Si3 0.425287 0.108144 0.708534
Si Si4 0.668502 0.868430 0.283029
O O1 0.700749 0.624052 0.143697
O O2 0.750179 0.837488 0.144273
O O3 0.363321 0.747262 0.370459
O O4 0.553661 0.835816 0.158212
O O5 0.371261 0.812050 0.973755
O O6 0.409422 0.000000 0.833334
O O7 0.364273 0.165770 0.831782
O O8 0.737507 0.000000 0.333334
#
# Coordination Sequence:
#
# PCOD8322170 Si02
#       4
#     3   6   6   6
#     4  10  22  46  64  88 132 168 216 290 324 384
#     4  12  23  39  62 102 139 171 209 268 333 414
#     4  10  23  41  65  94 129 171 215 267 334 392
#     4  11  25  41  69  96 128 178 228 268 335 394
#
# _framework density 20.418707000000001
#
# number of rings (size 3 to 8) (size 9 to 14) (size 15 to 20)
#    0.000    1.143    5.714    0.000    2.000    3.429 
#    0.000    0.000   31.429    0.000    0.000    0.000 
#    0.000    0.000    0.000    0.000    0.000    0.000 
#
# Total GULP energy -260369.913522 kJ/mol
# GULP energy per Si atom -12398.567311 kJ/mol
# Density = 2.037223 g / cm^3
# Si number density = 20.418707 Si / 1000 Ang^3
#
#
#
# Elastic Constant Matrix: (Units=GPa)
#
#
# Indices 1 2 3 4 5 6 
#
# 1 124.2105 66.0787 47.0394 -2.2399 -0.0001 0.0000
# 2 66.0787 124.2105 47.0394 2.2399 0.0001 0.0000
# 3 47.0394 47.0394 106.9703 0.0000 0.0000 0.0000
# 4 -2.2399 2.2399 0.0000 35.5063 0.0000 0.0001
# 5 -0.0001 0.0001 0.0000 0.0000 35.5063 -2.2399
# 6 0.0000 0.0000 0.0000 0.0001 -2.2399 29.0659
#
#
#
# Elastic Compliance Matrix: (Units=1/GPa)
#
#
# Indices 1 2 3 4 5 6 
#
# 1 0.012001 -0.005286 -0.002953 0.001091 0.000000 0.000000
# 2 -0.005286 0.012001 -0.002953 -0.001091 0.000000 0.000000
# 3 -0.002953 -0.002953 0.011945 0.000000 0.000000 0.000000
# 4 0.001091 -0.001091 0.000000 0.028302 0.000000 0.000000
# 5 0.000000 0.000000 0.000000 0.000000 0.028302 0.002181
# 6 0.000000 0.000000 0.000000 0.000000 0.002181 0.034573
#
#
# Mechanical properties :
#
#
# Convention : Reuss Voigt Hill
#
# Bulk Modulus (GPa) = 73.72482 75.07849 74.40165
# Shear Modulus (GPa) = 32.46188 33.03130 32.74659
#
# Velocity S-wave (km/s) = 3.99157 4.02642 4.00903
# Velocity P-wave (km/s) = 7.57815 7.64627 7.61229
#
# Compressibility (1/GPa) = 0.01356395
#
# Stress axis : x y z
#
# Youngs Moduli (GPa) = 83.32850 83.32850 83.71403
#
# Poissons Ratio (x) = 0.44044 0.24720
# Poissons Ratio (y) = 0.44044 0.24720
# Poissons Ratio (z) = 0.24606 0.24606
#
# Static dielectric constant tensor:
#      x y z
#    x 3.604700 0.000000 0.000000 
#    y 0.000000 3.604700 0.000000 
#    z 0.000000 0.000000 3.997100 
# 
# 
# High freq. dielectric constant tensor:
#      x y z
#    x 1.789080 0.000000 0.000000 
#    y 0.000000 1.789080 0.000000 
#    z 0.000000 0.000000 1.814420 
# 
# From -- ./inp_files/134.got.cif
#   From: 2010.03.12/outbox.cif.g09.slc.cpg/sg152_1_cif.got.tgz:134.got - 2010.04.03 13:45:27.
