data_PCOD8322790
_publ_section_title
;
Structure prediction by ZEFSAII (Michael W. Deem and Ramdas Pophale) SiO2 
 PCOD8322790
Probable space group: P 3 1 C
;
_chemical_formula_sum "Si O2"
_cell_formula_units_Z 18
_cell_length_a 11.093687
_cell_length_b 11.093687
_cell_length_c 8.975984
_cell_angle_alpha 90.000000
_cell_angle_beta 90.000000
_cell_angle_gamma 120.000000
_cell_volume 956.675205
_symmetry_space_group_name_H-M "P 3 1 C"
_symmetry_group_IT_number 159
_symmetry_cell_setting 'hexagonal'
loop_
_space_group_symop_operation_xyz
x,y,z
-y,x-y,z
-x+y,-x,z
y,x,1/2+z
x-y,-y,1/2+z
-x,-x+y,1/2+z
loop_
_atom_site_type_symbol
_atom_site_label
_atom_site_fract_x
_atom_site_fract_y
_atom_site_fract_z
Si Si1 0.663956 0.177996 0.741240
Si Si2 0.071164 0.893461 0.741240
Si Si3 0.000001 0.694881 0.991240
O O1 0.803030 0.331075 0.741241
O O2 0.659414 0.096304 0.889810
O O3 0.659415 0.096307 0.592668
O O4 0.099090 0.828914 0.593783
O O5 0.902828 0.841660 0.741239
O O6 0.099090 0.828916 0.888699
#
# Coordination Sequence:
#
# PCOD8322790 Si02
#       3
#     6   6   6
#     4   9  22  44  55  80 116 140 196 232 265 346
#     4   9  18  32  55  90 124 138 182 232 267 338
#     4  10  18  38  58  78 116 152 176 232 280 318
#
# _framework density 18.815162999999998
#
# number of rings (size 3 to 8) (size 9 to 14) (size 15 to 20)
#    1.333    1.333    0.000    2.000    0.000    0.000 
#   24.000   10.000    0.000    0.000    0.000    0.000 
#    0.000    0.000    0.000    0.000    0.000    0.000 
#
# Total GULP energy -223025.099626 kJ/mol
# GULP energy per Si atom -12390.283313 kJ/mol
# Density = 1.877234 g / cm^3
# Si number density = 18.815163 Si / 1000 Ang^3
#
#
#
# Elastic Constant Matrix: (Units=GPa)
#
#
# Indices 1 2 3 4 5 6 
#
# 1 93.1357 25.1615 53.0650 0.0000 0.0001 0.0000
# 2 25.1615 93.1357 53.0650 0.0000 -0.0001 0.0000
# 3 53.0650 53.0650 164.8477 0.0000 0.0000 0.0000
# 4 0.0000 0.0000 0.0000 25.4532 0.0000 -0.0001
# 5 0.0001 -0.0001 0.0000 0.0000 25.4532 0.0000
# 6 0.0000 0.0000 0.0000 -0.0001 0.0000 33.9871
#
#
#
# Elastic Compliance Matrix: (Units=1/GPa)
#
#
# Indices 1 2 3 4 5 6 
#
# 1 0.013299 -0.001413 -0.003826 0.000000 0.000000 0.000000
# 2 -0.001413 0.013299 -0.003826 0.000000 0.000000 0.000000
# 3 -0.003826 -0.003826 0.008529 0.000000 0.000000 0.000000
# 4 0.000000 0.000000 0.000000 0.039288 0.000000 0.000000
# 5 0.000000 0.000000 0.000000 0.000000 0.039288 0.000000
# 6 0.000000 0.000000 0.000000 0.000000 0.000000 0.029423
#
#
# Mechanical properties :
#
#
# Convention : Reuss Voigt Hill
#
# Bulk Modulus (GPa) = 58.83459 68.18913 63.51186
# Shear Modulus (GPa) = 29.95430 31.63387 30.79409
#
# Velocity S-wave (km/s) = 3.99435 4.10481 4.04996
# Velocity P-wave (km/s) = 7.25333 7.66722 7.46314
#
# Compressibility (1/GPa) = 0.01699680
#
# Stress axis : x y z
#
# Youngs Moduli (GPa) = 75.19557 75.19557 117.24059
#
# Poissons Ratio (x) = 0.10624 0.44857
# Poissons Ratio (y) = 0.10624 0.44857
# Poissons Ratio (z) = 0.28771 0.28771
#
# Static dielectric constant tensor:
#      x y z
#    x 3.177230 0.000000 0.000000 
#    y 0.000000 3.177230 0.000000 
#    z 0.000000 0.000000 3.523640 
# 
# 
# High freq. dielectric constant tensor:
#      x y z
#    x 1.706730 0.000000 0.000000 
#    y 0.000000 1.706730 0.000000 
#    z 0.000000 0.000000 1.750780 
# 
# From -- ./inp_files/221.got.cif
#   From: 2010.03.12/outbox.cif.g09.slc.cpg/sg159_cif.got.tgz:221.got - 2010.04.03 14:00:19.
