data_PCOD8322497
_publ_section_title
;
Structure prediction by ZEFSAII (Michael W. Deem and Ramdas Pophale) SiO2 
 PCOD8322497
Probable space group: R 3 2
;
_chemical_formula_sum "Si O2"
_cell_formula_units_Z 117
_cell_length_a 15.096651
_cell_length_b 15.096651
_cell_length_c 28.443236
_cell_angle_alpha 90.000000
_cell_angle_beta 90.000000
_cell_angle_gamma 120.000000
_cell_volume 5613.980076
_symmetry_space_group_name_H-M "R 3 2"
_symmetry_group_IT_number 155
_symmetry_cell_setting 'hexagonal'
loop_
_space_group_symop_operation_xyz
x,y,z
-y,x-y,z
-x+y,-x,z
x-y,-y,-z
-x,-x+y,-z
y,x,-z
2/3+x,1/3+y,1/3+z
2/3-y,1/3+x-y,1/3+z
2/3-x+y,1/3-x,1/3+z
2/3+x-y,1/3-y,1/3-z
2/3-x,1/3-x+y,1/3-z
2/3+y,1/3+x,1/3-z
1/3+x,2/3+y,2/3+z
1/3-y,2/3+x-y,2/3+z
1/3-x+y,2/3-x,2/3+z
1/3+x-y,2/3-y,2/3-z
1/3-x,2/3-x+y,2/3-z
1/3+y,2/3+x,2/3-z
loop_
_atom_site_type_symbol
_atom_site_label
_atom_site_fract_x
_atom_site_fract_y
_atom_site_fract_z
Si Si1 0.176153 0.207176 0.588254
Si Si2 0.995442 0.759844 0.090651
Si Si3 0.500546 0.000000 0.500000
Si Si4 0.875153 0.362731 0.887577
Si Si5 0.042278 0.546045 0.345705
Si Si6 0.194102 0.475961 0.621370
Si Si7 0.622695 0.597461 0.583585
O O1 0.244913 0.318351 0.564746
O O2 0.057942 0.163822 0.577043
O O3 0.183285 0.209635 0.646247
O O4 0.211432 0.135363 0.562833
O O5 0.036862 0.879564 0.076028
O O6 0.934539 0.745345 0.138438
O O7 0.931082 0.681779 0.048574
O O8 0.467231 0.061409 0.535457
O O9 0.877297 0.333334 0.833334
O O10 0.975218 0.377786 0.914958
O O11 0.968974 0.467016 0.306689
O O12 0.087646 0.483746 0.374535
O O13 0.216261 0.549595 0.666667
O O14 0.096640 0.462387 0.591486
#
# Coordination Sequence:
#
# PCOD8322497 Si02
#       7
#    18  18   9  18  18  18  18
#     4  11  23  40  61  93 128 170 214 282 318 384
#     4  10  20  37  63  93 124 164 214 261 328 394
#     4  10  22  36  62  90 120 170 204 264 310 396
#     4  12  24  38  62  96 132 171 224 268 327 384
#     4   9  19  38  60  94 121 160 213 272 315 384
#     4   9  16  31  60  88 119 152 200 267 315 371
#     4  10  19  37  61  90 124 166 216 261 318 389
#
# _framework density 20.840828999999999
#
# number of rings (size 3 to 8) (size 9 to 14) (size 15 to 20)
#    0.000    1.846    3.846    2.615    2.154    0.000 
#    5.538    0.000    0.000   44.308    0.000    0.000 
#    0.000    0.000    0.000    0.000    0.000    0.000 
#
# Total GULP energy -483175.409732 kJ/mol
# GULP energy per Si atom -12389.113070 kJ/mol
# Density = 2.079339 g / cm^3
# Si number density = 20.840829 Si / 1000 Ang^3
#
#
#
# Elastic Constant Matrix: (Units=GPa)
#
#
# Indices 1 2 3 4 5 6 
#
# 1 63.0680 29.5271 25.4028 -1.5696 -0.0002 0.0000
# 2 29.5271 63.0680 25.4028 1.5696 0.0002 0.0000
# 3 25.4028 25.4028 98.8921 0.0000 0.0000 0.0000
# 4 -1.5696 1.5696 0.0000 34.9092 0.0000 0.0002
# 5 -0.0002 0.0002 0.0000 0.0000 34.9092 -1.5696
# 6 0.0000 0.0000 0.0000 0.0002 -1.5696 16.7704
#
#
#
# Elastic Compliance Matrix: (Units=1/GPa)
#
#
# Indices 1 2 3 4 5 6 
#
# 1 0.021256 -0.008684 -0.003229 0.001346 0.000000 0.000000
# 2 -0.008684 0.021256 -0.003229 -0.001346 0.000000 0.000000
# 3 -0.003229 -0.003229 0.011771 0.000000 0.000000 0.000000
# 4 0.001346 -0.001346 0.000000 0.028767 0.000000 0.000000
# 5 0.000000 0.000000 0.000000 0.000000 0.028767 0.002692
# 6 0.000000 0.000000 0.000000 0.000000 0.002692 0.059881
#
#
# Mechanical properties :
#
#
# Convention : Reuss Voigt Hill
#
# Bulk Modulus (GPa) = 41.67185 42.85481 42.26333
# Shear Modulus (GPa) = 23.81151 26.96414 25.38782
#
# Velocity S-wave (km/s) = 3.38382 3.60086 3.49403
# Velocity P-wave (km/s) = 5.94186 6.15596 6.04986
#
# Compressibility (1/GPa) = 0.02399701
#
# Stress axis : x y z
#
# Youngs Moduli (GPa) = 47.04554 47.04554 84.95401
#
# Poissons Ratio (x) = 0.40856 0.27434
# Poissons Ratio (y) = 0.40856 0.27434
# Poissons Ratio (z) = 0.15192 0.15192
#
# Static dielectric constant tensor:
#      x y z
#    x 3.765740 0.000000 0.000000 
#    y 0.000000 3.765740 0.000000 
#    z 0.000000 0.000000 4.100990 
# 
# 
# High freq. dielectric constant tensor:
#      x y z
#    x 1.795650 0.000000 0.000000 
#    y 0.000000 1.795650 0.000000 
#    z 0.000000 0.000000 1.824400 
# 
# From -- ./inp_files/8496.got.cif
#   From: 2010.03.12/outbox.cif.g09.slc.cpg/sg155_5_cif.got.tgz:8496.got - 2010.04.03 13:54:13.
