data_PCOD8322282
_publ_section_title
;
Structure prediction by ZEFSAII (Michael W. Deem and Ramdas Pophale) SiO2 
 PCOD8322282
Probable space group: P 32 1 2
;
_chemical_formula_sum "Si O2"
_cell_formula_units_Z 42
_cell_length_a 8.403545
_cell_length_b 8.403545
_cell_length_c 30.466417
_cell_angle_alpha 90.000000
_cell_angle_beta 90.000000
_cell_angle_gamma 120.000000
_cell_volume 1863.275501
_symmetry_space_group_name_H-M "P 32 1 2"
_symmetry_group_IT_number 153
_symmetry_cell_setting 'hexagonal'
loop_
_space_group_symop_operation_xyz
x,y,z
-y,x-y,2/3+z
-x+y,-x,1/3+z
-y,-x,1/3-z
-x+y,y,2/3-z
x,x-y,-z
loop_
_atom_site_type_symbol
_atom_site_label
_atom_site_fract_x
_atom_site_fract_y
_atom_site_fract_z
Si Si1 0.989070 0.350365 0.680411
Si Si2 0.957084 0.651076 0.640701
Si Si3 0.122697 0.913433 0.562530
Si Si4 0.915970 0.463802 0.228503
Si Si5 0.292375 0.045292 0.182776
Si Si6 0.545233 0.134545 0.263139
Si Si7 0.207501 0.200718 0.627908
O O1 0.777637 0.222364 0.666667
O O2 0.057422 0.538374 0.654061
O O3 0.011799 0.394624 0.732657
O O4 0.094700 0.247715 0.662829
O O5 0.736939 0.532396 0.635149
O O6 0.961761 0.765949 0.683596
O O7 0.058817 0.751076 0.597147
O O8 0.976085 0.824349 0.522457
O O9 0.330914 0.970017 0.547880
O O10 0.108826 0.088482 0.582814
O O11 0.866613 0.552538 0.187828
O O12 0.719411 0.309992 0.243929
O O13 0.385338 0.031728 0.227483
O O14 0.160657 0.839344 0.166667
O O15 0.607439 0.995401 0.282291
#
# Coordination Sequence:
#
# PCOD8322282 Si02
#       7
#     6   6   6   6   6   6   6
#     4  12  23  38  70 105 138 176 230 287 350 442
#     4  11  20  42  64 104 137 174 220 286 361 428
#     4  10  24  44  70  93 144 182 231 295 349 423
#     4  11  24  46  67 100 134 188 233 283 359 422
#     4  11  27  44  67  98 133 183 245 290 347 418
#     4  10  22  45  69  92 138 181 224 291 344 423
#     4  11  23  39  70 104 138 179 231 279 369 420
#
# _framework density 22.540949000000001
#
# number of rings (size 3 to 8) (size 9 to 14) (size 15 to 20)
#    0.000    1.143    4.286    2.143    6.000    3.429 
#    2.571    2.857    0.000    0.000    0.000    0.000 
#    0.000    0.000    0.000    0.000    0.000    0.000 
#
# Total GULP energy -520413.644216 kJ/mol
# GULP energy per Si atom -12390.801053 kJ/mol
# Density = 2.248964 g / cm^3
# Si number density = 22.540949 Si / 1000 Ang^3
#
#
#
# Elastic Constant Matrix: (Units=GPa)
#
#
# Indices 1 2 3 4 5 6 
#
# 1 93.4012 30.9849 32.9224 -0.0002 -9.9094 0.0000
# 2 30.9849 93.4012 32.9224 0.0002 9.9094 0.0000
# 3 32.9224 32.9224 86.6673 0.0000 0.0000 0.0000
# 4 -0.0002 0.0002 0.0000 44.7807 0.0000 9.9094
# 5 -9.9094 9.9094 0.0000 0.0000 44.7807 -0.0002
# 6 0.0000 0.0000 0.0000 9.9094 -0.0002 31.2081
#
#
#
# Elastic Compliance Matrix: (Units=1/GPa)
#
#
# Indices 1 2 3 4 5 6 
#
# 1 0.013648 -0.003585 -0.003823 0.000000 0.003813 0.000000
# 2 -0.003585 0.013648 -0.003823 0.000000 -0.003813 0.000000
# 3 -0.003823 -0.003823 0.014443 0.000000 0.000000 0.000000
# 4 0.000000 0.000000 0.000000 0.024019 0.000000 -0.007627
# 5 0.003813 -0.003813 0.000000 0.000000 0.024019 0.000000
# 6 0.000000 0.000000 0.000000 -0.007627 0.000000 0.034465
#
#
# Mechanical properties :
#
#
# Convention : Reuss Voigt Hill
#
# Bulk Modulus (GPa) = 51.87242 51.90321 51.88781
# Shear Modulus (GPa) = 32.65289 35.92992 34.29141
#
# Velocity S-wave (km/s) = 3.81018 3.99680 3.90461
# Velocity P-wave (km/s) = 6.51300 6.66149 6.58766
#
# Compressibility (1/GPa) = 0.01927807
#
# Stress axis : x y z
#
# Youngs Moduli (GPa) = 73.27261 73.27261 69.23958
#
# Poissons Ratio (x) = 0.26265 0.26468
# Poissons Ratio (y) = 0.26265 0.26468
# Poissons Ratio (z) = 0.28010 0.28010
#
# Static dielectric constant tensor:
#      x y z
#    x 4.202390 0.000000 0.000000 
#    y 0.000000 4.202390 0.000000 
#    z 0.000000 0.000000 4.375870 
# 
# 
# High freq. dielectric constant tensor:
#      x y z
#    x 1.886860 0.000000 0.000000 
#    y 0.000000 1.886860 0.000000 
#    z 0.000000 0.000000 1.889540 
# 
# From -- ./inp_files/5168.got.cif
#   From: 2010.03.12/outbox.cif.g09.slc.cpg/sg153_3_cif.got.tgz:5168.got - 2010.04.03 13:48:33.
