data_PCOD8322038
_publ_section_title
;
Structure prediction by ZEFSAII (Michael W. Deem and Ramdas Pophale) SiO2 
 PCOD8322038
Probable space group: P 31 2 1
;
_chemical_formula_sum "Si O2"
_cell_formula_units_Z 42
_cell_length_a 11.393878
_cell_length_b 11.393878
_cell_length_c 17.914183
_cell_angle_alpha 90.000000
_cell_angle_beta 90.000000
_cell_angle_gamma 120.000000
_cell_volume 2014.052411
_symmetry_space_group_name_H-M "P 31 2 1"
_symmetry_group_IT_number 152
_symmetry_cell_setting 'hexagonal'
loop_
_space_group_symop_operation_xyz
x,y,z
-y,x-y,1/3+z
-x+y,-x,2/3+z
x-y,-y,2/3-z
-x,-x+y,1/3-z
y,x,-z
loop_
_atom_site_type_symbol
_atom_site_label
_atom_site_fract_x
_atom_site_fract_y
_atom_site_fract_z
Si Si1 0.346835 0.752585 0.668824
Si Si2 0.848048 0.045678 0.655182
Si Si3 0.386897 0.089444 0.127812
Si Si4 0.864309 0.319322 0.633505
Si Si5 0.928576 0.275431 0.239950
Si Si6 0.851814 0.991930 0.177705
Si Si7 0.628393 0.776209 0.701823
O O1 0.326908 0.814492 0.592112
O O2 0.259712 0.591779 0.669972
O O3 0.300579 0.806483 0.739342
O O4 0.500060 0.789010 0.679928
O O5 0.843430 0.181820 0.670848
O O6 0.000000 0.073189 0.666667
O O7 0.796189 0.996191 0.571013
O O8 0.750099 0.930445 0.713280
O O9 0.443897 0.121542 0.210916
O O10 0.260175 0.114970 0.116233
O O11 0.319739 0.928141 0.107434
O O12 0.000000 0.444908 0.666667
O O13 0.868586 0.115783 0.227882
O O14 0.000000 0.361714 0.166667
O O15 0.038445 0.330654 0.304075
O O16 0.000000 0.004186 0.166667
#
# Coordination Sequence:
#
# PCOD8322038 Si02
#       7
#     6   6   6   6   6   6   6
#     4  11  27  42  65  97 138 181 227 281 338 427
#     4  10  20  38  66  96 138 170 218 280 343 402
#     4  10  25  43  70 103 132 178 236 277 355 408
#     4  10  25  46  66  98 134 181 228 282 340 416
#     4  10  22  41  65  96 125 169 228 277 347 392
#     4  10  18  38  68 102 127 165 220 297 337 396
#     4  11  23  41  65  97 136 173 217 286 340 409
#
# _framework density 20.853480000000001
#
# number of rings (size 3 to 8) (size 9 to 14) (size 15 to 20)
#    0.000    1.714    2.857    0.857    8.000    2.286 
#    0.000    2.143    0.000    0.000    0.000    0.000 
#    0.000    0.000    0.000    0.000    0.000    0.000 
#
# Total GULP energy -520668.709145 kJ/mol
# GULP energy per Si atom -12396.874027 kJ/mol
# Density = 2.080602 g / cm^3
# Si number density = 20.853480 Si / 1000 Ang^3
#
#
#
# Elastic Constant Matrix: (Units=GPa)
#
#
# Indices 1 2 3 4 5 6 
#
# 1 113.7611 56.1480 23.0243 0.6872 -0.0001 0.0000
# 2 56.1480 113.7611 23.0243 -0.6872 0.0001 0.0000
# 3 23.0243 23.0243 64.9680 0.0000 0.0000 0.0000
# 4 0.6872 -0.6872 0.0000 25.5597 0.0000 0.0001
# 5 -0.0001 0.0001 0.0000 0.0000 25.5597 0.6872
# 6 0.0000 0.0000 0.0000 0.0001 0.6872 28.8065
#
#
#
# Elastic Compliance Matrix: (Units=1/GPa)
#
#
# Indices 1 2 3 4 5 6 
#
# 1 0.011940 -0.005429 -0.002307 -0.000467 0.000000 0.000000
# 2 -0.005429 0.011940 -0.002307 0.000467 0.000000 0.000000
# 3 -0.002307 -0.002307 0.017028 0.000000 0.000000 0.000000
# 4 -0.000467 0.000467 0.000000 0.039149 0.000000 0.000000
# 5 0.000000 0.000000 0.000000 0.000000 0.039149 -0.000934
# 6 0.000000 0.000000 0.000000 0.000000 -0.000934 0.034737
#
#
# Mechanical properties :
#
#
# Convention : Reuss Voigt Hill
#
# Bulk Modulus (GPa) = 48.03137 55.20927 51.62032
# Shear Modulus (GPa) = 27.62906 28.67142 28.15024
#
# Velocity S-wave (km/s) = 3.64389 3.71199 3.67809
# Velocity P-wave (km/s) = 6.38644 6.70105 6.54564
#
# Compressibility (1/GPa) = 0.02081973
#
# Stress axis : x y z
#
# Youngs Moduli (GPa) = 83.75499 83.75499 58.72797
#
# Poissons Ratio (x) = 0.45468 0.13551
# Poissons Ratio (y) = 0.45468 0.13551
# Poissons Ratio (z) = 0.19326 0.19326
#
# Static dielectric constant tensor:
#      x y z
#    x 4.015760 0.000000 0.000000 
#    y 0.000000 4.015760 0.000000 
#    z 0.000000 0.000000 4.046250 
# 
# 
# High freq. dielectric constant tensor:
#      x y z
#    x 1.817130 0.000000 0.000000 
#    y 0.000000 1.817130 0.000000 
#    z 0.000000 0.000000 1.813570 
# 
# From -- ./inp_files/2463.got.cif
#   From: 2010.03.12/outbox.cif.g09.slc.cpg/sg152_2_cif.got.tgz:2463.got - 2010.04.03 13:45:27.
