data_PCOD8322841
_publ_section_title
;
Structure prediction by ZEFSAII (Michael W. Deem and Ramdas Pophale) SiO2 
 PCOD8322841
Probable space group: R 3 M
;
_chemical_formula_sum "Si O2"
_cell_formula_units_Z 108
_cell_length_a 22.028671
_cell_length_b 22.028671
_cell_length_c 15.574202
_cell_angle_alpha 90.000000
_cell_angle_beta 90.000000
_cell_angle_gamma 120.000000
_cell_volume 6545.050902
_symmetry_space_group_name_H-M "R 3 M"
_symmetry_group_IT_number 160
_symmetry_cell_setting 'hexagonal'
loop_
_space_group_symop_operation_xyz
x,y,z
-y,x-y,z
-x+y,-x,z
-x+y,y,z
x,x-y,z
-y,-x,z
2/3+x,1/3+y,1/3+z
2/3-y,1/3+x-y,1/3+z
2/3-x+y,1/3-x,1/3+z
2/3-x+y,1/3+y,1/3+z
2/3+x,1/3+x-y,1/3+z
2/3-y,1/3-x,1/3+z
1/3+x,2/3+y,2/3+z
1/3-y,2/3+x-y,2/3+z
1/3-x+y,2/3-x,2/3+z
1/3-x+y,2/3+y,2/3+z
1/3+x,2/3+x-y,2/3+z
1/3-y,2/3-x,2/3+z
loop_
_atom_site_type_symbol
_atom_site_label
_atom_site_fract_x
_atom_site_fract_y
_atom_site_fract_z
Si Si1 0.579698 0.860914 0.508008
Si Si2 0.609158 0.942489 0.162755
Si Si3 0.860909 0.281217 0.484167
Si Si4 0.857818 0.274442 0.671725
Si Si5 0.143921 0.000000 0.996088
Si Si6 0.274446 0.857816 0.320447
O O1 0.599252 0.799626 0.514918
O O2 0.649514 0.934637 0.520353
O O3 0.522298 0.850688 0.578731
O O4 0.549786 0.860620 0.412257
O O5 0.683829 0.951800 0.138508
O O6 0.561738 0.899809 0.081506
O O7 0.566459 0.895050 0.243984
O O8 0.799627 0.200374 0.477230
O O9 0.860591 0.310821 0.579918
O O10 0.850691 0.328397 0.413444
O O11 0.777139 0.222862 0.697326
O O12 0.897263 0.230595 0.662732
O O13 0.135355 0.067678 0.005751
O O14 0.067682 0.932319 0.986421
O O15 0.222873 0.777128 0.294883
#
# Coordination Sequence:
#
# PCOD8322841 Si02
#       6
#    18  18  18  18  18  18
#     4   9  19  32  47  70  98 126 161 201 237 285
#     4  10  16  26  51  70  98 134 157 186 240 294
#     4   9  19  32  47  70  98 126 161 201 237 285
#     4   8  15  28  43  63  93 130 161 185 226 286
#     4  10  21  38  54  68  91 128 170 210 248 286
#     4   8  15  28  43  63  93 130 161 185 226 286
#
# _framework density 16.501017000000001
#
# number of rings (size 3 to 8) (size 9 to 14) (size 15 to 20)
#    0.000    3.000    0.000    3.167    7.000    0.000 
#    0.000    4.167    0.000    0.000    0.000    0.000 
#    0.000    0.000    0.000   56.000    0.000    0.000 
#
# Total GULP energy -446030.580572 kJ/mol
# GULP energy per Si atom -12389.738349 kJ/mol
# Density = 1.646346 g / cm^3
# Si number density = 16.501017 Si / 1000 Ang^3
#
#
#
# Elastic Constant Matrix: (Units=GPa)
#
#
# Indices 1 2 3 4 5 6 
#
# 1 68.9812 44.3255 65.6437 7.3873 0.0010 0.0000
# 2 44.3255 68.9812 65.6437 -7.3873 -0.0010 0.0000
# 3 65.6437 65.6437 171.8197 0.0000 0.0000 0.0000
# 4 7.3873 -7.3873 0.0000 13.0697 0.0000 -0.0010
# 5 0.0010 -0.0010 0.0000 0.0000 13.0697 7.3873
# 6 0.0000 0.0000 0.0000 -0.0010 7.3873 12.3279
#
#
#
# Elastic Compliance Matrix: (Units=1/GPa)
#
#
# Indices 1 2 3 4 5 6 
#
# 1 0.038584 -0.022748 -0.006050 -0.034666 -0.000005 0.000000
# 2 -0.022748 0.038584 -0.006050 0.034666 0.000005 0.000000
# 3 -0.006050 -0.006050 0.010443 0.000000 0.000000 0.000000
# 4 -0.034666 0.034666 0.000000 0.115701 0.000000 0.000009
# 5 -0.000005 0.000005 0.000000 0.000000 0.115701 -0.069332
# 6 0.000000 0.000000 0.000000 0.000009 -0.069332 0.122663
#
#
# Mechanical properties :
#
#
# Convention : Reuss Voigt Hill
#
# Bulk Modulus (GPa) = 55.82168 73.44533 64.63350
# Shear Modulus (GPa) = 9.66478 16.63805 13.15142
#
# Velocity S-wave (km/s) = 2.42277 3.17883 2.82619
# Velocity P-wave (km/s) = 6.45980 7.62099 7.06429
#
# Compressibility (1/GPa) = 0.01791419
#
# Stress axis : x y z
#
# Youngs Moduli (GPa) = 25.91773 25.91773 95.75891
#
# Poissons Ratio (x) = 0.58957 0.57935
# Poissons Ratio (y) = 0.58957 0.57935
# Poissons Ratio (z) = 0.15680 0.15680
#
# Static dielectric constant tensor:
#      x y z
#    x 2.920260 0.000000 0.000000 
#    y 0.000000 2.920260 0.000000 
#    z 0.000000 0.000000 3.760190 
# 
# 
# High freq. dielectric constant tensor:
#      x y z
#    x 1.610030 0.000000 0.000000 
#    y 0.000000 1.610030 0.000000 
#    z 0.000000 0.000000 1.658440 
# 
# From -- ./inp_files/2236.got.cif
#   From: 2010.03.12/outbox.cif.g09.slc.cpg/sg160_2_cif.got.tgz:2236.got - 2010.04.02 06:26:15.
