data_PCOD8322686
_publ_section_title
;
Structure prediction by ZEFSAII (Michael W. Deem and Ramdas Pophale) SiO2 
 PCOD8322686
Probable space group: P 3 M 1
;
_chemical_formula_sum "Si O2"
_cell_formula_units_Z 36
_cell_length_a 12.601370
_cell_length_b 12.601370
_cell_length_c 15.221651
_cell_angle_alpha 90.000000
_cell_angle_beta 90.000000
_cell_angle_gamma 120.000000
_cell_volume 2093.282867
_symmetry_space_group_name_H-M "P 3 M 1"
_symmetry_group_IT_number 156
_symmetry_cell_setting 'hexagonal'
loop_
_space_group_symop_operation_xyz
x,y,z
-y,x-y,z
-x+y,-x,z
-x+y,y,z
x,x-y,z
-y,-x,z
loop_
_atom_site_type_symbol
_atom_site_label
_atom_site_fract_x
_atom_site_fract_y
_atom_site_fract_z
Si Si1 0.243933 0.000233 0.981230
Si Si2 0.756830 0.000022 0.781853
Si Si3 0.914595 0.581117 0.463609
Si Si4 0.248591 0.001636 0.299465
Si Si5 0.086770 0.666484 0.626306
Si Si6 0.667852 0.086743 0.136980
O O1 0.130144 0.869857 0.007652
O O2 0.202080 0.101040 0.993803
O O3 0.287133 0.001519 0.881463
O O4 0.358034 0.029913 0.043306
O O5 0.869907 0.130093 0.753971
O O6 0.799881 0.899941 0.772334
O O7 0.642724 0.968887 0.719549
O O8 0.778613 0.557226 0.474541
O O9 0.905919 0.452960 0.443306
O O10 0.985398 0.670568 0.383764
O O11 0.987573 0.642095 0.552223
O O12 0.209410 0.104705 0.298631
O O13 0.323483 0.009240 0.212670
O O14 0.128997 0.871004 0.302676
O O15 0.119634 0.559817 0.632006
O O16 0.208882 0.791119 0.602572
O O17 0.537556 0.075112 0.149082
O O18 0.771089 0.228911 0.143517
#
# Coordination Sequence:
#
# PCOD8322686 Si02
#       6
#     6   6   6   6   6   6
#     4   9  17  30  50  74  98 124 156 198 246 293
#     4   9  17  30  49  73  98 124 157 199 247 293
#     4  10  20  34  53  75  99 127 159 197 239 285
#     4  10  20  34  53  76 100 125 155 194 239 285
#     4  10  20  33  49  69  96 131 168 203 238 281
#     4  10  20  33  50  71  97 129 163 199 237 281
#
# _framework density 17.197866999999999
#
# number of rings (size 3 to 8) (size 9 to 14) (size 15 to 20)
#    0.000    2.333    0.000    3.000    0.000    2.000 
#    0.000    3.333    0.000   12.667    0.000    0.000 
#    0.000    0.000    0.000    0.000    0.000    0.000 
#
# Total GULP energy -446509.193518 kJ/mol
# GULP energy per Si atom -12403.033153 kJ/mol
# Density = 1.715872 g / cm^3
# Si number density = 17.197867 Si / 1000 Ang^3
#
#
#
# Elastic Constant Matrix: (Units=GPa)
#
#
# Indices 1 2 3 4 5 6 
#
# 1 111.6309 71.7727 62.1980 -1.4688 0.0000 0.0000
# 2 71.7727 111.6309 62.1980 1.4688 0.0000 0.0000
# 3 62.1980 62.1980 115.6693 0.0000 0.0000 0.0000
# 4 -1.4688 1.4688 0.0000 22.7023 0.0000 0.0000
# 5 0.0000 0.0000 0.0000 0.0000 22.7023 -1.4688
# 6 0.0000 0.0000 0.0000 0.0000 -1.4688 19.9291
#
#
#
# Elastic Compliance Matrix: (Units=1/GPa)
#
#
# Indices 1 2 3 4 5 6 
#
# 1 0.016896 -0.008313 -0.004615 0.001631 0.000000 0.000000
# 2 -0.008313 0.016896 -0.004615 -0.001631 0.000000 0.000000
# 3 -0.004615 -0.004615 0.013609 0.000000 0.000000 0.000000
# 4 0.001631 -0.001631 0.000000 0.044259 0.000000 0.000000
# 5 0.000000 0.000000 0.000000 0.000000 0.044259 0.003262
# 6 0.000000 0.000000 0.000000 0.000000 0.003262 0.050418
#
#
# Mechanical properties :
#
#
# Convention : Reuss Voigt Hill
#
# Bulk Modulus (GPa) = 81.21103 81.25207 81.23155
# Shear Modulus (GPa) = 22.17007 22.58422 22.37714
#
# Velocity S-wave (km/s) = 3.59432 3.62774 3.61107
# Velocity P-wave (km/s) = 8.03428 8.05576 8.04503
#
# Compressibility (1/GPa) = 0.01231360
#
# Stress axis : x y z
#
# Youngs Moduli (GPa) = 59.18574 59.18574 73.48255
#
# Poissons Ratio (x) = 0.49202 0.33913
# Poissons Ratio (y) = 0.49202 0.33913
# Poissons Ratio (z) = 0.27315 0.27315
#
# Static dielectric constant tensor:
#      x y z
#    x 3.097140 0.000000 0.000000 
#    y 0.000000 3.097140 0.000000 
#    z 0.000000 0.000000 3.432730 
# 
# 
# High freq. dielectric constant tensor:
#      x y z
#    x 1.660090 0.000000 0.000000 
#    y 0.000000 1.660090 0.000000 
#    z 0.000000 0.000000 1.679760 
# 
# From -- ./inp_files/783.got.cif
#   From: 2010.03.12/outbox.cif.g09.slc.cpg/sg156_cif.got.tgz:783.got - 2010.04.03 13:58:47.
