data_PCOD8322652
_publ_section_title
;
Structure prediction by ZEFSAII (Michael W. Deem and Ramdas Pophale) SiO2 
 PCOD8322652
Probable space group: P 3 M 1
;
_chemical_formula_sum "Si O2"
_cell_formula_units_Z 30
_cell_length_a 17.353795
_cell_length_b 17.353795
_cell_length_c 7.796713
_cell_angle_alpha 90.000000
_cell_angle_beta 90.000000
_cell_angle_gamma 120.000000
_cell_volume 2033.438797
_symmetry_space_group_name_H-M "P 3 M 1"
_symmetry_group_IT_number 156
_symmetry_cell_setting 'hexagonal'
loop_
_space_group_symop_operation_xyz
x,y,z
-y,x-y,z
-x+y,-x,z
-x+y,y,z
x,x-y,z
-y,-x,z
loop_
_atom_site_type_symbol
_atom_site_label
_atom_site_fract_x
_atom_site_fract_y
_atom_site_fract_z
Si Si1 0.182620 0.001095 0.013000
Si Si2 0.333655 0.492691 0.809490
Si Si3 0.059637 0.301726 0.703496
Si Si4 0.333655 0.492691 0.216510
Si Si5 0.059637 0.301726 0.322503
O O1 0.166428 0.083214 0.013000
O O2 0.239785 0.006836 0.181488
O O3 0.087243 0.912758 0.013000
O O4 0.239785 0.006836 0.844512
O O5 0.253917 0.507834 0.744229
O O6 0.426238 0.573763 0.741196
O O7 0.323606 0.401302 0.735309
O O8 0.332064 0.487150 0.013000
O O9 0.153091 0.306181 0.724331
O O10 0.019173 0.269377 0.513000
O O11 0.253917 0.507833 0.281771
O O12 0.426238 0.573763 0.284804
O O13 0.323606 0.401302 0.290691
O O14 0.153090 0.306180 0.301668
#
# Coordination Sequence:
#
# PCOD8322652 Si02
#       5
#     6   6   6   6   6
#     4  10  19  32  47  62  78 100 134 176 219 260
#     4   9  15  24  39  60  86 117 151 180 201 226
#     4   9  17  29  43  59  82 110 137 168 209 251
#     4   9  15  24  39  60  86 117 151 180 201 226
#     4   9  17  29  43  59  82 110 137 168 209 251
#
# _framework density 14.753333
#
# number of rings (size 3 to 8) (size 9 to 14) (size 15 to 20)
#    0.000    2.800    2.000    0.600    0.000    3.200 
#    0.000    0.000    0.000    4.800    0.000    0.000 
#    0.000    0.000    0.000    4.800    0.000   10.400 
#
# Total GULP energy -371865.409694 kJ/mol
# GULP energy per Si atom -12395.513656 kJ/mol
# Density = 1.471975 g / cm^3
# Si number density = 14.753333 Si / 1000 Ang^3
#
#
#
# Elastic Constant Matrix: (Units=GPa)
#
#
# Indices 1 2 3 4 5 6 
#
# 1 64.2212 24.6100 36.5809 0.0000 0.0000 0.0000
# 2 24.6100 64.2212 36.5809 0.0000 0.0000 0.0000
# 3 36.5809 36.5809 96.2821 0.0000 0.0000 0.0000
# 4 0.0000 0.0000 0.0000 9.0757 0.0000 0.0000
# 5 0.0000 0.0000 0.0000 0.0000 9.0757 0.0000
# 6 0.0000 0.0000 0.0000 0.0000 0.0000 19.8056
#
#
#
# Elastic Compliance Matrix: (Units=1/GPa)
#
#
# Indices 1 2 3 4 5 6 
#
# 1 0.020815 -0.004431 -0.006225 0.000000 0.000000 0.000000
# 2 -0.004431 0.020815 -0.006225 0.000000 0.000000 0.000000
# 3 -0.006225 -0.006225 0.015116 0.000000 0.000000 0.000000
# 4 0.000000 0.000000 0.000000 0.110185 0.000000 0.000000
# 5 0.000000 0.000000 0.000000 0.000000 0.110185 0.000000
# 6 0.000000 0.000000 0.000000 0.000000 0.000000 0.050491
#
#
# Mechanical properties :
#
#
# Convention : Reuss Voigt Hill
#
# Bulk Modulus (GPa) = 43.50670 46.69644 45.10157
# Shear Modulus (GPa) = 13.54910 16.05490 14.80200
#
# Velocity S-wave (km/s) = 3.03376 3.30240 3.17093
# Velocity P-wave (km/s) = 6.46723 6.80157 6.63650
#
# Compressibility (1/GPa) = 0.02298497
#
# Stress axis : x y z
#
# Youngs Moduli (GPa) = 48.04276 48.04276 66.15395
#
# Poissons Ratio (x) = 0.21286 0.41180
# Poissons Ratio (y) = 0.21286 0.41180
# Poissons Ratio (z) = 0.29906 0.29906
#
# Static dielectric constant tensor:
#      x y z
#    x 2.652350 0.000000 0.000000 
#    y 0.000000 2.652350 0.000000 
#    z 0.000000 0.000000 3.016760 
# 
# 
# High freq. dielectric constant tensor:
#      x y z
#    x 1.527640 0.000000 0.000000 
#    y 0.000000 1.527640 0.000000 
#    z 0.000000 0.000000 1.579180 
# 
# From -- ./inp_files/370.got.cif
#   From: 2010.03.12/outbox.cif.g09.slc.cpg/sg156_cif.got.tgz:370.got - 2010.04.03 13:58:47.
