data_PCOD8322126
_publ_section_title
;
Structure prediction by ZEFSAII (Michael W. Deem and Ramdas Pophale) SiO2 
 PCOD8322126
Probable space group: P 31 2 1
;
_chemical_formula_sum "Si O2"
_cell_formula_units_Z 30
_cell_length_a 8.740112
_cell_length_b 8.740112
_cell_length_c 22.741538
_cell_angle_alpha 90.000000
_cell_angle_beta 90.000000
_cell_angle_gamma 120.000000
_cell_volume 1504.473215
_symmetry_space_group_name_H-M "P 31 2 1"
_symmetry_group_IT_number 152
_symmetry_cell_setting 'hexagonal'
loop_
_space_group_symop_operation_xyz
x,y,z
-y,x-y,1/3+z
-x+y,-x,2/3+z
x-y,-y,2/3-z
-x,-x+y,1/3-z
y,x,-z
loop_
_atom_site_type_symbol
_atom_site_label
_atom_site_fract_x
_atom_site_fract_y
_atom_site_fract_z
Si Si1 0.968456 0.726230 0.749858
Si Si2 0.929507 0.375565 0.601057
Si Si3 0.702885 0.459314 0.274628
Si Si4 0.297249 0.931243 0.685162
Si Si5 0.069198 0.270963 0.495048
O O1 0.812708 0.619632 0.702655
O O2 0.886552 0.768557 0.805706
O O3 0.043723 0.596406 0.763833
O O4 0.139986 0.912071 0.728562
O O5 0.720607 0.235909 0.603572
O O6 0.000000 0.401862 0.666667
O O7 0.035675 0.310762 0.560953
O O8 0.708087 0.576860 0.330622
O O9 0.860900 0.417737 0.284775
O O10 0.716968 0.560310 0.214213
O O11 0.212094 0.212094 0.500000
#
# Coordination Sequence:
#
# PCOD8322126 Si02
#       5
#     6   6   6   6   6
#     4   9  18  41  60  79 122 162 201 233 309 367
#     4  11  21  41  63  87 118 169 207 243 301 371
#     4  10  21  37  62  90 118 154 206 244 302 354
#     4   9  18  35  61  88 111 158 197 249 294 360
#     4  11  25  38  58  93 128 156 196 263 307 357
#
# _framework density 19.940536000000002
#
# number of rings (size 3 to 8) (size 9 to 14) (size 15 to 20)
#    0.000    2.000    4.000    1.200    2.800    1.600 
#    3.600    4.000    0.000    0.000    0.000    0.000 
#    0.000    0.000    0.000    0.000    0.000    0.000 
#
# Total GULP energy -371806.546335 kJ/mol
# GULP energy per Si atom -12393.551545 kJ/mol
# Density = 1.989515 g / cm^3
# Si number density = 19.940536 Si / 1000 Ang^3
#
#
#
# Elastic Constant Matrix: (Units=GPa)
#
#
# Indices 1 2 3 4 5 6 
#
# 1 100.1545 44.0329 45.0450 -1.3530 -0.0002 0.0000
# 2 44.0329 100.1545 45.0450 1.3530 0.0002 0.0000
# 3 45.0450 45.0450 95.6846 0.0000 0.0000 0.0000
# 4 -1.3530 1.3530 0.0000 17.0256 0.0000 0.0002
# 5 -0.0002 0.0002 0.0000 0.0000 17.0256 -1.3530
# 6 0.0000 0.0000 0.0000 0.0002 -1.3530 28.0608
#
#
#
# Elastic Compliance Matrix: (Units=1/GPa)
#
#
# Indices 1 2 3 4 5 6 
#
# 1 0.013856 -0.004031 -0.004625 0.001421 0.000000 0.000000
# 2 -0.004031 0.013856 -0.004625 -0.001421 0.000000 0.000000
# 3 -0.004625 -0.004625 0.014806 0.000000 0.000000 0.000000
# 4 0.001421 -0.001421 0.000000 0.058961 0.000000 0.000000
# 5 0.000000 0.000000 0.000000 0.000000 0.058961 0.002843
# 6 0.000000 0.000000 0.000000 0.000000 0.002843 0.035774
#
#
# Mechanical properties :
#
#
# Convention : Reuss Voigt Hill
#
# Bulk Modulus (GPa) = 62.67616 62.69326 62.68471
# Shear Modulus (GPa) = 21.92055 23.21377 22.56716
#
# Velocity S-wave (km/s) = 3.31916 3.41567 3.36776
# Velocity P-wave (km/s) = 6.79624 6.86032 6.82836
#
# Compressibility (1/GPa) = 0.01595503
#
# Stress axis : x y z
#
# Youngs Moduli (GPa) = 72.16962 72.16962 67.54001
#
# Poissons Ratio (x) = 0.29090 0.31241
# Poissons Ratio (y) = 0.29090 0.31241
# Poissons Ratio (z) = 0.33382 0.33382
#
# Static dielectric constant tensor:
#      x y z
#    x 3.699050 0.000000 0.000000 
#    y 0.000000 3.699050 0.000000 
#    z 0.000000 0.000000 3.557240 
# 
# 
# High freq. dielectric constant tensor:
#      x y z
#    x 1.777870 0.000000 0.000000 
#    y 0.000000 1.777870 0.000000 
#    z 0.000000 0.000000 1.765760 
# 
# From -- ./inp_files/2977.got.cif
#   From: 2010.03.12/outbox.cif.g09.slc.cpg/sg152_2_cif.got.tgz:2977.got - 2010.04.03 13:45:27.
