data_PCOD8322632
_publ_section_title
;
Structure prediction by ZEFSAII (Michael W. Deem and Ramdas Pophale) SiO2 
 PCOD8322632
Probable space group: R 3 2
;
_chemical_formula_sum "Si O2"
_cell_formula_units_Z 54
_cell_length_a 17.385768
_cell_length_b 17.385768
_cell_length_c 8.443980
_cell_angle_alpha 90.000000
_cell_angle_beta 90.000000
_cell_angle_gamma 120.000000
_cell_volume 2210.373105
_symmetry_space_group_name_H-M "R 3 2"
_symmetry_group_IT_number 155
_symmetry_cell_setting 'hexagonal'
loop_
_space_group_symop_operation_xyz
x,y,z
-y,x-y,z
-x+y,-x,z
x-y,-y,-z
-x,-x+y,-z
y,x,-z
2/3+x,1/3+y,1/3+z
2/3-y,1/3+x-y,1/3+z
2/3-x+y,1/3-x,1/3+z
2/3+x-y,1/3-y,1/3-z
2/3-x,1/3-x+y,1/3-z
2/3+y,1/3+x,1/3-z
1/3+x,2/3+y,2/3+z
1/3-y,2/3+x-y,2/3+z
1/3-x+y,2/3-x,2/3+z
1/3+x-y,2/3-y,2/3-z
1/3-x,2/3-x+y,2/3-z
1/3+y,2/3+x,2/3-z
loop_
_atom_site_type_symbol
_atom_site_label
_atom_site_fract_x
_atom_site_fract_y
_atom_site_fract_z
Si Si1 0.391102 0.570960 0.806954
Si Si2 0.213963 0.320141 0.509461
Si Si3 0.159200 0.057527 0.347807
O O1 0.333334 0.581707 0.666667
O O2 0.407806 0.492293 0.747573
O O3 0.480603 0.662977 0.857497
O O4 0.335239 0.547792 0.970911
O O5 0.281828 0.281828 0.500000
O O6 0.187075 0.333334 0.333334
O O7 0.125121 0.261914 0.611349
O O8 0.109781 0.000000 0.500000
#
# Coordination Sequence:
#
# PCOD8322632 Si02
#       3
#    18  18  18
#     4  12  27  46  78 114 154 204 272 336 400 481
#     4  12  23  45  78 116 150 202 267 328 409 487
#     4  12  24  45  74 109 157 206 260 332 404 477
#
# _framework density 24.430266
#
# number of rings (size 3 to 8) (size 9 to 14) (size 15 to 20)
#    0.000    0.000    6.667    3.667    0.000    1.333 
#    0.000    0.000   22.000    0.000    0.000    0.000 
#    0.000    0.000    0.000    0.000    0.000    0.000 
#
# Total GULP energy -223024.301298 kJ/mol
# GULP energy per Si atom -12390.238961 kJ/mol
# Density = 2.437466 g / cm^3
# Si number density = 24.430266 Si / 1000 Ang^3
#
#
#
# Elastic Constant Matrix: (Units=GPa)
#
#
# Indices 1 2 3 4 5 6 
#
# 1 153.2379 87.9159 57.5558 1.1261 -0.0008 -0.0001
# 2 87.9159 153.2382 57.5573 -1.1266 -0.0003 0.0000
# 3 57.5558 57.5573 106.6652 -0.0023 -0.0048 -0.0004
# 4 1.1261 -1.1266 -0.0023 48.5958 -0.0010 -0.0004
# 5 -0.0008 -0.0003 -0.0048 -0.0010 48.5940 1.1263
# 6 -0.0001 0.0000 -0.0004 -0.0004 1.1263 32.6611
#
#
#
# Elastic Compliance Matrix: (Units=1/GPa)
#
#
# Indices 1 2 3 4 5 6 
#
# 1 0.010453 -0.004868 -0.003014 -0.000355 0.000000 0.000000
# 2 -0.004868 0.010453 -0.003014 0.000355 0.000000 0.000000
# 3 -0.003014 -0.003014 0.012628 0.000001 0.000001 0.000000
# 4 -0.000355 0.000355 0.000001 0.020594 0.000000 0.000000
# 5 0.000000 0.000000 0.000001 0.000000 0.020595 -0.000710
# 6 0.000000 0.000000 0.000000 0.000000 -0.000710 0.030642
#
#
# Mechanical properties :
#
#
# Convention : Reuss Voigt Hill
#
# Bulk Modulus (GPa) = 85.15733 91.02216 88.08974
# Shear Modulus (GPa) = 38.14727 39.97766 39.06247
#
# Velocity S-wave (km/s) = 3.95584 4.04963 4.00301
# Velocity P-wave (km/s) = 7.46980 7.69447 7.58296
#
# Compressibility (1/GPa) = 0.01174297
#
# Stress axis : x y z
#
# Youngs Moduli (GPa) = 95.66507 95.66411 79.19106
#
# Poissons Ratio (x) = 0.46568 0.23866
# Poissons Ratio (y) = 0.46568 0.23868
# Poissons Ratio (z) = 0.28831 0.28833
#
# Static dielectric constant tensor:
#      x y z
#    x 4.412950 0.000000 0.000000 
#    y 0.000000 4.412950 0.000000 
#    z 0.000000 0.000000 4.532000 
# 
# 
# High freq. dielectric constant tensor:
#      x y z
#    x 1.956450 0.000000 0.000000 
#    y 0.000000 1.956450 0.000000 
#    z 0.000000 0.000000 1.988230 
# 
# From -- ./inp_files/1646.got.cif
#   From: 2010.03.12/outbox.cif.g09.slc.cpg/sg155_1_cif.got.tgz:1646.got - 2010.04.03 13:54:13.
