data_PCOD8322010
_publ_section_title
;
Structure prediction by ZEFSAII (Michael W. Deem and Ramdas Pophale) SiO2 
 PCOD8322010
Probable space group: P 31 1 2
;
_chemical_formula_sum "Si O2"
_cell_formula_units_Z 36
_cell_length_a 8.464516
_cell_length_b 8.464516
_cell_length_c 26.607159
_cell_angle_alpha 90.000000
_cell_angle_beta 90.000000
_cell_angle_gamma 120.000000
_cell_volume 1650.948010
_symmetry_space_group_name_H-M "P 31 1 2"
_symmetry_group_IT_number 151
_symmetry_cell_setting 'hexagonal'
loop_
_space_group_symop_operation_xyz
x,y,z
-y,x-y,1/3+z
-x+y,-x,2/3+z
-y,-x,2/3-z
-x+y,y,1/3-z
x,x-y,-z
loop_
_atom_site_type_symbol
_atom_site_label
_atom_site_fract_x
_atom_site_fract_y
_atom_site_fract_z
Si Si1 0.165432 0.071636 0.735992
Si Si2 0.815526 0.741459 0.291212
Si Si3 0.474207 0.054724 0.220571
Si Si4 0.551178 0.350394 0.553053
Si Si5 0.265655 0.419242 0.112116
Si Si6 0.264433 0.707222 0.615574
O O1 0.262409 0.133798 0.681908
O O2 0.306984 0.210108 0.777590
O O3 0.981548 0.080558 0.739407
O O4 0.105219 0.860712 0.744565
O O5 0.766968 0.552459 0.265295
O O6 0.644412 0.771965 0.290154
O O7 0.485272 0.970543 0.166667
O O8 0.663992 0.237220 0.228555
O O9 0.449734 0.920291 0.265672
O O10 0.485484 0.242742 0.500000
O O11 0.519195 0.521712 0.555435
O O12 0.181211 0.362422 0.166667
O O13 0.241570 0.586076 0.094065
O O14 0.327649 0.655298 0.666667
#
# Coordination Sequence:
#
# PCOD8322010 Si02
#       6
#     6   6   6   6   6   6
#     4  11  25  44  71  99 139 183 225 287 339 404
#     4  11  25  44  67 102 141 178 234 277 343 405
#     4  11  25  45  68 101 138 177 231 280 342 410
#     4  11  25  45  72 103 138 184 229 283 344 406
#     4  12  24  44  71 102 138 180 230 281 341 404
#     4  12  25  44  69 102 137 179 227 280 343 407
#
# _framework density 21.80565
#
# number of rings (size 3 to 8) (size 9 to 14) (size 15 to 20)
#    0.000    0.667    1.667    6.500    4.667    2.000 
#    0.000    0.000    0.000    0.000    0.000    0.000 
#    0.000    0.000    0.000    0.000    0.000    0.000 
#
# Total GULP energy -446628.763607 kJ/mol
# GULP energy per Si atom -12406.354545 kJ/mol
# Density = 2.175602 g / cm^3
# Si number density = 21.805650 Si / 1000 Ang^3
#
#
#
# Elastic Constant Matrix: (Units=GPa)
#
#
# Indices 1 2 3 4 5 6 
#
# 1 90.3936 14.8795 40.6980 0.0004 -1.8736 0.0000
# 2 14.8795 90.3936 40.6980 -0.0004 1.8736 0.0000
# 3 40.6980 40.6980 106.4763 0.0000 0.0000 0.0000
# 4 0.0004 -0.0004 0.0000 36.8877 0.0000 1.8736
# 5 -1.8736 1.8736 0.0000 0.0000 36.8877 0.0004
# 6 0.0000 0.0000 0.0000 1.8736 0.0004 37.7571
#
#
#
# Elastic Compliance Matrix: (Units=1/GPa)
#
#
# Indices 1 2 3 4 5 6 
#
# 1 0.013380 0.000104 -0.005154 0.000000 0.000674 0.000000
# 2 0.000104 0.013380 -0.005154 0.000000 -0.000674 0.000000
# 3 -0.005154 -0.005154 0.013332 0.000000 0.000000 0.000000
# 4 0.000000 0.000000 0.000000 0.027178 0.000000 -0.001349
# 5 0.000674 -0.000674 0.000000 0.000000 0.027178 0.000000
# 6 0.000000 0.000000 0.000000 -0.001349 0.000000 0.026552
#
#
# Mechanical properties :
#
#
# Convention : Reuss Voigt Hill
#
# Bulk Modulus (GPa) = 50.80260 53.31274 52.05767
# Shear Modulus (GPa) = 33.79092 35.03901 34.41497
#
# Velocity S-wave (km/s) = 3.94082 4.01294 3.97704
# Velocity P-wave (km/s) = 6.63741 6.78039 6.70928
#
# Compressibility (1/GPa) = 0.01968403
#
# Stress axis : x y z
#
# Youngs Moduli (GPa) = 74.73805 74.73805 75.00899
#
# Poissons Ratio (x) = -0.00778 0.38660
# Poissons Ratio (y) = -0.00778 0.38660
# Poissons Ratio (z) = 0.38520 0.38520
#
# Static dielectric constant tensor:
#      x y z
#    x 3.976220 0.000000 0.000000 
#    y 0.000000 3.976220 0.000000 
#    z 0.000000 0.000000 4.037340 
# 
# 
# High freq. dielectric constant tensor:
#      x y z
#    x 1.866770 0.000000 0.000000 
#    y 0.000000 1.866770 0.000000 
#    z 0.000000 0.000000 1.862490 
# 
# From -- ./inp_files/4624.got.cif
#   From: 2010.03.12/outbox.cif.g09.slc.cpg/sg151_3_cif.got.tgz:4624.got - 2010.04.03 13:42:29.
