data_PCOD8322237
_publ_section_title
;
Structure prediction by ZEFSAII (Michael W. Deem and Ramdas Pophale) SiO2 
 PCOD8322237
Probable space group: P 32 1 2
;
_chemical_formula_sum "Si O2"
_cell_formula_units_Z 36
_cell_length_a 11.381224
_cell_length_b 11.381224
_cell_length_c 15.424957
_cell_angle_alpha 90.000000
_cell_angle_beta 90.000000
_cell_angle_gamma 120.000000
_cell_volume 1730.344336
_symmetry_space_group_name_H-M "P 32 1 2"
_symmetry_group_IT_number 153
_symmetry_cell_setting 'hexagonal'
loop_
_space_group_symop_operation_xyz
x,y,z
-y,x-y,2/3+z
-x+y,-x,1/3+z
-y,-x,1/3-z
-x+y,y,2/3-z
x,x-y,-z
loop_
_atom_site_type_symbol
_atom_site_label
_atom_site_fract_x
_atom_site_fract_y
_atom_site_fract_z
Si Si1 0.157945 0.074111 0.295000
Si Si2 0.470428 0.529573 0.666667
Si Si3 0.495194 0.704747 0.408323
Si Si4 0.529260 0.764630 0.000000
Si Si5 0.238232 0.991522 0.008315
Si Si6 0.351060 0.268372 0.564338
Si Si7 0.176117 0.277911 0.175883
O O1 0.295732 0.118936 0.348535
O O2 0.955886 0.143821 0.466820
O O3 0.069304 0.138607 0.333334
O O4 0.064960 0.913813 0.290978
O O5 0.313958 0.469644 0.693117
O O6 0.458508 0.424713 0.590878
O O7 0.438874 0.719437 0.500000
O O8 0.388249 0.566320 0.364079
O O9 0.632492 0.694627 0.412429
O O10 0.612105 0.754228 0.081274
O O11 0.251033 0.927742 0.916930
O O12 0.310137 0.155069 0.000000
O O13 0.426457 0.213229 0.500000
O O14 0.224235 0.248343 0.506293
#
# Coordination Sequence:
#
# PCOD8322237 Si02
#       7
#     6   3   6   3   6   6   6
#     4  10  18  31  58  91 119 151 202 258 323 363
#     4  11  22  40  54  94 124 167 222 250 320 383
#     4  11  24  39  61  91 133 173 214 269 322 384
#     4  11  24  38  64  92 128 185 220 252 316 395
#     4  10  24  36  59  95 130 164 202 272 339 383
#     4  11  20  35  61  91 123 162 208 271 314 383
#     4  11  20  38  59  93 129 161 218 261 320 391
#
# _framework density 20.805107
#
# number of rings (size 3 to 8) (size 9 to 14) (size 15 to 20)
#    0.000    1.333    5.833    1.000    4.667    0.000 
#    0.000    0.000    0.000    0.000   32.500    0.000 
#    0.000    0.000    0.000    0.000    0.000    0.000 
#
# Total GULP energy -446031.043009 kJ/mol
# GULP energy per Si atom -12389.751195 kJ/mol
# Density = 2.075775 g / cm^3
# Si number density = 20.805107 Si / 1000 Ang^3
#
#
#
# Elastic Constant Matrix: (Units=GPa)
#
#
# Indices 1 2 3 4 5 6 
#
# 1 76.7920 42.4224 32.2667 0.0001 -4.1766 0.0000
# 2 42.4224 76.7920 32.2667 -0.0001 4.1766 0.0000
# 3 32.2667 32.2667 83.2500 0.0000 0.0000 0.0000
# 4 0.0001 -0.0001 0.0000 35.9207 0.0000 4.1766
# 5 -4.1766 4.1766 0.0000 0.0000 35.9207 0.0001
# 6 0.0000 0.0000 0.0000 4.1766 0.0001 17.1848
#
#
#
# Elastic Compliance Matrix: (Units=1/GPa)
#
#
# Indices 1 2 3 4 5 6 
#
# 1 0.020279 -0.009663 -0.004114 0.000000 0.003481 0.000000
# 2 -0.009663 0.020279 -0.004114 0.000000 -0.003481 0.000000
# 3 -0.004114 -0.004114 0.015201 0.000000 0.000000 0.000000
# 4 0.000000 0.000000 0.000000 0.028649 0.000000 -0.006963
# 5 0.003481 -0.003481 0.000000 0.000000 0.028649 0.000000
# 6 0.000000 0.000000 0.000000 -0.006963 0.000000 0.059883
#
#
# Mechanical properties :
#
#
# Convention : Reuss Voigt Hill
#
# Bulk Modulus (GPa) = 50.06345 50.08284 50.07314
# Shear Modulus (GPa) = 23.21467 26.46379 24.83923
#
# Velocity S-wave (km/s) = 3.34401 3.57036 3.45904
# Velocity P-wave (km/s) = 6.24701 6.41259 6.33034
#
# Compressibility (1/GPa) = 0.01997465
#
# Stress axis : x y z
#
# Youngs Moduli (GPa) = 49.31327 49.31327 65.78332
#
# Poissons Ratio (x) = 0.47652 0.27066
# Poissons Ratio (y) = 0.47652 0.27066
# Poissons Ratio (z) = 0.20290 0.20290
#
# Static dielectric constant tensor:
#      x y z
#    x 3.613690 0.000000 0.000000 
#    y 0.000000 3.613690 0.000000 
#    z 0.000000 0.000000 3.979620 
# 
# 
# High freq. dielectric constant tensor:
#      x y z
#    x 1.786370 0.000000 0.000000 
#    y 0.000000 1.786370 0.000000 
#    z 0.000000 0.000000 1.824550 
# 
# From -- ./inp_files/3498.got.cif
#   From: 2010.03.12/outbox.cif.g09.slc.cpg/sg153_2_cif.got.tgz:3498.got - 2010.04.03 13:48:33.
