data_PCOD8322424
_publ_section_title
;
Structure prediction by ZEFSAII (Michael W. Deem and Ramdas Pophale) SiO2 
 PCOD8322424
Probable space group: P 32 2 1
;
_chemical_formula_sum "Si O2"
_cell_formula_units_Z 12
_cell_length_a 6.976278
_cell_length_b 6.976278
_cell_length_c 11.874796
_cell_angle_alpha 90.000000
_cell_angle_beta 90.000000
_cell_angle_gamma 120.000000
_cell_volume 500.500305
_symmetry_space_group_name_H-M "P 32 2 1"
_symmetry_group_IT_number 154
_symmetry_cell_setting 'hexagonal'
loop_
_space_group_symop_operation_xyz
x,y,z
-y,x-y,2/3+z
-x+y,-x,1/3+z
x-y,-y,1/3-z
-x,-x+y,2/3-z
y,x,-z
loop_
_atom_site_type_symbol
_atom_site_label
_atom_site_fract_x
_atom_site_fract_y
_atom_site_fract_z
Si Si1 0.193460 0.363299 0.751223
Si Si2 0.169837 0.363298 0.082111
O O1 0.382957 0.617044 0.750001
O O2 0.285137 0.202614 0.794347
O O3 0.000000 0.344514 0.833334
O O4 0.082524 0.285141 0.627681
O O5 0.344511 0.344511 0.000000
#
# Coordination Sequence:
#
# PCOD8322424 Si02
#       2
#     6   6
#     4  10  24  49  70 107 148 192 242 302 361 433
#     4  10  24  49  70 107 148 192 242 302 361 433
#
# _framework density 23.976009000000001
#
# number of rings (size 3 to 8) (size 9 to 14) (size 15 to 20)
#    0.000    2.000    0.000    0.000   14.000    0.000 
#   36.000    0.000    0.000    0.000    0.000    0.000 
#    0.000    0.000    0.000    0.000    0.000    0.000 
#
# Total GULP energy -148720.962467 kJ/mol
# GULP energy per Si atom -12393.413539 kJ/mol
# Density = 2.392144 g / cm^3
# Si number density = 23.976009 Si / 1000 Ang^3
#
#
#
# Elastic Constant Matrix: (Units=GPa)
#
#
# Indices 1 2 3 4 5 6 
#
# 1 205.9646 82.8520 57.6401 -0.0003 0.0000 0.0000
# 2 82.8520 205.9646 57.6401 0.0003 0.0000 0.0000
# 3 57.6401 57.6401 53.4502 0.0000 0.0000 0.0000
# 4 -0.0003 0.0003 0.0000 33.3984 0.0000 0.0000
# 5 0.0000 0.0000 0.0000 0.0000 33.3984 -0.0003
# 6 0.0000 0.0000 0.0000 0.0000 -0.0003 61.5563
#
#
#
# Elastic Compliance Matrix: (Units=1/GPa)
#
#
# Indices 1 2 3 4 5 6 
#
# 1 0.007101 -0.001022 -0.006556 0.000000 0.000000 0.000000
# 2 -0.001022 0.007101 -0.006556 0.000000 0.000000 0.000000
# 3 -0.006556 -0.006556 0.032848 0.000000 0.000000 0.000000
# 4 0.000000 0.000000 0.000000 0.029942 0.000000 0.000000
# 5 0.000000 0.000000 0.000000 0.000000 0.029942 0.000000
# 6 0.000000 0.000000 0.000000 0.000000 0.000000 0.016245
#
#
# Mechanical properties :
#
#
# Convention : Reuss Voigt Hill
#
# Bulk Modulus (GPa) = 53.23763 95.73820 74.48791
# Shear Modulus (GPa) = 31.70473 43.48708 37.59590
#
# Velocity S-wave (km/s) = 3.64036 4.26346 3.96417
# Velocity P-wave (km/s) = 6.31842 8.01584 7.21720
#
# Compressibility (1/GPa) = 0.01878371
#
# Stress axis : x y z
#
# Youngs Moduli (GPa) = 140.82831 140.82831 30.44333
#
# Poissons Ratio (x) = 0.14390 0.19957
# Poissons Ratio (y) = 0.14390 0.19957
# Poissons Ratio (z) = 0.92321 0.92321
#
# Static dielectric constant tensor:
#      x y z
#    x 4.421320 0.000000 0.000000 
#    y 0.000000 4.421320 0.000000 
#    z 0.000000 0.000000 4.775340 
# 
# 
# High freq. dielectric constant tensor:
#      x y z
#    x 1.946970 0.000000 0.000000 
#    y 0.000000 1.946970 0.000000 
#    z 0.000000 0.000000 1.939130 
# 
# From -- ./inp_files/1337.got.cif
#   From: 2010.03.12/outbox.cif.g09.slc.cpg/sg154_1_cif.got.tgz:1337.got - 2010.04.03 13:51:21.
