data_PCOD8322119
_publ_section_title
;
Structure prediction by ZEFSAII (Michael W. Deem and Ramdas Pophale) SiO2 
 PCOD8322119
Probable space group: P 31 2 1
;
_chemical_formula_sum "Si O2"
_cell_formula_units_Z 42
_cell_length_a 11.368298
_cell_length_b 11.368298
_cell_length_c 17.557732
_cell_angle_alpha 90.000000
_cell_angle_beta 90.000000
_cell_angle_gamma 120.000000
_cell_volume 1965.123938
_symmetry_space_group_name_H-M "P 31 2 1"
_symmetry_group_IT_number 152
_symmetry_cell_setting 'hexagonal'
loop_
_space_group_symop_operation_xyz
x,y,z
-y,x-y,1/3+z
-x+y,-x,2/3+z
x-y,-y,2/3-z
-x,-x+y,1/3-z
y,x,-z
loop_
_atom_site_type_symbol
_atom_site_label
_atom_site_fract_x
_atom_site_fract_y
_atom_site_fract_z
Si Si1 0.051562 0.654808 0.005826
Si Si2 0.211877 0.090568 0.557667
Si Si3 0.627994 0.615716 0.118954
Si Si4 0.738407 0.517572 0.992271
Si Si5 0.808730 0.106873 0.395009
Si Si6 0.478124 0.699109 0.375151
Si Si7 0.410311 0.327813 0.833318
O O1 0.116110 0.708101 0.922260
O O2 0.891860 0.553778 0.001169
O O3 0.078288 0.784080 0.054218
O O4 0.111491 0.571367 0.049434
O O5 0.122766 0.122766 0.500000
O O6 0.310232 0.047720 0.517004
O O7 0.114310 0.954759 0.605437
O O8 0.621594 0.728251 0.066069
O O9 0.482956 0.524493 0.156470
O O10 0.671957 0.522915 0.072057
O O11 0.657533 0.364821 0.963580
O O12 0.816909 0.247083 0.368384
O O13 0.709598 0.000000 0.333334
O O14 0.733504 0.049534 0.476034
O O15 0.559790 0.784232 0.450504
#
# Coordination Sequence:
#
# PCOD8322119 Si02
#       7
#     6   6   6   6   6   6   6
#     4  12  26  40  64 101 138 174 220 267 344 393
#     4  12  26  43  61  95 136 176 214 280 332 393
#     4  10  20  42  71  93 123 164 229 269 318 384
#     4  10  21  41  71  98 123 169 219 277 318 398
#     4  10  22  43  69  93 129 171 223 272 332 397
#     4  10  23  43  67 101 133 172 220 281 334 395
#     4  10  22  45  71  97 126 177 228 271 325 403
#
# _framework density 21.372698
#
# number of rings (size 3 to 8) (size 9 to 14) (size 15 to 20)
#    0.000    1.429    2.857    1.714    4.000    4.571 
#    0.000    2.143    0.000    0.000    0.000    0.000 
#    0.000    0.000    0.000    0.000    0.000    0.000 
#
# Total GULP energy -520802.390481 kJ/mol
# GULP energy per Si atom -12400.056916 kJ/mol
# Density = 2.132405 g / cm^3
# Si number density = 21.372698 Si / 1000 Ang^3
#
#
#
# Elastic Constant Matrix: (Units=GPa)
#
#
# Indices 1 2 3 4 5 6 
#
# 1 81.6522 50.2272 20.8543 8.5792 0.0003 0.0000
# 2 50.2272 81.6522 20.8543 -8.5792 -0.0003 0.0000
# 3 20.8543 20.8543 76.1740 0.0000 0.0000 0.0000
# 4 8.5792 -8.5792 0.0000 11.7077 0.0000 -0.0003
# 5 0.0003 -0.0003 0.0000 0.0000 11.7077 8.5792
# 6 0.0000 0.0000 0.0000 -0.0003 8.5792 15.7125
#
#
#
# Elastic Compliance Matrix: (Units=1/GPa)
#
#
# Indices 1 2 3 4 5 6 
#
# 1 0.030674 -0.022372 -0.002273 -0.038871 -0.000001 0.000000
# 2 -0.022372 0.030674 -0.002273 0.038871 0.000001 0.000000
# 3 -0.002273 -0.002273 0.014372 0.000000 0.000000 0.000000
# 4 -0.038871 0.038871 0.000000 0.142382 0.000000 0.000003
# 5 -0.000001 0.000001 0.000000 0.000000 0.142382 -0.077742
# 6 0.000000 0.000000 0.000000 0.000003 -0.077742 0.106091
#
#
# Mechanical properties :
#
#
# Convention : Reuss Voigt Hill
#
# Bulk Modulus (GPa) = 45.69479 47.03889 46.36684
# Shear Modulus (GPa) = 9.47499 17.66174 13.56836
#
# Velocity S-wave (km/s) = 2.10781 2.87778 2.52235
# Velocity P-wave (km/s) = 5.22974 5.75316 5.49768
#
# Compressibility (1/GPa) = 0.02188433
#
# Stress axis : x y z
#
# Youngs Moduli (GPa) = 32.60134 32.60134 69.57855
#
# Poissons Ratio (x) = 0.72936 0.15813
# Poissons Ratio (y) = 0.72936 0.15813
# Poissons Ratio (z) = 0.07409 0.07409
#
# Static dielectric constant tensor:
#      x y z
#    x 4.036480 0.000000 0.000000 
#    y 0.000000 4.036480 0.000000 
#    z 0.000000 0.000000 3.985200 
# 
# 
# High freq. dielectric constant tensor:
#      x y z
#    x 1.839460 0.000000 0.000000 
#    y 0.000000 1.839460 0.000000 
#    z 0.000000 0.000000 1.837860 
# 
# From -- ./inp_files/2469.got.cif
#   From: 2010.03.12/outbox.cif.g09.slc.cpg/sg152_2_cif.got.tgz:2469.got - 2010.04.03 13:45:27.
