data_PCOD8322768
_publ_section_title
;
Structure prediction by ZEFSAII (Michael W. Deem and Ramdas Pophale) SiO2 
 PCOD8322768
Probable space group: P 3 C 1
;
_chemical_formula_sum "Si O2"
_cell_formula_units_Z 24
_cell_length_a 8.422587
_cell_length_b 8.422587
_cell_length_c 18.728329
_cell_angle_alpha 90.000000
_cell_angle_beta 90.000000
_cell_angle_gamma 120.000000
_cell_volume 1150.590206
_symmetry_space_group_name_H-M "P 3 C 1"
_symmetry_group_IT_number 158
_symmetry_cell_setting 'hexagonal'
loop_
_space_group_symop_operation_xyz
x,y,z
-y,x-y,z
-x+y,-x,z
-x+y,y,1/2+z
x,x-y,1/2+z
-y,-x,1/2+z
loop_
_atom_site_type_symbol
_atom_site_label
_atom_site_fract_x
_atom_site_fract_y
_atom_site_fract_z
Si Si1 0.869015 0.328629 0.555900
Si Si2 0.796298 0.002076 0.925228
Si Si3 0.996831 0.336589 0.711384
Si Si4 0.326105 0.328692 0.770485
O O1 0.849087 0.511194 0.553545
O O2 0.977941 0.333942 0.626449
O O3 0.989217 0.320876 0.491061
O O4 0.818661 0.820912 0.927022
O O5 0.680955 0.991071 0.855704
O O6 0.873386 0.132360 0.741031
O O7 0.928882 0.464845 0.748135
O O8 0.204827 0.405144 0.733815
#
# Coordination Sequence:
#
# PCOD8322768 Si02
#       4
#     6   6   6   6
#     4  10  23  41  63 101 132 179 226 272 350 405
#     4  10  23  41  63 101 132 179 226 272 350 405
#     4  12  24  44  68  99 139 183 234 287 338 413
#     4  12  24  44  68  99 139 183 234 287 338 413
#
# _framework density 20.858858999999999
#
# number of rings (size 3 to 8) (size 9 to 14) (size 15 to 20)
#    1.000    0.000    5.000    1.500    7.000    0.000 
#    0.000    0.000    0.000    1.000    0.000    0.000 
#    0.000    0.000    0.000    0.000    0.000    0.000 
#
# Total GULP energy -297584.813801 kJ/mol
# GULP energy per Si atom -12399.367242 kJ/mol
# Density = 2.081138 g / cm^3
# Si number density = 20.858859 Si / 1000 Ang^3
#
#
#
# Elastic Constant Matrix: (Units=GPa)
#
#
# Indices 1 2 3 4 5 6 
#
# 1 69.1345 20.3541 51.0180 2.4967 0.0000 0.0000
# 2 20.3541 69.1345 51.0180 -2.4967 0.0000 0.0000
# 3 51.0180 51.0180 218.2844 0.0000 0.0000 0.0000
# 4 2.4967 -2.4967 0.0000 32.5299 0.0000 0.0000
# 5 0.0000 0.0000 0.0000 0.0000 32.5299 2.4967
# 6 0.0000 0.0000 0.0000 0.0000 2.4967 24.3902
#
#
#
# Elastic Compliance Matrix: (Units=1/GPa)
#
#
# Indices 1 2 3 4 5 6 
#
# 1 0.017948 -0.002714 -0.003561 -0.001586 0.000000 0.000000
# 2 -0.002714 0.017948 -0.003561 0.001586 0.000000 0.000000
# 3 -0.003561 -0.003561 0.006246 0.000000 0.000000 0.000000
# 4 -0.001586 0.001586 0.000000 0.030984 0.000000 0.000000
# 5 0.000000 0.000000 0.000000 0.000000 0.030984 -0.003172
# 6 0.000000 0.000000 0.000000 0.000000 -0.003172 0.041325
#
#
# Mechanical properties :
#
#
# Convention : Reuss Voigt Hill
#
# Bulk Modulus (GPa) = 44.49983 66.81484 55.65733
# Shear Modulus (GPa) = 28.96921 33.50090 31.23505
#
# Velocity S-wave (km/s) = 3.73073 4.01193 3.87389
# Velocity P-wave (km/s) = 6.31964 7.31862 6.83740
#
# Compressibility (1/GPa) = 0.02247200
#
# Stress axis : x y z
#
# Youngs Moduli (GPa) = 55.71516 55.71516 160.11318
#
# Poissons Ratio (x) = 0.15121 0.57011
# Poissons Ratio (y) = 0.15121 0.57011
# Poissons Ratio (z) = 0.19838 0.19838
#
# Static dielectric constant tensor:
#      x y z
#    x 3.502730 0.000000 0.000000 
#    y 0.000000 3.502730 0.000000 
#    z 0.000000 0.000000 3.670770 
# 
# 
# High freq. dielectric constant tensor:
#      x y z
#    x 1.803950 0.000000 0.000000 
#    y 0.000000 1.803950 0.000000 
#    z 0.000000 0.000000 1.826620 
# 
# From -- ./inp_files/584.got.cif
#   From: 2010.03.12/outbox.cif.g09.slc.cpg/sg158_cif.got.tgz:584.got - 2010.04.03 13:59:47.
