data_PCOD8322693
_publ_section_title
;
Structure prediction by ZEFSAII (Michael W. Deem and Ramdas Pophale) SiO2 
 PCOD8322693
Probable space group: P 3 M 1
;
_chemical_formula_sum "Si O2"
_cell_formula_units_Z 48
_cell_length_a 12.709512
_cell_length_b 12.709512
_cell_length_c 20.327798
_cell_angle_alpha 90.000000
_cell_angle_beta 90.000000
_cell_angle_gamma 120.000000
_cell_volume 2843.666876
_symmetry_space_group_name_H-M "P 3 M 1"
_symmetry_group_IT_number 156
_symmetry_cell_setting 'hexagonal'
loop_
_space_group_symop_operation_xyz
x,y,z
-y,x-y,z
-x+y,-x,z
-x+y,y,z
x,x-y,z
-y,-x,z
loop_
_atom_site_type_symbol
_atom_site_label
_atom_site_fract_x
_atom_site_fract_y
_atom_site_fract_z
Si Si1 0.579402 0.666591 0.192630
Si Si2 0.913889 0.578491 0.313366
Si Si3 0.666764 0.576425 0.672322
Si Si4 0.000442 0.244003 0.928267
Si Si5 0.000427 0.755223 0.556301
Si Si6 0.910701 0.334299 0.820215
Si Si7 0.087129 0.667070 0.435025
Si Si8 0.242990 0.243037 0.076343
O O1 0.577732 0.788866 0.209245
O O2 0.441808 0.558192 0.188436
O O3 0.654094 0.644448 0.248802
O O4 0.644957 0.674994 0.123784
O O5 0.795798 0.591596 0.315383
O O6 0.873450 0.436725 0.313460
O O7 0.996288 0.646150 0.375842
O O8 0.767972 0.535944 0.666932
O O9 0.538795 0.461206 0.652195
O O10 0.697104 0.688159 0.624729
O O11 0.663052 0.621625 0.746205
O O12 0.116997 0.233994 0.915356
O O13 0.004778 0.339443 0.874744
O O14 0.888154 0.111847 0.915425
O O15 0.996514 0.287875 0.002411
O O16 0.876737 0.753474 0.538597
O O17 0.027706 0.684172 0.500335
O O18 0.106391 0.893610 0.562875
O O19 0.890755 0.445378 0.832847
O O20 0.782977 0.217024 0.832806
O O21 0.108060 0.554030 0.445003
O O22 0.215762 0.784239 0.418792
O O23 0.256066 0.128033 0.096440
O O24 0.101404 0.202807 0.082073
#
# Coordination Sequence:
#
# PCOD8322693 Si02
#       8
#     6   6   6   6   6   6   6   6
#     4  10  20  33  50  71  96 126 159 196 236 280
#     4  10  20  34  52  73  97 124 154 190 233 280
#     4   9  17  30  48  69  91 117 152 194 239 283
#     4   9  17  29  46  68  93 122 156 194 236 281
#     4  10  20  33  49  70  98 130 161 194 235 283
#     4   9  17  29  46  67  91 119 151 190 235 283
#     4  10  20  34  53  75  99 128 162 199 235 274
#     4   9  17  30  48  69  93 122 157 197 239 282
#
# _framework density 16.879615000000001
#
# number of rings (size 3 to 8) (size 9 to 14) (size 15 to 20)
#    0.000    2.500    0.000    2.500    0.000    3.000 
#    0.000    1.250    0.000    9.750    0.000    0.000 
#    0.000    0.000    0.000    0.000    0.000    0.000 
#
# Total GULP energy -595207.778509 kJ/mol
# GULP energy per Si atom -12400.162052 kJ/mol
# Density = 1.684120 g / cm^3
# Si number density = 16.879615 Si / 1000 Ang^3
#
#
#
# Elastic Constant Matrix: (Units=GPa)
#
#
# Indices 1 2 3 4 5 6 
#
# 1 98.6657 51.2553 59.8434 -1.7160 0.0002 0.0000
# 2 51.2553 98.6657 59.8434 1.7160 -0.0002 0.0000
# 3 59.8434 59.8434 115.5397 0.0000 0.0000 0.0000
# 4 -1.7160 1.7160 0.0000 28.1242 0.0000 -0.0002
# 5 0.0002 -0.0002 0.0000 0.0000 28.1242 -1.7160
# 6 0.0000 0.0000 0.0000 -0.0002 -1.7160 23.7052
#
#
#
# Elastic Compliance Matrix: (Units=1/GPa)
#
#
# Indices 1 2 3 4 5 6 
#
# 1 0.016279 -0.004907 -0.005890 0.001293 0.000000 0.000000
# 2 -0.004907 0.016279 -0.005890 -0.001293 0.000000 0.000000
# 3 -0.005890 -0.005890 0.014757 0.000000 0.000000 0.000000
# 4 0.001293 -0.001293 0.000000 0.035714 0.000000 0.000000
# 5 0.000000 0.000000 0.000000 0.000000 0.035714 0.002585
# 6 0.000000 0.000000 0.000000 0.000000 0.002585 0.042372
#
#
# Mechanical properties :
#
#
# Convention : Reuss Voigt Hill
#
# Bulk Modulus (GPa) = 71.73330 72.75056 72.24193
# Shear Modulus (GPa) = 25.10818 25.45265 25.28042
#
# Velocity S-wave (km/s) = 3.86098 3.88737 3.87420
# Velocity P-wave (km/s) = 7.90351 7.95878 7.93119
#
# Compressibility (1/GPa) = 0.01394053
#
# Stress axis : x y z
#
# Youngs Moduli (GPa) = 61.42744 61.42744 67.76481
#
# Poissons Ratio (x) = 0.30140 0.39917
# Poissons Ratio (y) = 0.30140 0.39917
# Poissons Ratio (z) = 0.36184 0.36184
#
# Static dielectric constant tensor:
#      x y z
#    x 3.098800 0.000000 0.000000 
#    y 0.000000 3.098800 0.000000 
#    z 0.000000 0.000000 3.423200 
# 
# 
# High freq. dielectric constant tensor:
#      x y z
#    x 1.647360 0.000000 0.000000 
#    y 0.000000 1.647360 0.000000 
#    z 0.000000 0.000000 1.664580 
# 
# From -- ./inp_files/1118.got.cif
#   From: 2010.03.12/outbox.cif.g09.slc.cpg/sg156_cif.got.tgz:1118.got - 2010.04.03 13:58:47.
