data_PCOD8322123
_publ_section_title
;
Structure prediction by ZEFSAII (Michael W. Deem and Ramdas Pophale) SiO2 
 PCOD8322123
Probable space group: P 31 2 1
;
_chemical_formula_sum "Si O2"
_cell_formula_units_Z 42
_cell_length_a 8.479798
_cell_length_b 8.479798
_cell_length_c 31.513507
_cell_angle_alpha 90.000000
_cell_angle_beta 90.000000
_cell_angle_gamma 120.000000
_cell_volume 1962.449013
_symmetry_space_group_name_H-M "P 31 2 1"
_symmetry_group_IT_number 152
_symmetry_cell_setting 'hexagonal'
loop_
_space_group_symop_operation_xyz
x,y,z
-y,x-y,1/3+z
-x+y,-x,2/3+z
x-y,-y,2/3-z
-x,-x+y,1/3-z
y,x,-z
loop_
_atom_site_type_symbol
_atom_site_label
_atom_site_fract_x
_atom_site_fract_y
_atom_site_fract_z
Si Si1 0.572008 0.264865 0.919780
Si Si2 0.229433 0.210574 0.050444
Si Si3 0.667090 0.120652 0.531799
Si Si4 0.290499 0.797917 0.553434
Si Si5 0.798670 0.269543 0.659296
Si Si6 0.457549 0.599924 0.596004
Si Si7 0.830396 0.025507 0.063815
O O1 0.382101 0.258762 0.922565
O O2 0.679021 0.392611 0.880251
O O3 0.682679 0.355693 0.963122
O O4 0.539639 0.061604 0.912978
O O5 0.384839 0.169813 0.068343
O O6 0.029345 0.044186 0.062623
O O7 0.245964 0.245964 0.000000
O O8 0.720156 0.134386 0.482444
O O9 0.452991 0.991735 0.538707
O O10 0.782233 0.045672 0.557016
O O11 0.365870 0.657330 0.558800
O O12 0.697054 0.193076 0.702915
O O13 0.000000 0.446742 0.666667
O O14 0.828727 0.115445 0.638706
O O15 0.630269 0.780299 0.614999
#
# Coordination Sequence:
#
# PCOD8322123 Si02
#       7
#     6   6   6   6   6   6   6
#     4  10  21  37  58  82 117 156 197 244 299 362
#     4  11  22  39  62  91 121 155 196 246 303 361
#     4  10  23  42  61  86 117 160 203 247 300 357
#     4  11  23  41  63  86 119 156 204 252 299 360
#     4  11  20  33  56  88 122 155 198 252 305 360
#     4  10  21  37  58  84 116 161 201 245 305 367
#     4   9  22  39  58  85 121 161 199 242 303 371
#
# _framework density 21.401828999999999
#
# number of rings (size 3 to 8) (size 9 to 14) (size 15 to 20)
#    0.000    1.714    0.000    4.286    0.000   10.286 
#    0.000    5.714    0.000    0.000    0.000    0.000 
#    0.000    0.000    0.000    0.000    0.000    0.000 
#
# Total GULP energy -520815.785991 kJ/mol
# GULP energy per Si atom -12400.375857 kJ/mol
# Density = 2.135312 g / cm^3
# Si number density = 21.401829 Si / 1000 Ang^3
#
#
#
# Elastic Constant Matrix: (Units=GPa)
#
#
# Indices 1 2 3 4 5 6 
#
# 1 103.4849 35.7522 34.7721 -7.4161 -0.0001 0.0000
# 2 35.7522 103.4849 34.7721 7.4161 0.0001 0.0000
# 3 34.7721 34.7721 105.1978 0.0000 0.0000 0.0000
# 4 -7.4161 7.4161 0.0000 26.5233 0.0000 0.0001
# 5 -0.0001 0.0001 0.0000 0.0000 26.5233 -7.4161
# 6 0.0000 0.0000 0.0000 0.0001 -7.4161 33.8664
#
#
#
# Elastic Compliance Matrix: (Units=1/GPa)
#
#
# Indices 1 2 3 4 5 6 
#
# 1 0.012164 -0.003562 -0.002843 0.004397 0.000000 0.000000
# 2 -0.003562 0.012164 -0.002843 -0.004397 0.000000 0.000000
# 3 -0.002843 -0.002843 0.011386 0.000000 0.000000 0.000000
# 4 0.004397 -0.004397 0.000000 0.040162 0.000000 0.000000
# 5 0.000000 0.000000 0.000000 0.000000 0.040162 0.008795
# 6 0.000000 0.000000 0.000000 0.000000 0.008795 0.031454
#
#
# Mechanical properties :
#
#
# Convention : Reuss Voigt Hill
#
# Bulk Modulus (GPa) = 58.08390 58.08447 58.08418
# Shear Modulus (GPa) = 29.11566 31.17401 30.14483
#
# Velocity S-wave (km/s) = 3.69240 3.82069 3.75709
# Velocity P-wave (km/s) = 6.73625 6.83099 6.78378
#
# Compressibility (1/GPa) = 0.01721647
#
# Stress axis : x y z
#
# Youngs Moduli (GPa) = 82.20642 82.20642 87.83032
#
# Poissons Ratio (x) = 0.29285 0.24973
# Poissons Ratio (y) = 0.29285 0.24973
# Poissons Ratio (z) = 0.23374 0.23374
#
# Static dielectric constant tensor:
#      x y z
#    x 3.974790 0.000000 0.000000 
#    y 0.000000 3.974790 0.000000 
#    z 0.000000 0.000000 3.649000 
# 
# 
# High freq. dielectric constant tensor:
#      x y z
#    x 1.843000 0.000000 0.000000 
#    y 0.000000 1.843000 0.000000 
#    z 0.000000 0.000000 1.825790 
# 
# From -- ./inp_files/3701.got.cif
#   From: 2010.03.12/outbox.cif.g09.slc.cpg/sg152_2_cif.got.tgz:3701.got - 2010.04.03 13:45:27.
