data_PCOD8322295
_publ_section_title
;
Structure prediction by ZEFSAII (Michael W. Deem and Ramdas Pophale) SiO2 
 PCOD8322295
Probable space group: P 32 1 2
;
_chemical_formula_sum "Si O2"
_cell_formula_units_Z 45
_cell_length_a 15.000000
_cell_length_b 15.000000
_cell_length_c 12.000000
_cell_angle_alpha 90.000000
_cell_angle_beta 90.000000
_cell_angle_gamma 120.000000
_cell_volume 2338.268590
_symmetry_space_group_name_H-M "P 32 1 2"
_symmetry_group_IT_number 153
_symmetry_cell_setting 'hexagonal'
loop_
_space_group_symop_operation_xyz
x,y,z
-y,x-y,2/3+z
-x+y,-x,1/3+z
-y,-x,1/3-z
-x+y,y,2/3-z
x,x-y,-z
loop_
_atom_site_type_symbol
_atom_site_label
_atom_site_fract_x
_atom_site_fract_y
_atom_site_fract_z
Si Si1 0.726110 0.078110 0.018970
Si Si2 0.484138 0.822823 0.918474
Si Si3 0.015888 0.825495 0.848463
Si Si4 0.701327 0.749317 0.185690
Si Si5 0.732913 0.658407 0.640472
Si Si6 0.722456 0.084057 0.614129
Si Si7 0.000318 0.500159 0.000000
Si Si8 0.506612 0.511535 0.914139
O O1 0.816899 0.193805 0.032826
O O2 0.718107 0.048271 0.889151
O O3 0.747633 0.996023 0.080385
O O4 0.627911 0.073720 0.076256
O O5 0.389446 0.778892 0.833334
O O6 0.588618 0.858813 0.848026
O O7 0.464975 0.732488 0.000000
O O8 0.479094 0.910253 0.991208
O O9 0.131393 0.921187 0.838191
O O10 0.931512 0.863023 0.833334
O O11 0.006694 0.764383 0.964097
O O12 0.711388 0.722615 0.313139
O O13 0.757076 0.684692 0.509891
O O14 0.622683 0.559074 0.662002
O O15 0.805122 0.194879 0.666667
O O16 0.608486 0.068594 0.608100
O O17 0.057774 0.531988 0.878024
#
# Coordination Sequence:
#
# PCOD8322295 Si02
#       8
#     6   6   6   6   6   6   3   6
#     4  10  19  37  64  87 121 158 206 252 308 364
#     4  11  23  42  65  97 125 166 218 265 317 384
#     4  10  21  38  62  94 116 159 215 259 309 367
#     4  11  21  39  66  87 124 165 211 256 320 374
#     4  10  21  37  59  88 126 158 202 251 306 373
#     4  11  22  40  60  89 127 169 203 248 323 381
#     4  10  20  36  60  90 122 158 202 244 312 368
#     4  10  21  39  64  90 122 165 205 258 311 380
#
# _framework density 19.245009
#
# number of rings (size 3 to 8) (size 9 to 14) (size 15 to 20)
#    0.000    1.600    4.000    2.000    0.000    0.533 
#    2.400    2.667    0.000    0.000    0.000    0.000 
#    0.000    0.000    0.000    0.000    0.000    0.000 
#
# Total GULP energy -557549.932815 kJ/mol
# GULP energy per Si atom -12389.998507 kJ/mol
# Density = 1.920121 g / cm^3
# Si number density = 19.245009 Si / 1000 Ang^3
#
#
#
# Elastic Constant Matrix: (Units=GPa)
#
#
# Indices 1 2 3 4 5 6 
#
# 1 85.5244 31.2574 28.8412 0.0001 -1.3232 0.0000
# 2 31.2574 85.5244 28.8412 -0.0001 1.3232 0.0000
# 3 28.8412 28.8412 126.9730 0.0000 0.0000 0.0000
# 4 0.0001 -0.0001 0.0000 29.5310 0.0000 1.3232
# 5 -1.3232 1.3232 0.0000 0.0000 29.5310 0.0001
# 6 0.0000 0.0000 0.0000 1.3232 0.0001 27.1335
#
#
#
# Elastic Compliance Matrix: (Units=1/GPa)
#
#
# Indices 1 2 3 4 5 6 
#
# 1 0.014056 -0.004411 -0.002191 0.000000 0.000827 0.000000
# 2 -0.004411 0.014056 -0.002191 0.000000 -0.000827 0.000000
# 3 -0.002191 -0.002191 0.008871 0.000000 0.000000 0.000000
# 4 0.000000 0.000000 0.000000 0.033937 0.000000 -0.001655
# 5 0.000827 -0.000827 0.000000 0.000000 0.033937 0.000000
# 6 0.000000 0.000000 0.000000 -0.001655 0.000000 0.036935
#
#
# Mechanical properties :
#
#
# Convention : Reuss Voigt Hill
#
# Bulk Modulus (GPa) = 51.55211 52.87791 52.21501
# Shear Modulus (GPa) = 30.14863 31.17789 30.66326
#
# Velocity S-wave (km/s) = 3.96228 4.02935 3.99596
# Velocity P-wave (km/s) = 6.91219 7.01309 6.96282
#
# Compressibility (1/GPa) = 0.01939785
#
# Stress axis : x y z
#
# Youngs Moduli (GPa) = 71.14186 71.14186 112.72744
#
# Poissons Ratio (x) = 0.31383 0.24697
# Poissons Ratio (y) = 0.31383 0.24697
# Poissons Ratio (z) = 0.15586 0.15586
#
# Static dielectric constant tensor:
#      x y z
#    x 3.385230 0.000000 0.000000 
#    y 0.000000 3.385230 0.000000 
#    z 0.000000 0.000000 4.131170 
# 
# 
# High freq. dielectric constant tensor:
#      x y z
#    x 1.734290 0.000000 0.000000 
#    y 0.000000 1.734290 0.000000 
#    z 0.000000 0.000000 1.780680 
# 
# From -- ./inp_files/2659.got.cif
#   From: 2010.03.12/outbox.ucp.g09.slc.cvg/sg153_2_cif.got.tgz:2659.got - 2010.05.04 20:35:40.
