data_PCOD8322921
_publ_section_title
;
Structure prediction by ZEFSAII (Michael W. Deem and Ramdas Pophale) SiO2 
 PCOD8322921
Probable space group: P -3 1 M 
;
_chemical_formula_sum "Si O2"
_cell_formula_units_Z 72
_cell_length_a 25.236866
_cell_length_b 25.236866
_cell_length_c 12.801656
_cell_angle_alpha 90.000000
_cell_angle_beta 90.000000
_cell_angle_gamma 120.000000
_cell_volume 7061.023031
_symmetry_space_group_name_H-M "P -3 1 M "
_symmetry_group_IT_number 162
_symmetry_cell_setting 'hexagonal'
loop_
_space_group_symop_operation_xyz
x,y,z
-y,x-y,z
-x+y,-x,z
-y,-x,-z
-x+y,y,-z
x,x-y,-z
-x,-y,-z
y,-x+y,-z
x-y,x,-z
y,x,z
x-y,-y,z
-x,-x+y,z
loop_
_atom_site_type_symbol
_atom_site_label
_atom_site_fract_x
_atom_site_fract_y
_atom_site_fract_z
Si Si1 0.128748 0.501633 0.806546
Si Si2 0.000000 0.436802 0.880897
Si Si3 0.501633 0.128748 0.193454
Si Si4 0.332779 0.541357 0.000000
Si Si5 0.436802 0.000000 0.119103
Si Si6 0.789937 0.333333 0.381525
Si Si7 0.210063 0.543396 0.618475
O O1 0.060135 0.444495 0.821552
O O2 0.125458 0.562729 0.813630
O O3 0.172419 0.502444 0.898519
O O4 0.155688 0.496918 0.694705
O O5 0.000000 0.500000 0.880598
O O6 0.000000 0.416244 0.000000
O O7 0.444496 0.060135 0.178448
O O8 0.496918 0.155688 0.305295
O O9 0.502445 0.172418 0.101480
O O10 0.392616 0.607385 0.000000
O O11 0.275666 0.551332 0.000000
O O12 0.774786 0.387393 0.363504
O O13 0.729071 0.270929 0.353859
O O14 0.811495 0.333457 0.500000
#
# Coordination Sequence:
#
# PCOD8322921 Si02
#       7
#    12   6  12  12   6  12  12
#     4   9  16  24  34  46  57  72  95 117 138 166
#     4   9  14  24  37  45  55  73  94 115 141 169
#     4   9  16  24  34  46  57  72  95 117 138 166
#     4  10  17  23  31  45  63  77  90 112 142 174
#     4   9  14  24  37  45  55  73  94 115 141 169
#     4   9  16  25  35  46  61  80  98 114 136 170
#     4   9  16  25  35  46  61  80  98 114 136 170
#
# _framework density 10.196823
#
# number of rings (size 3 to 8) (size 9 to 14) (size 15 to 20)
#    0.000    2.833    1.667    1.500    0.000    1.333 
#    0.000    4.167    0.000    5.000    0.000    0.000 
#    0.000    0.000    0.000    0.000    0.000    0.000 
#
# Total GULP energy -892444.874948 kJ/mol
# GULP energy per Si atom -12395.067708 kJ/mol
# Density = 1.017361 g / cm^3
# Si number density = 10.196823 Si / 1000 Ang^3
#
#
#
# Elastic Constant Matrix: (Units=GPa)
#
#
# Indices 1 2 3 4 5 6 
#
# 1 40.2161 28.1073 35.3046 0.0000 0.0000 0.0000
# 2 28.1073 40.2161 35.3046 0.0000 0.0000 0.0000
# 3 35.3046 35.3046 86.3832 0.0000 0.0000 0.0000
# 4 0.0000 0.0000 0.0000 14.3519 0.0000 0.0000
# 5 0.0000 0.0000 0.0000 0.0000 14.3519 0.0000
# 6 0.0000 0.0000 0.0000 0.0000 0.0000 6.0544
#
#
#
# Elastic Compliance Matrix: (Units=1/GPa)
#
#
# Indices 1 2 3 4 5 6 
#
# 1 0.053962 -0.028623 -0.010356 0.000000 0.000000 0.000000
# 2 -0.028623 0.053962 -0.010356 0.000000 0.000000 0.000000
# 3 -0.010356 -0.010356 0.020041 0.000000 0.000000 0.000000
# 4 0.000000 0.000000 0.000000 0.069677 0.000000 0.000000
# 5 0.000000 0.000000 0.000000 0.000000 0.069677 0.000000
# 6 0.000000 0.000000 0.000000 0.000000 0.000000 0.165170
#
#
# Mechanical properties :
#
#
# Convention : Reuss Voigt Hill
#
# Bulk Modulus (GPa) = 34.13552 40.47202 37.30377
# Shear Modulus (GPa) = 9.24347 11.49158 10.36752
#
# Velocity S-wave (km/s) = 3.01409 3.36069 3.19210
# Velocity P-wave (km/s) = 6.75739 7.40513 7.08866
#
# Compressibility (1/GPa) = 0.02929500
#
# Stress axis : x y z
#
# Youngs Moduli (GPa) = 18.53166 18.53167 49.89753
#
# Poissons Ratio (x) = 0.53044 0.51673
# Poissons Ratio (y) = 0.53044 0.51673
# Poissons Ratio (z) = 0.19191 0.19191
#
# Static dielectric constant tensor:
#      x y z
#    x 2.115750 0.000000 0.000000 
#    y 0.000000 2.115750 0.000000 
#    z 0.000000 0.000000 2.432620 
# 
# 
# High freq. dielectric constant tensor:
#      x y z
#    x 1.348490 0.000000 0.000000 
#    y 0.000000 1.348490 0.000000 
#    z 0.000000 0.000000 1.398660 
# 
# From -- ./inp_files/2602.got.cif
#   From: 2010.03.12/outbox.cif.g09.slc.cpg/sg162_2_cif.got.tgz:2602.got - 2010.04.02 06:27:41.
