data_PCOD8322227
_publ_section_title
;
Structure prediction by ZEFSAII (Michael W. Deem and Ramdas Pophale) SiO2 
 PCOD8322227
Probable space group: P 31 2 1
;
_chemical_formula_sum "Si O2"
_cell_formula_units_Z 15
_cell_length_a 8.096769
_cell_length_b 8.096769
_cell_length_c 8.419372
_cell_angle_alpha 90.000000
_cell_angle_beta 90.000000
_cell_angle_gamma 120.000000
_cell_volume 478.006529
_symmetry_space_group_name_H-M "P 31 2 1"
_symmetry_group_IT_number 152
_symmetry_cell_setting 'hexagonal'
loop_
_space_group_symop_operation_xyz
x,y,z
-y,x-y,1/3+z
-x+y,-x,2/3+z
x-y,-y,2/3-z
-x,-x+y,1/3-z
y,x,-z
loop_
_atom_site_type_symbol
_atom_site_label
_atom_site_fract_x
_atom_site_fract_y
_atom_site_fract_z
Si Si1 0.000000 0.107651 0.166667
Si Si2 0.345010 0.433140 0.318750
Si Si3 0.191924 0.554736 0.565646
O O1 0.182486 0.315367 0.189026
O O2 0.986308 0.000000 0.333334
O O3 0.267383 0.409215 0.504713
O O4 0.425307 0.660186 0.294145
O O5 0.521294 0.396486 0.273787
O O6 0.000000 0.438885 0.666667
#
# Coordination Sequence:
#
# PCOD8322227 Si02
#       3
#     3   6   6
#     4  12  32  58  92 138 190 242 326 412 504 592
#     4  12  28  53  90 126 185 247 313 401 482 590
#     4  12  27  53  88 131 180 243 327 394 483 576
#
# _framework density 31.380320999999999
#
# number of rings (size 3 to 8) (size 9 to 14) (size 15 to 20)
#    0.000    0.000    4.000    3.600    5.600    4.800 
#    0.000    0.000    0.000    0.000    0.000    0.000 
#    0.000    0.000    0.000    0.000    0.000    0.000 
#
# Total GULP energy -185929.917183 kJ/mol
# GULP energy per Si atom -12395.327812 kJ/mol
# Density = 3.130890 g / cm^3
# Si number density = 31.380321 Si / 1000 Ang^3
#
#
#
# Elastic Constant Matrix: (Units=GPa)
#
#
# Indices 1 2 3 4 5 6 
#
# 1 133.3306 43.7959 52.2603 8.1062 -0.0001 0.0000
# 2 43.7959 133.3306 52.2603 -8.1062 0.0001 0.0000
# 3 52.2603 52.2603 239.3435 0.0000 0.0000 0.0000
# 4 8.1062 -8.1062 0.0000 69.9626 0.0000 0.0001
# 5 -0.0001 0.0001 0.0000 0.0000 69.9626 8.1062
# 6 0.0000 0.0000 0.0000 0.0001 8.1062 44.7674
#
#
#
# Elastic Compliance Matrix: (Units=1/GPa)
#
#
# Indices 1 2 3 4 5 6 
#
# 1 0.008944 -0.002464 -0.001415 -0.001322 0.000000 0.000000
# 2 -0.002464 0.008944 -0.001415 0.001322 0.000000 0.000000
# 3 -0.001415 -0.001415 0.004796 0.000000 0.000000 0.000000
# 4 -0.001322 0.001322 0.000000 0.014600 0.000000 0.000000
# 5 0.000000 0.000000 0.000000 0.000000 0.014600 -0.002644
# 6 0.000000 0.000000 0.000000 0.000000 -0.002644 0.022816
#
#
# Mechanical properties :
#
#
# Convention : Reuss Voigt Hill
#
# Bulk Modulus (GPa) = 82.66357 89.18196 85.92277
# Shear Modulus (GPa) = 55.97806 60.78442 58.38124
#
# Velocity S-wave (km/s) = 4.22816 4.40594 4.31796
# Velocity P-wave (km/s) = 7.08774 7.37323 7.23189
#
# Compressibility (1/GPa) = 0.01209723
#
# Stress axis : x y z
#
# Youngs Moduli (GPa) = 111.80128 111.80128 208.50528
#
# Poissons Ratio (x) = 0.27545 0.29504
# Poissons Ratio (y) = 0.27545 0.29504
# Poissons Ratio (z) = 0.15820 0.15820
#
# Static dielectric constant tensor:
#      x y z
#    x 6.175080 0.000000 0.000000 
#    y 0.000000 6.175080 0.000000 
#    z 0.000000 0.000000 8.036960 
# 
# 
# High freq. dielectric constant tensor:
#      x y z
#    x 2.314740 0.000000 0.000000 
#    y 0.000000 2.314740 0.000000 
#    z 0.000000 0.000000 2.382550 
# 
# From -- ./inp_files/674.got.cif
#   From: 2010.03.12/outbox.cif.g09.slc.cpg/sg152_1_cif.got.tgz:674.got - 2010.04.03 13:45:27.
