data_PCOD8322472
_publ_section_title
;
Structure prediction by ZEFSAII (Michael W. Deem and Ramdas Pophale) SiO2 
 PCOD8322472
Probable space group: R 3 2
;
_chemical_formula_sum "Si O2"
_cell_formula_units_Z 105
_cell_length_a 20.284946
_cell_length_b 20.284946
_cell_length_c 15.617774
_cell_angle_alpha 90.000000
_cell_angle_beta 90.000000
_cell_angle_gamma 120.000000
_cell_volume 5565.414017
_symmetry_space_group_name_H-M "R 3 2"
_symmetry_group_IT_number 155
_symmetry_cell_setting 'hexagonal'
loop_
_space_group_symop_operation_xyz
x,y,z
-y,x-y,z
-x+y,-x,z
x-y,-y,-z
-x,-x+y,-z
y,x,-z
2/3+x,1/3+y,1/3+z
2/3-y,1/3+x-y,1/3+z
2/3-x+y,1/3-x,1/3+z
2/3+x-y,1/3-y,1/3-z
2/3-x,1/3-x+y,1/3-z
2/3+y,1/3+x,1/3-z
1/3+x,2/3+y,2/3+z
1/3-y,2/3+x-y,2/3+z
1/3-x+y,2/3-x,2/3+z
1/3+x-y,2/3-y,2/3-z
1/3-x,2/3-x+y,2/3-z
1/3+y,2/3+x,2/3-z
loop_
_atom_site_type_symbol
_atom_site_label
_atom_site_fract_x
_atom_site_fract_y
_atom_site_fract_z
Si Si1 0.398992 0.558757 0.310656
Si Si2 0.333334 0.666668 0.061511
Si Si3 0.561976 0.666667 0.666667
Si Si4 0.418406 0.154788 0.502591
Si Si5 0.418157 0.916081 0.156795
Si Si6 0.910778 0.755172 0.677688
Si Si7 0.918500 0.209491 0.248560
O O1 0.369805 0.619307 0.313768
O O2 0.425442 0.562152 0.213901
O O3 0.333278 0.472796 0.328806
O O4 0.464425 0.573510 0.379032
O O5 0.333334 0.666668 0.166667
O O6 0.532530 0.695467 0.584605
O O7 0.644399 0.739481 0.683754
O O8 0.335069 0.139994 0.480159
O O9 0.450716 0.227943 0.564697
O O10 0.408783 0.081489 0.552708
O O11 0.333334 0.899302 0.166667
O O12 0.425101 0.896340 0.059013
O O13 0.887534 0.666667 0.666667
O O14 0.863085 0.196418 0.166667
#
# Coordination Sequence:
#
# PCOD8322472 Si02
#       7
#    18   6   9  18  18  18  18
#     4  12  22  38  57  82 124 164 199 243 306 369
#     4  12  24  36  54  90 132 169 194 223 288 411
#     4  10  18  34  56  86 108 144 188 242 310 332
#     4  10  20  33  55  84 117 145 189 246 295 353
#     4  11  19  32  57  86 121 151 188 234 297 369
#     4  10  23  36  53  83 117 160 201 241 297 370
#     4  10  21  34  56  84 113 144 195 252 299 349
#
# _framework density 18.866520000000001
#
# number of rings (size 3 to 8) (size 9 to 14) (size 15 to 20)
#    0.000    1.371    1.714    6.686    3.600    0.000 
#    0.000    3.429    0.000    3.086    0.000    0.000 
#    0.000    0.000    0.000    0.000    0.000    0.000 
#
# Total GULP energy -433638.661558 kJ/mol
# GULP energy per Si atom -12389.676045 kJ/mol
# Density = 1.882358 g / cm^3
# Si number density = 18.866520 Si / 1000 Ang^3
#
#
#
# Elastic Constant Matrix: (Units=GPa)
#
#
# Indices 1 2 3 4 5 6 
#
# 1 70.3142 48.4391 37.0414 8.2149 -0.0001 0.0000
# 2 48.4391 70.3140 37.0415 -8.2152 0.0000 0.0000
# 3 37.0414 37.0415 106.6391 -0.0001 -0.0001 0.0000
# 4 8.2149 -8.2152 -0.0001 19.8068 0.0001 0.0000
# 5 -0.0001 0.0000 -0.0001 0.0001 19.8067 8.2145
# 6 0.0000 0.0000 0.0000 0.0000 8.2145 10.9377
#
#
#
# Elastic Compliance Matrix: (Units=1/GPa)
#
#
# Indices 1 2 3 4 5 6 
#
# 1 0.038574 -0.027824 -0.003734 -0.027539 0.000000 0.000000
# 2 -0.027824 0.038575 -0.003734 0.027540 0.000000 0.000000
# 3 -0.003734 -0.003734 0.011972 0.000000 0.000000 0.000000
# 4 -0.027539 0.027540 0.000000 0.073332 -0.000001 0.000001
# 5 0.000000 0.000000 0.000000 -0.000001 0.073328 -0.055071
# 6 0.000000 0.000000 0.000000 0.000001 -0.055071 0.132787
#
#
# Mechanical properties :
#
#
# Convention : Reuss Voigt Hill
#
# Bulk Modulus (GPa) = 53.95026 54.70126 54.32576
# Shear Modulus (GPa) = 11.22759 18.42658 14.82709
#
# Velocity S-wave (km/s) = 2.44213 3.12858 2.80642
# Velocity P-wave (km/s) = 6.05061 6.48903 6.27365
#
# Compressibility (1/GPa) = 0.01853559
#
# Stress axis : x y z
#
# Youngs Moduli (GPa) = 25.92390 25.92370 83.53117
#
# Poissons Ratio (x) = 0.72131 0.31192
# Poissons Ratio (y) = 0.72131 0.31192
# Poissons Ratio (z) = 0.09680 0.09681
#
# Static dielectric constant tensor:
#      x y z
#    x 3.348260 0.000000 0.000000 
#    y 0.000000 3.348270 0.000010 
#    z 0.000000 0.000010 3.797280 
# 
# 
# High freq. dielectric constant tensor:
#      x y z
#    x 1.713590 0.000000 0.000000 
#    y 0.000000 1.713590 0.000000 
#    z 0.000000 0.000000 1.745620 
# 
# From -- ./inp_files/5175.got.cif
#   From: 2010.03.12/outbox.cif.g09.slc.cpg/sg155_3_cif.got.tgz:5175.got - 2010.04.03 13:54:13.
