data_PCOD8322658
_publ_section_title
;
Structure prediction by ZEFSAII (Michael W. Deem and Ramdas Pophale) SiO2 
 PCOD8322658
Probable space group: P 3 M 1
;
_chemical_formula_sum "Si O2"
_cell_formula_units_Z 48
_cell_length_a 12.813387
_cell_length_b 12.813387
_cell_length_c 20.501517
_cell_angle_alpha 90.000000
_cell_angle_beta 90.000000
_cell_angle_gamma 120.000000
_cell_volume 2915.039982
_symmetry_space_group_name_H-M "P 3 M 1"
_symmetry_group_IT_number 156
_symmetry_cell_setting 'hexagonal'
loop_
_space_group_symop_operation_xyz
x,y,z
-y,x-y,z
-x+y,-x,z
-x+y,y,z
x,x-y,z
-y,-x,z
loop_
_atom_site_type_symbol
_atom_site_label
_atom_site_fract_x
_atom_site_fract_y
_atom_site_fract_z
Si Si1 0.333579 0.427407 0.091260
Si Si2 0.331013 0.421882 0.747869
Si Si3 0.331695 0.431118 0.606440
Si Si4 0.572905 0.906568 0.239690
Si Si5 0.911316 0.334219 0.351559
Si Si6 0.910154 0.332553 0.861542
Si Si7 0.756994 0.000350 0.979738
Si Si8 0.578618 0.669240 0.465188
O O1 0.234241 0.468482 0.083828
O O2 0.460989 0.539012 0.069645
O O3 0.337033 0.388052 0.165427
O O4 0.302895 0.313653 0.046336
O O5 0.211667 0.423333 0.771140
O O6 0.440600 0.559401 0.746705
O O7 0.310314 0.360184 0.675269
O O8 0.357574 0.340527 0.796349
O O9 0.244067 0.488133 0.606059
O O10 0.468287 0.531714 0.606576
O O11 0.311080 0.359701 0.537802
O O12 0.433519 0.867038 0.250677
O O13 0.588585 0.794292 0.258374
O O14 0.658391 0.016674 0.286093
O O15 0.878477 0.439239 0.353798
O O16 0.791075 0.208926 0.351591
O O17 0.987395 0.338830 0.414719
O O18 0.907808 0.453904 0.875276
O O19 0.774760 0.225241 0.852460
O O20 0.975932 0.311082 0.921640
O O21 0.759821 0.879911 0.963311
O O22 0.892326 0.107674 0.988598
O O23 0.573024 0.786512 0.443112
O O24 0.442595 0.557406 0.465522
#
# Coordination Sequence:
#
# PCOD8322658 Si02
#       8
#     6   6   6   6   6   6   6   6
#     4   9  17  30  49  73  98 121 144 174 218 270
#     4   9  16  27  45  69  95 119 143 175 219 271
#     4   8  13  22  39  65  94 118 139 169 216 271
#     4   9  17  30  50  74  96 116 141 179 226 271
#     4  10  20  32  45  61  86 121 157 189 219 257
#     4  10  20  33  48  65  88 119 154 191 228 267
#     4  10  20  33  49  68  91 120 154 191 227 263
#     4   9  16  27  46  71  94 114 140 180 229 274
#
# _framework density 16.466325999999999
#
# number of rings (size 3 to 8) (size 9 to 14) (size 15 to 20)
#    0.000    2.750    0.000    2.125    0.000    3.500 
#    0.000    1.875    0.000    6.500    0.000    1.750 
#    0.000    0.000    0.000    0.000    0.000    0.000 
#
# Total GULP energy -594907.829451 kJ/mol
# GULP energy per Si atom -12393.913114 kJ/mol
# Density = 1.642885 g / cm^3
# Si number density = 16.466326 Si / 1000 Ang^3
#
#
#
# Elastic Constant Matrix: (Units=GPa)
#
#
# Indices 1 2 3 4 5 6 
#
# 1 93.8784 53.1359 63.3524 -0.3966 0.0000 0.0000
# 2 53.1359 93.8784 63.3524 0.3966 0.0000 0.0000
# 3 63.3524 63.3524 130.1327 0.0000 0.0000 0.0000
# 4 -0.3966 0.3966 0.0000 21.4039 0.0000 0.0000
# 5 0.0000 0.0000 0.0000 0.0000 21.4039 -0.3966
# 6 0.0000 0.0000 0.0000 0.0000 -0.3966 20.3712
#
#
#
# Elastic Compliance Matrix: (Units=1/GPa)
#
#
# Indices 1 2 3 4 5 6 
#
# 1 0.018136 -0.006417 -0.005705 0.000455 0.000000 0.000000
# 2 -0.006417 0.018136 -0.005705 -0.000455 0.000000 0.000000
# 3 -0.005705 -0.005705 0.013239 0.000000 0.000000 0.000000
# 4 0.000455 -0.000455 0.000000 0.046737 0.000000 0.000000
# 5 0.000000 0.000000 0.000000 0.000000 0.046737 0.000910
# 6 0.000000 0.000000 0.000000 0.000000 0.000910 0.049107
#
#
# Mechanical properties :
#
#
# Convention : Reuss Voigt Hill
#
# Bulk Modulus (GPa) = 72.16681 75.28565 73.72623
# Shear Modulus (GPa) = 21.51769 21.83905 21.67837
#
# Velocity S-wave (km/s) = 3.61885 3.64577 3.63233
# Velocity P-wave (km/s) = 7.83476 7.97135 7.90335
#
# Compressibility (1/GPa) = 0.01385679
#
# Stress axis : x y z
#
# Youngs Moduli (GPa) = 55.13832 55.13832 75.53214
#
# Poissons Ratio (x) = 0.35383 0.43093
# Poissons Ratio (y) = 0.35383 0.43093
# Poissons Ratio (z) = 0.31458 0.31458
#
# Static dielectric constant tensor:
#      x y z
#    x 2.879350 0.000000 0.000000 
#    y 0.000000 2.879350 0.000000 
#    z 0.000000 0.000000 3.547290 
# 
# 
# High freq. dielectric constant tensor:
#      x y z
#    x 1.613430 0.000000 0.000000 
#    y 0.000000 1.613430 0.000000 
#    z 0.000000 0.000000 1.655670 
# 
# From -- ./inp_files/1122.got.cif
#   From: 2010.03.12/outbox.cif.g09.slc.cpg/sg156_cif.got.tgz:1122.got - 2010.04.03 13:58:47.
