data_PCOD8322474
_publ_section_title
;
Structure prediction by ZEFSAII (Michael W. Deem and Ramdas Pophale) SiO2 
 PCOD8322474
Probable space group: R 3 2
;
_chemical_formula_sum "Si O2"
_cell_formula_units_Z 108
_cell_length_a 24.844317
_cell_length_b 24.844317
_cell_length_c 10.106204
_cell_angle_alpha 90.000000
_cell_angle_beta 90.000000
_cell_angle_gamma 120.000000
_cell_volume 5402.226838
_symmetry_space_group_name_H-M "R 3 2"
_symmetry_group_IT_number 155
_symmetry_cell_setting 'hexagonal'
loop_
_space_group_symop_operation_xyz
x,y,z
-y,x-y,z
-x+y,-x,z
x-y,-y,-z
-x,-x+y,-z
y,x,-z
2/3+x,1/3+y,1/3+z
2/3-y,1/3+x-y,1/3+z
2/3-x+y,1/3-x,1/3+z
2/3+x-y,1/3-y,1/3-z
2/3-x,1/3-x+y,1/3-z
2/3+y,1/3+x,1/3-z
1/3+x,2/3+y,2/3+z
1/3-y,2/3+x-y,2/3+z
1/3-x+y,2/3-x,2/3+z
1/3+x-y,2/3-y,2/3-z
1/3-x,2/3-x+y,2/3-z
1/3+y,2/3+x,2/3-z
loop_
_atom_site_type_symbol
_atom_site_label
_atom_site_fract_x
_atom_site_fract_y
_atom_site_fract_z
Si Si1 0.761437 0.520953 0.583931
Si Si2 0.814597 0.689323 0.908144
Si Si3 0.293064 0.797885 0.857404
Si Si4 0.127828 0.794495 0.833334
Si Si5 0.514581 0.112703 0.812504
Si Si6 0.637002 0.134435 0.470775
Si Si7 0.666667 0.574954 0.333334
O O1 0.782311 0.587521 0.517673
O O2 0.693616 0.467889 0.525928
O O3 0.750518 0.518595 0.741057
O O4 0.816408 0.505990 0.568038
O O5 0.787228 0.625177 0.831464
O O6 0.848200 0.687385 0.041041
O O7 0.753981 0.695772 0.944580
O O8 0.238228 0.741120 0.775880
O O9 0.304381 0.859846 0.786910
O O10 0.261890 0.790620 0.001481
O O11 0.126543 0.729376 0.865105
O O12 0.455596 0.122263 0.833334
O O13 0.666667 0.130913 0.333334
#
# Coordination Sequence:
#
# PCOD8322474 Si02
#       7
#    18  18  18   9  18  18   9
#     4  10  23  39  63  89 126 168 214 268 325 398
#     4  11  19  38  59  89 127 160 210 258 325 385
#     4  10  20  39  62  87 124 158 206 264 332 377
#     4  12  22  40  66  90 126 172 212 278 342 372
#     4  10  21  39  59  90 125 168 203 256 323 400
#     4  12  22  41  67  91 126 170 221 275 330 397
#     4  10  18  34  60  90 118 160 200 256 314 392
#
# _framework density 19.991755000000001
#
# number of rings (size 3 to 8) (size 9 to 14) (size 15 to 20)
#    0.000    1.333    5.000    1.500    0.000    0.667 
#   11.500    1.667    1.833    0.000    0.000    0.000 
#    0.000    0.000    0.000    0.000    0.000    0.000 
#
# Total GULP energy -445985.548233 kJ/mol
# GULP energy per Si atom -12388.487451 kJ/mol
# Density = 1.994625 g / cm^3
# Si number density = 19.991755 Si / 1000 Ang^3
#
#
#
# Elastic Constant Matrix: (Units=GPa)
#
#
# Indices 1 2 3 4 5 6 
#
# 1 106.0502 45.5814 12.6804 2.0050 0.0018 -0.0019
# 2 45.5814 106.0482 12.6803 -2.0052 0.0010 0.0001
# 3 12.6804 12.6803 83.9009 -0.0029 0.0121 -0.0030
# 4 2.0050 -2.0052 -0.0029 25.5091 -0.0021 0.0003
# 5 0.0018 0.0010 0.0121 -0.0021 25.5105 2.0051
# 6 -0.0019 0.0001 -0.0030 0.0003 2.0051 30.2332
#
#
#
# Elastic Compliance Matrix: (Units=1/GPa)
#
#
# Indices 1 2 3 4 5 6 
#
# 1 0.011695 -0.004929 -0.001023 -0.001307 0.000000 0.000001
# 2 -0.004929 0.011695 -0.001023 0.001307 0.000001 -0.000001
# 3 -0.001023 -0.001023 0.012228 0.000001 -0.000006 0.000002
# 4 -0.001307 0.001307 0.000001 0.039407 0.000003 -0.000001
# 5 0.000000 0.000001 -0.000006 0.000003 0.039405 -0.002613
# 6 0.000001 -0.000001 0.000002 -0.000001 -0.002613 0.033250
#
#
# Mechanical properties :
#
#
# Convention : Reuss Voigt Hill
#
# Bulk Modulus (GPa) = 46.14757 48.65371 47.40064
# Shear Modulus (GPa) = 29.61176 31.25437 30.43307
#
# Velocity S-wave (km/s) = 3.85281 3.95823 3.90587
# Velocity P-wave (km/s) = 6.55176 6.72903 6.64099
#
# Compressibility (1/GPa) = 0.02166961
#
# Stress axis : x y z
#
# Youngs Moduli (GPa) = 85.50591 85.50443 81.78005
#
# Poissons Ratio (x) = 0.42147 0.08363
# Poissons Ratio (y) = 0.42148 0.08362
# Poissons Ratio (z) = 0.08744 0.08743
#
# Static dielectric constant tensor:
#      x y z
#    x 3.733410 0.000000 0.000010 
#    y 0.000000 3.733390 0.000050 
#    z 0.000010 0.000050 3.868770 
# 
# 
# High freq. dielectric constant tensor:
#      x y z
#    x 1.765080 0.000000 0.000000 
#    y 0.000000 1.765080 0.000000 
#    z 0.000000 0.000000 1.791040 
# 
# From -- ./inp_files/4143.got.cif
#   From: 2010.03.12/outbox.cif.g09.slc.cpg/sg155_3_cif.got.tgz:4143.got - 2010.04.03 13:54:13.
