data_PCOD8322559
_publ_section_title
;
Structure prediction by ZEFSAII (Michael W. Deem and Ramdas Pophale) SiO2 
 PCOD8322559
Probable space group: R 3 2
;
_chemical_formula_sum "Si O2"
_cell_formula_units_Z 75
_cell_length_a 13.593679
_cell_length_b 13.593679
_cell_length_c 20.569623
_cell_angle_alpha 90.000000
_cell_angle_beta 90.000000
_cell_angle_gamma 120.000000
_cell_volume 3291.781380
_symmetry_space_group_name_H-M "R 3 2"
_symmetry_group_IT_number 155
_symmetry_cell_setting 'hexagonal'
loop_
_space_group_symop_operation_xyz
x,y,z
-y,x-y,z
-x+y,-x,z
x-y,-y,-z
-x,-x+y,-z
y,x,-z
2/3+x,1/3+y,1/3+z
2/3-y,1/3+x-y,1/3+z
2/3-x+y,1/3-x,1/3+z
2/3+x-y,1/3-y,1/3-z
2/3-x,1/3-x+y,1/3-z
2/3+y,1/3+x,1/3-z
1/3+x,2/3+y,2/3+z
1/3-y,2/3+x-y,2/3+z
1/3-x+y,2/3-x,2/3+z
1/3+x-y,2/3-y,2/3-z
1/3-x,2/3-x+y,2/3-z
1/3+y,2/3+x,2/3-z
loop_
_atom_site_type_symbol
_atom_site_label
_atom_site_fract_x
_atom_site_fract_y
_atom_site_fract_z
Si Si1 0.274750 0.813552 0.503018
Si Si2 0.000000 0.000000 0.249134
Si Si3 0.000000 0.658737 0.000000
Si Si4 0.842770 0.586049 0.223211
Si Si5 0.851125 0.089123 0.554153
Si Si6 0.000000 0.000000 0.402803
O O1 0.321605 0.772099 0.443103
O O2 0.382281 0.899850 0.547373
O O3 0.197090 0.709645 0.550929
O O4 0.212277 0.875416 0.469984
O O5 0.000000 0.000000 0.325921
O O6 0.071622 0.624219 0.046243
O O7 0.915004 0.686517 0.041355
O O8 0.924212 0.666667 0.166667
O O9 0.970294 0.093311 0.568461
O O10 0.776702 0.000000 0.500000
#
# Coordination Sequence:
#
# PCOD8322559 Si02
#       6
#    18   6   9  18  18   6
#     4  10  21  44  69  97 147 186 229 300 365 421
#     4   9  21  40  70 106 127 183 244 284 361 435
#     4  12  22  44  76 100 142 190 244 302 364 438
#     4  11  23  43  71 105 142 189 237 298 363 436
#     4  12  24  46  68  98 143 186 234 295 358 416
#     4  12  28  40  75 102 136 190 247 287 349 442
#
# _framework density 22.784016999999999
#
# number of rings (size 3 to 8) (size 9 to 14) (size 15 to 20)
#    0.000    0.960    4.800    2.640    3.360    2.880 
#    0.000    0.000    5.280    0.000    0.000    0.000 
#    0.000    0.000    0.000    0.000    0.000    0.000 
#
# Total GULP energy -310013.033493 kJ/mol
# GULP energy per Si atom -12400.521340 kJ/mol
# Density = 2.273216 g / cm^3
# Si number density = 22.784017 Si / 1000 Ang^3
#
#
#
# Elastic Constant Matrix: (Units=GPa)
#
#
# Indices 1 2 3 4 5 6 
#
# 1 97.0399 35.0691 24.0423 5.0697 0.0001 0.0000
# 2 35.0691 97.0399 24.0423 -5.0697 -0.0001 0.0000
# 3 24.0423 24.0423 109.4897 0.0000 0.0000 0.0000
# 4 5.0697 -5.0697 0.0000 35.8963 0.0000 -0.0001
# 5 0.0001 -0.0001 0.0000 0.0000 35.8963 5.0697
# 6 0.0000 0.0000 0.0000 -0.0001 5.0697 30.9854
#
#
#
# Elastic Compliance Matrix: (Units=1/GPa)
#
#
# Indices 1 2 3 4 5 6 
#
# 1 0.012373 -0.004146 -0.001807 -0.002333 0.000000 0.000000
# 2 -0.004146 0.012373 -0.001807 0.002333 0.000000 0.000000
# 3 -0.001807 -0.001807 0.009927 0.000000 0.000000 0.000000
# 4 -0.002333 0.002333 0.000000 0.028517 0.000000 0.000000
# 5 0.000000 0.000000 0.000000 0.000000 0.028517 -0.004666
# 6 0.000000 0.000000 0.000000 0.000000 -0.004666 0.033037
#
#
# Mechanical properties :
#
#
# Convention : Reuss Voigt Hill
#
# Bulk Modulus (GPa) = 52.20680 52.20857 52.20768
# Shear Modulus (GPa) = 34.09594 35.24996 34.67295
#
# Velocity S-wave (km/s) = 3.87264 3.93763 3.90527
# Velocity P-wave (km/s) = 6.55439 6.60587 6.58018
#
# Compressibility (1/GPa) = 0.01915459
#
# Stress axis : x y z
#
# Youngs Moduli (GPa) = 80.82316 80.82316 100.73888
#
# Poissons Ratio (x) = 0.33506 0.18199
# Poissons Ratio (y) = 0.33506 0.18199
# Poissons Ratio (z) = 0.14601 0.14601
#
# Static dielectric constant tensor:
#      x y z
#    x 4.122890 0.000000 0.000000 
#    y 0.000000 4.122890 0.000000 
#    z 0.000000 0.000000 2.753120 
# 
# 
# High freq. dielectric constant tensor:
#      x y z
#    x 1.899050 0.000000 0.000000 
#    y 0.000000 1.899050 0.000000 
#    z 0.000000 0.000000 1.892780 
# 
# From -- ./inp_files/6824.got.cif
#   From: 2010.03.12/outbox.cif.g09.slc.cpg/sg155_4_cif.got.tgz:6824.got - 2010.04.03 13:54:13.
