data_PCOD8322455
_publ_section_title
;
Structure prediction by ZEFSAII (Michael W. Deem and Ramdas Pophale) SiO2 
 PCOD8322455
Probable space group: R 3 2
;
_chemical_formula_sum "Si O2"
_cell_formula_units_Z 45
_cell_length_a 16.277725
_cell_length_b 16.277725
_cell_length_c 12.434284
_cell_angle_alpha 90.000000
_cell_angle_beta 90.000000
_cell_angle_gamma 120.000000
_cell_volume 2853.243446
_symmetry_space_group_name_H-M "R 3 2"
_symmetry_group_IT_number 155
_symmetry_cell_setting 'hexagonal'
loop_
_space_group_symop_operation_xyz
x,y,z
-y,x-y,z
-x+y,-x,z
x-y,-y,-z
-x,-x+y,-z
y,x,-z
2/3+x,1/3+y,1/3+z
2/3-y,1/3+x-y,1/3+z
2/3-x+y,1/3-x,1/3+z
2/3+x-y,1/3-y,1/3-z
2/3-x,1/3-x+y,1/3-z
2/3+y,1/3+x,1/3-z
1/3+x,2/3+y,2/3+z
1/3-y,2/3+x-y,2/3+z
1/3-x+y,2/3-x,2/3+z
1/3+x-y,2/3-y,2/3-z
1/3-x,2/3-x+y,2/3-z
1/3+y,2/3+x,2/3-z
loop_
_atom_site_type_symbol
_atom_site_label
_atom_site_fract_x
_atom_site_fract_y
_atom_site_fract_z
Si Si1 0.219763 0.572959 0.458573
Si Si2 0.683496 0.585263 0.955339
Si Si3 0.791973 0.791973 0.000000
O O1 0.315721 0.565430 0.455127
O O2 0.155651 0.520979 0.356438
O O3 0.163239 0.530569 0.568138
O O4 0.666667 0.549846 0.833334
O O5 0.777678 0.689611 0.964105
O O6 0.593947 0.593947 0.000000
#
# Coordination Sequence:
#
# PCOD8322455 Si02
#       3
#    18  18   9
#     4  10  21  32  53  90 114 136 180 237 286 308
#     4  10  18  34  60  80 105 149 195 217 260 345
#     4  10  16  36  58  82 104 152 190 222 252 356
#
# _framework density 15.771525
#
# number of rings (size 3 to 8) (size 9 to 14) (size 15 to 20)
#    2.000    0.000    4.000    2.400    0.000    1.600 
#    0.000    0.000    0.000    9.600    0.000    0.000 
#    0.000    0.000    0.000    0.000    0.000    0.000 
#
# Total GULP energy -185861.135053 kJ/mol
# GULP energy per Si atom -12390.742337 kJ/mol
# Density = 1.573563 g / cm^3
# Si number density = 15.771525 Si / 1000 Ang^3
#
#
#
# Elastic Constant Matrix: (Units=GPa)
#
#
# Indices 1 2 3 4 5 6 
#
# 1 56.6851 20.9043 24.0384 11.5989 0.0000 0.0000
# 2 20.9043 56.6851 24.0384 -11.5989 0.0000 0.0000
# 3 24.0384 24.0384 132.9449 0.0000 0.0000 0.0000
# 4 11.5989 -11.5989 0.0000 17.4452 0.0000 0.0000
# 5 0.0000 0.0000 0.0000 0.0000 17.4452 11.5989
# 6 0.0000 0.0000 0.0000 0.0000 11.5989 17.8904
#
#
#
# Elastic Compliance Matrix: (Units=1/GPa)
#
#
# Indices 1 2 3 4 5 6 
#
# 1 0.031819 -0.017304 -0.002624 -0.032661 0.000000 0.000000
# 2 -0.017304 0.031819 -0.002624 0.032661 0.000000 0.000000
# 3 -0.002624 -0.002624 0.008471 0.000000 0.000000 0.000000
# 4 -0.032661 0.032661 0.000000 0.100753 0.000000 0.000000
# 5 0.000000 0.000000 0.000000 0.000000 0.100753 -0.065321
# 6 0.000000 0.000000 0.000000 0.000000 -0.065321 0.098246
#
#
# Mechanical properties :
#
#
# Convention : Reuss Voigt Hill
#
# Bulk Modulus (GPa) = 37.03391 42.69751 39.86571
# Shear Modulus (GPa) = 11.73799 22.37840 17.05819
#
# Velocity S-wave (km/s) = 2.73106 3.77093 3.29231
# Velocity P-wave (km/s) = 5.78596 6.78905 6.30748
#
# Compressibility (1/GPa) = 0.02700228
#
# Stress axis : x y z
#
# Youngs Moduli (GPa) = 31.42806 31.42806 118.04987
#
# Poissons Ratio (x) = 0.54384 0.30982
# Poissons Ratio (y) = 0.54384 0.30982
# Poissons Ratio (z) = 0.08248 0.08248
#
# Static dielectric constant tensor:
#      x y z
#    x 2.809310 0.000000 0.000000 
#    y 0.000000 2.809310 0.000000 
#    z 0.000000 0.000000 3.302190 
# 
# 
# High freq. dielectric constant tensor:
#      x y z
#    x 1.583840 0.000000 0.000000 
#    y 0.000000 1.583840 0.000000 
#    z 0.000000 0.000000 1.624340 
# 
# From -- ./inp_files/3341.got.cif
#   From: 2010.03.12/outbox.cif.g09.slc.cpg/sg155_2_cif.got.tgz:3341.got - 2010.04.03 13:54:13.
