data_PCOD8322013
_publ_section_title
;
Structure prediction by ZEFSAII (Michael W. Deem and Ramdas Pophale) SiO2 
 PCOD8322013
Probable space group: P 31 2 1
;
_chemical_formula_sum "Si O2"
_cell_formula_units_Z 33
_cell_length_a 11.217119
_cell_length_b 11.217119
_cell_length_c 17.092766
_cell_angle_alpha 90.000000
_cell_angle_beta 90.000000
_cell_angle_gamma 120.000000
_cell_volume 1862.540107
_symmetry_space_group_name_H-M "P 31 2 1"
_symmetry_group_IT_number 152
_symmetry_cell_setting 'hexagonal'
loop_
_space_group_symop_operation_xyz
x,y,z
-y,x-y,1/3+z
-x+y,-x,2/3+z
x-y,-y,2/3-z
-x,-x+y,1/3-z
y,x,-z
loop_
_atom_site_type_symbol
_atom_site_label
_atom_site_fract_x
_atom_site_fract_y
_atom_site_fract_z
Si Si1 0.880055 0.743930 0.115521
Si Si2 0.997772 0.997772 0.000000
Si Si3 0.110027 0.247926 0.107323
Si Si4 0.836515 0.280368 0.655516
Si Si5 0.164141 0.709921 0.660720
Si Si6 0.152245 0.317784 0.839180
O O1 0.762703 0.748050 0.169447
O O2 0.000000 0.744615 0.166667
O O3 0.948948 0.882318 0.065026
O O4 0.824940 0.608306 0.061745
O O5 0.140221 0.027754 0.961606
O O6 0.211244 0.208216 0.153583
O O7 0.000000 0.248013 0.166667
O O8 0.187230 0.399123 0.068151
O O9 0.775045 0.382615 0.662731
O O10 0.790622 0.197648 0.573817
O O11 0.000000 0.362276 0.666667
O O12 0.215780 0.792874 0.579093
O O13 0.000000 0.626953 0.666667
#
# Coordination Sequence:
#
# PCOD8322013 Si02
#       6
#     6   3   6   6   6   6
#     4  11  16  24  43  72 105 130 157 211 270 318
#     4  12  14  24  38  70 112 126 148 190 282 324
#     4  11  16  24  43  72 105 130 157 211 270 318
#     4   9  18  29  42  69  96 132 174 202 246 321
#     4   9  18  29  42  69  96 132 174 202 246 321
#     4  10  15  26  44  66  97 132 164 206 254 318
#
# _framework density 17.717739999999999
#
# number of rings (size 3 to 8) (size 9 to 14) (size 15 to 20)
#    0.000    1.818    9.091    0.000    0.000    0.000 
#    0.000    0.000    0.000    0.000   42.545    0.000 
#    0.000    0.000    0.000    0.000    0.000    0.000 
#
# Total GULP energy -408974.424694 kJ/mol
# GULP energy per Si atom -12393.164385 kJ/mol
# Density = 1.767741 g / cm^3
# Si number density = 17.717740 Si / 1000 Ang^3
#
#
#
# Elastic Constant Matrix: (Units=GPa)
#
#
# Indices 1 2 3 4 5 6 
#
# 1 67.0954 26.4677 48.5466 0.1932 0.0000 0.0000
# 2 26.4677 67.0954 48.5466 -0.1932 0.0000 0.0000
# 3 48.5466 48.5466 124.8772 0.0000 0.0000 0.0000
# 4 0.1932 -0.1932 0.0000 13.1419 0.0000 0.0000
# 5 0.0000 0.0000 0.0000 0.0000 13.1419 0.1932
# 6 0.0000 0.0000 0.0000 0.0000 0.1932 20.3138
#
#
#
# Elastic Compliance Matrix: (Units=1/GPa)
#
#
# Indices 1 2 3 4 5 6 
#
# 1 0.021266 -0.003351 -0.006965 -0.000362 0.000000 0.000000
# 2 -0.003351 0.021266 -0.006965 0.000362 0.000000 0.000000
# 3 -0.006965 -0.006965 0.013423 0.000000 0.000000 0.000000
# 4 -0.000362 0.000362 0.000000 0.076103 0.000000 0.000000
# 5 0.000000 0.000000 0.000000 0.000000 0.076103 -0.000724
# 6 0.000000 0.000000 0.000000 0.000000 -0.000724 0.049234
#
#
# Mechanical properties :
#
#
# Convention : Reuss Voigt Hill
#
# Bulk Modulus (GPa) = 46.73979 56.24333 51.49156
# Shear Modulus (GPa) = 16.71746 18.35334 17.53540
#
# Velocity S-wave (km/s) = 3.07505 3.22199 3.14938
# Velocity P-wave (km/s) = 6.24863 6.75682 6.50769
#
# Compressibility (1/GPa) = 0.02139505
#
# Stress axis : x y z
#
# Youngs Moduli (GPa) = 47.02267 47.02267 74.49900
#
# Poissons Ratio (x) = 0.15757 0.51886
# Poissons Ratio (y) = 0.15757 0.51886
# Poissons Ratio (z) = 0.32750 0.32750
#
# Static dielectric constant tensor:
#      x y z
#    x 3.210260 0.000000 0.000000 
#    y 0.000000 3.210260 0.000000 
#    z 0.000000 0.000000 3.757080 
# 
# 
# High freq. dielectric constant tensor:
#      x y z
#    x 1.643680 0.000000 0.000000 
#    y 0.000000 1.643680 0.000000 
#    z 0.000000 0.000000 1.702510 
# 
# From -- ./inp_files/2358.got.cif
#   From: 2010.03.12/outbox.cif.g09.slc.cpg/sg152_2_cif.got.tgz:2358.got - 2010.04.03 13:45:27.
