data_PCOD8322061
_publ_section_title
;
Structure prediction by ZEFSAII (Michael W. Deem and Ramdas Pophale) SiO2 
 PCOD8322061
Probable space group: P 31 2 1
;
_chemical_formula_sum "Si O2"
_cell_formula_units_Z 18
_cell_length_a 7.426959
_cell_length_b 7.426959
_cell_length_c 12.301826
_cell_angle_alpha 90.000000
_cell_angle_beta 90.000000
_cell_angle_gamma 120.000000
_cell_volume 587.654768
_symmetry_space_group_name_H-M "P 31 2 1"
_symmetry_group_IT_number 152
_symmetry_cell_setting 'hexagonal'
loop_
_space_group_symop_operation_xyz
x,y,z
-y,x-y,1/3+z
-x+y,-x,2/3+z
x-y,-y,2/3-z
-x,-x+y,1/3-z
y,x,-z
loop_
_atom_site_type_symbol
_atom_site_label
_atom_site_fract_x
_atom_site_fract_y
_atom_site_fract_z
Si Si1 0.337734 0.554138 0.053307
Si Si2 0.016084 0.688773 0.412078
Si Si3 0.777763 0.796366 0.262261
O O1 0.430283 0.804265 0.064780
O O2 0.284403 0.453771 0.172779
O O3 0.515281 0.515281 0.000000
O O4 0.129396 0.465654 0.974918
O O5 0.144366 0.926479 0.468481
O O6 0.922228 0.700656 0.295055
O O7 0.838213 0.000000 0.333334
#
# Coordination Sequence:
#
# PCOD8322061 Si02
#       3
#     6   6   6
#     4   9  19  35  58  85 124 160 202 263 315 371
#     4  10  19  37  60  89 125 164 208 260 321 384
#     4   9  18  34  60  84 120 167 201 253 322 381
#
# _framework density 30.630227000000001
#
# number of rings (size 3 to 8) (size 9 to 14) (size 15 to 20)
#    0.000    3.333    0.000    5.000    0.000    0.000 
#   12.000    0.000    0.000    8.000    0.000    0.000 
#    0.000    0.000    0.000    0.000    0.000    0.000 
#
# Total GULP energy -223069.238623 kJ/mol
# GULP energy per Si atom -12392.735479 kJ/mol
# Density = 3.056051 g / cm^3
# Si number density = 30.630227 Si / 1000 Ang^3
#
#
#
# Elastic Constant Matrix: (Units=GPa)
#
#
# Indices 1 2 3 4 5 6 
#
# 1 99.7712 43.0867 34.2974 -6.7074 0.0000 0.0000
# 2 43.0867 99.7712 34.2974 6.7074 0.0000 0.0000
# 3 34.2974 34.2974 110.4942 0.0000 0.0000 0.0000
# 4 -6.7074 6.7074 0.0000 54.5196 0.0000 0.0000
# 5 0.0000 0.0000 0.0000 0.0000 54.5196 -6.7074
# 6 0.0000 0.0000 0.0000 0.0000 -6.7074 28.3423
#
#
#
# Elastic Compliance Matrix: (Units=1/GPa)
#
#
# Indices 1 2 3 4 5 6 
#
# 1 0.013198 -0.004972 -0.002553 0.002235 0.000000 0.000000
# 2 -0.004972 0.013198 -0.002553 -0.002235 0.000000 0.000000
# 3 -0.002553 -0.002553 0.010635 0.000000 0.000000 0.000000
# 4 0.002235 -0.002235 0.000000 0.018892 0.000000 0.000000
# 5 0.000000 0.000000 0.000000 0.000000 0.018892 0.004471
# 6 0.000000 0.000000 0.000000 0.000000 0.004471 0.036341
#
#
# Mechanical properties :
#
#
# Convention : Reuss Voigt Hill
#
# Bulk Modulus (GPa) = 59.26296 59.26662 59.26479
# Shear Modulus (GPa) = 36.51243 40.69997 38.60620
#
# Velocity S-wave (km/s) = 3.45634 3.64916 3.55406
# Velocity P-wave (km/s) = 5.94291 6.09477 6.01932
#
# Compressibility (1/GPa) = 0.01687395
#
# Stress axis : x y z
#
# Youngs Moduli (GPa) = 75.76758 75.76758 94.02593
#
# Poissons Ratio (x) = 0.37674 0.24008
# Poissons Ratio (y) = 0.37674 0.24008
# Poissons Ratio (z) = 0.19346 0.19346
#
# Static dielectric constant tensor:
#      x y z
#    x 5.943620 0.000000 0.000000 
#    y 0.000000 5.943620 0.000000 
#    z 0.000000 0.000000 5.496500 
# 
# 
# High freq. dielectric constant tensor:
#      x y z
#    x 2.273420 0.000000 0.000000 
#    y 0.000000 2.273420 0.000000 
#    z 0.000000 0.000000 2.239030 
# 
# From -- ./inp_files/1495.got.cif
#   From: 2010.03.12/outbox.cif.g09.slc.cpg/sg152_1_cif.got.tgz:1495.got - 2010.04.03 13:45:27.
