data_PCOD8322518
_publ_section_title
;
Structure prediction by ZEFSAII (Michael W. Deem and Ramdas Pophale) SiO2 
 PCOD8322518
Probable space group: R 3 2
;
_chemical_formula_sum "Si O2"
_cell_formula_units_Z 144
_cell_length_a 20.930645
_cell_length_b 20.930645
_cell_length_c 19.876134
_cell_angle_alpha 90.000000
_cell_angle_beta 90.000000
_cell_angle_gamma 120.000000
_cell_volume 7540.979693
_symmetry_space_group_name_H-M "R 3 2"
_symmetry_group_IT_number 155
_symmetry_cell_setting 'hexagonal'
loop_
_space_group_symop_operation_xyz
x,y,z
-y,x-y,z
-x+y,-x,z
x-y,-y,-z
-x,-x+y,-z
y,x,-z
2/3+x,1/3+y,1/3+z
2/3-y,1/3+x-y,1/3+z
2/3-x+y,1/3-x,1/3+z
2/3+x-y,1/3-y,1/3-z
2/3-x,1/3-x+y,1/3-z
2/3+y,1/3+x,1/3-z
1/3+x,2/3+y,2/3+z
1/3-y,2/3+x-y,2/3+z
1/3-x+y,2/3-x,2/3+z
1/3+x-y,2/3-y,2/3-z
1/3-x,2/3-x+y,2/3-z
1/3+y,2/3+x,2/3-z
loop_
_atom_site_type_symbol
_atom_site_label
_atom_site_fract_x
_atom_site_fract_y
_atom_site_fract_z
Si Si1 0.415829 0.945826 0.309912
Si Si2 0.047585 0.796512 0.689147
Si Si3 0.747471 0.951783 0.439702
Si Si4 0.615504 0.086964 0.143128
Si Si5 0.947621 0.415751 0.938261
Si Si6 0.802462 0.751496 0.059069
Si Si7 0.950002 0.752577 0.062085
Si Si8 0.872702 0.252775 0.483124
O O1 0.455250 0.901215 0.335712
O O2 0.332286 0.886135 0.293642
O O3 0.417323 0.000235 0.368228
O O4 0.458913 0.994963 0.244872
O O5 0.082050 0.749024 0.717770
O O6 0.001727 0.756287 0.623624
O O7 0.993856 0.801454 0.744706
O O8 0.664814 0.919275 0.464769
O O9 0.762880 0.885915 0.420253
O O10 0.802585 0.000000 0.500000
O O11 0.669256 0.113202 0.205182
O O12 0.544981 0.096713 0.157862
O O13 0.996377 0.410327 0.877846
O O14 0.000000 0.462029 0.000000
O O15 0.884944 0.770668 0.073639
O O16 0.766957 0.763513 0.126574
O O17 0.805873 0.805873 0.000000
O O18 0.000000 0.799901 0.000000
#
# Coordination Sequence:
#
# PCOD8322518 Si02
#       8
#    18  18  18  18  18  18  18  18
#     4  10  21  36  56  82 112 147 183 226 277 326
#     4  11  21  35  54  81 115 144 177 225 275 331
#     4  11  21  35  56  82 112 144 181 227 276 330
#     4  11  21  33  54  83 112 144 179 221 280 332
#     4  11  22  35  55  83 111 146 185 223 274 329
#     4   9  19  36  55  79 112 146 182 226 274 324
#     4  11  20  32  55  82 112 146 180 223 275 330
#     4  10  20  36  56  78 111 147 182 229 275 324
#
# _framework density 19.095662000000001
#
# number of rings (size 3 to 8) (size 9 to 14) (size 15 to 20)
#    0.000    1.500    0.000    9.750    0.000    1.000 
#    0.000    5.000    0.000    5.000    0.000    7.000 
#    0.000    0.000    0.000    0.000    0.000    0.000 
#
# Total GULP energy -595327.191636 kJ/mol
# GULP energy per Si atom -12402.649826 kJ/mol
# Density = 1.905220 g / cm^3
# Si number density = 19.095662 Si / 1000 Ang^3
#
#
#
# Elastic Constant Matrix: (Units=GPa)
#
#
# Indices 1 2 3 4 5 6 
#
# 1 99.3757 51.4024 37.6970 6.4500 0.0000 0.0000
# 2 51.4024 99.3757 37.6970 -6.4500 0.0000 0.0000
# 3 37.6970 37.6970 107.2075 0.0000 0.0000 0.0000
# 4 6.4500 -6.4500 0.0000 32.5314 0.0000 0.0000
# 5 0.0000 0.0000 0.0000 0.0000 32.5314 6.4500
# 6 0.0000 0.0000 0.0000 0.0000 6.4500 23.9866
#
#
#
# Elastic Compliance Matrix: (Units=1/GPa)
#
#
# Indices 1 2 3 4 5 6 
#
# 1 0.015033 -0.006986 -0.002830 -0.004366 0.000000 0.000000
# 2 -0.006986 0.015033 -0.002830 0.004366 0.000000 0.000000
# 3 -0.002830 -0.002830 0.011318 0.000000 0.000000 0.000000
# 4 -0.004366 0.004366 0.000000 0.032471 0.000000 0.000000
# 5 0.000000 0.000000 0.000000 0.000000 0.032471 -0.008731
# 6 0.000000 0.000000 0.000000 0.000000 -0.008731 0.044038
#
#
# Mechanical properties :
#
#
# Convention : Reuss Voigt Hill
#
# Bulk Modulus (GPa) = 62.13665 62.17241 62.15453
# Shear Modulus (GPa) = 27.62162 29.75403 28.68783
#
# Velocity S-wave (km/s) = 3.80740 3.95163 3.88018
# Velocity P-wave (km/s) = 7.20685 7.31092 7.25907
#
# Compressibility (1/GPa) = 0.01609356
#
# Stress axis : x y z
#
# Youngs Moduli (GPa) = 66.52023 66.52023 88.35777
#
# Poissons Ratio (x) = 0.46470 0.25002
# Poissons Ratio (y) = 0.46470 0.25002
# Poissons Ratio (z) = 0.18822 0.18822
#
# Static dielectric constant tensor:
#      x y z
#    x 3.442480 0.000000 0.000000 
#    y 0.000000 3.442480 0.000000 
#    z 0.000000 0.000000 3.799390 
# 
# 
# High freq. dielectric constant tensor:
#      x y z
#    x 1.724320 0.000000 0.000000 
#    y 0.000000 1.724320 0.000000 
#    z 0.000000 0.000000 1.765090 
# 
# From -- ./inp_files/7067.got.cif
#   From: 2010.03.12/outbox.cif.g09.slc.cpg/sg155_4_cif.got.tgz:7067.got - 2010.04.03 13:54:13.
