data_PCOD8322115
_publ_section_title
;
Structure prediction by ZEFSAII (Michael W. Deem and Ramdas Pophale) SiO2 
 PCOD8322115
Probable space group: P 31 2 1
;
_chemical_formula_sum "Si O2"
_cell_formula_units_Z 42
_cell_length_a 9.243746
_cell_length_b 9.243746
_cell_length_c 26.983015
_cell_angle_alpha 90.000000
_cell_angle_beta 90.000000
_cell_angle_gamma 120.000000
_cell_volume 1996.719748
_symmetry_space_group_name_H-M "P 31 2 1"
_symmetry_group_IT_number 152
_symmetry_cell_setting 'hexagonal'
loop_
_space_group_symop_operation_xyz
x,y,z
-y,x-y,1/3+z
-x+y,-x,2/3+z
x-y,-y,2/3-z
-x,-x+y,1/3-z
y,x,-z
loop_
_atom_site_type_symbol
_atom_site_label
_atom_site_fract_x
_atom_site_fract_y
_atom_site_fract_z
Si Si1 0.355869 0.538205 0.268279
Si Si2 0.743734 0.794943 0.875342
Si Si3 0.181414 0.259246 0.187002
Si Si4 0.618559 0.443309 0.304491
Si Si5 0.850027 0.730379 0.236689
Si Si6 0.247170 0.352757 0.908725
Si Si7 0.511152 0.582926 0.050092
O O1 0.247361 0.410441 0.225443
O O2 0.464993 0.478233 0.300129
O O3 0.226214 0.551987 0.305389
O O4 0.476081 0.715156 0.242114
O O5 0.683027 0.772615 0.818669
O O6 0.614180 0.628705 0.902943
O O7 0.934190 0.837264 0.881079
O O8 0.748716 0.953679 0.901635
O O9 0.318874 0.306102 0.144074
O O10 0.000000 0.218480 0.166667
O O11 0.774665 0.572451 0.272044
O O12 0.568886 0.267808 0.279785
O O13 0.801941 0.867237 0.257078
O O14 0.386639 0.369990 0.948101
O O15 0.618535 0.618535 0.000000
#
# Coordination Sequence:
#
# PCOD8322115 Si02
#       7
#     6   6   6   6   6   6   6
#     4  11  25  45  67  99 138 175 224 280 340 406
#     4  10  20  41  69  94 128 167 225 267 335 400
#     4  11  22  43  69  99 128 174 228 282 329 410
#     4  11  25  43  65  96 134 178 216 274 338 397
#     4   9  21  42  68  94 127 170 217 276 319 402
#     4  10  23  42  66  94 132 169 226 273 340 394
#     4  12  25  41  64  96 135 176 218 274 332 408
#
# _framework density 21.034497000000002
#
# number of rings (size 3 to 8) (size 9 to 14) (size 15 to 20)
#    0.000    1.429    5.714    0.000    8.000    1.143 
#    0.000    0.714    0.000    0.000    0.000    0.000 
#    0.000    0.000    0.000    0.000    0.000    0.000 
#
# Total GULP energy -520728.765826 kJ/mol
# GULP energy per Si atom -12398.303948 kJ/mol
# Density = 2.098662 g / cm^3
# Si number density = 21.034497 Si / 1000 Ang^3
#
#
#
# Elastic Constant Matrix: (Units=GPa)
#
#
# Indices 1 2 3 4 5 6 
#
# 1 83.2030 38.0544 48.9675 3.5807 0.0000 0.0000
# 2 38.0544 83.2030 48.9675 -3.5807 0.0000 0.0000
# 3 48.9675 48.9675 103.3669 0.0000 0.0000 0.0000
# 4 3.5807 -3.5807 0.0000 39.6112 0.0000 0.0000
# 5 0.0000 0.0000 0.0000 0.0000 39.6112 3.5807
# 6 0.0000 0.0000 0.0000 0.0000 3.5807 22.5743
#
#
#
# Elastic Compliance Matrix: (Units=1/GPa)
#
#
# Indices 1 2 3 4 5 6 
#
# 1 0.017914 -0.004557 -0.006328 -0.002031 0.000000 0.000000
# 2 -0.004557 0.017914 -0.006328 0.002031 0.000000 0.000000
# 3 -0.006328 -0.006328 0.015670 0.000000 0.000000 0.000000
# 4 -0.002031 0.002031 0.000000 0.025613 0.000000 0.000000
# 5 0.000000 0.000000 0.000000 0.000000 0.025613 -0.004063
# 6 0.000000 0.000000 0.000000 0.000000 -0.004063 0.044943
#
#
# Mechanical properties :
#
#
# Convention : Reuss Voigt Hill
#
# Bulk Modulus (GPa) = 58.57025 60.19465 59.38245
# Shear Modulus (GPa) = 26.62650 29.27823 27.95237
#
# Velocity S-wave (km/s) = 3.56174 3.73488 3.64934
# Velocity P-wave (km/s) = 6.69477 6.87593 6.78595
#
# Compressibility (1/GPa) = 0.01707351
#
# Stress axis : x y z
#
# Youngs Moduli (GPa) = 55.82071 55.82071 63.81764
#
# Poissons Ratio (x) = 0.25436 0.40383
# Poissons Ratio (y) = 0.25436 0.40383
# Poissons Ratio (z) = 0.35323 0.35323
#
# Static dielectric constant tensor:
#      x y z
#    x 3.819850 0.000000 0.000000 
#    y 0.000000 3.819850 0.000000 
#    z 0.000000 0.000000 3.690030 
# 
# 
# High freq. dielectric constant tensor:
#      x y z
#    x 1.824210 0.000000 0.000000 
#    y 0.000000 1.824210 0.000000 
#    z 0.000000 0.000000 1.818710 
# 
# From -- ./inp_files/3720.got.cif
#   From: 2010.03.12/outbox.cif.g09.slc.cpg/sg152_2_cif.got.tgz:3720.got - 2010.04.03 13:45:27.
