data_PCOD8322358
_publ_section_title
;
Structure prediction by ZEFSAII (Michael W. Deem and Ramdas Pophale) SiO2 
 PCOD8322358
Probable space group: P 32 2 1
;
_chemical_formula_sum "Si O2"
_cell_formula_units_Z 42
_cell_length_a 9.158552
_cell_length_b 9.158552
_cell_length_c 27.204281
_cell_angle_alpha 90.000000
_cell_angle_beta 90.000000
_cell_angle_gamma 120.000000
_cell_volume 1976.157318
_symmetry_space_group_name_H-M "P 32 2 1"
_symmetry_group_IT_number 154
_symmetry_cell_setting 'hexagonal'
loop_
_space_group_symop_operation_xyz
x,y,z
-y,x-y,2/3+z
-x+y,-x,1/3+z
x-y,-y,1/3-z
-x,-x+y,2/3-z
y,x,-z
loop_
_atom_site_type_symbol
_atom_site_label
_atom_site_fract_x
_atom_site_fract_y
_atom_site_fract_z
Si Si1 0.972317 0.470217 0.639169
Si Si2 0.407691 0.625620 0.391050
Si Si3 0.268616 0.171907 0.954129
Si Si4 0.814577 0.358095 0.833179
Si Si5 0.543272 0.575369 0.053915
Si Si6 0.036841 0.821815 0.186096
Si Si7 0.714833 0.198142 0.447508
O O1 0.044926 0.521639 0.694271
O O2 0.087911 0.603374 0.598045
O O3 0.784076 0.441328 0.642652
O O4 0.956703 0.293247 0.626798
O O5 0.490910 0.702324 0.443394
O O6 0.214385 0.492935 0.404323
O O7 0.404231 0.368170 0.949784
O O8 0.172292 0.123549 0.903217
O O9 0.145716 0.145716 0.000000
O O10 0.663621 0.379591 0.809828
O O11 0.000000 0.530042 0.833334
O O12 0.820747 0.209720 0.803345
O O13 0.660632 0.555014 0.093476
O O14 0.627586 0.627586 0.000000
O O15 0.914091 0.662304 0.152595
O O16 0.073073 0.000000 0.166667
#
# Coordination Sequence:
#
# PCOD8322358 Si02
#       7
#     6   6   6   6   6   6   6
#     4  11  25  41  72  99 138 175 232 279 343 408
#     4  11  24  43  65 104 133 179 228 282 344 416
#     4  10  23  41  68  96 133 181 223 274 337 412
#     4  11  26  41  72  99 137 179 235 287 343 423
#     4  10  20  39  67  96 132 178 223 271 343 410
#     4  11  25  45  69 101 136 182 231 279 350 418
#     4  12  23  45  69 102 140 182 225 293 351 403
#
# _framework density 21.253368999999999
#
# number of rings (size 3 to 8) (size 9 to 14) (size 15 to 20)
#    0.000    1.143    4.286    1.714    6.000    0.000 
#    2.571    2.143    0.000    0.000    0.000    0.000 
#    0.000    0.000    0.000    0.000    0.000    0.000 
#
# Total GULP energy -520616.789886 kJ/mol
# GULP energy per Si atom -12395.637854 kJ/mol
# Density = 2.120500 g / cm^3
# Si number density = 21.253369 Si / 1000 Ang^3
#
#
#
# Elastic Constant Matrix: (Units=GPa)
#
#
# Indices 1 2 3 4 5 6 
#
# 1 90.1607 33.0305 16.4071 2.1988 0.0000 0.0000
# 2 33.0305 90.1607 16.4071 -2.1988 0.0000 0.0000
# 3 16.4071 16.4071 90.0959 0.0000 0.0000 0.0000
# 4 2.1988 -2.1988 0.0000 26.5962 0.0000 0.0000
# 5 0.0000 0.0000 0.0000 0.0000 26.5962 2.1988
# 6 0.0000 0.0000 0.0000 0.0000 2.1988 28.5651
#
#
#
# Elastic Compliance Matrix: (Units=1/GPa)
#
#
# Indices 1 2 3 4 5 6 
#
# 1 0.013074 -0.004542 -0.001554 -0.001456 0.000000 0.000000
# 2 -0.004542 0.013074 -0.001554 0.001456 0.000000 0.000000
# 3 -0.001554 -0.001554 0.011665 0.000000 0.000000 0.000000
# 4 -0.001456 0.001456 0.000000 0.037840 0.000000 0.000000
# 5 0.000000 0.000000 0.000000 0.000000 0.037840 -0.002913
# 6 0.000000 0.000000 0.000000 0.000000 -0.002913 0.035232
#
#
# Mechanical properties :
#
#
# Convention : Reuss Voigt Hill
#
# Bulk Modulus (GPa) = 44.41820 44.67851 44.54835
# Shear Modulus (GPa) = 29.14973 29.98968 29.56970
#
# Velocity S-wave (km/s) = 3.70744 3.76048 3.73405
# Velocity P-wave (km/s) = 6.26670 6.31842 6.29261
#
# Compressibility (1/GPa) = 0.02251329
#
# Stress axis : x y z
#
# Youngs Moduli (GPa) = 76.48986 76.48986 85.72555
#
# Poissons Ratio (x) = 0.34744 0.13318
# Poissons Ratio (y) = 0.34744 0.13318
# Poissons Ratio (z) = 0.11884 0.11884
#
# Static dielectric constant tensor:
#      x y z
#    x 3.793750 0.000000 0.000000 
#    y 0.000000 3.793750 0.000000 
#    z 0.000000 0.000000 4.081040 
# 
# 
# High freq. dielectric constant tensor:
#      x y z
#    x 1.825200 0.000000 0.000000 
#    y 0.000000 1.825200 0.000000 
#    z 0.000000 0.000000 1.848360 
# 
# From -- ./inp_files/3777.got.cif
#   From: 2010.03.12/outbox.cif.g09.slc.cpg/sg154_2_cif.got.tgz:3777.got - 2010.04.03 13:51:21.
