data_PCOD8322380
_publ_section_title
;
Structure prediction by ZEFSAII (Michael W. Deem and Ramdas Pophale) SiO2 
 PCOD8322380
Probable space group: P 32 2 1
;
_chemical_formula_sum "Si O2"
_cell_formula_units_Z 42
_cell_length_a 11.728740
_cell_length_b 11.728740
_cell_length_c 17.541028
_cell_angle_alpha 90.000000
_cell_angle_beta 90.000000
_cell_angle_gamma 120.000000
_cell_volume 2089.721407
_symmetry_space_group_name_H-M "P 32 2 1"
_symmetry_group_IT_number 154
_symmetry_cell_setting 'hexagonal'
loop_
_space_group_symop_operation_xyz
x,y,z
-y,x-y,2/3+z
-x+y,-x,1/3+z
x-y,-y,1/3-z
-x,-x+y,2/3-z
y,x,-z
loop_
_atom_site_type_symbol
_atom_site_label
_atom_site_fract_x
_atom_site_fract_y
_atom_site_fract_z
Si Si1 0.158480 0.665793 0.050699
Si Si2 0.458759 0.801250 0.703056
Si Si3 0.686395 0.061416 0.485792
Si Si4 0.386450 0.047215 0.248260
Si Si5 0.606521 0.988968 0.076862
Si Si6 0.285322 0.181698 0.057464
Si Si7 0.773209 0.621817 0.013319
O O1 0.242605 0.594576 0.048057
O O2 0.229500 0.803523 0.093587
O O3 0.024504 0.582792 0.099634
O O4 0.128188 0.699283 0.965255
O O5 0.509943 0.867502 0.785313
O O6 0.572265 0.860645 0.640499
O O7 0.350547 0.829309 0.667691
O O8 0.804020 0.169173 0.432313
O O9 0.734916 0.968204 0.527378
O O10 0.504473 0.040350 0.291902
O O11 0.401779 0.000000 0.166667
O O12 0.236424 0.959672 0.276926
O O13 0.624406 0.000000 0.166667
O O14 0.643133 0.881136 0.049845
O O15 0.172974 0.172974 0.000000
O O16 0.732731 0.732731 0.000000
#
# Coordination Sequence:
#
# PCOD8322380 Si02
#       7
#     6   6   6   6   6   6   6
#     4  11  22  40  64  99 127 169 222 267 341 404
#     4  11  23  38  66 102 132 167 219 284 340 411
#     4  10  24  40  64  92 141 175 219 276 343 409
#     4  11  20  38  67  89 126 170 212 276 324 397
#     4  10  23  43  61  95 129 168 221 273 331 400
#     4  10  21  41  62  94 127 168 227 270 325 401
#     4  11  24  43  65  96 138 178 218 282 348 412
#
# _framework density 20.098372999999999
#
# number of rings (size 3 to 8) (size 9 to 14) (size 15 to 20)
#    0.000    1.429    4.286    1.286    4.000    1.143 
#    5.143    2.857    0.000    0.000    0.000    0.000 
#    0.000    0.000    0.000    0.000    0.000    0.000 
#
# Total GULP energy -520443.688256 kJ/mol
# GULP energy per Si atom -12391.516387 kJ/mol
# Density = 2.005263 g / cm^3
# Si number density = 20.098373 Si / 1000 Ang^3
#
#
#
# Elastic Constant Matrix: (Units=GPa)
#
#
# Indices 1 2 3 4 5 6 
#
# 1 112.6754 24.2504 33.6198 -9.9770 0.0005 0.0000
# 2 24.2504 112.6754 33.6198 9.9770 -0.0005 0.0000
# 3 33.6198 33.6198 117.2083 0.0000 0.0000 0.0000
# 4 -9.9770 9.9770 0.0000 35.2896 0.0000 -0.0005
# 5 0.0005 -0.0005 0.0000 0.0000 35.2896 -9.9770
# 6 0.0000 0.0000 0.0000 -0.0005 -9.9770 44.2125
#
#
#
# Elastic Compliance Matrix: (Units=1/GPa)
#
#
# Indices 1 2 3 4 5 6 
#
# 1 0.010290 -0.001790 -0.002438 0.003415 0.000000 0.000000
# 2 -0.001790 0.010290 -0.002438 -0.003415 0.000000 0.000000
# 3 -0.002438 -0.002438 0.009931 0.000000 0.000000 0.000000
# 4 0.003415 -0.003415 0.000000 0.030268 0.000000 0.000000
# 5 0.000000 0.000000 0.000000 0.000000 0.030268 0.006830
# 6 0.000000 0.000000 0.000000 0.000000 0.006830 0.024159
#
#
# Mechanical properties :
#
#
# Convention : Reuss Voigt Hill
#
# Bulk Modulus (GPa) = 58.21189 58.39322 58.30255
# Shear Modulus (GPa) = 37.23984 39.69627 38.46806
#
# Velocity S-wave (km/s) = 4.30918 4.44903 4.37966
# Velocity P-wave (km/s) = 7.33383 7.45041 7.39235
#
# Compressibility (1/GPa) = 0.01717862
#
# Stress axis : x y z
#
# Youngs Moduli (GPa) = 97.18041 97.18041 100.69882
#
# Poissons Ratio (x) = 0.17391 0.24553
# Poissons Ratio (y) = 0.17391 0.24553
# Poissons Ratio (z) = 0.23695 0.23695
#
# Static dielectric constant tensor:
#      x y z
#    x 3.681970 0.000000 0.000000 
#    y 0.000000 3.681970 0.000000 
#    z 0.000000 0.000000 3.750330 
# 
# 
# High freq. dielectric constant tensor:
#      x y z
#    x 1.781580 0.000000 0.000000 
#    y 0.000000 1.781580 0.000000 
#    z 0.000000 0.000000 1.794040 
# 
# From -- ./inp_files/2437.got.cif
#   From: 2010.03.12/outbox.cif.g09.slc.cpg/sg154_2_cif.got.tgz:2437.got - 2010.04.03 13:51:21.
