data_PCOD8322741
_publ_section_title
;
Structure prediction by ZEFSAII (Michael W. Deem and Ramdas Pophale) SiO2 
 PCOD8322741
Probable space group: P 3 1 M
;
_chemical_formula_sum "Si O2"
_cell_formula_units_Z 24
_cell_length_a 15.445171
_cell_length_b 15.445171
_cell_length_c 7.115911
_cell_angle_alpha 90.000000
_cell_angle_beta 90.000000
_cell_angle_gamma 120.000000
_cell_volume 1470.098997
_symmetry_space_group_name_H-M "P 3 1 M"
_symmetry_group_IT_number 157
_symmetry_cell_setting 'hexagonal'
loop_
_space_group_symop_operation_xyz
x,y,z
-y,x-y,z
-x+y,-x,z
y,x,z
x-y,-y,z
-x,-x+y,z
loop_
_atom_site_type_symbol
_atom_site_label
_atom_site_fract_x
_atom_site_fract_y
_atom_site_fract_z
Si Si1 0.316242 0.548409 0.008540
Si Si2 0.769081 0.886095 0.008540
Si Si3 0.115912 0.735660 0.293667
Si Si4 0.619749 0.884089 0.723413
O O1 0.423459 0.651139 0.008539
O O2 0.308287 0.487380 0.196014
O O3 0.308288 0.487379 0.821068
O O4 0.812083 0.812083 0.008541
O O5 0.701336 0.864074 0.193474
O O6 0.859480 0.000000 0.008541
O O7 0.701336 0.864075 0.823605
O O8 0.149985 0.761193 0.508540
O O9 0.000000 0.652178 0.274734
O O10 0.652178 0.000000 0.742342
#
# Coordination Sequence:
#
# PCOD8322741 Si02
#       4
#     6   6   6   6
#     4   9  19  32  51  75  95 124 159 208 244 282
#     4   9  17  30  49  73 100 130 166 204 242 286
#     4   9  18  34  53  71  98 135 166 195 240 295
#     4   9  18  34  53  71  98 135 166 195 240 295
#
# _framework density 16.325430999999998
#
# number of rings (size 3 to 8) (size 9 to 14) (size 15 to 20)
#    0.500    2.500    0.000    2.500    0.000    3.000 
#    0.000   10.000    0.000    3.000    0.000    0.000 
#    0.000    0.000    0.000    0.000    0.000    0.000 
#
# Total GULP energy -297537.353765 kJ/mol
# GULP energy per Si atom -12397.389740 kJ/mol
# Density = 1.628827 g / cm^3
# Si number density = 16.325431 Si / 1000 Ang^3
#
#
#
# Elastic Constant Matrix: (Units=GPa)
#
#
# Indices 1 2 3 4 5 6 
#
# 1 102.1312 50.5676 62.2887 0.0000 -0.0001 0.0000
# 2 50.5676 102.1312 62.2887 0.0000 0.0001 0.0000
# 3 62.2887 62.2887 174.0301 0.0000 0.0000 0.0000
# 4 0.0000 0.0000 0.0000 16.3967 0.0000 0.0001
# 5 -0.0001 0.0001 0.0000 0.0000 16.3967 0.0000
# 6 0.0000 0.0000 0.0000 0.0001 0.0000 25.7818
#
#
#
# Elastic Compliance Matrix: (Units=1/GPa)
#
#
# Indices 1 2 3 4 5 6 
#
# 1 0.014322 -0.005072 -0.003311 0.000000 0.000000 0.000000
# 2 -0.005072 0.014322 -0.003311 0.000000 0.000000 0.000000
# 3 -0.003311 -0.003311 0.008116 0.000000 0.000000 0.000000
# 4 0.000000 0.000000 0.000000 0.060988 0.000000 0.000000
# 5 0.000000 0.000000 0.000000 0.000000 0.060988 0.000000
# 6 0.000000 0.000000 0.000000 0.000000 0.000000 0.038787
#
#
# Mechanical properties :
#
#
# Convention : Reuss Voigt Hill
#
# Bulk Modulus (GPa) = 74.77787 80.95363 77.86575
# Shear Modulus (GPa) = 22.18613 25.25822 23.72217
#
# Velocity S-wave (km/s) = 3.69045 3.93768 3.81607
# Velocity P-wave (km/s) = 8.00395 8.38861 8.19854
#
# Compressibility (1/GPa) = 0.01337294
#
# Stress axis : x y z
#
# Youngs Moduli (GPa) = 69.82426 69.82426 123.21259
#
# Poissons Ratio (x) = 0.35414 0.40792
# Poissons Ratio (y) = 0.35414 0.40792
# Poissons Ratio (z) = 0.23117 0.23117
#
# Static dielectric constant tensor:
#      x y z
#    x 2.926300 0.000000 0.000000 
#    y 0.000000 2.926300 0.000000 
#    z 0.000000 0.000000 3.361610 
# 
# 
# High freq. dielectric constant tensor:
#      x y z
#    x 1.618540 0.000000 0.000000 
#    y 0.000000 1.618540 0.000000 
#    z 0.000000 0.000000 1.636960 
# 
# From -- ./inp_files/295.got.cif
#   From: 2010.03.12/outbox.cif.g09.slc.cpg/sg157_cif.got.tgz:295.got - 2010.04.03 13:59:21.
