data_PCOD8322413
_publ_section_title
;
Structure prediction by ZEFSAII (Michael W. Deem and Ramdas Pophale) SiO2 
 PCOD8322413
Probable space group: P 32 2 1
;
_chemical_formula_sum "Si O2"
_cell_formula_units_Z 33
_cell_length_a 14.720258
_cell_length_b 14.720258
_cell_length_c 7.961965
_cell_angle_alpha 90.000000
_cell_angle_beta 90.000000
_cell_angle_gamma 120.000000
_cell_volume 1494.107135
_symmetry_space_group_name_H-M "P 32 2 1"
_symmetry_group_IT_number 154
_symmetry_cell_setting 'hexagonal'
loop_
_space_group_symop_operation_xyz
x,y,z
-y,x-y,2/3+z
-x+y,-x,1/3+z
x-y,-y,1/3-z
-x,-x+y,2/3-z
y,x,-z
loop_
_atom_site_type_symbol
_atom_site_label
_atom_site_fract_x
_atom_site_fract_y
_atom_site_fract_z
Si Si1 0.724993 0.510453 0.014229
Si Si2 0.490702 0.000000 0.166667
Si Si3 0.062301 0.786542 0.665397
Si Si4 0.198606 0.542181 0.666707
Si Si5 0.662765 0.000000 0.666667
Si Si6 0.390087 0.522473 0.795469
Si Si7 0.060291 0.000000 0.666667
O O1 0.821999 0.626135 0.023040
O O2 0.762474 0.426603 0.991227
O O3 0.643404 0.479450 0.168719
O O4 0.659198 0.503680 0.849420
O O5 0.533106 0.965713 0.330261
O O6 0.479290 0.100589 0.208555
O O7 0.073622 0.899391 0.670259
O O8 0.002526 0.727028 0.497347
O O9 0.000000 0.721740 0.833334
O O10 0.290316 0.520626 0.716831
O O11 0.645888 0.099776 0.699249
O O12 0.996105 0.996105 0.500000
#
# Coordination Sequence:
#
# PCOD8322413 Si02
#       7
#     6   3   6   6   3   6   3
#     4  12  23  43  68 102 145 189 238 297 365 445
#     4  12  26  44  70 106 144 188 264 306 362 458
#     4  11  26  46  73 108 141 180 237 304 367 434
#     4  12  25  42  72 102 148 199 248 302 366 453
#     4  12  27  43  72 102 144 192 234 299 361 446
#     4  12  25  45  70 104 143 202 248 299 375 438
#     4  10  23  49  80 100 134 186 238 299 369 442
#
# _framework density 22.086770000000001
#
# number of rings (size 3 to 8) (size 9 to 14) (size 15 to 20)
#    0.000    0.364    3.636    4.909    5.091    2.182 
#    0.000    0.000    6.000    0.000    0.000    0.000 
#    0.000    0.000    0.000    0.000    0.000    0.000 
#
# Total GULP energy -409143.413713 kJ/mol
# GULP energy per Si atom -12398.285264 kJ/mol
# Density = 2.203650 g / cm^3
# Si number density = 22.086770 Si / 1000 Ang^3
#
#
#
# Elastic Constant Matrix: (Units=GPa)
#
#
# Indices 1 2 3 4 5 6 
#
# 1 103.3026 33.2015 46.4380 -1.3137 -0.0002 0.0000
# 2 33.2015 103.3026 46.4380 1.3137 0.0002 0.0000
# 3 46.4380 46.4380 141.5837 0.0000 0.0000 0.0000
# 4 -1.3137 1.3137 0.0000 39.3800 0.0000 0.0002
# 5 -0.0002 0.0002 0.0000 0.0000 39.3800 -1.3137
# 6 0.0000 0.0000 0.0000 0.0002 -1.3137 35.0506
#
#
#
# Elastic Compliance Matrix: (Units=1/GPa)
#
#
# Indices 1 2 3 4 5 6 
#
# 1 0.011857 -0.002426 -0.003093 0.000476 0.000000 0.000000
# 2 -0.002426 0.011857 -0.003093 -0.000476 0.000000 0.000000
# 3 -0.003093 -0.003093 0.009092 0.000000 0.000000 0.000000
# 4 0.000476 -0.000476 0.000000 0.025425 0.000000 0.000000
# 5 0.000000 0.000000 0.000000 0.000000 0.025425 0.000953
# 6 0.000000 0.000000 0.000000 0.000000 0.000953 0.028566
#
#
# Mechanical properties :
#
#
# Convention : Reuss Voigt Hill
#
# Bulk Modulus (GPa) = 64.18353 66.70488 65.44420
# Shear Modulus (GPa) = 37.13603 37.56953 37.35278
#
# Velocity S-wave (km/s) = 4.10490 4.12879 4.11686
# Velocity P-wave (km/s) = 7.18260 7.27984 7.23138
#
# Compressibility (1/GPa) = 0.01558032
#
# Stress axis : x y z
#
# Youngs Moduli (GPa) = 84.34118 84.34118 109.98778
#
# Poissons Ratio (x) = 0.20464 0.34019
# Poissons Ratio (y) = 0.20464 0.34019
# Poissons Ratio (z) = 0.26087 0.26087
#
# Static dielectric constant tensor:
#      x y z
#    x 3.472780 0.000000 0.000000 
#    y 0.000000 3.472780 0.000000 
#    z 0.000000 0.000000 4.566340 
# 
# 
# High freq. dielectric constant tensor:
#      x y z
#    x 1.865590 0.000000 0.000000 
#    y 0.000000 1.865590 0.000000 
#    z 0.000000 0.000000 1.894100 
# 
# From -- ./inp_files/1185.got.cif
#   From: 2010.03.12/outbox.cif.g09.slc.cpg/sg154_1_cif.got.tgz:1185.got - 2010.04.03 13:51:21.
