data_PCOD8322929
_publ_section_title
;
Structure prediction by ZEFSAII (Michael W. Deem and Ramdas Pophale) SiO2 
 PCOD8322929
Probable space group: P -3 1 M 
;
_chemical_formula_sum "Si O2"
_cell_formula_units_Z 52
_cell_length_a 12.671858
_cell_length_b 12.671858
_cell_length_c 22.639691
_cell_angle_alpha 90.000000
_cell_angle_beta 90.000000
_cell_angle_gamma 120.000000
_cell_volume 3148.340687
_symmetry_space_group_name_H-M "P -3 1 M "
_symmetry_group_IT_number 162
_symmetry_cell_setting 'hexagonal'
loop_
_space_group_symop_operation_xyz
x,y,z
-y,x-y,z
-x+y,-x,z
-y,-x,-z
-x+y,y,-z
x,x-y,-z
-x,-y,-z
y,-x+y,-z
x-y,x,-z
y,x,z
x-y,-y,z
-x,-x+y,z
loop_
_atom_site_type_symbol
_atom_site_label
_atom_site_fract_x
_atom_site_fract_y
_atom_site_fract_z
Si Si1 0.139739 0.279051 0.569453
Si Si2 0.333334 0.666668 0.930304
Si Si3 0.511832 0.862294 0.152581
Si Si4 0.240260 0.511784 0.351583
Si Si5 0.557755 0.860812 0.775519
O O1 0.150952 0.301904 0.500000
O O2 0.185516 0.185516 0.587184
O O3 0.226230 0.409306 0.598778
O O4 0.000000 0.221350 0.590873
O O5 0.204082 0.559841 0.906707
O O6 0.333334 0.666667 0.000000
O O7 0.418679 0.847896 0.205083
O O8 0.591136 0.804512 0.177320
O O9 0.602091 0.000000 0.134476
O O10 0.388255 0.583718 0.358104
O O11 0.196231 0.449156 0.288291
O O12 0.665339 0.000000 0.776435
#
# Coordination Sequence:
#
# PCOD8322929 Si02
#       5
#    12   4  12  12  12
#     4  10  22  39  56  72  94 130 174 216 257 305
#     4   9  18  30  45  72 102 129 169 212 247 291
#     4   9  17  30  48  70  99 133 165 200 246 294
#     4  10  20  34  51  77 106 131 159 200 258 314
#     4  10  17  30  50  73 100 129 163 199 240 296
#
# _framework density 16.516636999999999
#
# number of rings (size 3 to 8) (size 9 to 14) (size 15 to 20)
#    0.462    1.846    2.308    1.385    0.000    5.077 
#    0.000    2.308    0.000    0.462    0.000    0.000 
#    0.000    0.923    0.000    0.000    0.000    0.000 
#
# Total GULP energy -644610.952968 kJ/mol
# GULP energy per Si atom -12396.364480 kJ/mol
# Density = 1.647904 g / cm^3
# Si number density = 16.516637 Si / 1000 Ang^3
#
#
#
# Elastic Constant Matrix: (Units=GPa)
#
#
# Indices 1 2 3 4 5 6 
#
# 1 108.7309 60.2200 49.1034 -0.0001 -3.5006 0.0000
# 2 60.2200 108.7309 49.1035 0.0000 3.5004 -0.0001
# 3 49.1034 49.1035 75.2619 -0.0002 -0.0003 0.0000
# 4 -0.0001 0.0000 -0.0002 14.0058 -0.0001 3.5006
# 5 -3.5006 3.5004 -0.0003 -0.0001 14.0059 0.0000
# 6 0.0000 -0.0001 0.0000 3.5006 0.0000 24.2554
#
#
#
# Elastic Compliance Matrix: (Units=1/GPa)
#
#
# Indices 1 2 3 4 5 6 
#
# 1 0.015460 -0.005925 -0.006221 0.000000 0.005345 0.000000
# 2 -0.005925 0.015460 -0.006221 0.000000 -0.005345 0.000000
# 3 -0.006221 -0.006221 0.021404 0.000000 0.000000 0.000000
# 4 0.000000 0.000000 0.000000 0.074071 0.000001 -0.010690
# 5 0.005345 -0.005345 0.000000 0.000001 0.074070 0.000000
# 6 0.000000 0.000000 0.000000 -0.010690 0.000000 0.042771
#
#
# Mechanical properties :
#
#
# Convention : Reuss Voigt Hill
#
# Bulk Modulus (GPa) = 64.14116 67.73085 65.93601
# Shear Modulus (GPa) = 17.53357 19.40653 18.47005
#
# Velocity S-wave (km/s) = 3.26171 3.43150 3.34768
# Velocity P-wave (km/s) = 7.28722 7.53637 7.41284
#
# Compressibility (1/GPa) = 0.01559061
#
# Stress axis : x y z
#
# Youngs Moduli (GPa) = 64.68263 64.68249 46.71925
#
# Poissons Ratio (x) = 0.38325 0.29064
# Poissons Ratio (y) = 0.38326 0.29064
# Poissons Ratio (z) = 0.40238 0.40239
#
# Static dielectric constant tensor:
#      x y z
#    x 3.091980 0.000000 0.000000 
#    y 0.000000 3.091980 0.000000 
#    z 0.000000 0.000000 2.846330 
# 
# 
# High freq. dielectric constant tensor:
#      x y z
#    x 1.627510 0.000000 0.000000 
#    y 0.000000 1.627510 0.000000 
#    z 0.000000 0.000000 1.620800 
# 
# From -- ./inp_files/3763.got.cif
#   From: 2010.03.12/outbox.cif.g09.slc.cpg/sg162_2_cif.got.tgz:3763.got - 2010.04.02 06:27:41.
