data_PCOD8322366
_publ_section_title
;
Structure prediction by ZEFSAII (Michael W. Deem and Ramdas Pophale) SiO2 
 PCOD8322366
Probable space group: P 32 2 1
;
_chemical_formula_sum "Si O2"
_cell_formula_units_Z 42
_cell_length_a 8.684487
_cell_length_b 8.684487
_cell_length_c 28.578501
_cell_angle_alpha 90.000000
_cell_angle_beta 90.000000
_cell_angle_gamma 120.000000
_cell_volume 1866.630750
_symmetry_space_group_name_H-M "P 32 2 1"
_symmetry_group_IT_number 154
_symmetry_cell_setting 'hexagonal'
loop_
_space_group_symop_operation_xyz
x,y,z
-y,x-y,2/3+z
-x+y,-x,1/3+z
x-y,-y,1/3-z
-x,-x+y,2/3-z
y,x,-z
loop_
_atom_site_type_symbol
_atom_site_label
_atom_site_fract_x
_atom_site_fract_y
_atom_site_fract_z
Si Si1 0.844143 0.966742 0.960504
Si Si2 0.556095 0.333825 0.738625
Si Si3 0.604356 0.251799 0.944854
Si Si4 0.441343 0.423577 0.094129
Si Si5 0.415175 0.997772 0.859517
Si Si6 0.069963 0.106807 0.121919
Si Si7 0.334015 0.932900 0.003409
O O1 0.945861 0.160511 0.985201
O O2 0.964710 0.962906 0.918367
O O3 0.647769 0.914555 0.943802
O O4 0.827071 0.827071 0.000000
O O5 0.614934 0.188723 0.730519
O O6 0.584790 0.401975 0.792508
O O7 0.691970 0.506712 0.709260
O O8 0.548866 0.401054 0.938548
O O9 0.554499 0.147542 0.895325
O O10 0.818271 0.354467 0.953863
O O11 0.500150 0.126814 0.990095
O O12 0.558279 0.526826 0.139359
O O13 0.271312 0.237783 0.106475
O O14 0.220533 0.975862 0.865009
O O15 0.076611 0.000000 0.166667
#
# Coordination Sequence:
#
# PCOD8322366 Si02
#       7
#     6   6   6   6   6   6   6
#     4  12  24  42  66  98 137 181 226 285 345 407
#     4  11  24  40  67  99 132 181 227 285 339 412
#     4  10  23  41  69  97 136 184 222 291 343 410
#     4  11  23  40  71  99 136 172 234 279 351 410
#     4  10  20  46  65  97 130 178 220 282 338 411
#     4  11  25  44  69  99 137 180 227 281 349 411
#     4  11  23  44  63  96 140 176 235 275 349 410
#
# _framework density 22.500435
#
# number of rings (size 3 to 8) (size 9 to 14) (size 15 to 20)
#    0.000    1.143    2.857    6.000    4.000    0.000 
#    2.571    0.714    0.000    0.000    0.000    0.000 
#    0.000    0.000    0.000    0.000    0.000    0.000 
#
# Total GULP energy -520458.359810 kJ/mol
# GULP energy per Si atom -12391.865710 kJ/mol
# Density = 2.244922 g / cm^3
# Si number density = 22.500435 Si / 1000 Ang^3
#
#
#
# Elastic Constant Matrix: (Units=GPa)
#
#
# Indices 1 2 3 4 5 6 
#
# 1 83.2901 17.3104 25.6137 1.8816 0.0003 0.0000
# 2 17.3104 83.2901 25.6137 -1.8816 -0.0003 0.0000
# 3 25.6137 25.6137 83.4919 0.0000 0.0000 0.0000
# 4 1.8816 -1.8816 0.0000 33.5860 0.0000 -0.0003
# 5 0.0003 -0.0003 0.0000 0.0000 33.5860 1.8816
# 6 0.0000 0.0000 0.0000 -0.0003 1.8816 32.9899
#
#
#
# Elastic Compliance Matrix: (Units=1/GPa)
#
#
# Indices 1 2 3 4 5 6 
#
# 1 0.013493 -0.001712 -0.003614 -0.000852 0.000000 0.000000
# 2 -0.001712 0.013493 -0.003614 0.000852 0.000000 0.000000
# 3 -0.003614 -0.003614 0.014195 0.000000 0.000000 0.000000
# 4 -0.000852 0.000852 0.000000 0.029870 0.000000 0.000000
# 5 0.000000 0.000000 0.000000 0.000000 0.029870 -0.001704
# 6 0.000000 0.000000 0.000000 0.000000 -0.001704 0.030410
#
#
# Mechanical properties :
#
#
# Convention : Reuss Voigt Hill
#
# Bulk Modulus (GPa) = 42.91909 43.01643 42.96776
# Shear Modulus (GPa) = 31.85198 32.13465 31.99331
#
# Velocity S-wave (km/s) = 3.76655 3.78323 3.77490
# Velocity P-wave (km/s) = 6.16701 6.18411 6.17557
#
# Compressibility (1/GPa) = 0.02329966
#
# Stress axis : x y z
#
# Youngs Moduli (GPa) = 74.11414 74.11414 70.44903
#
# Poissons Ratio (x) = 0.12689 0.25461
# Poissons Ratio (y) = 0.12689 0.25461
# Poissons Ratio (z) = 0.26785 0.26785
#
# Static dielectric constant tensor:
#      x y z
#    x 4.160740 0.000000 0.000000 
#    y 0.000000 4.160740 0.000000 
#    z 0.000000 0.000000 4.151650 
# 
# 
# High freq. dielectric constant tensor:
#      x y z
#    x 1.884220 0.000000 0.000000 
#    y 0.000000 1.884220 0.000000 
#    z 0.000000 0.000000 1.890520 
# 
# From -- ./inp_files/3770.got.cif
#   From: 2010.03.12/outbox.cif.g09.slc.cpg/sg154_2_cif.got.tgz:3770.got - 2010.04.03 13:51:21.
