data_PCOD8322370
_publ_section_title
;
Structure prediction by ZEFSAII (Michael W. Deem and Ramdas Pophale) SiO2 
 PCOD8322370
Probable space group: P 32 2 1
;
_chemical_formula_sum "Si O2"
_cell_formula_units_Z 42
_cell_length_a 11.021503
_cell_length_b 11.021503
_cell_length_c 21.090431
_cell_angle_alpha 90.000000
_cell_angle_beta 90.000000
_cell_angle_gamma 120.000000
_cell_volume 2218.695656
_symmetry_space_group_name_H-M "P 32 2 1"
_symmetry_group_IT_number 154
_symmetry_cell_setting 'hexagonal'
loop_
_space_group_symop_operation_xyz
x,y,z
-y,x-y,2/3+z
-x+y,-x,1/3+z
x-y,-y,1/3-z
-x,-x+y,2/3-z
y,x,-z
loop_
_atom_site_type_symbol
_atom_site_label
_atom_site_fract_x
_atom_site_fract_y
_atom_site_fract_z
Si Si1 0.277596 0.177226 0.370673
Si Si2 0.428429 0.724092 0.109821
Si Si3 0.641480 0.208083 0.987207
Si Si4 0.644529 0.655442 0.898083
Si Si5 0.990928 0.390107 0.086767
Si Si6 0.146934 0.000000 0.666667
Si Si7 0.674327 0.000000 0.166667
Si Si8 0.288729 0.686341 0.569548
O O1 0.402836 0.303611 0.331384
O O2 0.314643 0.054438 0.373010
O O3 0.135590 0.128789 0.332417
O O4 0.266267 0.216847 0.442730
O O5 0.351797 0.748446 0.050167
O O6 0.509364 0.641555 0.086746
O O7 0.310779 0.635007 0.162302
O O8 0.529816 0.873126 0.141489
O O9 0.505519 0.134785 0.943707
O O10 0.615595 0.258586 0.055280
O O11 0.655434 0.673599 0.822336
O O12 0.513580 0.669682 0.923205
O O13 0.777921 0.774883 0.935156
O O14 0.874723 0.439763 0.088253
#
# Coordination Sequence:
#
# PCOD8322370 Si02
#       8
#     6   6   6   6   6   3   3   6
#     4  11  23  38  63  90 116 158 207 248 305 361
#     4  11  22  36  62  89 120 160 201 247 307 360
#     4  11  22  38  60  89 122 155 196 260 301 366
#     4  11  20  37  60  88 119 154 202 254 300 356
#     4  10  21  39  60  84 125 159 192 252 316 360
#     4  12  22  36  62  86 118 158 208 254 284 382
#     4  12  20  42  60  90 116 164 202 250 290 370
#     4  10  21  36  58  91 115 156 205 247 302 364
#
# _framework density 18.930042
#
# number of rings (size 3 to 8) (size 9 to 14) (size 15 to 20)
#    0.000    1.143    7.143    1.714    4.000    0.000 
#    0.000    1.429    0.000    6.000    0.000    0.000 
#    0.000    0.000    0.000    0.000    0.000    0.000 
#
# Total GULP energy -520502.933211 kJ/mol
# GULP energy per Si atom -12392.926981 kJ/mol
# Density = 1.888696 g / cm^3
# Si number density = 18.930042 Si / 1000 Ang^3
#
#
#
# Elastic Constant Matrix: (Units=GPa)
#
#
# Indices 1 2 3 4 5 6 
#
# 1 91.7118 43.2040 37.7836 1.5741 -0.0001 0.0000
# 2 43.2040 91.7118 37.7836 -1.5741 0.0001 0.0000
# 3 37.7836 37.7836 92.3039 0.0000 0.0000 0.0000
# 4 1.5741 -1.5741 0.0000 26.2679 0.0000 0.0001
# 5 -0.0001 0.0001 0.0000 0.0000 26.2679 1.5741
# 6 0.0000 0.0000 0.0000 0.0001 1.5741 24.2539
#
#
#
# Elastic Compliance Matrix: (Units=1/GPa)
#
#
# Indices 1 2 3 4 5 6 
#
# 1 0.015156 -0.005539 -0.003937 -0.001240 0.000000 0.000000
# 2 -0.005539 0.015156 -0.003937 0.001240 0.000000 0.000000
# 3 -0.003937 -0.003937 0.014057 0.000000 0.000000 0.000000
# 4 -0.001240 0.001240 0.000000 0.038218 0.000000 0.000000
# 5 0.000000 0.000000 0.000000 0.000000 0.038218 -0.002480
# 6 0.000000 0.000000 0.000000 0.000000 -0.002480 0.041391
#
#
# Mechanical properties :
#
#
# Convention : Reuss Voigt Hill
#
# Bulk Modulus (GPa) = 56.99923 57.02999 57.01461
# Shear Modulus (GPa) = 25.65818 25.82171 25.73994
#
# Velocity S-wave (km/s) = 3.68560 3.69732 3.69147
# Velocity P-wave (km/s) = 6.94891 6.95838 6.95365
#
# Compressibility (1/GPa) = 0.01754410
#
# Stress axis : x y z
#
# Youngs Moduli (GPa) = 65.97904 65.97904 71.14102
#
# Poissons Ratio (x) = 0.36548 0.28005
# Poissons Ratio (y) = 0.36548 0.28005
# Poissons Ratio (z) = 0.25973 0.25973
#
# Static dielectric constant tensor:
#      x y z
#    x 3.484850 0.000000 0.000000 
#    y 0.000000 3.484850 0.000000 
#    z 0.000000 0.000000 3.676080 
# 
# 
# High freq. dielectric constant tensor:
#      x y z
#    x 1.722280 0.000000 0.000000 
#    y 0.000000 1.722280 0.000000 
#    z 0.000000 0.000000 1.751440 
# 
# From -- ./inp_files/2853.got.cif
#   From: 2010.03.12/outbox.cif.g09.slc.cpg/sg154_2_cif.got.tgz:2853.got - 2010.04.03 13:51:21.
