data_PCOD8322232
_publ_section_title
;
Structure prediction by ZEFSAII (Michael W. Deem and Ramdas Pophale) SiO2 
 PCOD8322232
Probable space group: P 32 1 2
;
_chemical_formula_sum "Si O2"
_cell_formula_units_Z 42
_cell_length_a 11.553040
_cell_length_b 11.553040
_cell_length_c 19.552696
_cell_angle_alpha 90.000000
_cell_angle_beta 90.000000
_cell_angle_gamma 120.000000
_cell_volume 2260.111337
_symmetry_space_group_name_H-M "P 32 1 2"
_symmetry_group_IT_number 153
_symmetry_cell_setting 'hexagonal'
loop_
_space_group_symop_operation_xyz
x,y,z
-y,x-y,2/3+z
-x+y,-x,1/3+z
-y,-x,1/3-z
-x+y,y,2/3-z
x,x-y,-z
loop_
_atom_site_type_symbol
_atom_site_label
_atom_site_fract_x
_atom_site_fract_y
_atom_site_fract_z
Si Si1 0.408724 0.190434 0.663177
Si Si2 0.361423 0.362992 0.768722
Si Si3 0.654905 0.051557 0.585813
Si Si4 0.710729 0.289272 0.666667
Si Si5 0.603346 0.654904 0.919146
Si Si6 0.289272 0.578544 0.333334
Si Si7 0.638577 0.001571 0.231278
Si Si8 0.218288 0.809566 0.003490
O O1 0.349895 0.241790 0.722326
O O2 0.556707 0.226983 0.686762
O O3 0.405869 0.256192 0.590553
O O4 0.321658 0.031401 0.646663
O O5 0.327830 0.300958 0.844769
O O6 0.500000 0.499999 0.760832
O O7 0.256191 0.405867 0.742780
O O8 0.728926 0.208951 0.603349
O O9 0.500000 0.999998 0.579830
O O10 0.678345 0.968599 0.646663
O O11 0.672169 0.699040 0.844768
O O12 0.519975 0.728927 0.936682
O O13 0.443294 0.670275 0.313240
O O14 0.650104 0.891896 0.277674
#
# Coordination Sequence:
#
# PCOD8322232 Si02
#       8
#     6   6   6   3   6   3   6   6
#     4  10  17  31  50  75 104 129 168 215 252 300
#     4  10  17  30  51  74  99 133 174 217 252 292
#     4   9  20  30  48  73  98 140 170 202 263 308
#     4  10  18  33  46  71 114 132 158 210 256 320
#     4   9  20  30  48  73  98 140 170 202 263 308
#     4  10  18  33  46  71 114 132 158 210 256 320
#     4  10  17  30  51  74  99 133 174 217 252 292
#     4  10  17  31  50  75 104 129 168 215 252 300
#
# _framework density 18.583157
#
# number of rings (size 3 to 8) (size 9 to 14) (size 15 to 20)
#    0.000    2.286    2.857    1.714    0.000    1.143 
#    0.000    1.429    0.000    8.571    0.000    8.000 
#    0.000    0.000    0.000    0.000    0.000    0.000 
#
# Total GULP energy -520297.957569 kJ/mol
# GULP energy per Si atom -12388.046609 kJ/mol
# Density = 1.854086 g / cm^3
# Si number density = 18.583157 Si / 1000 Ang^3
#
#
#
# Elastic Constant Matrix: (Units=GPa)
#
#
# Indices 1 2 3 4 5 6 
#
# 1 69.2837 34.1597 37.6565 0.0000 -0.0001 0.0000
# 2 34.1597 69.2837 37.6565 0.0000 0.0001 0.0000
# 3 37.6565 37.6565 107.6680 0.0000 0.0000 0.0000
# 4 0.0000 0.0000 0.0000 16.7480 0.0000 0.0001
# 5 -0.0001 0.0001 0.0000 0.0000 16.7480 0.0000
# 6 0.0000 0.0000 0.0000 0.0001 0.0000 17.5620
#
#
#
# Elastic Compliance Matrix: (Units=1/GPa)
#
#
# Indices 1 2 3 4 5 6 
#
# 1 0.020720 -0.007750 -0.004536 0.000000 0.000000 0.000000
# 2 -0.007750 0.020720 -0.004536 0.000000 0.000000 0.000000
# 3 -0.004536 -0.004536 0.012461 0.000000 0.000000 0.000000
# 4 0.000000 0.000000 0.000000 0.059709 0.000000 0.000000
# 5 0.000000 0.000000 0.000000 0.000000 0.059709 0.000000
# 6 0.000000 0.000000 0.000000 0.000000 0.000000 0.056941
#
#
# Mechanical properties :
#
#
# Convention : Reuss Voigt Hill
#
# Bulk Modulus (GPa) = 49.36871 51.68674 50.52773
# Shear Modulus (GPa) = 18.47358 19.32910 18.90134
#
# Velocity S-wave (km/s) = 3.15636 3.22862 3.19270
# Velocity P-wave (km/s) = 6.31724 6.46319 6.39063
#
# Compressibility (1/GPa) = 0.02025574
#
# Stress axis : x y z
#
# Youngs Moduli (GPa) = 48.26227 48.26227 80.25187
#
# Poissons Ratio (x) = 0.37405 0.36403
# Poissons Ratio (y) = 0.37405 0.36403
# Poissons Ratio (z) = 0.21892 0.21892
#
# Static dielectric constant tensor:
#      x y z
#    x 3.414290 0.000000 0.000000 
#    y 0.000000 3.414290 0.000000 
#    z 0.000000 0.000000 3.601960 
# 
# 
# High freq. dielectric constant tensor:
#      x y z
#    x 1.701090 0.000000 0.000000 
#    y 0.000000 1.701090 0.000000 
#    z 0.000000 0.000000 1.713650 
# 
# From -- ./inp_files/3580.got.cif
#   From: 2010.03.12/outbox.cif.g09.slc.cpg/sg153_2_cif.got.tgz:3580.got - 2010.04.03 13:48:33.
