data_PCOD8322878
_publ_section_title
;
Structure prediction by ZEFSAII (Michael W. Deem and Ramdas Pophale) SiO2 
 PCOD8322878
Probable space group: R 3 M
;
_chemical_formula_sum "Si O2"
_cell_formula_units_Z 33
_cell_length_a 10.167871
_cell_length_b 10.167871
_cell_length_c 17.505417
_cell_angle_alpha 90.000000
_cell_angle_beta 90.000000
_cell_angle_gamma 120.000000
_cell_volume 1567.339749
_symmetry_space_group_name_H-M "R 3 M"
_symmetry_group_IT_number 160
_symmetry_cell_setting 'hexagonal'
loop_
_space_group_symop_operation_xyz
x,y,z
-y,x-y,z
-x+y,-x,z
-x+y,y,z
x,x-y,z
-y,-x,z
2/3+x,1/3+y,1/3+z
2/3-y,1/3+x-y,1/3+z
2/3-x+y,1/3-x,1/3+z
2/3-x+y,1/3+y,1/3+z
2/3+x,1/3+x-y,1/3+z
2/3-y,1/3-x,1/3+z
1/3+x,2/3+y,2/3+z
1/3-y,2/3+x-y,2/3+z
1/3-x+y,2/3-x,2/3+z
1/3-x+y,2/3+y,2/3+z
1/3+x,2/3+x-y,2/3+z
1/3-y,2/3-x,2/3+z
loop_
_atom_site_type_symbol
_atom_site_label
_atom_site_fract_x
_atom_site_fract_y
_atom_site_fract_z
Si Si1 0.095168 0.904833 0.289027
Si Si2 0.170834 0.829167 0.434177
Si Si3 0.000000 0.000000 0.027352
Si Si4 0.485107 0.514894 0.788413
Si Si5 0.000000 0.000000 0.843093
O O1 0.171700 0.828301 0.340503
O O2 0.107108 0.892893 0.200227
O O3 0.913785 0.827570 0.309702
O O4 0.250416 0.749585 0.474862
O O5 0.997576 0.743107 0.458423
O O6 0.087814 0.175627 0.055105
O O7 0.000000 0.000000 0.934766
#
# Coordination Sequence:
#
# PCOD8322878 Si02
#       5
#     9   9   3   9   3
#     4  10  21  45  73 103 128 190 250 275 329 446
#     4  12  27  44  70 105 144 177 232 291 360 404
#     4  12  27  48  75  96 148 191 244 270 354 444
#     4  12  24  47  75 102 133 198 233 289 338 437
#     4  12  33  42  63 120 151 170 217 327 375 375
#
# _framework density 21.054783
#
# number of rings (size 3 to 8) (size 9 to 14) (size 15 to 20)
#    0.545    0.000    5.455    2.182    7.636    2.182 
#    0.000    0.000    0.000    0.000    0.000    0.000 
#    0.000    0.000    0.000    0.000    0.000    0.000 
#
# Total GULP energy -136269.925334 kJ/mol
# GULP energy per Si atom -12388.175030 kJ/mol
# Density = 2.100686 g / cm^3
# Si number density = 21.054783 Si / 1000 Ang^3
#
#
#
# Elastic Constant Matrix: (Units=GPa)
#
#
# Indices 1 2 3 4 5 6 
#
# 1 174.0047 79.4863 60.2355 -9.0508 0.0000 0.0000
# 2 79.4863 174.0047 60.2355 9.0508 0.0000 0.0000
# 3 60.2355 60.2355 175.2894 0.0000 0.0000 0.0000
# 4 -9.0508 9.0508 0.0000 38.8640 0.0000 0.0000
# 5 0.0000 0.0000 0.0000 0.0000 38.8640 -9.0508
# 6 0.0000 0.0000 0.0000 0.0000 -9.0508 47.2592
#
#
#
# Elastic Compliance Matrix: (Units=1/GPa)
#
#
# Indices 1 2 3 4 5 6 
#
# 1 0.007894 -0.003179 -0.001620 0.002579 0.000000 0.000000
# 2 -0.003179 0.007894 -0.001620 -0.002579 0.000000 0.000000
# 3 -0.001620 -0.001620 0.006818 0.000000 0.000000 0.000000
# 4 0.002579 -0.002579 0.000000 0.026932 0.000000 0.000000
# 5 0.000000 0.000000 0.000000 0.000000 0.026932 0.005158
# 6 0.000000 0.000000 0.000000 0.000000 0.005158 0.022148
#
#
# Mechanical properties :
#
#
# Convention : Reuss Voigt Hill
#
# Bulk Modulus (GPa) = 102.38174 102.57927 102.48051
# Shear Modulus (GPa) = 43.58660 46.55355 45.07008
#
# Velocity S-wave (km/s) = 4.55483 4.70730 4.63169
# Velocity P-wave (km/s) = 8.74036 8.85273 8.79672
#
# Compressibility (1/GPa) = 0.00976737
#
# Stress axis : x y z
#
# Youngs Moduli (GPa) = 126.67240 126.67240 146.66260
#
# Poissons Ratio (x) = 0.40275 0.23762
# Poissons Ratio (y) = 0.40275 0.23762
# Poissons Ratio (z) = 0.20524 0.20524
#
# Static dielectric constant tensor:
#      x y z
#    x 3.935100 0.000000 0.000000 
#    y 0.000000 3.935100 0.000000 
#    z 0.000000 0.000000 4.032810 
# 
# 
# High freq. dielectric constant tensor:
#      x y z
#    x 1.830260 0.000000 0.000000 
#    y 0.000000 1.830260 0.000000 
#    z 0.000000 0.000000 1.841890 
# 
# From -- ./inp_files/2452.got.cif
#   From: 2010.03.12/outbox.cif.g09.slc.cpg/sg160_2_cif.got.tgz:2452.got - 2010.04.02 06:26:15.
