data_PCOD8322425
_publ_section_title
;
Structure prediction by ZEFSAII (Michael W. Deem and Ramdas Pophale) SiO2 
 PCOD8322425
Probable space group: P 32 2 1
;
_chemical_formula_sum "Si O2"
_cell_formula_units_Z 45
_cell_length_a 17.781026
_cell_length_b 17.781026
_cell_length_c 8.266277
_cell_angle_alpha 90.000000
_cell_angle_beta 90.000000
_cell_angle_gamma 120.000000
_cell_volume 2263.363041
_symmetry_space_group_name_H-M "P 32 2 1"
_symmetry_group_IT_number 154
_symmetry_cell_setting 'hexagonal'
loop_
_space_group_symop_operation_xyz
x,y,z
-y,x-y,2/3+z
-x+y,-x,1/3+z
x-y,-y,1/3-z
-x,-x+y,2/3-z
y,x,-z
loop_
_atom_site_type_symbol
_atom_site_label
_atom_site_fract_x
_atom_site_fract_y
_atom_site_fract_z
Si Si1 0.971283 0.218638 0.001758
Si Si2 0.682171 0.100493 0.660703
Si Si3 0.694930 0.123228 0.018088
Si Si4 0.857185 0.706696 0.162027
Si Si5 0.933887 0.452021 0.183115
Si Si6 0.964464 0.775316 0.666009
Si Si7 0.406871 0.150251 0.529483
Si Si8 0.482059 0.482059 0.500000
O O1 0.053651 0.234007 0.106370
O O2 0.905179 0.117197 0.959334
O O3 0.927792 0.267124 0.086621
O O4 0.000000 0.267712 0.833334
O O5 0.784790 0.151019 0.621210
O O6 0.624166 0.116555 0.526363
O O7 0.653690 0.000000 0.666667
O O8 0.671458 0.135111 0.835026
O O9 0.738000 0.062736 0.017387
O O10 0.760051 0.215128 0.098169
O O11 0.609721 0.082856 0.126777
O O12 0.804522 0.650355 0.008202
O O13 0.957983 0.776215 0.129324
O O14 0.870815 0.353130 0.237687
O O15 0.000000 0.491826 0.333334
O O16 0.974737 0.460187 0.001056
O O17 0.000000 0.824719 0.833334
#
# Coordination Sequence:
#
# PCOD8322425 Si02
#       8
#     6   6   6   6   6   6   6   3
#     4  11  25  37  55  90 126 172 218 266 323 382
#     4  11  21  37  68  98 126 158 224 278 317 391
#     4  11  19  39  64 102 120 163 209 266 330 383
#     4  12  21  40  65  86 126 181 211 269 333 373
#     4  11  23  40  61 101 126 161 216 274 326 384
#     4  11  20  35  61  85 120 160 221 264 305 389
#     4  11  24  40  63  89 132 168 214 265 327 407
#     4  12  20  38  74  96 126 162 214 268 326 384
#
# _framework density 19.881920000000001
#
# number of rings (size 3 to 8) (size 9 to 14) (size 15 to 20)
#    0.000    0.800    7.333    3.600    0.933    0.000 
#    2.400    2.000    0.000    6.400    0.000    0.000 
#    0.000    0.000    0.000    0.000    0.000    0.000 
#
# Total GULP energy -557623.609307 kJ/mol
# GULP energy per Si atom -12391.635762 kJ/mol
# Density = 1.983667 g / cm^3
# Si number density = 19.881920 Si / 1000 Ang^3
#
#
#
# Elastic Constant Matrix: (Units=GPa)
#
#
# Indices 1 2 3 4 5 6 
#
# 1 84.6351 33.3764 16.7699 -4.1018 0.0003 0.0000
# 2 33.3764 84.6351 16.7699 4.1018 -0.0003 0.0000
# 3 16.7699 16.7699 112.3072 0.0000 0.0000 0.0000
# 4 -4.1018 4.1018 0.0000 11.2183 0.0000 -0.0003
# 5 0.0003 -0.0003 0.0000 0.0000 11.2183 -4.1018
# 6 0.0000 0.0000 0.0000 -0.0003 -4.1018 25.6293
#
#
#
# Elastic Compliance Matrix: (Units=1/GPa)
#
#
# Indices 1 2 3 4 5 6 
#
# 1 0.014785 -0.005936 -0.001321 0.007577 0.000000 0.000000
# 2 -0.005936 0.014785 -0.001321 -0.007577 0.000000 0.000000
# 3 -0.001321 -0.001321 0.009299 0.000000 0.000000 0.000000
# 4 0.007577 -0.007577 0.000000 0.094681 0.000000 0.000001
# 5 0.000000 0.000000 0.000000 0.000000 0.094681 0.015153
# 6 0.000000 0.000000 0.000000 0.000001 0.015153 0.041443
#
#
# Mechanical properties :
#
#
# Convention : Reuss Voigt Hill
#
# Bulk Modulus (GPa) = 46.05789 46.15664 46.10727
# Shear Modulus (GPa) = 17.00279 23.92392 20.46336
#
# Velocity S-wave (km/s) = 2.92753 3.47263 3.21166
# Velocity P-wave (km/s) = 5.88585 6.27253 6.08227
#
# Compressibility (1/GPa) = 0.02171181
#
# Stress axis : x y z
#
# Youngs Moduli (GPa) = 67.63440 67.63440 107.54110
#
# Poissons Ratio (x) = 0.40148 0.14210
# Poissons Ratio (y) = 0.40148 0.14210
# Poissons Ratio (z) = 0.08937 0.08937
#
# Static dielectric constant tensor:
#      x y z
#    x 3.727600 0.000000 0.000000 
#    y 0.000000 3.727600 0.000000 
#    z 0.000000 0.000000 4.137610 
# 
# 
# High freq. dielectric constant tensor:
#      x y z
#    x 1.756400 0.000000 0.000000 
#    y 0.000000 1.756400 0.000000 
#    z 0.000000 0.000000 1.795900 
# 
# From -- ./inp_files/1299.got.cif
#   From: 2010.03.12/outbox.cif.g09.slc.cpg/sg154_1_cif.got.tgz:1299.got - 2010.04.03 13:51:21.
