data_PCOD8322893
_publ_section_title
;
Structure prediction by ZEFSAII (Michael W. Deem and Ramdas Pophale) SiO2 
 PCOD8322893
Probable space group: R 3 C
;
_chemical_formula_sum "Si O2"
_cell_formula_units_Z 126
_cell_length_a 16.708294
_cell_length_b 16.708294
_cell_length_c 27.592640
_cell_angle_alpha 90.000000
_cell_angle_beta 90.000000
_cell_angle_gamma 120.000000
_cell_volume 6670.956420
_symmetry_space_group_name_H-M "R 3 C"
_symmetry_group_IT_number 161
_symmetry_cell_setting 'hexagonal'
loop_
_space_group_symop_operation_xyz
x,y,z
-y,x-y,z
-x+y,-x,z
-x+y,y,1/2+z
x,x-y,1/2+z
-y,-x,1/2+z
2/3+x,1/3+y,1/3+z
2/3-y,1/3+x-y,1/3+z
2/3-x+y,1/3-x,1/3+z
2/3-x+y,1/3+y,5/6+z
2/3+x,1/3+x-y,5/6+z
2/3-y,1/3-x,5/6+z
1/3+x,2/3+y,2/3+z
1/3-y,2/3+x-y,2/3+z
1/3-x+y,2/3-x,2/3+z
1/3-x+y,2/3+y,1/6+z
1/3+x,2/3+x-y,1/6+z
1/3-y,2/3-x,1/6+z
loop_
_atom_site_type_symbol
_atom_site_label
_atom_site_fract_x
_atom_site_fract_y
_atom_site_fract_z
Si Si1 0.464790 0.482091 0.675083
Si Si2 0.868515 0.683953 0.003110
Si Si3 0.193861 0.460456 0.077110
Si Si4 0.473033 0.592868 0.583229
Si Si5 0.139480 0.206206 0.101080
Si Si6 0.666656 0.718997 0.839099
Si Si7 0.193623 0.740455 0.261630
O O1 0.562555 0.510172 0.700496
O O2 0.482395 0.559574 0.636257
O O3 0.393999 0.475828 0.717176
O O4 0.418295 0.378583 0.652859
O O5 0.850911 0.743826 0.041939
O O6 0.939303 0.748489 0.961018
O O7 0.770748 0.614274 0.977698
O O8 0.915004 0.626932 0.025330
O O9 0.169017 0.538129 0.062653
O O10 0.301727 0.500645 0.086140
O O11 0.540355 0.575807 0.548876
O O12 0.164279 0.128498 0.115530
O O13 0.031625 0.166067 0.092044
O O14 0.631206 0.757544 0.795997
#
# Coordination Sequence:
#
# PCOD8322893 Si02
#       7
#    18  18  18  18  18  18  18
#     4  10  20  38  55  83 119 147 192 236 283 343
#     4  10  20  38  55  83 119 147 192 236 283 343
#     4  10  21  36  58  86 115 150 188 243 284 341
#     4  11  21  37  60  85 117 151 193 239 293 337
#     4  10  21  36  58  86 115 150 188 243 284 341
#     4  10  22  36  56  84 114 154 192 230 284 358
#     4  11  21  37  60  85 117 151 193 239 293 337
#
# _framework density 18.887847000000001
#
# number of rings (size 3 to 8) (size 9 to 14) (size 15 to 20)
#    0.000    1.714    2.857    1.429    0.000    2.286 
#    0.000    2.857    0.000    0.000    0.000   10.000 
#    0.000    0.000    0.000    0.000    0.000    0.000 
#
# Total GULP energy -520856.925682 kJ/mol
# GULP energy per Si atom -12401.355373 kJ/mol
# Density = 1.884486 g / cm^3
# Si number density = 18.887847 Si / 1000 Ang^3
#
#
#
# Elastic Constant Matrix: (Units=GPa)
#
#
# Indices 1 2 3 4 5 6 
#
# 1 101.7231 36.7049 44.6160 -7.2062 0.0000 0.0000
# 2 36.7049 101.7231 44.6160 7.2062 0.0000 0.0000
# 3 44.6160 44.6160 77.0909 0.0000 0.0000 0.0000
# 4 -7.2062 7.2062 0.0000 22.4905 0.0000 0.0000
# 5 0.0000 0.0000 0.0000 0.0000 22.4905 -7.2062
# 6 0.0000 0.0000 0.0000 0.0000 -7.2062 32.5091
#
#
#
# Elastic Compliance Matrix: (Units=1/GPa)
#
#
# Indices 1 2 3 4 5 6 
#
# 1 0.014039 -0.002517 -0.006669 0.005305 0.000000 0.000000
# 2 -0.002517 0.014039 -0.006669 -0.005305 0.000000 0.000000
# 3 -0.006669 -0.006669 0.020691 0.000000 0.000000 0.000000
# 4 0.005305 -0.005305 0.000000 0.047863 0.000000 0.000000
# 5 0.000000 0.000000 0.000000 0.000000 0.047863 0.010609
# 6 0.000000 0.000000 0.000000 0.000000 0.010609 0.033112
#
#
# Mechanical properties :
#
#
# Convention : Reuss Voigt Hill
#
# Bulk Modulus (GPa) = 58.61247 59.15679 58.88463
# Shear Modulus (GPa) = 23.25557 25.80473 24.53015
#
# Velocity S-wave (km/s) = 3.51272 3.70024 3.60769
# Velocity P-wave (km/s) = 6.89576 7.04583 6.97120
#
# Compressibility (1/GPa) = 0.01706121
#
# Stress axis : x y z
#
# Youngs Moduli (GPa) = 71.22797 71.22797 48.33100
#
# Poissons Ratio (x) = 0.17926 0.32231
# Poissons Ratio (y) = 0.17926 0.32231
# Poissons Ratio (z) = 0.47500 0.47500
#
# Static dielectric constant tensor:
#      x y z
#    x 3.530950 0.000000 0.000000 
#    y 0.000000 3.530950 0.000000 
#    z 0.000000 0.000000 3.300550 
# 
# 
# High freq. dielectric constant tensor:
#      x y z
#    x 1.741970 0.000000 0.000000 
#    y 0.000000 1.741970 0.000000 
#    z 0.000000 0.000000 1.715830 
# 
# From -- ./inp_files/1930.got.cif
#   From: 2010.03.12/outbox.cif.g09.slc.cpg/sg161_cif.got.tgz:1930.got - 2010.04.02 06:27:14.
