data_PCOD8322558
_publ_section_title
;
Structure prediction by ZEFSAII (Michael W. Deem and Ramdas Pophale) SiO2 
 PCOD8322558
Probable space group: R 3 2
;
_chemical_formula_sum "Si O2"
_cell_formula_units_Z 108
_cell_length_a 16.398666
_cell_length_b 16.398666
_cell_length_c 22.328611
_cell_angle_alpha 90.000000
_cell_angle_beta 90.000000
_cell_angle_gamma 120.000000
_cell_volume 5200.072280
_symmetry_space_group_name_H-M "R 3 2"
_symmetry_group_IT_number 155
_symmetry_cell_setting 'hexagonal'
loop_
_space_group_symop_operation_xyz
x,y,z
-y,x-y,z
-x+y,-x,z
x-y,-y,-z
-x,-x+y,-z
y,x,-z
2/3+x,1/3+y,1/3+z
2/3-y,1/3+x-y,1/3+z
2/3-x+y,1/3-x,1/3+z
2/3+x-y,1/3-y,1/3-z
2/3-x,1/3-x+y,1/3-z
2/3+y,1/3+x,1/3-z
1/3+x,2/3+y,2/3+z
1/3-y,2/3+x-y,2/3+z
1/3-x+y,2/3-x,2/3+z
1/3+x-y,2/3-y,2/3-z
1/3-x,2/3-x+y,2/3-z
1/3+y,2/3+x,2/3-z
loop_
_atom_site_type_symbol
_atom_site_label
_atom_site_fract_x
_atom_site_fract_y
_atom_site_fract_z
Si Si1 0.548983 0.732169 0.507381
Si Si2 0.766462 0.101427 0.068595
Si Si3 0.391742 0.934186 0.109680
Si Si4 0.018435 0.752077 0.432013
Si Si5 0.804531 0.528396 0.170179
Si Si6 0.201080 0.843234 0.054510
O O1 0.622266 0.725646 0.461441
O O2 0.515491 0.800371 0.478899
O O3 0.450375 0.638605 0.516234
O O4 0.598230 0.767386 0.571898
O O5 0.779274 0.178540 0.117171
O O6 0.813696 0.046420 0.098700
O O7 0.656533 0.021173 0.057569
O O8 0.827717 0.157614 0.011456
O O9 0.333334 0.870161 0.166667
O O10 0.476681 0.916758 0.091915
O O11 0.316254 0.902930 0.055002
O O12 0.000000 0.711723 0.500000
O O13 0.928011 0.759846 0.413405
#
# Coordination Sequence:
#
# PCOD8322558 Si02
#       6
#    18  18  18  18  18  18
#     4  11  22  42  66  95 129 174 221 285 340 409
#     4  11  22  42  65  95 125 183 224 272 340 422
#     4  10  21  39  64  97 134 171 222 276 337 403
#     4  12  18  42  72  94 127 187 225 271 340 417
#     4  11  23  41  67  90 128 175 227 268 352 410
#     4  11  24  40  65  99 137 167 229 285 332 411
#
# _framework density 20.768941999999999
#
# number of rings (size 3 to 8) (size 9 to 14) (size 15 to 20)
#    0.000    1.000    8.333    0.833    7.000    0.667 
#    4.000    0.833    0.000    2.000    0.000    0.000 
#    0.000    0.000    0.000    0.000    0.000    0.000 
#
# Total GULP energy -446056.007897 kJ/mol
# GULP energy per Si atom -12390.444664 kJ/mol
# Density = 2.072167 g / cm^3
# Si number density = 20.768942 Si / 1000 Ang^3
#
#
#
# Elastic Constant Matrix: (Units=GPa)
#
#
# Indices 1 2 3 4 5 6 
#
# 1 119.7259 45.8340 36.4430 0.1593 0.0000 0.0000
# 2 45.8340 119.7259 36.4430 -0.1593 0.0000 0.0000
# 3 36.4430 36.4430 78.9880 0.0000 0.0000 0.0000
# 4 0.1593 -0.1593 0.0000 22.0889 0.0000 0.0000
# 5 0.0000 0.0000 0.0000 0.0000 22.0889 0.1593
# 6 0.0000 0.0000 0.0000 0.0000 0.1593 36.9460
#
#
#
# Elastic Compliance Matrix: (Units=1/GPa)
#
#
# Indices 1 2 3 4 5 6 
#
# 1 0.010557 -0.002977 -0.003497 -0.000098 0.000000 0.000000
# 2 -0.002977 0.010557 -0.003497 0.000098 0.000000 0.000000
# 3 -0.003497 -0.003497 0.015887 0.000000 0.000000 0.000000
# 4 -0.000098 0.000098 0.000000 0.045273 0.000000 0.000000
# 5 0.000000 0.000000 0.000000 0.000000 0.045273 -0.000195
# 6 0.000000 0.000000 0.000000 0.000000 -0.000195 0.027067
#
#
# Mechanical properties :
#
#
# Convention : Reuss Voigt Hill
#
# Bulk Modulus (GPa) = 58.62304 61.76441 60.19372
# Shear Modulus (GPa) = 27.74048 29.53942 28.63995
#
# Velocity S-wave (km/s) = 3.65865 3.77542 3.71749
# Velocity P-wave (km/s) = 6.79229 6.98630 6.88998
#
# Compressibility (1/GPa) = 0.01705814
#
# Stress axis : x y z
#
# Youngs Moduli (GPa) = 94.72680 94.72680 62.94434
#
# Poissons Ratio (x) = 0.28200 0.22012
# Poissons Ratio (y) = 0.28200 0.22012
# Poissons Ratio (z) = 0.33126 0.33126
#
# Static dielectric constant tensor:
#      x y z
#    x 3.845230 0.000000 0.000000 
#    y 0.000000 3.845230 0.000000 
#    z 0.000000 0.000000 3.636610 
# 
# 
# High freq. dielectric constant tensor:
#      x y z
#    x 1.813170 0.000000 0.000000 
#    y 0.000000 1.813170 0.000000 
#    z 0.000000 0.000000 1.791180 
# 
# From -- ./inp_files/6967.got.cif
#   From: 2010.03.12/outbox.cif.g09.slc.cpg/sg155_4_cif.got.tgz:6967.got - 2010.04.03 13:54:13.
