data_PCOD8322334
_publ_section_title
;
Structure prediction by ZEFSAII (Michael W. Deem and Ramdas Pophale) SiO2 
 PCOD8322334
Probable space group: P 32 2 1
;
_chemical_formula_sum "Si O2"
_cell_formula_units_Z 30
_cell_length_a 18.319564
_cell_length_b 18.319564
_cell_length_c 5.044202
_cell_angle_alpha 90.000000
_cell_angle_beta 90.000000
_cell_angle_gamma 120.000000
_cell_volume 1466.065482
_symmetry_space_group_name_H-M "P 32 2 1"
_symmetry_group_IT_number 154
_symmetry_cell_setting 'hexagonal'
loop_
_space_group_symop_operation_xyz
x,y,z
-y,x-y,2/3+z
-x+y,-x,1/3+z
x-y,-y,1/3-z
-x,-x+y,2/3-z
y,x,-z
loop_
_atom_site_type_symbol
_atom_site_label
_atom_site_fract_x
_atom_site_fract_y
_atom_site_fract_z
Si Si1 0.158183 0.695066 0.350050
Si Si2 0.812193 0.901553 0.144179
Si Si3 0.900757 0.723705 0.346243
Si Si4 0.743668 0.331583 0.830151
Si Si5 0.489128 0.903864 0.173626
O O1 0.146384 0.771822 0.252234
O O2 0.258875 0.730072 0.379540
O O3 0.112111 0.658595 0.630427
O O4 0.115612 0.620563 0.137040
O O5 0.772532 0.872953 0.439672
O O6 0.878528 0.000000 0.166667
O O7 0.860465 0.860465 0.000000
O O8 0.733637 0.875791 0.950221
O O9 0.000000 0.759542 0.333334
O O10 0.716571 0.399817 0.741622
O O11 0.842667 0.389848 0.904052
O O12 0.509993 0.000000 0.166667
#
# Coordination Sequence:
#
# PCOD8322334 Si02
#       5
#     6   6   6   6   6
#     4  11  22  37  62  84 118 155 200 243 305 361
#     4  10  21  36  56  80 111 148 194 245 296 358
#     4  10  20  35  54  81 112 146 190 241 295 351
#     4  10  20  38  60  87 120 154 200 243 300 364
#     4  11  22  36  59  89 120 153 200 254 299 357
#
# _framework density 20.462933
#
# number of rings (size 3 to 8) (size 9 to 14) (size 15 to 20)
#    0.000    1.600    2.000    3.600    0.000    4.000 
#    0.000    2.000    0.000    0.000    0.000    0.000 
#    0.000    0.000    0.000    0.000    0.000    0.000 
#
# Total GULP energy -371724.912050 kJ/mol
# GULP energy per Si atom -12390.830402 kJ/mol
# Density = 2.041636 g / cm^3
# Si number density = 20.462933 Si / 1000 Ang^3
#
#
#
# Elastic Constant Matrix: (Units=GPa)
#
#
# Indices 1 2 3 4 5 6 
#
# 1 102.7508 51.9069 24.6502 0.1049 0.0000 0.0000
# 2 51.9069 102.7508 24.6502 -0.1049 0.0000 0.0000
# 3 24.6502 24.6502 84.2824 0.0000 0.0000 0.0000
# 4 0.1049 -0.1049 0.0000 25.2344 0.0000 0.0000
# 5 0.0000 0.0000 0.0000 0.0000 25.2344 0.1049
# 6 0.0000 0.0000 0.0000 0.0000 0.1049 25.4219
#
#
#
# Elastic Compliance Matrix: (Units=1/GPa)
#
#
# Indices 1 2 3 4 5 6 
#
# 1 0.013400 -0.006269 -0.002086 -0.000082 0.000000 0.000000
# 2 -0.006269 0.013400 -0.002086 0.000082 0.000000 0.000000
# 3 -0.002086 -0.002086 0.013085 0.000000 0.000000 0.000000
# 4 -0.000082 0.000082 0.000000 0.039629 0.000000 0.000000
# 5 0.000000 0.000000 0.000000 0.000000 0.039629 -0.000164
# 6 0.000000 0.000000 0.000000 0.000000 -0.000164 0.039337
#
#
# Mechanical properties :
#
#
# Convention : Reuss Voigt Hill
#
# Bulk Modulus (GPa) = 52.62026 54.68871 53.65449
# Shear Modulus (GPa) = 26.92611 27.74992 27.33801
#
# Velocity S-wave (km/s) = 3.63140 3.68653 3.65907
# Velocity P-wave (km/s) = 6.58434 6.70108 6.64296
#
# Compressibility (1/GPa) = 0.01900409
#
# Stress axis : x y z
#
# Youngs Moduli (GPa) = 74.62938 74.62938 76.42462
#
# Poissons Ratio (x) = 0.46784 0.15939
# Poissons Ratio (y) = 0.46784 0.15939
# Poissons Ratio (z) = 0.15564 0.15564
#
# Static dielectric constant tensor:
#      x y z
#    x 3.713900 0.000000 0.000000 
#    y 0.000000 3.713900 0.000000 
#    z 0.000000 0.000000 3.846460 
# 
# 
# High freq. dielectric constant tensor:
#      x y z
#    x 1.784310 0.000000 0.000000 
#    y 0.000000 1.784310 0.000000 
#    z 0.000000 0.000000 1.810990 
# 
# From -- ./inp_files/344.got.cif
#   From: 2010.03.12/outbox.cif.g09.slc.cpg/sg154_1_cif.got.tgz:344.got - 2010.04.03 13:51:21.
