data_PCOD8322712
_publ_section_title
;
Structure prediction by ZEFSAII (Michael W. Deem and Ramdas Pophale) SiO2 
 PCOD8322712
Probable space group: P 3 M 1
;
_chemical_formula_sum "Si O2"
_cell_formula_units_Z 42
_cell_length_a 13.445996
_cell_length_b 13.445996
_cell_length_c 17.605179
_cell_angle_alpha 90.000000
_cell_angle_beta 90.000000
_cell_angle_gamma 120.000000
_cell_volume 2756.493878
_symmetry_space_group_name_H-M "P 3 M 1"
_symmetry_group_IT_number 156
_symmetry_cell_setting 'hexagonal'
loop_
_space_group_symop_operation_xyz
x,y,z
-y,x-y,z
-x+y,-x,z
-x+y,y,z
x,x-y,z
-y,-x,z
loop_
_atom_site_type_symbol
_atom_site_label
_atom_site_fract_x
_atom_site_fract_y
_atom_site_fract_z
Si Si1 0.224674 0.001864 0.706540
Si Si2 0.997596 0.232163 0.871437
Si Si3 0.103903 0.666339 0.979704
Si Si4 0.437662 0.333050 0.258113
Si Si5 0.436879 0.103174 0.433159
Si Si6 0.562417 0.895469 0.154555
Si Si7 0.768052 0.002710 0.541308
O O1 0.170675 0.085338 0.709151
O O2 0.291600 0.018891 0.786512
O O3 0.292018 0.022533 0.626442
O O4 0.127212 0.872788 0.702945
O O5 0.105297 0.210594 0.872328
O O6 0.014429 0.330577 0.929639
O O7 0.884936 0.115065 0.896476
O O8 0.094204 0.547102 0.955641
O O9 0.233919 0.766082 0.964484
O O10 0.070136 0.665991 0.067131
O O11 0.427847 0.213924 0.234652
O O12 0.567384 0.432617 0.242256
O O13 0.404445 0.334002 0.345504
O O14 0.348452 0.348489 0.206375
O O15 0.547725 0.095449 0.456774
O O16 0.464325 0.232163 0.449566
O O17 0.329615 0.010981 0.482503
O O18 0.432583 0.865166 0.170138
O O19 0.572272 0.786136 0.177878
O O20 0.759712 0.879856 0.532551
O O21 0.898675 0.101326 0.523686
#
# Coordination Sequence:
#
# PCOD8322712 Si02
#       7
#     6   6   6   6   6   6   6
#     4   8  13  22  37  58  82 106 132 162 198 238
#     4   9  16  26  42  63  85 107 132 165 204 243
#     4   9  17  29  44  61  81 107 138 169 199 233
#     4   9  17  29  45  63  82 105 134 168 203 238
#     4   9  17  29  44  61  81 107 138 169 199 233
#     4   9  17  29  45  63  82 105 134 168 203 238
#     4   9  16  26  42  63  85 107 132 165 204 243
#
# _framework density 15.236746999999999
#
# number of rings (size 3 to 8) (size 9 to 14) (size 15 to 20)
#    0.000    3.143    0.000    1.000    0.000    5.714 
#    0.000    0.714    0.000    0.857    0.000    0.000 
#    0.000    0.000    0.000    0.000    0.000    0.000 
#
# Total GULP energy -520458.885354 kJ/mol
# GULP energy per Si atom -12391.878223 kJ/mol
# Density = 1.520207 g / cm^3
# Si number density = 15.236747 Si / 1000 Ang^3
#
#
#
# Elastic Constant Matrix: (Units=GPa)
#
#
# Indices 1 2 3 4 5 6 
#
# 1 89.3935 47.4691 61.3768 -4.6851 -0.0001 0.0000
# 2 47.4691 89.3935 61.3768 4.6851 0.0001 0.0000
# 3 61.3768 61.3768 97.0176 0.0000 0.0000 0.0000
# 4 -4.6851 4.6851 0.0000 23.6578 0.0000 0.0001
# 5 -0.0001 0.0001 0.0000 0.0000 23.6578 -4.6851
# 6 0.0000 0.0000 0.0000 0.0001 -4.6851 20.9622
#
#
#
# Elastic Compliance Matrix: (Units=1/GPa)
#
#
# Indices 1 2 3 4 5 6 
#
# 1 0.020924 -0.004033 -0.010686 0.004942 0.000000 0.000000
# 2 -0.004033 0.020924 -0.010686 -0.004942 0.000000 0.000000
# 3 -0.010686 -0.010686 0.023828 0.000000 0.000000 0.000000
# 4 0.004942 -0.004942 0.000000 0.044227 0.000000 0.000000
# 5 0.000000 0.000000 0.000000 0.000000 0.044227 0.009885
# 6 0.000000 0.000000 0.000000 0.000000 0.009885 0.049914
#
#
# Mechanical properties :
#
#
# Convention : Reuss Voigt Hill
#
# Bulk Modulus (GPa) = 67.26568 68.47221 67.86895
# Shear Modulus (GPa) = 19.24501 20.69437 19.96969
#
# Velocity S-wave (km/s) = 3.55782 3.68936 3.62419
# Velocity P-wave (km/s) = 7.81795 7.94889 7.88369
#
# Compressibility (1/GPa) = 0.01486642
#
# Stress axis : x y z
#
# Youngs Moduli (GPa) = 47.79229 47.79229 41.96806
#
# Poissons Ratio (x) = 0.19276 0.44846
# Poissons Ratio (y) = 0.19276 0.44846
# Poissons Ratio (z) = 0.51069 0.51069
#
# Static dielectric constant tensor:
#      x y z
#    x 2.756620 0.000000 0.000000 
#    y 0.000000 2.756620 0.000000 
#    z 0.000000 0.000000 3.213320 
# 
# 
# High freq. dielectric constant tensor:
#      x y z
#    x 1.563770 0.000000 0.000000 
#    y 0.000000 1.563770 0.000000 
#    z 0.000000 0.000000 1.595220 
# 
# From -- ./inp_files/1068.got.cif
#   From: 2010.03.12/outbox.cif.g09.slc.cpg/sg156_cif.got.tgz:1068.got - 2010.04.03 13:58:47.
