data_PCOD8322286
_publ_section_title
;
Structure prediction by ZEFSAII (Michael W. Deem and Ramdas Pophale) SiO2 
 PCOD8322286
Probable space group: P 32 1 2
;
_chemical_formula_sum "Si O2"
_cell_formula_units_Z 39
_cell_length_a 11.344605
_cell_length_b 11.344605
_cell_length_c 17.995940
_cell_angle_alpha 90.000000
_cell_angle_beta 90.000000
_cell_angle_gamma 120.000000
_cell_volume 2005.782909
_symmetry_space_group_name_H-M "P 32 1 2"
_symmetry_group_IT_number 153
_symmetry_cell_setting 'hexagonal'
loop_
_space_group_symop_operation_xyz
x,y,z
-y,x-y,2/3+z
-x+y,-x,1/3+z
-y,-x,1/3-z
-x+y,y,2/3-z
x,x-y,-z
loop_
_atom_site_type_symbol
_atom_site_label
_atom_site_fract_x
_atom_site_fract_y
_atom_site_fract_z
Si Si1 0.507170 0.394082 0.244118
Si Si2 0.756176 0.977567 0.871654
Si Si3 0.762017 0.925850 0.262564
Si Si4 0.743260 0.733275 0.496730
Si Si5 0.691284 0.032741 0.661427
Si Si6 0.040029 0.080057 0.333334
Si Si7 0.898881 0.317522 0.976138
O O1 0.589509 0.410492 0.166667
O O2 0.363386 0.383292 0.220038
O O3 0.586363 0.519610 0.298802
O O4 0.476295 0.259362 0.289969
O O5 0.852047 0.110953 0.822472
O O6 0.733556 0.844251 0.825975
O O7 0.825696 0.997612 0.951494
O O8 0.677070 0.782534 0.305034
O O9 0.727299 0.041109 0.287768
O O10 0.921230 0.985882 0.277231
O O11 0.770535 0.885268 0.500000
O O12 0.653123 0.650516 0.425778
O O13 0.664258 0.654361 0.570694
O O14 0.843667 0.156334 0.666667
O O15 0.921043 0.460522 0.000000
#
# Coordination Sequence:
#
# PCOD8322286 Si02
#       7
#     6   6   6   6   6   3   6
#     4  11  22  42  64  94 131 171 213 272 325 397
#     4  11  22  37  63  99 132 162 206 274 346 390
#     4  12  20  38  68  93 128 166 212 277 333 387
#     4  11  19  37  64  92 120 161 214 266 313 386
#     4  12  20  34  67  97 120 159 217 270 327 383
#     4  12  20  38  62 100 132 158 216 274 338 392
#     4  11  25  42  61  91 136 172 213 264 322 398
#
# _framework density 19.443777999999998
#
# number of rings (size 3 to 8) (size 9 to 14) (size 15 to 20)
#    0.000    0.615    8.462    2.769    0.000    0.000 
#    2.769    1.538    5.077    0.000    0.000    0.000 
#    0.000    0.000    0.000    0.000    0.000    0.000 
#
# Total GULP energy -483407.579500 kJ/mol
# GULP energy per Si atom -12395.066141 kJ/mol
# Density = 1.939952 g / cm^3
# Si number density = 19.443778 Si / 1000 Ang^3
#
#
#
# Elastic Constant Matrix: (Units=GPa)
#
#
# Indices 1 2 3 4 5 6 
#
# 1 85.1003 32.0309 21.6092 0.0000 2.4587 0.0000
# 2 32.0309 85.1003 21.6092 0.0000 -2.4587 0.0000
# 3 21.6092 21.6092 88.6428 0.0000 0.0000 0.0000
# 4 0.0000 0.0000 0.0000 32.2237 0.0000 -2.4587
# 5 2.4587 -2.4587 0.0000 0.0000 32.2237 0.0000
# 6 0.0000 0.0000 0.0000 -2.4587 0.0000 26.5347
#
#
#
# Elastic Compliance Matrix: (Units=1/GPa)
#
#
# Indices 1 2 3 4 5 6 
#
# 1 0.014179 -0.004798 -0.002287 0.000000 -0.001448 0.000000
# 2 -0.004798 0.014179 -0.002287 0.000000 0.001448 0.000000
# 3 -0.002287 -0.002287 0.012396 0.000000 0.000000 0.000000
# 4 0.000000 0.000000 0.000000 0.031254 0.000000 0.002896
# 5 -0.001448 0.001448 0.000000 0.000000 0.031254 0.000000
# 6 0.000000 0.000000 0.000000 0.002896 0.000000 0.037955
#
#
# Mechanical properties :
#
#
# Convention : Reuss Voigt Hill
#
# Bulk Modulus (GPa) = 45.43186 45.48242 45.45714
# Shear Modulus (GPa) = 29.88664 30.43602 30.16133
#
# Velocity S-wave (km/s) = 3.92481 3.96072 3.94281
# Velocity P-wave (km/s) = 6.62988 6.66025 6.64509
#
# Compressibility (1/GPa) = 0.02201099
#
# Stress axis : x y z
#
# Youngs Moduli (GPa) = 70.52510 70.52510 80.66956
#
# Poissons Ratio (x) = 0.33839 0.18449
# Poissons Ratio (y) = 0.33839 0.18449
# Poissons Ratio (z) = 0.16129 0.16129
#
# Static dielectric constant tensor:
#      x y z
#    x 3.475370 0.000000 0.000000 
#    y 0.000000 3.475370 0.000000 
#    z 0.000000 0.000000 4.036270 
# 
# 
# High freq. dielectric constant tensor:
#      x y z
#    x 1.735740 0.000000 0.000000 
#    y 0.000000 1.735740 0.000000 
#    z 0.000000 0.000000 1.775840 
# 
# From -- ./inp_files/3544.got.cif
#   From: 2010.03.12/outbox.cif.g09.slc.cpg/sg153_2_cif.got.tgz:3544.got - 2010.04.03 13:48:33.
