data_PCOD8322738
_publ_section_title
;
Structure prediction by ZEFSAII (Michael W. Deem and Ramdas Pophale) SiO2 
 PCOD8322738
Probable space group: P 3 1 M
;
_chemical_formula_sum "Si O2"
_cell_formula_units_Z 24
_cell_length_a 16.384356
_cell_length_b 16.384356
_cell_length_c 5.196577
_cell_angle_alpha 90.000000
_cell_angle_beta 90.000000
_cell_angle_gamma 120.000000
_cell_volume 1208.110753
_symmetry_space_group_name_H-M "P 3 1 M"
_symmetry_group_IT_number 157
_symmetry_cell_setting 'hexagonal'
loop_
_space_group_symop_operation_xyz
x,y,z
-y,x-y,z
-x+y,-x,z
y,x,z
x-y,-y,z
-x,-x+y,z
loop_
_atom_site_type_symbol
_atom_site_label
_atom_site_fract_x
_atom_site_fract_y
_atom_site_fract_z
Si Si1 0.676845 0.787686 0.556280
Si Si2 0.398272 0.510402 0.069723
Si Si3 0.398272 0.887870 0.569724
Si Si4 0.787686 0.110841 0.056280
O O1 0.739645 0.739645 0.597561
O O2 0.566258 0.711668 0.569989
O O3 0.701773 0.838196 0.280662
O O4 0.701773 0.863577 0.780662
O O5 0.459022 0.459022 0.066316
O O6 0.422981 0.576202 0.320332
O O7 0.288332 0.433742 0.069990
O O8 0.423798 0.577019 0.820332
O O9 0.459023 0.000000 0.566317
O O10 0.739645 0.000000 0.097562
#
# Coordination Sequence:
#
# PCOD8322738 Si02
#       4
#     6   6   6   6
#     4  11  22  37  59  85 114 152 200 250 295 343
#     4   9  17  31  53  79 104 132 170 218 274 339
#     4   9  17  31  53  79 104 132 170 218 274 339
#     4  11  22  37  59  85 114 152 200 250 295 343
#
# _framework density 19.865728000000001
#
# number of rings (size 3 to 8) (size 9 to 14) (size 15 to 20)
#    0.000    2.000    0.000    4.500    0.000    8.000 
#    0.000    0.000    0.000   30.000    0.000    0.000 
#    0.000    0.000    0.000    0.000    0.000    0.000 
#
# Total GULP energy -297664.110301 kJ/mol
# GULP energy per Si atom -12402.671263 kJ/mol
# Density = 1.982051 g / cm^3
# Si number density = 19.865728 Si / 1000 Ang^3
#
#
#
# Elastic Constant Matrix: (Units=GPa)
#
#
# Indices 1 2 3 4 5 6 
#
# 1 68.0291 21.8080 21.6797 0.0000 0.0000 0.0000
# 2 21.8080 68.0291 21.6797 0.0000 0.0000 0.0000
# 3 21.6797 21.6797 146.0908 0.0000 0.0000 0.0000
# 4 0.0000 0.0000 0.0000 32.7044 0.0000 0.0000
# 5 0.0000 0.0000 0.0000 0.0000 32.7044 0.0000
# 6 0.0000 0.0000 0.0000 0.0000 0.0000 23.1106
#
#
#
# Elastic Compliance Matrix: (Units=1/GPa)
#
#
# Indices 1 2 3 4 5 6 
#
# 1 0.016813 -0.004823 -0.001779 0.000000 0.000000 0.000000
# 2 -0.004823 0.016813 -0.001779 0.000000 0.000000 0.000000
# 3 -0.001779 -0.001779 0.007373 0.000000 0.000000 0.000000
# 4 0.000000 0.000000 0.000000 0.030577 0.000000 0.000000
# 5 0.000000 0.000000 0.000000 0.000000 0.030577 0.000000
# 6 0.000000 0.000000 0.000000 0.000000 0.000000 0.043270
#
#
# Mechanical properties :
#
#
# Convention : Reuss Voigt Hill
#
# Bulk Modulus (GPa) = 41.26092 45.83151 43.54621
# Shear Modulus (GPa) = 29.36627 32.16932 30.76779
#
# Velocity S-wave (km/s) = 3.84896 4.02846 3.93973
# Velocity P-wave (km/s) = 6.36927 6.69020 6.53171
#
# Compressibility (1/GPa) = 0.02423601
#
# Stress axis : x y z
#
# Youngs Moduli (GPa) = 59.47927 59.47927 135.62726
#
# Poissons Ratio (x) = 0.28684 0.24132
# Poissons Ratio (y) = 0.28684 0.24132
# Poissons Ratio (z) = 0.10583 0.10583
#
# Static dielectric constant tensor:
#      x y z
#    x 3.393690 0.000000 0.000000 
#    y 0.000000 3.393690 0.000000 
#    z 0.000000 0.000000 3.830460 
# 
# 
# High freq. dielectric constant tensor:
#      x y z
#    x 1.755620 0.000000 0.000000 
#    y 0.000000 1.755620 0.000000 
#    z 0.000000 0.000000 1.796760 
# 
# From -- ./inp_files/68.got.cif
#   From: 2010.03.12/outbox.cif.g09.slc.cpg/sg157_cif.got.tgz:68.got - 2010.04.03 13:59:21.
