data_PCOD8322501
_publ_section_title
;
Structure prediction by ZEFSAII (Michael W. Deem and Ramdas Pophale) SiO2 
 PCOD8322501
Probable space group: R 3 2
;
_chemical_formula_sum "Si O2"
_cell_formula_units_Z 48
_cell_length_a 13.365116
_cell_length_b 13.365116
_cell_length_c 13.954611
_cell_angle_alpha 90.000000
_cell_angle_beta 90.000000
_cell_angle_gamma 120.000000
_cell_volume 2158.707653
_symmetry_space_group_name_H-M "R 3 2"
_symmetry_group_IT_number 155
_symmetry_cell_setting 'hexagonal'
loop_
_space_group_symop_operation_xyz
x,y,z
-y,x-y,z
-x+y,-x,z
x-y,-y,-z
-x,-x+y,-z
y,x,-z
2/3+x,1/3+y,1/3+z
2/3-y,1/3+x-y,1/3+z
2/3-x+y,1/3-x,1/3+z
2/3+x-y,1/3-y,1/3-z
2/3-x,1/3-x+y,1/3-z
2/3+y,1/3+x,1/3-z
1/3+x,2/3+y,2/3+z
1/3-y,2/3+x-y,2/3+z
1/3-x+y,2/3-x,2/3+z
1/3+x-y,2/3-y,2/3-z
1/3-x,2/3-x+y,2/3-z
1/3+y,2/3+x,2/3-z
loop_
_atom_site_type_symbol
_atom_site_label
_atom_site_fract_x
_atom_site_fract_y
_atom_site_fract_z
Si Si1 0.321043 0.987710 0.833334
Si Si2 0.666668 0.333335 0.990214
Si Si3 0.809642 0.000000 0.000000
Si Si4 0.173197 0.407688 0.004438
Si Si5 0.666668 0.333334 0.455467
O O1 0.422634 0.014508 0.760457
O O2 0.300881 0.881948 0.903769
O O3 0.737309 0.466790 0.956640
O O4 0.666668 0.333334 0.101186
O O5 0.893697 0.017416 0.910855
O O6 0.680225 0.897998 0.981159
#
# Coordination Sequence:
#
# PCOD8322501 Si02
#       5
#     9   6   9  18   6
#     4  10  22  42  66  88 120 160 210 260 312 368
#     4  12  25  38  58  90 133 173 208 247 308 382
#     4  10  20  38  66  94 120 154 210 274 322 366
#     4  11  23  41  63  92 124 164 208 259 313 372
#     4  10  19  39  67  94 121 158 214 274 320 370
#
# _framework density 22.235526
#
# number of rings (size 3 to 8) (size 9 to 14) (size 15 to 20)
#    0.000    1.500    0.000    9.000    0.000    4.500 
#    0.000    3.750    0.000    0.000    0.000    0.000 
#    0.000    0.000    0.000    0.000    0.000    0.000 
#
# Total GULP energy -198217.665007 kJ/mol
# GULP energy per Si atom -12388.604063 kJ/mol
# Density = 2.218492 g / cm^3
# Si number density = 22.235526 Si / 1000 Ang^3
#
#
#
# Elastic Constant Matrix: (Units=GPa)
#
#
# Indices 1 2 3 4 5 6 
#
# 1 137.3698 77.9100 21.3456 5.9507 0.0002 0.0000
# 2 77.9100 137.3732 21.3463 -5.9510 -0.0002 0.0000
# 3 21.3456 21.3463 107.7215 0.0003 0.0000 0.0000
# 4 5.9507 -5.9510 0.0003 21.1583 0.0000 -0.0002
# 5 0.0002 -0.0002 0.0000 0.0000 21.1589 5.9516
# 6 0.0000 0.0000 0.0000 -0.0002 5.9516 29.7305
#
#
#
# Elastic Compliance Matrix: (Units=1/GPa)
#
#
# Indices 1 2 3 4 5 6 
#
# 1 0.011328 -0.006493 -0.000958 -0.005012 0.000000 0.000000
# 2 -0.006493 0.011328 -0.000958 0.005012 0.000000 0.000000
# 3 -0.000958 -0.000958 0.009663 0.000000 0.000000 0.000000
# 4 -0.005012 0.005012 0.000000 0.050082 0.000000 0.000000
# 5 0.000000 0.000000 0.000000 0.000000 0.050081 -0.010026
# 6 0.000000 0.000000 0.000000 0.000000 -0.010026 0.035643
#
#
# Mechanical properties :
#
#
# Convention : Reuss Voigt Hill
#
# Bulk Modulus (GPa) = 64.51352 69.29647 66.90499
# Shear Modulus (GPa) = 26.30057 31.86704 29.08381
#
# Velocity S-wave (km/s) = 3.44294 3.78982 3.62054
# Velocity P-wave (km/s) = 6.69939 7.09808 6.90161
#
# Compressibility (1/GPa) = 0.01550063
#
# Stress axis : x y z
#
# Youngs Moduli (GPa) = 88.27621 88.27818 103.48841
#
# Poissons Ratio (x) = 0.57318 0.09915
# Poissons Ratio (y) = 0.57317 0.09916
# Poissons Ratio (z) = 0.08457 0.08458
#
# Static dielectric constant tensor:
#      x y z
#    x 4.199430 0.000000 0.000000 
#    y 0.000000 4.199370 0.000010 
#    z 0.000000 0.000010 4.070030 
# 
# 
# High freq. dielectric constant tensor:
#      x y z
#    x 1.867590 0.000000 0.000000 
#    y 0.000000 1.867590 0.000000 
#    z 0.000000 0.000000 1.882110 
# 
# From -- ./inp_files/4615.got.cif
#   From: 2010.03.12/outbox.cif.g09.slc.cpg/sg155_3_cif.got.tgz:4615.got - 2010.04.03 13:54:13.
