data_PCOD8322553
_publ_section_title
;
Structure prediction by ZEFSAII (Michael W. Deem and Ramdas Pophale) SiO2 
 PCOD8322553
Probable space group: R 3 2
;
_chemical_formula_sum "Si O2"
_cell_formula_units_Z 93
_cell_length_a 16.509425
_cell_length_b 16.509425
_cell_length_c 20.118226
_cell_angle_alpha 90.000000
_cell_angle_beta 90.000000
_cell_angle_gamma 120.000000
_cell_volume 4748.803611
_symmetry_space_group_name_H-M "R 3 2"
_symmetry_group_IT_number 155
_symmetry_cell_setting 'hexagonal'
loop_
_space_group_symop_operation_xyz
x,y,z
-y,x-y,z
-x+y,-x,z
x-y,-y,-z
-x,-x+y,-z
y,x,-z
2/3+x,1/3+y,1/3+z
2/3-y,1/3+x-y,1/3+z
2/3-x+y,1/3-x,1/3+z
2/3+x-y,1/3-y,1/3-z
2/3-x,1/3-x+y,1/3-z
2/3+y,1/3+x,1/3-z
1/3+x,2/3+y,2/3+z
1/3-y,2/3+x-y,2/3+z
1/3-x+y,2/3-x,2/3+z
1/3+x-y,2/3-y,2/3-z
1/3-x,2/3-x+y,2/3-z
1/3+y,2/3+x,2/3-z
loop_
_atom_site_type_symbol
_atom_site_label
_atom_site_fract_x
_atom_site_fract_y
_atom_site_fract_z
Si Si1 0.515880 0.374556 0.131691
Si Si2 0.000000 0.270580 0.500000
Si Si3 0.584642 0.122870 0.659628
Si Si4 0.000000 0.000000 0.334826
Si Si5 0.436933 0.068669 0.055129
Si Si6 0.000000 0.000000 0.177473
Si Si7 0.618840 0.859055 0.129501
O O1 0.590717 0.465257 0.092034
O O2 0.575363 0.340255 0.176998
O O3 0.454123 0.397079 0.181608
O O4 0.451177 0.299565 0.075764
O O5 0.980052 0.319673 0.561477
O O6 0.911420 0.170509 0.484134
O O7 0.630399 0.227256 0.691414
O O8 0.475151 0.080308 0.645851
O O9 0.591860 0.057962 0.716747
O O10 0.000000 0.000000 0.256280
O O11 0.441946 0.000000 0.000000
O O12 0.545322 0.878655 0.166667
#
# Coordination Sequence:
#
# PCOD8322553 Si02
#       7
#    18   9  18   6  18   6  18
#     4  10  21  38  62  91 122 163 212 257 309 379
#     4  10  24  40  58  90 128 166 202 258 314 382
#     4  11  20  39  63  86 124 166 208 254 312 375
#     4   9  18  30  61  97 105 163 211 235 305 385
#     4  11  20  37  61  91 125 163 207 256 314 373
#     4   9  15  39  66  88 109 161 210 259 296 370
#     4  11  26  38  55  92 129 165 205 256 319 371
#
# _framework density 19.583879
#
# number of rings (size 3 to 8) (size 9 to 14) (size 15 to 20)
#    0.000    1.548    7.742    0.000    8.129    0.000 
#    2.323    0.000    0.000    0.000    0.000    0.000 
#    0.000    3.871    0.000    0.000    0.000    0.000 
#
# Total GULP energy -384339.777656 kJ/mol
# GULP energy per Si atom -12398.057344 kJ/mol
# Density = 1.953931 g / cm^3
# Si number density = 19.583879 Si / 1000 Ang^3
#
#
#
# Elastic Constant Matrix: (Units=GPa)
#
#
# Indices 1 2 3 4 5 6 
#
# 1 99.8989 41.2164 40.9857 10.3423 0.0000 0.0000
# 2 41.2164 99.8989 40.9857 -10.3423 0.0000 0.0000
# 3 40.9857 40.9857 68.8747 0.0000 0.0000 0.0000
# 4 10.3423 -10.3423 0.0000 28.6509 0.0000 0.0000
# 5 0.0000 0.0000 0.0000 0.0000 28.6509 10.3423
# 6 0.0000 0.0000 0.0000 0.0000 10.3423 29.3413
#
#
#
# Elastic Compliance Matrix: (Units=1/GPa)
#
#
# Indices 1 2 3 4 5 6 
#
# 1 0.015178 -0.004348 -0.006445 -0.007048 0.000000 0.000000
# 2 -0.004348 0.015178 -0.006445 0.007048 0.000000 0.000000
# 3 -0.006445 -0.006445 0.022189 0.000000 0.000000 0.000000
# 4 -0.007048 0.007048 0.000000 0.039991 0.000000 0.000000
# 5 0.000000 0.000000 0.000000 0.000000 0.039991 -0.014096
# 6 0.000000 0.000000 0.000000 0.000000 -0.014096 0.039050
#
#
# Mechanical properties :
#
#
# Convention : Reuss Voigt Hill
#
# Bulk Modulus (GPa) = 55.33861 57.22756 56.28308
# Shear Modulus (GPa) = 23.57657 27.02760 25.30209
#
# Velocity S-wave (km/s) = 3.47346 3.71899 3.59832
# Velocity P-wave (km/s) = 6.66372 6.90843 6.78718
#
# Compressibility (1/GPa) = 0.01807057
#
# Stress axis : x y z
#
# Youngs Moduli (GPa) = 65.88660 65.88660 45.06686
#
# Poissons Ratio (x) = 0.28645 0.29044
# Poissons Ratio (y) = 0.28645 0.29044
# Poissons Ratio (z) = 0.42462 0.42462
#
# Static dielectric constant tensor:
#      x y z
#    x 3.893450 0.000000 0.000000 
#    y 0.000000 3.893450 0.000000 
#    z 0.000000 0.000000 3.464900 
# 
# 
# High freq. dielectric constant tensor:
#      x y z
#    x 1.759820 0.000000 0.000000 
#    y 0.000000 1.759820 0.000000 
#    z 0.000000 0.000000 1.738350 
# 
# From -- ./inp_files/6916.got.cif
#   From: 2010.03.12/outbox.cif.g09.slc.cpg/sg155_4_cif.got.tgz:6916.got - 2010.04.03 13:54:13.
