data_PCOD8322003
_publ_section_title
;
Structure prediction by ZEFSAII (Michael W. Deem and Ramdas Pophale) SiO2 
 PCOD8322003
Probable space group: P 31 1 2
;
_chemical_formula_sum "Si O2"
_cell_formula_units_Z 24
_cell_length_a 16.327510
_cell_length_b 16.327510
_cell_length_c 4.991705
_cell_angle_alpha 90.000000
_cell_angle_beta 90.000000
_cell_angle_gamma 120.000000
_cell_volume 1152.443015
_symmetry_space_group_name_H-M "P 31 1 2"
_symmetry_group_IT_number 151
_symmetry_cell_setting 'hexagonal'
loop_
_space_group_symop_operation_xyz
x,y,z
-y,x-y,1/3+z
-x+y,-x,2/3+z
-y,-x,2/3-z
-x+y,y,1/3-z
x,x-y,-z
loop_
_atom_site_type_symbol
_atom_site_label
_atom_site_fract_x
_atom_site_fract_y
_atom_site_fract_z
Si Si1 0.642556 0.466007 0.579783
Si Si2 0.577606 0.606025 0.409321
Si Si3 0.646250 0.732282 0.906141
Si Si4 0.159336 0.025227 0.258093
O O1 0.608883 0.391118 0.333334
O O2 0.748226 0.496451 0.666667
O O3 0.638639 0.557919 0.493353
O O4 0.575104 0.424897 0.833334
O O5 0.469447 0.530554 0.333334
O O6 0.584782 0.677808 0.643318
O O7 0.625381 0.659840 0.141240
O O8 0.756599 0.778214 0.843961
O O9 0.617773 0.808887 0.000000
O O10 0.203027 0.101514 0.500000
O O11 0.152110 0.076055 0.000000
O O12 0.054995 0.945006 0.333334
#
# Coordination Sequence:
#
# PCOD8322003 Si02
#       4
#     6   6   6   6
#     4  11  22  37  59  89 127 169 209 245 285 339
#     4  11  23  42  65  90 120 157 201 251 309 366
#     4  11  24  42  64  90 120 157 200 250 310 367
#     4  11  22  37  59  89 127 169 208 244 286 340
#
# _framework density 20.825326
#
# number of rings (size 3 to 8) (size 9 to 14) (size 15 to 20)
#    0.000    1.000    0.000    9.000    0.000    7.000 
#    0.000    2.500    0.000    7.500    0.000    0.000 
#    0.000    0.000    0.000    0.000    0.000    0.000 
#
# Total GULP energy -297681.703817 kJ/mol
# GULP energy per Si atom -12403.404326 kJ/mol
# Density = 2.077793 g / cm^3
# Si number density = 20.825326 Si / 1000 Ang^3
#
#
#
# Elastic Constant Matrix: (Units=GPa)
#
#
# Indices 1 2 3 4 5 6 
#
# 1 86.2546 70.1579 44.4948 -0.0040 -7.9997 0.0000
# 2 70.1579 86.2546 44.4948 0.0040 7.9997 0.0000
# 3 44.4948 44.4948 149.7830 0.0000 0.0000 0.0000
# 4 -0.0040 0.0040 0.0000 51.6388 0.0000 7.9997
# 5 -7.9997 7.9997 0.0000 0.0000 51.6388 -0.0040
# 6 0.0000 0.0000 0.0000 7.9997 -0.0040 8.0483
#
#
#
# Elastic Compliance Matrix: (Units=1/GPa)
#
#
# Indices 1 2 3 4 5 6 
#
# 1 0.040563 -0.032869 -0.002285 0.000006 0.011376 0.000000
# 2 -0.032869 0.040563 -0.002285 -0.000006 -0.011376 0.000000
# 3 -0.002285 -0.002285 0.008034 0.000000 0.000000 0.000000
# 4 0.000006 -0.000006 0.000000 0.022890 0.000000 -0.022752
# 5 0.011376 -0.011376 0.000000 0.000000 0.022890 0.000011
# 6 0.000000 0.000000 0.000000 -0.022752 0.000011 0.146863
#
#
# Mechanical properties :
#
#
# Convention : Reuss Voigt Hill
#
# Bulk Modulus (GPa) = 70.03024 71.17634 70.60329
# Shear Modulus (GPa) = 13.83347 33.14149 23.48748
#
# Velocity S-wave (km/s) = 2.58012 3.99357 3.36197
# Velocity P-wave (km/s) = 6.52507 7.45096 7.00333
#
# Compressibility (1/GPa) = 0.01427955
#
# Stress axis : x y z
#
# Youngs Moduli (GPa) = 24.65323 24.65323 124.46805
#
# Poissons Ratio (x) = 0.81033 0.28447
# Poissons Ratio (y) = 0.81033 0.28447
# Poissons Ratio (z) = 0.05634 0.05634
#
# Static dielectric constant tensor:
#      x y z
#    x 2.705640 0.000000 0.000000 
#    y 0.000000 2.705640 0.000000 
#    z 0.000000 0.000000 3.641640 
# 
# 
# High freq. dielectric constant tensor:
#      x y z
#    x 1.809970 0.000000 0.000000 
#    y 0.000000 1.809970 0.000000 
#    z 0.000000 0.000000 1.843790 
# 
# From -- ./inp_files/169.got.cif
#   From: 2010.03.12/outbox.cif.g09.slc.cpg/sg151_1_cif.got.tgz:169.got - 2010.04.03 13:42:29.
