data_PCOD8322761
_publ_section_title
;
Structure prediction by ZEFSAII (Michael W. Deem and Ramdas Pophale) SiO2 
 PCOD8322761
Probable space group: P 3 C 1
;
_chemical_formula_sum "Si O2"
_cell_formula_units_Z 28
_cell_length_a 8.364610
_cell_length_b 8.364610
_cell_length_c 23.455408
_cell_angle_alpha 90.000000
_cell_angle_beta 90.000000
_cell_angle_gamma 120.000000
_cell_volume 1421.232130
_symmetry_space_group_name_H-M "P 3 C 1"
_symmetry_group_IT_number 158
_symmetry_cell_setting 'hexagonal'
loop_
_space_group_symop_operation_xyz
x,y,z
-y,x-y,z
-x+y,-x,z
-x+y,y,1/2+z
x,x-y,1/2+z
-y,-x,1/2+z
loop_
_atom_site_type_symbol
_atom_site_label
_atom_site_fract_x
_atom_site_fract_y
_atom_site_fract_z
Si Si1 0.333334 0.666668 0.236635
Si Si2 0.338090 0.293820 0.982882
Si Si3 0.036185 0.664416 0.314349
Si Si4 0.333334 0.666667 0.602328
Si Si5 0.331081 0.961563 0.024614
Si Si6 0.710937 0.039514 0.856081
O O1 0.149806 0.671781 0.257270
O O2 0.333334 0.666667 0.169481
O O3 0.333336 0.215858 0.919481
O O4 0.189630 0.361478 0.985188
O O5 0.534880 0.472492 0.993492
O O6 0.293807 0.134380 0.030846
O O7 0.826094 0.627141 0.308117
O O8 0.028147 0.505182 0.353774
O O9 0.131786 0.860841 0.345471
O O10 0.516866 0.855305 0.581693
#
# Coordination Sequence:
#
# PCOD8322761 Si02
#       6
#     2   6   6   2   6   6
#     4   9  21  45  64  80 112 153 201 261 298 326
#     4  11  19  33  52  82 118 151 181 229 286 352
#     4  10  22  34  55  84 114 152 198 232 283 354
#     4   9  21  45  64  80 112 153 201 261 298 326
#     4  10  22  34  55  84 114 152 198 232 283 354
#     4  11  19  33  52  82 118 151 181 229 286 352
#
# _framework density 19.701215999999999
#
# number of rings (size 3 to 8) (size 9 to 14) (size 15 to 20)
#    0.000    1.714    0.000    6.429    0.000    0.000 
#    0.000    8.571    0.000    0.000    0.000    0.000 
#    0.000    0.000    0.000    0.000    0.000    0.000 
#
# Total GULP energy -346874.996860 kJ/mol
# GULP energy per Si atom -12388.392745 kJ/mol
# Density = 1.965638 g / cm^3
# Si number density = 19.701216 Si / 1000 Ang^3
#
#
#
# Elastic Constant Matrix: (Units=GPa)
#
#
# Indices 1 2 3 4 5 6 
#
# 1 101.4837 25.0825 45.2968 -0.2374 0.0000 0.0000
# 2 25.0825 101.4838 45.2966 0.2375 0.0000 0.0000
# 3 45.2968 45.2966 124.2376 0.0001 0.0000 0.0000
# 4 -0.2374 0.2375 0.0001 19.8916 0.0000 0.0000
# 5 0.0000 0.0000 0.0000 0.0000 19.8916 -0.2374
# 6 0.0000 0.0000 0.0000 0.0000 -0.2374 38.2007
#
#
#
# Elastic Compliance Matrix: (Units=1/GPa)
#
#
# Indices 1 2 3 4 5 6 
#
# 1 0.011890 -0.001199 -0.003898 0.000156 0.000000 0.000000
# 2 -0.001199 0.011890 -0.003898 -0.000156 0.000000 0.000000
# 3 -0.003898 -0.003898 0.010891 0.000000 0.000000 0.000000
# 4 0.000156 -0.000156 0.000000 0.050276 0.000000 0.000000
# 5 0.000000 0.000000 0.000000 0.000000 0.050276 0.000312
# 6 0.000000 0.000000 0.000000 0.000000 0.000312 0.026179
#
#
# Mechanical properties :
#
#
# Convention : Reuss Voigt Hill
#
# Bulk Modulus (GPa) = 59.94547 62.06188 61.00368
# Shear Modulus (GPa) = 27.03358 29.69872 28.36615
#
# Velocity S-wave (km/s) = 3.70831 3.88681 3.79861
# Velocity P-wave (km/s) = 6.98776 7.19117 7.09020
#
# Compressibility (1/GPa) = 0.01668183
#
# Stress axis : x y z
#
# Youngs Moduli (GPa) = 84.10131 84.10149 91.81519
#
# Poissons Ratio (x) = 0.10087 0.35789
# Poissons Ratio (y) = 0.10087 0.35789
# Poissons Ratio (z) = 0.32782 0.32782
#
# Static dielectric constant tensor:
#      x y z
#    x 3.835730 0.000000 0.000000 
#    y 0.000000 3.835720 0.000000 
#    z 0.000000 0.000000 3.009060 
# 
# 
# High freq. dielectric constant tensor:
#      x y z
#    x 1.789380 0.000000 0.000000 
#    y 0.000000 1.789380 0.000000 
#    z 0.000000 0.000000 1.698140 
# 
# From -- ./inp_files/735.got.cif
#   From: 2010.03.12/outbox.cif.g09.slc.cpg/sg158_cif.got.tgz:735.got - 2010.04.03 13:59:47.
