data_PCOD8322447
_publ_section_title
;
Structure prediction by ZEFSAII (Michael W. Deem and Ramdas Pophale) SiO2 
 PCOD8322447
Probable space group: P 32 2 1
;
_chemical_formula_sum "Si O2"
_cell_formula_units_Z 15
_cell_length_a 8.812390
_cell_length_b 8.812390
_cell_length_c 7.293063
_cell_angle_alpha 90.000000
_cell_angle_beta 90.000000
_cell_angle_gamma 120.000000
_cell_volume 490.487580
_symmetry_space_group_name_H-M "P 32 2 1"
_symmetry_group_IT_number 154
_symmetry_cell_setting 'hexagonal'
loop_
_space_group_symop_operation_xyz
x,y,z
-y,x-y,2/3+z
-x+y,-x,1/3+z
x-y,-y,1/3-z
-x,-x+y,2/3-z
y,x,-z
loop_
_atom_site_type_symbol
_atom_site_label
_atom_site_fract_x
_atom_site_fract_y
_atom_site_fract_z
Si Si1 0.000000 0.375420 0.333334
Si Si2 0.998723 0.801722 0.135149
Si Si3 0.527684 0.224447 0.361594
O O1 0.162582 0.346619 0.287339
O O2 0.056764 0.502854 0.513455
O O3 0.000000 0.722353 0.333334
O O4 0.025879 0.000000 0.166667
O O5 0.151582 0.822237 0.002051
O O6 0.607350 0.242815 0.159735
#
# Coordination Sequence:
#
# PCOD8322447 Si02
#       3
#     3   6   6
#     4  12  26  52  90 118 164 218 290 346 406 498
#     4  12  24  50  87 124 158 215 293 351 402 488
#     4  12  32  56  80 127 180 226 271 350 440 515
#
# _framework density 30.581816
#
# number of rings (size 3 to 8) (size 9 to 14) (size 15 to 20)
#    0.000    0.000    6.000    1.200    5.600    9.600 
#    0.000    0.000    0.000    0.000    0.000    0.000 
#    0.000    0.000    0.000    0.000    0.000    0.000 
#
# Total GULP energy -185897.746586 kJ/mol
# GULP energy per Si atom -12393.183106 kJ/mol
# Density = 3.051221 g / cm^3
# Si number density = 30.581816 Si / 1000 Ang^3
#
#
#
# Elastic Constant Matrix: (Units=GPa)
#
#
# Indices 1 2 3 4 5 6 
#
# 1 47.8699 -21.3295 9.0507 -2.1770 0.0000 0.0000
# 2 -21.3295 47.8699 9.0507 2.1770 0.0000 0.0000
# 3 9.0507 9.0507 182.1964 0.0000 0.0000 0.0000
# 4 -2.1770 2.1770 0.0000 48.1902 0.0000 0.0000
# 5 0.0000 0.0000 0.0000 0.0000 48.1902 -2.1770
# 6 0.0000 0.0000 0.0000 0.0000 -2.1770 34.5997
#
#
#
# Elastic Compliance Matrix: (Units=1/GPa)
#
#
# Indices 1 2 3 4 5 6 
#
# 1 0.026746 0.012254 -0.001937 0.000655 0.000000 0.000000
# 2 0.012254 0.026746 -0.001937 -0.000655 0.000000 0.000000
# 3 -0.001937 -0.001937 0.005681 0.000000 0.000000 0.000000
# 4 0.000655 -0.000655 0.000000 0.020810 0.000000 0.000000
# 5 0.000000 0.000000 0.000000 0.000000 0.020810 0.001309
# 6 0.000000 0.000000 0.000000 0.000000 0.001309 0.028984
#
#
# Mechanical properties :
#
#
# Convention : Reuss Voigt Hill
#
# Bulk Modulus (GPa) = 13.16981 30.16445 21.66713
# Shear Modulus (GPa) = 36.14542 44.94029 40.54285
#
# Velocity S-wave (km/s) = 3.44164 3.83758 3.64499
# Velocity P-wave (km/s) = 4.48430 5.43332 4.98146
#
# Compressibility (1/GPa) = 0.07593124
#
# Stress axis : x y z
#
# Youngs Moduli (GPa) = 37.38879 37.38879 176.02348
#
# Poissons Ratio (x) = -0.45815 0.34102
# Poissons Ratio (y) = -0.45815 0.34102
# Poissons Ratio (z) = 0.07243 0.07243
#
# Static dielectric constant tensor:
#      x y z
#    x 5.491930 0.000000 0.000000 
#    y 0.000000 5.491930 0.000000 
#    z 0.000000 0.000000 6.319060 
# 
# 
# High freq. dielectric constant tensor:
#      x y z
#    x 2.247710 0.000000 0.000000 
#    y 0.000000 2.247710 0.000000 
#    z 0.000000 0.000000 2.301040 
# 
# From -- ./inp_files/677.got.cif
#   From: 2010.03.12/outbox.cif.g09.slc.cpg/sg154_1_cif.got.tgz:677.got - 2010.04.03 13:51:21.
