data_PCOD8322079
_publ_section_title
;
Structure prediction by ZEFSAII (Michael W. Deem and Ramdas Pophale) SiO2 
 PCOD8322079
Probable space group: P 31 2 1
;
_chemical_formula_sum "Si O2"
_cell_formula_units_Z 36
_cell_length_a 8.791454
_cell_length_b 8.791454
_cell_length_c 26.451454
_cell_angle_alpha 90.000000
_cell_angle_beta 90.000000
_cell_angle_gamma 120.000000
_cell_volume 1770.523100
_symmetry_space_group_name_H-M "P 31 2 1"
_symmetry_group_IT_number 152
_symmetry_cell_setting 'hexagonal'
loop_
_space_group_symop_operation_xyz
x,y,z
-y,x-y,1/3+z
-x+y,-x,2/3+z
x-y,-y,2/3-z
-x,-x+y,1/3-z
y,x,-z
loop_
_atom_site_type_symbol
_atom_site_label
_atom_site_fract_x
_atom_site_fract_y
_atom_site_fract_z
Si Si1 0.204400 0.404019 0.546856
Si Si2 0.137923 0.201503 0.054777
Si Si3 0.071003 0.460844 0.270204
Si Si4 0.559432 0.496506 0.946543
Si Si5 0.750703 0.849921 0.769316
Si Si6 0.268301 0.556021 0.369377
O O1 0.409973 0.561046 0.554160
O O2 0.153774 0.351135 0.489029
O O3 0.187475 0.238728 0.577826
O O4 0.061280 0.448606 0.568122
O O5 0.319316 0.377369 0.051471
O O6 0.980347 0.237786 0.071765
O O7 0.161222 0.088248 0.099305
O O8 0.102135 0.102135 0.000000
O O9 0.228266 0.553048 0.310340
O O10 0.899077 0.456772 0.291515
O O11 0.709027 0.442862 0.938332
O O12 0.596534 0.596534 0.000000
O O13 0.610500 0.715268 0.729120
#
# Coordination Sequence:
#
# PCOD8322079 Si02
#       6
#     6   6   6   6   6   6
#     4  10  22  39  57  83 123 163 196 250 311 380
#     4  10  20  36  60  89 117 153 205 264 307 364
#     4  10  20  36  59  86 114 156 201 251 306 367
#     4  10  20  35  57  87 117 151 201 250 299 371
#     4  10  22  39  56  84 124 157 201 251 312 371
#     4  10  20  35  57  86 115 151 198 249 304 361
#
# _framework density 20.332972999999999
#
# number of rings (size 3 to 8) (size 9 to 14) (size 15 to 20)
#    0.000    2.000    3.333    0.000    0.000    3.333 
#    0.000   10.000    0.000    0.000    0.000    0.000 
#    0.000    0.000    0.000    0.000    0.000    0.000 
#
# Total GULP energy -446082.006537 kJ/mol
# GULP energy per Si atom -12391.166848 kJ/mol
# Density = 2.028669 g / cm^3
# Si number density = 20.332973 Si / 1000 Ang^3
#
#
#
# Elastic Constant Matrix: (Units=GPa)
#
#
# Indices 1 2 3 4 5 6 
#
# 1 86.7711 26.8243 28.9440 4.1668 0.0000 0.0000
# 2 26.8243 86.7711 28.9440 -4.1668 0.0000 0.0000
# 3 28.9440 28.9440 85.2211 0.0000 0.0000 0.0000
# 4 4.1668 -4.1668 0.0000 29.5929 0.0000 0.0000
# 5 0.0000 0.0000 0.0000 0.0000 29.5929 4.1668
# 6 0.0000 0.0000 0.0000 0.0000 4.1668 29.9734
#
#
#
# Elastic Compliance Matrix: (Units=1/GPa)
#
#
# Indices 1 2 3 4 5 6 
#
# 1 0.013830 -0.003184 -0.003616 -0.002396 0.000000 0.000000
# 2 -0.003184 0.013830 -0.003616 0.002396 0.000000 0.000000
# 3 -0.003616 -0.003616 0.014190 0.000000 0.000000 0.000000
# 4 -0.002396 0.002396 0.000000 0.034467 0.000000 0.000000
# 5 0.000000 0.000000 0.000000 0.000000 0.034467 -0.004791
# 6 0.000000 0.000000 0.000000 0.000000 -0.004791 0.034029
#
#
# Mechanical properties :
#
#
# Convention : Reuss Voigt Hill
#
# Bulk Modulus (GPa) = 47.57602 47.57644 47.57623
# Shear Modulus (GPa) = 28.96027 29.43521 29.19774
#
# Velocity S-wave (km/s) = 3.77809 3.80894 3.79354
# Velocity P-wave (km/s) = 6.51776 6.54167 6.52973
#
# Compressibility (1/GPa) = 0.02101899
#
# Stress axis : x y z
#
# Youngs Moduli (GPa) = 72.30599 72.30599 70.47131
#
# Poissons Ratio (x) = 0.23025 0.25480
# Poissons Ratio (y) = 0.23025 0.25480
# Poissons Ratio (z) = 0.26143 0.26143
#
# Static dielectric constant tensor:
#      x y z
#    x 3.869270 0.000000 0.000000 
#    y 0.000000 3.869270 0.000000 
#    z 0.000000 0.000000 3.438290 
# 
# 
# High freq. dielectric constant tensor:
#      x y z
#    x 1.795740 0.000000 0.000000 
#    y 0.000000 1.795740 0.000000 
#    z 0.000000 0.000000 1.768950 
# 
# From -- ./inp_files/3341.got.cif
#   From: 2010.03.12/outbox.cif.g09.slc.cpg/sg152_2_cif.got.tgz:3341.got - 2010.04.03 13:45:27.
