data_PCOD8322174
_publ_section_title
;
Structure prediction by ZEFSAII (Michael W. Deem and Ramdas Pophale) SiO2 
 PCOD8322174
Probable space group: P 31 2 1
;
_chemical_formula_sum "Si O2"
_cell_formula_units_Z 36
_cell_length_a 11.171249
_cell_length_b 11.171249
_cell_length_c 15.448606
_cell_angle_alpha 90.000000
_cell_angle_beta 90.000000
_cell_angle_gamma 120.000000
_cell_volume 1669.642123
_symmetry_space_group_name_H-M "P 31 2 1"
_symmetry_group_IT_number 152
_symmetry_cell_setting 'hexagonal'
loop_
_space_group_symop_operation_xyz
x,y,z
-y,x-y,1/3+z
-x+y,-x,2/3+z
x-y,-y,2/3-z
-x,-x+y,1/3-z
y,x,-z
loop_
_atom_site_type_symbol
_atom_site_label
_atom_site_fract_x
_atom_site_fract_y
_atom_site_fract_z
Si Si1 0.107057 0.476345 0.735413
Si Si2 0.681657 0.653924 0.746699
Si Si3 0.841725 0.400186 0.170712
Si Si4 0.231007 0.594828 0.355727
Si Si5 0.773419 0.151254 0.265073
Si Si6 0.101326 0.060050 0.088998
O O1 0.065582 0.425803 0.831422
O O2 0.262348 0.503991 0.720900
O O3 0.095506 0.612535 0.725601
O O4 0.000000 0.364172 0.666667
O O5 0.541108 0.625349 0.701615
O O6 0.759968 0.601743 0.684704
O O7 0.792521 0.815445 0.765970
O O8 0.768358 0.425738 0.254774
O O9 0.841376 0.256913 0.185190
O O10 0.000000 0.527750 0.166667
O O11 0.752108 0.369656 0.082202
O O12 0.795519 0.021554 0.249752
O O13 0.000000 0.028188 0.166667
O O14 0.013024 0.013024 0.000000
#
# Coordination Sequence:
#
# PCOD8322174 Si02
#       6
#     6   6   6   6   6   6
#     4  11  25  42  70  98 140 174 228 280 350 412
#     4  11  24  43  65 100 134 179 223 281 339 417
#     4  11  23  43  67 100 135 182 228 286 356 412
#     4  11  26  41  68 101 142 175 232 288 347 417
#     4  10  23  41  71  93 129 176 232 276 335 414
#     4  10  23  43  69  94 129 176 230 275 338 409
#
# _framework density 21.561506000000001
#
# number of rings (size 3 to 8) (size 9 to 14) (size 15 to 20)
#    0.000    1.333    1.667    3.000   16.333    1.333 
#    0.000    0.000    0.000    0.000    0.000    0.000 
#    0.000    0.000    0.000    0.000    0.000    0.000 
#
# Total GULP energy -446001.933412 kJ/mol
# GULP energy per Si atom -12388.942595 kJ/mol
# Density = 2.151243 g / cm^3
# Si number density = 21.561506 Si / 1000 Ang^3
#
#
#
# Elastic Constant Matrix: (Units=GPa)
#
#
# Indices 1 2 3 4 5 6 
#
# 1 82.1360 43.0054 42.6071 1.9115 0.0000 0.0000
# 2 43.0054 82.1360 42.6071 -1.9115 0.0000 0.0000
# 3 42.6071 42.6071 132.0948 0.0000 0.0000 0.0000
# 4 1.9115 -1.9115 0.0000 29.3895 0.0000 0.0000
# 5 0.0000 0.0000 0.0000 0.0000 29.3895 1.9115
# 6 0.0000 0.0000 0.0000 0.0000 1.9115 19.5653
#
#
#
# Elastic Compliance Matrix: (Units=1/GPa)
#
#
# Indices 1 2 3 4 5 6 
#
# 1 0.017979 -0.007739 -0.003303 -0.001673 0.000000 0.000000
# 2 -0.007739 0.017979 -0.003303 0.001673 0.000000 0.000000
# 3 -0.003303 -0.003303 0.009701 0.000000 0.000000 0.000000
# 4 -0.001673 0.001673 0.000000 0.034243 0.000000 0.000000
# 5 0.000000 0.000000 0.000000 0.000000 0.034243 -0.003345
# 6 0.000000 0.000000 0.000000 0.000000 -0.003345 0.051438
#
#
# Mechanical properties :
#
#
# Convention : Reuss Voigt Hill
#
# Bulk Modulus (GPa) = 58.92938 61.42288 60.17613
# Shear Modulus (GPa) = 25.00859 26.87868 25.94363
#
# Velocity S-wave (km/s) = 3.40938 3.53456 3.47254
# Velocity P-wave (km/s) = 6.54895 6.72359 6.63684
#
# Compressibility (1/GPa) = 0.01696947
#
# Stress axis : x y z
#
# Youngs Moduli (GPa) = 55.61899 55.61899 103.08175
#
# Poissons Ratio (x) = 0.43046 0.34047
# Poissons Ratio (y) = 0.43046 0.34047
# Poissons Ratio (z) = 0.18371 0.18371
#
# Static dielectric constant tensor:
#      x y z
#    x 4.004600 0.000000 0.000000 
#    y 0.000000 4.004600 0.000000 
#    z 0.000000 0.000000 4.129850 
# 
# 
# High freq. dielectric constant tensor:
#      x y z
#    x 1.838110 0.000000 0.000000 
#    y 0.000000 1.838110 0.000000 
#    z 0.000000 0.000000 1.870240 
# 
# From -- ./inp_files/2031.got.cif
#   From: 2010.03.12/outbox.cif.g09.slc.cpg/sg152_2_cif.got.tgz:2031.got - 2010.04.03 13:45:27.
