data_PCOD8322794
_publ_section_title
;
Structure prediction by ZEFSAII (Michael W. Deem and Ramdas Pophale) SiO2 
 PCOD8322794
Probable space group: P 3 1 C
;
_chemical_formula_sum "Si O2"
_cell_formula_units_Z 28
_cell_length_a 12.850160
_cell_length_b 12.850160
_cell_length_c 10.025902
_cell_angle_alpha 90.000000
_cell_angle_beta 90.000000
_cell_angle_gamma 120.000000
_cell_volume 1433.742494
_symmetry_space_group_name_H-M "P 3 1 C"
_symmetry_group_IT_number 159
_symmetry_cell_setting 'hexagonal'
loop_
_space_group_symop_operation_xyz
x,y,z
-y,x-y,z
-x+y,-x,z
y,x,1/2+z
x-y,-y,1/2+z
-x,-x+y,1/2+z
loop_
_atom_site_type_symbol
_atom_site_label
_atom_site_fract_x
_atom_site_fract_y
_atom_site_fract_z
Si Si1 0.666668 0.333334 0.145347
Si Si2 0.136026 0.864783 0.504804
Si Si3 0.274068 0.860181 0.747987
Si Si4 0.859058 0.143565 0.502818
Si Si5 0.278328 0.864185 0.259304
Si Si6 0.333335 0.666668 0.323906
O O1 0.782708 0.333985 0.204528
O O2 0.666668 0.333334 0.985000
O O3 0.165424 0.837120 0.651026
O O4 0.210369 0.835495 0.399329
O O5 0.997010 0.776945 0.477111
O O6 0.175142 0.004393 0.492336
O O7 0.217193 0.828398 0.894991
O O8 0.380225 0.998184 0.741636
O O9 0.828399 0.179108 0.644430
O O10 0.344008 0.786486 0.260659
#
# Coordination Sequence:
#
# PCOD8322794 Si02
#       6
#     2   6   6   6   6   2
#     4  12  24  46  68  88 120 172 203 247 324 367
#     4  10  19  38  60  92 127 172 200 250 316 362
#     4  10  23  40  62  92 124 159 209 258 298 366
#     4  10  21  36  62  94 131 160 210 256 300 364
#     4  10  23  40  62  92 124 159 209 258 298 366
#     4  12  24  46  68  88 120 172 203 247 324 367
#
# _framework density 19.529308
#
# number of rings (size 3 to 8) (size 9 to 14) (size 15 to 20)
#    0.000    1.714    2.143    1.714    0.000    5.143 
#    0.000    4.286    0.000    0.000    0.000    0.000 
#    0.000    0.000    0.000    0.000    0.000    0.000 
#
# Total GULP energy -347279.169211 kJ/mol
# GULP energy per Si atom -12402.827472 kJ/mol
# Density = 1.948486 g / cm^3
# Si number density = 19.529308 Si / 1000 Ang^3
#
#
#
# Elastic Constant Matrix: (Units=GPa)
#
#
# Indices 1 2 3 4 5 6 
#
# 1 107.9759 62.5153 26.3768 0.0001 -0.6921 -0.0002
# 2 62.5153 107.9749 26.3768 0.0002 0.6923 -0.0007
# 3 26.3768 26.3768 71.6085 0.0005 0.0003 0.0001
# 4 0.0001 0.0002 0.0005 19.5408 -0.0002 0.6922
# 5 -0.6921 0.6923 0.0003 -0.0002 19.5410 0.0001
# 6 -0.0002 -0.0007 0.0001 0.6922 0.0001 22.7297
#
#
#
# Elastic Compliance Matrix: (Units=1/GPa)
#
#
# Indices 1 2 3 4 5 6 
#
# 1 0.014320 -0.007701 -0.002438 0.000000 0.000780 0.000000
# 2 -0.007701 0.014321 -0.002438 0.000000 -0.000780 0.000000
# 3 -0.002438 -0.002438 0.015761 0.000000 0.000000 0.000000
# 4 0.000000 0.000000 0.000000 0.051230 0.000000 -0.001560
# 5 0.000780 -0.000780 0.000000 0.000000 0.051230 0.000000
# 6 0.000000 0.000000 0.000000 -0.001560 0.000000 0.044043
#
#
# Mechanical properties :
#
#
# Convention : Reuss Voigt Hill
#
# Bulk Modulus (GPa) = 51.95528 57.56636 54.76082
# Shear Modulus (GPa) = 22.47438 23.84834 23.16136
#
# Velocity S-wave (km/s) = 3.39603 3.49830 3.44754
# Velocity P-wave (km/s) = 6.48374 6.77188 6.62937
#
# Compressibility (1/GPa) = 0.01924732
#
# Stress axis : x y z
#
# Youngs Moduli (GPa) = 69.83039 69.82960 63.44696
#
# Poissons Ratio (x) = 0.53773 0.15471
# Poissons Ratio (y) = 0.53773 0.15471
# Poissons Ratio (z) = 0.17027 0.17028
#
# Static dielectric constant tensor:
#      x y z
#    x 3.408060 0.000010 0.000000 
#    y 0.000010 3.408080 0.000000 
#    z 0.000000 0.000000 3.732080 
# 
# 
# High freq. dielectric constant tensor:
#      x y z
#    x 1.755530 0.000000 0.000000 
#    y 0.000000 1.755530 0.000000 
#    z 0.000000 0.000000 1.777690 
# 
# From -- ./inp_files/373.got.cif
#   From: 2010.03.12/outbox.cif.g09.slc.cpg/sg159_cif.got.tgz:373.got - 2010.04.03 14:00:19.
