data_PCOD8322858
_publ_section_title
;
Structure prediction by ZEFSAII (Michael W. Deem and Ramdas Pophale) SiO2 
 PCOD8322858
Probable space group: R 3 M
;
_chemical_formula_sum "Si O2"
_cell_formula_units_Z 126
_cell_length_a 17.674646
_cell_length_b 17.674646
_cell_length_c 24.778131
_cell_angle_alpha 90.000000
_cell_angle_beta 90.000000
_cell_angle_gamma 120.000000
_cell_volume 6703.484736
_symmetry_space_group_name_H-M "R 3 M"
_symmetry_group_IT_number 160
_symmetry_cell_setting 'hexagonal'
loop_
_space_group_symop_operation_xyz
x,y,z
-y,x-y,z
-x+y,-x,z
-x+y,y,z
x,x-y,z
-y,-x,z
2/3+x,1/3+y,1/3+z
2/3-y,1/3+x-y,1/3+z
2/3-x+y,1/3-x,1/3+z
2/3-x+y,1/3+y,1/3+z
2/3+x,1/3+x-y,1/3+z
2/3-y,1/3-x,1/3+z
1/3+x,2/3+y,2/3+z
1/3-y,2/3+x-y,2/3+z
1/3-x+y,2/3-x,2/3+z
1/3-x+y,2/3+y,2/3+z
1/3+x,2/3+x-y,2/3+z
1/3-y,2/3-x,2/3+z
loop_
_atom_site_type_symbol
_atom_site_label
_atom_site_fract_x
_atom_site_fract_y
_atom_site_fract_z
Si Si1 0.821891 0.824307 0.633698
Si Si2 0.665031 0.642575 0.646477
Si Si3 0.159820 0.494199 0.902218
Si Si4 0.499665 0.664368 0.180388
Si Si5 0.279506 0.378207 0.089799
Si Si6 0.889142 0.362148 0.448158
Si Si7 0.169387 0.999598 0.996634
O O1 0.821200 0.910600 0.656673
O O2 0.752348 0.734033 0.661866
O O3 0.786299 0.808216 0.572050
O O4 0.920471 0.840941 0.638516
O O5 0.674169 0.595122 0.593145
O O6 0.647017 0.575407 0.695624
O O7 0.584907 0.660538 0.640661
O O8 0.244298 0.488596 0.920858
O O9 0.168278 0.584139 0.923858
O O10 0.154054 0.496032 0.837280
O O11 0.527775 0.763888 0.179175
O O12 0.396660 0.603341 0.170863
O O13 0.549467 0.651510 0.130462
O O14 0.179954 0.359907 0.093942
O O15 0.289202 0.295470 0.107093
O O16 0.937131 0.468566 0.449670
O O17 0.827557 0.328483 0.395214
O O18 0.177871 0.088936 0.974260
O O19 0.081921 0.918080 0.973015
#
# Coordination Sequence:
#
# PCOD8322858 Si02
#       7
#    18  18  18  18  18  18  18
#     4  10  20  35  54  76  98 124 159 204 251 293
#     4  11  21  33  49  71 102 136 164 196 239 291
#     4  11  21  33  48  70 100 135 169 201 237 285
#     4   9  18  32  52  74  97 124 159 200 241 281
#     4  10  19  33  50  70  97 130 163 197 235 282
#     4   9  18  31  50  72  95 123 160 202 243 284
#     4  10  19  33  52  75 100 128 162 204 248 290
#
# _framework density 18.796194
#
# number of rings (size 3 to 8) (size 9 to 14) (size 15 to 20)
#    0.000    2.000    0.000    5.714    0.000    4.000 
#    0.000    1.429    0.000    2.000    0.000    0.000 
#    0.000    0.000    0.000   24.714    0.000    0.000 
#
# Total GULP energy -520354.432416 kJ/mol
# GULP energy per Si atom -12389.391248 kJ/mol
# Density = 1.875341 g / cm^3
# Si number density = 18.796194 Si / 1000 Ang^3
#
#
#
# Elastic Constant Matrix: (Units=GPa)
#
#
# Indices 1 2 3 4 5 6 
#
# 1 95.3724 33.7713 20.9170 -1.0231 0.0000 0.0000
# 2 33.7713 95.3724 20.9170 1.0231 0.0000 0.0000
# 3 20.9170 20.9170 40.5832 0.0000 0.0000 0.0000
# 4 -1.0231 1.0231 0.0000 23.3502 0.0000 0.0000
# 5 0.0000 0.0000 0.0000 0.0000 23.3502 -1.0231
# 6 0.0000 0.0000 0.0000 0.0000 -1.0231 30.8005
#
#
#
# Elastic Compliance Matrix: (Units=1/GPa)
#
#
# Indices 1 2 3 4 5 6 
#
# 1 0.012776 -0.003481 -0.004791 0.000712 0.000000 0.000000
# 2 -0.003481 0.012776 -0.004791 -0.000712 0.000000 0.000000
# 3 -0.004791 -0.004791 0.029579 0.000000 0.000000 0.000000
# 4 0.000712 -0.000712 0.000000 0.042889 0.000000 0.000000
# 5 0.000000 0.000000 0.000000 0.000000 0.042889 0.001425
# 6 0.000000 0.000000 0.000000 0.000000 0.001425 0.032514
#
#
# Mechanical properties :
#
#
# Convention : Reuss Voigt Hill
#
# Bulk Modulus (GPa) = 34.47530 42.50428 38.48979
# Shear Modulus (GPa) = 23.89861 25.88170 24.89016
#
# Velocity S-wave (km/s) = 3.56962 3.71477 3.64292
# Velocity P-wave (km/s) = 5.94736 6.40794 6.18194
#
# Compressibility (1/GPa) = 0.02900627
#
# Stress axis : x y z
#
# Youngs Moduli (GPa) = 78.27060 78.27060 33.80754
#
# Poissons Ratio (x) = 0.27246 0.16197
# Poissons Ratio (y) = 0.27246 0.16197
# Poissons Ratio (z) = 0.37498 0.37498
#
# Static dielectric constant tensor:
#      x y z
#    x 3.465100 0.000000 0.000000 
#    y 0.000000 3.465100 0.000000 
#    z 0.000000 0.000000 3.432740 
# 
# 
# High freq. dielectric constant tensor:
#      x y z
#    x 1.726100 0.000000 0.000000 
#    y 0.000000 1.726100 0.000000 
#    z 0.000000 0.000000 1.708340 
# 
# From -- ./inp_files/3775.got.cif
#   From: 2010.03.12/outbox.cif.g09.slc.cpg/sg160_2_cif.got.tgz:3775.got - 2010.04.02 06:26:15.
