data_PCOD8322870
_publ_section_title
;
Structure prediction by ZEFSAII (Michael W. Deem and Ramdas Pophale) SiO2 
 PCOD8322870
Probable space group: R 3 M
;
_chemical_formula_sum "Si O2"
_cell_formula_units_Z 144
_cell_length_a 21.674591
_cell_length_b 21.674591
_cell_length_c 19.564916
_cell_angle_alpha 90.000000
_cell_angle_beta 90.000000
_cell_angle_gamma 120.000000
_cell_volume 7959.951865
_symmetry_space_group_name_H-M "R 3 M"
_symmetry_group_IT_number 160
_symmetry_cell_setting 'hexagonal'
loop_
_space_group_symop_operation_xyz
x,y,z
-y,x-y,z
-x+y,-x,z
-x+y,y,z
x,x-y,z
-y,-x,z
2/3+x,1/3+y,1/3+z
2/3-y,1/3+x-y,1/3+z
2/3-x+y,1/3-x,1/3+z
2/3-x+y,1/3+y,1/3+z
2/3+x,1/3+x-y,1/3+z
2/3-y,1/3-x,1/3+z
1/3+x,2/3+y,2/3+z
1/3-y,2/3+x-y,2/3+z
1/3-x+y,2/3-x,2/3+z
1/3-x+y,2/3+y,2/3+z
1/3+x,2/3+x-y,2/3+z
1/3-y,2/3-x,2/3+z
loop_
_atom_site_type_symbol
_atom_site_label
_atom_site_fract_x
_atom_site_fract_y
_atom_site_fract_z
Si Si1 0.689426 0.997450 0.350136
Si Si2 0.526079 0.191373 0.311458
Si Si3 0.618413 0.094912 0.181138
Si Si4 0.935131 0.729344 0.471944
Si Si5 0.333313 0.524876 0.237321
Si Si6 0.034617 0.354294 0.866480
Si Si7 0.954900 0.185101 0.694951
Si Si8 0.934527 0.206120 0.073153
O O1 0.725987 0.030442 0.277767
O O2 0.645822 0.912513 0.352865
O O3 0.754320 0.028305 0.402072
O O4 0.626139 0.015034 0.364201
O O5 0.610333 0.220666 0.307109
O O6 0.510856 0.255428 0.319933
O O7 0.489644 0.150571 0.241126
O O8 0.493955 0.142301 0.378755
O O9 0.532644 0.065288 0.189433
O O10 0.644010 0.131481 0.106291
O O11 0.639617 0.033506 0.183256
O O12 0.855304 0.710607 0.455485
O O13 0.931051 0.668589 0.522009
O O14 0.980184 0.806030 0.506154
O O15 0.273556 0.547112 0.249114
O O16 0.406368 0.593633 0.217985
O O17 0.345509 0.489558 0.306114
O O18 0.105570 0.385221 0.819846
O O19 0.883997 0.116004 0.672084
O O20 0.850936 0.149065 0.061065
#
# Coordination Sequence:
#
# PCOD8322870 Si02
#       8
#    18  18  18  18  18  18  18  18
#     4  11  21  37  56  81 109 146 185 227 283 331
#     4  10  21  38  59  83 112 148 189 231 278 333
#     4  10  20  35  54  82 117 146 182 228 271 331
#     4  10  22  38  55  80 112 144 186 233 274 326
#     4  10  21  37  57  81 110 147 188 230 274 324
#     4  11  21  37  55  82 111 148 183 224 284 330
#     4  10  20  35  53  80 115 147 181 226 274 331
#     4  10  22  37  53  81 116 144 184 229 270 332
#
# _framework density 18.090561999999998
#
# number of rings (size 3 to 8) (size 9 to 14) (size 15 to 20)
#    0.000    1.750    5.000    0.250    0.000    5.000 
#    0.000    0.000    0.000    1.500    0.000    0.000 
#    0.000    2.000    0.000    0.000    0.000    0.000 
#
# Total GULP energy -594880.885641 kJ/mol
# GULP energy per Si atom -12393.351784 kJ/mol
# Density = 1.804939 g / cm^3
# Si number density = 18.090562 Si / 1000 Ang^3
#
#
#
# Elastic Constant Matrix: (Units=GPa)
#
#
# Indices 1 2 3 4 5 6 
#
# 1 88.6095 42.7399 45.5376 2.0623 -0.0003 0.0000
# 2 42.7399 88.6095 45.5376 -2.0623 0.0003 0.0000
# 3 45.5376 45.5376 144.4282 0.0000 0.0000 0.0000
# 4 2.0623 -2.0623 0.0000 22.4372 0.0000 0.0003
# 5 -0.0003 0.0003 0.0000 0.0000 22.4372 2.0623
# 6 0.0000 0.0000 0.0000 0.0003 2.0623 22.9348
#
#
#
# Elastic Compliance Matrix: (Units=1/GPa)
#
#
# Indices 1 2 3 4 5 6 
#
# 1 0.015863 -0.006120 -0.003072 -0.002020 0.000000 0.000000
# 2 -0.006120 0.015863 -0.003072 0.002020 0.000000 0.000000
# 3 -0.003072 -0.003072 0.008861 0.000000 0.000000 0.000000
# 4 -0.002020 0.002020 0.000000 0.044940 0.000000 -0.000001
# 5 0.000000 0.000000 0.000000 0.000000 0.044940 -0.004041
# 6 0.000000 0.000000 0.000000 -0.000001 -0.004041 0.043965
#
#
# Mechanical properties :
#
#
# Convention : Reuss Voigt Hill
#
# Bulk Modulus (GPa) = 62.26790 65.47525 63.87158
# Shear Modulus (GPa) = 24.47223 26.08400 25.27812
#
# Velocity S-wave (km/s) = 3.68198 3.80130 3.74212
# Velocity P-wave (km/s) = 7.25057 7.45239 7.35217
#
# Compressibility (1/GPa) = 0.01605964
#
# Stress axis : x y z
#
# Youngs Moduli (GPa) = 63.03988 63.03988 112.85326
#
# Poissons Ratio (x) = 0.38578 0.34669
# Poissons Ratio (y) = 0.38578 0.34669
# Poissons Ratio (z) = 0.19366 0.19366
#
# Static dielectric constant tensor:
#      x y z
#    x 3.239350 0.000000 0.000000 
#    y 0.000000 3.239350 0.000000 
#    z 0.000000 0.000000 3.571620 
# 
# 
# High freq. dielectric constant tensor:
#      x y z
#    x 1.688010 0.000000 0.000000 
#    y 0.000000 1.688010 0.000000 
#    z 0.000000 0.000000 1.712820 
# 
# From -- ./inp_files/3469.got.cif
#   From: 2010.03.12/outbox.cif.g09.slc.cpg/sg160_2_cif.got.tgz:3469.got - 2010.04.02 06:26:15.
