data_PCOD8322884
_publ_section_title
;
Structure prediction by ZEFSAII (Michael W. Deem and Ramdas Pophale) SiO2 
 PCOD8322884
Probable space group: R 3 M
;
_chemical_formula_sum "Si O2"
_cell_formula_units_Z 42
_cell_length_a 21.000000
_cell_length_b 21.000000
_cell_length_c 18.000000
_cell_angle_alpha 90.000000
_cell_angle_beta 90.000000
_cell_angle_gamma 120.000000
_cell_volume 6874.509655
_symmetry_space_group_name_H-M "R 3 M"
_symmetry_group_IT_number 160
_symmetry_cell_setting 'hexagonal'
loop_
_space_group_symop_operation_xyz
x,y,z
-y,x-y,z
-x+y,-x,z
-x+y,y,z
x,x-y,z
-y,-x,z
2/3+x,1/3+y,1/3+z
2/3-y,1/3+x-y,1/3+z
2/3-x+y,1/3-x,1/3+z
2/3-x+y,1/3+y,1/3+z
2/3+x,1/3+x-y,1/3+z
2/3-y,1/3-x,1/3+z
1/3+x,2/3+y,2/3+z
1/3-y,2/3+x-y,2/3+z
1/3-x+y,2/3-x,2/3+z
1/3-x+y,2/3+y,2/3+z
1/3+x,2/3+x-y,2/3+z
1/3-y,2/3-x,2/3+z
loop_
_atom_site_type_symbol
_atom_site_label
_atom_site_fract_x
_atom_site_fract_y
_atom_site_fract_z
Si Si1 0.883891 0.618002 0.038363
Si Si2 0.186493 0.664878 0.637769
Si Si3 0.283108 0.863830 0.076885
Si Si4 0.999644 0.157716 0.255324
Si Si5 0.393958 0.123778 0.870224
Si Si6 0.895535 0.520943 0.157109
Si Si7 0.900327 0.318427 0.435044
O O1 0.811542 0.623083 0.030716
O O2 0.868204 0.546998 0.086182
O O3 0.941522 0.690593 0.082628
O O4 0.907892 0.609302 0.954156
O O5 0.214620 0.607310 0.625071
O O6 0.254678 0.745323 0.651313
O O7 0.140810 0.664046 0.565533
O O8 0.135816 0.640887 0.710056
O O9 0.218321 0.781680 0.088221
O O10 0.336166 0.880475 0.147761
O O11 0.249810 0.918474 0.085967
O O12 0.322563 0.864074 0.996899
O O13 0.075485 0.150969 0.261273
O O14 0.009633 0.212332 0.184578
O O15 0.925042 0.074959 0.245402
O O16 0.415993 0.207997 0.877216
O O17 0.315438 0.074845 0.831991
O O18 0.874475 0.437238 0.142035
#
# Coordination Sequence:
#
# PCOD8322884 Si02
#       7
#    18  18  18  18  18  18  18
#     4  11  22  38  62  89 120 159 199 246 305 367
#     4  11  22  38  58  84 118 158 201 246 296 359
#     4  11  25  41  62  94 127 163 205 258 313 366
#     4  11  25  45  68  94 128 171 217 264 319 382
#     4  10  21  40  62  86 118 157 203 249 300 366
#     4  10  21  37  58  86 117 154 200 246 299 360
#     4  12  24  39  58  93 126 162 205 255 308 370
#
# _framework density 6.1095269999999999
#
# number of rings (size 3 to 8) (size 9 to 14) (size 15 to 20)
#    0.000    1.143    2.857    3.714    4.000    0.571 
#    0.000    1.429    0.000    0.571    0.000    0.000 
#    0.000    0.000    0.000    0.000    0.000    0.000 
#
# Total GULP energy -520349.341249 kJ/mol
# GULP energy per Si atom -12389.270030 kJ/mol
# Density = 0.609562 g / cm^3
# Si number density = 6.109527 Si / 1000 Ang^3
#
#
#
# Elastic Constant Matrix: (Units=GPa)
#
#
# Indices 1 2 3 4 5 6 
#
# 1 102.4373 32.9121 55.2597 0.9420 -0.0001 0.0000
# 2 32.9121 102.4373 55.2597 -0.9420 0.0001 0.0000
# 3 55.2597 55.2597 160.2942 0.0000 0.0000 0.0000
# 4 0.9420 -0.9420 0.0000 41.1690 0.0000 0.0001
# 5 -0.0001 0.0001 0.0000 0.0000 41.1690 0.9420
# 6 0.0000 0.0000 0.0000 0.0001 0.9420 34.7626
#
#
#
# Elastic Compliance Matrix: (Units=1/GPa)
#
#
# Indices 1 2 3 4 5 6 
#
# 1 0.012338 -0.002055 -0.003545 -0.000329 0.000000 0.000000
# 2 -0.002055 0.012338 -0.003545 0.000329 0.000000 0.000000
# 3 -0.003545 -0.003545 0.008683 0.000000 0.000000 0.000000
# 4 -0.000329 0.000329 0.000000 0.024305 0.000000 0.000000
# 5 0.000000 0.000000 0.000000 0.000000 0.024305 -0.000659
# 6 0.000000 0.000000 0.000000 0.000000 -0.000659 0.028784
#
#
# Mechanical properties :
#
#
# Convention : Reuss Voigt Hill
#
# Bulk Modulus (GPa) = 66.36239 72.44800 69.40519
# Shear Modulus (GPa) = 37.29551 38.20261 37.74906
#
# Velocity S-wave (km/s) = 4.51580 4.57039 4.54318
# Velocity P-wave (km/s) = 7.96716 8.21367 8.09135
#
# Compressibility (1/GPa) = 0.01506878
#
# Stress axis : x y z
#
# Youngs Moduli (GPa) = 81.05345 81.05345 115.17196
#
# Poissons Ratio (x) = 0.16654 0.40827
# Poissons Ratio (y) = 0.16654 0.40827
# Poissons Ratio (z) = 0.28733 0.28733
#
# Static dielectric constant tensor:
#      x y z
#    x 3.723240 0.000000 0.000000 
#    y 0.000000 3.723240 0.000000 
#    z 0.000000 0.000000 3.999250 
# 
# 
# High freq. dielectric constant tensor:
#      x y z
#    x 1.728180 0.000000 0.000000 
#    y 0.000000 1.728180 0.000000 
#    z 0.000000 0.000000 1.745690 
# 
# From -- ./inp_files/2919.got.cif
#   From: 2010.03.12/outbox.ucp.g09.slc.cvg/sg160_2_cif.got.tgz:2919.got - 2010.05.04 20:37:23.
