data_PCOD8322020
_publ_section_title
;
Structure prediction by ZEFSAII (Michael W. Deem and Ramdas Pophale) SiO2 
 PCOD8322020
Probable space group: P 31 2 1
;
_chemical_formula_sum "Si O2"
_cell_formula_units_Z 36
_cell_length_a 10.521583
_cell_length_b 10.521583
_cell_length_c 18.881737
_cell_angle_alpha 90.000000
_cell_angle_beta 90.000000
_cell_angle_gamma 120.000000
_cell_volume 1810.234122
_symmetry_space_group_name_H-M "P 31 2 1"
_symmetry_group_IT_number 152
_symmetry_cell_setting 'hexagonal'
loop_
_space_group_symop_operation_xyz
x,y,z
-y,x-y,1/3+z
-x+y,-x,2/3+z
x-y,-y,2/3-z
-x,-x+y,1/3-z
y,x,-z
loop_
_atom_site_type_symbol
_atom_site_label
_atom_site_fract_x
_atom_site_fract_y
_atom_site_fract_z
Si Si1 0.514585 0.282893 0.605319
Si Si2 0.677776 0.131382 0.434679
Si Si3 0.929701 0.554594 0.996612
Si Si4 0.414353 0.185065 0.460242
Si Si5 0.662243 0.171489 0.274262
Si Si6 0.764021 0.635394 0.898550
O O1 0.534237 0.149600 0.636830
O O2 0.468905 0.362436 0.665284
O O3 0.397624 0.227147 0.540985
O O4 0.668262 0.413721 0.572251
O O5 0.547511 0.151870 0.465265
O O6 0.719530 0.188635 0.354690
O O7 0.818536 0.223514 0.483938
O O8 0.628714 0.956406 0.435288
O O9 0.906150 0.660664 0.942239
O O10 0.867146 0.551266 0.074281
O O11 0.263832 0.037012 0.437248
O O12 0.490056 0.119489 0.276726
#
# Coordination Sequence:
#
# PCOD8322020 Si02
#       6
#     6   6   6   6   6   6
#     4  11  23  36  59  87 118 153 190 249 300 345
#     4  10  17  32  54  84 118 148 193 234 289 342
#     4  11  23  38  58  89 118 153 196 246 296 349
#     4  11  20  36  54  84 123 152 191 241 292 348
#     4   9  19  31  52  85 119 143 186 249 284 332
#     4  10  20  33  60  84 111 160 197 233 284 360
#
# _framework density 19.886928999999999
#
# number of rings (size 3 to 8) (size 9 to 14) (size 15 to 20)
#    0.000    1.667    6.667    1.000    2.333    1.333 
#    0.000    0.000    0.000    6.000    0.000    0.000 
#    0.000    0.000    0.000    0.000    0.000    0.000 
#
# Total GULP energy -445987.271873 kJ/mol
# GULP energy per Si atom -12388.535330 kJ/mol
# Density = 1.984167 g / cm^3
# Si number density = 19.886929 Si / 1000 Ang^3
#
#
#
# Elastic Constant Matrix: (Units=GPa)
#
#
# Indices 1 2 3 4 5 6 
#
# 1 55.4401 23.9826 19.3383 2.7001 0.0000 0.0000
# 2 23.9826 55.4401 19.3383 -2.7001 0.0000 0.0000
# 3 19.3383 19.3383 94.1855 0.0000 0.0000 0.0000
# 4 2.7001 -2.7001 0.0000 28.3497 0.0000 0.0000
# 5 0.0000 0.0000 0.0000 0.0000 28.3497 2.7001
# 6 0.0000 0.0000 0.0000 0.0000 2.7001 15.7287
#
#
#
# Elastic Compliance Matrix: (Units=1/GPa)
#
#
# Indices 1 2 3 4 5 6 
#
# 1 0.023153 -0.009164 -0.002872 -0.003078 0.000000 0.000000
# 2 -0.009164 0.023153 -0.002872 0.003078 0.000000 0.000000
# 3 -0.002872 -0.002872 0.011797 0.000000 0.000000 0.000000
# 4 -0.003078 0.003078 0.000000 0.035860 0.000000 0.000000
# 5 0.000000 0.000000 0.000000 0.000000 0.035860 -0.006156
# 6 0.000000 0.000000 0.000000 0.000000 -0.006156 0.064635
#
#
# Mechanical properties :
#
#
# Convention : Reuss Voigt Hill
#
# Bulk Modulus (GPa) = 35.35239 36.70935 36.03087
# Shear Modulus (GPa) = 21.39453 23.97939 22.68696
#
# Velocity S-wave (km/s) = 3.28351 3.47621 3.38123
# Velocity P-wave (km/s) = 5.67367 5.88313 5.77935
#
# Compressibility (1/GPa) = 0.02828663
#
# Stress axis : x y z
#
# Youngs Moduli (GPa) = 43.19004 43.19004 84.76830
#
# Poissons Ratio (x) = 0.39579 0.24349
# Poissons Ratio (y) = 0.39579 0.24349
# Poissons Ratio (z) = 0.12406 0.12406
#
# Static dielectric constant tensor:
#      x y z
#    x 3.571620 0.000000 0.000000 
#    y 0.000000 3.571620 0.000000 
#    z 0.000000 0.000000 3.663940 
# 
# 
# High freq. dielectric constant tensor:
#      x y z
#    x 1.746490 0.000000 0.000000 
#    y 0.000000 1.746490 0.000000 
#    z 0.000000 0.000000 1.784430 
# 
# From -- ./inp_files/2748.got.cif
#   From: 2010.03.12/outbox.cif.g09.slc.cpg/sg152_2_cif.got.tgz:2748.got - 2010.04.03 13:45:27.
