data_PCOD8322927
_publ_section_title
;
Structure prediction by ZEFSAII (Michael W. Deem and Ramdas Pophale) SiO2 
 PCOD8322927
Probable space group: P -3 1 M 
;
_chemical_formula_sum "Si O2"
_cell_formula_units_Z 96
_cell_length_a 23.666789
_cell_length_b 23.666789
_cell_length_c 11.783342
_cell_angle_alpha 90.000000
_cell_angle_beta 90.000000
_cell_angle_gamma 120.000000
_cell_volume 5715.810110
_symmetry_space_group_name_H-M "P -3 1 M "
_symmetry_group_IT_number 162
_symmetry_cell_setting 'hexagonal'
loop_
_space_group_symop_operation_xyz
x,y,z
-y,x-y,z
-x+y,-x,z
-y,-x,-z
-x+y,y,-z
x,x-y,-z
-x,-y,-z
y,-x+y,-z
x-y,x,-z
y,x,z
x-y,-y,z
-x,-x+y,z
loop_
_atom_site_type_symbol
_atom_site_label
_atom_site_fract_x
_atom_site_fract_y
_atom_site_fract_z
Si Si1 0.440819 0.366716 0.500000
Si Si2 0.266337 0.403835 0.868095
Si Si3 0.098836 0.321944 0.500000
Si Si4 0.197652 0.928236 0.743917
Si Si5 0.928236 0.730584 0.743917
Si Si6 0.602486 0.526259 0.743604
Si Si7 0.076227 0.602486 0.743604
Si Si8 0.596165 0.733663 0.868095
O O1 0.424001 0.424001 0.500000
O O2 0.376895 0.297125 0.500000
O O3 0.481143 0.376306 0.384498
O O4 0.481143 0.376306 0.615501
O O5 0.246829 0.338052 0.800751
O O6 0.337608 0.458319 0.826369
O O7 0.213590 0.427181 0.844352
O O8 0.269275 0.390289 0.000000
O O9 0.177627 0.355254 0.500000
O O10 0.069130 0.276332 0.609006
O O11 0.069130 0.276332 0.390993
O O12 0.123198 0.876802 0.778713
O O13 0.246829 0.908777 0.800750
O O14 0.215118 0.000000 0.786345
O O15 0.000000 0.784882 0.786345
O O16 0.583023 0.583023 0.750095
O O17 0.542272 0.457728 0.783498
O O18 0.662392 0.541681 0.826369
O O19 0.000000 0.583023 0.750095
#
# Coordination Sequence:
#
# PCOD8322927 Si02
#       8
#    12  12  12  12  12  12  12  12
#     4  10  17  28  46  69 100 129 154 186 229 282
#     4  10  21  35  50  69  95 128 165 204 243 284
#     4  10  18  27  46  74  97 123 161 200 239 283
#     4  10  19  31  48  71  98 127 160 200 245 291
#     4  10  19  31  48  71  98 127 160 200 245 291
#     4  10  20  32  49  74 102 130 157 190 235 286
#     4  10  20  32  49  74 102 130 157 190 235 286
#     4  10  21  35  50  69  95 128 165 204 243 284
#
# _framework density 16.79552
#
# number of rings (size 3 to 8) (size 9 to 14) (size 15 to 20)
#    0.000    2.000    2.500    2.250    0.000    4.000 
#    0.000    1.250    0.000    0.750    0.000    0.000 
#    0.000    3.000    0.000    6.250    0.000    0.000 
#
# Total GULP energy -1190183.119045 kJ/mol
# GULP energy per Si atom -12397.740823 kJ/mol
# Density = 1.675729 g / cm^3
# Si number density = 16.795520 Si / 1000 Ang^3
#
#
#
# Elastic Constant Matrix: (Units=GPa)
#
#
# Indices 1 2 3 4 5 6 
#
# 1 92.4488 42.0869 25.3820 0.0000 0.0000 0.0000
# 2 42.0869 92.4488 25.3820 0.0000 0.0000 0.0000
# 3 25.3820 25.3820 78.3597 0.0000 0.0000 0.0000
# 4 0.0000 0.0000 0.0000 -0.4575 0.0000 0.0000
# 5 0.0000 0.0000 0.0000 0.0000 -0.4574 0.0000
# 6 0.0000 0.0000 0.0000 0.0000 0.0000 25.1809
#
#
#
# Elastic Compliance Matrix: (Units=1/GPa)
#
#
# Indices 1 2 3 4 5 6 
#
# 1 0.014162 -0.005694 -0.002743 0.000000 0.000001 0.000000
# 2 -0.005694 0.014162 -0.002743 0.000000 -0.000001 0.000000
# 3 -0.002743 -0.002743 0.014539 0.000000 0.000000 0.000000
# 4 0.000000 0.000000 0.000000 -2.186031 0.000001 -0.000001
# 5 0.000001 -0.000001 0.000000 0.000001 -2.186031 0.000000
# 6 0.000000 0.000000 0.000000 -0.000001 0.000000 0.039713
#
#
# Mechanical properties :
#
#
# Convention : Reuss Voigt Hill
#
# Bulk Modulus (GPa) = 48.77368 49.88436 49.32902
# Shear Modulus (GPa) = -1.17363 16.21362 7.51999
#
# Velocity S-wave (km/s) = -0.83683 3.11038 2.11828
# Velocity P-wave (km/s) = 5.30745 6.53183 5.95121
#
# Compressibility (1/GPa) = 0.02050286
#
# Stress axis : x y z
#
# Youngs Moduli (GPa) = 70.61085 70.61085 68.78232
#
# Poissons Ratio (x) = 0.40207 0.18866
# Poissons Ratio (y) = 0.40207 0.18866
# Poissons Ratio (z) = 0.19368 0.19368
#
# Static dielectric constant tensor:
#      x y z
#    x 3.063570 0.000000 0.000000 
#    y 0.000000 3.063570 0.000000 
#    z 0.000000 0.000000 3.289750 
# 
# 
# High freq. dielectric constant tensor:
#      x y z
#    x 1.626570 0.000000 0.000000 
#    y 0.000000 1.626570 0.000000 
#    z 0.000000 0.000000 1.657180 
# 
# From -- ./inp_files/2677.got.cif
#   From: 2010.03.12/outbox.cif.g09.slc.cpg/sg162_2_cif.got.tgz:2677.got - 2010.04.02 06:27:41.
