data_PCOD8322635
_publ_section_title
;
Structure prediction by ZEFSAII (Michael W. Deem and Ramdas Pophale) SiO2 
 PCOD8322635
Probable space group: R 3 2
;
_chemical_formula_sum "Si O2"
_cell_formula_units_Z 54
_cell_length_a 16.088058
_cell_length_b 16.088058
_cell_length_c 10.073200
_cell_angle_alpha 90.000000
_cell_angle_beta 90.000000
_cell_angle_gamma 120.000000
_cell_volume 2257.903283
_symmetry_space_group_name_H-M "R 3 2"
_symmetry_group_IT_number 155
_symmetry_cell_setting 'hexagonal'
loop_
_space_group_symop_operation_xyz
x,y,z
-y,x-y,z
-x+y,-x,z
x-y,-y,-z
-x,-x+y,-z
y,x,-z
2/3+x,1/3+y,1/3+z
2/3-y,1/3+x-y,1/3+z
2/3-x+y,1/3-x,1/3+z
2/3+x-y,1/3-y,1/3-z
2/3-x,1/3-x+y,1/3-z
2/3+y,1/3+x,1/3-z
1/3+x,2/3+y,2/3+z
1/3-y,2/3+x-y,2/3+z
1/3-x+y,2/3-x,2/3+z
1/3+x-y,2/3-y,2/3-z
1/3-x,2/3-x+y,2/3-z
1/3+y,2/3+x,2/3-z
loop_
_atom_site_type_symbol
_atom_site_label
_atom_site_fract_x
_atom_site_fract_y
_atom_site_fract_z
Si Si1 0.603554 0.495330 0.713342
Si Si2 0.441553 0.171334 0.453326
Si Si3 0.093083 0.666666 0.916666
O O1 0.666667 0.488632 0.833334
O O2 0.666667 0.531341 0.583334
O O3 0.571387 0.571385 0.750003
O O4 0.511751 0.390790 0.687638
O O5 0.511362 0.178029 0.333334
O O6 0.454293 0.275876 0.479027
O O7 0.074932 0.741599 0.833334
O O8 0.000000 0.591733 0.000000
#
# Coordination Sequence:
#
# PCOD8322635 Si02
#       3
#    18  18  18
#     4  12  26  46  76 115 157 203 261 327 394 469
#     4  12  26  46  76 115 157 203 261 327 394 469
#     4  12  26  48  82 116 162 212 270 318 398 484
#
# _framework density 23.915994000000001
#
# number of rings (size 3 to 8) (size 9 to 14) (size 15 to 20)
#    0.000    0.000    3.333    8.000    0.000    0.000 
#    2.000    0.000   14.667    0.000    0.000    0.000 
#    0.000    0.000    0.000    0.000    0.000    0.000 
#
# Total GULP energy -223352.201367 kJ/mol
# GULP energy per Si atom -12408.455632 kJ/mol
# Density = 2.386156 g / cm^3
# Si number density = 23.915994 Si / 1000 Ang^3
#
#
#
# Elastic Constant Matrix: (Units=GPa)
#
#
# Indices 1 2 3 4 5 6 
#
# 1 144.2947 76.6255 84.8462 7.4862 -0.0003 0.0000
# 2 76.6255 144.2947 84.8462 -7.4862 0.0003 0.0000
# 3 84.8462 84.8462 208.7931 0.0000 0.0000 0.0000
# 4 7.4862 -7.4862 0.0000 61.5090 0.0000 0.0003
# 5 -0.0003 0.0003 0.0000 0.0000 61.5090 7.4862
# 6 0.0000 0.0000 0.0000 0.0003 7.4862 33.8346
#
#
#
# Elastic Compliance Matrix: (Units=1/GPa)
#
#
# Indices 1 2 3 4 5 6 
#
# 1 0.010884 -0.004303 -0.002674 -0.001848 0.000000 0.000000
# 2 -0.004303 0.010884 -0.002674 0.001848 0.000000 0.000000
# 3 -0.002674 -0.002674 0.006963 0.000000 0.000000 0.000000
# 4 -0.001848 0.001848 0.000000 0.016708 0.000000 0.000000
# 5 0.000000 0.000000 0.000000 0.000000 0.016708 -0.003697
# 6 0.000000 0.000000 0.000000 0.000000 -0.003697 0.030373
#
#
# Mechanical properties :
#
#
# Convention : Reuss Voigt Hill
#
# Bulk Modulus (GPa) = 106.07345 110.00204 108.03774
# Shear Modulus (GPa) = 43.49188 48.10816 45.80002
#
# Velocity S-wave (km/s) = 4.26905 4.48989 4.38086
# Velocity P-wave (km/s) = 8.29147 8.54248 8.41791
#
# Compressibility (1/GPa) = 0.00942743
#
# Stress axis : x y z
#
# Youngs Moduli (GPa) = 91.88106 91.88106 143.62138
#
# Poissons Ratio (x) = 0.39537 0.38406
# Poissons Ratio (y) = 0.39537 0.38406
# Poissons Ratio (z) = 0.24570 0.24570
#
# Static dielectric constant tensor:
#      x y z
#    x 4.119800 0.000000 0.000000 
#    y 0.000000 4.119800 0.000000 
#    z 0.000000 0.000000 4.606710 
# 
# 
# High freq. dielectric constant tensor:
#      x y z
#    x 1.943900 0.000000 0.000000 
#    y 0.000000 1.943900 0.000000 
#    z 0.000000 0.000000 1.974080 
# 
# From -- ./inp_files/1649.got.cif
#   From: 2010.03.12/outbox.cif.g09.slc.cpg/sg155_1_cif.got.tgz:1649.got - 2010.04.03 13:54:13.
