data_PCOD8322238
_publ_section_title
;
Structure prediction by ZEFSAII (Michael W. Deem and Ramdas Pophale) SiO2 
 PCOD8322238
Probable space group: P 32 1 2
;
_chemical_formula_sum "Si O2"
_cell_formula_units_Z 39
_cell_length_a 8.668214
_cell_length_b 8.668214
_cell_length_c 30.223875
_cell_angle_alpha 90.000000
_cell_angle_beta 90.000000
_cell_angle_gamma 120.000000
_cell_volume 1966.708638
_symmetry_space_group_name_H-M "P 32 1 2"
_symmetry_group_IT_number 153
_symmetry_cell_setting 'hexagonal'
loop_
_space_group_symop_operation_xyz
x,y,z
-y,x-y,2/3+z
-x+y,-x,1/3+z
-y,-x,1/3-z
-x+y,y,2/3-z
x,x-y,-z
loop_
_atom_site_type_symbol
_atom_site_label
_atom_site_fract_x
_atom_site_fract_y
_atom_site_fract_z
Si Si1 0.032158 0.795283 0.895324
Si Si2 0.867285 0.060555 0.616085
Si Si3 0.517964 0.993904 0.385556
Si Si4 0.368508 0.850252 0.074418
Si Si5 0.199984 0.880207 0.535475
Si Si6 0.213943 0.427886 0.333334
Si Si7 0.811640 0.721097 0.064460
O O1 0.965187 0.625115 0.926333
O O2 0.132650 0.795195 0.850582
O O3 0.850203 0.790109 0.884794
O O4 0.179860 0.968757 0.921498
O O5 0.878479 0.121522 0.666667
O O6 0.679984 0.023499 0.594814
O O7 0.877323 0.882964 0.612489
O O8 0.479796 0.959591 0.333334
O O9 0.497825 0.823442 0.412021
O O10 0.713037 0.166074 0.395385
O O11 0.496795 0.865994 0.114719
O O12 0.450939 0.833573 0.029218
O O13 0.009321 0.729375 0.555789
O O14 0.279131 0.311394 0.307600
#
# Coordination Sequence:
#
# PCOD8322238 Si02
#       7
#     6   6   6   6   6   3   6
#     4  10  21  39  61  80 120 150 204 239 294 357
#     4  10  19  35  59  86 111 153 189 246 289 359
#     4  11  22  35  58  92 116 151 190 255 294 359
#     4  10  21  35  56  86 119 147 195 238 306 345
#     4   9  21  40  58  83 110 165 194 246 289 351
#     4  10  18  36  56  82 124 152 184 252 292 370
#     4   9  19  35  61  80 111 154 204 228 297 352
#
# _framework density 19.830086000000001
#
# number of rings (size 3 to 8) (size 9 to 14) (size 15 to 20)
#    0.000    2.154    1.538    1.846    4.308    1.846 
#    2.769    3.077    0.000    0.000    0.000    0.000 
#    0.000    0.000    0.000    0.000    0.000    0.000 
#
# Total GULP energy -483397.948066 kJ/mol
# GULP energy per Si atom -12394.819181 kJ/mol
# Density = 1.978495 g / cm^3
# Si number density = 19.830086 Si / 1000 Ang^3
#
#
#
# Elastic Constant Matrix: (Units=GPa)
#
#
# Indices 1 2 3 4 5 6 
#
# 1 95.0656 36.1054 37.5176 0.0003 -1.1513 0.0000
# 2 36.1054 95.0656 37.5176 -0.0003 1.1513 0.0000
# 3 37.5176 37.5176 122.0975 0.0000 0.0000 0.0000
# 4 0.0003 -0.0003 0.0000 29.1979 0.0000 1.1513
# 5 -1.1513 1.1513 0.0000 0.0000 29.1979 0.0003
# 6 0.0000 0.0000 0.0000 1.1513 0.0003 29.4801
#
#
#
# Elastic Compliance Matrix: (Units=1/GPa)
#
#
# Indices 1 2 3 4 5 6 
#
# 1 0.013118 -0.003869 -0.002842 0.000000 0.000670 0.000000
# 2 -0.003869 0.013118 -0.002842 0.000000 -0.000670 0.000000
# 3 -0.002842 -0.002842 0.009937 0.000000 0.000000 0.000000
# 4 0.000000 0.000000 0.000000 0.034302 0.000000 -0.001340
# 5 0.000670 -0.000670 0.000000 0.000000 0.034302 0.000000
# 6 0.000000 0.000000 0.000000 -0.001340 0.000000 0.033974
#
#
# Mechanical properties :
#
#
# Convention : Reuss Voigt Hill
#
# Bulk Modulus (GPa) = 58.59196 59.38999 58.99098
# Shear Modulus (GPa) = 30.57260 30.98105 30.77682
#
# Velocity S-wave (km/s) = 3.93074 3.95691 3.94385
# Velocity P-wave (km/s) = 7.08605 7.13377 7.10995
#
# Compressibility (1/GPa) = 0.01706719
#
# Stress axis : x y z
#
# Youngs Moduli (GPa) = 76.23054 76.23054 100.63588
#
# Poissons Ratio (x) = 0.29491 0.28602
# Poissons Ratio (y) = 0.29491 0.28602
# Poissons Ratio (z) = 0.21666 0.21666
#
# Static dielectric constant tensor:
#      x y z
#    x 3.772920 0.000000 0.000000 
#    y 0.000000 3.772920 0.000000 
#    z 0.000000 0.000000 3.883200 
# 
# 
# High freq. dielectric constant tensor:
#      x y z
#    x 1.769170 0.000000 0.000000 
#    y 0.000000 1.769170 0.000000 
#    z 0.000000 0.000000 1.770060 
# 
# From -- ./inp_files/5091.got.cif
#   From: 2010.03.12/outbox.cif.g09.slc.cpg/sg153_3_cif.got.tgz:5091.got - 2010.04.03 13:48:33.
