data_PCOD8322141
_publ_section_title
;
Structure prediction by ZEFSAII (Michael W. Deem and Ramdas Pophale) SiO2 
 PCOD8322141
Probable space group: P 31 2 1
;
_chemical_formula_sum "Si O2"
_cell_formula_units_Z 24
_cell_length_a 7.503439
_cell_length_b 7.503439
_cell_length_c 25.524040
_cell_angle_alpha 90.000000
_cell_angle_beta 90.000000
_cell_angle_gamma 120.000000
_cell_volume 1244.516792
_symmetry_space_group_name_H-M "P 31 2 1"
_symmetry_group_IT_number 152
_symmetry_cell_setting 'hexagonal'
loop_
_space_group_symop_operation_xyz
x,y,z
-y,x-y,1/3+z
-x+y,-x,2/3+z
x-y,-y,2/3-z
-x,-x+y,1/3-z
y,x,-z
loop_
_atom_site_type_symbol
_atom_site_label
_atom_site_fract_x
_atom_site_fract_y
_atom_site_fract_z
Si Si1 0.207440 0.149113 0.559624
Si Si2 0.827680 0.753470 0.442927
Si Si3 0.448329 0.850907 0.957341
Si Si4 0.479080 0.967757 0.597462
O O1 0.219276 0.219276 0.500000
O O2 0.246835 0.336196 0.597226
O O3 0.363750 0.065109 0.567008
O O4 0.987871 0.958832 0.574839
O O5 0.730060 0.730060 0.500000
O O6 0.640508 0.630571 0.401883
O O7 0.977817 0.654447 0.441743
O O8 0.274602 0.609415 0.947863
O O9 0.482855 0.893871 0.018598
#
# Coordination Sequence:
#
# PCOD8322141 Si02
#       4
#     6   6   6   6
#     4  11  22  41  63  91 124 165 208 256 315 378
#     4   9  22  42  59  90 130 154 206 266 306 369
#     4  10  21  41  63  88 127 163 208 263 304 365
#     4  10  22  40  63  91 124 163 214 257 308 370
#
# _framework density 19.284592
#
# number of rings (size 3 to 8) (size 9 to 14) (size 15 to 20)
#    1.500    0.500    2.500    0.750    0.000    8.000 
#    4.500    2.500    0.000    0.000    0.000    0.000 
#    0.000    0.000    0.000    0.000    0.000    0.000 
#
# Total GULP energy -297373.563905 kJ/mol
# GULP energy per Si atom -12390.565163 kJ/mol
# Density = 1.924070 g / cm^3
# Si number density = 19.284592 Si / 1000 Ang^3
#
#
#
# Elastic Constant Matrix: (Units=GPa)
#
#
# Indices 1 2 3 4 5 6 
#
# 1 63.5977 -13.4038 34.3047 -1.8242 0.0000 0.0000
# 2 -13.4038 63.5977 34.3047 1.8242 0.0000 0.0000
# 3 34.3047 34.3047 112.7785 0.0000 0.0000 0.0000
# 4 -1.8242 1.8242 0.0000 28.3338 0.0000 0.0000
# 5 0.0000 0.0000 0.0000 0.0000 28.3338 -1.8242
# 6 0.0000 0.0000 0.0000 0.0000 -1.8242 38.5008
#
#
#
# Elastic Compliance Matrix: (Units=1/GPa)
#
#
# Indices 1 2 3 4 5 6 
#
# 1 0.023564 0.010537 -0.010373 0.000839 0.000000 0.000000
# 2 0.010537 0.023564 -0.010373 -0.000839 0.000000 0.000000
# 3 -0.010373 -0.010373 0.015177 0.000000 0.000000 0.000000
# 4 0.000839 -0.000839 0.000000 0.035401 0.000000 0.000000
# 5 0.000000 0.000000 0.000000 0.000000 0.035401 0.001677
# 6 0.000000 0.000000 0.000000 0.000000 0.001677 0.026053
#
#
# Mechanical properties :
#
#
# Convention : Reuss Voigt Hill
#
# Bulk Modulus (GPa) = 23.87291 38.93164 31.40227
# Shear Modulus (GPa) = 25.83441 31.35158 28.59299
#
# Velocity S-wave (km/s) = 3.66408 4.03641 3.85474
# Velocity P-wave (km/s) = 5.50516 6.47729 6.01091
#
# Compressibility (1/GPa) = 0.04188849
#
# Stress axis : x y z
#
# Youngs Moduli (GPa) = 42.43785 42.43785 65.88788
#
# Poissons Ratio (x) = -0.44718 0.68344
# Poissons Ratio (y) = -0.44718 0.68344
# Poissons Ratio (z) = 0.44020 0.44020
#
# Static dielectric constant tensor:
#      x y z
#    x 3.460700 0.000000 0.000000 
#    y 0.000000 3.460700 0.000000 
#    z 0.000000 0.000000 3.468770 
# 
# 
# High freq. dielectric constant tensor:
#      x y z
#    x 1.742500 0.000000 0.000000 
#    y 0.000000 1.742500 0.000000 
#    z 0.000000 0.000000 1.754000 
# 
# From -- ./inp_files/2920.got.cif
#   From: 2010.03.12/outbox.cif.g09.slc.cpg/sg152_2_cif.got.tgz:2920.got - 2010.04.03 13:45:27.
