data_PCOD8322636
_publ_section_title
;
Structure prediction by ZEFSAII (Michael W. Deem and Ramdas Pophale) SiO2 
 PCOD8322636
Probable space group: R 3 2
;
_chemical_formula_sum "Si O2"
_cell_formula_units_Z 54
_cell_length_a 14.432639
_cell_length_b 14.432639
_cell_length_c 12.921295
_cell_angle_alpha 90.000000
_cell_angle_beta 90.000000
_cell_angle_gamma 120.000000
_cell_volume 2330.924309
_symmetry_space_group_name_H-M "R 3 2"
_symmetry_group_IT_number 155
_symmetry_cell_setting 'hexagonal'
loop_
_space_group_symop_operation_xyz
x,y,z
-y,x-y,z
-x+y,-x,z
x-y,-y,-z
-x,-x+y,-z
y,x,-z
2/3+x,1/3+y,1/3+z
2/3-y,1/3+x-y,1/3+z
2/3-x+y,1/3-x,1/3+z
2/3+x-y,1/3-y,1/3-z
2/3-x,1/3-x+y,1/3-z
2/3+y,1/3+x,1/3-z
1/3+x,2/3+y,2/3+z
1/3-y,2/3+x-y,2/3+z
1/3-x+y,2/3-x,2/3+z
1/3+x-y,2/3-y,2/3-z
1/3-x,2/3-x+y,2/3-z
1/3+y,2/3+x,2/3-z
loop_
_atom_site_type_symbol
_atom_site_label
_atom_site_fract_x
_atom_site_fract_y
_atom_site_fract_z
Si Si1 0.268648 0.457796 0.062075
Si Si2 0.860073 0.783322 0.705250
Si Si3 0.232989 0.779133 0.606905
O O1 0.333334 0.508247 0.166667
O O2 0.199524 0.330885 0.064514
O O3 0.357662 0.485382 0.975640
O O4 0.198465 0.511887 0.033755
O O5 0.768227 0.666667 0.666667
O O6 0.866632 0.815525 0.824910
O O7 0.199086 0.666667 0.666667
O O8 0.333334 0.873332 0.666667
#
# Coordination Sequence:
#
# PCOD8322636 Si02
#       3
#    18  18  18
#     4  12  26  46  78 112 154 201 264 329 386 461
#     4  12  26  47  75 115 156 204 264 322 395 468
#     4  12  28  49  77 111 159 206 257 321 399 470
#
# _framework density 23.166775000000001
#
# number of rings (size 3 to 8) (size 9 to 14) (size 15 to 20)
#    0.000    0.000    3.333    6.000    0.000    6.667 
#    0.000    0.000    0.000    0.000    0.000    0.000 
#    0.000    0.000    0.000    0.000    0.000    0.000 
#
# Total GULP energy -223054.882725 kJ/mol
# GULP energy per Si atom -12391.937929 kJ/mol
# Density = 2.311405 g / cm^3
# Si number density = 23.166775 Si / 1000 Ang^3
#
#
#
# Elastic Constant Matrix: (Units=GPa)
#
#
# Indices 1 2 3 4 5 6 
#
# 1 113.4358 49.2211 66.3219 -4.1381 -0.0021 0.0000
# 2 49.2211 113.4358 66.3219 4.1381 0.0021 0.0000
# 3 66.3219 66.3219 191.2312 0.0000 0.0000 0.0000
# 4 -4.1381 4.1381 0.0000 37.4310 0.0000 0.0021
# 5 -0.0021 0.0021 0.0000 0.0000 37.4310 -4.1381
# 6 0.0000 0.0000 0.0000 0.0021 -4.1381 32.1073
#
#
#
# Elastic Compliance Matrix: (Units=1/GPa)
#
#
# Indices 1 2 3 4 5 6 
#
# 1 0.012185 -0.003613 -0.002973 0.001746 0.000001 0.000000
# 2 -0.003613 0.012185 -0.002973 -0.001746 -0.000001 0.000000
# 3 -0.002973 -0.002973 0.007291 0.000000 0.000000 0.000000
# 4 0.001746 -0.001746 0.000000 0.027102 0.000000 -0.000002
# 5 0.000001 -0.000001 0.000000 0.000000 0.027102 0.003493
# 6 0.000000 0.000000 0.000000 -0.000002 0.003493 0.031596
#
#
# Mechanical properties :
#
#
# Convention : Reuss Voigt Hill
#
# Bulk Modulus (GPa) = 79.71892 86.87028 83.29460
# Shear Modulus (GPa) = 35.52137 37.14304 36.33220
#
# Velocity S-wave (km/s) = 3.91997 4.00845 3.96446
# Velocity P-wave (km/s) = 7.41443 7.68133 7.54906
#
# Compressibility (1/GPa) = 0.01254407
#
# Stress axis : x y z
#
# Youngs Moduli (GPa) = 82.06738 82.06738 137.14682
#
# Poissons Ratio (x) = 0.29649 0.40774
# Poissons Ratio (y) = 0.29649 0.40774
# Poissons Ratio (z) = 0.24399 0.24399
#
# Static dielectric constant tensor:
#      x y z
#    x 4.292650 0.000000 0.000000 
#    y 0.000000 4.292650 0.000000 
#    z 0.000000 0.000000 4.906490 
# 
# 
# High freq. dielectric constant tensor:
#      x y z
#    x 1.925990 0.000000 0.000000 
#    y 0.000000 1.925990 0.000000 
#    z 0.000000 0.000000 1.935100 
# 
# From -- ./inp_files/4657.got.cif
#   From: 2010.03.12/outbox.cif.g09.slc.cpg/sg155_3_cif.got.tgz:4657.got - 2010.04.03 13:54:13.
