data_PCOD8322097
_publ_section_title
;
Structure prediction by ZEFSAII (Michael W. Deem and Ramdas Pophale) SiO2 
 PCOD8322097
Probable space group: P 31 2 1
;
_chemical_formula_sum "Si O2"
_cell_formula_units_Z 36
_cell_length_a 8.993317
_cell_length_b 8.993317
_cell_length_c 24.901083
_cell_angle_alpha 90.000000
_cell_angle_beta 90.000000
_cell_angle_gamma 120.000000
_cell_volume 1744.169434
_symmetry_space_group_name_H-M "P 31 2 1"
_symmetry_group_IT_number 152
_symmetry_cell_setting 'hexagonal'
loop_
_space_group_symop_operation_xyz
x,y,z
-y,x-y,1/3+z
-x+y,-x,2/3+z
x-y,-y,2/3-z
-x,-x+y,1/3-z
y,x,-z
loop_
_atom_site_type_symbol
_atom_site_label
_atom_site_fract_x
_atom_site_fract_y
_atom_site_fract_z
Si Si1 0.473006 0.449680 0.703358
Si Si2 0.098399 0.133054 0.287973
Si Si3 0.605108 0.630576 0.408905
Si Si4 0.304267 0.610281 0.775702
Si Si5 0.313357 0.983164 0.269417
Si Si6 0.661229 0.311533 0.771887
O O1 0.305720 0.266272 0.689367
O O2 0.548781 0.563189 0.650509
O O3 0.426853 0.558944 0.744239
O O4 0.622569 0.426250 0.730756
O O5 0.973375 0.187727 0.258182
O O6 0.981797 0.000000 0.333334
O O7 0.171687 0.035654 0.250059
O O8 0.448925 0.645876 0.430656
O O9 0.640555 0.510518 0.448726
O O10 0.321060 0.587925 0.839090
O O11 0.107941 0.494763 0.757887
O O12 0.260090 0.792232 0.253929
O O13 0.324833 0.000000 0.333334
#
# Coordination Sequence:
#
# PCOD8322097 Si02
#       6
#     6   6   6   6   6   6
#     4  10  21  38  60  83 114 158 204 245 295 368
#     4   9  19  35  56  83 113 146 192 247 295 350
#     4  11  21  36  59  85 116 156 199 247 302 366
#     4  11  22  37  58  88 120 152 199 257 305 354
#     4  10  20  38  61  85 116 158 201 244 297 367
#     4  11  22  38  59  86 120 158 198 252 310 359
#
# _framework density 20.640198000000002
#
# number of rings (size 3 to 8) (size 9 to 14) (size 15 to 20)
#    0.000    1.667    0.000    7.500    0.000    2.000 
#    0.000    0.000    0.000   14.000    0.000    0.000 
#    0.000    0.000    0.000    0.000    0.000    0.000 
#
# Total GULP energy -446311.224392 kJ/mol
# GULP energy per Si atom -12397.534011 kJ/mol
# Density = 2.059322 g / cm^3
# Si number density = 20.640198 Si / 1000 Ang^3
#
#
#
# Elastic Constant Matrix: (Units=GPa)
#
#
# Indices 1 2 3 4 5 6 
#
# 1 92.9016 23.9111 12.0357 3.0170 -0.0001 0.0000
# 2 23.9111 92.9016 12.0357 -3.0170 0.0001 0.0000
# 3 12.0357 12.0357 63.1634 0.0000 0.0000 0.0000
# 4 3.0170 -3.0170 0.0000 24.8438 0.0000 0.0001
# 5 -0.0001 0.0001 0.0000 0.0000 24.8438 3.0170
# 6 0.0000 0.0000 0.0000 0.0001 3.0170 34.4952
#
#
#
# Elastic Compliance Matrix: (Units=1/GPa)
#
#
# Indices 1 2 3 4 5 6 
#
# 1 0.011780 -0.002870 -0.001698 -0.001779 0.000000 0.000000
# 2 -0.002870 0.011780 -0.001698 0.001779 0.000000 0.000000
# 3 -0.001698 -0.001698 0.016479 0.000000 0.000000 0.000000
# 4 -0.001779 0.001779 0.000000 0.040684 0.000000 0.000000
# 5 0.000000 0.000000 0.000000 0.000000 0.040684 -0.003558
# 6 0.000000 0.000000 0.000000 0.000000 -0.003558 0.029301
#
#
# Mechanical properties :
#
#
# Convention : Reuss Voigt Hill
#
# Bulk Modulus (GPa) = 36.35229 38.32576 37.33903
# Shear Modulus (GPa) = 29.00082 30.23548 29.61815
#
# Velocity S-wave (km/s) = 3.75249 3.83153 3.79222
# Velocity P-wave (km/s) = 6.03535 6.17924 6.10772
#
# Compressibility (1/GPa) = 0.02750858
#
# Stress axis : x y z
#
# Youngs Moduli (GPa) = 84.88620 84.88620 60.68322
#
# Poissons Ratio (x) = 0.24361 0.10303
# Poissons Ratio (y) = 0.24361 0.10303
# Poissons Ratio (z) = 0.14413 0.14413
#
# Static dielectric constant tensor:
#      x y z
#    x 3.931380 0.000000 0.000000 
#    y 0.000000 3.931380 0.000000 
#    z 0.000000 0.000000 3.576040 
# 
# 
# High freq. dielectric constant tensor:
#      x y z
#    x 1.814680 0.000000 0.000000 
#    y 0.000000 1.814680 0.000000 
#    z 0.000000 0.000000 1.786580 
# 
# From -- ./inp_files/3354.got.cif
#   From: 2010.03.12/outbox.cif.g09.slc.cpg/sg152_2_cif.got.tgz:3354.got - 2010.04.03 13:45:27.
