data_PCOD8322911
_publ_section_title
;
Structure prediction by ZEFSAII (Michael W. Deem and Ramdas Pophale) SiO2 
 PCOD8322911
Probable space group: R 3 C
;
_chemical_formula_sum "Si O2"
_cell_formula_units_Z 108
_cell_length_a 15.643210
_cell_length_b 15.643210
_cell_length_c 20.030486
_cell_angle_alpha 90.000000
_cell_angle_beta 90.000000
_cell_angle_gamma 120.000000
_cell_volume 4244.962610
_symmetry_space_group_name_H-M "R 3 C"
_symmetry_group_IT_number 161
_symmetry_cell_setting 'hexagonal'
loop_
_space_group_symop_operation_xyz
x,y,z
-y,x-y,z
-x+y,-x,z
-x+y,y,1/2+z
x,x-y,1/2+z
-y,-x,1/2+z
2/3+x,1/3+y,1/3+z
2/3-y,1/3+x-y,1/3+z
2/3-x+y,1/3-x,1/3+z
2/3-x+y,1/3+y,5/6+z
2/3+x,1/3+x-y,5/6+z
2/3-y,1/3-x,5/6+z
1/3+x,2/3+y,2/3+z
1/3-y,2/3+x-y,2/3+z
1/3-x+y,2/3-x,2/3+z
1/3-x+y,2/3+y,1/6+z
1/3+x,2/3+x-y,1/6+z
1/3-y,2/3-x,1/6+z
loop_
_atom_site_type_symbol
_atom_site_label
_atom_site_fract_x
_atom_site_fract_y
_atom_site_fract_z
Si Si1 0.695266 0.635044 0.555902
Si Si2 0.703026 0.519781 0.367948
Si Si3 0.804370 0.950650 0.244955
Si Si4 0.293910 0.483899 0.779714
Si Si5 0.443398 0.190304 0.223720
Si Si6 0.326011 0.363269 0.579578
O O1 0.727881 0.552816 0.556679
O O2 0.751789 0.713543 0.615831
O O3 0.577517 0.582590 0.560835
O O4 0.735069 0.702202 0.489893
O O5 0.771381 0.482304 0.398625
O O6 0.604578 0.474291 0.413177
O O7 0.689072 0.491946 0.288856
O O8 0.750580 0.638830 0.372828
O O9 0.839323 0.973000 0.322889
O O10 0.882960 0.024785 0.189645
O O11 0.709223 0.962628 0.239007
O O12 0.418445 0.277914 0.219474
#
# Coordination Sequence:
#
# PCOD8322911 Si02
#       6
#    18  18  18  18  18  18
#     4  11  23  44  73 107 144 195 258 320 387 462
#     4  12  25  46  73 108 150 200 255 314 387 466
#     4  11  23  42  72 103 144 193 253 314 382 455
#     4  12  25  45  73 105 145 202 254 311 385 461
#     4  11  25  44  71 112 147 194 259 325 385 467
#     4  11  23  43  72 107 144 194 253 316 384 467
#
# _framework density 25.441921000000001
#
# number of rings (size 3 to 8) (size 9 to 14) (size 15 to 20)
#    0.000    0.667    5.000    3.333    2.333    0.000 
#    0.000    1.667    0.000    0.667    0.000    0.000 
#    0.000    0.000    0.000    0.000    0.000    0.000 
#
# Total GULP energy -446183.711172 kJ/mol
# GULP energy per Si atom -12393.991977 kJ/mol
# Density = 2.538401 g / cm^3
# Si number density = 25.441921 Si / 1000 Ang^3
#
#
#
# Elastic Constant Matrix: (Units=GPa)
#
#
# Indices 1 2 3 4 5 6 
#
# 1 65.8754 17.4917 45.3063 -2.7969 0.0000 0.0000
# 2 17.4917 65.8754 45.3063 2.7969 0.0000 0.0000
# 3 45.3063 45.3063 238.8090 0.0000 0.0000 0.0000
# 4 -2.7969 2.7969 0.0000 28.1633 0.0000 0.0000
# 5 0.0000 0.0000 0.0000 0.0000 28.1633 -2.7969
# 6 0.0000 0.0000 0.0000 0.0000 -2.7969 24.1919
#
#
#
# Elastic Compliance Matrix: (Units=1/GPa)
#
#
# Indices 1 2 3 4 5 6 
#
# 1 0.018010 -0.002899 -0.002867 0.002076 0.000000 0.000000
# 2 -0.002899 0.018010 -0.002867 -0.002076 0.000000 0.000000
# 3 -0.002867 -0.002867 0.005275 0.000000 0.000000 0.000000
# 4 0.002076 -0.002076 0.000000 0.035920 0.000000 0.000000
# 5 0.000000 0.000000 0.000000 0.000000 0.035920 0.004153
# 6 0.000000 0.000000 0.000000 0.000000 0.004153 0.041816
#
#
# Mechanical properties :
#
#
# Convention : Reuss Voigt Hill
#
# Bulk Modulus (GPa) = 41.61439 65.19646 53.40543
# Shear Modulus (GPa) = 27.74316 33.60073 30.67195
#
# Velocity S-wave (km/s) = 3.30578 3.63806 3.47589
# Velocity P-wave (km/s) = 5.56444 6.58244 6.09474
#
# Compressibility (1/GPa) = 0.02403015
#
# Stress axis : x y z
#
# Youngs Moduli (GPa) = 55.52573 55.52573 189.56510
#
# Poissons Ratio (x) = 0.16094 0.54346
# Poissons Ratio (y) = 0.16094 0.54346
# Poissons Ratio (z) = 0.15918 0.15918
#
# Static dielectric constant tensor:
#      x y z
#    x 4.282660 0.000000 0.000000 
#    y 0.000000 4.282660 0.000000 
#    z 0.000000 0.000000 5.262410 
# 
# 
# High freq. dielectric constant tensor:
#      x y z
#    x 1.992420 0.000000 0.000000 
#    y 0.000000 1.992420 0.000000 
#    z 0.000000 0.000000 2.048870 
# 
# From -- ./inp_files/1683.got.cif
#   From: 2010.03.12/outbox.cif.g09.slc.cpg/sg161_cif.got.tgz:1683.got - 2010.04.02 06:27:14.
