data_PCOD8322339
_publ_section_title
;
Structure prediction by ZEFSAII (Michael W. Deem and Ramdas Pophale) SiO2 
 PCOD8322339
Probable space group: P 32 2 1
;
_chemical_formula_sum "Si O2"
_cell_formula_units_Z 21
_cell_length_a 8.974505
_cell_length_b 8.974505
_cell_length_c 14.351310
_cell_angle_alpha 90.000000
_cell_angle_beta 90.000000
_cell_angle_gamma 120.000000
_cell_volume 1001.020992
_symmetry_space_group_name_H-M "P 32 2 1"
_symmetry_group_IT_number 154
_symmetry_cell_setting 'hexagonal'
loop_
_space_group_symop_operation_xyz
x,y,z
-y,x-y,2/3+z
-x+y,-x,1/3+z
x-y,-y,1/3-z
-x,-x+y,2/3-z
y,x,-z
loop_
_atom_site_type_symbol
_atom_site_label
_atom_site_fract_x
_atom_site_fract_y
_atom_site_fract_z
Si Si1 0.128080 0.391258 0.670553
Si Si2 0.269486 0.029996 0.815239
Si Si3 0.143761 0.000000 0.166667
Si Si4 0.874581 0.596298 0.990057
O O1 0.022731 0.358358 0.573407
O O2 0.301440 0.381646 0.668462
O O3 0.182245 0.583593 0.703980
O O4 0.001638 0.249559 0.743318
O O5 0.156875 0.854833 0.758505
O O6 0.414505 0.175119 0.747888
O O7 0.161825 0.118514 0.847102
#
# Coordination Sequence:
#
# PCOD8322339 Si02
#       4
#     6   6   3   6
#     4  11  22  38  64  93 124 158 215 261 311 372
#     4  10  20  42  63  87 128 172 206 252 325 387
#     4  10  20  36  68  94 112 170 214 254 302 392
#     4  10  23  39  66  89 125 168 208 260 321 377
#
# _framework density 20.978583
#
# number of rings (size 3 to 8) (size 9 to 14) (size 15 to 20)
#    0.000    1.714    2.857    0.857    4.000    2.286 
#    5.143    0.000    0.000    0.000    0.000    0.000 
#    0.000    0.000    0.000    0.000    0.000    0.000 
#
# Total GULP energy -260266.281172 kJ/mol
# GULP energy per Si atom -12393.632437 kJ/mol
# Density = 2.093083 g / cm^3
# Si number density = 20.978583 Si / 1000 Ang^3
#
#
#
# Elastic Constant Matrix: (Units=GPa)
#
#
# Indices 1 2 3 4 5 6 
#
# 1 99.7107 46.6642 27.4968 -4.2397 -0.0003 0.0000
# 2 46.6642 99.7107 27.4968 4.2397 0.0003 0.0000
# 3 27.4968 27.4968 89.9018 0.0000 0.0000 0.0000
# 4 -4.2397 4.2397 0.0000 18.2600 0.0000 0.0003
# 5 -0.0003 0.0003 0.0000 0.0000 18.2600 -4.2397
# 6 0.0000 0.0000 0.0000 0.0003 -4.2397 26.5233
#
#
#
# Elastic Compliance Matrix: (Units=1/GPa)
#
#
# Indices 1 2 3 4 5 6 
#
# 1 0.013648 -0.005930 -0.002361 0.004546 0.000000 0.000000
# 2 -0.005930 0.013648 -0.002361 -0.004546 0.000000 0.000000
# 3 -0.002361 -0.002361 0.012567 0.000000 0.000000 0.000000
# 4 0.004546 -0.004546 0.000000 0.056875 0.000000 -0.000001
# 5 0.000000 0.000000 0.000000 0.000000 0.056875 0.009091
# 6 0.000000 0.000000 0.000000 -0.000001 0.009091 0.039156
#
#
# Mechanical properties :
#
#
# Convention : Reuss Voigt Hill
#
# Bulk Modulus (GPa) = 53.87460 54.73765 54.30613
# Shear Modulus (GPa) = 22.70042 25.11969 23.91005
#
# Velocity S-wave (km/s) = 3.29306 3.46410 3.37966
# Velocity P-wave (km/s) = 6.33999 6.49221 6.41655
#
# Compressibility (1/GPa) = 0.01856162
#
# Stress axis : x y z
#
# Youngs Moduli (GPa) = 73.26887 73.26887 79.57110
#
# Poissons Ratio (x) = 0.43446 0.18785
# Poissons Ratio (y) = 0.43446 0.18785
# Poissons Ratio (z) = 0.17297 0.17297
#
# Static dielectric constant tensor:
#      x y z
#    x 3.624030 0.000000 0.000000 
#    y 0.000000 3.624030 0.000000 
#    z 0.000000 0.000000 4.057470 
# 
# 
# High freq. dielectric constant tensor:
#      x y z
#    x 1.809820 0.000000 0.000000 
#    y 0.000000 1.809820 0.000000 
#    z 0.000000 0.000000 1.829710 
# 
# From -- ./inp_files/2205.got.cif
#   From: 2010.03.12/outbox.cif.g09.slc.cpg/sg154_2_cif.got.tgz:2205.got - 2010.04.03 13:51:21.
