data_PCOD8322726
_publ_section_title
;
Structure prediction by ZEFSAII (Michael W. Deem and Ramdas Pophale) SiO2 
 PCOD8322726
Probable space group: P 3 1 M
;
_chemical_formula_sum "Si O2"
_cell_formula_units_Z 36
_cell_length_a 15.973005
_cell_length_b 15.973005
_cell_length_c 9.404597
_cell_angle_alpha 90.000000
_cell_angle_beta 90.000000
_cell_angle_gamma 120.000000
_cell_volume 2077.992985
_symmetry_space_group_name_H-M "P 3 1 M"
_symmetry_group_IT_number 157
_symmetry_cell_setting 'hexagonal'
loop_
_space_group_symop_operation_xyz
x,y,z
-y,x-y,z
-x+y,-x,z
y,x,z
x-y,-y,z
-x,-x+y,z
loop_
_atom_site_type_symbol
_atom_site_label
_atom_site_fract_x
_atom_site_fract_y
_atom_site_fract_z
Si Si1 0.735689 0.110923 0.946170
Si Si2 0.113486 0.392836 0.444275
Si Si3 0.624766 0.889077 0.613186
Si Si4 0.279350 0.886514 0.115082
Si Si5 0.449969 0.564337 0.936154
Si Si6 0.885632 0.435664 0.623203
O O1 0.760627 0.124102 0.779678
O O2 0.658994 0.146271 0.983175
O O3 0.694394 0.000000 0.991798
O O4 0.832056 0.176198 0.036626
O O5 0.167944 0.344142 0.522730
O O6 0.141116 0.406969 0.279678
O O7 0.149501 0.499092 0.509937
O O8 0.000000 0.322237 0.468628
O O9 0.512722 0.853729 0.576182
O O10 0.694393 0.000000 0.567558
O O11 0.322237 0.000000 0.090728
O O12 0.349590 0.850498 0.049420
O O13 0.506780 0.506780 0.924638
O O14 0.450553 0.607811 0.779678
O O15 0.000000 0.493221 0.634720
#
# Coordination Sequence:
#
# PCOD8322726 Si02
#       6
#     6   6   6   6   6   6
#     4   9  18  33  53  75  97 126 167 209 247 288
#     4  10  20  32  48  73 103 133 164 198 242 296
#     4   9  18  33  53  75  97 126 167 209 247 288
#     4  10  20  32  48  73 103 133 164 198 242 296
#     4   8  15  30  50  69  91 121 158 199 240 283
#     4   8  15  30  50  69  91 121 158 199 240 283
#
# _framework density 17.324407999999998
#
# number of rings (size 3 to 8) (size 9 to 14) (size 15 to 20)
#    0.000    3.000    0.000    3.000    0.000    4.000 
#    2.000    3.333    0.000    0.667    0.000    0.000 
#    0.000    0.000    0.000    0.000    0.000    0.000 
#
# Total GULP energy -446265.509444 kJ/mol
# GULP energy per Si atom -12396.264151 kJ/mol
# Density = 1.728498 g / cm^3
# Si number density = 17.324408 Si / 1000 Ang^3
#
#
#
# Elastic Constant Matrix: (Units=GPa)
#
#
# Indices 1 2 3 4 5 6 
#
# 1 75.6547 34.5551 56.5999 0.0000 0.0000 0.0000
# 2 34.5551 75.6547 56.5999 0.0000 0.0000 0.0000
# 3 56.5999 56.5999 109.6251 0.0000 0.0000 0.0000
# 4 0.0000 0.0000 0.0000 26.8945 0.0000 0.0000
# 5 0.0000 0.0000 0.0000 0.0000 26.8945 0.0000
# 6 0.0000 0.0000 0.0000 0.0000 0.0000 20.5498
#
#
#
# Elastic Compliance Matrix: (Units=1/GPa)
#
#
# Indices 1 2 3 4 5 6 
#
# 1 0.021825 -0.002506 -0.009974 0.000000 0.000000 0.000000
# 2 -0.002506 0.021825 -0.009974 0.000000 0.000000 0.000000
# 3 -0.009974 -0.009974 0.019421 0.000000 0.000000 0.000000
# 4 0.000000 0.000000 0.000000 0.037182 0.000000 0.000000
# 5 0.000000 0.000000 0.000000 0.000000 0.037182 0.000000
# 6 0.000000 0.000000 0.000000 0.000000 0.000000 0.048662
#
#
# Mechanical properties :
#
#
# Convention : Reuss Voigt Hill
#
# Bulk Modulus (GPa) = 55.06151 61.82714 58.44432
# Shear Modulus (GPa) = 21.09163 22.41309 21.75236
#
# Velocity S-wave (km/s) = 3.49299 3.60075 3.54727
# Velocity P-wave (km/s) = 6.93683 7.28372 7.11239
#
# Compressibility (1/GPa) = 0.01816151
#
# Stress axis : x y z
#
# Youngs Moduli (GPa) = 45.81956 45.81956 51.48955
#
# Poissons Ratio (x) = 0.11484 0.51357
# Poissons Ratio (y) = 0.11484 0.51357
# Poissons Ratio (z) = 0.45701 0.45701
#
# Static dielectric constant tensor:
#      x y z
#    x 3.120370 0.000000 0.000000 
#    y 0.000000 3.120370 0.000000 
#    z 0.000000 0.000000 3.252300 
# 
# 
# High freq. dielectric constant tensor:
#      x y z
#    x 1.651930 0.000000 0.000000 
#    y 0.000000 1.651930 0.000000 
#    z 0.000000 0.000000 1.668050 
# 
# From -- ./inp_files/416.got.cif
#   From: 2010.03.12/outbox.cif.g09.slc.cpg/sg157_cif.got.tgz:416.got - 2010.04.03 13:59:21.
