data_PCOD8322122
_publ_section_title
;
Structure prediction by ZEFSAII (Michael W. Deem and Ramdas Pophale) SiO2 
 PCOD8322122
Probable space group: P 31 2 1
;
_chemical_formula_sum "Si O2"
_cell_formula_units_Z 30
_cell_length_a 8.459317
_cell_length_b 8.459317
_cell_length_c 23.690960
_cell_angle_alpha 90.000000
_cell_angle_beta 90.000000
_cell_angle_gamma 120.000000
_cell_volume 1468.195507
_symmetry_space_group_name_H-M "P 31 2 1"
_symmetry_group_IT_number 152
_symmetry_cell_setting 'hexagonal'
loop_
_space_group_symop_operation_xyz
x,y,z
-y,x-y,1/3+z
-x+y,-x,2/3+z
x-y,-y,2/3-z
-x,-x+y,1/3-z
y,x,-z
loop_
_atom_site_type_symbol
_atom_site_label
_atom_site_fract_x
_atom_site_fract_y
_atom_site_fract_z
Si Si1 0.832392 0.196282 0.303776
Si Si2 0.167256 0.964806 0.492084
Si Si3 0.786999 0.660244 0.455478
Si Si4 0.683816 0.494157 0.751666
Si Si5 0.018908 0.449165 0.731265
O O1 0.881604 0.344564 0.353671
O O2 0.663194 0.181756 0.266277
O O3 0.013158 0.252787 0.268337
O O4 0.764071 0.000000 0.333334
O O5 0.276269 0.946550 0.544776
O O6 0.259475 0.952742 0.434161
O O7 0.966830 0.792654 0.490535
O O8 0.146511 0.146511 0.500000
O O9 0.623370 0.623370 0.500000
O O10 0.806420 0.489065 0.441494
O O11 0.841304 0.443914 0.756041
O O12 0.000000 0.382963 0.666667
#
# Coordination Sequence:
#
# PCOD8322122 Si02
#       5
#     6   6   6   6   6
#     4   9  19  39  59  79 114 152 188 234 288 346
#     4  11  21  35  57  83 112 151 193 233 281 340
#     4  11  22  37  60  85 113 152 193 234 288 346
#     4  10  21  37  56  84 117 146 189 241 288 339
#     4   9  20  38  57  79 112 149 185 232 284 337
#
# _framework density 20.433243999999998
#
# number of rings (size 3 to 8) (size 9 to 14) (size 15 to 20)
#    0.000    2.400    0.000    7.200    0.000    6.400 
#    0.000    4.000    0.000    0.000    0.000    0.000 
#    0.000    0.000    0.000    0.000    0.000    0.000 
#
# Total GULP energy -371703.085858 kJ/mol
# GULP energy per Si atom -12390.102862 kJ/mol
# Density = 2.038674 g / cm^3
# Si number density = 20.433244 Si / 1000 Ang^3
#
#
#
# Elastic Constant Matrix: (Units=GPa)
#
#
# Indices 1 2 3 4 5 6 
#
# 1 99.1441 42.7124 48.0665 -9.1264 -0.0002 0.0000
# 2 42.7124 99.1441 48.0665 9.1264 0.0002 0.0000
# 3 48.0665 48.0665 90.2992 0.0000 0.0000 0.0000
# 4 -9.1264 9.1264 0.0000 37.6176 0.0000 0.0002
# 5 -0.0002 0.0002 0.0000 0.0000 37.6176 -9.1264
# 6 0.0000 0.0000 0.0000 0.0002 -9.1264 28.2159
#
#
#
# Elastic Compliance Matrix: (Units=1/GPa)
#
#
# Indices 1 2 3 4 5 6 
#
# 1 0.015128 -0.004101 -0.005870 0.004665 0.000000 0.000000
# 2 -0.004101 0.015128 -0.005870 -0.004665 0.000000 0.000000
# 3 -0.005870 -0.005870 0.017323 0.000000 0.000000 0.000000
# 4 0.004665 -0.004665 0.000000 0.028847 0.000000 0.000000
# 5 0.000000 0.000000 0.000000 0.000000 0.028847 0.009331
# 6 0.000000 0.000000 0.000000 0.000000 0.009331 0.038459
#
#
# Mechanical properties :
#
#
# Convention : Reuss Voigt Hill
#
# Bulk Modulus (GPa) = 62.89902 62.91982 62.90942
# Shear Modulus (GPa) = 27.66797 30.67299 29.17048
#
# Velocity S-wave (km/s) = 3.68376 3.87865 3.78246
# Velocity P-wave (km/s) = 6.99592 7.13570 7.06616
#
# Compressibility (1/GPa) = 0.01589850
#
# Stress axis : x y z
#
# Youngs Moduli (GPa) = 66.10091 66.10091 57.72553
#
# Poissons Ratio (x) = 0.27109 0.33884
# Poissons Ratio (y) = 0.27109 0.33884
# Poissons Ratio (z) = 0.38800 0.38800
#
# Static dielectric constant tensor:
#      x y z
#    x 3.701160 0.000000 0.000000 
#    y 0.000000 3.701160 0.000000 
#    z 0.000000 0.000000 3.961080 
# 
# 
# High freq. dielectric constant tensor:
#      x y z
#    x 1.783580 0.000000 0.000000 
#    y 0.000000 1.783580 0.000000 
#    z 0.000000 0.000000 1.816540 
# 
# From -- ./inp_files/2978.got.cif
#   From: 2010.03.12/outbox.cif.g09.slc.cpg/sg152_2_cif.got.tgz:2978.got - 2010.04.03 13:45:27.
