data_PCOD8322688
_publ_section_title
;
Structure prediction by ZEFSAII (Michael W. Deem and Ramdas Pophale) SiO2 
 PCOD8322688
Probable space group: P 3 M 1
;
_chemical_formula_sum "Si O2"
_cell_formula_units_Z 42
_cell_length_a 12.541597
_cell_length_b 12.541597
_cell_length_c 17.810248
_cell_angle_alpha 90.000000
_cell_angle_beta 90.000000
_cell_angle_gamma 120.000000
_cell_volume 2426.086501
_symmetry_space_group_name_H-M "P 3 M 1"
_symmetry_group_IT_number 156
_symmetry_cell_setting 'hexagonal'
loop_
_space_group_symop_operation_xyz
x,y,z
-y,x-y,z
-x+y,-x,z
-x+y,y,z
x,x-y,z
-y,-x,z
loop_
_atom_site_type_symbol
_atom_site_label
_atom_site_fract_x
_atom_site_fract_y
_atom_site_fract_z
Si Si1 0.750000 0.998468 0.394040
Si Si2 0.583448 0.668144 0.253806
Si Si3 0.245214 0.000083 0.838750
Si Si4 0.999799 0.248537 0.112387
Si Si5 0.913186 0.332189 0.972175
Si Si6 0.755009 0.000024 0.668110
Si Si7 0.581177 0.913337 0.534509
O O1 0.871337 0.128664 0.390647
O O2 0.787609 0.893805 0.388355
O O3 0.663758 0.988847 0.325247
O O4 0.680761 0.989088 0.471173
O O5 0.546441 0.773221 0.257872
O O6 0.461694 0.538307 0.253982
O O7 0.658011 0.678739 0.178950
O O8 0.130464 0.869537 0.861288
O O9 0.204185 0.102093 0.849647
O O10 0.359721 0.028935 0.891790
O O11 0.287837 0.000635 0.753401
O O12 0.878736 0.121265 0.131195
O O13 0.110909 0.221818 0.104384
O O14 0.988502 0.307503 0.035448
O O15 0.928683 0.464342 0.985674
O O16 0.769384 0.230617 0.975175
O O17 0.869662 0.130339 0.644903
O O18 0.796427 0.898214 0.657947
O O19 0.640187 0.970069 0.615110
O O20 0.464054 0.928108 0.521399
O O21 0.539180 0.769590 0.530229
#
# Coordination Sequence:
#
# PCOD8322688 Si02
#       7
#     6   6   6   6   6   6   6
#     4  10  20  34  54  78 102 128 160 203 252 296
#     4  10  20  34  53  76 103 135 168 200 235 281
#     4   9  17  30  50  75 100 126 158 200 249 296
#     4  10  20  34  54  78 102 128 160 203 252 296
#     4  10  20  33  49  69  96 131 168 203 239 285
#     4   9  17  30  50  75 100 126 158 200 249 296
#     4  10  20  33  50  71  97 130 166 203 242 288
#
# _framework density 17.311831000000002
#
# number of rings (size 3 to 8) (size 9 to 14) (size 15 to 20)
#    0.000    2.286    0.000    3.143    0.000    1.714 
#    0.000    5.714    0.000   12.000    0.000    0.000 
#    0.000    0.000    0.000    0.000    0.000    0.000 
#
# Total GULP energy -520936.567605 kJ/mol
# GULP energy per Si atom -12403.251610 kJ/mol
# Density = 1.727243 g / cm^3
# Si number density = 17.311831 Si / 1000 Ang^3
#
#
#
# Elastic Constant Matrix: (Units=GPa)
#
#
# Indices 1 2 3 4 5 6 
#
# 1 108.9073 69.4503 51.0558 3.6901 0.0002 0.0000
# 2 69.4503 108.9073 51.0558 -3.6901 -0.0002 0.0000
# 3 51.0558 51.0558 107.5239 0.0000 0.0000 0.0000
# 4 3.6901 -3.6901 0.0000 17.4326 0.0000 -0.0002
# 5 0.0002 -0.0002 0.0000 0.0000 17.4326 3.6901
# 6 0.0000 0.0000 0.0000 -0.0002 3.6901 19.7285
#
#
#
# Elastic Compliance Matrix: (Units=1/GPa)
#
#
# Indices 1 2 3 4 5 6 
#
# 1 0.017044 -0.009344 -0.003656 -0.005586 0.000000 0.000000
# 2 -0.009344 0.017044 -0.003656 0.005586 0.000000 0.000000
# 3 -0.003656 -0.003656 0.012772 0.000000 0.000000 0.000000
# 4 -0.005586 0.005586 0.000000 0.059729 0.000000 0.000001
# 5 0.000000 0.000000 0.000000 0.000000 0.059729 -0.011172
# 6 0.000000 0.000000 0.000000 0.000001 -0.011172 0.052778
#
#
# Mechanical properties :
#
#
# Convention : Reuss Voigt Hill
#
# Bulk Modulus (GPa) = 73.81412 74.27360 74.04386
# Shear Modulus (GPa) = 19.46086 21.17051 20.31568
#
# Velocity S-wave (km/s) = 3.35645 3.50078 3.42938
# Velocity P-wave (km/s) = 7.59944 7.70306 7.65143
#
# Compressibility (1/GPa) = 0.01354754
#
# Stress axis : x y z
#
# Youngs Moduli (GPa) = 58.67036 58.67036 78.29398
#
# Poissons Ratio (x) = 0.54824 0.28626
# Poissons Ratio (y) = 0.54824 0.28626
# Poissons Ratio (z) = 0.21451 0.21451
#
# Static dielectric constant tensor:
#      x y z
#    x 3.067230 0.000000 0.000000 
#    y 0.000000 3.067230 0.000000 
#    z 0.000000 0.000000 3.498470 
# 
# 
# High freq. dielectric constant tensor:
#      x y z
#    x 1.660600 0.000000 0.000000 
#    y 0.000000 1.660600 0.000000 
#    z 0.000000 0.000000 1.688280 
# 
# From -- ./inp_files/944.got.cif
#   From: 2010.03.12/outbox.cif.g09.slc.cpg/sg156_cif.got.tgz:944.got - 2010.04.03 13:58:47.
