data_PCOD8322567
_publ_section_title
;
Structure prediction by ZEFSAII (Michael W. Deem and Ramdas Pophale) SiO2 
 PCOD8322567
Probable space group: R 3 2
;
_chemical_formula_sum "Si O2"
_cell_formula_units_Z 63
_cell_length_a 19.696253
_cell_length_b 19.696253
_cell_length_c 9.468310
_cell_angle_alpha 90.000000
_cell_angle_beta 90.000000
_cell_angle_gamma 120.000000
_cell_volume 3181.048779
_symmetry_space_group_name_H-M "R 3 2"
_symmetry_group_IT_number 155
_symmetry_cell_setting 'hexagonal'
loop_
_space_group_symop_operation_xyz
x,y,z
-y,x-y,z
-x+y,-x,z
x-y,-y,-z
-x,-x+y,-z
y,x,-z
2/3+x,1/3+y,1/3+z
2/3-y,1/3+x-y,1/3+z
2/3-x+y,1/3-x,1/3+z
2/3+x-y,1/3-y,1/3-z
2/3-x,1/3-x+y,1/3-z
2/3+y,1/3+x,1/3-z
1/3+x,2/3+y,2/3+z
1/3-y,2/3+x-y,2/3+z
1/3-x+y,2/3-x,2/3+z
1/3+x-y,2/3-y,2/3-z
1/3-x,2/3-x+y,2/3-z
1/3+y,2/3+x,2/3-z
loop_
_atom_site_type_symbol
_atom_site_label
_atom_site_fract_x
_atom_site_fract_y
_atom_site_fract_z
Si Si1 0.446244 0.180120 0.743850
Si Si2 0.613803 0.734515 0.550910
Si Si3 0.579018 0.028326 0.346681
Si Si4 0.666667 0.118604 0.833334
O O1 0.518256 0.184923 0.833334
O O2 0.443199 0.146588 0.586153
O O3 0.369547 0.116910 0.830441
O O4 0.461904 0.269084 0.741869
O O5 0.599530 0.666667 0.666667
O O6 0.596008 0.796268 0.624005
O O7 0.666667 0.097251 0.333334
O O8 0.546758 0.000000 0.500000
O O9 0.570729 0.952985 0.268791
#
# Coordination Sequence:
#
# PCOD8322567 Si02
#       4
#    18  18  18   9
#     4  10  23  40  62  85 123 164 202 254 304 372
#     4  10  24  38  58  92 123 156 202 250 311 369
#     4  11  21  36  64  90 121 156 198 258 311 363
#     4  10  22  40  60  90 120 156 214 248 312 370
#
# _framework density 19.804789
#
# number of rings (size 3 to 8) (size 9 to 14) (size 15 to 20)
#    0.000    1.714    1.429    1.714   16.000    0.000 
#    0.857    0.000    0.000    0.571    0.000    0.000 
#    0.000    0.000    0.000    0.000    0.000    0.000 
#
# Total GULP energy -260161.777016 kJ/mol
# GULP energy per Si atom -12388.656048 kJ/mol
# Density = 1.975971 g / cm^3
# Si number density = 19.804789 Si / 1000 Ang^3
#
#
#
# Elastic Constant Matrix: (Units=GPa)
#
#
# Indices 1 2 3 4 5 6 
#
# 1 85.6448 34.7857 33.5761 3.3378 -0.0002 0.0000
# 2 34.7857 85.6446 33.5756 -3.3376 0.0005 0.0001
# 3 33.5761 33.5756 132.7130 -0.0006 0.0010 -0.0003
# 4 3.3378 -3.3376 -0.0006 30.0411 -0.0003 0.0003
# 5 -0.0002 0.0005 0.0010 -0.0003 30.0414 3.3377
# 6 0.0000 0.0001 -0.0003 0.0003 3.3377 25.4294
#
#
#
# Elastic Compliance Matrix: (Units=1/GPa)
#
#
# Indices 1 2 3 4 5 6 
#
# 1 0.014810 -0.005143 -0.002446 -0.002217 0.000000 0.000000
# 2 -0.005143 0.014810 -0.002446 0.002217 0.000000 0.000000
# 3 -0.002446 -0.002446 0.008773 0.000000 0.000000 0.000000
# 4 -0.002217 0.002217 0.000000 0.033780 0.000000 0.000000
# 5 0.000000 0.000000 0.000000 0.000000 0.033780 -0.004434
# 6 0.000000 0.000000 0.000000 0.000000 -0.004434 0.039907
#
#
# Mechanical properties :
#
#
# Convention : Reuss Voigt Hill
#
# Bulk Modulus (GPa) = 54.57301 56.43079 55.50190
# Shear Modulus (GPa) = 29.06352 30.57339 29.81846
#
# Velocity S-wave (km/s) = 3.83495 3.93330 3.88444
# Velocity P-wave (km/s) = 6.87200 7.01307 6.94290
#
# Compressibility (1/GPa) = 0.01832408
#
# Stress axis : x y z
#
# Youngs Moduli (GPa) = 67.52069 67.52090 113.99118
#
# Poissons Ratio (x) = 0.34726 0.27881
# Poissons Ratio (y) = 0.34725 0.27879
# Poissons Ratio (z) = 0.16515 0.16514
#
# Static dielectric constant tensor:
#      x y z
#    x 3.655280 0.000000 0.000000 
#    y 0.000000 3.655280 0.000000 
#    z 0.000000 0.000000 3.924520 
# 
# 
# High freq. dielectric constant tensor:
#      x y z
#    x 1.761050 0.000000 0.000000 
#    y 0.000000 1.761050 0.000000 
#    z 0.000000 0.000000 1.790860 
# 
# From -- ./inp_files/1965.got.cif
#   From: 2010.03.12/outbox.cif.g09.slc.cpg/sg155_1_cif.got.tgz:1965.got - 2010.04.03 13:54:13.
