data_PCOD8322028
_publ_section_title
;
Structure prediction by ZEFSAII (Michael W. Deem and Ramdas Pophale) SiO2 
 PCOD8322028
Probable space group: P 31 2 1
;
_chemical_formula_sum "Si O2"
_cell_formula_units_Z 36
_cell_length_a 11.759756
_cell_length_b 11.759756
_cell_length_c 16.763418
_cell_angle_alpha 90.000000
_cell_angle_beta 90.000000
_cell_angle_gamma 120.000000
_cell_volume 2007.658434
_symmetry_space_group_name_H-M "P 31 2 1"
_symmetry_group_IT_number 152
_symmetry_cell_setting 'hexagonal'
loop_
_space_group_symop_operation_xyz
x,y,z
-y,x-y,1/3+z
-x+y,-x,2/3+z
x-y,-y,2/3-z
-x,-x+y,1/3-z
y,x,-z
loop_
_atom_site_type_symbol
_atom_site_label
_atom_site_fract_x
_atom_site_fract_y
_atom_site_fract_z
Si Si1 0.668717 0.341918 0.198542
Si Si2 0.349837 0.325024 0.799035
Si Si3 0.871761 0.511271 0.631549
Si Si4 0.536100 0.603446 0.732178
Si Si5 0.216806 0.814256 0.556639
Si Si6 0.420403 0.120067 0.777698
O O1 0.626417 0.256582 0.281897
O O2 0.692011 0.484368 0.224641
O O3 0.554145 0.275412 0.133789
O O4 0.798789 0.357161 0.157837
O O5 0.431316 0.337009 0.877248
O O6 0.429354 0.450577 0.742910
O O7 0.210846 0.312091 0.826526
O O8 0.341854 0.198324 0.756458
O O9 0.842017 0.604426 0.688423
O O10 0.000000 0.508131 0.666667
O O11 0.674557 0.641549 0.774329
O O12 0.554564 0.623966 0.638278
O O13 0.324688 0.000000 0.833334
#
# Coordination Sequence:
#
# PCOD8322028 Si02
#       6
#     6   6   6   6   6   6
#     4  10  20  33  49  85 116 144 183 227 277 343
#     4   9  20  35  51  82 110 139 189 227 268 336
#     4   9  16  30  52  74 110 143 179 226 267 315
#     4  11  20  33  58  80 114 149 173 236 288 330
#     4  10  18  33  55  78 111 144 182 233 272 321
#     4  11  22  34  56  84 115 145 185 229 282 330
#
# _framework density 17.931338
#
# number of rings (size 3 to 8) (size 9 to 14) (size 15 to 20)
#    0.000    2.000    3.333    3.000    2.333    0.000 
#    0.000    0.000    0.000    1.000    4.333    0.000 
#    0.000    0.000    0.000    0.000    0.000    0.000 
#
# Total GULP energy -446052.199443 kJ/mol
# GULP energy per Si atom -12390.338873 kJ/mol
# Density = 1.789053 g / cm^3
# Si number density = 17.931338 Si / 1000 Ang^3
#
#
#
# Elastic Constant Matrix: (Units=GPa)
#
#
# Indices 1 2 3 4 5 6 
#
# 1 102.7370 42.6960 33.6906 2.3286 0.0000 0.0000
# 2 42.6960 102.7370 33.6906 -2.3286 0.0000 0.0000
# 3 33.6906 33.6906 61.5419 0.0000 0.0000 0.0000
# 4 2.3286 -2.3286 0.0000 24.3107 0.0000 0.0000
# 5 0.0000 0.0000 0.0000 0.0000 24.3107 2.3286
# 6 0.0000 0.0000 0.0000 0.0000 2.3286 30.0205
#
#
#
# Elastic Compliance Matrix: (Units=1/GPa)
#
#
# Indices 1 2 3 4 5 6 
#
# 1 0.012996 -0.003784 -0.005043 -0.001607 0.000000 0.000000
# 2 -0.003784 0.012996 -0.005043 0.001607 0.000000 0.000000
# 3 -0.005043 -0.005043 0.021771 0.000000 0.000000 0.000000
# 4 -0.001607 0.001607 0.000000 0.041442 0.000000 0.000000
# 5 0.000000 0.000000 0.000000 0.000000 0.041442 -0.003215
# 6 0.000000 0.000000 0.000000 0.000000 -0.003215 0.033560
#
#
# Mechanical properties :
#
#
# Convention : Reuss Voigt Hill
#
# Bulk Modulus (GPa) = 49.94308 54.13001 52.03654
# Shear Modulus (GPa) = 25.17333 26.19096 25.68214
#
# Velocity S-wave (km/s) = 3.75089 3.82596 3.78861
# Velocity P-wave (km/s) = 6.83168 7.05480 6.94413
#
# Compressibility (1/GPa) = 0.02002279
#
# Stress axis : x y z
#
# Youngs Moduli (GPa) = 76.94476 76.94476 45.93259
#
# Poissons Ratio (x) = 0.29113 0.23166
# Poissons Ratio (y) = 0.29113 0.23166
# Poissons Ratio (z) = 0.38806 0.38806
#
# Static dielectric constant tensor:
#      x y z
#    x 3.609140 0.000000 0.000000 
#    y 0.000000 3.609140 0.000000 
#    z 0.000000 0.000000 3.459070 
# 
# 
# High freq. dielectric constant tensor:
#      x y z
#    x 1.675810 0.000000 0.000000 
#    y 0.000000 1.675810 0.000000 
#    z 0.000000 0.000000 1.700210 
# 
# From -- ./inp_files/2386.got.cif
#   From: 2010.03.12/outbox.cif.g09.slc.cpg/sg152_2_cif.got.tgz:2386.got - 2010.04.03 13:45:27.
