data_PCOD8322450
_publ_section_title
;
Structure prediction by ZEFSAII (Michael W. Deem and Ramdas Pophale) SiO2 
 PCOD8322450
Probable space group: P 32 2 1
;
_chemical_formula_sum "Si O2"
_cell_formula_units_Z 24
_cell_length_a 7.276847
_cell_length_b 7.276847
_cell_length_c 20.892005
_cell_angle_alpha 90.000000
_cell_angle_beta 90.000000
_cell_angle_gamma 120.000000
_cell_volume 958.069998
_symmetry_space_group_name_H-M "P 32 2 1"
_symmetry_group_IT_number 154
_symmetry_cell_setting 'hexagonal'
loop_
_space_group_symop_operation_xyz
x,y,z
-y,x-y,2/3+z
-x+y,-x,1/3+z
x-y,-y,1/3-z
-x,-x+y,2/3-z
y,x,-z
loop_
_atom_site_type_symbol
_atom_site_label
_atom_site_fract_x
_atom_site_fract_y
_atom_site_fract_z
Si Si1 0.756826 0.161191 0.854107
Si Si2 0.258244 0.594437 0.579014
Si Si3 0.850579 0.501259 0.951354
Si Si4 0.744469 0.756208 0.146438
O O1 0.626703 0.201365 0.797231
O O2 0.744615 0.266581 0.920384
O O3 0.000000 0.269445 0.833334
O O4 0.665947 0.907521 0.864510
O O5 0.375880 0.473330 0.602771
O O6 0.186415 0.676493 0.639791
O O7 0.051818 0.425378 0.536886
O O8 0.742415 0.625954 0.919796
O O9 0.879027 0.000000 0.166667
#
# Coordination Sequence:
#
# PCOD8322450 Si02
#       4
#     6   6   6   6
#     4   8  15  31  56  88 124 165 209 261 325 391
#     4   9  17  31  57  90 125 163 209 272 323 382
#     4   9  17  31  57  90 125 163 209 272 323 382
#     4   8  15  31  56  88 124 165 209 261 325 391
#
# _framework density 25.050357999999999
#
# number of rings (size 3 to 8) (size 9 to 14) (size 15 to 20)
#    0.000    3.500    0.000    3.000    0.000    0.000 
#    0.000   20.000   11.000    3.000    0.000    0.000 
#    0.000    0.000    0.000    0.000    0.000    0.000 
#
# Total GULP energy -297752.567012 kJ/mol
# GULP energy per Si atom -12406.356959 kJ/mol
# Density = 2.499334 g / cm^3
# Si number density = 25.050358 Si / 1000 Ang^3
#
#
#
# Elastic Constant Matrix: (Units=GPa)
#
#
# Indices 1 2 3 4 5 6 
#
# 1 168.6382 82.6310 90.9587 7.1154 0.0000 0.0000
# 2 82.6310 168.6382 90.9587 -7.1154 0.0000 0.0000
# 3 90.9587 90.9587 215.6648 0.0000 0.0000 0.0000
# 4 7.1154 -7.1154 0.0000 35.1346 0.0000 0.0000
# 5 0.0000 0.0000 0.0000 0.0000 35.1346 7.1154
# 6 0.0000 0.0000 0.0000 0.0000 7.1154 43.0036
#
#
#
# Elastic Compliance Matrix: (Units=1/GPa)
#
#
# Indices 1 2 3 4 5 6 
#
# 1 0.008880 -0.003150 -0.002416 -0.002436 0.000000 0.000000
# 2 -0.003150 0.008880 -0.002416 0.002436 0.000000 0.000000
# 3 -0.002416 -0.002416 0.006675 0.000000 0.000000 0.000000
# 4 -0.002436 0.002436 0.000000 0.029449 0.000000 0.000000
# 5 0.000000 0.000000 0.000000 0.000000 0.029449 -0.004873
# 6 0.000000 0.000000 0.000000 0.000000 -0.004873 0.024060
#
#
# Mechanical properties :
#
#
# Convention : Reuss Voigt Hill
#
# Bulk Modulus (GPa) = 118.09034 120.22644 119.15839
# Shear Modulus (GPa) = 39.62564 41.88075 40.75320
#
# Velocity S-wave (km/s) = 3.98155 4.09328 4.03780
# Velocity P-wave (km/s) = 8.26925 8.39273 8.33122
#
# Compressibility (1/GPa) = 0.00846809
#
# Stress axis : x y z
#
# Youngs Moduli (GPa) = 112.61733 112.61733 149.81132
#
# Poissons Ratio (x) = 0.35479 0.36200
# Poissons Ratio (y) = 0.35479 0.36200
# Poissons Ratio (z) = 0.27212 0.27212
#
# Static dielectric constant tensor:
#      x y z
#    x 5.011140 0.000000 0.000000 
#    y 0.000000 5.011140 0.000000 
#    z 0.000000 0.000000 4.661860 
# 
# 
# High freq. dielectric constant tensor:
#      x y z
#    x 2.041600 0.000000 0.000000 
#    y 0.000000 2.041600 0.000000 
#    z 0.000000 0.000000 1.988400 
# 
# From -- ./inp_files/2658.got.cif
#   From: 2010.03.12/outbox.cif.g09.slc.cpg/sg154_2_cif.got.tgz:2658.got - 2010.04.03 13:51:21.
