data_PCOD8322032
_publ_section_title
;
Structure prediction by ZEFSAII (Michael W. Deem and Ramdas Pophale) SiO2 
 PCOD8322032
Probable space group: P 31 2 1
;
_chemical_formula_sum "Si O2"
_cell_formula_units_Z 39
_cell_length_a 13.529642
_cell_length_b 13.529642
_cell_length_c 12.491177
_cell_angle_alpha 90.000000
_cell_angle_beta 90.000000
_cell_angle_gamma 120.000000
_cell_volume 1980.188821
_symmetry_space_group_name_H-M "P 31 2 1"
_symmetry_group_IT_number 152
_symmetry_cell_setting 'hexagonal'
loop_
_space_group_symop_operation_xyz
x,y,z
-y,x-y,1/3+z
-x+y,-x,2/3+z
x-y,-y,2/3-z
-x,-x+y,1/3-z
y,x,-z
loop_
_atom_site_type_symbol
_atom_site_label
_atom_site_fract_x
_atom_site_fract_y
_atom_site_fract_z
Si Si1 0.824546 0.057291 0.948518
Si Si2 0.487493 0.617569 0.281955
Si Si3 0.482931 0.711281 0.912169
Si Si4 0.020656 0.300714 0.486918
Si Si5 0.865913 0.865913 0.000000
Si Si6 0.674114 0.285843 0.229500
Si Si7 0.969391 0.579781 0.045350
O O1 0.910393 0.193396 0.944033
O O2 0.778872 0.000000 0.833334
O O3 0.707713 0.033153 0.005787
O O4 0.884402 0.993032 0.002128
O O5 0.606724 0.698650 0.220870
O O6 0.481772 0.683270 0.389430
O O7 0.374289 0.579321 0.208553
O O8 0.492744 0.504482 0.310696
O O9 0.584995 0.688247 0.885441
O O10 0.407392 0.687445 0.804945
O O11 0.526753 0.835034 0.962857
O O12 0.412057 0.629133 0.008502
O O13 0.982731 0.192880 0.563021
O O14 0.000000 0.573509 0.166667
#
# Coordination Sequence:
#
# PCOD8322032 Si02
#       7
#     6   6   6   6   3   6   6
#     4   9  18  34  58  83 105 137 199 247 277 334
#     4  11  23  37  59  89 124 159 193 244 300 361
#     4  11  19  38  60  87 115 161 202 251 295 356
#     4  11  20  35  60  85 112 152 202 238 298 360
#     4  10  18  34  62  82 108 142 196 254 292 340
#     4  10  23  37  56  87 127 155 198 243 302 357
#     4  11  18  35  60  88 111 150 197 249 285 343
#
# _framework density 19.695093
#
# number of rings (size 3 to 8) (size 9 to 14) (size 15 to 20)
#    0.000    1.538    6.154    1.846    0.000    1.231 
#    0.000    0.000   10.154    0.000    0.000    0.000 
#    0.000    0.000    0.000    0.000    0.000    0.000 
#
# Total GULP energy -483320.095626 kJ/mol
# GULP energy per Si atom -12392.822965 kJ/mol
# Density = 1.965027 g / cm^3
# Si number density = 19.695093 Si / 1000 Ang^3
#
#
#
# Elastic Constant Matrix: (Units=GPa)
#
#
# Indices 1 2 3 4 5 6 
#
# 1 74.1795 21.9078 17.6444 -0.7807 0.0000 0.0000
# 2 21.9078 74.1795 17.6444 0.7807 0.0000 0.0000
# 3 17.6444 17.6444 46.0883 0.0000 0.0000 0.0000
# 4 -0.7807 0.7807 0.0000 22.9759 0.0000 0.0000
# 5 0.0000 0.0000 0.0000 0.0000 22.9759 -0.7807
# 6 0.0000 0.0000 0.0000 0.0000 -0.7807 26.1359
#
#
#
# Elastic Compliance Matrix: (Units=1/GPa)
#
#
# Indices 1 2 3 4 5 6 
#
# 1 0.015630 -0.003520 -0.004636 0.000651 0.000000 0.000000
# 2 -0.003520 0.015630 -0.004636 -0.000651 0.000000 0.000000
# 3 -0.004636 -0.004636 0.025247 0.000000 0.000000 0.000000
# 4 0.000651 -0.000651 0.000000 0.043568 0.000000 0.000000
# 5 0.000000 0.000000 0.000000 0.000000 0.043568 0.001301
# 6 0.000000 0.000000 0.000000 0.000000 0.001301 0.038300
#
#
# Mechanical properties :
#
#
# Convention : Reuss Voigt Hill
#
# Bulk Modulus (GPa) = 32.33893 34.31560 33.32727
# Shear Modulus (GPa) = 22.95299 23.56757 23.26028
#
# Velocity S-wave (km/s) = 3.41752 3.46297 3.44032
# Velocity P-wave (km/s) = 5.65933 5.78367 5.72184
#
# Compressibility (1/GPa) = 0.03092248
#
# Stress axis : x y z
#
# Youngs Moduli (GPa) = 63.97933 63.97933 39.60820
#
# Poissons Ratio (x) = 0.22522 0.18363
# Poissons Ratio (y) = 0.22522 0.18363
# Poissons Ratio (z) = 0.29662 0.29662
#
# Static dielectric constant tensor:
#      x y z
#    x 3.892750 0.000000 0.000000 
#    y 0.000000 3.892750 0.000000 
#    z 0.000000 0.000000 3.483920 
# 
# 
# High freq. dielectric constant tensor:
#      x y z
#    x 1.762800 0.000000 0.000000 
#    y 0.000000 1.762800 0.000000 
#    z 0.000000 0.000000 1.744710 
# 
# From -- ./inp_files/1770.got.cif
#   From: 2010.03.12/outbox.cif.g09.slc.cpg/sg152_1_cif.got.tgz:1770.got - 2010.04.03 13:45:27.
