data_PCOD8322498
_publ_section_title
;
Structure prediction by ZEFSAII (Michael W. Deem and Ramdas Pophale) SiO2 
 PCOD8322498
Probable space group: R 3 2
;
_chemical_formula_sum "Si O2"
_cell_formula_units_Z 96
_cell_length_a 22.418399
_cell_length_b 22.418399
_cell_length_c 11.670535
_cell_angle_alpha 90.000000
_cell_angle_beta 90.000000
_cell_angle_gamma 120.000000
_cell_volume 5079.612532
_symmetry_space_group_name_H-M "R 3 2"
_symmetry_group_IT_number 155
_symmetry_cell_setting 'hexagonal'
loop_
_space_group_symop_operation_xyz
x,y,z
-y,x-y,z
-x+y,-x,z
x-y,-y,-z
-x,-x+y,-z
y,x,-z
2/3+x,1/3+y,1/3+z
2/3-y,1/3+x-y,1/3+z
2/3-x+y,1/3-x,1/3+z
2/3+x-y,1/3-y,1/3-z
2/3-x,1/3-x+y,1/3-z
2/3+y,1/3+x,1/3-z
1/3+x,2/3+y,2/3+z
1/3-y,2/3+x-y,2/3+z
1/3-x+y,2/3-x,2/3+z
1/3+x-y,2/3-y,2/3-z
1/3-x,2/3-x+y,2/3-z
1/3+y,2/3+x,2/3-z
loop_
_atom_site_type_symbol
_atom_site_label
_atom_site_fract_x
_atom_site_fract_y
_atom_site_fract_z
Si Si1 0.902085 0.649300 0.374006
Si Si2 0.191114 0.096175 0.906596
Si Si3 0.945953 0.132717 0.150328
Si Si4 0.797759 0.458967 0.624897
Si Si5 0.884803 0.551470 0.833334
Si Si6 0.333334 0.666668 0.299019
Si Si7 0.666667 0.835047 0.833334
O O1 0.942110 0.608777 0.333334
O O2 0.825494 0.601661 0.421589
O O3 0.938468 0.705222 0.473912
O O4 0.892038 0.687952 0.266390
O O5 0.154826 0.128481 0.831750
O O6 0.184912 0.028193 0.845016
O O7 0.159721 0.074746 0.035156
O O8 0.907264 0.176804 0.140956
O O9 0.920637 0.087069 0.266086
O O10 0.836577 0.517338 0.721930
O O11 0.719146 0.410173 0.660710
O O12 0.333334 0.666668 0.166667
#
# Coordination Sequence:
#
# PCOD8322498 Si02
#       7
#    18  18  18  18   9   6   9
#     4  11  23  39  59  93 126 165 205 257 311 374
#     4  10  22  37  62  87 123 153 206 259 315 366
#     4  10  20  38  62  90 115 163 199 261 319 357
#     4  12  22  40  57  88 122 162 204 256 301 375
#     4  12  27  36  64  88 128 173 208 234 322 376
#     4  12  24  39  58  83 124 168 207 244 311 379
#     4  10  19  38  62  82 128 155 202 262 312 366
#
# _framework density 18.899077999999999
#
# number of rings (size 3 to 8) (size 9 to 14) (size 15 to 20)
#    0.000    1.125    4.688    3.375    2.625    0.000 
#    0.000    0.000    0.000   11.250    0.000    0.000 
#    0.000    0.000    0.000    0.000    0.000    0.000 
#
# Total GULP energy -396430.941454 kJ/mol
# GULP energy per Si atom -12388.466920 kJ/mol
# Density = 1.885606 g / cm^3
# Si number density = 18.899078 Si / 1000 Ang^3
#
#
#
# Elastic Constant Matrix: (Units=GPa)
#
#
# Indices 1 2 3 4 5 6 
#
# 1 101.8948 54.1179 42.0153 -4.6607 0.0001 0.0000
# 2 54.1179 101.8938 42.0154 4.6610 -0.0001 -0.0001
# 3 42.0153 42.0154 87.7093 0.0000 0.0003 0.0000
# 4 -4.6607 4.6610 0.0000 30.4547 0.0000 -0.0001
# 5 0.0001 -0.0001 0.0003 0.0000 30.4546 -4.6608
# 6 0.0000 -0.0001 0.0000 -0.0001 -4.6608 23.8884
#
#
#
# Elastic Compliance Matrix: (Units=1/GPa)
#
#
# Indices 1 2 3 4 5 6 
#
# 1 0.015107 -0.006468 -0.004138 0.003302 0.000000 0.000000
# 2 -0.006468 0.015107 -0.004138 -0.003302 0.000000 0.000000
# 3 -0.004138 -0.004138 0.015366 0.000000 0.000000 0.000000
# 4 0.003302 -0.003302 0.000000 0.033846 0.000000 0.000000
# 5 0.000000 0.000000 0.000000 0.000000 0.033846 0.006604
# 6 0.000000 0.000000 0.000000 0.000000 0.006604 0.043150
#
#
# Mechanical properties :
#
#
# Convention : Reuss Voigt Hill
#
# Bulk Modulus (GPa) = 62.14837 63.08834 62.61836
# Shear Modulus (GPa) = 26.14040 27.18281 26.66161
#
# Velocity S-wave (km/s) = 3.72312 3.79663 3.76005
# Velocity P-wave (km/s) = 7.17202 7.25764 7.21496
#
# Compressibility (1/GPa) = 0.01609053
#
# Stress axis : x y z
#
# Youngs Moduli (GPa) = 66.19559 66.19464 65.07919
#
# Poissons Ratio (x) = 0.42816 0.26930
# Poissons Ratio (y) = 0.42817 0.26931
# Poissons Ratio (z) = 0.27392 0.27393
#
# Static dielectric constant tensor:
#      x y z
#    x 3.370280 0.000000 0.000000 
#    y 0.000000 3.370280 -0.000010 
#    z 0.000000 -0.000010 3.649630 
# 
# 
# High freq. dielectric constant tensor:
#      x y z
#    x 1.726190 0.000000 0.000000 
#    y 0.000000 1.726190 0.000000 
#    z 0.000000 0.000000 1.739050 
# 
# From -- ./inp_files/4027.got.cif
#   From: 2010.03.12/outbox.cif.g09.slc.cpg/sg155_3_cif.got.tgz:4027.got - 2010.04.03 13:54:13.
