data_PCOD8322654
_publ_section_title
;
Structure prediction by ZEFSAII (Michael W. Deem and Ramdas Pophale) SiO2 
 PCOD8322654
Probable space group: P 3 M 1
;
_chemical_formula_sum "Si O2"
_cell_formula_units_Z 42
_cell_length_a 20.542772
_cell_length_b 20.542772
_cell_length_c 5.368091
_cell_angle_alpha 90.000000
_cell_angle_beta 90.000000
_cell_angle_gamma 120.000000
_cell_volume 1961.862623
_symmetry_space_group_name_H-M "P 3 M 1"
_symmetry_group_IT_number 156
_symmetry_cell_setting 'hexagonal'
loop_
_space_group_symop_operation_xyz
x,y,z
-y,x-y,z
-x+y,-x,z
-x+y,y,z
x,x-y,z
-y,-x,z
loop_
_atom_site_type_symbol
_atom_site_label
_atom_site_fract_x
_atom_site_fract_y
_atom_site_fract_z
Si Si1 0.948410 0.402262 0.195370
Si Si2 0.735596 0.120519 0.873435
Si Si3 0.525096 0.191763 0.534404
Si Si4 0.152387 0.998636 0.165711
Si Si5 0.331970 0.819054 0.903100
Si Si6 0.522347 0.894941 0.404760
Si Si7 0.810988 0.039260 0.664050
O O1 0.963929 0.481965 0.061609
O O2 0.868548 0.368345 0.320436
O O3 0.014989 0.423422 0.393687
O O4 0.942659 0.333334 0.034400
O O5 0.815299 0.184702 0.007201
O O6 0.701681 0.166464 0.748364
O O7 0.756757 0.075100 0.675123
O O8 0.602283 0.204565 0.656228
O O9 0.537903 0.268952 0.412587
O O10 0.066897 0.933103 0.178399
O O11 0.154283 0.077142 0.165609
O O12 0.197215 0.992434 0.407121
O O13 0.191359 0.990124 0.914435
O O14 0.410473 0.820946 0.903200
O O15 0.266435 0.733566 0.890411
O O16 0.325769 0.863883 0.661690
O O17 0.323459 0.858028 0.154375
O O18 0.435724 0.871448 0.411159
O O19 0.897612 0.102389 0.657652
#
# Coordination Sequence:
#
# PCOD8322654 Si02
#       7
#     6   6   6   6   6   6   6
#     4  10  21  36  57  83 111 148 192 236 281 337
#     4  10  21  36  57  83 111 148 192 236 281 337
#     4  10  21  36  58  88 119 148 182 232 292 348
#     4  10  19  34  56  85 116 150 188 239 297 348
#     4  10  19  34  56  85 116 150 188 239 297 348
#     4   9  20  34  54  82 115 151 194 238 281 335
#     4   9  20  34  54  82 115 151 194 238 281 335
#
# _framework density 21.408225999999999
#
# number of rings (size 3 to 8) (size 9 to 14) (size 15 to 20)
#    0.000    2.286    0.000    2.143    4.000    0.000 
#    0.000    2.857    0.000    9.714    0.000    0.000 
#    0.000    0.000    0.000    0.000    0.000    0.000 
#
# Total GULP energy -520312.364057 kJ/mol
# GULP energy per Si atom -12388.389620 kJ/mol
# Density = 2.135950 g / cm^3
# Si number density = 21.408226 Si / 1000 Ang^3
#
#
#
# Elastic Constant Matrix: (Units=GPa)
#
#
# Indices 1 2 3 4 5 6 
#
# 1 63.5609 35.3204 26.9945 -3.5364 0.0003 0.0000
# 2 35.3204 63.5609 26.9945 3.5364 -0.0003 0.0000
# 3 26.9945 26.9945 126.7587 0.0000 0.0000 0.0000
# 4 -3.5364 3.5364 0.0000 22.2349 0.0000 -0.0003
# 5 0.0003 -0.0003 0.0000 0.0000 22.2349 -3.5364
# 6 0.0000 0.0000 0.0000 -0.0003 -3.5364 14.1203
#
#
#
# Elastic Compliance Matrix: (Units=1/GPa)
#
#
# Indices 1 2 3 4 5 6 
#
# 1 0.024161 -0.012718 -0.002437 0.005865 0.000000 0.000000
# 2 -0.012718 0.024161 -0.002437 -0.005865 0.000000 0.000000
# 3 -0.002437 -0.002437 0.008927 0.000000 0.000000 0.000000
# 4 0.005865 -0.005865 0.000000 0.046840 0.000000 0.000001
# 5 0.000000 0.000000 0.000000 0.000000 0.046840 0.011731
# 6 0.000000 0.000000 0.000000 0.000001 0.011731 0.073758
#
#
# Mechanical properties :
#
#
# Convention : Reuss Voigt Hill
#
# Bulk Modulus (GPa) = 45.31802 48.05548 46.68675
# Shear Modulus (GPa) = 18.71065 22.68941 20.70003
#
# Velocity S-wave (km/s) = 2.95955 3.25906 3.11291
# Velocity P-wave (km/s) = 5.73524 6.05458 5.89707
#
# Compressibility (1/GPa) = 0.02206628
#
# Stress axis : x y z
#
# Youngs Moduli (GPa) = 41.38827 41.38827 112.01975
#
# Poissons Ratio (x) = 0.52636 0.27300
# Poissons Ratio (y) = 0.52636 0.27300
# Poissons Ratio (z) = 0.10087 0.10087
#
# Static dielectric constant tensor:
#      x y z
#    x 4.022690 0.000000 0.000000 
#    y 0.000000 4.022690 0.000000 
#    z 0.000000 0.000000 4.071330 
# 
# 
# High freq. dielectric constant tensor:
#      x y z
#    x 1.827760 0.000000 0.000000 
#    y 0.000000 1.827760 0.000000 
#    z 0.000000 0.000000 1.830370 
# 
# From -- ./inp_files/192.got.cif
#   From: 2010.03.12/outbox.cif.g09.slc.cpg/sg156_cif.got.tgz:192.got - 2010.04.03 13:58:47.
