data_PCOD8322180
_publ_section_title
;
Structure prediction by ZEFSAII (Michael W. Deem and Ramdas Pophale) SiO2 
 PCOD8322180
Probable space group: P 31 2 1
;
_chemical_formula_sum "Si O2"
_cell_formula_units_Z 24
_cell_length_a 14.836970
_cell_length_b 14.836970
_cell_length_c 5.133824
_cell_angle_alpha 90.000000
_cell_angle_beta 90.000000
_cell_angle_gamma 120.000000
_cell_volume 978.728071
_symmetry_space_group_name_H-M "P 31 2 1"
_symmetry_group_IT_number 152
_symmetry_cell_setting 'hexagonal'
loop_
_space_group_symop_operation_xyz
x,y,z
-y,x-y,1/3+z
-x+y,-x,2/3+z
x-y,-y,2/3-z
-x,-x+y,1/3-z
y,x,-z
loop_
_atom_site_type_symbol
_atom_site_label
_atom_site_fract_x
_atom_site_fract_y
_atom_site_fract_z
Si Si1 0.100223 0.000000 0.333334
Si Si2 0.578126 0.430590 0.708181
Si Si3 0.000000 0.614372 0.666667
Si Si4 0.198248 0.488066 0.437683
Si Si5 0.103465 0.804456 0.336468
O O1 0.207732 0.087848 0.198820
O O2 0.070792 0.070792 0.500000
O O3 0.468030 0.424832 0.763436
O O4 0.638353 0.509448 0.470125
O O5 0.559872 0.318694 0.629155
O O6 0.642683 0.467018 0.971805
O O7 0.094716 0.724704 0.562837
O O8 0.166857 0.368656 0.486121
O O9 0.000000 0.747410 0.166667
#
# Coordination Sequence:
#
# PCOD8322180 Si02
#       5
#     3   6   3   6   6
#     4  10  23  47  76 110 146 202 262 329 397 474
#     4  12  26  44  72 103 151 194 259 306 392 457
#     4  12  25  45  74 110 150 212 254 323 397 478
#     4  12  25  45  70 111 148 204 252 322 378 474
#     4  11  24  45  76 108 153 201 265 323 397 462
#
# _framework density 24.521619999999999
#
# number of rings (size 3 to 8) (size 9 to 14) (size 15 to 20)
#    0.000    0.500    2.500    6.750    0.000    1.000 
#    0.000    2.500    0.000    0.000    0.000    0.000 
#    0.000    0.000    0.000    0.000    0.000    0.000 
#
# Total GULP energy -297537.773358 kJ/mol
# GULP energy per Si atom -12397.407223 kJ/mol
# Density = 2.446581 g / cm^3
# Si number density = 24.521620 Si / 1000 Ang^3
#
#
#
# Elastic Constant Matrix: (Units=GPa)
#
#
# Indices 1 2 3 4 5 6 
#
# 1 142.6574 83.1312 61.3844 1.2358 0.0000 0.0000
# 2 83.1312 142.6574 61.3844 -1.2358 0.0000 0.0000
# 3 61.3844 61.3844 151.4646 0.0000 0.0000 0.0000
# 4 1.2358 -1.2358 0.0000 31.9371 0.0000 0.0000
# 5 0.0000 0.0000 0.0000 0.0000 31.9371 1.2358
# 6 0.0000 0.0000 0.0000 0.0000 1.2358 29.7631
#
#
#
# Elastic Compliance Matrix: (Units=1/GPa)
#
#
# Indices 1 2 3 4 5 6 
#
# 1 0.011254 -0.005573 -0.002302 -0.000651 0.000000 0.000000
# 2 -0.005573 0.011254 -0.002302 0.000651 0.000000 0.000000
# 3 -0.002302 -0.002302 0.008468 0.000000 0.000000 0.000000
# 4 -0.000651 0.000651 0.000000 0.031362 0.000000 0.000000
# 5 0.000000 0.000000 0.000000 0.000000 0.031362 -0.001302
# 6 0.000000 0.000000 0.000000 0.000000 -0.001302 0.033653
#
#
# Mechanical properties :
#
#
# Convention : Reuss Voigt Hill
#
# Bulk Modulus (GPa) = 94.15519 94.28659 94.22089
# Shear Modulus (GPa) = 33.05857 34.11944 33.58900
#
# Velocity S-wave (km/s) = 3.67569 3.73420 3.70506
# Velocity P-wave (km/s) = 7.51627 7.55819 7.53726
#
# Compressibility (1/GPa) = 0.01062076
#
# Stress axis : x y z
#
# Youngs Moduli (GPa) = 88.86089 88.86089 118.08789
#
# Poissons Ratio (x) = 0.49521 0.27187
# Poissons Ratio (y) = 0.49521 0.27187
# Poissons Ratio (z) = 0.20458 0.20458
#
# Static dielectric constant tensor:
#      x y z
#    x 5.170760 0.000000 0.000000 
#    y 0.000000 5.170760 0.000000 
#    z 0.000000 0.000000 4.436390 
# 
# 
# High freq. dielectric constant tensor:
#      x y z
#    x 1.982960 0.000000 0.000000 
#    y 0.000000 1.982960 0.000000 
#    z 0.000000 0.000000 1.966370 
# 
# From -- ./inp_files/208.got.cif
#   From: 2010.03.12/outbox.cif.g09.slc.cpg/sg152_1_cif.got.tgz:208.got - 2010.04.03 13:45:27.
