data_PCOD8322505
_publ_section_title
;
Structure prediction by ZEFSAII (Michael W. Deem and Ramdas Pophale) SiO2 
 PCOD8322505
Probable space group: R 3 2
;
_chemical_formula_sum "Si O2"
_cell_formula_units_Z 108
_cell_length_a 16.897649
_cell_length_b 16.897649
_cell_length_c 25.480556
_cell_angle_alpha 90.000000
_cell_angle_beta 90.000000
_cell_angle_gamma 120.000000
_cell_volume 6300.747870
_symmetry_space_group_name_H-M "R 3 2"
_symmetry_group_IT_number 155
_symmetry_cell_setting 'hexagonal'
loop_
_space_group_symop_operation_xyz
x,y,z
-y,x-y,z
-x+y,-x,z
x-y,-y,-z
-x,-x+y,-z
y,x,-z
2/3+x,1/3+y,1/3+z
2/3-y,1/3+x-y,1/3+z
2/3-x+y,1/3-x,1/3+z
2/3+x-y,1/3-y,1/3-z
2/3-x,1/3-x+y,1/3-z
2/3+y,1/3+x,1/3-z
1/3+x,2/3+y,2/3+z
1/3-y,2/3+x-y,2/3+z
1/3-x+y,2/3-x,2/3+z
1/3+x-y,2/3-y,2/3-z
1/3-x,2/3-x+y,2/3-z
1/3+y,2/3+x,2/3-z
loop_
_atom_site_type_symbol
_atom_site_label
_atom_site_fract_x
_atom_site_fract_y
_atom_site_fract_z
Si Si1 0.907820 0.273494 0.285006
Si Si2 0.699005 0.940161 0.951671
Si Si3 0.154275 0.486579 0.009745
Si Si4 0.001029 0.820942 0.656922
Si Si5 0.612912 0.042567 0.780436
Si Si6 0.290768 0.053755 0.447102
O O1 0.903906 0.333334 0.333334
O O2 0.805710 0.194288 0.271756
O O3 0.972076 0.231998 0.300919
O O4 0.949655 0.335972 0.233548
O O5 0.593252 0.898663 0.967584
O O6 0.719648 0.002638 0.900213
O O7 0.762756 0.000000 0.000000
O O8 0.119729 0.449325 0.067966
O O9 0.262448 0.524896 0.006103
O O10 0.133214 0.566606 0.996333
O O11 0.003736 0.786394 0.598702
O O12 0.666667 0.086548 0.833334
O O13 0.508397 0.016794 0.786624
O O14 0.246790 0.000000 0.500000
#
# Coordination Sequence:
#
# PCOD8322505 Si02
#       6
#    18  18  18  18  18  18
#     4   9  18  32  50  71  94 122 157 195 234 276
#     4   9  18  32  50  71  94 122 157 195 234 276
#     4   9  17  29  46  69  96 125 157 194 235 278
#     4   9  17  29  46  69  96 125 157 194 235 278
#     4  10  20  32  48  70  95 124 157 191 230 278
#     4  10  20  32  48  70  95 124 157 191 230 278
#
# _framework density 17.140822
#
# number of rings (size 3 to 8) (size 9 to 14) (size 15 to 20)
#    0.000    2.667    0.000    4.333    0.000    8.000 
#    0.000    0.000    0.000   11.333    0.000    2.333 
#    0.000    0.000    0.000    0.000    0.000    0.000 
#
# Total GULP energy -446397.019749 kJ/mol
# GULP energy per Si atom -12399.917215 kJ/mol
# Density = 1.710181 g / cm^3
# Si number density = 17.140822 Si / 1000 Ang^3
#
#
#
# Elastic Constant Matrix: (Units=GPa)
#
#
# Indices 1 2 3 4 5 6 
#
# 1 105.0605 68.5338 30.3755 4.5277 -0.0001 0.0000
# 2 68.5338 105.0605 30.3755 -4.5277 0.0001 0.0000
# 3 30.3755 30.3755 55.4821 0.0000 0.0000 0.0000
# 4 4.5277 -4.5277 0.0000 20.3777 0.0000 0.0001
# 5 -0.0001 0.0001 0.0000 0.0000 20.3777 4.5277
# 6 0.0000 0.0000 0.0000 0.0001 4.5277 18.2633
#
#
#
# Elastic Compliance Matrix: (Units=1/GPa)
#
#
# Indices 1 2 3 4 5 6 
#
# 1 0.018050 -0.010924 -0.003901 -0.006437 0.000000 0.000000
# 2 -0.010924 0.018050 -0.003901 0.006437 0.000000 0.000000
# 3 -0.003901 -0.003901 0.022296 0.000000 0.000000 0.000000
# 4 -0.006437 0.006437 0.000000 0.051934 0.000000 0.000000
# 5 0.000000 0.000000 0.000000 0.000000 0.051934 -0.012875
# 6 0.000000 0.000000 0.000000 0.000000 -0.012875 0.057946
#
#
# Mechanical properties :
#
#
# Convention : Reuss Voigt Hill
#
# Bulk Modulus (GPa) = 47.75053 58.24141 52.99597
# Shear Modulus (GPa) = 18.89345 20.89163 19.89254
#
# Velocity S-wave (km/s) = 3.32362 3.49495 3.41036
# Velocity P-wave (km/s) = 6.53045 7.09494 6.81854
#
# Compressibility (1/GPa) = 0.02094217
#
# Stress axis : x y z
#
# Youngs Moduli (GPa) = 55.40318 55.40318 44.85187
#
# Poissons Ratio (x) = 0.60521 0.17498
# Poissons Ratio (y) = 0.60521 0.17498
# Poissons Ratio (z) = 0.21614 0.21614
#
# Static dielectric constant tensor:
#      x y z
#    x 3.207790 0.000000 0.000000 
#    y 0.000000 3.207790 0.000000 
#    z 0.000000 0.000000 3.005410 
# 
# 
# High freq. dielectric constant tensor:
#      x y z
#    x 1.660700 0.000000 0.000000 
#    y 0.000000 1.660700 0.000000 
#    z 0.000000 0.000000 1.640170 
# 
# From -- ./inp_files/7465.got.cif
#   From: 2010.03.12/outbox.cif.g09.slc.cpg/sg155_4_cif.got.tgz:7465.got - 2010.04.03 13:54:13.
