data_PCOD8322121
_publ_section_title
;
Structure prediction by ZEFSAII (Michael W. Deem and Ramdas Pophale) SiO2 
 PCOD8322121
Probable space group: P 31 2 1
;
_chemical_formula_sum "Si O2"
_cell_formula_units_Z 45
_cell_length_a 14.580102
_cell_length_b 14.580102
_cell_length_c 12.196111
_cell_angle_alpha 90.000000
_cell_angle_beta 90.000000
_cell_angle_gamma 120.000000
_cell_volume 2245.293528
_symmetry_space_group_name_H-M "P 31 2 1"
_symmetry_group_IT_number 152
_symmetry_cell_setting 'hexagonal'
loop_
_space_group_symop_operation_xyz
x,y,z
-y,x-y,1/3+z
-x+y,-x,2/3+z
x-y,-y,2/3-z
-x,-x+y,1/3-z
y,x,-z
loop_
_atom_site_type_symbol
_atom_site_label
_atom_site_fract_x
_atom_site_fract_y
_atom_site_fract_z
Si Si1 0.125953 0.840765 0.394470
Si Si2 0.479331 0.823293 0.628274
Si Si3 0.335388 0.514147 0.723926
Si Si4 0.716913 0.769078 0.835669
Si Si5 0.709817 0.382367 0.148926
Si Si6 0.999019 0.430113 0.955827
Si Si7 0.284605 0.169659 0.710931
Si Si8 0.000000 0.306623 0.166667
O O1 0.133727 0.738864 0.431170
O O2 0.178855 0.877185 0.275505
O O3 0.003823 0.809894 0.396856
O O4 0.184709 0.934132 0.482079
O O5 0.438002 0.721843 0.549786
O O6 0.439400 0.788224 0.751445
O O7 0.605806 0.885795 0.630704
O O8 0.433486 0.896627 0.584334
O O9 0.281825 0.538365 0.620585
O O10 0.348400 0.589024 0.825807
O O11 0.449682 0.538217 0.681519
O O12 0.612620 0.655663 0.809282
O O13 0.742716 0.848180 0.735335
O O14 0.024311 0.381763 0.062052
O O15 0.291330 0.100561 0.810261
#
# Coordination Sequence:
#
# PCOD8322121 Si02
#       8
#     6   6   6   6   6   6   6   3
#     4  11  22  41  60  86 113 152 197 240 283 342
#     4  11  20  36  58  88 116 149 189 226 283 343
#     4  11  20  36  57  87 117 150 189 226 282 344
#     4  10  23  39  61  85 117 152 190 242 294 335
#     4  10  21  32  55  87 118 151 182 229 273 351
#     4  11  20  37  60  87 117 153 182 234 291 342
#     4  11  22  42  61  86 113 149 198 243 280 342
#     4  10  22  38  60  86 118 152 190 242 292 330
#
# _framework density 20.041922
#
# number of rings (size 3 to 8) (size 9 to 14) (size 15 to 20)
#    0.000    1.333    1.333    7.600    0.000    0.000 
#    4.800    2.000    0.000    0.000    0.000    0.000 
#    0.000    0.000    0.000    0.000    0.000    0.000 
#
# Total GULP energy -558132.924102 kJ/mol
# GULP energy per Si atom -12402.953869 kJ/mol
# Density = 1.999631 g / cm^3
# Si number density = 20.041922 Si / 1000 Ang^3
#
#
#
# Elastic Constant Matrix: (Units=GPa)
#
#
# Indices 1 2 3 4 5 6 
#
# 1 121.5776 41.5500 22.9205 -1.9253 0.0000 0.0000
# 2 41.5500 121.5776 22.9205 1.9253 0.0000 0.0000
# 3 22.9205 22.9205 44.4014 0.0000 0.0000 0.0000
# 4 -1.9253 1.9253 0.0000 19.1321 0.0000 0.0000
# 5 0.0000 0.0000 0.0000 0.0000 19.1321 -1.9253
# 6 0.0000 0.0000 0.0000 0.0000 -1.9253 40.0138
#
#
#
# Elastic Compliance Matrix: (Units=1/GPa)
#
#
# Indices 1 2 3 4 5 6 
#
# 1 0.009863 -0.002693 -0.003701 0.001264 0.000000 0.000000
# 2 -0.002693 0.009863 -0.003701 -0.001264 0.000000 0.000000
# 3 -0.003701 -0.003701 0.026343 0.000000 0.000000 0.000000
# 4 0.001264 -0.001264 0.000000 0.052522 0.000000 0.000000
# 5 0.000000 0.000000 0.000000 0.000000 0.052522 0.002527
# 6 0.000000 0.000000 0.000000 0.000000 0.002527 0.025113
#
#
# Mechanical properties :
#
#
# Convention : Reuss Voigt Hill
#
# Bulk Modulus (GPa) = 38.64249 51.37095 45.00672
# Shear Modulus (GPa) = 24.38482 28.99999 26.69241
#
# Velocity S-wave (km/s) = 3.49189 3.80803 3.65338
# Velocity P-wave (km/s) = 5.96493 6.70986 6.34833
#
# Compressibility (1/GPa) = 0.02587825
#
# Stress axis : x y z
#
# Youngs Moduli (GPa) = 101.38494 101.38494 37.96052
#
# Poissons Ratio (x) = 0.27304 0.14051
# Poissons Ratio (y) = 0.27304 0.14051
# Poissons Ratio (z) = 0.37526 0.37526
#
# Static dielectric constant tensor:
#      x y z
#    x 3.735550 0.000000 0.000000 
#    y 0.000000 3.735550 0.000000 
#    z 0.000000 0.000000 3.488190 
# 
# 
# High freq. dielectric constant tensor:
#      x y z
#    x 1.789870 0.000000 0.000000 
#    y 0.000000 1.789870 0.000000 
#    z 0.000000 0.000000 1.766140 
# 
# From -- ./inp_files/1886.got.cif
#   From: 2010.03.12/outbox.cif.g09.slc.cpg/sg152_1_cif.got.tgz:1886.got - 2010.04.03 13:45:27.
