data_PCOD8322053
_publ_section_title
;
Structure prediction by ZEFSAII (Michael W. Deem and Ramdas Pophale) SiO2 
 PCOD8322053
Probable space group: P 31 2 1
;
_chemical_formula_sum "Si O2"
_cell_formula_units_Z 30
_cell_length_a 13.617581
_cell_length_b 13.617581
_cell_length_c 9.591701
_cell_angle_alpha 90.000000
_cell_angle_beta 90.000000
_cell_angle_gamma 120.000000
_cell_volume 1540.374066
_symmetry_space_group_name_H-M "P 31 2 1"
_symmetry_group_IT_number 152
_symmetry_cell_setting 'hexagonal'
loop_
_space_group_symop_operation_xyz
x,y,z
-y,x-y,1/3+z
-x+y,-x,2/3+z
x-y,-y,2/3-z
-x,-x+y,1/3-z
y,x,-z
loop_
_atom_site_type_symbol
_atom_site_label
_atom_site_fract_x
_atom_site_fract_y
_atom_site_fract_z
Si Si1 0.623483 0.586971 0.840941
Si Si2 0.823876 0.669081 0.231924
Si Si3 0.404309 0.440825 0.343626
Si Si4 0.131399 0.790588 0.419356
Si Si5 0.098243 0.118135 0.266731
O O1 0.620743 0.689043 0.757569
O O2 0.552116 0.474128 0.749772
O O3 0.747769 0.598898 0.838490
O O4 0.578551 0.578551 0.000000
O O5 0.860765 0.586901 0.310765
O O6 0.895511 0.795583 0.286565
O O7 0.857888 0.685885 0.072798
O O8 0.454794 0.454794 0.500000
O O9 0.415600 0.345815 0.252308
O O10 0.048627 0.831793 0.485436
O O11 0.000000 0.104311 0.166667
O O12 0.928231 0.928231 0.000000
#
# Coordination Sequence:
#
# PCOD8322053 Si02
#       5
#     6   6   6   6   6
#     4  10  19  36  59  80 104 140 181 221 266 317
#     4   9  19  35  54  76 105 143 180 215 266 324
#     4   9  19  37  57  78 107 141 180 224 266 313
#     4   9  18  35  56  76 104 143 181 215 265 324
#     4  11  18  27  48  80 112 139 171 215 265 322
#
# _framework density 19.475788999999999
#
# number of rings (size 3 to 8) (size 9 to 14) (size 15 to 20)
#    0.000    2.400    0.000    6.000    0.000    0.800 
#    0.000   16.000    0.000    0.000    0.000    0.000 
#    0.000    0.000    0.000    0.000    0.000    0.000 
#
# Total GULP energy -371771.290286 kJ/mol
# GULP energy per Si atom -12392.376343 kJ/mol
# Density = 1.943146 g / cm^3
# Si number density = 19.475789 Si / 1000 Ang^3
#
#
#
# Elastic Constant Matrix: (Units=GPa)
#
#
# Indices 1 2 3 4 5 6 
#
# 1 109.3711 66.0400 52.6487 1.8475 0.0002 0.0000
# 2 66.0400 109.3711 52.6487 -1.8475 -0.0002 0.0000
# 3 52.6487 52.6487 52.1246 0.0000 0.0000 0.0000
# 4 1.8475 -1.8475 0.0000 32.4111 0.0000 -0.0002
# 5 0.0002 -0.0002 0.0000 0.0000 32.4111 1.8475
# 6 0.0000 0.0000 0.0000 -0.0002 1.8475 21.6656
#
#
#
# Elastic Compliance Matrix: (Units=1/GPa)
#
#
# Indices 1 2 3 4 5 6 
#
# 1 0.018836 -0.004355 -0.014627 -0.001322 0.000000 0.000000
# 2 -0.004355 0.018836 -0.014627 0.001322 0.000000 0.000000
# 3 -0.014627 -0.014627 0.048733 0.000000 0.000000 0.000000
# 4 -0.001322 0.001322 0.000000 0.031004 0.000000 0.000000
# 5 0.000000 0.000000 0.000000 0.000000 0.031004 -0.002644
# 6 0.000000 0.000000 0.000000 0.000000 -0.002644 0.046382
#
#
# Mechanical properties :
#
#
# Convention : Reuss Voigt Hill
#
# Bulk Modulus (GPa) = 52.11667 68.17129 60.14398
# Shear Modulus (GPa) = 18.62837 23.93285 21.28061
#
# Velocity S-wave (km/s) = 3.09607 3.50930 3.30914
# Velocity P-wave (km/s) = 6.29275 7.17630 6.74900
#
# Compressibility (1/GPa) = 0.01918772
#
# Stress axis : x y z
#
# Youngs Moduli (GPa) = 53.08973 53.08973 20.52014
#
# Poissons Ratio (x) = 0.23120 0.30014
# Poissons Ratio (y) = 0.23120 0.30014
# Poissons Ratio (z) = 0.77653 0.77653
#
# Static dielectric constant tensor:
#      x y z
#    x 3.918860 0.000000 0.000000 
#    y 0.000000 3.918860 0.000000 
#    z 0.000000 0.000000 3.467030 
# 
# 
# High freq. dielectric constant tensor:
#      x y z
#    x 1.752230 0.000000 0.000000 
#    y 0.000000 1.752230 0.000000 
#    z 0.000000 0.000000 1.739650 
# 
# From -- ./inp_files/1048.got.cif
#   From: 2010.03.12/outbox.cif.g09.slc.cpg/sg152_1_cif.got.tgz:1048.got - 2010.04.03 13:45:27.
