data_PCOD8322977
_publ_section_title
;
Structure prediction by ZEFSAII (Michael W. Deem and Ramdas Pophale) SiO2 
 PCOD8322977
Probable space group: P -3 1 M 
;
_chemical_formula_sum "Si O2"
_cell_formula_units_Z 96
_cell_length_a 17.882863
_cell_length_b 17.882863
_cell_length_c 20.257824
_cell_angle_alpha 90.000000
_cell_angle_beta 90.000000
_cell_angle_gamma 120.000000
_cell_volume 5610.447777
_symmetry_space_group_name_H-M "P -3 1 M "
_symmetry_group_IT_number 162
_symmetry_cell_setting 'hexagonal'
loop_
_space_group_symop_operation_xyz
x,y,z
-y,x-y,z
-x+y,-x,z
-y,-x,-z
-x+y,y,-z
x,x-y,-z
-x,-y,-z
y,-x+y,-z
x-y,x,-z
y,x,z
x-y,-y,z
-x,-x+y,z
loop_
_atom_site_type_symbol
_atom_site_label
_atom_site_fract_x
_atom_site_fract_y
_atom_site_fract_z
Si Si1 0.363062 0.099560 0.999997
Si Si2 0.495955 0.331285 0.735266
Si Si3 0.533853 0.899857 0.123099
Si Si4 0.267474 0.901408 0.622689
Si Si5 0.634188 0.532521 0.500000
Si Si6 0.633995 0.100141 0.876900
Si Si7 0.901409 0.633937 0.622694
Si Si8 0.835333 0.331290 0.735263
O O1 0.423536 0.123977 0.936255
O O2 0.287791 0.000000 0.999989
O O3 0.319183 0.159592 0.000000
O O4 0.423522 0.123956 0.063746
O O5 0.466975 0.316473 0.811399
O O6 0.414247 0.312181 0.690557
O O7 0.571634 0.428361 0.721829
O O8 0.528151 0.264074 0.717324
O O9 0.436848 0.873698 0.101605
O O10 0.533028 0.849508 0.188605
O O11 0.587963 0.000000 0.140301
O O12 0.305987 0.869123 0.564584
O O13 0.163639 0.836363 0.624919
O O14 0.312190 0.897936 0.690550
O O15 0.288239 0.000000 0.611880
O O16 0.571933 0.428068 0.500000
O O17 0.574461 0.574461 0.500014
O O18 0.693998 0.563136 0.435408
O O19 0.587952 0.000000 0.859682
O O20 0.000000 0.711767 0.611886
#
# Coordination Sequence:
#
# PCOD8322977 Si02
#       8
#    12  12  12  12  12  12  12  12
#     4  10  19  31  47  66  89 117 152 192 231 271
#     4  10  19  30  45  67  96 127 157 188 223 264
#     4   9  17  29  46  67  90 118 151 185 222 267
#     4  10  20  33  50  71  94 122 157 197 238 279
#     4   9  17  30  49  72  96 122 152 183 217 262
#     4   9  17  29  46  67  90 118 151 185 222 267
#     4  10  20  33  50  71  94 122 157 197 238 279
#     4  10  19  30  45  67  96 127 157 188 223 264
#
# _framework density 17.110934
#
# number of rings (size 3 to 8) (size 9 to 14) (size 15 to 20)
#    0.000    2.375    0.000    3.250    0.000    4.000 
#    0.000    0.000    0.000    7.375    0.000    0.000 
#    0.000    3.000    0.000    8.000    0.000    0.000 
#
# Total GULP energy -1190234.890717 kJ/mol
# GULP energy per Si atom -12398.280112 kJ/mol
# Density = 1.707199 g / cm^3
# Si number density = 17.110934 Si / 1000 Ang^3
#
#
#
# Elastic Constant Matrix: (Units=GPa)
#
#
# Indices 1 2 3 4 5 6 
#
# 1 87.4043 47.4265 36.9916 0.0000 0.0002 0.0000
# 2 47.4265 87.4043 36.9916 0.0000 -0.0002 0.0000
# 3 36.9916 36.9916 79.5810 0.0000 0.0000 0.0000
# 4 0.0000 0.0000 0.0000 19.1643 0.0000 -0.0002
# 5 0.0002 -0.0002 0.0000 0.0000 19.1643 0.0000
# 6 0.0000 0.0000 0.0000 -0.0002 0.0000 19.9889
#
#
#
# Elastic Compliance Matrix: (Units=1/GPa)
#
#
# Indices 1 2 3 4 5 6 
#
# 1 0.017485 -0.007529 -0.004628 0.000000 0.000000 0.000000
# 2 -0.007529 0.017485 -0.004628 0.000000 0.000000 0.000000
# 3 -0.004628 -0.004628 0.016868 0.000000 0.000000 0.000000
# 4 0.000000 0.000000 0.000000 0.052180 0.000000 0.000000
# 5 0.000000 0.000000 0.000000 0.000000 0.052180 0.000000
# 6 0.000000 0.000000 0.000000 0.000000 0.000000 0.050028
#
#
# Mechanical properties :
#
#
# Convention : Reuss Voigt Hill
#
# Bulk Modulus (GPa) = 54.73811 55.24543 54.99177
# Shear Modulus (GPa) = 20.33466 20.52882 20.43174
#
# Velocity S-wave (km/s) = 3.45106 3.46750 3.45929
# Velocity P-wave (km/s) = 6.92382 6.95615 6.94001
#
# Compressibility (1/GPa) = 0.01826881
#
# Stress axis : x y z
#
# Youngs Moduli (GPa) = 57.19191 57.19191 59.28328
#
# Poissons Ratio (x) = 0.43059 0.27436
# Poissons Ratio (y) = 0.43059 0.27436
# Poissons Ratio (z) = 0.26468 0.26468
#
# Static dielectric constant tensor:
#      x y z
#    x 3.019370 0.000000 0.000000 
#    y 0.000000 3.019370 0.000000 
#    z 0.000000 0.000000 3.341560 
# 
# 
# High freq. dielectric constant tensor:
#      x y z
#    x 1.639580 0.000000 0.000000 
#    y 0.000000 1.639580 0.000000 
#    z 0.000000 0.000000 1.677200 
# 
# From -- ./inp_files/3881.got.cif
#   From: 2010.03.12/outbox.cif.g09.slc.cpg/sg162_2_cif.got.tgz:3881.got - 2010.04.02 06:27:41.
