data_PCOD8322869
_publ_section_title
;
Structure prediction by ZEFSAII (Michael W. Deem and Ramdas Pophale) SiO2 
 PCOD8322869
Probable space group: R 3 M
;
_chemical_formula_sum "Si O2"
_cell_formula_units_Z 90
_cell_length_a 21.809527
_cell_length_b 21.809527
_cell_length_c 12.164431
_cell_angle_alpha 90.000000
_cell_angle_beta 90.000000
_cell_angle_gamma 120.000000
_cell_volume 5010.890640
_symmetry_space_group_name_H-M "R 3 M"
_symmetry_group_IT_number 160
_symmetry_cell_setting 'hexagonal'
loop_
_space_group_symop_operation_xyz
x,y,z
-y,x-y,z
-x+y,-x,z
-x+y,y,z
x,x-y,z
-y,-x,z
2/3+x,1/3+y,1/3+z
2/3-y,1/3+x-y,1/3+z
2/3-x+y,1/3-x,1/3+z
2/3-x+y,1/3+y,1/3+z
2/3+x,1/3+x-y,1/3+z
2/3-y,1/3-x,1/3+z
1/3+x,2/3+y,2/3+z
1/3-y,2/3+x-y,2/3+z
1/3-x+y,2/3-x,2/3+z
1/3-x+y,2/3+y,2/3+z
1/3+x,2/3+x-y,2/3+z
1/3-y,2/3-x,2/3+z
loop_
_atom_site_type_symbol
_atom_site_label
_atom_site_fract_x
_atom_site_fract_y
_atom_site_fract_z
Si Si1 0.304685 0.969977 0.008566
Si Si2 0.666946 0.471826 0.845321
Si Si3 0.667071 0.195235 0.591397
Si Si4 0.782209 0.707020 0.565085
Si Si5 0.284719 0.212953 0.140900
O O1 0.258304 0.930418 0.901377
O O2 0.388149 0.997228 0.988384
O O3 0.274289 0.917503 0.110650
O O4 0.296073 0.038559 0.029928
O O5 0.743374 0.486748 0.886777
O O6 0.611455 0.388546 0.858707
O O7 0.669878 0.493900 0.718102
O O8 0.641716 0.517089 0.917618
O O9 0.610522 0.221043 0.575423
O O10 0.742597 0.257404 0.550370
O O11 0.647021 0.127278 0.518312
O O12 0.842320 0.684640 0.574770
O O13 0.299208 0.149604 0.113866
#
# Coordination Sequence:
#
# PCOD8322869 Si02
#       5
#    18  18  18  18  18
#     4  10  21  34  52  75  98 135 174 209 257 307
#     4   9  16  27  45  71 101 132 166 206 252 300
#     4   9  16  27  46  73 102 132 165 207 256 302
#     4  10  20  35  52  75 105 135 172 215 257 307
#     4  10  20  35  51  72 103 134 171 215 254 304
#
# _framework density 17.960878999999998
#
# number of rings (size 3 to 8) (size 9 to 14) (size 15 to 20)
#    0.000    2.400    2.000    1.000    0.000    7.200 
#    0.000    3.000    0.000    0.000    0.000    0.000 
#    0.000    0.000    0.000    0.000    0.000    0.000 
#
# Total GULP energy -371913.044853 kJ/mol
# GULP energy per Si atom -12397.101495 kJ/mol
# Density = 1.792000 g / cm^3
# Si number density = 17.960879 Si / 1000 Ang^3
#
#
#
# Elastic Constant Matrix: (Units=GPa)
#
#
# Indices 1 2 3 4 5 6 
#
# 1 103.3032 47.9581 25.1615 0.8316 0.0002 0.0000
# 2 47.9581 103.3032 25.1615 -0.8316 -0.0002 0.0000
# 3 25.1615 25.1615 31.7568 0.0000 0.0001 0.0000
# 4 0.8316 -0.8316 0.0000 26.2691 0.0000 -0.0002
# 5 0.0002 -0.0002 0.0001 0.0000 26.2691 0.8316
# 6 0.0000 0.0000 0.0000 -0.0002 0.8316 27.6726
#
#
#
# Elastic Compliance Matrix: (Units=1/GPa)
#
#
# Indices 1 2 3 4 5 6 
#
# 1 0.013532 -0.004554 -0.007113 -0.000573 0.000000 0.000000
# 2 -0.004554 0.013532 -0.007113 0.000573 0.000000 0.000000
# 3 -0.007113 -0.007113 0.042761 0.000000 0.000000 0.000000
# 4 -0.000573 0.000573 0.000000 0.038104 0.000000 0.000000
# 5 0.000000 0.000000 0.000000 0.000000 0.038104 -0.001145
# 6 0.000000 0.000000 0.000000 0.000000 -0.001145 0.036171
#
#
# Mechanical properties :
#
#
# Convention : Reuss Voigt Hill
#
# Bulk Modulus (GPa) = 30.99455 48.32504 39.65979
# Shear Modulus (GPa) = 21.69032 25.38099 23.53565
#
# Velocity S-wave (km/s) = 3.47888 3.76324 3.62385
# Velocity P-wave (km/s) = 5.78196 6.77102 6.29594
#
# Compressibility (1/GPa) = 0.03226374
#
# Stress axis : x y z
#
# Youngs Moduli (GPa) = 73.90124 73.90129 23.38586
#
# Poissons Ratio (x) = 0.33655 0.16634
# Poissons Ratio (y) = 0.33655 0.16634
# Poissons Ratio (z) = 0.52566 0.52566
#
# Static dielectric constant tensor:
#      x y z
#    x 3.468920 0.000000 0.000000 
#    y 0.000000 3.468920 0.000000 
#    z 0.000000 0.000000 2.967550 
# 
# 
# High freq. dielectric constant tensor:
#      x y z
#    x 1.703740 0.000000 0.000000 
#    y 0.000000 1.703740 0.000000 
#    z 0.000000 0.000000 1.645580 
# 
# From -- ./inp_files/2311.got.cif
#   From: 2010.03.12/outbox.cif.g09.slc.cpg/sg160_2_cif.got.tgz:2311.got - 2010.04.02 06:26:15.
