data_PCOD8322792
_publ_section_title
;
Structure prediction by ZEFSAII (Michael W. Deem and Ramdas Pophale) SiO2 
 PCOD8322792
Probable space group: P 3 1 C
;
_chemical_formula_sum "Si O2"
_cell_formula_units_Z 48
_cell_length_a 22.874025
_cell_length_b 22.874025
_cell_length_c 8.786551
_cell_angle_alpha 90.000000
_cell_angle_beta 90.000000
_cell_angle_gamma 120.000000
_cell_volume 3981.385668
_symmetry_space_group_name_H-M "P 3 1 C"
_symmetry_group_IT_number 159
_symmetry_cell_setting 'hexagonal'
loop_
_space_group_symop_operation_xyz
x,y,z
-y,x-y,z
-x+y,-x,z
y,x,1/2+z
x-y,-y,1/2+z
-x,-x+y,1/2+z
loop_
_atom_site_type_symbol
_atom_site_label
_atom_site_fract_x
_atom_site_fract_y
_atom_site_fract_z
Si Si1 0.455861 0.794432 0.038550
Si Si2 0.933766 0.531780 0.389166
Si Si3 0.539198 0.212550 0.401889
Si Si4 0.541124 0.605661 0.885222
Si Si5 0.401985 0.468220 0.549002
Si Si6 0.455861 0.794432 0.399618
Si Si7 0.394339 0.935463 0.552945
Si Si8 0.787450 0.326648 0.036279
O O1 0.446277 0.790630 0.219084
O O2 0.514468 0.868636 0.990286
O O3 0.385063 0.773094 0.957938
O O4 0.479630 0.743230 0.980826
O O5 0.943239 0.467528 0.377046
O O6 0.925462 0.553868 0.219084
O O7 0.000000 0.592543 0.469084
O O8 0.481527 0.137749 0.458443
O O9 0.541199 0.218201 0.219084
O O10 0.570136 0.632818 0.719084
O O11 0.601454 0.601454 0.969084
O O12 0.354169 0.485532 0.447881
O O13 0.475711 0.532472 0.561122
O O14 0.385063 0.773094 0.480230
O O15 0.479630 0.743230 0.457342
O O16 0.343778 0.862251 0.479724
#
# Coordination Sequence:
#
# PCOD8322792 Si02
#       8
#     6   6   6   6   6   6   6   6
#     4  11  20  28  38  53  69  87 110 137 168 205
#     4   9  16  27  40  53  67  85 107 133 162 195
#     4  10  19  30  39  49  67  90 110 133 167 206
#     4   8  15  25  38  51  63  80 103 129 159 192
#     4   9  16  27  40  53  67  85 107 133 162 195
#     4  11  20  28  38  53  69  87 110 137 168 205
#     4   8  15  25  38  51  63  80 103 129 159 192
#     4  10  19  30  39  49  67  90 110 133 167 206
#
# _framework density 12.056103999999999
#
# number of rings (size 3 to 8) (size 9 to 14) (size 15 to 20)
#    0.000    2.500    0.000    5.750    0.000    7.000 
#    0.000    0.000    0.000    0.000    0.000    0.000 
#    0.000    0.000    0.000    0.000    0.000    0.000 
#
# Total GULP energy -594886.129674 kJ/mol
# GULP energy per Si atom -12393.461035 kJ/mol
# Density = 1.202866 g / cm^3
# Si number density = 12.056104 Si / 1000 Ang^3
#
#
#
# Elastic Constant Matrix: (Units=GPa)
#
#
# Indices 1 2 3 4 5 6 
#
# 1 55.6238 33.4013 21.8208 0.0000 0.0000 0.0000
# 2 33.4013 55.6238 21.8208 0.0000 0.0000 0.0000
# 3 21.8208 21.8208 68.0074 0.0000 0.0000 0.0000
# 4 0.0000 0.0000 0.0000 17.6686 0.0000 0.0000
# 5 0.0000 0.0000 0.0000 0.0000 17.6686 0.0000
# 6 0.0000 0.0000 0.0000 0.0000 0.0000 11.1112
#
#
#
# Elastic Compliance Matrix: (Units=1/GPa)
#
#
# Indices 1 2 3 4 5 6 
#
# 1 0.029164 -0.015835 -0.004277 0.000000 0.000000 0.000000
# 2 -0.015835 0.029164 -0.004277 0.000000 0.000000 0.000000
# 3 -0.004277 -0.004277 0.017449 0.000000 0.000000 0.000000
# 4 0.000000 0.000000 0.000000 0.056597 0.000000 0.000000
# 5 0.000000 0.000000 0.000000 0.000000 0.056597 0.000000
# 6 0.000000 0.000000 0.000000 0.000000 0.000000 0.089999
#
#
# Mechanical properties :
#
#
# Convention : Reuss Voigt Hill
#
# Bulk Modulus (GPa) = 37.03679 37.03783 37.03731
# Shear Modulus (GPa) = 14.84786 16.10385 15.47585
#
# Velocity S-wave (km/s) = 3.51317 3.65875 3.58670
# Velocity P-wave (km/s) = 6.87339 6.97399 6.92387
#
# Compressibility (1/GPa) = 0.02700018
#
# Stress axis : x y z
#
# Youngs Moduli (GPa) = 34.28836 34.28836 57.31046
#
# Poissons Ratio (x) = 0.54296 0.24511
# Poissons Ratio (y) = 0.54296 0.24511
# Poissons Ratio (z) = 0.14665 0.14665
#
# Static dielectric constant tensor:
#      x y z
#    x 2.385960 0.000000 0.000000 
#    y 0.000000 2.385960 0.000000 
#    z 0.000000 0.000000 2.714820 
# 
# 
# High freq. dielectric constant tensor:
#      x y z
#    x 1.423080 0.000000 0.000000 
#    y 0.000000 1.423080 0.000000 
#    z 0.000000 0.000000 1.474990 
# 
# From -- ./inp_files/530.got.cif
#   From: 2010.03.12/outbox.cif.g09.slc.cpg/sg159_cif.got.tgz:530.got - 2010.04.03 14:00:19.
