data_PCOD8322781
_publ_section_title
;
Structure prediction by ZEFSAII (Michael W. Deem and Ramdas Pophale) SiO2 
 PCOD8322781
Probable space group: P 3 C 1
;
_chemical_formula_sum "Si O2"
_cell_formula_units_Z 24
_cell_length_a 8.625622
_cell_length_b 8.625622
_cell_length_c 19.007819
_cell_angle_alpha 90.000000
_cell_angle_beta 90.000000
_cell_angle_gamma 120.000000
_cell_volume 1224.739610
_symmetry_space_group_name_H-M "P 3 C 1"
_symmetry_group_IT_number 158
_symmetry_cell_setting 'hexagonal'
loop_
_space_group_symop_operation_xyz
x,y,z
-y,x-y,z
-x+y,-x,z
-x+y,y,1/2+z
x,x-y,1/2+z
-y,-x,1/2+z
loop_
_atom_site_type_symbol
_atom_site_label
_atom_site_fract_x
_atom_site_fract_y
_atom_site_fract_z
Si Si1 0.200079 0.001944 0.972180
Si Si2 0.000113 0.333386 0.827481
Si Si3 0.000113 0.333387 0.271987
Si Si4 0.801865 0.001944 0.627287
O O1 0.332381 0.001570 0.912728
O O2 0.001693 0.825499 0.964368
O O3 0.279586 0.002945 0.049734
O O4 0.197866 0.395733 0.799734
O O5 0.938051 0.469025 0.799733
O O6 0.865065 0.134934 0.799734
O O7 0.998432 0.330811 0.186740
O O8 0.001693 0.176194 0.635100
#
# Coordination Sequence:
#
# PCOD8322781 Si02
#       4
#     6   6   6   6
#     4   8  15  33  62  86 109 157 208 251 305 351
#     4  12  22  38  59  89 124 158 202 251 307 360
#     4  12  22  38  59  89 124 158 202 251 307 360
#     4   8  15  33  62  86 109 157 208 251 305 351
#
# _framework density 19.596001999999999
#
# number of rings (size 3 to 8) (size 9 to 14) (size 15 to 20)
#    1.000    1.000    5.000    1.500    0.000    0.000 
#    0.000    5.000    0.000    0.000    0.000    0.000 
#    0.000    0.000    0.000    0.000    0.000    0.000 
#
# Total GULP energy -297417.966847 kJ/mol
# GULP energy per Si atom -12392.415285 kJ/mol
# Density = 1.955140 g / cm^3
# Si number density = 19.596002 Si / 1000 Ang^3
#
#
#
# Elastic Constant Matrix: (Units=GPa)
#
#
# Indices 1 2 3 4 5 6 
#
# 1 57.4460 13.1921 43.8602 0.0000 0.0000 0.0000
# 2 13.1921 57.4460 43.8602 0.0000 0.0000 0.0000
# 3 43.8602 43.8602 228.2075 0.0000 0.0000 0.0000
# 4 0.0000 0.0000 0.0000 31.0653 0.0000 0.0000
# 5 0.0000 0.0000 0.0000 0.0000 31.0653 0.0000
# 6 0.0000 0.0000 0.0000 0.0000 0.0000 22.1270
#
#
#
# Elastic Compliance Matrix: (Units=1/GPa)
#
#
# Indices 1 2 3 4 5 6 
#
# 1 0.020596 -0.002001 -0.003574 0.000000 0.000000 0.000000
# 2 -0.002001 0.020596 -0.003574 0.000000 0.000000 0.000000
# 3 -0.003574 -0.003574 0.005756 0.000000 0.000000 0.000000
# 4 0.000000 0.000000 0.000000 0.032190 0.000000 0.000000
# 5 0.000000 0.000000 0.000000 0.000000 0.032190 0.000000
# 6 0.000000 0.000000 0.000000 0.000000 0.000000 0.045194
#
#
# Mechanical properties :
#
#
# Convention : Reuss Voigt Hill
#
# Bulk Modulus (GPa) = 34.90410 60.54714 47.72562
# Shear Modulus (GPa) = 27.11958 32.99735 30.05846
#
# Velocity S-wave (km/s) = 3.72416 4.10796 3.92076
# Velocity P-wave (km/s) = 6.02852 7.31200 6.70106
#
# Compressibility (1/GPa) = 0.02864993
#
# Stress axis : x y z
#
# Youngs Moduli (GPa) = 48.55365 48.55365 173.74069
#
# Poissons Ratio (x) = 0.09716 0.62091
# Poissons Ratio (y) = 0.09716 0.62091
# Poissons Ratio (z) = 0.17352 0.17352
#
# Static dielectric constant tensor:
#      x y z
#    x 3.031300 0.000000 0.000000 
#    y 0.000000 3.031300 0.000000 
#    z 0.000000 0.000000 3.721610 
# 
# 
# High freq. dielectric constant tensor:
#      x y z
#    x 1.721150 0.000000 0.000000 
#    y 0.000000 1.721150 0.000000 
#    z 0.000000 0.000000 1.785830 
# 
# From -- ./inp_files/675.got.cif
#   From: 2010.03.12/outbox.cif.g09.slc.cpg/sg158_cif.got.tgz:675.got - 2010.04.03 13:59:47.
