data_PCOD8322584
_publ_section_title
;
Structure prediction by ZEFSAII (Michael W. Deem and Ramdas Pophale) SiO2 
 PCOD8322584
Probable space group: R 3 2
;
_chemical_formula_sum "Si O2"
_cell_formula_units_Z 126
_cell_length_a 21.162860
_cell_length_b 21.162860
_cell_length_c 15.625330
_cell_angle_alpha 90.000000
_cell_angle_beta 90.000000
_cell_angle_gamma 120.000000
_cell_volume 6060.501287
_symmetry_space_group_name_H-M "R 3 2"
_symmetry_group_IT_number 155
_symmetry_cell_setting 'hexagonal'
loop_
_space_group_symop_operation_xyz
x,y,z
-y,x-y,z
-x+y,-x,z
x-y,-y,-z
-x,-x+y,-z
y,x,-z
2/3+x,1/3+y,1/3+z
2/3-y,1/3+x-y,1/3+z
2/3-x+y,1/3-x,1/3+z
2/3+x-y,1/3-y,1/3-z
2/3-x,1/3-x+y,1/3-z
2/3+y,1/3+x,1/3-z
1/3+x,2/3+y,2/3+z
1/3-y,2/3+x-y,2/3+z
1/3-x+y,2/3-x,2/3+z
1/3+x-y,2/3-y,2/3-z
1/3-x,2/3-x+y,2/3-z
1/3+y,2/3+x,2/3-z
loop_
_atom_site_type_symbol
_atom_site_label
_atom_site_fract_x
_atom_site_fract_y
_atom_site_fract_z
Si Si1 0.512252 0.285196 0.654663
Si Si2 0.164917 0.749638 0.189587
Si Si3 0.171105 0.921965 0.031790
Si Si4 0.251772 0.158866 0.135424
Si Si5 0.735754 0.790064 0.580334
Si Si6 0.400696 0.484356 0.835636
Si Si7 0.109665 0.949888 0.712570
O O1 0.460214 0.239097 0.733868
O O2 0.460242 0.292709 0.588912
O O3 0.551896 0.246429 0.607435
O O4 0.570946 0.369460 0.677821
O O5 0.125493 0.666667 0.166667
O O6 0.211157 0.799211 0.111603
O O7 0.103147 0.771251 0.204129
O O8 0.249618 0.929198 0.052592
O O9 0.122551 0.891283 0.117525
O O10 0.126477 0.867242 0.957313
O O11 0.184468 0.000000 0.000000
O O12 0.333334 0.198704 0.166667
O O13 0.228094 0.219544 0.117793
O O14 0.197870 0.091630 0.198608
O O15 0.752370 0.752370 0.500000
O O16 0.789498 0.814210 0.661559
#
# Coordination Sequence:
#
# PCOD8322584 Si02
#       7
#    18  18  18  18  18  18  18
#     4  11  22  39  61  90 129 171 209 265 315 382
#     4  11  21  37  61  88 127 163 207 258 318 381
#     4  11  24  44  64  91 127 167 217 266 324 383
#     4  11  22  41  68  95 127 168 209 268 324 383
#     4  11  22  40  59  90 126 165 213 261 312 383
#     4  10  24  39  63  95 123 167 209 268 324 380
#     4  11  22  39  62  92 128 169 218 255 319 382
#
# _framework density 20.79036
#
# number of rings (size 3 to 8) (size 9 to 14) (size 15 to 20)
#    0.000    1.143    4.286    2.429    0.000    0.571 
#    5.143    2.857    0.000    4.000    0.000    0.000 
#    0.000    0.000    0.000    0.000    0.000    0.000 
#
# Total GULP energy -520309.681519 kJ/mol
# GULP energy per Si atom -12388.325750 kJ/mol
# Density = 2.074304 g / cm^3
# Si number density = 20.790360 Si / 1000 Ang^3
#
#
#
# Elastic Constant Matrix: (Units=GPa)
#
#
# Indices 1 2 3 4 5 6 
#
# 1 90.9574 29.4003 12.9617 15.1834 0.0011 0.0000
# 2 29.4003 90.9574 12.9617 -15.1834 -0.0011 0.0000
# 3 12.9617 12.9617 49.6114 0.0000 0.0000 0.0000
# 4 15.1834 -15.1834 0.0000 68.2434 0.0000 -0.0011
# 5 0.0011 -0.0011 0.0000 0.0000 68.2434 15.1834
# 6 0.0000 0.0000 0.0000 -0.0011 15.1834 30.7786
#
#
#
# Elastic Compliance Matrix: (Units=1/GPa)
#
#
# Indices 1 2 3 4 5 6 
#
# 1 0.013526 -0.004722 -0.002300 -0.004060 0.000000 0.000000
# 2 -0.004722 0.013526 -0.002300 0.004060 0.000000 0.000000
# 3 -0.002300 -0.002300 0.021359 0.000000 0.000000 0.000000
# 4 -0.004060 0.004060 0.000000 0.016460 0.000000 0.000001
# 5 0.000000 0.000000 0.000000 0.000000 0.016460 -0.008120
# 6 0.000000 0.000000 0.000000 0.000001 -0.008120 0.036496
#
#
# Mechanical properties :
#
#
# Convention : Reuss Voigt Hill
#
# Bulk Modulus (GPa) = 33.59554 38.01930 35.80742
# Shear Modulus (GPa) = 34.15469 45.19992 39.67730
#
# Velocity S-wave (km/s) = 4.05756 4.66776 4.37332
# Velocity P-wave (km/s) = 6.17625 6.88312 6.53924
#
# Compressibility (1/GPa) = 0.02976585
#
# Stress axis : x y z
#
# Youngs Moduli (GPa) = 73.93200 73.93200 46.81966
#
# Poissons Ratio (x) = 0.34910 0.10769
# Poissons Ratio (y) = 0.34910 0.10769
# Poissons Ratio (z) = 0.17006 0.17006
#
# Static dielectric constant tensor:
#      x y z
#    x 1.886570 0.000000 0.000000 
#    y 0.000000 1.886570 0.000000 
#    z 0.000000 0.000000 3.254620 
# 
# 
# High freq. dielectric constant tensor:
#      x y z
#    x 1.819410 0.000000 0.000000 
#    y 0.000000 1.819410 0.000000 
#    z 0.000000 0.000000 1.808760 
# 
# From -- ./inp_files/6273.got.cif
#   From: 2010.03.12/outbox.cif.g09.slc.cpg/sg155_4_cif.got.tgz:6273.got - 2010.04.03 13:54:13.
