data_PCOD8322993
_publ_section_title
;
Structure prediction by ZEFSAII (Michael W. Deem and Ramdas Pophale) SiO2 
 PCOD8322993
Probable space group: P -3 1 M 
;
_chemical_formula_sum "Si O2"
_cell_formula_units_Z 72
_cell_length_a 23.829243
_cell_length_b 23.829243
_cell_length_c 8.754204
_cell_angle_alpha 90.000000
_cell_angle_beta 90.000000
_cell_angle_gamma 120.000000
_cell_volume 4304.946777
_symmetry_space_group_name_H-M "P -3 1 M "
_symmetry_group_IT_number 162
_symmetry_cell_setting 'hexagonal'
loop_
_space_group_symop_operation_xyz
x,y,z
-y,x-y,z
-x+y,-x,z
-y,-x,-z
-x+y,y,-z
x,x-y,-z
-x,-y,-z
y,-x+y,-z
x-y,x,-z
y,x,z
x-y,-y,z
-x,-x+y,z
loop_
_atom_site_type_symbol
_atom_site_label
_atom_site_fract_x
_atom_site_fract_y
_atom_site_fract_z
Si Si1 0.073514 0.479348 0.569718
Si Si2 0.401572 0.259425 0.431378
Si Si3 0.074236 0.263161 0.428676
Si Si4 0.073514 0.479348 0.930281
Si Si5 0.925764 0.188927 0.071324
Si Si6 0.598428 0.857853 0.068621
O O1 0.101853 0.550927 0.500000
O O2 0.117900 0.450223 0.512890
O O3 0.075368 0.485225 0.750000
O O4 0.000000 0.432567 0.511837
O O5 0.426818 0.213409 0.500000
O O6 0.330504 0.238920 0.492298
O O7 0.398644 0.253819 0.249999
O O8 0.117549 0.235098 0.500000
O O9 0.089097 0.276030 0.250000
O O10 0.000000 0.210938 0.461638
O O11 0.117901 0.450224 0.987110
O O12 0.000000 0.432566 0.988162
O O13 0.101853 0.550926 0.000000
O O14 0.000000 0.210939 0.038362
O O15 0.882450 0.117551 0.000000
O O16 0.908418 0.238923 0.992301
O O17 0.573182 0.786591 0.000000
#
# Coordination Sequence:
#
# PCOD8322993 Si02
#       6
#    12  12  12  12  12  12
#     4   9  18  31  47  68  93 121 152 187 228 272
#     4  10  19  31  48  70  96 125 155 189 231 276
#     4  10  20  32  48  71  96 124 157 191 230 275
#     4   9  18  31  47  68  93 121 152 187 228 272
#     4  10  20  32  48  71  96 124 157 191 230 275
#     4  10  19  31  48  70  96 125 155 189 231 276
#
# _framework density 16.724945000000002
#
# number of rings (size 3 to 8) (size 9 to 14) (size 15 to 20)
#    0.000    2.333    0.000    5.000    0.000    6.667 
#    0.000    3.333    0.000    1.000    0.000    0.000 
#    0.000    0.000    0.000    0.000    0.000    0.000 
#
# Total GULP energy -892843.083959 kJ/mol
# GULP energy per Si atom -12400.598388 kJ/mol
# Density = 1.668688 g / cm^3
# Si number density = 16.724945 Si / 1000 Ang^3
#
#
#
# Elastic Constant Matrix: (Units=GPa)
#
#
# Indices 1 2 3 4 5 6 
#
# 1 132.5721 76.2717 44.6709 0.0000 0.0001 0.0000
# 2 76.2717 132.5721 44.6709 0.0000 -0.0001 0.0000
# 3 44.6709 44.6709 70.3057 0.0000 0.0000 0.0000
# 4 0.0000 0.0000 0.0000 27.1583 0.0000 -0.0001
# 5 0.0001 -0.0001 0.0000 0.0000 27.1583 0.0000
# 6 0.0000 0.0000 0.0000 -0.0001 0.0000 28.1502
#
#
#
# Elastic Compliance Matrix: (Units=1/GPa)
#
#
# Indices 1 2 3 4 5 6 
#
# 1 0.012169 -0.005593 -0.004178 0.000000 0.000000 0.000000
# 2 -0.005593 0.012169 -0.004178 0.000000 0.000000 0.000000
# 3 -0.004178 -0.004178 0.019533 0.000000 0.000000 0.000000
# 4 0.000000 0.000000 0.000000 0.036821 0.000000 0.000000
# 5 0.000000 0.000000 0.000000 0.000000 0.036821 0.000000
# 6 0.000000 0.000000 0.000000 0.000000 0.000000 0.035524
#
#
# Mechanical properties :
#
#
# Convention : Reuss Voigt Hill
#
# Bulk Modulus (GPa) = 62.60954 74.07520 68.34237
# Shear Modulus (GPa) = 26.84442 27.81581 27.33012
#
# Velocity S-wave (km/s) = 4.01066 4.08258 4.04678
# Velocity P-wave (km/s) = 7.67875 8.16147 7.92379
#
# Compressibility (1/GPa) = 0.01597201
#
# Stress axis : x y z
#
# Youngs Moduli (GPa) = 82.17790 82.17790 51.19590
#
# Poissons Ratio (x) = 0.45963 0.21390
# Poissons Ratio (y) = 0.45963 0.21390
# Poissons Ratio (z) = 0.34334 0.34334
#
# Static dielectric constant tensor:
#      x y z
#    x 3.154460 0.000000 0.000000 
#    y 0.000000 3.154460 0.000000 
#    z 0.000000 0.000000 3.195110 
# 
# 
# High freq. dielectric constant tensor:
#      x y z
#    x 1.635400 0.000000 0.000000 
#    y 0.000000 1.635400 0.000000 
#    z 0.000000 0.000000 1.655860 
# 
# From -- ./inp_files/1735.got.cif
#   From: 2010.03.12/outbox.cif.g09.slc.cpg/sg162_1_cif.got.tgz:1735.got - 2010.04.02 06:27:41.
