data_PCOD8322144
_publ_section_title
;
Structure prediction by ZEFSAII (Michael W. Deem and Ramdas Pophale) SiO2 
 PCOD8322144
Probable space group: P 31 2 1
;
_chemical_formula_sum "Si O2"
_cell_formula_units_Z 33
_cell_length_a 11.686812
_cell_length_b 11.686812
_cell_length_c 12.817893
_cell_angle_alpha 90.000000
_cell_angle_beta 90.000000
_cell_angle_gamma 120.000000
_cell_volume 1516.140291
_symmetry_space_group_name_H-M "P 31 2 1"
_symmetry_group_IT_number 152
_symmetry_cell_setting 'hexagonal'
loop_
_space_group_symop_operation_xyz
x,y,z
-y,x-y,1/3+z
-x+y,-x,2/3+z
x-y,-y,2/3-z
-x,-x+y,1/3-z
y,x,-z
loop_
_atom_site_type_symbol
_atom_site_label
_atom_site_fract_x
_atom_site_fract_y
_atom_site_fract_z
Si Si1 0.442027 0.118311 0.401842
Si Si2 0.415175 0.297739 0.072884
Si Si3 0.000000 0.994685 0.166667
Si Si4 0.380860 0.014117 0.043103
Si Si5 0.405685 0.345724 0.314886
Si Si6 0.215184 0.112559 0.672785
O O1 0.583816 0.139554 0.368258
O O2 0.451807 0.257113 0.377205
O O3 0.327673 0.000000 0.333334
O O4 0.406614 0.077424 0.521112
O O5 0.424699 0.166030 0.062396
O O6 0.391839 0.318909 0.191978
O O7 0.301758 0.301758 0.000000
O O8 0.093676 0.965609 0.094133
O O9 0.102195 0.122919 0.231152
O O10 0.498365 0.998661 0.992929
O O11 0.256783 0.953335 0.963976
O O12 0.263499 0.309840 0.358419
#
# Coordination Sequence:
#
# PCOD8322144 Si02
#       6
#     6   6   3   6   6   6
#     4  10  21  42  68  94 128 178 219 272 325 409
#     4  10  23  42  69  95 130 171 227 273 337 399
#     4  10  24  42  70  92 130 170 220 284 328 404
#     4  11  24  41  67  97 133 171 221 279 335 396
#     4  11  24  41  67  96 132 175 219 276 333 413
#     4  11  24  42  65  99 128 172 221 274 339 397
#
# _framework density 21.765796999999999
#
# number of rings (size 3 to 8) (size 9 to 14) (size 15 to 20)
#    0.000    1.455    1.818    2.182   10.182    0.000 
#    0.000    2.727    0.000    0.000    0.000    0.000 
#    0.000    0.000    0.000    0.000    0.000    0.000 
#
# Total GULP energy -409256.228225 kJ/mol
# GULP energy per Si atom -12401.703886 kJ/mol
# Density = 2.171626 g / cm^3
# Si number density = 21.765797 Si / 1000 Ang^3
#
#
#
# Elastic Constant Matrix: (Units=GPa)
#
#
# Indices 1 2 3 4 5 6 
#
# 1 151.4695 78.8034 31.2812 3.6475 0.0000 0.0000
# 2 78.8034 151.4695 31.2812 -3.6475 0.0000 0.0000
# 3 31.2812 31.2812 54.9992 0.0000 0.0000 0.0000
# 4 3.6475 -3.6475 0.0000 18.1732 0.0000 0.0000
# 5 0.0000 0.0000 0.0000 0.0000 18.1732 3.6475
# 6 0.0000 0.0000 0.0000 0.0000 3.6475 36.3330
#
#
#
# Elastic Compliance Matrix: (Units=1/GPa)
#
#
# Indices 1 2 3 4 5 6 
#
# 1 0.009590 -0.004454 -0.002921 -0.002819 0.000000 0.000000
# 2 -0.004454 0.009590 -0.002921 0.002819 0.000000 0.000000
# 3 -0.002921 -0.002921 0.021505 0.000000 0.000000 0.000000
# 4 -0.002819 0.002819 0.000000 0.056158 0.000000 0.000000
# 5 0.000000 0.000000 0.000000 0.000000 0.056158 -0.005638
# 6 0.000000 0.000000 0.000000 0.000000 -0.005638 0.028089
#
#
# Mechanical properties :
#
#
# Convention : Reuss Voigt Hill
#
# Bulk Modulus (GPa) = 49.76982 71.18557 60.47769
# Shear Modulus (GPa) = 23.99444 28.97403 26.48424
#
# Velocity S-wave (km/s) = 3.32383 3.65248 3.49202
# Velocity P-wave (km/s) = 6.13565 7.11082 6.64116
#
# Compressibility (1/GPa) = 0.02009250
#
# Stress axis : x y z
#
# Youngs Moduli (GPa) = 104.27021 104.27021 46.50045
#
# Poissons Ratio (x) = 0.46443 0.13584
# Poissons Ratio (y) = 0.46443 0.13584
# Poissons Ratio (z) = 0.30461 0.30461
#
# Static dielectric constant tensor:
#      x y z
#    x 4.034610 0.000000 0.000000 
#    y 0.000000 4.034610 0.000000 
#    z 0.000000 0.000000 3.798140 
# 
# 
# High freq. dielectric constant tensor:
#      x y z
#    x 1.863840 0.000000 0.000000 
#    y 0.000000 1.863840 0.000000 
#    z 0.000000 0.000000 1.843210 
# 
# From -- ./inp_files/2029.got.cif
#   From: 2010.03.12/outbox.cif.g09.slc.cpg/sg152_2_cif.got.tgz:2029.got - 2010.04.03 13:45:27.
