data_PCOD8322323
_publ_section_title
;
Structure prediction by ZEFSAII (Michael W. Deem and Ramdas Pophale) SiO2 
 PCOD8322323
Probable space group: P 32 2 1
;
_chemical_formula_sum "Si O2"
_cell_formula_units_Z 36
_cell_length_a 11.497232
_cell_length_b 11.497232
_cell_length_c 14.574127
_cell_angle_alpha 90.000000
_cell_angle_beta 90.000000
_cell_angle_gamma 120.000000
_cell_volume 1668.398426
_symmetry_space_group_name_H-M "P 32 2 1"
_symmetry_group_IT_number 154
_symmetry_cell_setting 'hexagonal'
loop_
_space_group_symop_operation_xyz
x,y,z
-y,x-y,2/3+z
-x+y,-x,1/3+z
x-y,-y,1/3-z
-x,-x+y,2/3-z
y,x,-z
loop_
_atom_site_type_symbol
_atom_site_label
_atom_site_fract_x
_atom_site_fract_y
_atom_site_fract_z
Si Si1 0.605693 0.860096 0.187595
Si Si2 0.314002 0.509317 0.212627
Si Si3 0.703120 0.097894 0.944423
Si Si4 0.356990 0.633893 0.406272
Si Si5 0.903475 0.977508 0.410548
Si Si6 0.725535 0.705054 0.103547
O O1 0.548609 0.867911 0.285940
O O2 0.496670 0.852540 0.113970
O O3 0.632081 0.735034 0.171595
O O4 0.742589 0.000000 0.166667
O O5 0.383872 0.418997 0.231995
O O6 0.341591 0.612422 0.296460
O O7 0.369069 0.595287 0.119420
O O8 0.156421 0.417444 0.192062
O O9 0.723766 0.231521 0.892791
O O10 0.836041 0.085881 0.954506
O O11 0.893731 0.893731 0.500000
O O12 0.971569 0.132348 0.435854
O O13 0.000000 0.966405 0.333334
O O14 0.668321 0.668321 0.000000
#
# Coordination Sequence:
#
# PCOD8322323 Si02
#       6
#     6   6   6   6   6   6
#     4  12  21  40  69  99 130 172 231 277 339 409
#     4  11  25  45  63  98 136 177 233 286 350 420
#     4  11  25  43  64  99 135 177 237 280 348 429
#     4  12  25  41  67  95 134 178 222 295 344 415
#     4  10  20  39  64  98 136 169 221 280 342 405
#     4  10  19  36  67  96 127 173 220 277 333 415
#
# _framework density 21.577580000000001
#
# number of rings (size 3 to 8) (size 9 to 14) (size 15 to 20)
#    0.000    1.000    5.000    3.500    2.333    0.667 
#    0.000    5.000    0.000    0.000    0.000    0.000 
#    0.000    0.000    0.000    0.000    0.000    0.000 
#
# Total GULP energy -446093.775377 kJ/mol
# GULP energy per Si atom -12391.493760 kJ/mol
# Density = 2.152847 g / cm^3
# Si number density = 21.577580 Si / 1000 Ang^3
#
#
#
# Elastic Constant Matrix: (Units=GPa)
#
#
# Indices 1 2 3 4 5 6 
#
# 1 107.3973 48.2285 17.4096 3.9353 0.0001 0.0000
# 2 48.2285 107.3973 17.4096 -3.9353 -0.0001 0.0000
# 3 17.4096 17.4096 49.0431 0.0000 0.0000 0.0000
# 4 3.9353 -3.9353 0.0000 29.0583 0.0000 -0.0001
# 5 0.0001 -0.0001 0.0000 0.0000 29.0583 3.9353
# 6 0.0000 0.0000 0.0000 -0.0001 3.9353 29.5844
#
#
#
# Elastic Compliance Matrix: (Units=1/GPa)
#
#
# Indices 1 2 3 4 5 6 
#
# 1 0.012095 -0.005115 -0.002478 -0.002331 0.000000 0.000000
# 2 -0.005115 0.012095 -0.002478 0.002331 0.000000 0.000000
# 3 -0.002478 -0.002478 0.022149 0.000000 0.000000 0.000000
# 4 -0.002331 0.002331 0.000000 0.035045 0.000000 0.000000
# 5 0.000000 0.000000 0.000000 0.000000 0.035045 -0.004662
# 6 0.000000 0.000000 0.000000 0.000000 -0.004662 0.034422
#
#
# Mechanical properties :
#
#
# Convention : Reuss Voigt Hill
#
# Bulk Modulus (GPa) = 38.17049 47.77033 42.97041
# Shear Modulus (GPa) = 27.82006 29.59288 28.70647
#
# Velocity S-wave (km/s) = 3.59458 3.70735 3.65140
# Velocity P-wave (km/s) = 5.91239 6.36497 6.14285
#
# Compressibility (1/GPa) = 0.02619825
#
# Stress axis : x y z
#
# Youngs Moduli (GPa) = 82.67584 82.67584 45.14794
#
# Poissons Ratio (x) = 0.42292 0.11187
# Poissons Ratio (y) = 0.42292 0.11187
# Poissons Ratio (z) = 0.20486 0.20486
#
# Static dielectric constant tensor:
#      x y z
#    x 3.918540 0.000000 0.000000 
#    y 0.000000 3.918540 0.000000 
#    z 0.000000 0.000000 3.798780 
# 
# 
# High freq. dielectric constant tensor:
#      x y z
#    x 1.845550 0.000000 0.000000 
#    y 0.000000 1.845550 0.000000 
#    z 0.000000 0.000000 1.836110 
# 
# From -- ./inp_files/1954.got.cif
#   From: 2010.03.12/outbox.cif.g09.slc.cpg/sg154_1_cif.got.tgz:1954.got - 2010.04.03 13:51:21.
