data_PCOD8322442
_publ_section_title
;
Structure prediction by ZEFSAII (Michael W. Deem and Ramdas Pophale) SiO2 
 PCOD8322442
Probable space group: P 32 2 1
;
_chemical_formula_sum "Si O2"
_cell_formula_units_Z 24
_cell_length_a 14.631058
_cell_length_b 14.631058
_cell_length_c 5.235131
_cell_angle_alpha 90.000000
_cell_angle_beta 90.000000
_cell_angle_gamma 120.000000
_cell_volume 970.531530
_symmetry_space_group_name_H-M "P 32 2 1"
_symmetry_group_IT_number 154
_symmetry_cell_setting 'hexagonal'
loop_
_space_group_symop_operation_xyz
x,y,z
-y,x-y,2/3+z
-x+y,-x,1/3+z
x-y,-y,1/3-z
-x,-x+y,2/3-z
y,x,-z
loop_
_atom_site_type_symbol
_atom_site_label
_atom_site_fract_x
_atom_site_fract_y
_atom_site_fract_z
Si Si1 0.443575 0.724161 0.421307
Si Si2 0.937609 0.650306 0.596778
Si Si3 0.053281 0.227785 0.584850
Si Si4 0.387430 0.945606 0.914101
O O1 0.394414 0.647598 0.661754
O O2 0.543918 0.834706 0.495272
O O3 0.478900 0.659838 0.229486
O O4 0.906384 0.729401 0.732811
O O5 0.000000 0.696713 0.333334
O O6 0.000000 0.631280 0.833334
O O7 0.026910 0.321680 0.577964
O O8 0.000000 0.155788 0.333334
O O9 0.000000 0.156397 0.833334
O O10 0.462641 0.000000 0.666667
O O11 0.457863 0.000000 0.166667
#
# Coordination Sequence:
#
# PCOD8322442 Si02
#       4
#     6   6   6   6
#     4  11  28  47  68  99 146 190 244 310 371 438
#     4  11  25  46  73 106 148 193 243 301 366 438
#     4   9  17  35  67 100 133 172 222 280 345 417
#     4   9  20  40  67  95 123 169 226 283 348 423
#
# _framework density 24.728718000000001
#
# number of rings (size 3 to 8) (size 9 to 14) (size 15 to 20)
#    0.000    2.000    0.000    1.500    7.000    5.000 
#    0.000    0.000    0.000    7.500    0.000    0.000 
#    0.000    0.000    0.000    0.000    0.000    0.000 
#
# Total GULP energy -297434.215140 kJ/mol
# GULP energy per Si atom -12393.092298 kJ/mol
# Density = 2.467243 g / cm^3
# Si number density = 24.728718 Si / 1000 Ang^3
#
#
#
# Elastic Constant Matrix: (Units=GPa)
#
#
# Indices 1 2 3 4 5 6 
#
# 1 86.6835 65.1945 50.8109 -21.7824 0.0000 0.0000
# 2 65.1945 86.6835 50.8109 21.7824 0.0000 0.0000
# 3 50.8109 50.8109 198.9786 0.0000 0.0000 0.0000
# 4 -21.7824 21.7824 0.0000 18.9360 0.0000 0.0000
# 5 0.0000 0.0000 0.0000 0.0000 18.9360 -21.7824
# 6 0.0000 0.0000 0.0000 0.0000 -21.7824 10.7445
#
#
#
# Elastic Compliance Matrix: (Units=1/GPa)
#
#
# Indices 1 2 3 4 5 6 
#
# 1 -0.013497 0.021438 -0.002028 -0.040187 0.000000 0.000000
# 2 0.021438 -0.013497 -0.002028 0.040187 0.000000 0.000000
# 3 -0.002028 -0.002028 0.006061 0.000000 0.000000 0.000000
# 4 -0.040187 0.040187 0.000000 -0.039646 0.000000 0.000000
# 5 0.000000 0.000000 0.000000 0.000000 -0.039646 -0.080374
# 6 0.000000 0.000000 0.000000 0.000000 -0.080374 -0.069871
#
#
# Mechanical properties :
#
#
# Convention : Reuss Voigt Hill
#
# Bulk Modulus (GPa) = 72.29538 78.44200 75.36869
# Shear Modulus (GPa) = -24.96885 23.42525 -0.77180
#
# Velocity S-wave (km/s) = -3.18104 3.08115 -0.55927
# Velocity P-wave (km/s) = 3.97578 6.66692 5.48884
#
# Compressibility (1/GPa) = 0.01383214
#
# Stress axis : x y z
#
# Youngs Moduli (GPa) = -74.08960 -74.08960 164.98098
#
# Poissons Ratio (x) = 1.58835 0.33455
# Poissons Ratio (y) = 1.58835 0.33455
# Poissons Ratio (z) = -0.15024 -0.15024
#
# Static dielectric constant tensor:
#      x y z
#    x 4.388230 0.000000 0.000000 
#    y 0.000000 4.388230 0.000000 
#    z 0.000000 0.000000 4.628990 
# 
# 
# High freq. dielectric constant tensor:
#      x y z
#    x 1.976810 0.000000 0.000000 
#    y 0.000000 1.976810 0.000000 
#    z 0.000000 0.000000 1.985230 
# 
# From -- ./inp_files/160.got.cif
#   From: 2010.03.12/outbox.cif.g09.slc.cpg/sg154_1_cif.got.tgz:160.got - 2010.04.03 13:51:21.
