data_PCOD8322843
_publ_section_title
;
Structure prediction by ZEFSAII (Michael W. Deem and Ramdas Pophale) SiO2 
 PCOD8322843
Probable space group: R 3 M
;
_chemical_formula_sum "Si O2"
_cell_formula_units_Z 126
_cell_length_a 28.950191
_cell_length_b 28.950191
_cell_length_c 11.373813
_cell_angle_alpha 90.000000
_cell_angle_beta 90.000000
_cell_angle_gamma 120.000000
_cell_volume 8255.427771
_symmetry_space_group_name_H-M "R 3 M"
_symmetry_group_IT_number 160
_symmetry_cell_setting 'hexagonal'
loop_
_space_group_symop_operation_xyz
x,y,z
-y,x-y,z
-x+y,-x,z
-x+y,y,z
x,x-y,z
-y,-x,z
2/3+x,1/3+y,1/3+z
2/3-y,1/3+x-y,1/3+z
2/3-x+y,1/3-x,1/3+z
2/3-x+y,1/3+y,1/3+z
2/3+x,1/3+x-y,1/3+z
2/3-y,1/3-x,1/3+z
1/3+x,2/3+y,2/3+z
1/3-y,2/3+x-y,2/3+z
1/3-x+y,2/3-x,2/3+z
1/3-x+y,2/3+y,2/3+z
1/3+x,2/3+x-y,2/3+z
1/3-y,2/3-x,2/3+z
loop_
_atom_site_type_symbol
_atom_site_label
_atom_site_fract_x
_atom_site_fract_y
_atom_site_fract_z
Si Si1 0.543425 0.986172 0.322931
Si Si2 0.331000 0.266993 0.449027
Si Si3 0.158908 0.945612 0.510811
Si Si4 0.602577 0.049973 0.114816
Si Si5 0.616074 0.630766 0.516776
Si Si6 0.757225 0.137135 0.639401
Si Si7 0.228365 0.167022 0.557937
O O1 0.490332 0.980664 0.382333
O O2 0.529171 0.930595 0.260119
O O3 0.563205 0.033127 0.225988
O O4 0.589474 0.004457 0.418929
O O5 0.335125 0.320414 0.501566
O O6 0.336882 0.269383 0.309353
O O7 0.380303 0.261505 0.504917
O O8 0.274622 0.215798 0.483891
O O9 0.096207 0.903793 0.534073
O O10 0.172348 0.941769 0.373222
O O11 0.172947 0.006017 0.535249
O O12 0.662215 0.072741 0.163876
O O13 0.600369 0.093907 0.031732
O O14 0.584092 0.997211 0.035248
O O15 0.820378 0.179623 0.643114
O O16 0.221715 0.110858 0.515432
#
# Coordination Sequence:
#
# PCOD8322843 Si02
#       7
#    18  18  18  18  18  18  18
#     4  10  19  31  45  65  90 125 163 200 235 274
#     4  11  20  29  42  66  95 127 164 196 233 274
#     4   9  17  32  50  68  90 115 154 197 241 289
#     4  10  17  30  44  64  87 119 161 195 233 271
#     4  12  20  29  45  64  96 130 162 200 236 287
#     4   9  18  31  48  64  85 120 159 202 237 275
#     4  11  20  32  51  71  93 122 160 204 242 290
#
# _framework density 15.262686
#
# number of rings (size 3 to 8) (size 9 to 14) (size 15 to 20)
#    0.000    1.714    2.857    7.714    0.000    1.143 
#    0.000    0.000    0.000    0.286    0.000    0.000 
#    0.000    0.000    0.000    0.000    0.000    2.857 
#
# Total GULP energy -520478.995207 kJ/mol
# GULP energy per Si atom -12392.357029 kJ/mol
# Density = 1.522795 g / cm^3
# Si number density = 15.262686 Si / 1000 Ang^3
#
#
#
# Elastic Constant Matrix: (Units=GPa)
#
#
# Indices 1 2 3 4 5 6 
#
# 1 79.6370 38.2394 32.0438 -1.7858 0.0033 -0.0001
# 2 38.2394 79.6365 32.0429 1.7835 0.0013 -0.0001
# 3 32.0438 32.0429 89.0747 0.0008 0.0181 0.0013
# 4 -1.7858 1.7835 0.0008 15.3517 -0.0016 -0.0013
# 5 0.0033 0.0013 0.0181 -0.0016 15.3608 -1.7848
# 6 -0.0001 -0.0001 0.0013 -0.0013 -1.7848 20.6981
#
#
#
# Elastic Compliance Matrix: (Units=1/GPa)
#
#
# Indices 1 2 3 4 5 6 
#
# 1 0.017474 -0.006927 -0.003794 0.002838 0.000002 0.000001
# 2 -0.006927 0.017473 -0.003794 -0.002836 0.000004 0.000000
# 3 -0.003794 -0.003794 0.013956 -0.000001 -0.000016 -0.000002
# 4 0.002838 -0.002836 -0.000001 0.065799 0.000007 0.000005
# 5 0.000002 0.000004 -0.000016 0.000007 0.065759 0.005670
# 6 0.000001 0.000000 -0.000002 0.000005 0.005670 0.048803
#
#
# Mechanical properties :
#
#
# Convention : Reuss Voigt Hill
#
# Bulk Modulus (GPa) = 50.31945 50.33337 50.32641
# Shear Modulus (GPa) = 18.87377 20.01693 19.44535
#
# Velocity S-wave (km/s) = 3.52034 3.62539 3.57325
# Velocity P-wave (km/s) = 7.04019 7.11155 7.07596
#
# Compressibility (1/GPa) = 0.01987303
#
# Stress axis : x y z
#
# Youngs Moduli (GPa) = 57.22950 57.23019 71.65339
#
# Poissons Ratio (x) = 0.39645 0.27185
# Poissons Ratio (y) = 0.39645 0.27183
# Poissons Ratio (z) = 0.21713 0.21711
#
# Static dielectric constant tensor:
#      x y z
#    x 2.760560 0.000000 -0.000010 
#    y 0.000000 2.760560 0.000000 
#    z -0.000010 0.000000 3.082870 
# 
# 
# High freq. dielectric constant tensor:
#      x y z
#    x 1.556390 0.000000 0.000000 
#    y 0.000000 1.556390 0.000000 
#    z 0.000000 0.000000 1.585800 
# 
# From -- ./inp_files/1829.got.cif
#   From: 2010.03.12/outbox.cif.g09.slc.cpg/sg160_1_cif.got.tgz:1829.got - 2010.04.02 06:26:15.
