data_PCOD8322327
_publ_section_title
;
Structure prediction by ZEFSAII (Michael W. Deem and Ramdas Pophale) SiO2 
 PCOD8322327
Probable space group: P 32 2 1
;
_chemical_formula_sum "Si O2"
_cell_formula_units_Z 42
_cell_length_a 12.958624
_cell_length_b 12.958624
_cell_length_c 15.409544
_cell_angle_alpha 90.000000
_cell_angle_beta 90.000000
_cell_angle_gamma 120.000000
_cell_volume 2240.981114
_symmetry_space_group_name_H-M "P 32 2 1"
_symmetry_group_IT_number 154
_symmetry_cell_setting 'hexagonal'
loop_
_space_group_symop_operation_xyz
x,y,z
-y,x-y,2/3+z
-x+y,-x,1/3+z
x-y,-y,1/3-z
-x,-x+y,2/3-z
y,x,-z
loop_
_atom_site_type_symbol
_atom_site_label
_atom_site_fract_x
_atom_site_fract_y
_atom_site_fract_z
Si Si1 0.806801 0.333710 0.637363
Si Si2 0.875618 0.438116 0.320833
Si Si3 0.866810 0.260803 0.461261
Si Si4 0.196623 0.767648 0.998878
Si Si5 0.428168 0.965407 0.068956
Si Si6 0.394283 0.135096 0.524924
Si Si7 0.926940 0.635671 0.997959
O O1 0.688794 0.231632 0.682865
O O2 0.806212 0.285410 0.542185
O O3 0.803964 0.454470 0.636347
O O4 0.920562 0.353447 0.690904
O O5 0.888035 0.350949 0.385922
O O6 0.857894 0.373525 0.227656
O O7 0.000000 0.563252 0.333334
O O8 0.773494 0.130373 0.423087
O O9 0.998959 0.284135 0.485125
O O10 0.239651 0.801917 0.900733
O O11 0.062446 0.744745 0.004181
O O12 0.288662 0.867432 0.065142
O O13 0.477137 0.000000 0.166667
O O14 0.509095 0.922492 0.016980
O O15 0.346110 0.204681 0.584050
#
# Coordination Sequence:
#
# PCOD8322327 Si02
#       7
#     6   6   6   6   6   6   6
#     4  11  23  35  59  85 119 156 193 244 301 360
#     4   9  21  34  57  84 117 155 192 240 300 367
#     4  10  21  38  58  88 119 152 196 252 300 350
#     4  11  22  36  61  89 117 159 196 243 303 365
#     4  11  24  41  54  86 125 159 200 248 301 360
#     4  10  19  39  61  89 120 149 194 253 301 351
#     4  10  21  37  64  89 116 157 202 243 300 366
#
# _framework density 18.741790000000002
#
# number of rings (size 3 to 8) (size 9 to 14) (size 15 to 20)
#    0.000    1.714    1.429    5.143    6.000    1.143 
#    0.000    0.000    0.000    5.143    0.000    0.000 
#    0.000    0.000    0.000    0.000    0.000    0.000 
#
# Total GULP energy -520576.395008 kJ/mol
# GULP energy per Si atom -12394.676072 kJ/mol
# Density = 1.869913 g / cm^3
# Si number density = 18.741790 Si / 1000 Ang^3
#
#
#
# Elastic Constant Matrix: (Units=GPa)
#
#
# Indices 1 2 3 4 5 6 
#
# 1 114.7341 36.5072 20.4668 -27.6423 -0.0016 0.0000
# 2 36.5072 114.7341 20.4668 27.6423 0.0016 0.0000
# 3 20.4668 20.4668 80.6230 0.0000 0.0000 0.0000
# 4 -27.6423 27.6423 0.0000 135.8529 0.0000 0.0016
# 5 -0.0016 0.0016 0.0000 0.0000 135.8529 -27.6423
# 6 0.0000 0.0000 0.0000 0.0016 -27.6423 39.1134
#
#
#
# Elastic Compliance Matrix: (Units=1/GPa)
#
#
# Indices 1 2 3 4 5 6 
#
# 1 0.011015 -0.003915 -0.001802 0.003038 0.000000 0.000000
# 2 -0.003915 0.011015 -0.001802 -0.003038 0.000000 0.000000
# 3 -0.001802 -0.001802 0.013318 0.000000 0.000000 0.000000
# 4 0.003038 -0.003038 0.000000 0.008597 0.000000 0.000000
# 5 0.000000 0.000000 0.000000 0.000000 0.008597 0.006076
# 6 0.000000 0.000000 0.000000 0.000000 0.006076 0.029861
#
#
# Mechanical properties :
#
#
# Convention : Reuss Voigt Hill
#
# Bulk Modulus (GPa) = 49.24006 51.66366 50.45186
# Shear Modulus (GPa) = 47.97875 77.67387 62.82631
#
# Velocity S-wave (km/s) = 5.06512 6.44470 5.79610
# Velocity P-wave (km/s) = 7.78056 9.11070 8.47177
#
# Compressibility (1/GPa) = 0.02030867
#
# Stress axis : x y z
#
# Youngs Moduli (GPa) = 90.78518 90.78518 75.08364
#
# Poissons Ratio (x) = 0.35545 0.13533
# Poissons Ratio (y) = 0.35545 0.13533
# Poissons Ratio (z) = 0.16362 0.16362
#
# Static dielectric constant tensor:
#      x y z
#    x 3.614340 0.000000 0.000000 
#    y 0.000000 3.614340 0.000000 
#    z 0.000000 0.000000 3.604900 
# 
# 
# High freq. dielectric constant tensor:
#      x y z
#    x 1.719910 0.000000 0.000000 
#    y 0.000000 1.719910 0.000000 
#    z 0.000000 0.000000 1.729560 
# 
# From -- ./inp_files/2455.got.cif
#   From: 2010.03.12/outbox.cif.g09.slc.cpg/sg154_2_cif.got.tgz:2455.got - 2010.04.03 13:51:21.
