data_PCOD8322992
_publ_section_title
;
Structure prediction by ZEFSAII (Michael W. Deem and Ramdas Pophale) SiO2 
 PCOD8322992
Probable space group: P -3 1 M 
;
_chemical_formula_sum "Si O2"
_cell_formula_units_Z 72
_cell_length_a 23.556672
_cell_length_b 23.556672
_cell_length_c 8.823568
_cell_angle_alpha 90.000000
_cell_angle_beta 90.000000
_cell_angle_gamma 120.000000
_cell_volume 4240.360092
_symmetry_space_group_name_H-M "P -3 1 M "
_symmetry_group_IT_number 162
_symmetry_cell_setting 'hexagonal'
loop_
_space_group_symop_operation_xyz
x,y,z
-y,x-y,z
-x+y,-x,z
-y,-x,-z
-x+y,y,-z
x,x-y,-z
-x,-y,-z
y,-x+y,-z
x-y,x,-z
y,x,z
x-y,-y,z
-x,-x+y,z
loop_
_atom_site_type_symbol
_atom_site_label
_atom_site_fract_x
_atom_site_fract_y
_atom_site_fract_z
Si Si1 0.625475 0.701927 0.119722
Si Si2 0.737145 0.601710 0.441274
Si Si3 0.925910 0.188668 0.580128
Si Si4 0.076757 0.478495 0.579313
Si Si5 0.261528 0.074162 0.926299
Si Si6 0.517536 0.922378 0.075767
O O1 0.657231 0.657231 0.171502
O O2 0.607382 0.733675 0.259766
O O3 0.674002 0.759903 0.011394
O O4 0.559688 0.660153 0.022510
O O5 0.792541 0.585082 0.500000
O O6 0.753362 0.671742 0.506726
O O7 0.666374 0.545928 0.494528
O O8 0.880624 0.119377 0.500000
O O9 0.904506 0.184723 0.753419
O O10 0.000000 0.204581 0.561090
O O11 0.090602 0.545301 0.500000
O O12 0.102245 0.491612 0.751701
O O13 0.000000 0.424345 0.567468
O O14 0.203726 0.000000 0.939449
O O15 0.232959 0.116480 0.000000
O O16 0.552694 0.000000 0.077740
O O17 0.446083 0.892166 0.000000
#
# Coordination Sequence:
#
# PCOD8322992 Si02
#       6
#    12  12  12  12  12  12
#     4  10  19  31  48  69  98 133 166 201 241 289
#     4  11  21  32  48  72 102 133 165 201 243 292
#     4  10  20  33  50  72  99 130 164 203 246 294
#     4  10  19  32  52  75 100 129 162 202 245 291
#     4  10  20  33  49  70  95 126 163 202 247 297
#     4   9  17  29  46  71 100 129 161 198 243 290
#
# _framework density 16.979690000000002
#
# number of rings (size 3 to 8) (size 9 to 14) (size 15 to 20)
#    0.000    2.000    0.000    5.500    0.000    7.333 
#    0.000    0.000    0.000    0.667    0.000    0.000 
#    0.000    0.000    0.000    0.500    0.000    0.333 
#
# Total GULP energy -892774.437662 kJ/mol
# GULP energy per Si atom -12399.644968 kJ/mol
# Density = 1.694104 g / cm^3
# Si number density = 16.979690 Si / 1000 Ang^3
#
#
#
# Elastic Constant Matrix: (Units=GPa)
#
#
# Indices 1 2 3 4 5 6 
#
# 1 84.9864 49.8990 56.9691 -0.0001 -0.3173 0.0000
# 2 49.8990 84.9864 56.9691 0.0001 0.3173 0.0000
# 3 56.9691 56.9691 156.7264 0.0000 0.0000 0.0000
# 4 -0.0001 0.0001 0.0000 29.7483 0.0000 0.3173
# 5 -0.3173 0.3173 0.0000 0.0000 29.7483 -0.0001
# 6 0.0000 0.0000 0.0000 0.3173 -0.0001 17.5437
#
#
#
# Elastic Compliance Matrix: (Units=1/GPa)
#
#
# Indices 1 2 3 4 5 6 
#
# 1 0.019602 -0.008904 -0.003889 0.000000 0.000304 0.000000
# 2 -0.008904 0.019602 -0.003889 0.000000 -0.000304 0.000000
# 3 -0.003889 -0.003889 0.009208 0.000000 0.000000 0.000000
# 4 0.000000 0.000000 0.000000 0.033622 0.000000 -0.000608
# 5 0.000304 -0.000304 0.000000 0.000000 0.033622 0.000000
# 6 0.000000 0.000000 0.000000 -0.000608 0.000000 0.057011
#
#
# Mechanical properties :
#
#
# Convention : Reuss Voigt Hill
#
# Bulk Modulus (GPa) = 66.44756 72.70819 69.57788
# Shear Modulus (GPa) = 23.69146 26.26553 24.97849
#
# Velocity S-wave (km/s) = 3.73940 3.93731 3.83963
# Velocity P-wave (km/s) = 7.60675 7.97392 7.79250
#
# Compressibility (1/GPa) = 0.01504946
#
# Stress axis : x y z
#
# Youngs Moduli (GPa) = 51.01466 51.01466 108.60430
#
# Poissons Ratio (x) = 0.45421 0.42235
# Poissons Ratio (y) = 0.45421 0.42235
# Poissons Ratio (z) = 0.19839 0.19839
#
# Static dielectric constant tensor:
#      x y z
#    x 3.111920 0.000000 0.000000 
#    y 0.000000 3.111920 0.000000 
#    z 0.000000 0.000000 3.456550 
# 
# 
# High freq. dielectric constant tensor:
#      x y z
#    x 1.633310 0.000000 0.000000 
#    y 0.000000 1.633310 0.000000 
#    z 0.000000 0.000000 1.679860 
# 
# From -- ./inp_files/1691.got.cif
#   From: 2010.03.12/outbox.cif.g09.slc.cpg/sg162_1_cif.got.tgz:1691.got - 2010.04.02 06:27:41.
