data_PCOD8322908
_publ_section_title
;
Structure prediction by ZEFSAII (Michael W. Deem and Ramdas Pophale) SiO2 
 PCOD8322908
Probable space group: R 3 C
;
_chemical_formula_sum "Si O2"
_cell_formula_units_Z 54
_cell_length_a 13.205801
_cell_length_b 13.205801
_cell_length_c 13.565551
_cell_angle_alpha 90.000000
_cell_angle_beta 90.000000
_cell_angle_gamma 120.000000
_cell_volume 2048.790573
_symmetry_space_group_name_H-M "R 3 C"
_symmetry_group_IT_number 161
_symmetry_cell_setting 'hexagonal'
loop_
_space_group_symop_operation_xyz
x,y,z
-y,x-y,z
-x+y,-x,z
-x+y,y,1/2+z
x,x-y,1/2+z
-y,-x,1/2+z
2/3+x,1/3+y,1/3+z
2/3-y,1/3+x-y,1/3+z
2/3-x+y,1/3-x,1/3+z
2/3-x+y,1/3+y,5/6+z
2/3+x,1/3+x-y,5/6+z
2/3-y,1/3-x,5/6+z
1/3+x,2/3+y,2/3+z
1/3-y,2/3+x-y,2/3+z
1/3-x+y,2/3-x,2/3+z
1/3-x+y,2/3+y,1/6+z
1/3+x,2/3+x-y,1/6+z
1/3-y,2/3-x,1/6+z
loop_
_atom_site_type_symbol
_atom_site_label
_atom_site_fract_x
_atom_site_fract_y
_atom_site_fract_z
Si Si1 0.316882 0.236474 0.734807
Si Si2 0.062329 0.148707 0.037449
Si Si3 0.008726 0.238449 0.699189
O O1 0.432010 0.239791 0.779708
O O2 0.215803 0.099484 0.741142
O O3 0.335066 0.265112 0.618968
O O4 0.287903 0.325195 0.791335
O O5 0.133495 0.076604 0.032584
O O6 0.111265 0.217298 0.142680
#
# Coordination Sequence:
#
# PCOD8322908 Si02
#       3
#    18  18  18
#     4  12  28  47  77 108 158 191 262 306 386 450
#     4  10  26  48  75 110 149 196 253 306 384 449
#     4  12  28  47  76 112 149 205 251 318 378 457
#
# _framework density 26.357012000000001
#
# number of rings (size 3 to 8) (size 9 to 14) (size 15 to 20)
#    0.667    0.000    3.333    2.000   14.000    0.000 
#    0.000    0.000    0.000    0.000    0.000    0.000 
#    0.000    0.000    0.000    0.000    0.000    0.000 
#
# Total GULP energy -223106.154605 kJ/mol
# GULP energy per Si atom -12394.786367 kJ/mol
# Density = 2.629702 g / cm^3
# Si number density = 26.357012 Si / 1000 Ang^3
#
#
#
# Elastic Constant Matrix: (Units=GPa)
#
#
# Indices 1 2 3 4 5 6 
#
# 1 66.3020 -20.9574 -2.3707 -3.0278 0.0000 0.0000
# 2 -20.9574 66.3020 -2.3707 3.0278 0.0000 0.0000
# 3 -2.3707 -2.3707 111.9308 0.0000 0.0000 0.0000
# 4 -3.0278 3.0278 0.0000 41.3181 0.0000 0.0000
# 5 0.0000 0.0000 0.0000 0.0000 41.3181 -3.0278
# 6 0.0000 0.0000 0.0000 0.0000 -3.0278 43.6297
#
#
#
# Elastic Compliance Matrix: (Units=1/GPa)
#
#
# Indices 1 2 3 4 5 6 
#
# 1 0.016810 0.005292 0.000468 0.000844 0.000000 0.000000
# 2 0.005292 0.016810 0.000468 -0.000844 0.000000 0.000000
# 3 0.000468 0.000468 0.008954 0.000000 0.000000 0.000000
# 4 0.000844 -0.000844 0.000000 0.024326 0.000000 0.000000
# 5 0.000000 0.000000 0.000000 0.000000 0.024326 0.001688
# 6 0.000000 0.000000 0.000000 0.000000 0.001688 0.023037
#
#
# Mechanical properties :
#
#
# Convention : Reuss Voigt Hill
#
# Bulk Modulus (GPa) = 18.17154 21.45966 19.81560
# Shear Modulus (GPa) = 41.61393 43.26876 42.44134
#
# Velocity S-wave (km/s) = 3.97779 4.05611 4.01714
# Velocity P-wave (km/s) = 5.29211 5.48595 5.38990
#
# Compressibility (1/GPa) = 0.05503111
#
# Stress axis : x y z
#
# Youngs Moduli (GPa) = 59.48665 59.48665 111.68286
#
# Poissons Ratio (x) = -0.31479 -0.05228
# Poissons Ratio (y) = -0.31479 -0.05228
# Poissons Ratio (z) = -0.02785 -0.02785
#
# Static dielectric constant tensor:
#      x y z
#    x 4.592650 0.000000 0.000000 
#    y 0.000000 4.592650 0.000000 
#    z 0.000000 0.000000 4.628300 
# 
# 
# High freq. dielectric constant tensor:
#      x y z
#    x 2.057790 0.000000 0.000000 
#    y 0.000000 2.057790 0.000000 
#    z 0.000000 0.000000 2.057610 
# 
# From -- ./inp_files/507.got.cif
#   From: 2010.03.12/outbox.cif.g09.slc.cpg/sg161_cif.got.tgz:507.got - 2010.04.02 06:27:14.
