data_PCOD8322542
_publ_section_title
;
Structure prediction by ZEFSAII (Michael W. Deem and Ramdas Pophale) SiO2 
 PCOD8322542
Probable space group: R 3 2
;
_chemical_formula_sum "Si O2"
_cell_formula_units_Z 81
_cell_length_a 17.523905
_cell_length_b 17.523905
_cell_length_c 12.481362
_cell_angle_alpha 90.000000
_cell_angle_beta 90.000000
_cell_angle_gamma 120.000000
_cell_volume 3319.360268
_symmetry_space_group_name_H-M "R 3 2"
_symmetry_group_IT_number 155
_symmetry_cell_setting 'hexagonal'
loop_
_space_group_symop_operation_xyz
x,y,z
-y,x-y,z
-x+y,-x,z
x-y,-y,-z
-x,-x+y,-z
y,x,-z
2/3+x,1/3+y,1/3+z
2/3-y,1/3+x-y,1/3+z
2/3-x+y,1/3-x,1/3+z
2/3+x-y,1/3-y,1/3-z
2/3-x,1/3-x+y,1/3-z
2/3+y,1/3+x,1/3-z
1/3+x,2/3+y,2/3+z
1/3-y,2/3+x-y,2/3+z
1/3-x+y,2/3-x,2/3+z
1/3+x-y,2/3-y,2/3-z
1/3-x,2/3-x+y,2/3-z
1/3+y,2/3+x,2/3-z
loop_
_atom_site_type_symbol
_atom_site_label
_atom_site_fract_x
_atom_site_fract_y
_atom_site_fract_z
Si Si1 0.666667 0.583157 0.333334
Si Si2 0.240205 0.206044 0.122707
Si Si3 0.071106 0.519610 0.856902
Si Si4 0.579614 0.732835 0.923394
Si Si5 0.436560 0.874028 0.187044
O O1 0.599887 0.503391 0.258614
O O2 0.726513 0.663248 0.253288
O O3 0.333334 0.281996 0.166667
O O4 0.171527 0.214231 0.198673
O O5 0.234002 0.111298 0.146729
O O6 0.223071 0.223071 0.000000
O O7 0.124124 0.493723 0.941119
O O8 0.965575 0.473413 0.880082
O O9 0.573110 0.787344 0.022806
O O10 0.333334 0.808569 0.166667
O O11 0.491813 0.825146 0.166667
#
# Coordination Sequence:
#
# PCOD8322542 Si02
#       5
#     9  18  18  18  18
#     4  10  20  44  74 102 140 196 262 318 376 468
#     4  12  26  46  72 107 153 199 251 327 406 477
#     4  11  22  41  71 102 138 191 254 309 384 472
#     4  11  24  45  75 107 144 201 267 323 392 478
#     4  11  25  45  71 106 153 197 249 325 406 483
#
# _framework density 24.402293
#
# number of rings (size 3 to 8) (size 9 to 14) (size 15 to 20)
#    0.000    0.889    0.000    9.556    3.111    0.000 
#    3.333    0.000    2.444    0.000    0.000    0.000 
#    0.000    0.000    0.000    0.000    0.000    0.000 
#
# Total GULP energy -334523.714494 kJ/mol
# GULP energy per Si atom -12389.767203 kJ/mol
# Density = 2.434675 g / cm^3
# Si number density = 24.402293 Si / 1000 Ang^3
#
#
#
# Elastic Constant Matrix: (Units=GPa)
#
#
# Indices 1 2 3 4 5 6 
#
# 1 174.1683 86.5174 24.0495 -0.5610 -0.0001 0.0000
# 2 86.5174 174.1683 24.0495 0.5610 0.0001 0.0000
# 3 24.0495 24.0495 68.5667 0.0000 0.0000 0.0000
# 4 -0.5610 0.5610 0.0000 38.2996 0.0000 0.0001
# 5 -0.0001 0.0001 0.0000 0.0000 38.2996 -0.5610
# 6 0.0000 0.0000 0.0000 0.0001 -0.5610 43.8255
#
#
#
# Elastic Compliance Matrix: (Units=1/GPa)
#
#
# Indices 1 2 3 4 5 6 
#
# 1 0.007756 -0.003655 -0.001439 0.000167 0.000000 0.000000
# 2 -0.003655 0.007756 -0.001439 -0.000167 0.000000 0.000000
# 3 -0.001439 -0.001439 0.015593 0.000000 0.000000 0.000000
# 4 0.000167 -0.000167 0.000000 0.026115 0.000000 0.000000
# 5 0.000000 0.000000 0.000000 0.000000 0.026115 0.000334
# 6 0.000000 0.000000 0.000000 0.000000 0.000334 0.022822
#
#
# Mechanical properties :
#
#
# Convention : Reuss Voigt Hill
#
# Bulk Modulus (GPa) = 55.42581 76.23733 65.83157
# Shear Modulus (GPa) = 39.92477 42.90408 41.41443
#
# Velocity S-wave (km/s) = 4.04927 4.19764 4.12412
# Velocity P-wave (km/s) = 6.68018 7.40292 7.05082
#
# Compressibility (1/GPa) = 0.01804214
#
# Stress axis : x y z
#
# Youngs Moduli (GPa) = 128.92830 128.92830 64.12932
#
# Poissons Ratio (x) = 0.47120 0.09225
# Poissons Ratio (y) = 0.47120 0.09225
# Poissons Ratio (z) = 0.18547 0.18547
#
# Static dielectric constant tensor:
#      x y z
#    x 4.511360 0.000000 0.000000 
#    y 0.000000 4.511360 0.000000 
#    z 0.000000 0.000000 4.448070 
# 
# 
# High freq. dielectric constant tensor:
#      x y z
#    x 1.971870 0.000000 0.000000 
#    y 0.000000 1.971870 0.000000 
#    z 0.000000 0.000000 1.989530 
# 
# From -- ./inp_files/4991.got.cif
#   From: 2010.03.12/outbox.cif.g09.slc.cpg/sg155_3_cif.got.tgz:4991.got - 2010.04.03 13:54:13.
