data_PCOD8322161
_publ_section_title
;
Structure prediction by ZEFSAII (Michael W. Deem and Ramdas Pophale) SiO2 
 PCOD8322161
Probable space group: P 31 2 1
;
_chemical_formula_sum "Si O2"
_cell_formula_units_Z 24
_cell_length_a 8.395017
_cell_length_b 8.395017
_cell_length_c 18.404711
_cell_angle_alpha 90.000000
_cell_angle_beta 90.000000
_cell_angle_gamma 120.000000
_cell_volume 1123.318196
_symmetry_space_group_name_H-M "P 31 2 1"
_symmetry_group_IT_number 152
_symmetry_cell_setting 'hexagonal'
loop_
_space_group_symop_operation_xyz
x,y,z
-y,x-y,1/3+z
-x+y,-x,2/3+z
x-y,-y,2/3-z
-x,-x+y,1/3-z
y,x,-z
loop_
_atom_site_type_symbol
_atom_site_label
_atom_site_fract_x
_atom_site_fract_y
_atom_site_fract_z
Si Si1 0.032551 0.789157 0.776394
Si Si2 0.647879 0.798796 0.595788
Si Si3 0.114075 0.696441 0.298959
Si Si4 0.000000 0.502999 0.666667
Si Si5 0.851572 0.000000 0.833334
O O1 0.143275 0.784599 0.846669
O O2 0.960835 0.595448 0.736434
O O3 0.167117 0.956194 0.722804
O O4 0.872727 0.831888 0.800671
O O5 0.481585 0.597948 0.607102
O O6 0.637399 0.941469 0.649456
O O7 0.097740 0.796946 0.228012
O O8 0.301056 0.824642 0.343282
#
# Coordination Sequence:
#
# PCOD8322161 Si02
#       5
#     6   6   6   3   3
#     4  10  22  42  63  90 125 159 208 269 319 376
#     4  10  23  41  61  89 127 166 207 261 315 380
#     4  12  24  40  64  92 126 169 213 260 318 382
#     4  12  24  38  64  94 122 166 212 262 324 380
#     4  10  22  42  68  92 126 170 216 268 320 380
#
# _framework density 21.365269999999999
#
# number of rings (size 3 to 8) (size 9 to 14) (size 15 to 20)
#    0.000    1.500    0.000    7.500    0.000    6.000 
#    0.000    0.000    0.000    0.000    0.000    0.000 
#    0.000    0.000    0.000    0.000    0.000    0.000 
#
# Total GULP energy -297635.606108 kJ/mol
# GULP energy per Si atom -12401.483588 kJ/mol
# Density = 2.131664 g / cm^3
# Si number density = 21.365270 Si / 1000 Ang^3
#
#
#
# Elastic Constant Matrix: (Units=GPa)
#
#
# Indices 1 2 3 4 5 6 
#
# 1 119.6152 81.1519 58.9392 -0.2519 -0.0005 0.0000
# 2 81.1519 119.6152 58.9392 0.2519 0.0005 0.0000
# 3 58.9392 58.9392 90.3752 0.0000 0.0000 0.0000
# 4 -0.2519 0.2519 0.0000 25.8165 0.0000 0.0005
# 5 -0.0005 0.0005 0.0000 0.0000 25.8165 -0.2519
# 6 0.0000 0.0000 0.0000 0.0005 -0.2519 19.2317
#
#
#
# Elastic Compliance Matrix: (Units=1/GPa)
#
#
# Indices 1 2 3 4 5 6 
#
# 1 0.017037 -0.008965 -0.005264 0.000254 0.000001 0.000000
# 2 -0.008965 0.017037 -0.005264 -0.000254 -0.000001 0.000000
# 3 -0.005264 -0.005264 0.017931 0.000000 0.000000 0.000000
# 4 0.000254 -0.000254 0.000000 0.038740 0.000000 -0.000001
# 5 0.000001 -0.000001 0.000000 0.000000 0.038740 0.000507
# 6 0.000000 0.000000 0.000000 -0.000001 0.000507 0.052004
#
#
# Mechanical properties :
#
#
# Convention : Reuss Voigt Hill
#
# Bulk Modulus (GPa) = 76.81569 80.85181 78.83375
# Shear Modulus (GPa) = 22.24054 22.87793 22.55923
#
# Velocity S-wave (km/s) = 3.22990 3.27586 3.25296
# Velocity P-wave (km/s) = 7.06691 7.22725 7.14753
#
# Compressibility (1/GPa) = 0.01301817
#
# Stress axis : x y z
#
# Youngs Moduli (GPa) = 58.69626 58.69626 55.76954
#
# Poissons Ratio (x) = 0.52623 0.29357
# Poissons Ratio (y) = 0.52623 0.29357
# Poissons Ratio (z) = 0.30898 0.30898
#
# Static dielectric constant tensor:
#      x y z
#    x 3.959050 0.000000 0.000000 
#    y 0.000000 3.959050 0.000000 
#    z 0.000000 0.000000 3.995800 
# 
# 
# High freq. dielectric constant tensor:
#      x y z
#    x 1.843870 0.000000 0.000000 
#    y 0.000000 1.843870 0.000000 
#    z 0.000000 0.000000 1.843110 
# 
# From -- ./inp_files/2680.got.cif
#   From: 2010.03.12/outbox.cif.g09.slc.cpg/sg152_2_cif.got.tgz:2680.got - 2010.04.03 13:45:27.
