data_PCOD8322637
_publ_section_title
;
Structure prediction by ZEFSAII (Michael W. Deem and Ramdas Pophale) SiO2 
 PCOD8322637
Probable space group: R 3 2
;
_chemical_formula_sum "Si O2"
_cell_formula_units_Z 33
_cell_length_a 12.797319
_cell_length_b 12.797319
_cell_length_c 8.204223
_cell_angle_alpha 90.000000
_cell_angle_beta 90.000000
_cell_angle_gamma 120.000000
_cell_volume 1163.606342
_symmetry_space_group_name_H-M "R 3 2"
_symmetry_group_IT_number 155
_symmetry_cell_setting 'hexagonal'
loop_
_space_group_symop_operation_xyz
x,y,z
-y,x-y,z
-x+y,-x,z
x-y,-y,-z
-x,-x+y,-z
y,x,-z
2/3+x,1/3+y,1/3+z
2/3-y,1/3+x-y,1/3+z
2/3-x+y,1/3-x,1/3+z
2/3+x-y,1/3-y,1/3-z
2/3-x,1/3-x+y,1/3-z
2/3+y,1/3+x,1/3-z
1/3+x,2/3+y,2/3+z
1/3-y,2/3+x-y,2/3+z
1/3-x+y,2/3-x,2/3+z
1/3+x-y,2/3-y,2/3-z
1/3-x,2/3-x+y,2/3-z
1/3+y,2/3+x,2/3-z
loop_
_atom_site_type_symbol
_atom_site_label
_atom_site_fract_x
_atom_site_fract_y
_atom_site_fract_z
Si Si1 0.609851 0.525829 0.136583
Si Si2 0.000000 0.738838 0.000000
Si Si3 0.333335 0.666668 0.473262
O O1 0.700033 0.666667 0.166667
O O2 0.537354 0.452237 0.299837
O O3 0.680892 0.458829 0.070603
O O4 0.513637 0.513637 0.000000
O O5 0.980873 0.666667 0.166667
O O6 0.333334 0.666668 0.666667
#
# Coordination Sequence:
#
# PCOD8322637 Si02
#       3
#    18   9   6
#     4  12  30  52  90 135 193 244 315 396 475 560
#     4  12  28  56  94 142 184 254 322 388 478 576
#     4  12  27  54  88 137 184 247 323 382 475 581
#
# _framework density 28.360106999999999
#
# number of rings (size 3 to 8) (size 9 to 14) (size 15 to 20)
#    0.000    0.000    5.455    1.636    7.636    0.000 
#    0.000    0.000    0.000    0.000    0.000    0.000 
#    0.000    0.000    0.000    0.000    0.000    0.000 
#
# Total GULP energy -136291.001878 kJ/mol
# GULP energy per Si atom -12390.091080 kJ/mol
# Density = 2.829556 g / cm^3
# Si number density = 28.360107 Si / 1000 Ang^3
#
#
#
# Elastic Constant Matrix: (Units=GPa)
#
#
# Indices 1 2 3 4 5 6 
#
# 1 244.3087 115.7998 74.0610 -5.8764 -0.0001 0.0001
# 2 115.7998 244.3065 74.0621 5.8757 0.0002 -0.0001
# 3 74.0610 74.0621 129.3477 0.0004 -0.0001 0.0002
# 4 -5.8764 5.8757 0.0004 47.0712 0.0000 0.0001
# 5 -0.0001 0.0002 -0.0001 0.0000 47.0701 -5.8752
# 6 0.0001 -0.0001 0.0002 0.0001 -5.8752 64.2534
#
#
#
# Elastic Compliance Matrix: (Units=1/GPa)
#
#
# Indices 1 2 3 4 5 6 
#
# 1 0.005752 -0.002120 -0.002080 0.000983 0.000000 0.000000
# 2 -0.002120 0.005752 -0.002080 -0.000983 0.000000 0.000000
# 3 -0.002080 -0.002080 0.010113 0.000000 0.000000 0.000000
# 4 0.000983 -0.000983 0.000000 0.021490 0.000000 0.000000
# 5 0.000000 0.000000 0.000000 0.000000 0.021490 0.001965
# 6 0.000000 0.000000 0.000000 0.000000 0.001965 0.015743
#
#
# Mechanical properties :
#
#
# Convention : Reuss Voigt Hill
#
# Bulk Modulus (GPa) = 110.39561 127.31208 118.85385
# Shear Modulus (GPa) = 52.12799 55.28159 53.70479
#
# Velocity S-wave (km/s) = 4.29193 4.41985 4.35636
# Velocity P-wave (km/s) = 7.97319 8.42825 8.20388
#
# Compressibility (1/GPa) = 0.00905833
#
# Stress axis : x y z
#
# Youngs Moduli (GPa) = 173.85466 173.85187 98.88388
#
# Poissons Ratio (x) = 0.36848 0.20566
# Poissons Ratio (y) = 0.36849 0.20567
# Poissons Ratio (z) = 0.36158 0.36160
#
# Static dielectric constant tensor:
#      x y z
#    x 5.860970 -0.000010 0.000000 
#    y -0.000010 5.861000 0.000010 
#    z 0.000000 0.000010 6.357040 
# 
# 
# High freq. dielectric constant tensor:
#      x y z
#    x 2.171230 0.000000 0.000000 
#    y 0.000000 2.171230 0.000000 
#    z 0.000000 0.000000 2.138360 
# 
# From -- ./inp_files/1374.got.cif
#   From: 2010.03.12/outbox.cif.g09.slc.cpg/sg155_1_cif.got.tgz:1374.got - 2010.04.03 13:54:13.
