data_PCOD8322360
_publ_section_title
;
Structure prediction by ZEFSAII (Michael W. Deem and Ramdas Pophale) SiO2 
 PCOD8322360
Probable space group: P 32 2 1
;
_chemical_formula_sum "Si O2"
_cell_formula_units_Z 33
_cell_length_a 15.451333
_cell_length_b 15.451333
_cell_length_c 7.731596
_cell_angle_alpha 90.000000
_cell_angle_beta 90.000000
_cell_angle_gamma 120.000000
_cell_volume 1598.570113
_symmetry_space_group_name_H-M "P 32 2 1"
_symmetry_group_IT_number 154
_symmetry_cell_setting 'hexagonal'
loop_
_space_group_symop_operation_xyz
x,y,z
-y,x-y,2/3+z
-x+y,-x,1/3+z
x-y,-y,1/3-z
-x,-x+y,2/3-z
y,x,-z
loop_
_atom_site_type_symbol
_atom_site_label
_atom_site_fract_x
_atom_site_fract_y
_atom_site_fract_z
Si Si1 0.855421 0.253828 0.168599
Si Si2 0.886867 0.435842 0.383523
Si Si3 0.083886 0.881889 0.679586
Si Si4 0.760318 0.177434 0.809932
Si Si5 0.947443 0.351593 0.665886
Si Si6 0.768827 0.000000 0.666667
O O1 0.835998 0.334821 0.268125
O O2 0.842052 0.161844 0.284820
O O3 0.777339 0.211550 0.010081
O O4 0.972035 0.312375 0.115032
O O5 0.814880 0.483433 0.390998
O O6 0.895067 0.406631 0.578470
O O7 0.000000 0.516979 0.333334
O O8 0.000000 0.839425 0.833334
O O9 0.046008 0.851462 0.483134
O O10 0.135917 0.000000 0.666667
O O11 0.862673 0.240661 0.707437
O O12 0.738868 0.066781 0.783650
O O13 0.000000 0.417782 0.833334
#
# Coordination Sequence:
#
# PCOD8322360 Si02
#       6
#     6   6   6   6   6   3
#     4  10  21  44  67  93 132 187 225 273 356 427
#     4  10  20  40  65  93 129 170 223 282 334 410
#     4  12  26  43  66 101 141 188 235 288 351 425
#     4  11  21  40  66  99 127 176 229 279 346 409
#     4   9  20  40  65  86 124 175 219 260 338 421
#     4  12  24  42  68  98 140 180 222 294 340 406
#
# _framework density 20.643449
#
# number of rings (size 3 to 8) (size 9 to 14) (size 15 to 20)
#    0.000    1.455    2.727    3.818    1.273    0.000 
#    6.545    1.818    0.000    0.000    0.000    0.000 
#    0.000    0.000    0.000    0.000    0.000    0.000 
#
# Total GULP energy -408889.440116 kJ/mol
# GULP energy per Si atom -12390.589094 kJ/mol
# Density = 2.059646 g / cm^3
# Si number density = 20.643449 Si / 1000 Ang^3
#
#
#
# Elastic Constant Matrix: (Units=GPa)
#
#
# Indices 1 2 3 4 5 6 
#
# 1 107.0647 46.7382 58.4042 3.3747 -0.0001 0.0000
# 2 46.7382 107.0647 58.4042 -3.3747 0.0001 0.0000
# 3 58.4042 58.4042 143.5309 0.0000 0.0000 0.0000
# 4 3.3747 -3.3747 0.0000 30.0244 0.0000 0.0001
# 5 -0.0001 0.0001 0.0000 0.0000 30.0244 3.3747
# 6 0.0000 0.0000 0.0000 0.0001 3.3747 30.1633
#
#
#
# Elastic Compliance Matrix: (Units=1/GPa)
#
#
# Indices 1 2 3 4 5 6 
#
# 1 0.013099 -0.003689 -0.003829 -0.001887 0.000000 0.000000
# 2 -0.003689 0.013099 -0.003829 0.001887 0.000000 0.000000
# 3 -0.003829 -0.003829 0.010083 0.000000 0.000000 0.000000
# 4 -0.001887 0.001887 0.000000 0.033730 0.000000 0.000000
# 5 0.000000 0.000000 0.000000 0.000000 0.033730 -0.003774
# 6 0.000000 0.000000 0.000000 0.000000 -0.003774 0.033575
#
#
# Mechanical properties :
#
#
# Convention : Reuss Voigt Hill
#
# Bulk Modulus (GPa) = 73.59961 76.08371 74.84166
# Shear Modulus (GPa) = 30.38794 30.98334 30.68564
#
# Velocity S-wave (km/s) = 3.84088 3.87832 3.85964
# Velocity P-wave (km/s) = 7.44311 7.54926 7.49637
#
# Compressibility (1/GPa) = 0.01358703
#
# Stress axis : x y z
#
# Youngs Moduli (GPa) = 76.34359 76.34359 99.17470
#
# Poissons Ratio (x) = 0.28162 0.37973
# Poissons Ratio (y) = 0.28162 0.37973
# Poissons Ratio (z) = 0.29232 0.29232
#
# Static dielectric constant tensor:
#      x y z
#    x 3.661010 0.000000 0.000000 
#    y 0.000000 3.661010 0.000000 
#    z 0.000000 0.000000 3.919520 
# 
# 
# High freq. dielectric constant tensor:
#      x y z
#    x 1.799800 0.000000 0.000000 
#    y 0.000000 1.799800 0.000000 
#    z 0.000000 0.000000 1.822210 
# 
# From -- ./inp_files/1157.got.cif
#   From: 2010.03.12/outbox.cif.g09.slc.cpg/sg154_1_cif.got.tgz:1157.got - 2010.04.03 13:51:21.
