data_PCOD8322266
_publ_section_title
;
Structure prediction by ZEFSAII (Michael W. Deem and Ramdas Pophale) SiO2 
 PCOD8322266
Probable space group: P 32 1 2
;
_chemical_formula_sum "Si O2"
_cell_formula_units_Z 36
_cell_length_a 9.025572
_cell_length_b 9.025572
_cell_length_c 25.421346
_cell_angle_alpha 90.000000
_cell_angle_beta 90.000000
_cell_angle_gamma 120.000000
_cell_volume 1793.406104
_symmetry_space_group_name_H-M "P 32 1 2"
_symmetry_group_IT_number 153
_symmetry_cell_setting 'hexagonal'
loop_
_space_group_symop_operation_xyz
x,y,z
-y,x-y,2/3+z
-x+y,-x,1/3+z
-y,-x,1/3-z
-x+y,y,2/3-z
x,x-y,-z
loop_
_atom_site_type_symbol
_atom_site_label
_atom_site_fract_x
_atom_site_fract_y
_atom_site_fract_z
Si Si1 0.365221 0.165984 0.712518
Si Si2 0.242988 0.835426 0.333529
Si Si3 0.228175 0.252730 0.559362
Si Si4 0.136713 0.261445 0.445045
Si Si5 0.015916 0.552205 0.713549
Si Si6 0.713016 0.311836 0.108960
O O1 0.260859 0.261671 0.697273
O O2 0.377224 0.059143 0.664318
O O3 0.555053 0.294218 0.730895
O O4 0.274286 0.047882 0.762320
O O5 0.422878 0.845756 0.333334
O O6 0.187247 0.843385 0.393138
O O7 0.102562 0.656452 0.307981
O O8 0.156546 0.295792 0.507264
O O9 0.428301 0.323587 0.550697
O O10 0.142483 0.051431 0.570049
O O11 0.279728 0.428296 0.413181
O O12 0.867815 0.430644 0.753829
O O13 0.656781 0.343220 0.166667
#
# Coordination Sequence:
#
# PCOD8322266 Si02
#       6
#     6   6   6   6   6   6
#     4  12  23  41  65  97 132 165 219 280 327 391
#     4  12  23  40  69 101 128 171 222 278 325 392
#     4  10  20  42  67  87 126 175 214 254 329 392
#     4  10  21  42  65  89 128 177 209 263 330 393
#     4  11  23  42  67  95 129 173 221 262 334 398
#     4  11  21  45  69  89 128 179 213 268 337 392
#
# _framework density 20.073533000000001
#
# number of rings (size 3 to 8) (size 9 to 14) (size 15 to 20)
#    0.000    1.000    8.333    2.000    0.000    1.333 
#   12.000    4.167    0.000    0.000    0.000    0.000 
#    0.000    0.000    0.000    0.000    0.000    0.000 
#
# Total GULP energy -446374.150103 kJ/mol
# GULP energy per Si atom -12399.281947 kJ/mol
# Density = 2.002785 g / cm^3
# Si number density = 20.073533 Si / 1000 Ang^3
#
#
#
# Elastic Constant Matrix: (Units=GPa)
#
#
# Indices 1 2 3 4 5 6 
#
# 1 87.8688 39.4831 48.6958 0.0003 -1.9207 0.0000
# 2 39.4831 87.8688 48.6958 -0.0003 1.9207 0.0000
# 3 48.6958 48.6958 144.5266 0.0000 0.0000 0.0000
# 4 0.0003 -0.0003 0.0000 15.0064 0.0000 1.9207
# 5 -1.9207 1.9207 0.0000 0.0000 15.0064 0.0003
# 6 0.0000 0.0000 0.0000 1.9207 0.0003 24.1928
#
#
#
# Elastic Compliance Matrix: (Units=1/GPa)
#
#
# Indices 1 2 3 4 5 6 
#
# 1 0.015729 -0.005151 -0.003564 0.000000 0.002672 0.000000
# 2 -0.005151 0.015729 -0.003564 0.000000 -0.002672 0.000000
# 3 -0.003564 -0.003564 0.009321 0.000000 0.000000 0.000000
# 4 0.000000 0.000000 0.000000 0.067322 0.000000 -0.005345
# 5 0.002672 -0.002672 0.000000 0.000000 0.067322 -0.000001
# 6 0.000000 0.000000 0.000000 -0.005345 -0.000001 0.041759
#
#
# Mechanical properties :
#
#
# Convention : Reuss Voigt Hill
#
# Bulk Modulus (GPa) = 61.65082 66.00149 63.82615
# Shear Modulus (GPa) = 20.23093 23.06709 21.64901
#
# Velocity S-wave (km/s) = 3.17809 3.39356 3.28759
# Velocity P-wave (km/s) = 6.65178 6.95027 6.80266
#
# Compressibility (1/GPa) = 0.01622038
#
# Stress axis : x y z
#
# Youngs Moduli (GPa) = 63.57832 63.57832 107.28684
#
# Poissons Ratio (x) = 0.32748 0.38237
# Poissons Ratio (y) = 0.32748 0.38237
# Poissons Ratio (z) = 0.22659 0.22659
#
# Static dielectric constant tensor:
#      x y z
#    x 3.692320 0.000000 0.000000 
#    y 0.000000 3.692320 0.000000 
#    z 0.000000 0.000000 3.920990 
# 
# 
# High freq. dielectric constant tensor:
#      x y z
#    x 1.771120 0.000000 0.000000 
#    y 0.000000 1.771120 0.000000 
#    z 0.000000 0.000000 1.802330 
# 
# From -- ./inp_files/4735.got.cif
#   From: 2010.03.12/outbox.cif.g09.slc.cpg/sg153_3_cif.got.tgz:4735.got - 2010.04.03 13:48:33.
