data_PCOD8322495
_publ_section_title
;
Structure prediction by ZEFSAII (Michael W. Deem and Ramdas Pophale) SiO2 
 PCOD8322495
Probable space group: R 3 2
;
_chemical_formula_sum "Si O2"
_cell_formula_units_Z 108
_cell_length_a 23.003186
_cell_length_b 23.003186
_cell_length_c 12.419187
_cell_angle_alpha 90.000000
_cell_angle_beta 90.000000
_cell_angle_gamma 120.000000
_cell_volume 5691.146697
_symmetry_space_group_name_H-M "R 3 2"
_symmetry_group_IT_number 155
_symmetry_cell_setting 'hexagonal'
loop_
_space_group_symop_operation_xyz
x,y,z
-y,x-y,z
-x+y,-x,z
x-y,-y,-z
-x,-x+y,-z
y,x,-z
2/3+x,1/3+y,1/3+z
2/3-y,1/3+x-y,1/3+z
2/3-x+y,1/3-x,1/3+z
2/3+x-y,1/3-y,1/3-z
2/3-x,1/3-x+y,1/3-z
2/3+y,1/3+x,1/3-z
1/3+x,2/3+y,2/3+z
1/3-y,2/3+x-y,2/3+z
1/3-x+y,2/3-x,2/3+z
1/3+x-y,2/3-y,2/3-z
1/3-x,2/3-x+y,2/3-z
1/3+y,2/3+x,2/3-z
loop_
_atom_site_type_symbol
_atom_site_label
_atom_site_fract_x
_atom_site_fract_y
_atom_site_fract_z
Si Si1 0.411761 0.820849 0.645200
Si Si2 0.263637 0.300824 0.221096
Si Si3 0.590606 0.828143 0.874930
Si Si4 0.529083 0.606858 0.022761
Si Si5 0.819856 0.728887 0.407575
Si Si6 0.470369 0.540685 0.813948
O O1 0.333334 0.792547 0.666667
O O2 0.427765 0.761098 0.666667
O O3 0.439033 0.863925 0.534114
O O4 0.451224 0.871258 0.739182
O O5 0.333334 0.347977 0.166667
O O6 0.267214 0.333334 0.333334
O O7 0.245855 0.224069 0.221270
O O8 0.205885 0.307835 0.162079
O O9 0.666667 0.852115 0.833334
O O10 0.582292 0.797981 0.994565
O O11 0.578138 0.686096 0.019004
O O12 0.490583 0.583598 0.138010
O O13 0.574804 0.574804 0.000000
O O14 0.476525 0.581680 0.923817
O O15 0.773624 0.647757 0.422129
#
# Coordination Sequence:
#
# PCOD8322495 Si02
#       6
#    18  18  18  18  18  18
#     4  12  25  43  64  88 125 173 223 274 318 382
#     4  11  23  35  60  90 127 165 199 256 325 391
#     4  11  22  38  61  90 125 161 208 262 324 392
#     4   9  20  36  56  83 120 157 200 252 308 379
#     4  10  19  36  57  83 119 157 201 250 308 380
#     4  11  21  39  60  88 126 159 209 257 320 381
#
# _framework density 18.976842999999999
#
# number of rings (size 3 to 8) (size 9 to 14) (size 15 to 20)
#    0.000    1.333    3.333    3.667    2.333    0.667 
#    6.000    0.000    0.000    0.000    0.000    0.000 
#    0.000    0.000    0.000    0.000    0.000    0.000 
#
# Total GULP energy -446071.423432 kJ/mol
# GULP energy per Si atom -12390.872873 kJ/mol
# Density = 1.893365 g / cm^3
# Si number density = 18.976843 Si / 1000 Ang^3
#
#
#
# Elastic Constant Matrix: (Units=GPa)
#
#
# Indices 1 2 3 4 5 6 
#
# 1 89.2760 16.6277 38.8269 -10.1741 0.0016 0.0000
# 2 16.6277 89.2760 38.8268 10.1740 -0.0016 0.0000
# 3 38.8269 38.8268 112.5415 -0.0001 -0.0001 0.0000
# 4 -10.1741 10.1740 -0.0001 42.0090 -0.0001 -0.0016
# 5 0.0016 -0.0016 -0.0001 -0.0001 42.0091 -10.1742
# 6 0.0000 0.0000 0.0000 -0.0016 -10.1742 36.3243
#
#
#
# Elastic Compliance Matrix: (Units=1/GPa)
#
#
# Indices 1 2 3 4 5 6 
#
# 1 0.013703 -0.001063 -0.004361 0.003576 -0.000001 0.000000
# 2 -0.001063 0.013703 -0.004361 -0.003576 0.000001 0.000000
# 3 -0.004361 -0.004361 0.011895 0.000000 0.000000 0.000000
# 4 0.003576 -0.003576 0.000000 0.025537 0.000000 0.000001
# 5 -0.000001 0.000001 0.000000 0.000000 0.025537 0.007153
# 6 0.000000 0.000000 0.000000 0.000001 0.007153 0.029533
#
#
# Mechanical properties :
#
#
# Convention : Reuss Voigt Hill
#
# Bulk Modulus (GPa) = 50.68049 53.29515 51.98782
# Shear Modulus (GPa) = 34.23372 37.18931 35.71151
#
# Velocity S-wave (km/s) = 4.25193 4.43168 4.34273
# Velocity P-wave (km/s) = 7.13230 7.37100 7.25263
#
# Compressibility (1/GPa) = 0.01973146
#
# Stress axis : x y z
#
# Youngs Moduli (GPa) = 72.97475 72.97474 84.07180
#
# Poissons Ratio (x) = 0.07759 0.36662
# Poissons Ratio (y) = 0.07759 0.36662
# Poissons Ratio (z) = 0.31823 0.31823
#
# Static dielectric constant tensor:
#      x y z
#    x 3.378810 0.000000 0.000000 
#    y 0.000000 3.378810 0.000000 
#    z 0.000000 0.000000 3.877500 
# 
# 
# High freq. dielectric constant tensor:
#      x y z
#    x 1.729820 0.000000 0.000000 
#    y 0.000000 1.729820 0.000000 
#    z 0.000000 0.000000 1.754310 
# 
# From -- ./inp_files/4061.got.cif
#   From: 2010.03.12/outbox.cif.g09.slc.cpg/sg155_3_cif.got.tgz:4061.got - 2010.04.03 13:54:13.
