data_PCOD8322021
_publ_section_title
;
Structure prediction by ZEFSAII (Michael W. Deem and Ramdas Pophale) SiO2 
 PCOD8322021
Probable space group: P 31 2 1
;
_chemical_formula_sum "Si O2"
_cell_formula_units_Z 42
_cell_length_a 14.833087
_cell_length_b 14.833087
_cell_length_c 11.428486
_cell_angle_alpha 90.000000
_cell_angle_beta 90.000000
_cell_angle_gamma 120.000000
_cell_volume 2177.621623
_symmetry_space_group_name_H-M "P 31 2 1"
_symmetry_group_IT_number 152
_symmetry_cell_setting 'hexagonal'
loop_
_space_group_symop_operation_xyz
x,y,z
-y,x-y,1/3+z
-x+y,-x,2/3+z
x-y,-y,2/3-z
-x,-x+y,1/3-z
y,x,-z
loop_
_atom_site_type_symbol
_atom_site_label
_atom_site_fract_x
_atom_site_fract_y
_atom_site_fract_z
Si Si1 0.562067 0.862341 0.492817
Si Si2 0.758307 0.000000 0.333334
Si Si3 0.827575 0.382312 0.668456
Si Si4 0.497328 0.821865 0.103398
Si Si5 0.191435 0.878403 0.535363
Si Si6 0.417324 0.441209 0.375368
Si Si7 0.674342 0.580105 0.577684
Si Si8 0.000000 0.321305 0.666667
O O1 0.465429 0.870137 0.438084
O O2 0.579007 0.899206 0.627792
O O3 0.542158 0.745640 0.488263
O O4 0.665106 0.938229 0.422693
O O5 0.862176 0.084815 0.403538
O O6 0.716217 0.284892 0.634357
O O7 0.812219 0.434269 0.781072
O O8 0.903808 0.337680 0.696519
O O9 0.609522 0.840288 0.140392
O O10 0.509303 0.916733 0.025555
O O11 0.281200 0.907157 0.629271
O O12 0.239829 0.971222 0.440592
O O13 0.379444 0.379444 0.500000
O O14 0.480080 0.562476 0.405957
O O15 0.667413 0.667413 0.500000
#
# Coordination Sequence:
#
# PCOD8322021 Si02
#       8
#     6   3   6   6   6   6   6   3
#     4  11  20  38  64  83 123 170 210 257 310 373
#     4  10  17  34  68  86 111 162 220 241 298 394
#     4  11  21  35  60  88 121 168 213 257 311 378
#     4  11  21  37  56  86 121 166 212 254 310 369
#     4  10  19  37  59  89 114 160 211 252 316 380
#     4  11  23  41  55  84 127 163 211 264 311 368
#     4  10  22  39  56  87 121 162 213 258 313 372
#     4  10  21  34  58  88 131 158 206 265 316 364
#
# _framework density 19.287098
#
# number of rings (size 3 to 8) (size 9 to 14) (size 15 to 20)
#    0.000    1.429    4.286    3.857    0.000    2.286 
#   10.286    0.000    0.000    0.000    0.000   16.000 
#    0.000    0.000    0.000    0.000    0.000    0.000 
#
# Total GULP energy -520718.905131 kJ/mol
# GULP energy per Si atom -12398.069170 kJ/mol
# Density = 1.924320 g / cm^3
# Si number density = 19.287098 Si / 1000 Ang^3
#
#
#
# Elastic Constant Matrix: (Units=GPa)
#
#
# Indices 1 2 3 4 5 6 
#
# 1 78.5864 32.3291 51.1906 -3.4538 0.0001 0.0000
# 2 32.3291 78.5864 51.1906 3.4538 -0.0001 0.0000
# 3 51.1906 51.1906 138.2277 0.0000 0.0000 0.0000
# 4 -3.4538 3.4538 0.0000 30.9967 0.0000 -0.0001
# 5 0.0001 -0.0001 0.0000 0.0000 30.9967 -3.4538
# 6 0.0000 0.0000 0.0000 -0.0001 -3.4538 23.1286
#
#
#
# Elastic Compliance Matrix: (Units=1/GPa)
#
#
# Indices 1 2 3 4 5 6 
#
# 1 0.017841 -0.004143 -0.005073 0.002450 0.000000 0.000000
# 2 -0.004143 0.017841 -0.005073 -0.002450 0.000000 0.000000
# 3 -0.005073 -0.005073 0.010992 0.000000 0.000000 0.000000
# 4 0.002450 -0.002450 0.000000 0.032807 0.000000 0.000000
# 5 0.000000 0.000000 0.000000 0.000000 0.032807 0.004899
# 6 0.000000 0.000000 0.000000 0.000000 0.004899 0.043968
#
#
# Mechanical properties :
#
#
# Convention : Reuss Voigt Hill
#
# Bulk Modulus (GPa) = 55.25832 62.75791 59.00811
# Shear Modulus (GPa) = 26.19620 27.73707 26.96664
#
# Velocity S-wave (km/s) = 3.68941 3.79636 3.74327
# Velocity P-wave (km/s) = 6.84555 7.19902 7.02451
#
# Compressibility (1/GPa) = 0.01809682
#
# Stress axis : x y z
#
# Youngs Moduli (GPa) = 56.04967 56.04967 90.97585
#
# Poissons Ratio (x) = 0.23220 0.46153
# Poissons Ratio (y) = 0.23220 0.46153
# Poissons Ratio (z) = 0.28434 0.28434
#
# Static dielectric constant tensor:
#      x y z
#    x 3.620220 0.000000 0.000000 
#    y 0.000000 3.620220 0.000000 
#    z 0.000000 0.000000 3.957640 
# 
# 
# High freq. dielectric constant tensor:
#      x y z
#    x 1.732610 0.000000 0.000000 
#    y 0.000000 1.732610 0.000000 
#    z 0.000000 0.000000 1.764130 
# 
# From -- ./inp_files/1833.got.cif
#   From: 2010.03.12/outbox.cif.g09.slc.cpg/sg152_1_cif.got.tgz:1833.got - 2010.04.03 13:45:27.
