data_PCOD8322428
_publ_section_title
;
Structure prediction by ZEFSAII (Michael W. Deem and Ramdas Pophale) SiO2 
 PCOD8322428
Probable space group: P 32 2 1
;
_chemical_formula_sum "Si O2"
_cell_formula_units_Z 42
_cell_length_a 14.630689
_cell_length_b 14.630689
_cell_length_c 11.038073
_cell_angle_alpha 90.000000
_cell_angle_beta 90.000000
_cell_angle_gamma 120.000000
_cell_volume 2046.225305
_symmetry_space_group_name_H-M "P 32 2 1"
_symmetry_group_IT_number 154
_symmetry_cell_setting 'hexagonal'
loop_
_space_group_symop_operation_xyz
x,y,z
-y,x-y,2/3+z
-x+y,-x,1/3+z
x-y,-y,1/3-z
-x,-x+y,2/3-z
y,x,-z
loop_
_atom_site_type_symbol
_atom_site_label
_atom_site_fract_x
_atom_site_fract_y
_atom_site_fract_z
Si Si1 0.595956 0.837973 0.475337
Si Si2 0.258116 0.330270 0.195943
Si Si3 0.887643 0.446226 0.193114
Si Si4 0.735506 0.628151 0.748698
Si Si5 0.131913 0.551151 0.205274
Si Si6 0.742645 0.612570 0.289331
Si Si7 0.794804 0.902254 0.074947
O O1 0.637256 0.819028 0.350020
O O2 0.485033 0.832752 0.453317
O O3 0.577629 0.752548 0.576635
O O4 0.679103 0.954466 0.524795
O O5 0.339707 0.457892 0.206798
O O6 0.164801 0.307643 0.101494
O O7 0.207910 0.274397 0.322765
O O8 0.840581 0.336845 0.117188
O O9 0.827783 0.417404 0.323596
O O10 0.007418 0.476810 0.213091
O O11 0.664067 0.670615 0.690031
O O12 0.797771 0.705948 0.858866
O O13 0.178227 0.484886 0.139848
O O14 0.865025 0.000000 0.166667
O O15 0.872633 0.872633 0.000000
#
# Coordination Sequence:
#
# PCOD8322428 Si02
#       7
#     6   6   6   6   6   6   6
#     4  11  22  41  61  96 134 167 216 277 338 406
#     4  11  21  41  69  92 128 177 228 278 333 410
#     4   9  19  38  63  88 112 167 217 260 326 399
#     4  11  23  41  65  95 136 172 221 276 346 409
#     4   9  19  37  61  85 118 156 214 263 313 396
#     4  11  21  39  66  93 128 175 216 272 334 407
#     4  12  25  47  67 101 142 190 243 287 337 408
#
# _framework density 20.525597999999999
#
# number of rings (size 3 to 8) (size 9 to 14) (size 15 to 20)
#    0.000    1.429    4.286    1.714    2.000    0.000 
#    7.714    0.000    0.000    0.000    0.000    0.000 
#    0.000    0.000    0.000    0.000    0.000    0.000 
#
# Total GULP energy -520491.883858 kJ/mol
# GULP energy per Si atom -12392.663901 kJ/mol
# Density = 2.047888 g / cm^3
# Si number density = 20.525598 Si / 1000 Ang^3
#
#
#
# Elastic Constant Matrix: (Units=GPa)
#
#
# Indices 1 2 3 4 5 6 
#
# 1 87.2339 33.3163 37.4930 1.9613 0.0000 0.0000
# 2 33.3163 87.2339 37.4930 -1.9613 0.0000 0.0000
# 3 37.4930 37.4930 94.0041 0.0000 0.0000 0.0000
# 4 1.9613 -1.9613 0.0000 35.7175 0.0000 0.0000
# 5 0.0000 0.0000 0.0000 0.0000 35.7175 1.9613
# 6 0.0000 0.0000 0.0000 0.0000 1.9613 26.9588
#
#
#
# Elastic Compliance Matrix: (Units=1/GPa)
#
#
# Indices 1 2 3 4 5 6 
#
# 1 0.014827 -0.003794 -0.004400 -0.001023 0.000000 0.000000
# 2 -0.003794 0.014827 -0.004400 0.001023 0.000000 0.000000
# 3 -0.004400 -0.004400 0.014148 0.000000 0.000000 0.000000
# 4 -0.001023 0.001023 0.000000 0.028110 0.000000 0.000000
# 5 0.000000 0.000000 0.000000 0.000000 0.028110 -0.002045
# 6 0.000000 0.000000 0.000000 0.000000 -0.002045 0.037242
#
#
# Mechanical properties :
#
#
# Convention : Reuss Voigt Hill
#
# Bulk Modulus (GPa) = 53.72948 53.89741 53.81345
# Shear Modulus (GPa) = 29.64598 30.35672 30.00135
#
# Velocity S-wave (km/s) = 3.80457 3.84991 3.82731
# Velocity P-wave (km/s) = 6.74784 6.78808 6.76799
#
# Compressibility (1/GPa) = 0.01861175
#
# Stress axis : x y z
#
# Youngs Moduli (GPa) = 67.44555 67.44555 70.68220
#
# Poissons Ratio (x) = 0.25592 0.31102
# Poissons Ratio (y) = 0.25592 0.31102
# Poissons Ratio (z) = 0.29677 0.29677
#
# Static dielectric constant tensor:
#      x y z
#    x 3.713870 0.000000 0.000000 
#    y 0.000000 3.713870 0.000000 
#    z 0.000000 0.000000 3.684960 
# 
# 
# High freq. dielectric constant tensor:
#      x y z
#    x 1.799210 0.000000 0.000000 
#    y 0.000000 1.799210 0.000000 
#    z 0.000000 0.000000 1.794860 
# 
# From -- ./inp_files/1732.got.cif
#   From: 2010.03.12/outbox.cif.g09.slc.cpg/sg154_1_cif.got.tgz:1732.got - 2010.04.03 13:51:21.
