data_PCOD8322609
_publ_section_title
;
Structure prediction by ZEFSAII (Michael W. Deem and Ramdas Pophale) SiO2 
 PCOD8322609
Probable space group: R 3 2
;
_chemical_formula_sum "Si O2"
_cell_formula_units_Z 54
_cell_length_a 13.719036
_cell_length_b 13.719036
_cell_length_c 13.677945
_cell_angle_alpha 90.000000
_cell_angle_beta 90.000000
_cell_angle_gamma 120.000000
_cell_volume 2229.454822
_symmetry_space_group_name_H-M "R 3 2"
_symmetry_group_IT_number 155
_symmetry_cell_setting 'hexagonal'
loop_
_space_group_symop_operation_xyz
x,y,z
-y,x-y,z
-x+y,-x,z
x-y,-y,-z
-x,-x+y,-z
y,x,-z
2/3+x,1/3+y,1/3+z
2/3-y,1/3+x-y,1/3+z
2/3-x+y,1/3-x,1/3+z
2/3+x-y,1/3-y,1/3-z
2/3-x,1/3-x+y,1/3-z
2/3+y,1/3+x,1/3-z
1/3+x,2/3+y,2/3+z
1/3-y,2/3+x-y,2/3+z
1/3-x+y,2/3-x,2/3+z
1/3+x-y,2/3-y,2/3-z
1/3-x,2/3-x+y,2/3-z
1/3+y,2/3+x,2/3-z
loop_
_atom_site_type_symbol
_atom_site_label
_atom_site_fract_x
_atom_site_fract_y
_atom_site_fract_z
Si Si1 0.875239 0.000092 0.393127
Si Si2 0.001519 0.216631 0.884875
Si Si3 0.335541 0.458565 0.857072
O O1 0.889508 0.889513 0.383438
O O2 0.823634 0.000000 0.500000
O O3 0.795574 0.999678 0.308332
O O4 0.033243 0.333334 0.833334
O O5 0.090259 0.176808 0.856334
O O6 0.877123 0.124722 0.850948
O O7 0.000000 0.232109 0.000000
O O8 0.306226 0.333334 0.833334
#
# Coordination Sequence:
#
# PCOD8322609 Si02
#       3
#    18  18  18
#     4   8  14  30  61 106 155 192 239 309 385 447
#     4  11  24  46  72 105 146 194 246 310 384 452
#     4  11  21  40  75 114 148 192 251 311 382 455
#
# _framework density 24.221167999999999
#
# number of rings (size 3 to 8) (size 9 to 14) (size 15 to 20)
#    0.667    1.333    3.333    1.667    0.000    0.000 
#    0.000   15.000    0.000    0.667    0.000    0.000 
#    0.000    0.000    0.000    0.000    0.000    0.000 
#
# Total GULP energy -223181.490007 kJ/mol
# GULP energy per Si atom -12398.971667 kJ/mol
# Density = 2.416604 g / cm^3
# Si number density = 24.221168 Si / 1000 Ang^3
#
#
#
# Elastic Constant Matrix: (Units=GPa)
#
#
# Indices 1 2 3 4 5 6 
#
# 1 141.8034 74.4313 77.9341 -2.3092 -0.0003 0.0000
# 2 74.4313 141.8034 77.9341 2.3092 0.0003 0.0000
# 3 77.9341 77.9341 283.7294 0.0000 0.0000 0.0000
# 4 -2.3092 2.3092 0.0000 27.6472 0.0000 0.0003
# 5 -0.0003 0.0003 0.0000 0.0000 27.6472 -2.3092
# 6 0.0000 0.0000 0.0000 0.0003 -2.3092 33.6861
#
#
#
# Elastic Compliance Matrix: (Units=1/GPa)
#
#
# Indices 1 2 3 4 5 6 
#
# 1 0.010347 -0.004581 -0.001584 0.001247 0.000000 0.000000
# 2 -0.004581 0.010347 -0.001584 -0.001247 0.000000 0.000000
# 3 -0.001584 -0.001584 0.004395 0.000000 0.000000 0.000000
# 4 0.001247 -0.001247 0.000000 0.036378 0.000000 0.000000
# 5 0.000000 0.000000 0.000000 0.000000 0.036378 0.002494
# 6 0.000000 0.000000 0.000000 0.000000 0.002494 0.029857
#
#
# Mechanical properties :
#
#
# Convention : Reuss Voigt Hill
#
# Bulk Modulus (GPa) = 104.25674 114.21506 109.23590
# Shear Modulus (GPa) = 34.15355 40.26520 37.20938
#
# Velocity S-wave (km/s) = 3.75916 4.08167 3.92373
# Velocity P-wave (km/s) = 7.87266 8.33492 8.10709
#
# Compressibility (1/GPa) = 0.00959171
#
# Stress axis : x y z
#
# Youngs Moduli (GPa) = 96.64304 96.64304 227.55225
#
# Poissons Ratio (x) = 0.44273 0.36041
# Poissons Ratio (y) = 0.44273 0.36041
# Poissons Ratio (z) = 0.15307 0.15307
#
# Static dielectric constant tensor:
#      x y z
#    x 4.120130 0.000000 0.000000 
#    y 0.000000 4.120130 0.000000 
#    z 0.000000 0.000000 4.438030 
# 
# 
# High freq. dielectric constant tensor:
#      x y z
#    x 1.951430 0.000000 0.000000 
#    y 0.000000 1.951430 0.000000 
#    z 0.000000 0.000000 1.980630 
# 
# From -- ./inp_files/4655.got.cif
#   From: 2010.03.12/outbox.cif.g09.slc.cpg/sg155_3_cif.got.tgz:4655.got - 2010.04.03 13:54:13.
