data_PCOD8322313
_publ_section_title
;
Structure prediction by ZEFSAII (Michael W. Deem and Ramdas Pophale) SiO2 
 PCOD8322313
Probable space group: P 32 2 1
;
_chemical_formula_sum "Si O2"
_cell_formula_units_Z 33
_cell_length_a 19.994073
_cell_length_b 19.994073
_cell_length_c 5.028131
_cell_angle_alpha 90.000000
_cell_angle_beta 90.000000
_cell_angle_gamma 120.000000
_cell_volume 1740.763462
_symmetry_space_group_name_H-M "P 32 2 1"
_symmetry_group_IT_number 154
_symmetry_cell_setting 'hexagonal'
loop_
_space_group_symop_operation_xyz
x,y,z
-y,x-y,2/3+z
-x+y,-x,1/3+z
x-y,-y,1/3-z
-x,-x+y,2/3-z
y,x,-z
loop_
_atom_site_type_symbol
_atom_site_label
_atom_site_fract_x
_atom_site_fract_y
_atom_site_fract_z
Si Si1 0.299530 0.910501 0.115756
Si Si2 0.249739 0.716956 0.660726
Si Si3 0.155343 0.207502 0.244581
Si Si4 0.201725 0.836462 0.600808
Si Si5 0.346273 0.790652 0.160682
Si Si6 0.074985 0.000000 0.666667
O O1 0.227723 0.877116 0.316028
O O2 0.354848 0.874935 0.185062
O O3 0.352141 0.000000 0.166667
O O4 0.264673 0.891091 0.819192
O O5 0.195381 0.752371 0.583309
O O6 0.319898 0.744997 0.444753
O O7 0.200759 0.624560 0.695367
O O8 0.278047 0.743440 0.956918
O O9 0.177166 0.177166 0.500000
O O10 0.176013 0.293648 0.317253
O O11 0.062651 0.152882 0.178729
O O12 0.206013 0.206013 0.000000
O O13 0.000000 0.945598 0.833334
#
# Coordination Sequence:
#
# PCOD8322313 Si02
#       6
#     6   6   6   6   6   3
#     4  10  21  36  55  80 113 142 190 228 274 335
#     4  10  19  33  55  82 113 138 187 223 279 327
#     4  11  23  38  58  79 110 143 183 225 280 332
#     4  10  22  38  55  83 110 150 184 232 276 339
#     4  10  19  32  54  82 109 144 176 233 273 322
#     4  10  20  36  52  78 106 130 176 226 270 312
#
# _framework density 18.957198999999999
#
# number of rings (size 3 to 8) (size 9 to 14) (size 15 to 20)
#    0.000    1.818    0.909    3.818    2.545    0.000 
#    0.000    0.909    0.000    4.364    0.000    0.000 
#    0.000    0.000    0.000    0.000    0.000    0.000 
#
# Total GULP energy -408979.597558 kJ/mol
# GULP energy per Si atom -12393.321138 kJ/mol
# Density = 1.891405 g / cm^3
# Si number density = 18.957199 Si / 1000 Ang^3
#
#
#
# Elastic Constant Matrix: (Units=GPa)
#
#
# Indices 1 2 3 4 5 6 
#
# 1 109.7915 62.1458 17.3529 3.3598 0.0000 0.0000
# 2 62.1458 109.7915 17.3529 -3.3598 0.0000 0.0000
# 3 17.3529 17.3529 81.9254 0.0000 0.0000 0.0000
# 4 3.3598 -3.3598 0.0000 25.7215 0.0000 0.0000
# 5 0.0000 0.0000 0.0000 0.0000 25.7215 3.3598
# 6 0.0000 0.0000 0.0000 0.0000 3.3598 23.8228
#
#
#
# Elastic Compliance Matrix: (Units=1/GPa)
#
#
# Indices 1 2 3 4 5 6 
#
# 1 0.013729 -0.007653 -0.001287 -0.002793 0.000000 0.000000
# 2 -0.007653 0.013729 -0.001287 0.002793 0.000000 0.000000
# 3 -0.001287 -0.001287 0.012751 0.000000 0.000000 0.000000
# 4 -0.002793 0.002793 0.000000 0.039608 0.000000 0.000000
# 5 0.000000 0.000000 0.000000 0.000000 0.039608 -0.005586
# 6 0.000000 0.000000 0.000000 0.000000 -0.005586 0.042764
#
#
# Mechanical properties :
#
#
# Convention : Reuss Voigt Hill
#
# Bulk Modulus (GPa) = 50.61926 55.02350 52.82138
# Shear Modulus (GPa) = 26.42312 28.69696 27.56004
#
# Velocity S-wave (km/s) = 3.73745 3.89495 3.81701
# Velocity P-wave (km/s) = 6.73681 7.02251 6.88114
#
# Compressibility (1/GPa) = 0.01975532
#
# Stress axis : x y z
#
# Youngs Moduli (GPa) = 72.83846 72.83846 78.42264
#
# Poissons Ratio (x) = 0.55744 0.10093
# Poissons Ratio (y) = 0.55744 0.10093
# Poissons Ratio (z) = 0.09374 0.09374
#
# Static dielectric constant tensor:
#      x y z
#    x 3.621040 0.000000 0.000000 
#    y 0.000000 3.621040 0.000000 
#    z 0.000000 0.000000 3.361400 
# 
# 
# High freq. dielectric constant tensor:
#      x y z
#    x 1.723280 0.000000 0.000000 
#    y 0.000000 1.723280 0.000000 
#    z 0.000000 0.000000 1.753640 
# 
# From -- ./inp_files/457.got.cif
#   From: 2010.03.12/outbox.cif.g09.slc.cpg/sg154_1_cif.got.tgz:457.got - 2010.04.03 13:51:21.
