data_PCOD8322819
_publ_section_title
;
Structure prediction by ZEFSAII (Michael W. Deem and Ramdas Pophale) SiO2 
 PCOD8322819
Probable space group: P 3 1 C
;
_chemical_formula_sum "Si O2"
_cell_formula_units_Z 40
_cell_length_a 14.160979
_cell_length_b 14.160979
_cell_length_c 11.844779
_cell_angle_alpha 90.000000
_cell_angle_beta 90.000000
_cell_angle_gamma 120.000000
_cell_volume 2057.046700
_symmetry_space_group_name_H-M "P 3 1 C"
_symmetry_group_IT_number 159
_symmetry_cell_setting 'hexagonal'
loop_
_space_group_symop_operation_xyz
x,y,z
-y,x-y,z
-x+y,-x,z
y,x,1/2+z
x-y,-y,1/2+z
-x,-x+y,1/2+z
loop_
_atom_site_type_symbol
_atom_site_label
_atom_site_fract_x
_atom_site_fract_y
_atom_site_fract_z
Si Si1 0.236512 0.435854 0.342750
Si Si2 0.354404 0.185848 0.182912
Si Si3 0.056961 0.386428 0.511836
Si Si4 0.902709 0.519375 0.047946
Si Si5 0.414863 0.180211 0.437837
Si Si6 0.333334 0.666667 0.983619
Si Si7 0.733888 0.065027 0.625888
Si Si8 0.333335 0.666668 0.250676
O O1 0.122383 0.373861 0.407890
O O2 0.337025 0.453459 0.420571
O O3 0.228909 0.362148 0.238955
O O4 0.249697 0.547921 0.296702
O O5 0.326119 0.072751 0.120685
O O6 0.468880 0.285749 0.131059
O O7 0.365782 0.174443 0.314981
O O8 0.258854 0.214082 0.149995
O O9 0.110825 0.512007 0.550785
O O10 0.933250 0.339750 0.473909
O O11 0.025017 0.608022 0.090383
O O12 0.541646 0.273139 0.440875
O O13 0.333722 0.194954 0.522081
O O14 0.333334 0.666667 0.117215
#
# Coordination Sequence:
#
# PCOD8322819 Si02
#       8
#     6   6   6   6   6   2   6   2
#     4  11  21  38  62  88 125 173 213 261 313 393
#     4   9  25  41  63  91 124 177 211 259 328 379
#     4  11  24  39  64  97 125 167 225 268 317 393
#     4   9  21  39  62  88 127 165 215 251 332 392
#     4  12  25  41  64  97 138 165 218 272 321 393
#     4  12  27  39  55 107 139 177 201 265 335 385
#     4  10  22  41  64  86 125 174 211 263 325 387
#     4  12  21  36  58  92 133 162 222 247 311 394
#
# _framework density 19.445352
#
# number of rings (size 3 to 8) (size 9 to 14) (size 15 to 20)
#    0.900    0.600    3.000    1.800    4.200    1.200 
#    0.900    0.000    0.000    0.600    3.900    0.000 
#    0.000    0.000    0.000    0.000    0.000    0.000 
#
# Total GULP energy -495664.268592 kJ/mol
# GULP energy per Si atom -12391.606715 kJ/mol
# Density = 1.940109 g / cm^3
# Si number density = 19.445352 Si / 1000 Ang^3
#
#
#
# Elastic Constant Matrix: (Units=GPa)
#
#
# Indices 1 2 3 4 5 6 
#
# 1 61.0549 19.0846 27.8668 0.0014 -1.6216 -0.0005
# 2 19.0846 61.0550 27.8672 -0.0013 1.6216 0.0005
# 3 27.8668 27.8672 138.1273 0.0011 0.0007 0.0004
# 4 0.0014 -0.0013 0.0011 32.1958 -0.0047 1.6201
# 5 -1.6216 1.6216 0.0007 -0.0047 32.2013 -0.0013
# 6 -0.0005 0.0005 0.0004 1.6201 -0.0013 20.9858
#
#
#
# Elastic Compliance Matrix: (Units=1/GPa)
#
#
# Indices 1 2 3 4 5 6 
#
# 1 0.019217 -0.004702 -0.002928 -0.000001 0.001205 0.000001
# 2 -0.004702 0.019217 -0.002928 0.000001 -0.001205 -0.000001
# 3 -0.002928 -0.002928 0.008421 0.000000 0.000000 0.000000
# 4 -0.000001 0.000001 0.000000 0.031181 0.000004 -0.002407
# 5 0.001205 -0.001205 0.000000 0.000004 0.031176 0.000002
# 6 0.000001 -0.000001 0.000000 -0.002407 0.000002 0.047837
#
#
# Mechanical properties :
#
#
# Convention : Reuss Voigt Hill
#
# Bulk Modulus (GPa) = 38.85381 45.54159 42.19770
# Shear Modulus (GPa) = 26.77422 29.43782 28.10602
#
# Velocity S-wave (km/s) = 3.71468 3.89508 3.80595
# Velocity P-wave (km/s) = 6.19862 6.61059 6.40792
#
# Compressibility (1/GPa) = 0.02573750
#
# Stress axis : x y z
#
# Youngs Moduli (GPa) = 52.03704 52.03692 118.74684
#
# Poissons Ratio (x) = 0.24469 0.34773
# Poissons Ratio (y) = 0.24469 0.34774
# Poissons Ratio (z) = 0.15238 0.15238
#
# Static dielectric constant tensor:
#      x y z
#    x 3.597710 -0.000080 0.000010 
#    y -0.000080 3.597620 0.000010 
#    z 0.000010 0.000010 3.652230 
# 
# 
# High freq. dielectric constant tensor:
#      x y z
#    x 1.737220 0.000000 0.000000 
#    y 0.000000 1.737220 0.000000 
#    z 0.000000 0.000000 1.775040 
# 
# From -- ./inp_files/695.got.cif
#   From: 2010.03.12/outbox.cif.g09.slc.cpg/sg159_cif.got.tgz:695.got - 2010.04.03 14:00:19.
