data_PCOD8322292
_publ_section_title
;
Structure prediction by ZEFSAII (Michael W. Deem and Ramdas Pophale) SiO2 
 PCOD8322292
Probable space group: P 32 1 2
;
_chemical_formula_sum "Si O2"
_cell_formula_units_Z 45
_cell_length_a 11.473191
_cell_length_b 11.473191
_cell_length_c 17.390906
_cell_angle_alpha 90.000000
_cell_angle_beta 90.000000
_cell_angle_gamma 120.000000
_cell_volume 1982.536933
_symmetry_space_group_name_H-M "P 32 1 2"
_symmetry_group_IT_number 153
_symmetry_cell_setting 'hexagonal'
loop_
_space_group_symop_operation_xyz
x,y,z
-y,x-y,2/3+z
-x+y,-x,1/3+z
-y,-x,1/3-z
-x+y,y,2/3-z
x,x-y,-z
loop_
_atom_site_type_symbol
_atom_site_label
_atom_site_fract_x
_atom_site_fract_y
_atom_site_fract_z
Si Si1 0.249566 0.004535 0.134268
Si Si2 0.969096 0.704258 0.793866
Si Si3 0.005671 0.506862 0.122082
Si Si4 0.080676 0.428103 0.657980
Si Si5 0.733886 0.776518 0.175659
Si Si6 0.229372 0.614686 0.000000
Si Si7 0.954886 0.345903 0.368011
Si Si8 0.678286 0.278325 0.414925
O O1 0.107294 0.892707 0.166667
O O2 0.273851 0.974947 0.047043
O O3 0.365673 0.003332 0.183734
O O4 0.250307 0.144434 0.138953
O O5 0.824981 0.649962 0.833334
O O6 0.018258 0.596601 0.808609
O O7 0.955228 0.701842 0.701825
O O8 0.065918 0.850907 0.830503
O O9 0.868168 0.413573 0.075707
O O10 0.136449 0.546895 0.072935
O O11 0.091229 0.376145 0.575036
O O12 0.227131 0.548104 0.683019
O O13 0.983239 0.490557 0.656809
O O14 0.651115 0.708835 0.097718
O O15 0.812423 0.269246 0.411586
O O16 0.676642 0.353283 0.333334
O O17 0.676729 0.338365 0.500000
#
# Coordination Sequence:
#
# PCOD8322292 Si02
#       8
#     6   6   6   6   6   3   6   6
#     4  12  26  47  75 108 146 198 247 316 381 459
#     4  12  27  48  75 109 145 199 251 316 382 459
#     4  12  23  47  72 107 147 185 254 312 374 459
#     4  12  27  47  75 110 151 197 252 311 384 462
#     4  12  27  49  72 107 154 195 252 306 385 466
#     4  12  26  46  78 108 150 198 252 314 378 468
#     4  12  27  47  71 108 152 194 250 309 383 460
#     4  12  25  43  74 111 149 194 247 322 385 460
#
# _framework density 22.698191000000001
#
# number of rings (size 3 to 8) (size 9 to 14) (size 15 to 20)
#    0.000    0.000    6.000    4.400    1.867    1.067 
#    2.400    2.667    0.000    0.000    0.000    0.000 
#    0.000    0.000    0.000    0.000    0.000    0.000 
#
# Total GULP energy -557860.390543 kJ/mol
# GULP energy per Si atom -12396.897568 kJ/mol
# Density = 2.264653 g / cm^3
# Si number density = 22.698191 Si / 1000 Ang^3
#
#
#
# Elastic Constant Matrix: (Units=GPa)
#
#
# Indices 1 2 3 4 5 6 
#
# 1 81.8214 31.4936 23.3851 0.0005 -1.0380 0.0000
# 2 31.4936 81.8214 23.3851 -0.0005 1.0380 0.0000
# 3 23.3851 23.3851 157.7068 0.0000 0.0000 0.0000
# 4 0.0005 -0.0005 0.0000 30.1585 0.0000 1.0380
# 5 -1.0380 1.0380 0.0000 0.0000 30.1585 0.0005
# 6 0.0000 0.0000 0.0000 1.0380 0.0005 25.1639
#
#
#
# Elastic Compliance Matrix: (Units=1/GPa)
#
#
# Indices 1 2 3 4 5 6 
#
# 1 0.014649 -0.005249 -0.001394 0.000000 0.000685 0.000000
# 2 -0.005249 0.014649 -0.001394 0.000000 -0.000685 0.000000
# 3 -0.001394 -0.001394 0.006754 0.000000 0.000000 0.000000
# 4 0.000000 0.000000 0.000000 0.033205 0.000000 -0.001370
# 5 0.000685 -0.000685 0.000000 0.000000 0.033205 -0.000001
# 6 0.000000 0.000000 0.000000 -0.001370 -0.000001 0.039796
#
#
# Mechanical properties :
#
#
# Convention : Reuss Voigt Hill
#
# Bulk Modulus (GPa) = 50.05193 53.09745 51.57469
# Shear Modulus (GPa) = 30.30452 33.30193 31.80322
#
# Velocity S-wave (km/s) = 3.65788 3.83451 3.74723
# Velocity P-wave (km/s) = 6.31973 6.56111 6.44155
#
# Compressibility (1/GPa) = 0.01997925
#
# Stress axis : x y z
#
# Youngs Moduli (GPa) = 68.26348 68.26348 148.05469
#
# Poissons Ratio (x) = 0.35830 0.20637
# Poissons Ratio (y) = 0.35830 0.20637
# Poissons Ratio (z) = 0.09515 0.09515
#
# Static dielectric constant tensor:
#      x y z
#    x 4.082940 0.000000 0.000000 
#    y 0.000000 4.082940 0.000000 
#    z 0.000000 0.000000 4.372790 
# 
# 
# High freq. dielectric constant tensor:
#      x y z
#    x 1.897480 0.000000 0.000000 
#    y 0.000000 1.897480 0.000000 
#    z 0.000000 0.000000 1.912250 
# 
# From -- ./inp_files/3624.got.cif
#   From: 2010.03.12/outbox.cif.g09.slc.cpg/sg153_2_cif.got.tgz:3624.got - 2010.04.03 13:48:33.
