data_PCOD8322283
_publ_section_title
;
Structure prediction by ZEFSAII (Michael W. Deem and Ramdas Pophale) SiO2 
 PCOD8322283
Probable space group: P 32 1 2
;
_chemical_formula_sum "Si O2"
_cell_formula_units_Z 36
_cell_length_a 8.725780
_cell_length_b 8.725780
_cell_length_c 26.948975
_cell_angle_alpha 90.000000
_cell_angle_beta 90.000000
_cell_angle_gamma 120.000000
_cell_volume 1776.975342
_symmetry_space_group_name_H-M "P 32 1 2"
_symmetry_group_IT_number 153
_symmetry_cell_setting 'hexagonal'
loop_
_space_group_symop_operation_xyz
x,y,z
-y,x-y,2/3+z
-x+y,-x,1/3+z
-y,-x,1/3-z
-x+y,y,2/3-z
x,x-y,-z
loop_
_atom_site_type_symbol
_atom_site_label
_atom_site_fract_x
_atom_site_fract_y
_atom_site_fract_z
Si Si1 0.269266 0.858857 0.858284
Si Si2 0.732855 0.504159 0.207996
Si Si3 0.942586 0.321315 0.206681
Si Si4 0.910875 0.762937 0.688613
Si Si5 0.238000 0.793391 0.362313
Si Si6 0.545054 0.112002 0.975468
O O1 0.451185 0.902369 0.833334
O O2 0.228401 0.757635 0.911229
O O3 0.130991 0.732706 0.818193
O O4 0.296313 0.061259 0.862730
O O5 0.641805 0.358196 0.166667
O O6 0.904891 0.483505 0.221570
O O7 0.586811 0.440841 0.250766
O O8 0.805145 0.194856 0.166667
O O9 0.940705 0.209381 0.254259
O O10 0.714453 0.728967 0.682289
O O11 0.939155 0.630492 0.654605
O O12 0.044009 0.955992 0.666667
O O13 0.383340 0.766680 0.333334
O O14 0.047211 0.646518 0.341549
O O15 0.586774 0.293387 0.000000
#
# Coordination Sequence:
#
# PCOD8322283 Si02
#       6
#     6   6   6   6   6   6
#     4  10  23  42  65  96 132 170 221 277 334 400
#     4   9  21  38  65  90 125 169 211 264 322 392
#     4  11  22  43  68  95 128 170 221 270 334 401
#     4  12  26  41  66  99 135 178 224 276 335 402
#     4  11  25  43  64  96 134 175 222 279 329 402
#     4  11  22  41  67  93 128 172 221 270 333 388
#
# _framework density 20.259145
#
# number of rings (size 3 to 8) (size 9 to 14) (size 15 to 20)
#    0.000    1.333    3.333    1.500    9.333    0.000 
#    0.000    0.833    0.000    0.000    0.000    0.000 
#    0.000    0.000    0.000    0.000    0.000    0.000 
#
# Total GULP energy -445975.495063 kJ/mol
# GULP energy per Si atom -12388.208196 kJ/mol
# Density = 2.021303 g / cm^3
# Si number density = 20.259145 Si / 1000 Ang^3
#
#
#
# Elastic Constant Matrix: (Units=GPa)
#
#
# Indices 1 2 3 4 5 6 
#
# 1 90.9833 21.4867 31.8478 0.0002 -2.5416 0.0000
# 2 21.4867 90.9833 31.8478 -0.0002 2.5416 0.0000
# 3 31.8478 31.8478 82.9842 0.0000 0.0000 0.0000
# 4 0.0002 -0.0002 0.0000 36.1379 0.0000 2.5416
# 5 -2.5416 2.5416 0.0000 0.0000 36.1379 0.0002
# 6 0.0000 0.0000 0.0000 2.5416 0.0002 34.7483
#
#
#
# Elastic Compliance Matrix: (Units=1/GPa)
#
#
# Indices 1 2 3 4 5 6 
#
# 1 0.012912 -0.001552 -0.004360 0.000000 0.001017 0.000000
# 2 -0.001552 0.012912 -0.004360 0.000000 -0.001017 0.000000
# 3 -0.004360 -0.004360 0.015397 0.000000 0.000000 0.000000
# 4 0.000000 0.000000 0.000000 0.027815 0.000000 -0.002035
# 5 0.001017 -0.001017 0.000000 0.000000 0.027815 0.000000
# 6 0.000000 0.000000 0.000000 -0.002035 0.000000 0.028927
#
#
# Mechanical properties :
#
#
# Convention : Reuss Voigt Hill
#
# Bulk Modulus (GPa) = 48.36019 48.36840 48.36429
# Shear Modulus (GPa) = 32.63418 33.38938 33.01178
#
# Velocity S-wave (km/s) = 4.01788 4.06410 4.04106
# Velocity P-wave (km/s) = 6.74144 6.77859 6.76004
#
# Compressibility (1/GPa) = 0.02067817
#
# Stress axis : x y z
#
# Youngs Moduli (GPa) = 77.44719 77.44719 64.94770
#
# Poissons Ratio (x) = 0.12017 0.28317
# Poissons Ratio (y) = 0.12017 0.28317
# Poissons Ratio (z) = 0.33766 0.33766
#
# Static dielectric constant tensor:
#      x y z
#    x 3.815630 0.000000 0.000000 
#    y 0.000000 3.815630 0.000000 
#    z 0.000000 0.000000 5.696360 
# 
# 
# High freq. dielectric constant tensor:
#      x y z
#    x 1.787640 0.000000 0.000000 
#    y 0.000000 1.787640 0.000000 
#    z 0.000000 0.000000 1.808460 
# 
# From -- ./inp_files/4716.got.cif
#   From: 2010.03.12/outbox.cif.g09.slc.cpg/sg153_3_cif.got.tgz:4716.got - 2010.04.03 13:48:33.
