data_PCOD8322108
_publ_section_title
;
Structure prediction by ZEFSAII (Michael W. Deem and Ramdas Pophale) SiO2 
 PCOD8322108
Probable space group: P 31 2 1
;
_chemical_formula_sum "Si O2"
_cell_formula_units_Z 39
_cell_length_a 8.546188
_cell_length_b 8.546188
_cell_length_c 30.120120
_cell_angle_alpha 90.000000
_cell_angle_beta 90.000000
_cell_angle_gamma 120.000000
_cell_volume 1905.163331
_symmetry_space_group_name_H-M "P 31 2 1"
_symmetry_group_IT_number 152
_symmetry_cell_setting 'hexagonal'
loop_
_space_group_symop_operation_xyz
x,y,z
-y,x-y,1/3+z
-x+y,-x,2/3+z
x-y,-y,2/3-z
-x,-x+y,1/3-z
y,x,-z
loop_
_atom_site_type_symbol
_atom_site_label
_atom_site_fract_x
_atom_site_fract_y
_atom_site_fract_z
Si Si1 0.509542 0.840186 0.697723
Si Si2 0.150181 0.868116 0.549787
Si Si3 0.475665 0.475665 0.500000
Si Si4 0.975452 0.484156 0.393840
Si Si5 0.777969 0.535623 0.566005
Si Si6 0.950353 0.750760 0.097580
Si Si7 0.173840 0.375974 0.781611
O O1 0.499838 0.651855 0.705329
O O2 0.496661 0.855800 0.645256
O O3 0.342686 0.841072 0.723102
O O4 0.700740 0.999507 0.716544
O O5 0.295999 0.853891 0.580698
O O6 0.165280 0.811485 0.500347
O O7 0.949659 0.736546 0.568857
O O8 0.194476 0.073270 0.548413
O O9 0.659622 0.511195 0.522520
O O10 0.416057 0.315158 0.464153
O O11 0.033353 0.648151 0.427964
O O12 0.846444 0.393812 0.562185
O O13 0.788035 0.789424 0.091625
#
# Coordination Sequence:
#
# PCOD8322108 Si02
#       7
#     6   6   3   6   6   6   6
#     4   9  22  44  59  88 118 171 201 252 310 366
#     4  11  22  40  61  94 124 161 200 263 309 370
#     4  10  20  40  56  86 126 162 192 256 300 366
#     4  10  23  42  63  84 129 157 210 253 306 375
#     4  10  24  37  61  89 125 159 213 245 312 371
#     4  10  21  39  65  85 129 159 200 254 313 363
#     4  11  22  39  62  94 121 160 203 257 313 367
#
# _framework density 20.470687999999999
#
# number of rings (size 3 to 8) (size 9 to 14) (size 15 to 20)
#    0.000    1.846    1.538    1.846    4.308    3.692 
#    5.538    6.154    0.000    0.000    0.000    0.000 
#    0.000    0.000    0.000    0.000    0.000    0.000 
#
# Total GULP energy -483737.157574 kJ/mol
# GULP energy per Si atom -12403.516861 kJ/mol
# Density = 2.042410 g / cm^3
# Si number density = 20.470688 Si / 1000 Ang^3
#
#
#
# Elastic Constant Matrix: (Units=GPa)
#
#
# Indices 1 2 3 4 5 6 
#
# 1 102.6474 28.3447 47.8966 1.4663 0.0000 0.0000
# 2 28.3447 102.6474 47.8966 -1.4663 0.0000 0.0000
# 3 47.8966 47.8966 130.4047 0.0000 0.0000 0.0000
# 4 1.4663 -1.4663 0.0000 31.1665 0.0000 0.0000
# 5 0.0000 0.0000 0.0000 0.0000 31.1665 1.4663
# 6 0.0000 0.0000 0.0000 0.0000 1.4663 37.1513
#
#
#
# Elastic Compliance Matrix: (Units=1/GPa)
#
#
# Indices 1 2 3 4 5 6 
#
# 1 0.011961 -0.001523 -0.003834 -0.000634 0.000000 0.000000
# 2 -0.001523 0.011961 -0.003834 0.000634 0.000000 0.000000
# 3 -0.003834 -0.003834 0.010485 0.000000 0.000000 0.000000
# 4 -0.000634 0.000634 0.000000 0.032145 0.000000 0.000000
# 5 0.000000 0.000000 0.000000 0.000000 0.032145 -0.001269
# 6 0.000000 0.000000 0.000000 0.000000 -0.001269 0.026967
#
#
# Mechanical properties :
#
#
# Convention : Reuss Voigt Hill
#
# Bulk Modulus (GPa) = 62.40197 64.88614 63.64406
# Shear Modulus (GPa) = 33.47043 34.00097 33.73570
#
# Velocity S-wave (km/s) = 4.04795 4.07991 4.06396
# Velocity P-wave (km/s) = 7.23862 7.34575 7.29238
#
# Compressibility (1/GPa) = 0.01602513
#
# Stress axis : x y z
#
# Youngs Moduli (GPa) = 83.60841 83.60841 95.37848
#
# Poissons Ratio (x) = 0.12733 0.36564
# Poissons Ratio (y) = 0.12733 0.36564
# Poissons Ratio (z) = 0.32052 0.32052
#
# Static dielectric constant tensor:
#      x y z
#    x 3.732430 0.000000 0.000000 
#    y 0.000000 3.732430 0.000000 
#    z 0.000000 0.000000 3.662910 
# 
# 
# High freq. dielectric constant tensor:
#      x y z
#    x 1.803080 0.000000 0.000000 
#    y 0.000000 1.803080 0.000000 
#    z 0.000000 0.000000 1.795050 
# 
# From -- ./inp_files/3635.got.cif
#   From: 2010.03.12/outbox.cif.g09.slc.cpg/sg152_2_cif.got.tgz:3635.got - 2010.04.03 13:45:27.
