data_PCOD8322133
_publ_section_title
;
Structure prediction by ZEFSAII (Michael W. Deem and Ramdas Pophale) SiO2 
 PCOD8322133
Probable space group: P 31 2 1
;
_chemical_formula_sum "Si O2"
_cell_formula_units_Z 48
_cell_length_a 12.026025
_cell_length_b 12.026025
_cell_length_c 19.023123
_cell_angle_alpha 90.000000
_cell_angle_beta 90.000000
_cell_angle_gamma 120.000000
_cell_volume 2382.630256
_symmetry_space_group_name_H-M "P 31 2 1"
_symmetry_group_IT_number 152
_symmetry_cell_setting 'hexagonal'
loop_
_space_group_symop_operation_xyz
x,y,z
-y,x-y,1/3+z
-x+y,-x,2/3+z
x-y,-y,2/3-z
-x,-x+y,1/3-z
y,x,-z
loop_
_atom_site_type_symbol
_atom_site_label
_atom_site_fract_x
_atom_site_fract_y
_atom_site_fract_z
Si Si1 0.708651 0.766354 0.149428
Si Si2 0.659223 0.578854 0.633304
Si Si3 0.030746 0.167278 0.966406
Si Si4 0.691369 0.413534 0.519940
Si Si5 0.695933 0.180847 0.591872
Si Si6 0.507139 0.881188 0.925912
Si Si7 0.950351 0.784305 0.092400
Si Si8 0.445444 0.922278 0.558465
O O1 0.776201 0.847493 0.220436
O O2 0.646827 0.833701 0.103667
O O3 0.801761 0.749332 0.094201
O O4 0.593549 0.625291 0.170099
O O5 0.755992 0.729625 0.647496
O O6 0.714971 0.522896 0.575669
O O7 0.525045 0.559877 0.606340
O O8 0.642297 0.503032 0.705862
O O9 0.132569 0.132569 0.000000
O O10 0.889075 0.039313 0.966070
O O11 0.678707 0.288364 0.554879
O O12 0.560112 0.360029 0.476615
O O13 0.816448 0.476941 0.471082
O O14 0.703636 0.210356 0.675109
O O15 0.575950 0.042890 0.580204
O O16 0.660038 0.967744 0.913735
O O17 0.000000 0.850922 0.166667
#
# Coordination Sequence:
#
# PCOD8322133 Si02
#       8
#     6   6   6   6   6   6   6   6
#     4   9  20  39  60  89 124 164 214 254 318 384
#     4  10  22  39  58  89 119 156 210 256 316 381
#     4  10  23  40  62  92 128 167 207 263 325 391
#     4  11  21  38  60  87 122 159 208 253 325 372
#     4  10  22  37  61  88 123 164 205 262 315 379
#     4  11  23  38  62  90 118 162 214 264 308 383
#     4  10  21  39  62  87 122 166 209 264 320 376
#     4   9  20  37  58  85 121 160 201 261 314 375
#
# _framework density 20.145803999999998
#
# number of rings (size 3 to 8) (size 9 to 14) (size 15 to 20)
#    0.000    2.000    0.000    2.625    3.500    6.000 
#    0.000    1.250    0.000    0.000    0.000    0.000 
#    0.000    0.000    0.000    0.000    0.000    0.000 
#
# Total GULP energy -595014.081791 kJ/mol
# GULP energy per Si atom -12396.126704 kJ/mol
# Density = 2.009995 g / cm^3
# Si number density = 20.145804 Si / 1000 Ang^3
#
#
#
# Elastic Constant Matrix: (Units=GPa)
#
#
# Indices 1 2 3 4 5 6 
#
# 1 101.8516 57.5209 45.3866 -9.3787 0.0002 0.0000
# 2 57.5209 101.8516 45.3866 9.3787 -0.0002 0.0000
# 3 45.3866 45.3866 86.7617 0.0000 0.0000 0.0000
# 4 -9.3787 9.3787 0.0000 8.6379 0.0000 -0.0002
# 5 0.0002 -0.0002 0.0000 0.0000 8.6379 -9.3787
# 6 0.0000 0.0000 0.0000 -0.0002 -9.3787 22.1653
#
#
#
# Elastic Compliance Matrix: (Units=1/GPa)
#
#
# Indices 1 2 3 4 5 6 
#
# 1 0.025333 -0.016395 -0.004675 0.045306 -0.000001 0.000000
# 2 -0.016395 0.025333 -0.004675 -0.045306 0.000001 0.000000
# 3 -0.004675 -0.004675 0.016417 0.000000 0.000000 0.000000
# 4 0.045306 -0.045306 0.000000 0.214150 0.000000 0.000001
# 5 -0.000001 0.000001 0.000000 0.000000 0.214150 0.090612
# 6 0.000000 0.000000 0.000000 0.000001 0.090612 0.083455
#
#
# Mechanical properties :
#
#
# Convention : Reuss Voigt Hill
#
# Bulk Modulus (GPa) = 64.13987 65.22809 64.68398
# Shear Modulus (GPa) = 7.86749 17.36629 12.61689
#
# Velocity S-wave (km/s) = 1.97832 2.93922 2.50527
# Velocity P-wave (km/s) = 6.09305 6.63076 6.36758
#
# Compressibility (1/GPa) = 0.01559093
#
# Stress axis : x y z
#
# Youngs Moduli (GPa) = 39.47481 39.47481 60.91103
#
# Poissons Ratio (x) = 0.64719 0.28478
# Poissons Ratio (y) = 0.64719 0.28478
# Poissons Ratio (z) = 0.18456 0.18456
#
# Static dielectric constant tensor:
#      x y z
#    x 3.647210 0.000000 0.000000 
#    y 0.000000 3.647210 0.000000 
#    z 0.000000 0.000000 3.999390 
# 
# 
# High freq. dielectric constant tensor:
#      x y z
#    x 1.784390 0.000000 0.000000 
#    y 0.000000 1.784390 0.000000 
#    z 0.000000 0.000000 1.794730 
# 
# From -- ./inp_files/2844.got.cif
#   From: 2010.03.12/outbox.cif.g09.slc.cpg/sg152_2_cif.got.tgz:2844.got - 2010.04.03 13:45:27.
