data_PCOD8322416
_publ_section_title
;
Structure prediction by ZEFSAII (Michael W. Deem and Ramdas Pophale) SiO2 
 PCOD8322416
Probable space group: P 32 2 1
;
_chemical_formula_sum "Si O2"
_cell_formula_units_Z 42
_cell_length_a 8.719778
_cell_length_b 8.719778
_cell_length_c 28.027019
_cell_angle_alpha 90.000000
_cell_angle_beta 90.000000
_cell_angle_gamma 120.000000
_cell_volume 1845.518470
_symmetry_space_group_name_H-M "P 32 2 1"
_symmetry_group_IT_number 154
_symmetry_cell_setting 'hexagonal'
loop_
_space_group_symop_operation_xyz
x,y,z
-y,x-y,2/3+z
-x+y,-x,1/3+z
x-y,-y,1/3-z
-x,-x+y,2/3-z
y,x,-z
loop_
_atom_site_type_symbol
_atom_site_label
_atom_site_fract_x
_atom_site_fract_y
_atom_site_fract_z
Si Si1 0.598015 0.973687 0.879635
Si Si2 0.360215 0.305249 0.354935
Si Si3 0.272605 0.682552 0.628526
Si Si4 0.287641 0.073188 0.267455
Si Si5 0.469157 0.762078 0.789829
Si Si6 0.687986 0.032457 0.717935
Si Si7 0.460883 0.375220 0.552498
O O1 0.789364 0.043552 0.903714
O O2 0.568757 0.135812 0.868795
O O3 0.438307 0.830818 0.912203
O O4 0.601601 0.886137 0.830363
O O5 0.319535 0.451798 0.332747
O O6 0.568082 0.362469 0.354163
O O7 0.275210 0.124008 0.323371
O O8 0.300778 0.289089 0.411436
O O9 0.441436 0.875248 0.619023
O O10 0.472727 0.089933 0.251546
O O11 0.142871 0.873152 0.254205
O O12 0.288494 0.771494 0.790880
O O13 0.568059 0.839840 0.740312
O O14 0.742823 0.000000 0.666667
O O15 0.434848 0.434848 0.500000
#
# Coordination Sequence:
#
# PCOD8322416 Si02
#       7
#     6   6   6   6   6   6   6
#     4  10  24  44  72  98 132 182 233 287 350 432
#     4  11  20  39  70  96 136 179 247 278 351 413
#     4  11  21  39  70  96 132 183 231 286 337 430
#     4  10  24  41  70  97 136 187 234 289 348 447
#     4  11  25  43  70 101 138 179 233 293 365 431
#     4  12  26  42  66 102 139 182 235 293 362 421
#     4  11  22  39  71 105 133 184 246 293 347 432
#
# _framework density 22.757830999999999
#
# number of rings (size 3 to 8) (size 9 to 14) (size 15 to 20)
#    0.000    1.143    2.857    2.571   10.000    0.000 
#    0.000    7.143    3.143    0.000    0.000    0.000 
#    0.000    0.000    0.000    0.000    0.000    0.000 
#
# Total GULP energy -520372.486142 kJ/mol
# GULP energy per Si atom -12389.821099 kJ/mol
# Density = 2.270603 g / cm^3
# Si number density = 22.757831 Si / 1000 Ang^3
#
#
#
# Elastic Constant Matrix: (Units=GPa)
#
#
# Indices 1 2 3 4 5 6 
#
# 1 78.7605 26.0655 32.6070 -1.0644 0.0001 0.0000
# 2 26.0655 78.7605 32.6070 1.0644 -0.0001 0.0000
# 3 32.6070 32.6070 143.5157 0.0000 0.0000 0.0000
# 4 -1.0644 1.0644 0.0000 31.8076 0.0000 -0.0001
# 5 0.0001 -0.0001 0.0000 0.0000 31.8076 -1.0644
# 6 0.0000 0.0000 0.0000 -0.0001 -1.0644 26.3475
#
#
#
# Elastic Compliance Matrix: (Units=1/GPa)
#
#
# Indices 1 2 3 4 5 6 
#
# 1 0.015056 -0.003946 -0.002524 0.000636 0.000000 0.000000
# 2 -0.003946 0.015056 -0.002524 -0.000636 0.000000 0.000000
# 3 -0.002524 -0.002524 0.008115 0.000000 0.000000 0.000000
# 4 0.000636 -0.000636 0.000000 0.031482 0.000000 0.000000
# 5 0.000000 0.000000 0.000000 0.000000 0.031482 0.001272
# 6 0.000000 0.000000 0.000000 0.000000 0.001272 0.038006
#
#
# Mechanical properties :
#
#
# Convention : Reuss Voigt Hill
#
# Bulk Modulus (GPa) = 49.41198 53.73287 51.57242
# Shear Modulus (GPa) = 30.50044 31.97637 31.23840
#
# Velocity S-wave (km/s) = 3.66487 3.75249 3.70894
# Velocity P-wave (km/s) = 6.29822 6.51436 6.40720
#
# Compressibility (1/GPa) = 0.02023801
#
# Stress axis : x y z
#
# Youngs Moduli (GPa) = 66.41702 66.41702 123.23030
#
# Poissons Ratio (x) = 0.26211 0.31106
# Poissons Ratio (y) = 0.26211 0.31106
# Poissons Ratio (z) = 0.16765 0.16765
#
# Static dielectric constant tensor:
#      x y z
#    x 4.045440 0.000000 0.000000 
#    y 0.000000 4.045440 0.000000 
#    z 0.000000 0.000000 4.375110 
# 
# 
# High freq. dielectric constant tensor:
#      x y z
#    x 1.884610 0.000000 0.000000 
#    y 0.000000 1.884610 0.000000 
#    z 0.000000 0.000000 1.910230 
# 
# From -- ./inp_files/3761.got.cif
#   From: 2010.03.12/outbox.cif.g09.slc.cpg/sg154_2_cif.got.tgz:3761.got - 2010.04.03 13:51:21.
