data_PCOD8322432
_publ_section_title
;
Structure prediction by ZEFSAII (Michael W. Deem and Ramdas Pophale) SiO2 
 PCOD8322432
Probable space group: P 32 2 1
;
_chemical_formula_sum "Si O2"
_cell_formula_units_Z 42
_cell_length_a 9.248176
_cell_length_b 9.248176
_cell_length_c 25.984140
_cell_angle_alpha 90.000000
_cell_angle_beta 90.000000
_cell_angle_gamma 120.000000
_cell_volume 1924.647285
_symmetry_space_group_name_H-M "P 32 2 1"
_symmetry_group_IT_number 154
_symmetry_cell_setting 'hexagonal'
loop_
_space_group_symop_operation_xyz
x,y,z
-y,x-y,2/3+z
-x+y,-x,1/3+z
x-y,-y,1/3-z
-x,-x+y,2/3-z
y,x,-z
loop_
_atom_site_type_symbol
_atom_site_label
_atom_site_fract_x
_atom_site_fract_y
_atom_site_fract_z
Si Si1 0.834785 0.544640 0.026593
Si Si2 0.673988 0.000000 0.166667
Si Si3 0.477038 0.113057 0.939723
Si Si4 0.140153 0.026474 0.424480
Si Si5 0.966431 0.216204 0.776332
Si Si6 0.465359 0.296399 0.033122
Si Si7 0.421577 0.602449 0.416856
Si Si8 0.883972 0.883972 0.000000
O O1 0.853276 0.513115 0.966494
O O2 0.855645 0.727277 0.034509
O O3 0.652329 0.425640 0.049265
O O4 0.959433 0.513109 0.061868
O O5 0.635050 0.125716 0.198427
O O6 0.821232 0.089437 0.125879
O O7 0.312322 0.084878 0.910830
O O8 0.622648 0.272440 0.910753
O O9 0.467898 0.151863 0.999575
O O10 0.947628 0.933817 0.444058
O O11 0.125626 0.081840 0.367040
O O12 0.781521 0.150186 0.753172
O O13 0.000000 0.292145 0.833334
O O14 0.094640 0.376844 0.742606
O O15 0.381281 0.381281 0.000000
#
# Coordination Sequence:
#
# PCOD8322432 Si02
#       8
#     6   3   6   6   6   6   6   3
#     4  11  24  41  71 108 142 182 242 303 358 426
#     4  12  26  48  68 100 152 190 234 294 374 434
#     4  11  25  43  70 103 137 179 246 292 359 423
#     4  12  26  45  70 106 141 189 239 305 360 437
#     4  12  24  44  71 100 141 194 240 289 372 446
#     4  11  22  42  68 103 141 180 235 308 360 422
#     4  11  25  46  68 101 143 192 233 291 362 446
#     4  12  24  42  74 106 142 184 246 304 358 426
#
# _framework density 21.822181
#
# number of rings (size 3 to 8) (size 9 to 14) (size 15 to 20)
#    0.000    0.571    6.429    1.714    6.000    0.000 
#    2.571    0.000    0.000    0.000    0.000    0.000 
#    0.000    0.000    0.000    0.000    0.000    0.000 
#
# Total GULP energy -520564.064343 kJ/mol
# GULP energy per Si atom -12394.382484 kJ/mol
# Density = 2.177251 g / cm^3
# Si number density = 21.822181 Si / 1000 Ang^3
#
#
#
# Elastic Constant Matrix: (Units=GPa)
#
#
# Indices 1 2 3 4 5 6 
#
# 1 127.4416 54.3036 37.2383 0.9123 0.0004 0.0000
# 2 54.3036 127.4416 37.2383 -0.9123 -0.0004 0.0000
# 3 37.2383 37.2383 87.0427 0.0000 0.0000 0.0000
# 4 0.9123 -0.9123 0.0000 24.8273 0.0000 -0.0004
# 5 0.0004 -0.0004 0.0000 0.0000 24.8273 0.9123
# 6 0.0000 0.0000 0.0000 -0.0004 0.9123 36.5690
#
#
#
# Elastic Compliance Matrix: (Units=1/GPa)
#
#
# Indices 1 2 3 4 5 6 
#
# 1 0.010179 -0.003507 -0.002854 -0.000503 0.000000 0.000000
# 2 -0.003507 0.010179 -0.002854 0.000503 0.000000 0.000000
# 3 -0.002854 -0.002854 0.013931 0.000000 0.000000 0.000000
# 4 -0.000503 0.000503 0.000000 0.040315 0.000000 0.000000
# 5 0.000000 0.000000 0.000000 0.000000 0.040315 -0.001006
# 6 0.000000 0.000000 0.000000 0.000000 -0.001006 0.027371
#
#
# Mechanical properties :
#
#
# Convention : Reuss Voigt Hill
#
# Bulk Modulus (GPa) = 63.06253 66.60960 64.83606
# Shear Modulus (GPa) = 30.11941 31.45440 30.78691
#
# Velocity S-wave (km/s) = 3.71916 3.80069 3.76015
# Velocity P-wave (km/s) = 6.88506 7.06048 6.97332
#
# Compressibility (1/GPa) = 0.01585728
#
# Stress axis : x y z
#
# Youngs Moduli (GPa) = 98.24527 98.24527 71.78291
#
# Poissons Ratio (x) = 0.34452 0.20489
# Poissons Ratio (y) = 0.34452 0.20489
# Poissons Ratio (z) = 0.28043 0.28043
#
# Static dielectric constant tensor:
#      x y z
#    x 4.052320 0.000000 0.000000 
#    y 0.000000 4.052320 0.000000 
#    z 0.000000 0.000000 3.650390 
# 
# 
# High freq. dielectric constant tensor:
#      x y z
#    x 1.870700 0.000000 0.000000 
#    y 0.000000 1.870700 0.000000 
#    z 0.000000 0.000000 1.828480 
# 
# From -- ./inp_files/3822.got.cif
#   From: 2010.03.12/outbox.cif.g09.slc.cpg/sg154_2_cif.got.tgz:3822.got - 2010.04.03 13:51:21.
