data_PCOD8322886
_publ_section_title
;
Structure prediction by ZEFSAII (Michael W. Deem and Ramdas Pophale) SiO2 
 PCOD8322886
Probable space group: R 3 M
;
_chemical_formula_sum "Si O2"
_cell_formula_units_Z 42
_cell_length_a 21.000000
_cell_length_b 21.000000
_cell_length_c 18.000000
_cell_angle_alpha 90.000000
_cell_angle_beta 90.000000
_cell_angle_gamma 120.000000
_cell_volume 6874.509655
_symmetry_space_group_name_H-M "R 3 M"
_symmetry_group_IT_number 160
_symmetry_cell_setting 'hexagonal'
loop_
_space_group_symop_operation_xyz
x,y,z
-y,x-y,z
-x+y,-x,z
-x+y,y,z
x,x-y,z
-y,-x,z
2/3+x,1/3+y,1/3+z
2/3-y,1/3+x-y,1/3+z
2/3-x+y,1/3-x,1/3+z
2/3-x+y,1/3+y,1/3+z
2/3+x,1/3+x-y,1/3+z
2/3-y,1/3-x,1/3+z
1/3+x,2/3+y,2/3+z
1/3-y,2/3+x-y,2/3+z
1/3-x+y,2/3-x,2/3+z
1/3-x+y,2/3+y,2/3+z
1/3+x,2/3+x-y,2/3+z
1/3-y,2/3-x,2/3+z
loop_
_atom_site_type_symbol
_atom_site_label
_atom_site_fract_x
_atom_site_fract_y
_atom_site_fract_z
Si Si1 0.590037 0.721234 0.042862
Si Si2 0.132965 0.717672 0.608963
Si Si3 0.520387 0.333241 0.844509
Si Si4 0.005905 0.755177 0.634122
Si Si5 0.400956 0.273516 0.586483
Si Si6 0.386803 0.461283 0.464480
Si Si7 0.256005 0.996868 0.095008
O O1 0.612496 0.806248 0.031816
O O2 0.536477 0.685360 0.111617
O O3 0.660337 0.712578 0.059343
O O4 0.552688 0.677703 0.967034
O O5 0.215454 0.784547 0.595905
O O6 0.076888 0.748363 0.614705
O O7 0.111851 0.661899 0.538860
O O8 0.129110 0.680274 0.690570
O O9 0.519778 0.259889 0.821302
O O10 0.603481 0.396520 0.856588
O O11 0.477525 0.321737 0.921113
O O12 0.005626 0.776007 0.721375
O O13 0.932553 0.682023 0.608482
O O14 0.413131 0.206566 0.608091
O O15 0.418013 0.287887 0.497876
O O16 0.455212 0.544788 0.464160
O O17 0.417224 0.404550 0.465413
#
# Coordination Sequence:
#
# PCOD8322886 Si02
#       7
#    18  18  18  18  18  18  18
#     4  11  22  38  59  85 120 158 196 245 302 363
#     4  11  23  39  62  90 122 160 203 250 307 367
#     4  11  22  37  56  81 117 162 203 242 292 362
#     4  11  21  39  56  89 122 156 201 256 312 358
#     4  12  23  37  60  91 124 157 196 248 307 368
#     4  11  22  39  62  89 123 161 202 252 307 360
#     4  11  20  39  58  89 120 154 197 247 309 356
#
# _framework density 6.1095269999999999
#
# number of rings (size 3 to 8) (size 9 to 14) (size 15 to 20)
#    0.000    0.857    5.714    4.000    0.000    4.571 
#    0.000    0.000    0.000    0.571    0.000    1.000 
#    0.000    0.000    0.000    0.000    0.000    0.000 
#
# Total GULP energy -520704.140238 kJ/mol
# GULP energy per Si atom -12397.717625 kJ/mol
# Density = 0.609562 g / cm^3
# Si number density = 6.109527 Si / 1000 Ang^3
#
#
#
# Elastic Constant Matrix: (Units=GPa)
#
#
# Indices 1 2 3 4 5 6 
#
# 1 76.5184 33.1082 39.9242 -1.0511 -0.0003 0.0000
# 2 33.1082 76.5184 39.9242 1.0511 0.0003 0.0000
# 3 39.9242 39.9242 161.1332 0.0000 0.0000 0.0000
# 4 -1.0511 1.0511 0.0000 30.3484 0.0000 0.0003
# 5 -0.0003 0.0003 0.0000 0.0000 30.3484 -1.0511
# 6 0.0000 0.0000 0.0000 0.0003 -1.0511 21.7051
#
#
#
# Elastic Compliance Matrix: (Units=1/GPa)
#
#
# Indices 1 2 3 4 5 6 
#
# 1 0.017103 -0.005972 -0.002758 0.000799 0.000000 0.000000
# 2 -0.005972 0.017103 -0.002758 -0.000799 0.000000 0.000000
# 3 -0.002758 -0.002758 0.007573 0.000000 0.000000 0.000000
# 4 0.000799 -0.000799 0.000000 0.033006 0.000000 0.000000
# 5 0.000000 0.000000 0.000000 0.000000 0.033006 0.001598
# 6 0.000000 0.000000 0.000000 0.000000 0.001598 0.046150
#
#
# Mechanical properties :
#
#
# Convention : Reuss Voigt Hill
#
# Bulk Modulus (GPa) = 53.18442 60.00923 56.59682
# Shear Modulus (GPa) = 27.29514 29.89459 28.59487
#
# Velocity S-wave (km/s) = 3.86322 4.04299 3.95413
# Velocity P-wave (km/s) = 6.99853 7.38960 7.19673
#
# Compressibility (1/GPa) = 0.01880250
#
# Stress axis : x y z
#
# Youngs Moduli (GPa) = 58.47034 58.47034 132.05369
#
# Poissons Ratio (x) = 0.34919 0.36418
# Poissons Ratio (y) = 0.34919 0.36418
# Poissons Ratio (z) = 0.16125 0.16125
#
# Static dielectric constant tensor:
#      x y z
#    x 3.363340 0.000000 0.000000 
#    y 0.000000 3.363340 0.000000 
#    z 0.000000 0.000000 3.913200 
# 
# 
# High freq. dielectric constant tensor:
#      x y z
#    x 1.703070 0.000000 0.000000 
#    y 0.000000 1.703070 0.000000 
#    z 0.000000 0.000000 1.747750 
# 
# From -- ./inp_files/2891.got.cif
#   From: 2010.03.12/outbox.ucp.g09.slc.cvg/sg160_2_cif.got.tgz:2891.got - 2010.05.04 20:37:23.
