data_PCOD8322960
_publ_section_title
;
Structure prediction by ZEFSAII (Michael W. Deem and Ramdas Pophale) SiO2 
 PCOD8322960
Probable space group: P -3 1 M 
;
_chemical_formula_sum "Si O2"
_cell_formula_units_Z 48
_cell_length_a 16.694273
_cell_length_b 16.694273
_cell_length_c 9.370267
_cell_angle_alpha 90.000000
_cell_angle_beta 90.000000
_cell_angle_gamma 120.000000
_cell_volume 2261.609502
_symmetry_space_group_name_H-M "P -3 1 M "
_symmetry_group_IT_number 162
_symmetry_cell_setting 'hexagonal'
loop_
_space_group_symop_operation_xyz
x,y,z
-y,x-y,z
-x+y,-x,z
-y,-x,-z
-x+y,y,-z
x,x-y,-z
-x,-y,-z
y,-x+y,-z
x-y,x,-z
y,x,z
x-y,-y,z
-x,-x+y,z
loop_
_atom_site_type_symbol
_atom_site_label
_atom_site_fract_x
_atom_site_fract_y
_atom_site_fract_z
Si Si1 0.650588 0.894691 0.384697
Si Si2 0.523191 0.682936 0.080555
Si Si3 0.499927 0.601107 0.793216
Si Si4 0.171814 0.894997 0.154335
O O1 0.636153 0.818077 0.500000
O O2 0.549319 0.859854 0.312786
O O3 0.725408 0.900826 0.268680
O O4 0.694384 0.000000 0.445985
O O5 0.447210 0.611960 0.194901
O O6 0.618732 0.743012 0.161893
O O7 0.483725 0.741863 0.000000
O O8 0.542277 0.630610 0.952239
O O9 0.524669 0.524669 0.738074
O O10 0.205070 0.000000 0.198363
O O11 0.124983 0.875017 0.000000
#
# Coordination Sequence:
#
# PCOD8322960 Si02
#       4
#    12  12  12  12
#     4  11  23  41  63  89 121 164 212 258 312 376
#     4  10  18  32  57  93 125 157 198 252 305 355
#     4  10  19  35  57  88 126 164 205 249 303 366
#     4  11  20  35  60  91 121 158 207 258 313 369
#
# _framework density 21.223822999999999
#
# number of rings (size 3 to 8) (size 9 to 14) (size 15 to 20)
#    0.000    1.500    5.000    4.500    0.000    0.000 
#    6.000    1.250    0.000   14.500    0.000    0.000 
#    0.000    0.000    0.000    0.000    0.000    0.000 
#
# Total GULP energy -594670.080179 kJ/mol
# GULP energy per Si atom -12388.960004 kJ/mol
# Density = 2.117552 g / cm^3
# Si number density = 21.223823 Si / 1000 Ang^3
#
#
#
# Elastic Constant Matrix: (Units=GPa)
#
#
# Indices 1 2 3 4 5 6 
#
# 1 108.2554 47.6326 27.0260 -0.0001 -0.3490 0.0000
# 2 47.6326 108.2554 27.0260 0.0001 0.3490 0.0000
# 3 27.0260 27.0260 76.3238 0.0000 0.0000 0.0000
# 4 -0.0001 0.0001 0.0000 29.7974 0.0000 0.3490
# 5 -0.3490 0.3490 0.0000 0.0000 29.7974 -0.0001
# 6 0.0000 0.0000 0.0000 0.3490 -0.0001 30.3114
#
#
#
# Elastic Compliance Matrix: (Units=1/GPa)
#
#
# Indices 1 2 3 4 5 6 
#
# 1 0.011905 -0.004592 -0.002589 0.000000 0.000193 0.000000
# 2 -0.004592 0.011905 -0.002589 0.000000 -0.000193 0.000000
# 3 -0.002589 -0.002589 0.014936 0.000000 0.000000 0.000000
# 4 0.000000 0.000000 0.000000 0.033565 0.000000 -0.000386
# 5 0.000193 -0.000193 0.000000 0.000000 0.033565 0.000000
# 6 0.000000 0.000000 0.000000 -0.000386 0.000000 0.032995
#
#
# Mechanical properties :
#
#
# Convention : Reuss Voigt Hill
#
# Bulk Modulus (GPa) = 52.07338 55.13373 53.60356
# Shear Modulus (GPa) = 30.33715 30.72457 30.53086
#
# Velocity S-wave (km/s) = 3.78483 3.80892 3.79690
# Velocity P-wave (km/s) = 6.60973 6.73628 6.67331
#
# Compressibility (1/GPa) = 0.01920367
#
# Stress axis : x y z
#
# Youngs Moduli (GPa) = 83.99701 83.99701 66.95297
#
# Poissons Ratio (x) = 0.38576 0.17337
# Poissons Ratio (y) = 0.38576 0.17337
# Poissons Ratio (z) = 0.21750 0.21750
#
# Static dielectric constant tensor:
#      x y z
#    x 3.860680 0.000000 0.000000 
#    y 0.000000 3.860680 0.000000 
#    z 0.000000 0.000000 3.570040 
# 
# 
# High freq. dielectric constant tensor:
#      x y z
#    x 1.826640 0.000000 0.000000 
#    y 0.000000 1.826640 0.000000 
#    z 0.000000 0.000000 1.798780 
# 
# From -- ./inp_files/1223.got.cif
#   From: 2010.03.12/outbox.cif.g09.slc.cpg/sg162_1_cif.got.tgz:1223.got - 2010.04.02 06:27:41.
