data_PCOD8322057
_publ_section_title
;
Structure prediction by ZEFSAII (Michael W. Deem and Ramdas Pophale) SiO2 
 PCOD8322057
Probable space group: P 31 2 1
;
_chemical_formula_sum "Si O2"
_cell_formula_units_Z 36
_cell_length_a 11.869683
_cell_length_b 11.869683
_cell_length_c 16.032454
_cell_angle_alpha 90.000000
_cell_angle_beta 90.000000
_cell_angle_gamma 120.000000
_cell_volume 1956.180274
_symmetry_space_group_name_H-M "P 31 2 1"
_symmetry_group_IT_number 152
_symmetry_cell_setting 'hexagonal'
loop_
_space_group_symop_operation_xyz
x,y,z
-y,x-y,1/3+z
-x+y,-x,2/3+z
x-y,-y,2/3-z
-x,-x+y,1/3-z
y,x,-z
loop_
_atom_site_type_symbol
_atom_site_label
_atom_site_fract_x
_atom_site_fract_y
_atom_site_fract_z
Si Si1 0.801584 0.589792 0.804768
Si Si2 0.567869 0.928355 0.493501
Si Si3 0.563880 0.262892 0.463247
Si Si4 0.959608 0.381972 0.924458
Si Si5 0.523471 0.660457 0.038755
Si Si6 0.324819 0.874400 0.885429
O O1 0.732694 0.433716 0.798822
O O2 0.726625 0.645281 0.747866
O O3 0.778807 0.614181 0.900451
O O4 0.955244 0.656890 0.785621
O O5 0.461322 0.865182 0.419925
O O6 0.599787 0.826512 0.536563
O O7 0.519774 0.988331 0.566373
O O8 0.454143 0.156631 0.524858
O O9 0.525650 0.243103 0.366420
O O10 0.587287 0.404825 0.485543
O O11 0.903606 0.349976 0.016785
O O12 0.616658 0.616658 0.000000
O O13 0.355431 0.000000 0.833334
#
# Coordination Sequence:
#
# PCOD8322057 Si02
#       6
#     6   6   6   6   6   6
#     4  10  19  36  61  85 118 153 198 259 288 359
#     4  10  22  38  60  89 122 160 204 252 302 371
#     4  11  20  37  60  86 126 151 199 252 304 366
#     4  10  22  38  60  90 119 161 195 256 310 362
#     4  11  18  34  60  91 114 159 204 244 305 359
#     4  12  27  37  60  91 130 161 199 254 322 365
#
# _framework density 18.403212
#
# number of rings (size 3 to 8) (size 9 to 14) (size 15 to 20)
#    0.000    1.333    8.333    2.000    4.667    0.000 
#    0.000    0.000    0.000    3.000    0.000    0.000 
#    0.000    0.000    0.000    0.000    0.000    0.000 
#
# Total GULP energy -446142.077993 kJ/mol
# GULP energy per Si atom -12392.835500 kJ/mol
# Density = 1.836133 g / cm^3
# Si number density = 18.403212 Si / 1000 Ang^3
#
#
#
# Elastic Constant Matrix: (Units=GPa)
#
#
# Indices 1 2 3 4 5 6 
#
# 1 93.8759 29.2973 21.8996 4.4182 0.0000 0.0000
# 2 29.2973 93.8759 21.8996 -4.4182 0.0000 0.0000
# 3 21.8996 21.8996 83.9078 0.0000 0.0000 0.0000
# 4 4.4182 -4.4182 0.0000 26.9411 0.0000 0.0000
# 5 0.0000 0.0000 0.0000 0.0000 26.9411 4.4182
# 6 0.0000 0.0000 0.0000 0.0000 4.4182 32.2893
#
#
#
# Elastic Compliance Matrix: (Units=1/GPa)
#
#
# Indices 1 2 3 4 5 6 
#
# 1 0.012395 -0.003446 -0.002336 -0.002598 0.000000 0.000000
# 2 -0.003446 0.012395 -0.002336 0.002598 0.000000 0.000000
# 3 -0.002336 -0.002336 0.013137 0.000000 0.000000 0.000000
# 4 -0.002598 0.002598 0.000000 0.037970 0.000000 0.000000
# 5 0.000000 0.000000 0.000000 0.000000 0.037970 -0.005196
# 6 0.000000 0.000000 0.000000 0.000000 -0.005196 0.031681
#
#
# Mechanical properties :
#
#
# Convention : Reuss Voigt Hill
#
# Bulk Modulus (GPa) = 46.09858 46.42808 46.26333
# Shear Modulus (GPa) = 29.58358 30.47184 30.02771
#
# Velocity S-wave (km/s) = 4.01374 4.07355 4.04376
# Velocity P-wave (km/s) = 6.82523 6.88536 6.85536
#
# Compressibility (1/GPa) = 0.02169264
#
# Stress axis : x y z
#
# Youngs Moduli (GPa) = 80.67875 80.67875 76.12048
#
# Poissons Ratio (x) = 0.27799 0.17780
# Poissons Ratio (y) = 0.27799 0.17780
# Poissons Ratio (z) = 0.18844 0.18844
#
# Static dielectric constant tensor:
#      x y z
#    x 3.432090 0.000000 0.000000 
#    y 0.000000 3.432090 0.000000 
#    z 0.000000 0.000000 16.236120 
# 
# 
# High freq. dielectric constant tensor:
#      x y z
#    x 1.695370 0.000000 0.000000 
#    y 0.000000 1.695370 0.000000 
#    z 0.000000 0.000000 1.722110 
# 
# From -- ./inp_files/2030.got.cif
#   From: 2010.03.12/outbox.cif.g09.slc.cpg/sg152_2_cif.got.tgz:2030.got - 2010.04.03 13:45:27.
