data_PCOD8322653
_publ_section_title
;
Structure prediction by ZEFSAII (Michael W. Deem and Ramdas Pophale) SiO2 
 PCOD8322653
Probable space group: P 3 M 1
;
_chemical_formula_sum "Si O2"
_cell_formula_units_Z 30
_cell_length_a 20.274388
_cell_length_b 20.274388
_cell_length_c 5.048752
_cell_angle_alpha 90.000000
_cell_angle_beta 90.000000
_cell_angle_gamma 120.000000
_cell_volume 1797.256972
_symmetry_space_group_name_H-M "P 3 M 1"
_symmetry_group_IT_number 156
_symmetry_cell_setting 'hexagonal'
loop_
_space_group_symop_operation_xyz
x,y,z
-y,x-y,z
-x+y,-x,z
-x+y,y,z
x,x-y,z
-y,-x,z
loop_
_atom_site_type_symbol
_atom_site_label
_atom_site_fract_x
_atom_site_fract_y
_atom_site_fract_z
Si Si1 0.863869 0.575460 0.838120
Si Si2 0.658606 0.626364 0.337136
Si Si3 0.131941 0.412756 0.346125
Si Si4 0.182658 0.668079 0.845326
Si Si5 0.520110 0.479891 0.430849
Si Si6 0.566489 0.132977 0.931844
O O1 0.797677 0.595354 0.871887
O O2 0.904281 0.607793 0.558067
O O3 0.826161 0.482682 0.858820
O O4 0.928135 0.619929 0.057694
O O5 0.660867 0.706848 0.371131
O O6 0.566471 0.568466 0.354450
O O7 0.190484 0.380967 0.375481
O O8 0.150057 0.477350 0.562292
O O9 0.138239 0.449518 0.060760
O O10 0.167092 0.583546 0.890104
O O11 0.273048 0.726953 0.862783
O O12 0.528705 0.471296 0.745166
O O13 0.558404 0.441597 0.245898
#
# Coordination Sequence:
#
# PCOD8322653 Si02
#       6
#     6   6   6   6   3   3
#     4  10  19  33  51  71  94 122 157 196 240 285
#     4  10  19  32  48  70  93 123 157 199 240 276
#     4  10  21  34  47  69  96 126 162 199 248 296
#     4  10  20  32  46  65  90 123 164 209 250 282
#     4   8  16  26  44  62  88 114 154 192 224 268
#     4   8  16  30  42  66  92 116 148 188 230 276
#
# _framework density 16.692101999999998
#
# number of rings (size 3 to 8) (size 9 to 14) (size 15 to 20)
#    0.000    2.400    0.000    2.600    2.800    0.000 
#    4.200    2.000    0.000    0.000    0.000    0.000 
#    0.000    0.000    0.000   12.000    0.000    0.000 
#
# Total GULP energy -371712.055559 kJ/mol
# GULP energy per Si atom -12390.401852 kJ/mol
# Density = 1.665411 g / cm^3
# Si number density = 16.692102 Si / 1000 Ang^3
#
#
#
# Elastic Constant Matrix: (Units=GPa)
#
#
# Indices 1 2 3 4 5 6 
#
# 1 66.3197 39.3573 12.4049 2.2282 0.0000 0.0000
# 2 39.3573 66.3197 12.4049 -2.2282 0.0000 0.0000
# 3 12.4049 12.4049 74.2933 0.0000 0.0000 0.0000
# 4 2.2282 -2.2282 0.0000 16.2498 0.0000 0.0000
# 5 0.0000 0.0000 0.0000 0.0000 16.2498 2.2282
# 6 0.0000 0.0000 0.0000 0.0000 2.2282 13.4812
#
#
#
# Elastic Compliance Matrix: (Units=1/GPa)
#
#
# Indices 1 2 3 4 5 6 
#
# 1 0.023899 -0.014050 -0.001644 -0.005204 0.000000 0.000000
# 2 -0.014050 0.023899 -0.001644 0.005204 0.000000 0.000000
# 3 -0.001644 -0.001644 0.014009 0.000000 0.000000 0.000000
# 4 -0.005204 0.005204 0.000000 0.062966 0.000000 0.000000
# 5 0.000000 0.000000 0.000000 0.000000 0.062966 -0.010407
# 6 0.000000 0.000000 0.000000 0.000000 -0.010407 0.075897
#
#
# Mechanical properties :
#
#
# Convention : Reuss Voigt Hill
#
# Bulk Modulus (GPa) = 36.86075 37.25189 37.05632
# Shear Modulus (GPa) = 16.26770 18.71388 17.49079
#
# Velocity S-wave (km/s) = 3.12521 3.35195 3.24056
# Velocity P-wave (km/s) = 5.92902 6.11116 6.02078
#
# Compressibility (1/GPa) = 0.02712913
#
# Stress axis : x y z
#
# Youngs Moduli (GPa) = 41.84314 41.84314 71.38095
#
# Poissons Ratio (x) = 0.58789 0.11739
# Poissons Ratio (y) = 0.58789 0.11739
# Poissons Ratio (z) = 0.06881 0.06881
#
# Static dielectric constant tensor:
#      x y z
#    x 2.920980 0.000000 0.000000 
#    y 0.000000 2.920980 0.000000 
#    z 0.000000 0.000000 3.309840 
# 
# 
# High freq. dielectric constant tensor:
#      x y z
#    x 1.607600 0.000000 0.000000 
#    y 0.000000 1.607600 0.000000 
#    z 0.000000 0.000000 1.670770 
# 
# From -- ./inp_files/113.got.cif
#   From: 2010.03.12/outbox.cif.g09.slc.cpg/sg156_cif.got.tgz:113.got - 2010.04.03 13:58:47.
