data_PCOD8322527
_publ_section_title
;
Structure prediction by ZEFSAII (Michael W. Deem and Ramdas Pophale) SiO2 
 PCOD8322527
Probable space group: R 3 2
;
_chemical_formula_sum "Si O2"
_cell_formula_units_Z 84
_cell_length_a 14.256270
_cell_length_b 14.256270
_cell_length_c 25.410136
_cell_angle_alpha 90.000000
_cell_angle_beta 90.000000
_cell_angle_gamma 120.000000
_cell_volume 4472.490687
_symmetry_space_group_name_H-M "R 3 2"
_symmetry_group_IT_number 155
_symmetry_cell_setting 'hexagonal'
loop_
_space_group_symop_operation_xyz
x,y,z
-y,x-y,z
-x+y,-x,z
x-y,-y,-z
-x,-x+y,-z
y,x,-z
2/3+x,1/3+y,1/3+z
2/3-y,1/3+x-y,1/3+z
2/3-x+y,1/3-x,1/3+z
2/3+x-y,1/3-y,1/3-z
2/3-x,1/3-x+y,1/3-z
2/3+y,1/3+x,1/3-z
1/3+x,2/3+y,2/3+z
1/3-y,2/3+x-y,2/3+z
1/3-x+y,2/3-x,2/3+z
1/3+x-y,2/3-y,2/3-z
1/3-x,2/3-x+y,2/3-z
1/3+y,2/3+x,2/3-z
loop_
_atom_site_type_symbol
_atom_site_label
_atom_site_fract_x
_atom_site_fract_y
_atom_site_fract_z
Si Si1 0.181826 0.440644 0.264212
Si Si2 0.000000 0.604237 0.000000
Si Si3 0.870153 0.327837 0.252538
Si Si4 0.692082 0.825162 0.661977
Si Si5 0.000000 0.309651 0.500000
Si Si6 0.000000 0.000000 0.438150
Si Si7 0.333334 0.666668 0.604307
O O1 0.211197 0.351180 0.283671
O O2 0.123767 0.475526 0.308733
O O3 0.112439 0.394076 0.211868
O O4 0.294356 0.546637 0.249423
O O5 0.108586 0.719028 0.992220
O O6 0.890462 0.240895 0.283635
O O7 0.744256 0.290600 0.249148
O O8 0.931472 0.442374 0.284065
O O9 0.913116 0.338587 0.193153
O O10 0.000000 0.000000 0.500000
O O11 0.333334 0.666668 0.666667
#
# Coordination Sequence:
#
# PCOD8322527 Si02
#       7
#    18   9  18  18   9   6   6
#     4  11  22  38  61  88 125 159 203 255 306 371
#     4  12  22  36  66 100 116 158 218 258 312 372
#     4  10  21  39  62  85 119 154 198 251 302 363
#     4  10  20  37  62  89 120 157 203 255 305 357
#     4  10  22  42  60  82 122 168 192 238 318 370
#     4  12  21  39  57  88 125 163 195 255 309 367
#     4  12  18  36  66  88 107 148 204 252 291 346
#
# _framework density 18.781482
#
# number of rings (size 3 to 8) (size 9 to 14) (size 15 to 20)
#    0.000    1.286    5.357    3.857    0.000    0.000 
#    3.857    0.000    0.000    0.000    0.000    0.000 
#    0.000    0.000    0.000    0.000    0.000    0.000 
#
# Total GULP energy -347168.193907 kJ/mol
# GULP energy per Si atom -12398.864068 kJ/mol
# Density = 1.873873 g / cm^3
# Si number density = 18.781482 Si / 1000 Ang^3
#
#
#
# Elastic Constant Matrix: (Units=GPa)
#
#
# Indices 1 2 3 4 5 6 
#
# 1 110.1571 47.6074 58.4471 -3.8746 0.0003 -0.0001
# 2 47.6074 110.1580 58.4470 3.8743 -0.0002 -0.0001
# 3 58.4471 58.4470 110.7215 0.0000 0.0000 0.0000
# 4 -3.8746 3.8743 0.0000 24.0571 0.0000 -0.0002
# 5 0.0003 -0.0002 0.0000 0.0000 24.0568 -3.8742
# 6 -0.0001 -0.0001 0.0000 -0.0002 -3.8742 31.2746
#
#
#
# Elastic Compliance Matrix: (Units=1/GPa)
#
#
# Indices 1 2 3 4 5 6 
#
# 1 0.013362 -0.002951 -0.005495 0.002627 0.000000 0.000000
# 2 -0.002951 0.013361 -0.005495 -0.002627 0.000000 0.000000
# 3 -0.005495 -0.005495 0.014833 0.000000 0.000000 0.000000
# 4 0.002627 -0.002627 0.000000 0.042414 0.000000 0.000000
# 5 0.000000 0.000000 0.000000 0.000000 0.042414 0.005254
# 6 0.000000 0.000000 0.000000 0.000000 0.005254 0.032626
#
#
# Mechanical properties :
#
#
# Convention : Reuss Voigt Hill
#
# Bulk Modulus (GPa) = 73.13901 73.33774 73.23838
# Shear Modulus (GPa) = 26.11628 26.98004 26.54816
#
# Velocity S-wave (km/s) = 3.73303 3.79426 3.76377
# Velocity P-wave (km/s) = 7.58995 7.63727 7.61365
#
# Compressibility (1/GPa) = 0.01367259
#
# Stress axis : x y z
#
# Youngs Moduli (GPa) = 74.84182 74.84289 67.41579
#
# Poissons Ratio (x) = 0.22088 0.37047
# Poissons Ratio (y) = 0.22087 0.37047
# Poissons Ratio (z) = 0.41128 0.41128
#
# Static dielectric constant tensor:
#      x y z
#    x 3.571500 0.000000 0.000000 
#    y 0.000000 3.571490 0.000000 
#    z 0.000000 0.000000 3.417060 
# 
# 
# High freq. dielectric constant tensor:
#      x y z
#    x 1.731640 0.000000 0.000000 
#    y 0.000000 1.731640 0.000000 
#    z 0.000000 0.000000 1.714020 
# 
# From -- ./inp_files/7428.got.cif
#   From: 2010.03.12/outbox.cif.g09.slc.cpg/sg155_4_cif.got.tgz:7428.got - 2010.04.03 13:54:13.
