data_PCOD8322088
_publ_section_title
;
Structure prediction by ZEFSAII (Michael W. Deem and Ramdas Pophale) SiO2 
 PCOD8322088
Probable space group: P 31 2 1
;
_chemical_formula_sum "Si O2"
_cell_formula_units_Z 36
_cell_length_a 9.134967
_cell_length_b 9.134967
_cell_length_c 26.117351
_cell_angle_alpha 90.000000
_cell_angle_beta 90.000000
_cell_angle_gamma 120.000000
_cell_volume 1887.442470
_symmetry_space_group_name_H-M "P 31 2 1"
_symmetry_group_IT_number 152
_symmetry_cell_setting 'hexagonal'
loop_
_space_group_symop_operation_xyz
x,y,z
-y,x-y,1/3+z
-x+y,-x,2/3+z
x-y,-y,2/3-z
-x,-x+y,1/3-z
y,x,-z
loop_
_atom_site_type_symbol
_atom_site_label
_atom_site_fract_x
_atom_site_fract_y
_atom_site_fract_z
Si Si1 0.616870 0.560709 0.183226
Si Si2 0.840650 0.890149 0.633325
Si Si3 0.351061 0.225100 0.603013
Si Si4 0.576503 0.614132 0.424000
Si Si5 0.714380 0.289422 0.150103
Si Si6 0.977332 0.116922 0.787904
O O1 0.702109 0.605996 0.239568
O O2 0.626733 0.402988 0.159124
O O3 0.424457 0.516843 0.189298
O O4 0.705395 0.719347 0.144320
O O5 0.700266 0.880190 0.671710
O O6 0.775130 0.709637 0.607821
O O7 0.000000 0.922441 0.666667
O O8 0.886866 0.032754 0.589559
O O9 0.513633 0.407527 0.608730
O O10 0.210194 0.237150 0.569212
O O11 0.650338 0.487345 0.434096
O O12 0.533796 0.690246 0.472573
O O13 0.985347 0.000000 0.833334
#
# Coordination Sequence:
#
# PCOD8322088 Si02
#       6
#     6   6   6   6   6   6
#     4  10  20  36  60  90 118 148 198 243 291 343
#     4  10  22  36  60  85 114 154 202 235 286 353
#     4   9  19  40  58  79 119 157 186 233 299 353
#     4  10  21  40  58  84 122 156 188 241 300 343
#     4  10  22  36  62  90 119 149 197 248 290 345
#     4   9  18  35  60  85 112 151 190 241 287 345
#
# _framework density 19.073429000000001
#
# number of rings (size 3 to 8) (size 9 to 14) (size 15 to 20)
#    0.000    2.333    1.667    0.000    4.667    4.000 
#    3.000    0.000    0.000    0.000    0.000    0.000 
#    0.000    0.000    0.000    0.000    0.000    0.000 
#
# Total GULP energy -446272.204625 kJ/mol
# GULP energy per Si atom -12396.450128 kJ/mol
# Density = 1.903002 g / cm^3
# Si number density = 19.073429 Si / 1000 Ang^3
#
#
#
# Elastic Constant Matrix: (Units=GPa)
#
#
# Indices 1 2 3 4 5 6 
#
# 1 109.0972 48.5295 39.6508 -8.5386 0.0001 0.0000
# 2 48.5295 109.0972 39.6508 8.5386 -0.0001 0.0000
# 3 39.6508 39.6508 83.4385 0.0000 0.0000 0.0000
# 4 -8.5386 8.5386 0.0000 12.8572 0.0000 -0.0001
# 5 0.0001 -0.0001 0.0000 0.0000 12.8572 -8.5386
# 6 0.0000 0.0000 0.0000 -0.0001 -8.5386 30.2838
#
#
#
# Elastic Compliance Matrix: (Units=1/GPa)
#
#
# Indices 1 2 3 4 5 6 
#
# 1 0.014326 -0.005988 -0.003962 0.013491 0.000000 0.000000
# 2 -0.005988 0.014326 -0.003962 -0.013491 0.000000 0.000000
# 3 -0.003962 -0.003962 0.015750 0.000000 0.000000 0.000000
# 4 0.013491 -0.013491 0.000000 0.095696 0.000000 0.000000
# 5 0.000000 0.000000 0.000000 0.000000 0.095696 0.026982
# 6 0.000000 0.000000 0.000000 0.000000 0.026982 0.040629
#
#
# Mechanical properties :
#
#
# Convention : Reuss Voigt Hill
#
# Bulk Modulus (GPa) = 60.32388 61.92167 61.12278
# Shear Modulus (GPa) = 16.14081 22.78644 19.46363
#
# Velocity S-wave (km/s) = 2.91219 3.46015 3.19793
# Velocity P-wave (km/s) = 6.55771 6.96411 6.76397
#
# Compressibility (1/GPa) = 0.01657718
#
# Stress axis : x y z
#
# Youngs Moduli (GPa) = 69.80398 69.80398 63.49028
#
# Poissons Ratio (x) = 0.41802 0.25155
# Poissons Ratio (y) = 0.41802 0.25155
# Poissons Ratio (z) = 0.27656 0.27656
#
# Static dielectric constant tensor:
#      x y z
#    x 3.405410 0.000000 0.000000 
#    y 0.000000 3.405410 0.000000 
#    z 0.000000 0.000000 3.531260 
# 
# 
# High freq. dielectric constant tensor:
#      x y z
#    x 1.737220 0.000000 0.000000 
#    y 0.000000 1.737220 0.000000 
#    z 0.000000 0.000000 1.736020 
# 
# From -- ./inp_files/3418.got.cif
#   From: 2010.03.12/outbox.cif.g09.slc.cpg/sg152_2_cif.got.tgz:3418.got - 2010.04.03 13:45:27.
