data_PCOD8322839
_publ_section_title
;
Structure prediction by ZEFSAII (Michael W. Deem and Ramdas Pophale) SiO2 
 PCOD8322839
Probable space group: P 3 1 C
;
_chemical_formula_sum "Si O2"
_cell_formula_units_Z 48
_cell_length_a 18.608688
_cell_length_b 18.608688
_cell_length_c 9.676482
_cell_angle_alpha 90.000000
_cell_angle_beta 90.000000
_cell_angle_gamma 120.000000
_cell_volume 2901.881231
_symmetry_space_group_name_H-M "P 3 1 C"
_symmetry_group_IT_number 159
_symmetry_cell_setting 'hexagonal'
loop_
_space_group_symop_operation_xyz
x,y,z
-y,x-y,z
-x+y,-x,z
y,x,1/2+z
x-y,-y,1/2+z
-x,-x+y,1/2+z
loop_
_atom_site_type_symbol
_atom_site_label
_atom_site_fract_x
_atom_site_fract_y
_atom_site_fract_z
Si Si1 0.507415 0.333650 0.808290
Si Si2 0.333650 0.826235 0.979507
Si Si3 0.492585 0.826235 0.979508
Si Si4 0.244843 0.322023 0.984193
Si Si5 0.173765 0.507415 0.308290
Si Si6 0.077181 0.322023 0.303604
Si Si7 0.922819 0.244842 0.484193
Si Si8 0.077181 0.755157 0.303604
O O1 0.509943 0.332902 0.643899
O O2 0.527547 0.263773 0.864540
O O3 0.576414 0.423585 0.867175
O O4 0.415298 0.310942 0.855012
O O5 0.423586 0.847172 0.920622
O O6 0.263774 0.736226 0.923258
O O7 0.332902 0.822959 0.143899
O O8 0.310941 0.895643 0.932785
O O9 0.584702 0.895643 0.932785
O O10 0.152028 0.304055 0.961070
O O11 0.259644 0.310222 0.143899
O O12 0.256891 0.256890 0.893899
O O13 0.104356 0.415298 0.355011
O O14 0.050578 0.310221 0.143899
O O15 0.152028 0.304056 0.326726
O O16 0.000000 0.256891 0.393899
#
# Coordination Sequence:
#
# PCOD8322839 Si02
#       8
#     6   6   6   6   6   6   6   6
#     4   8  13  22  38  61  89 120 152 183 212 243
#     4   8  13  22  38  61  89 120 152 183 212 243
#     4   8  13  22  38  61  89 120 152 183 212 243
#     4   9  18  31  46  66  90 114 143 179 217 259
#     4   8  13  22  38  61  89 120 152 183 212 243
#     4   9  18  31  46  66  90 114 143 179 217 259
#     4   9  18  31  46  66  90 114 143 179 217 259
#     4   9  18  31  46  66  90 114 143 179 217 259
#
# _framework density 16.540994999999999
#
# number of rings (size 3 to 8) (size 9 to 14) (size 15 to 20)
#    0.000    3.500    0.000    3.500    0.000    4.000 
#    0.000    0.000    0.000    0.500    0.000    0.000 
#    0.000    4.000    0.000    0.000    0.000    0.000 
#
# Total GULP energy -594839.758042 kJ/mol
# GULP energy per Si atom -12392.494959 kJ/mol
# Density = 1.650335 g / cm^3
# Si number density = 16.540995 Si / 1000 Ang^3
#
#
#
# Elastic Constant Matrix: (Units=GPa)
#
#
# Indices 1 2 3 4 5 6 
#
# 1 87.6239 54.6058 42.0723 0.0000 -0.0001 0.0000
# 2 54.6058 87.6239 42.0723 0.0000 0.0001 0.0000
# 3 42.0723 42.0723 41.7377 0.0000 0.0000 0.0000
# 4 0.0000 0.0000 0.0000 18.8916 0.0000 0.0001
# 5 -0.0001 0.0001 0.0000 0.0000 18.8916 0.0000
# 6 0.0000 0.0000 0.0000 0.0001 0.0000 16.5091
#
#
#
# Elastic Compliance Matrix: (Units=1/GPa)
#
#
# Indices 1 2 3 4 5 6 
#
# 1 0.023852 -0.006434 -0.017558 0.000000 0.000000 0.000000
# 2 -0.006434 0.023852 -0.017558 0.000000 0.000000 0.000000
# 3 -0.017558 -0.017558 0.059357 0.000000 0.000000 0.000000
# 4 0.000000 0.000000 0.000000 0.052934 0.000000 0.000000
# 5 0.000000 0.000000 0.000000 0.000000 0.052934 0.000000
# 6 0.000000 0.000000 0.000000 0.000000 0.000000 0.060573
#
#
# Mechanical properties :
#
#
# Convention : Reuss Voigt Hill
#
# Bulk Modulus (GPa) = 41.73382 54.94294 48.33838
# Shear Modulus (GPa) = 13.71409 16.07414 14.89412
#
# Velocity S-wave (km/s) = 2.88253 3.12071 3.00398
# Velocity P-wave (km/s) = 6.03025 6.80246 6.42796
#
# Compressibility (1/GPa) = 0.02396138
#
# Stress axis : x y z
#
# Youngs Moduli (GPa) = 41.92454 41.92454 16.84730
#
# Poissons Ratio (x) = 0.26974 0.29581
# Poissons Ratio (y) = 0.26974 0.29581
# Poissons Ratio (z) = 0.73611 0.73611
#
# Static dielectric constant tensor:
#      x y z
#    x 3.116950 0.000000 0.000000 
#    y 0.000000 3.116950 0.000000 
#    z 0.000000 0.000000 2.579510 
# 
# 
# High freq. dielectric constant tensor:
#      x y z
#    x 1.632320 0.000000 0.000000 
#    y 0.000000 1.632320 0.000000 
#    z 0.000000 0.000000 1.583010 
# 
# From -- ./inp_files/504.got.cif
#   From: 2010.03.12/outbox.cif.g09.slc.cpg/sg159_cif.got.tgz:504.got - 2010.04.03 14:00:19.
