data_PCOD8322765
_publ_section_title
;
Structure prediction by ZEFSAII (Michael W. Deem and Ramdas Pophale) SiO2 
 PCOD8322765
Probable space group: P 3 C 1
;
_chemical_formula_sum "Si O2"
_cell_formula_units_Z 48
_cell_length_a 17.078621
_cell_length_b 17.078621
_cell_length_c 8.982420
_cell_angle_alpha 90.000000
_cell_angle_beta 90.000000
_cell_angle_gamma 120.000000
_cell_volume 2268.974378
_symmetry_space_group_name_H-M "P 3 C 1"
_symmetry_group_IT_number 158
_symmetry_cell_setting 'hexagonal'
loop_
_space_group_symop_operation_xyz
x,y,z
-y,x-y,z
-x+y,-x,z
-x+y,y,1/2+z
x,x-y,1/2+z
-y,-x,1/2+z
loop_
_atom_site_type_symbol
_atom_site_label
_atom_site_fract_x
_atom_site_fract_y
_atom_site_fract_z
Si Si1 0.922191 0.161936 0.846360
Si Si2 0.164522 0.530962 0.331410
Si Si3 0.073346 0.289533 0.049008
Si Si4 0.802646 0.993878 0.036364
Si Si5 0.304148 0.497770 0.494795
Si Si6 0.729892 0.282236 0.996279
Si Si7 0.008937 0.671733 0.839167
Si Si8 0.427209 0.241866 0.748868
O O1 0.848026 0.182993 0.781577
O O2 0.981711 0.165572 0.706118
O O3 0.978538 0.242186 0.962734
O O4 0.881774 0.063501 0.924590
O O5 0.238779 0.534664 0.444834
O O6 0.150259 0.614498 0.374729
O O7 0.069845 0.442778 0.363544
O O8 0.193798 0.534110 0.160267
O O9 0.113212 0.223080 0.020425
O O10 0.053513 0.297957 0.221728
O O11 0.139148 0.389063 0.983086
O O12 0.713957 0.001297 0.995672
O O13 0.769303 0.389722 0.023149
O O14 0.745147 0.262592 0.827831
O O15 0.785228 0.241737 0.079688
O O16 0.914423 0.589412 0.781957
#
# Coordination Sequence:
#
# PCOD8322765 Si02
#       8
#     6   6   6   6   6   6   6   6
#     4  11  24  39  71 100 129 183 223 282 351 405
#     4  11  23  43  63 100 131 182 234 284 348 418
#     4  11  23  44  69 100 137 182 229 286 363 421
#     4  11  22  42  68  98 138 172 228 280 345 425
#     4  11  24  41  69  94 141 182 232 293 350 419
#     4  10  22  39  62  90 126 170 216 254 333 384
#     4  10  22  40  66  95 132 178 225 283 345 411
#     4  11  20  42  62  91 130 167 217 274 319 409
#
# _framework density 21.154931000000001
#
# number of rings (size 3 to 8) (size 9 to 14) (size 15 to 20)
#    0.250    1.000    1.250    6.250    1.750    1.000 
#    9.750    0.000    5.500    0.000    0.000    0.000 
#    0.000    0.000    0.000    0.000    0.000    0.000 
#
# Total GULP energy -595030.772474 kJ/mol
# GULP energy per Si atom -12396.474427 kJ/mol
# Density = 2.110678 g / cm^3
# Si number density = 21.154931 Si / 1000 Ang^3
#
#
#
# Elastic Constant Matrix: (Units=GPa)
#
#
# Indices 1 2 3 4 5 6 
#
# 1 84.2223 25.0745 24.5114 -1.6256 0.0000 0.0000
# 2 25.0745 84.2223 24.5114 1.6256 0.0000 0.0000
# 3 24.5114 24.5114 72.6930 0.0000 0.0000 0.0000
# 4 -1.6256 1.6256 0.0000 27.8559 0.0000 0.0000
# 5 0.0000 0.0000 0.0000 0.0000 27.8559 -1.6256
# 6 0.0000 0.0000 0.0000 0.0000 -1.6256 29.5739
#
#
#
# Elastic Compliance Matrix: (Units=1/GPa)
#
#
# Indices 1 2 3 4 5 6 
#
# 1 0.013870 -0.003091 -0.003635 0.000990 0.000000 0.000000
# 2 -0.003091 0.013870 -0.003635 -0.000990 0.000000 0.000000
# 3 -0.003635 -0.003635 0.016208 0.000000 0.000000 0.000000
# 4 0.000990 -0.000990 0.000000 0.036015 0.000000 0.000000
# 5 0.000000 0.000000 0.000000 0.000000 0.036015 0.001980
# 6 0.000000 0.000000 0.000000 0.000000 0.001980 0.033922
#
#
# Mechanical properties :
#
#
# Convention : Reuss Voigt Hill
#
# Bulk Modulus (GPa) = 43.05169 43.25914 43.15541
# Shear Modulus (GPa) = 28.03261 28.19315 28.11288
#
# Velocity S-wave (km/s) = 3.64416 3.65458 3.64937
# Velocity P-wave (km/s) = 6.17263 6.18878 6.18071
#
# Compressibility (1/GPa) = 0.02322789
#
# Stress axis : x y z
#
# Youngs Moduli (GPa) = 72.09562 72.09562 61.69892
#
# Poissons Ratio (x) = 0.22283 0.22426
# Poissons Ratio (y) = 0.22283 0.22426
# Poissons Ratio (z) = 0.26206 0.26206
#
# Static dielectric constant tensor:
#      x y z
#    x 3.790830 0.000000 0.000000 
#    y 0.000000 3.790830 0.000000 
#    z 0.000000 0.000000 3.893650 
# 
# 
# High freq. dielectric constant tensor:
#      x y z
#    x 1.825180 0.000000 0.000000 
#    y 0.000000 1.825180 0.000000 
#    z 0.000000 0.000000 1.840360 
# 
# From -- ./inp_files/234.got.cif
#   From: 2010.03.12/outbox.cif.g09.slc.cpg/sg158_cif.got.tgz:234.got - 2010.04.03 13:59:47.
