data_PCOD8322820
_publ_section_title
;
Structure prediction by ZEFSAII (Michael W. Deem and Ramdas Pophale) SiO2 
 PCOD8322820
Probable space group: P 3 1 C
;
_chemical_formula_sum "Si O2"
_cell_formula_units_Z 36
_cell_length_a 8.537950
_cell_length_b 8.537950
_cell_length_c 27.080282
_cell_angle_alpha 90.000000
_cell_angle_beta 90.000000
_cell_angle_gamma 120.000000
_cell_volume 1709.586299
_symmetry_space_group_name_H-M "P 3 1 C"
_symmetry_group_IT_number 159
_symmetry_cell_setting 'hexagonal'
loop_
_space_group_symop_operation_xyz
x,y,z
-y,x-y,z
-x+y,-x,z
y,x,1/2+z
x-y,-y,1/2+z
-x,-x+y,1/2+z
loop_
_atom_site_type_symbol
_atom_site_label
_atom_site_fract_x
_atom_site_fract_y
_atom_site_fract_z
Si Si1 0.665192 0.989765 0.589430
Si Si2 0.545936 0.856460 0.695332
Si Si3 0.988112 0.792668 0.287080
Si Si4 0.340284 0.006584 0.549676
Si Si5 0.673158 0.999729 0.393946
Si Si6 0.338804 0.997877 0.933894
O O1 0.665867 0.958757 0.647815
O O2 0.729422 0.867433 0.560500
O O3 0.463318 0.933945 0.573583
O O4 0.802294 0.195674 0.574561
O O5 0.353657 0.853795 0.696084
O O6 0.666765 0.970799 0.741327
O O7 0.996599 0.689064 0.335183
O O8 0.816930 0.827713 0.286032
O O9 0.376049 0.025339 0.491813
O O10 0.602647 0.803704 0.418111
O O11 0.867777 0.134405 0.416934
O O12 0.529930 0.062314 0.406900
#
# Coordination Sequence:
#
# PCOD8322820 Si02
#       6
#     6   6   6   6   6   6
#     4  12  25  45  66 102 141 177 236 289 342 411
#     4  10  23  43  69  99 130 177 223 278 351 407
#     4  10  23  43  69  99 134 173 224 281 342 408
#     4  12  24  42  68  97 137 187 232 285 343 409
#     4  12  25  45  66 102 141 179 233 289 341 413
#     4  12  24  42  68  97 137 187 234 280 345 410
#
# _framework density 21.057728000000001
#
# number of rings (size 3 to 8) (size 9 to 14) (size 15 to 20)
#    0.667    0.000    3.333    5.000    4.667    0.000 
#    0.000    0.000    0.000    0.667    0.000    0.000 
#    0.000    0.000    0.000    0.000    0.000    0.000 
#
# Total GULP energy -446552.148526 kJ/mol
# GULP energy per Si atom -12404.226348 kJ/mol
# Density = 2.100980 g / cm^3
# Si number density = 21.057728 Si / 1000 Ang^3
#
#
#
# Elastic Constant Matrix: (Units=GPa)
#
#
# Indices 1 2 3 4 5 6 
#
# 1 81.3788 20.7041 50.6206 0.0000 2.4363 0.0000
# 2 20.7041 81.3788 50.6206 0.0000 -2.4363 0.0000
# 3 50.6206 50.6206 198.2071 0.0000 0.0000 0.0000
# 4 0.0000 0.0000 0.0000 17.8298 0.0000 -2.4363
# 5 2.4363 -2.4363 0.0000 0.0000 17.8298 0.0000
# 6 0.0000 0.0000 0.0000 -2.4363 0.0000 30.3374
#
#
#
# Elastic Compliance Matrix: (Units=1/GPa)
#
#
# Indices 1 2 3 4 5 6 
#
# 1 0.014891 -0.001773 -0.003350 0.000000 -0.002277 0.000000
# 2 -0.001773 0.014891 -0.003350 0.000000 0.002277 0.000000
# 3 -0.003350 -0.003350 0.006757 0.000000 0.000000 0.000000
# 4 0.000000 0.000000 0.000000 0.056708 0.000000 0.004554
# 5 -0.002277 0.002277 0.000000 0.000000 0.056708 0.000000
# 6 0.000000 0.000000 0.000000 0.004554 0.000000 0.033328
#
#
# Mechanical properties :
#
#
# Convention : Reuss Voigt Hill
#
# Bulk Modulus (GPa) = 51.04026 67.20613 59.12319
# Shear Modulus (GPa) = 24.18236 29.13402 26.65819
#
# Velocity S-wave (km/s) = 3.39246 3.72362 3.56189
# Velocity P-wave (km/s) = 6.29571 7.10434 6.71221
#
# Compressibility (1/GPa) = 0.01959238
#
# Stress axis : x y z
#
# Youngs Moduli (GPa) = 67.15256 67.15256 148.00391
#
# Poissons Ratio (x) = 0.11904 0.49588
# Poissons Ratio (y) = 0.11904 0.49588
# Poissons Ratio (z) = 0.22499 0.22499
#
# Static dielectric constant tensor:
#      x y z
#    x 3.631540 0.000000 0.000000 
#    y 0.000000 3.631540 0.000000 
#    z 0.000000 0.000000 3.790030 
# 
# 
# High freq. dielectric constant tensor:
#      x y z
#    x 1.820310 0.000000 0.000000 
#    y 0.000000 1.820310 0.000000 
#    z 0.000000 0.000000 1.837570 
# 
# From -- ./inp_files/1274.got.cif
#   From: 2010.03.12/outbox.cif.g09.slc.cpg/sg159_cif.got.tgz:1274.got - 2010.04.03 14:00:19.
