data_PCOD8322303
_publ_section_title
;
Structure prediction by ZEFSAII (Michael W. Deem and Ramdas Pophale) SiO2 
 PCOD8322303
Probable space group: P 32 2 1
;
_chemical_formula_sum "Si O2"
_cell_formula_units_Z 39
_cell_length_a 14.615724
_cell_length_b 14.615724
_cell_length_c 11.483663
_cell_angle_alpha 90.000000
_cell_angle_beta 90.000000
_cell_angle_gamma 120.000000
_cell_volume 2124.475551
_symmetry_space_group_name_H-M "P 32 2 1"
_symmetry_group_IT_number 154
_symmetry_cell_setting 'hexagonal'
loop_
_space_group_symop_operation_xyz
x,y,z
-y,x-y,2/3+z
-x+y,-x,1/3+z
x-y,-y,1/3-z
-x,-x+y,2/3-z
y,x,-z
loop_
_atom_site_type_symbol
_atom_site_label
_atom_site_fract_x
_atom_site_fract_y
_atom_site_fract_z
Si Si1 0.799093 0.539777 0.833831
Si Si2 0.208836 0.361050 0.734418
Si Si3 0.424211 0.788738 0.505312
Si Si4 0.685016 0.685016 0.500000
Si Si5 0.559249 0.472230 0.372165
Si Si6 0.616130 0.195839 0.557098
Si Si7 0.403691 0.340527 0.711628
O O1 0.836306 0.631026 0.738001
O O2 0.825515 0.448371 0.787357
O O3 0.674857 0.498220 0.854075
O O4 0.852249 0.596601 0.956314
O O5 0.255395 0.476807 0.792740
O O6 0.287255 0.313643 0.758204
O O7 0.088601 0.290885 0.779727
O O8 0.416540 0.877176 0.429118
O O9 0.444291 0.820831 0.639828
O O10 0.316062 0.683336 0.484210
O O11 0.647290 0.589544 0.408125
O O12 0.444102 0.460462 0.370677
O O13 0.648187 0.119319 0.492663
#
# Coordination Sequence:
#
# PCOD8322303 Si02
#       7
#     6   6   6   3   6   6   6
#     4  10  18  32  51  76 106 152 194 224 290 349
#     4  10  22  34  51  74 106 150 197 250 280 336
#     4  10  21  32  46  81 111 152 194 224 285 346
#     4  12  18  34  54  74 102 156 210 250 288 334
#     4  10  20  31  50  72 105 147 201 240 269 342
#     4  12  19  31  52  75 114 157 186 224 283 373
#     4  10  20  34  50  77 111 154 186 238 288 339
#
# _framework density 18.357472000000001
#
# number of rings (size 3 to 8) (size 9 to 14) (size 15 to 20)
#    0.000    1.846    3.077    6.000    0.000    2.462 
#    0.000    0.000    0.000    0.000    0.000    0.000 
#    0.000    0.000  125.538    0.000    0.000    3.385 
#
# Total GULP energy -483141.666786 kJ/mol
# GULP energy per Si atom -12388.247866 kJ/mol
# Density = 1.831569 g / cm^3
# Si number density = 18.357472 Si / 1000 Ang^3
#
#
#
# Elastic Constant Matrix: (Units=GPa)
#
#
# Indices 1 2 3 4 5 6 
#
# 1 76.7926 32.2752 46.2818 -17.6463 0.0000 0.0000
# 2 32.2752 76.7926 46.2818 17.6463 0.0000 0.0000
# 3 46.2818 46.2818 114.9276 0.0000 0.0000 0.0000
# 4 -17.6463 17.6463 0.0000 -0.6733 0.0000 0.0000
# 5 0.0000 0.0000 0.0000 0.0000 -0.6733 -17.6463
# 6 0.0000 0.0000 0.0000 0.0000 -17.6463 22.2587
#
#
#
# Elastic Compliance Matrix: (Units=1/GPa)
#
#
# Indices 1 2 3 4 5 6 
#
# 1 0.007480 0.006449 -0.005609 -0.027034 0.000000 0.000000
# 2 0.006449 0.007480 -0.005609 0.027034 0.000000 0.000000
# 3 -0.005609 -0.005609 0.013219 0.000000 0.000000 0.000000
# 4 -0.027034 0.027034 0.000000 -0.068199 0.000000 0.000000
# 5 0.000000 0.000000 0.000000 0.000000 -0.068199 -0.054067
# 6 0.000000 0.000000 0.000000 0.000000 -0.054067 0.002063
#
#
# Mechanical properties :
#
#
# Convention : Reuss Voigt Hill
#
# Bulk Modulus (GPa) = 53.64832 57.57669 55.61250
# Shear Modulus (GPa) = -55.30747 13.76071 -20.77338
#
# Velocity S-wave (km/s) = -5.49486 2.74085 -3.36758
# Velocity P-wave (km/s) = 3.31214 6.43806 3.90374
#
# Compressibility (1/GPa) = 0.01863991
#
# Stress axis : x y z
#
# Youngs Moduli (GPa) = 133.68493 133.68493 75.64918
#
# Poissons Ratio (x) = -0.86211 0.42434
# Poissons Ratio (y) = -0.86211 0.42434
# Poissons Ratio (z) = 0.74988 0.74988
#
# Static dielectric constant tensor:
#      x y z
#    x 3.007720 0.000000 0.000000 
#    y 0.000000 3.007720 0.000000 
#    z 0.000000 0.000000 3.477720 
# 
# 
# High freq. dielectric constant tensor:
#      x y z
#    x 1.676690 0.000000 0.000000 
#    y 0.000000 1.676690 0.000000 
#    z 0.000000 0.000000 1.726360 
# 
# From -- ./inp_files/1690.got.cif
#   From: 2010.03.12/outbox.cif.g09.slc.cpg/sg154_1_cif.got.tgz:1690.got - 2010.04.03 13:51:21.
