data_PCOD8322382
_publ_section_title
;
Structure prediction by ZEFSAII (Michael W. Deem and Ramdas Pophale) SiO2 
 PCOD8322382
Probable space group: P 32 2 1
;
_chemical_formula_sum "Si O2"
_cell_formula_units_Z 42
_cell_length_a 8.751353
_cell_length_b 8.751353
_cell_length_c 28.219048
_cell_angle_alpha 90.000000
_cell_angle_beta 90.000000
_cell_angle_gamma 120.000000
_cell_volume 1871.644638
_symmetry_space_group_name_H-M "P 32 2 1"
_symmetry_group_IT_number 154
_symmetry_cell_setting 'hexagonal'
loop_
_space_group_symop_operation_xyz
x,y,z
-y,x-y,2/3+z
-x+y,-x,1/3+z
x-y,-y,1/3-z
-x,-x+y,2/3-z
y,x,-z
loop_
_atom_site_type_symbol
_atom_site_label
_atom_site_fract_x
_atom_site_fract_y
_atom_site_fract_z
Si Si1 0.096662 0.476946 0.619189
Si Si2 0.392506 0.702239 0.379126
Si Si3 0.106047 0.021392 0.948852
Si Si4 0.826171 0.275441 0.858547
Si Si5 0.386957 0.409709 0.055735
Si Si6 0.932842 0.851451 0.132176
Si Si7 0.766989 0.309982 0.453825
O O1 0.213008 0.591350 0.663236
O O2 0.106035 0.296813 0.616641
O O3 0.160364 0.584904 0.569796
O O4 0.901432 0.438222 0.629471
O O5 0.514310 0.683966 0.418907
O O6 0.192611 0.592220 0.398475
O O7 0.923160 0.939250 0.920515
O O8 0.249625 0.203887 0.923754
O O9 0.054121 0.054121 0.000000
O O10 0.656075 0.268822 0.834652
O O11 0.000000 0.429931 0.833334
O O12 0.820425 0.091563 0.853011
O O13 0.540079 0.394042 0.080915
O O14 0.384398 0.384398 0.000000
O O15 0.759484 0.659374 0.135519
O O16 0.932613 0.000000 0.166667
#
# Coordination Sequence:
#
# PCOD8322382 Si02
#       7
#     6   6   6   6   6   6   6
#     4  11  25  43  73 104 141 178 245 294 352 423
#     4  11  24  43  71 101 138 185 231 294 351 423
#     4  10  23  44  72  99 137 186 231 285 357 429
#     4  11  26  45  71  98 142 187 235 287 363 430
#     4  10  21  41  68  99 136 183 230 288 354 419
#     4  11  25  45  69  97 136 184 232 286 361 428
#     4  12  26  44  70 103 143 184 240 299 354 428
#
# _framework density 22.440156999999999
#
# number of rings (size 3 to 8) (size 9 to 14) (size 15 to 20)
#    0.000    1.143    2.857    2.571    8.000    1.714 
#    0.000    0.000    0.000    0.000    0.000    0.000 
#    0.000    0.000    0.000    0.000    0.000    0.000 
#
# Total GULP energy -520902.304241 kJ/mol
# GULP energy per Si atom -12402.435815 kJ/mol
# Density = 2.238908 g / cm^3
# Si number density = 22.440157 Si / 1000 Ang^3
#
#
#
# Elastic Constant Matrix: (Units=GPa)
#
#
# Indices 1 2 3 4 5 6 
#
# 1 86.8567 21.5587 25.8593 -0.5623 0.0000 0.0000
# 2 21.5587 86.8567 25.8593 0.5623 0.0000 0.0000
# 3 25.8593 25.8593 92.5287 0.0000 0.0000 0.0000
# 4 -0.5623 0.5623 0.0000 36.1787 0.0000 0.0000
# 5 0.0000 0.0000 0.0000 0.0000 36.1787 -0.5623
# 6 0.0000 0.0000 0.0000 0.0000 -0.5623 32.6490
#
#
#
# Elastic Compliance Matrix: (Units=1/GPa)
#
#
# Indices 1 2 3 4 5 6 
#
# 1 0.012981 -0.002338 -0.002974 0.000238 0.000000 0.000000
# 2 -0.002338 0.012981 -0.002974 -0.000238 0.000000 0.000000
# 3 -0.002974 -0.002974 0.012470 0.000000 0.000000 0.000000
# 4 0.000238 -0.000238 0.000000 0.027648 0.000000 0.000000
# 5 0.000000 0.000000 0.000000 0.000000 0.027648 0.000476
# 6 0.000000 0.000000 0.000000 0.000000 0.000476 0.030637
#
#
# Mechanical properties :
#
#
# Convention : Reuss Voigt Hill
#
# Bulk Modulus (GPa) = 45.74999 45.86629 45.80814
# Shear Modulus (GPa) = 33.73293 33.86564 33.79929
#
# Velocity S-wave (km/s) = 3.88137 3.88900 3.88519
# Velocity P-wave (km/s) = 6.36542 6.37569 6.37056
#
# Compressibility (1/GPa) = 0.02185793
#
# Stress axis : x y z
#
# Youngs Moduli (GPa) = 77.03819 77.03819 80.19281
#
# Poissons Ratio (x) = 0.18011 0.23852
# Poissons Ratio (y) = 0.18011 0.23852
# Poissons Ratio (z) = 0.22914 0.22914
#
# Static dielectric constant tensor:
#      x y z
#    x 4.142030 0.000000 0.000000 
#    y 0.000000 4.142030 0.000000 
#    z 0.000000 0.000000 3.965890 
# 
# 
# High freq. dielectric constant tensor:
#      x y z
#    x 1.881090 0.000000 0.000000 
#    y 0.000000 1.881090 0.000000 
#    z 0.000000 0.000000 1.891470 
# 
# From -- ./inp_files/3776.got.cif
#   From: 2010.03.12/outbox.cif.g09.slc.cpg/sg154_2_cif.got.tgz:3776.got - 2010.04.03 13:51:21.
