data_PCOD8322772
_publ_section_title
;
Structure prediction by ZEFSAII (Michael W. Deem and Ramdas Pophale) SiO2 
 PCOD8322772
Probable space group: P 3 C 1
;
_chemical_formula_sum "Si O2"
_cell_formula_units_Z 42
_cell_length_a 11.635331
_cell_length_b 11.635331
_cell_length_c 17.340579
_cell_angle_alpha 90.000000
_cell_angle_beta 90.000000
_cell_angle_gamma 120.000000
_cell_volume 2033.067094
_symmetry_space_group_name_H-M "P 3 C 1"
_symmetry_group_IT_number 158
_symmetry_cell_setting 'hexagonal'
loop_
_space_group_symop_operation_xyz
x,y,z
-y,x-y,z
-x+y,-x,z
-x+y,y,1/2+z
x,x-y,1/2+z
-y,-x,1/2+z
loop_
_atom_site_type_symbol
_atom_site_label
_atom_site_fract_x
_atom_site_fract_y
_atom_site_fract_z
Si Si1 0.047135 0.766851 0.670220
Si Si2 0.199092 0.506312 0.049095
Si Si3 0.667105 0.595513 0.313601
Si Si4 0.267915 0.041130 0.634923
Si Si5 0.928408 0.595513 0.284590
Si Si6 0.047135 0.766851 0.427971
Si Si7 0.958870 0.732085 0.963268
O O1 0.126408 0.706836 0.624801
O O2 0.026470 0.718917 0.759082
O O3 0.904186 0.719458 0.632890
O O4 0.124141 0.926254 0.664012
O O5 0.356708 0.549625 0.049095
O O6 0.126408 0.419572 0.973390
O O7 0.776274 0.552548 0.299095
O O8 0.523366 0.476634 0.299095
O O9 0.666940 0.628615 0.403499
O O10 0.371385 0.038325 0.694692
O O11 0.296656 0.007630 0.549095
O O12 0.026470 0.718917 0.339109
O O13 0.904186 0.719458 0.465301
O O14 0.124141 0.926254 0.434178
#
# Coordination Sequence:
#
# PCOD8322772 Si02
#       7
#     6   6   6   6   6   6   6
#     4  11  22  41  65  97 129 172 217 272 334 379
#     4  10  24  38  62 100 136 170 206 268 320 396
#     4  10  24  41  63  88 127 170 215 268 331 398
#     4  11  21  39  66  95 125 163 220 274 324 382
#     4  10  24  41  63  88 127 170 215 268 331 398
#     4  11  22  41  65  97 129 172 217 272 334 379
#     4  11  21  39  66  95 125 163 220 274 324 382
#
# _framework density 20.658443999999999
#
# number of rings (size 3 to 8) (size 9 to 14) (size 15 to 20)
#    0.286    1.143    2.857    1.714    4.000    0.000 
#    0.000    2.857    0.000    0.000    0.000    0.000 
#    0.000    0.000    0.000    0.000    0.000    0.000 
#
# Total GULP energy -520588.160606 kJ/mol
# GULP energy per Si atom -12394.956205 kJ/mol
# Density = 2.061142 g / cm^3
# Si number density = 20.658444 Si / 1000 Ang^3
#
#
#
# Elastic Constant Matrix: (Units=GPa)
#
#
# Indices 1 2 3 4 5 6 
#
# 1 104.7873 47.1506 65.6755 0.0000 0.0000 0.0000
# 2 47.1506 104.7873 65.6755 0.0000 0.0000 0.0000
# 3 65.6755 65.6755 170.3392 0.0000 0.0000 0.0000
# 4 0.0000 0.0000 0.0000 18.5741 0.0000 0.0000
# 5 0.0000 0.0000 0.0000 0.0000 18.5741 0.0000
# 6 0.0000 0.0000 0.0000 0.0000 0.0000 28.8183
#
#
#
# Elastic Compliance Matrix: (Units=1/GPa)
#
#
# Indices 1 2 3 4 5 6 
#
# 1 0.013611 -0.003739 -0.003806 0.000000 0.000000 0.000000
# 2 -0.003739 0.013611 -0.003806 0.000000 0.000000 0.000000
# 3 -0.003806 -0.003806 0.008806 0.000000 0.000000 0.000000
# 4 0.000000 0.000000 0.000000 0.053838 0.000000 0.000000
# 5 0.000000 0.000000 0.000000 0.000000 0.053838 0.000000
# 6 0.000000 0.000000 0.000000 0.000000 0.000000 0.034700
#
#
# Mechanical properties :
#
#
# Convention : Reuss Voigt Hill
#
# Bulk Modulus (GPa) = 75.04726 81.87967 78.46346
# Shear Modulus (GPa) = 24.32503 26.62078 25.47290
#
# Velocity S-wave (km/s) = 3.43517 3.59362 3.51529
# Velocity P-wave (km/s) = 7.22083 7.54585 7.38513
#
# Compressibility (1/GPa) = 0.01332494
#
# Stress axis : x y z
#
# Youngs Moduli (GPa) = 73.46925 73.46925 113.56238
#
# Poissons Ratio (x) = 0.27470 0.43225
# Poissons Ratio (y) = 0.27470 0.43225
# Poissons Ratio (z) = 0.27965 0.27965
#
# Static dielectric constant tensor:
#      x y z
#    x 3.591060 0.000000 0.000000 
#    y 0.000000 3.591060 0.000000 
#    z 0.000000 0.000000 3.971270 
# 
# 
# High freq. dielectric constant tensor:
#      x y z
#    x 1.801040 0.000000 0.000000 
#    y 0.000000 1.801040 0.000000 
#    z 0.000000 0.000000 1.820950 
# 
# From -- ./inp_files/660.got.cif
#   From: 2010.03.12/outbox.cif.g09.slc.cpg/sg158_cif.got.tgz:660.got - 2010.04.03 13:59:47.
