data_PCOD8322302
_publ_section_title
;
Structure prediction by ZEFSAII (Michael W. Deem and Ramdas Pophale) SiO2 
 PCOD8322302
Probable space group: P 32 2 1
;
_chemical_formula_sum "Si O2"
_cell_formula_units_Z 48
_cell_length_a 11.348237
_cell_length_b 11.348237
_cell_length_c 24.586575
_cell_angle_alpha 90.000000
_cell_angle_beta 90.000000
_cell_angle_gamma 120.000000
_cell_volume 2742.113710
_symmetry_space_group_name_H-M "P 32 2 1"
_symmetry_group_IT_number 154
_symmetry_cell_setting 'hexagonal'
loop_
_space_group_symop_operation_xyz
x,y,z
-y,x-y,2/3+z
-x+y,-x,1/3+z
x-y,-y,1/3-z
-x,-x+y,2/3-z
y,x,-z
loop_
_atom_site_type_symbol
_atom_site_label
_atom_site_fract_x
_atom_site_fract_y
_atom_site_fract_z
Si Si1 0.424718 0.095533 0.440440
Si Si2 0.297540 0.803474 0.459798
Si Si3 0.567020 0.498287 0.557682
Si Si4 0.183641 0.854750 0.678344
Si Si5 0.571423 0.850553 0.417849
Si Si6 0.511881 0.195172 0.559165
Si Si7 0.911979 0.596117 0.704514
Si Si8 0.851987 0.570459 0.095876
O O1 0.433802 0.116418 0.505178
O O2 0.386249 0.194134 0.409357
O O3 0.569164 0.125064 0.417950
O O4 0.307327 0.936546 0.430425
O O5 0.450066 0.827102 0.458605
O O6 0.197479 0.656075 0.432716
O O7 0.246801 0.796761 0.521265
O O8 0.547357 0.547357 0.500000
O O9 0.724379 0.599111 0.575420
O O10 0.539677 0.346891 0.553975
O O11 0.462334 0.502561 0.601152
O O12 0.298211 0.879222 0.722650
O O13 0.221964 0.802731 0.624190
O O14 0.033907 0.750409 0.699334
O O15 0.194828 0.000000 0.666667
O O16 0.532431 0.851581 0.354305
O O17 0.702029 0.996306 0.434623
#
# Coordination Sequence:
#
# PCOD8322302 Si02
#       8
#     6   6   6   6   6   6   6   6
#     4  10  18  31  52  79 105 137 173 225 271 316
#     4   9  18  31  52  72 106 137 173 216 264 322
#     4  10  18  33  52  79 107 133 176 228 270 314
#     4  10  20  34  53  73 104 140 178 222 267 317
#     4   9  20  32  51  77 106 139 172 219 272 323
#     4   9  18  31  49  79 104 132 174 217 265 314
#     4  10  21  32  54  82 108 136 181 226 276 322
#     4   9  19  34  50  77 103 138 175 215 271 326
#
# _framework density 17.504745
#
# number of rings (size 3 to 8) (size 9 to 14) (size 15 to 20)
#    0.000    2.500    1.250    0.750    8.750    0.000 
#    0.000    0.000    5.500    0.750    0.000    0.000 
#    0.000    0.000    0.000    0.000    0.000    0.000 
#
# Total GULP energy -594794.921516 kJ/mol
# GULP energy per Si atom -12391.560865 kJ/mol
# Density = 1.746490 g / cm^3
# Si number density = 17.504745 Si / 1000 Ang^3
#
#
#
# Elastic Constant Matrix: (Units=GPa)
#
#
# Indices 1 2 3 4 5 6 
#
# 1 74.0824 42.0157 52.4937 0.1543 -0.0001 0.0000
# 2 42.0157 74.0824 52.4937 -0.1543 0.0001 0.0000
# 3 52.4937 52.4937 104.1290 0.0000 0.0000 0.0000
# 4 0.1543 -0.1543 0.0000 23.2639 0.0000 0.0001
# 5 -0.0001 0.0001 0.0000 0.0000 23.2639 0.1543
# 6 0.0000 0.0000 0.0000 0.0001 0.1543 16.0334
#
#
#
# Elastic Compliance Matrix: (Units=1/GPa)
#
#
# Indices 1 2 3 4 5 6 
#
# 1 0.023508 -0.007679 -0.007980 -0.000207 0.000000 0.000000
# 2 -0.007679 0.023508 -0.007980 0.000207 0.000000 0.000000
# 3 -0.007980 -0.007980 0.017649 0.000000 0.000000 0.000000
# 4 -0.000207 0.000207 0.000000 0.042988 0.000000 0.000000
# 5 0.000000 0.000000 0.000000 0.000000 0.042988 -0.000414
# 6 0.000000 0.000000 0.000000 0.000000 -0.000414 0.062374
#
#
# Mechanical properties :
#
#
# Convention : Reuss Voigt Hill
#
# Bulk Modulus (GPa) = 57.50944 60.70001 59.10473
# Shear Modulus (GPa) = 18.79065 19.53162 19.16113
#
# Velocity S-wave (km/s) = 3.27992 3.34397 3.31210
# Velocity P-wave (km/s) = 6.87523 7.04706 6.96168
#
# Compressibility (1/GPa) = 0.01738845
#
# Stress axis : x y z
#
# Youngs Moduli (GPa) = 42.53793 42.53793 56.65899
#
# Poissons Ratio (x) = 0.32663 0.45215
# Poissons Ratio (y) = 0.32663 0.45215
# Poissons Ratio (z) = 0.33946 0.33946
#
# Static dielectric constant tensor:
#      x y z
#    x 3.312820 0.000000 0.000000 
#    y 0.000000 3.312820 0.000000 
#    z 0.000000 0.000000 3.313450 
# 
# 
# High freq. dielectric constant tensor:
#      x y z
#    x 1.661800 0.000000 0.000000 
#    y 0.000000 1.661800 0.000000 
#    z 0.000000 0.000000 1.680250 
# 
# From -- ./inp_files/3544.got.cif
#   From: 2010.03.12/outbox.cif.g09.slc.cpg/sg154_2_cif.got.tgz:3544.got - 2010.04.03 13:51:21.
