data_PCOD8322071
_publ_section_title
;
Structure prediction by ZEFSAII (Michael W. Deem and Ramdas Pophale) SiO2 
 PCOD8322071
Probable space group: P 31 2 1
;
_chemical_formula_sum "Si O2"
_cell_formula_units_Z 42
_cell_length_a 9.190733
_cell_length_b 9.190733
_cell_length_c 29.438906
_cell_angle_alpha 90.000000
_cell_angle_beta 90.000000
_cell_angle_gamma 120.000000
_cell_volume 2153.538289
_symmetry_space_group_name_H-M "P 31 2 1"
_symmetry_group_IT_number 152
_symmetry_cell_setting 'hexagonal'
loop_
_space_group_symop_operation_xyz
x,y,z
-y,x-y,1/3+z
-x+y,-x,2/3+z
x-y,-y,2/3-z
-x,-x+y,1/3-z
y,x,-z
loop_
_atom_site_type_symbol
_atom_site_label
_atom_site_fract_x
_atom_site_fract_y
_atom_site_fract_z
Si Si1 0.986458 0.182610 0.425406
Si Si2 0.381894 0.025237 0.178465
Si Si3 0.644977 0.500108 0.387303
Si Si4 0.432608 0.949259 0.629290
Si Si5 0.948522 0.142416 0.115364
Si Si6 0.282679 0.349235 0.548359
Si Si7 0.438737 0.334093 0.214268
O O1 0.916160 0.233389 0.468571
O O2 0.925789 0.248198 0.381807
O O3 0.189694 0.274486 0.426449
O O4 0.910228 0.983812 0.425447
O O5 0.495760 0.194565 0.207946
O O6 0.219702 0.902196 0.207153
O O7 0.499909 0.952324 0.163469
O O8 0.543032 0.509934 0.344667
O O9 0.778240 0.441465 0.373213
O O10 0.721377 0.673466 0.414433
O O11 0.512569 0.364204 0.421054
O O12 0.560786 0.082309 0.592729
O O13 0.000000 0.210888 0.166667
O O14 0.761328 0.988166 0.116778
O O15 0.378255 0.378255 0.500000
#
# Coordination Sequence:
#
# PCOD8322071 Si02
#       7
#     6   6   6   6   6   6   6
#     4  10  19  39  64  85 123 152 193 252 311 367
#     4  10  20  35  60  92 125 155 193 249 317 358
#     4  11  24  41  61  84 122 160 208 246 296 367
#     4  10  24  42  61  84 122 167 202 246 306 368
#     4  11  20  37  64  93 116 146 204 256 301 356
#     4  10  20  37  63  92 121 158 197 250 312 359
#     4  10  21  37  61  90 121 158 196 250 307 371
#
# _framework density 19.502790000000001
#
# number of rings (size 3 to 8) (size 9 to 14) (size 15 to 20)
#    0.000    1.714    2.857    1.714    6.000    0.571 
#    5.143    0.714    3.143    0.000    0.000    0.000 
#    0.000    0.000    0.000    0.000    0.000    0.000 
#
# Total GULP energy -520582.910683 kJ/mol
# GULP energy per Si atom -12394.831207 kJ/mol
# Density = 1.945840 g / cm^3
# Si number density = 19.502790 Si / 1000 Ang^3
#
#
#
# Elastic Constant Matrix: (Units=GPa)
#
#
# Indices 1 2 3 4 5 6 
#
# 1 79.4188 31.7539 41.2852 1.7594 0.0006 0.0000
# 2 31.7539 79.4188 41.2852 -1.7594 -0.0006 0.0000
# 3 41.2852 41.2852 91.8278 0.0000 0.0000 0.0000
# 4 1.7594 -1.7594 0.0000 15.8868 0.0000 -0.0006
# 5 0.0006 -0.0006 0.0000 0.0000 15.8868 1.7594
# 6 0.0000 0.0000 0.0000 -0.0006 1.7594 23.8324
#
#
#
# Elastic Compliance Matrix: (Units=1/GPa)
#
#
# Indices 1 2 3 4 5 6 
#
# 1 0.017329 -0.003824 -0.006072 -0.002343 -0.000001 0.000000
# 2 -0.003824 0.017329 -0.006072 0.002343 0.000001 0.000000
# 3 -0.006072 -0.006072 0.016349 0.000000 0.000000 0.000000
# 4 -0.002343 0.002343 0.000000 0.063464 0.000000 0.000002
# 5 -0.000001 0.000001 0.000000 0.000000 0.063464 -0.004685
# 6 0.000000 0.000000 0.000000 0.000002 -0.004685 0.042306
#
#
# Mechanical properties :
#
#
# Convention : Reuss Voigt Hill
#
# Bulk Modulus (GPa) = 52.43226 53.25710 52.84468
# Shear Modulus (GPa) = 19.33993 20.21061 19.77527
#
# Velocity S-wave (km/s) = 3.15246 3.22264 3.18775
# Velocity P-wave (km/s) = 6.33984 6.41981 6.37995
#
# Compressibility (1/GPa) = 0.01907223
#
# Stress axis : x y z
#
# Youngs Moduli (GPa) = 57.70806 57.70806 61.16443
#
# Poissons Ratio (x) = 0.22068 0.37136
# Poissons Ratio (y) = 0.22068 0.37136
# Poissons Ratio (z) = 0.35038 0.35038
#
# Static dielectric constant tensor:
#      x y z
#    x 3.675950 0.000000 0.000000 
#    y 0.000000 3.675950 0.000000 
#    z 0.000000 0.000000 3.515120 
# 
# 
# High freq. dielectric constant tensor:
#      x y z
#    x 1.763600 0.000000 0.000000 
#    y 0.000000 1.763600 0.000000 
#    z 0.000000 0.000000 1.744040 
# 
# From -- ./inp_files/3715.got.cif
#   From: 2010.03.12/outbox.cif.g09.slc.cpg/sg152_2_cif.got.tgz:3715.got - 2010.04.03 13:45:27.
