data_PCOD8322620
_publ_section_title
;
Structure prediction by ZEFSAII (Michael W. Deem and Ramdas Pophale) SiO2 
 PCOD8322620
Probable space group: R 3 2
;
_chemical_formula_sum "Si O2"
_cell_formula_units_Z 84
_cell_length_a 15.248127
_cell_length_b 15.248127
_cell_length_c 18.464237
_cell_angle_alpha 90.000000
_cell_angle_beta 90.000000
_cell_angle_gamma 120.000000
_cell_volume 3717.876837
_symmetry_space_group_name_H-M "R 3 2"
_symmetry_group_IT_number 155
_symmetry_cell_setting 'hexagonal'
loop_
_space_group_symop_operation_xyz
x,y,z
-y,x-y,z
-x+y,-x,z
x-y,-y,-z
-x,-x+y,-z
y,x,-z
2/3+x,1/3+y,1/3+z
2/3-y,1/3+x-y,1/3+z
2/3-x+y,1/3-x,1/3+z
2/3+x-y,1/3-y,1/3-z
2/3-x,1/3-x+y,1/3-z
2/3+y,1/3+x,1/3-z
1/3+x,2/3+y,2/3+z
1/3-y,2/3+x-y,2/3+z
1/3-x+y,2/3-x,2/3+z
1/3+x-y,2/3-y,2/3-z
1/3-x,2/3-x+y,2/3-z
1/3+y,2/3+x,2/3-z
loop_
_atom_site_type_symbol
_atom_site_label
_atom_site_fract_x
_atom_site_fract_y
_atom_site_fract_z
Si Si1 0.957926 0.785755 0.346438
Si Si2 0.375407 0.880911 0.820230
Si Si3 0.333334 0.666667 0.331283
Si Si4 0.000000 0.000000 0.164625
Si Si5 0.939463 0.249840 0.283699
Si Si6 0.249840 0.310374 0.216302
O O1 0.956876 0.887385 0.365856
O O2 0.841596 0.695253 0.332998
O O3 0.019001 0.800778 0.271985
O O4 0.015694 0.767279 0.411538
O O5 0.376459 0.779281 0.800818
O O6 0.317639 0.899383 0.755128
O O7 0.314332 0.865891 0.894682
O O8 0.491737 0.971413 0.833669
O O9 0.333334 0.666667 0.416663
O O10 0.031549 0.333334 0.333334
O O11 0.333334 0.301782 0.166667
#
# Coordination Sequence:
#
# PCOD8322620 Si02
#       6
#    18  18   6   6  18  18
#     4  11  24  40  69  94 124 173 213 266 320 396
#     4  11  24  40  69  94 124 173 213 266 320 396
#     4  12  21  42  67  89 124 165 219 250 317 397
#     4  12  21  42  67  89 124 165 219 250 317 397
#     4  11  24  42  64  94 131 164 215 268 327 381
#     4  11  24  42  64  94 131 164 215 268 327 381
#
# _framework density 22.593540000000001
#
# number of rings (size 3 to 8) (size 9 to 14) (size 15 to 20)
#    0.000    0.857    4.286    1.286   12.000    0.000 
#    0.000    0.000    0.000    0.000    0.000    0.000 
#    0.000    0.000    0.000    0.000    0.000    0.000 
#
# Total GULP energy -347109.993370 kJ/mol
# GULP energy per Si atom -12396.785477 kJ/mol
# Density = 2.254212 g / cm^3
# Si number density = 22.593540 Si / 1000 Ang^3
#
#
#
# Elastic Constant Matrix: (Units=GPa)
#
#
# Indices 1 2 3 4 5 6 
#
# 1 141.3890 52.6647 35.9377 -0.0061 0.0000 0.0000
# 2 52.6647 141.3895 35.9377 0.0060 0.0000 0.0000
# 3 35.9377 35.9377 49.9361 -0.0001 0.0000 0.0000
# 4 -0.0061 0.0060 -0.0001 23.4594 0.0000 0.0000
# 5 0.0000 0.0000 0.0000 0.0000 23.4593 -0.0062
# 6 0.0000 0.0000 0.0000 0.0000 -0.0062 44.3621
#
#
#
# Elastic Compliance Matrix: (Units=1/GPa)
#
#
# Indices 1 2 3 4 5 6 
#
# 1 0.009148 -0.002122 -0.005056 0.000003 0.000000 0.000000
# 2 -0.002122 0.009148 -0.005056 -0.000003 0.000000 0.000000
# 3 -0.005056 -0.005056 0.027304 0.000000 0.000000 0.000000
# 4 0.000003 -0.000003 0.000000 0.042627 0.000000 0.000000
# 5 0.000000 0.000000 0.000000 0.000000 0.042627 0.000006
# 6 0.000000 0.000000 0.000000 0.000000 0.000006 0.022542
#
#
# Mechanical properties :
#
#
# Convention : Reuss Voigt Hill
#
# Bulk Modulus (GPa) = 47.32641 64.64387 55.98514
# Shear Modulus (GPa) = 27.04016 32.13446 29.58731
#
# Velocity S-wave (km/s) = 3.46325 3.77541 3.62269
# Velocity P-wave (km/s) = 6.08148 6.90498 6.50627
#
# Compressibility (1/GPa) = 0.02112985
#
# Stress axis : x y z
#
# Youngs Moduli (GPa) = 109.30789 109.30830 36.62517
#
# Poissons Ratio (x) = 0.23199 0.18519
# Poissons Ratio (y) = 0.23199 0.18519
# Poissons Ratio (z) = 0.55271 0.55271
#
# Static dielectric constant tensor:
#      x y z
#    x 4.154800 0.000000 0.000000 
#    y 0.000000 4.154780 0.000000 
#    z 0.000000 0.000000 4.064120 
# 
# 
# High freq. dielectric constant tensor:
#      x y z
#    x 1.893170 0.000000 0.000000 
#    y 0.000000 1.893170 0.000000 
#    z 0.000000 0.000000 1.880490 
# 
# From -- ./inp_files/7395.got.cif
#   From: 2010.03.12/outbox.cif.g09.slc.cpg/sg155_4_cif.got.tgz:7395.got - 2010.04.03 13:54:13.
