data_PCOD8322376
_publ_section_title
;
Structure prediction by ZEFSAII (Michael W. Deem and Ramdas Pophale) SiO2 
 PCOD8322376
Probable space group: P 32 2 1
;
_chemical_formula_sum "Si O2"
_cell_formula_units_Z 36
_cell_length_a 9.190956
_cell_length_b 9.190956
_cell_length_c 23.441794
_cell_angle_alpha 90.000000
_cell_angle_beta 90.000000
_cell_angle_gamma 120.000000
_cell_volume 1714.915994
_symmetry_space_group_name_H-M "P 32 2 1"
_symmetry_group_IT_number 154
_symmetry_cell_setting 'hexagonal'
loop_
_space_group_symop_operation_xyz
x,y,z
-y,x-y,2/3+z
-x+y,-x,1/3+z
x-y,-y,1/3-z
-x,-x+y,2/3-z
y,x,-z
loop_
_atom_site_type_symbol
_atom_site_label
_atom_site_fract_x
_atom_site_fract_y
_atom_site_fract_z
Si Si1 0.963252 0.390864 0.674485
Si Si2 0.379508 0.235275 0.395569
Si Si3 0.722278 0.797178 0.437357
Si Si4 0.540713 0.656458 0.161068
Si Si5 0.208794 0.588237 0.102728
Si Si6 0.869640 0.907512 0.107122
O O1 0.973633 0.551584 0.705694
O O2 0.820357 0.318671 0.625705
O O3 0.141603 0.447141 0.644919
O O4 0.932877 0.254578 0.724128
O O5 0.443837 0.239609 0.460083
O O6 0.176410 0.142902 0.395311
O O7 0.750904 0.750904 0.500000
O O8 0.531705 0.755251 0.429797
O O9 0.851170 0.990963 0.420392
O O10 0.362694 0.578555 0.130113
O O11 0.553759 0.508064 0.191228
O O12 0.688596 0.741302 0.114111
O O13 0.934309 0.000000 0.166667
#
# Coordination Sequence:
#
# PCOD8322376 Si02
#       6
#     6   6   6   6   6   6
#     4  11  22  39  61  97 131 174 219 278 328 398
#     4  10  21  39  63  91 132 171 218 270 342 392
#     4  11  22  40  67  93 127 174 229 269 340 407
#     4  10  21  39  65  93 131 170 222 271 336 402
#     4  11  22  39  65  97 133 175 222 281 329 403
#     4   9  20  38  63  95 123 167 217 271 331 406
#
# _framework density 20.992280999999998
#
# number of rings (size 3 to 8) (size 9 to 14) (size 15 to 20)
#    0.000    1.667    1.667    3.000    0.000    3.333 
#    0.000    1.667    0.000    0.000    0.000    0.000 
#    0.000    0.000    0.000    0.000    0.000    0.000 
#
# Total GULP energy -446314.938792 kJ/mol
# GULP energy per Si atom -12397.637189 kJ/mol
# Density = 2.094450 g / cm^3
# Si number density = 20.992281 Si / 1000 Ang^3
#
#
#
# Elastic Constant Matrix: (Units=GPa)
#
#
# Indices 1 2 3 4 5 6 
#
# 1 105.1320 40.8636 62.8969 2.2410 -0.0001 0.0000
# 2 40.8636 105.1320 62.8969 -2.2410 0.0001 0.0000
# 3 62.8969 62.8969 129.0104 0.0000 0.0000 0.0000
# 4 2.2410 -2.2410 0.0000 19.0727 0.0000 0.0001
# 5 -0.0001 0.0001 0.0000 0.0000 19.0727 2.2410
# 6 0.0000 0.0000 0.0000 0.0001 2.2410 32.1342
#
#
#
# Elastic Compliance Matrix: (Units=1/GPa)
#
#
# Indices 1 2 3 4 5 6 
#
# 1 0.013750 -0.001939 -0.005758 -0.001843 0.000000 0.000000
# 2 -0.001939 0.013750 -0.005758 0.001843 0.000000 0.000000
# 3 -0.005758 -0.005758 0.013366 0.000000 0.000000 0.000000
# 4 -0.001843 0.001843 0.000000 0.052864 0.000000 0.000000
# 5 0.000000 0.000000 0.000000 0.000000 0.052864 -0.003687
# 6 0.000000 0.000000 0.000000 0.000000 -0.003687 0.031377
#
#
# Mechanical properties :
#
#
# Convention : Reuss Voigt Hill
#
# Bulk Modulus (GPa) = 71.65909 74.73213 73.19561
# Shear Modulus (GPa) = 23.86266 25.56371 24.71319
#
# Velocity S-wave (km/s) = 3.37521 3.49344 3.43483
# Velocity P-wave (km/s) = 7.02847 7.20758 7.11859
#
# Compressibility (1/GPa) = 0.01395496
#
# Stress axis : x y z
#
# Youngs Moduli (GPa) = 72.72912 72.72912 74.81665
#
# Poissons Ratio (x) = 0.14100 0.43081
# Poissons Ratio (y) = 0.14100 0.43081
# Poissons Ratio (z) = 0.41879 0.41879
#
# Static dielectric constant tensor:
#      x y z
#    x 3.766320 0.000000 0.000000 
#    y 0.000000 3.766320 0.000000 
#    z 0.000000 0.000000 4.023570 
# 
# 
# High freq. dielectric constant tensor:
#      x y z
#    x 1.814120 0.000000 0.000000 
#    y 0.000000 1.814120 0.000000 
#    z 0.000000 0.000000 1.831380 
# 
# From -- ./inp_files/3397.got.cif
#   From: 2010.03.12/outbox.cif.g09.slc.cpg/sg154_2_cif.got.tgz:3397.got - 2010.04.03 13:51:21.
