data_PCOD8322125
_publ_section_title
;
Structure prediction by ZEFSAII (Michael W. Deem and Ramdas Pophale) SiO2 
 PCOD8322125
Probable space group: P 31 2 1
;
_chemical_formula_sum "Si O2"
_cell_formula_units_Z 42
_cell_length_a 8.327737
_cell_length_b 8.327737
_cell_length_c 32.997115
_cell_angle_alpha 90.000000
_cell_angle_beta 90.000000
_cell_angle_gamma 120.000000
_cell_volume 1981.803561
_symmetry_space_group_name_H-M "P 31 2 1"
_symmetry_group_IT_number 152
_symmetry_cell_setting 'hexagonal'
loop_
_space_group_symop_operation_xyz
x,y,z
-y,x-y,1/3+z
-x+y,-x,2/3+z
x-y,-y,2/3-z
-x,-x+y,1/3-z
y,x,-z
loop_
_atom_site_type_symbol
_atom_site_label
_atom_site_fract_x
_atom_site_fract_y
_atom_site_fract_z
Si Si1 0.492661 0.112248 0.911803
Si Si2 0.051706 0.134798 0.121487
Si Si3 0.561139 0.163844 0.531451
Si Si4 0.232094 0.777905 0.547469
Si Si5 0.821093 0.399939 0.642612
Si Si6 0.436792 0.699752 0.616934
Si Si7 0.712071 0.927738 0.072134
O O1 0.312283 0.023768 0.882781
O O2 0.677344 0.207370 0.884692
O O3 0.495204 0.266252 0.941873
O O4 0.472406 0.934977 0.936131
O O5 0.265608 0.220795 0.110109
O O6 0.000000 0.053444 0.166667
O O7 0.913714 0.975540 0.089670
O O8 0.629279 0.214271 0.485609
O O9 0.365521 0.980342 0.530139
O O10 0.701426 0.121937 0.555869
O O11 0.293325 0.723124 0.588587
O O12 0.642707 0.294698 0.671289
O O13 0.000000 0.552316 0.666667
O O14 0.872082 0.250218 0.623876
O O15 0.629357 0.893391 0.618627
#
# Coordination Sequence:
#
# PCOD8322125 Si02
#       7
#     6   6   6   6   6   6   6
#     4  10  23  39  64  90 121 163 208 253 313 376
#     4  11  21  40  62  87 122 165 200 257 318 375
#     4  10  21  37  59  89 123 159 202 259 303 374
#     4  11  22  38  60  91 123 162 207 254 314 370
#     4  11  22  40  62  92 123 160 209 264 304 365
#     4  10  22  40  62  86 120 167 206 251 310 380
#     4   9  21  40  60  85 122 165 203 246 323 364
#
# _framework density 21.192815
#
# number of rings (size 3 to 8) (size 9 to 14) (size 15 to 20)
#    0.000    1.714    1.429    2.571    4.000    2.286 
#    2.571    7.143    0.000    0.000    0.000    0.000 
#    0.000    0.000    0.000    0.000    0.000    0.000 
#
# Total GULP energy -520809.967077 kJ/mol
# GULP energy per Si atom -12400.237311 kJ/mol
# Density = 2.114458 g / cm^3
# Si number density = 21.192815 Si / 1000 Ang^3
#
#
#
# Elastic Constant Matrix: (Units=GPa)
#
#
# Indices 1 2 3 4 5 6 
#
# 1 67.3337 13.4129 18.1327 3.5147 -0.0002 0.0000
# 2 13.4129 67.3337 18.1327 -3.5147 0.0002 0.0000
# 3 18.1327 18.1327 74.5059 0.0000 0.0000 0.0000
# 4 3.5147 -3.5147 0.0000 30.0749 0.0000 0.0002
# 5 -0.0002 0.0002 0.0000 0.0000 30.0749 3.5147
# 6 0.0000 0.0000 0.0000 0.0002 3.5147 26.9604
#
#
#
# Elastic Compliance Matrix: (Units=1/GPa)
#
#
# Indices 1 2 3 4 5 6 
#
# 1 0.016368 -0.002464 -0.003384 -0.002201 0.000000 0.000000
# 2 -0.002464 0.016368 -0.003384 0.002201 0.000000 0.000000
# 3 -0.003384 -0.003384 0.015069 0.000000 0.000000 0.000000
# 4 -0.002201 0.002201 0.000000 0.033765 0.000000 0.000000
# 5 0.000000 0.000000 0.000000 0.000000 0.033765 -0.004402
# 6 0.000000 0.000000 0.000000 0.000000 -0.004402 0.037665
#
#
# Mechanical properties :
#
#
# Convention : Reuss Voigt Hill
#
# Bulk Modulus (GPa) = 34.08121 34.28109 34.18115
# Shear Modulus (GPa) = 27.58694 28.05502 27.82098
#
# Velocity S-wave (km/s) = 3.61184 3.64235 3.62713
# Velocity P-wave (km/s) = 5.78880 5.82236 5.80561
#
# Compressibility (1/GPa) = 0.02934168
#
# Stress axis : x y z
#
# Youngs Moduli (GPa) = 61.09317 61.09317 66.36204
#
# Poissons Ratio (x) = 0.15055 0.22456
# Poissons Ratio (y) = 0.15055 0.22456
# Poissons Ratio (z) = 0.20673 0.20673
#
# Static dielectric constant tensor:
#      x y z
#    x 3.860520 0.000000 0.000000 
#    y 0.000000 3.860520 0.000000 
#    z 0.000000 0.000000 3.740280 
# 
# 
# High freq. dielectric constant tensor:
#      x y z
#    x 1.827960 0.000000 0.000000 
#    y 0.000000 1.827960 0.000000 
#    z 0.000000 0.000000 1.831360 
# 
# From -- ./inp_files/3702.got.cif
#   From: 2010.03.12/outbox.cif.g09.slc.cpg/sg152_2_cif.got.tgz:3702.got - 2010.04.03 13:45:27.
