data_PCOD8322348
_publ_section_title
;
Structure prediction by ZEFSAII (Michael W. Deem and Ramdas Pophale) SiO2 
 PCOD8322348
Probable space group: P 32 2 1
;
_chemical_formula_sum "Si O2"
_cell_formula_units_Z 24
_cell_length_a 8.063627
_cell_length_b 8.063627
_cell_length_c 20.445936
_cell_angle_alpha 90.000000
_cell_angle_beta 90.000000
_cell_angle_gamma 120.000000
_cell_volume 1151.326470
_symmetry_space_group_name_H-M "P 32 2 1"
_symmetry_group_IT_number 154
_symmetry_cell_setting 'hexagonal'
loop_
_space_group_symop_operation_xyz
x,y,z
-y,x-y,2/3+z
-x+y,-x,1/3+z
x-y,-y,1/3-z
-x,-x+y,2/3-z
y,x,-z
loop_
_atom_site_type_symbol
_atom_site_label
_atom_site_fract_x
_atom_site_fract_y
_atom_site_fract_z
Si Si1 0.629665 0.605253 0.874871
Si Si2 0.000000 0.603857 0.333334
Si Si3 0.931574 0.261806 0.748712
Si Si4 0.402036 0.402036 0.500000
Si Si5 0.709088 0.020078 0.866053
O O1 0.538758 0.477280 0.939005
O O2 0.834598 0.628531 0.862233
O O3 0.655978 0.811061 0.888763
O O4 0.487933 0.511249 0.812578
O O5 0.184920 0.814407 0.318623
O O6 0.910849 0.438135 0.776241
O O7 0.158096 0.328201 0.743590
O O8 0.831026 0.082684 0.799010
#
# Coordination Sequence:
#
# PCOD8322348 Si02
#       5
#     6   3   6   3   6
#     4  11  20  37  60  86 112 150 192 236 281 340
#     4  10  22  36  54  84 120 142 184 248 290 318
#     4   9  19  38  57  82 111 145 186 235 279 336
#     4  10  20  38  62  82 112 158 198 222 280 356
#     4   9  18  34  59  80 107 148 187 219 275 348
#
# _framework density 20.84552
#
# number of rings (size 3 to 8) (size 9 to 14) (size 15 to 20)
#    0.000    2.500    0.000    6.000    0.000    1.000 
#    0.000   17.500    0.000    0.000    0.000    0.000 
#    0.000    0.000    0.000    0.000    0.000    0.000 
#
# Total GULP energy -297451.896702 kJ/mol
# GULP energy per Si atom -12393.829029 kJ/mol
# Density = 2.079807 g / cm^3
# Si number density = 20.845520 Si / 1000 Ang^3
#
#
#
# Elastic Constant Matrix: (Units=GPa)
#
#
# Indices 1 2 3 4 5 6 
#
# 1 102.8387 36.5591 30.9393 0.4742 0.0000 0.0000
# 2 36.5591 102.8387 30.9393 -0.4742 0.0000 0.0000
# 3 30.9393 30.9393 40.0883 0.0000 0.0000 0.0000
# 4 0.4742 -0.4742 0.0000 22.3757 0.0000 0.0000
# 5 0.0000 0.0000 0.0000 0.0000 22.3757 0.4742
# 6 0.0000 0.0000 0.0000 0.0000 0.4742 33.1398
#
#
#
# Elastic Compliance Matrix: (Units=1/GPa)
#
#
# Indices 1 2 3 4 5 6 
#
# 1 0.013002 -0.002090 -0.008422 -0.000320 0.000000 0.000000
# 2 -0.002090 0.013002 -0.008422 0.000320 0.000000 0.000000
# 3 -0.008422 -0.008422 0.037944 0.000000 0.000000 0.000000
# 4 -0.000320 0.000320 0.000000 0.044705 0.000000 0.000000
# 5 0.000000 0.000000 0.000000 0.000000 0.044705 -0.000640
# 6 0.000000 0.000000 0.000000 0.000000 -0.000640 0.030184
#
#
# Mechanical properties :
#
#
# Convention : Reuss Voigt Hill
#
# Bulk Modulus (GPa) = 38.34112 49.18235 43.76173
# Shear Modulus (GPa) = 21.72930 25.40008 23.56469
#
# Velocity S-wave (km/s) = 3.23212 3.49448 3.36585
# Velocity P-wave (km/s) = 5.68873 6.31876 6.01201
#
# Compressibility (1/GPa) = 0.02608166
#
# Stress axis : x y z
#
# Youngs Moduli (GPa) = 76.91031 76.91031 26.35432
#
# Poissons Ratio (x) = 0.16074 0.22195
# Poissons Ratio (y) = 0.16074 0.22195
# Poissons Ratio (z) = 0.64772 0.64772
#
# Static dielectric constant tensor:
#      x y z
#    x 3.975860 0.000000 0.000000 
#    y 0.000000 3.975860 0.000000 
#    z 0.000000 0.000000 3.518200 
# 
# 
# High freq. dielectric constant tensor:
#      x y z
#    x 1.825860 0.000000 0.000000 
#    y 0.000000 1.825860 0.000000 
#    z 0.000000 0.000000 1.770300 
# 
# From -- ./inp_files/2979.got.cif
#   From: 2010.03.12/outbox.cif.g09.slc.cpg/sg154_2_cif.got.tgz:2979.got - 2010.04.03 13:51:21.
