data_PCOD8322830
_publ_section_title
;
Structure prediction by ZEFSAII (Michael W. Deem and Ramdas Pophale) SiO2 
 PCOD8322830
Probable space group: P 3 1 C
;
_chemical_formula_sum "Si O2"
_cell_formula_units_Z 40
_cell_length_a 11.127758
_cell_length_b 11.127758
_cell_length_c 18.780860
_cell_angle_alpha 90.000000
_cell_angle_beta 90.000000
_cell_angle_gamma 120.000000
_cell_volume 2014.009207
_symmetry_space_group_name_H-M "P 3 1 C"
_symmetry_group_IT_number 159
_symmetry_cell_setting 'hexagonal'
loop_
_space_group_symop_operation_xyz
x,y,z
-y,x-y,z
-x+y,-x,z
y,x,1/2+z
x-y,-y,1/2+z
-x,-x+y,1/2+z
loop_
_atom_site_type_symbol
_atom_site_label
_atom_site_fract_x
_atom_site_fract_y
_atom_site_fract_z
Si Si1 0.000000 0.000000 0.585575
Si Si2 0.156988 0.313976 0.085326
Si Si3 0.156988 0.313976 0.253930
Si Si4 0.666100 0.055585 0.996476
Si Si5 0.666100 0.055585 0.342780
Si Si6 0.000000 0.000000 0.253681
Si Si7 0.610515 0.666100 0.496476
Si Si8 0.944415 0.333900 0.342780
O O1 0.922018 0.844037 0.557527
O O2 0.000000 0.000000 0.669628
O O3 0.166595 0.333191 0.169628
O O4 0.311488 0.380643 0.053465
O O5 0.069155 0.380643 0.053465
O O6 0.311488 0.380643 0.285791
O O7 0.077981 0.155963 0.281729
O O8 0.069156 0.380644 0.285791
O O9 0.811815 0.188185 0.018503
O O10 0.550810 0.101619 0.996120
O O11 0.678574 1.000000 0.919628
O O12 0.811815 0.188185 0.320754
O O13 0.550810 0.101619 0.343137
O O14 0.678574 0.678574 0.419628
#
# Coordination Sequence:
#
# PCOD8322830 Si02
#       8
#     2   6   6   6   6   2   6   6
#     4   9  18  33  61  89 115 144 190 254 307 357
#     4  11  22  39  63  93 124 157 203 260 311 364
#     4  11  22  39  63  93 124 157 203 260 311 364
#     4  11  23  40  63  91 125 165 208 255 310 374
#     4  11  23  40  63  91 125 165 208 255 310 374
#     4   9  18  33  61  89 115 144 190 254 307 357
#     4  11  23  40  63  91 125 165 208 255 310 374
#     4  11  23  40  63  91 125 165 208 255 310 374
#
# _framework density 19.860883000000001
#
# number of rings (size 3 to 8) (size 9 to 14) (size 15 to 20)
#    0.000    1.200    6.000    0.600    0.000    1.200 
#    1.800    3.000    0.000    3.600    0.000    0.000 
#    0.000    0.000    0.000    0.000    0.000    0.000 
#
# Total GULP energy -496138.637461 kJ/mol
# GULP energy per Si atom -12403.465937 kJ/mol
# Density = 1.981568 g / cm^3
# Si number density = 19.860883 Si / 1000 Ang^3
#
#
#
# Elastic Constant Matrix: (Units=GPa)
#
#
# Indices 1 2 3 4 5 6 
#
# 1 81.5451 28.9181 33.1549 0.0000 0.0000 0.0000
# 2 28.9181 81.5451 33.1549 0.0000 0.0000 0.0000
# 3 33.1549 33.1549 129.1124 0.0000 0.0000 0.0000
# 4 0.0000 0.0000 0.0000 23.8478 0.0000 0.0000
# 5 0.0000 0.0000 0.0000 0.0000 23.8478 0.0000
# 6 0.0000 0.0000 0.0000 0.0000 0.0000 26.3135
#
#
#
# Elastic Compliance Matrix: (Units=1/GPa)
#
#
# Indices 1 2 3 4 5 6 
#
# 1 0.014852 -0.004150 -0.002748 0.000000 0.000000 0.000000
# 2 -0.004150 0.014852 -0.002748 0.000000 0.000000 0.000000
# 3 -0.002748 -0.002748 0.009157 0.000000 0.000000 0.000000
# 4 0.000000 0.000000 0.000000 0.041933 0.000000 0.000000
# 5 0.000000 0.000000 0.000000 0.000000 0.041933 0.000000
# 6 0.000000 0.000000 0.000000 0.000000 0.000000 0.038003
#
#
# Mechanical properties :
#
#
# Convention : Reuss Voigt Hill
#
# Bulk Modulus (GPa) = 51.10248 53.62874 52.36561
# Shear Modulus (GPa) = 26.80321 27.93344 27.36833
#
# Velocity S-wave (km/s) = 3.67760 3.75434 3.71617
# Velocity P-wave (km/s) = 6.61960 6.77158 6.69602
#
# Compressibility (1/GPa) = 0.01956852
#
# Stress axis : x y z
#
# Youngs Moduli (GPa) = 67.33046 67.33046 109.20984
#
# Poissons Ratio (x) = 0.27939 0.30014
# Poissons Ratio (y) = 0.27939 0.30014
# Poissons Ratio (z) = 0.18505 0.18505
#
# Static dielectric constant tensor:
#      x y z
#    x 3.560970 0.000000 0.000000 
#    y 0.000000 3.560970 0.000000 
#    z 0.000000 0.000000 3.399570 
# 
# 
# High freq. dielectric constant tensor:
#      x y z
#    x 1.775020 0.000000 0.000000 
#    y 0.000000 1.775020 0.000000 
#    z 0.000000 0.000000 1.766950 
# 
# From -- ./inp_files/1125.got.cif
#   From: 2010.03.12/outbox.cif.g09.slc.cpg/sg159_cif.got.tgz:1125.got - 2010.04.03 14:00:19.
