data_PCOD8322691
_publ_section_title
;
Structure prediction by ZEFSAII (Michael W. Deem and Ramdas Pophale) SiO2 
 PCOD8322691
Probable space group: P 3 M 1
;
_chemical_formula_sum "Si O2"
_cell_formula_units_Z 48
_cell_length_a 12.543703
_cell_length_b 12.543703
_cell_length_c 20.328811
_cell_angle_alpha 90.000000
_cell_angle_beta 90.000000
_cell_angle_gamma 120.000000
_cell_volume 2770.091630
_symmetry_space_group_name_H-M "P 3 M 1"
_symmetry_group_IT_number 156
_symmetry_cell_setting 'hexagonal'
loop_
_space_group_symop_operation_xyz
x,y,z
-y,x-y,z
-x+y,-x,z
-x+y,y,z
x,x-y,z
-y,-x,z
loop_
_atom_site_type_symbol
_atom_site_label
_atom_site_fract_x
_atom_site_fract_y
_atom_site_fract_z
Si Si1 0.333537 0.916294 0.220960
Si Si2 0.752744 0.751777 0.850749
Si Si3 0.247479 0.001054 0.467572
Si Si4 0.915012 0.582062 0.344470
Si Si5 0.750255 0.750187 0.097214
Si Si6 0.667021 0.579004 0.583902
Si Si7 0.914537 0.582791 0.973361
Si Si8 0.667070 0.088421 0.733860
O O1 0.453081 0.906161 0.207342
O O2 0.219470 0.780531 0.228256
O O3 0.318185 0.989473 0.160932
O O4 0.343972 0.989383 0.287127
O O5 0.740095 0.870048 0.862184
O O6 0.675731 0.652660 0.906254
O O7 0.695264 0.693268 0.780093
O O8 0.895974 0.791947 0.854609
O O9 0.130746 0.869255 0.454727
O O10 0.204927 0.102464 0.466298
O O11 0.348004 0.027879 0.412165
O O12 0.306555 0.000218 0.537807
O O13 0.787904 0.575808 0.327119
O O14 0.889002 0.444501 0.351666
O O15 0.764987 0.882494 0.086879
O O16 0.884334 0.768668 0.106644
O O17 0.682030 0.669737 0.033910
O O18 0.770078 0.540155 0.572431
O O19 0.537054 0.462947 0.564911
O O20 0.667936 0.620466 0.658928
O O21 0.771624 0.543247 0.975561
O O22 0.926030 0.463015 0.977807
O O23 0.536749 0.073498 0.753146
O O24 0.769159 0.230842 0.744749
#
# Coordination Sequence:
#
# PCOD8322691 Si02
#       8
#     6   6   6   6   6   6   6   6
#     4  10  20  34  52  74 102 136 171 204 239 284
#     4  10  20  33  50  72  99 131 165 201 241 287
#     4  10  20  33  49  70  97 129 163 198 239 288
#     4  10  20  34  53  76 100 126 159 202 251 297
#     4  10  20  34  53  76 102 132 166 204 245 289
#     4   9  17  30  50  75 100 126 158 199 246 292
#     4  10  20  34  53  76 100 126 158 199 247 295
#     4   9  17  30  50  75 100 126 158 199 246 292
#
# _framework density 17.327947999999999
#
# number of rings (size 3 to 8) (size 9 to 14) (size 15 to 20)
#    0.000    2.250    0.000    3.250    0.000    1.500 
#    0.000    3.750    0.000   17.500    0.000    0.000 
#    0.000    0.000    0.000    0.000    0.000    0.000 
#
# Total GULP energy -595357.385406 kJ/mol
# GULP energy per Si atom -12403.278863 kJ/mol
# Density = 1.728851 g / cm^3
# Si number density = 17.327948 Si / 1000 Ang^3
#
#
#
# Elastic Constant Matrix: (Units=GPa)
#
#
# Indices 1 2 3 4 5 6 
#
# 1 89.2220 50.9161 50.4758 2.2486 -0.0005 0.0000
# 2 50.9161 89.2220 50.4758 -2.2486 0.0005 0.0000
# 3 50.4758 50.4758 105.0481 0.0000 0.0000 0.0000
# 4 2.2486 -2.2486 0.0000 23.9596 0.0000 0.0005
# 5 -0.0005 0.0005 0.0000 0.0000 23.9596 2.2486
# 6 0.0000 0.0000 0.0000 0.0005 2.2486 19.1529
#
#
#
# Elastic Compliance Matrix: (Units=1/GPa)
#
#
# Indices 1 2 3 4 5 6 
#
# 1 0.018655 -0.007742 -0.005244 -0.002477 0.000001 0.000000
# 2 -0.007742 0.018655 -0.005244 0.002477 -0.000001 0.000000
# 3 -0.005244 -0.005244 0.014559 0.000000 0.000000 0.000000
# 4 -0.002477 0.002477 0.000000 0.042202 0.000000 -0.000001
# 5 0.000001 -0.000001 0.000000 0.000000 0.042202 -0.004955
# 6 0.000000 0.000000 0.000000 -0.000001 -0.004955 0.052793
#
#
# Mechanical properties :
#
#
# Convention : Reuss Voigt Hill
#
# Bulk Modulus (GPa) = 64.89287 65.24752 65.07020
# Shear Modulus (GPa) = 21.67685 22.18939 21.93312
#
# Velocity S-wave (km/s) = 3.54075 3.58237 3.56162
# Velocity P-wave (km/s) = 7.36526 7.40590 7.38561
#
# Compressibility (1/GPa) = 0.01541001
#
# Stress axis : x y z
#
# Youngs Moduli (GPa) = 53.60512 53.60512 68.68665
#
# Poissons Ratio (x) = 0.41499 0.36019
# Poissons Ratio (y) = 0.41499 0.36019
# Poissons Ratio (z) = 0.28110 0.28110
#
# Static dielectric constant tensor:
#      x y z
#    x 3.126060 0.000000 0.000000 
#    y 0.000000 3.126060 0.000000 
#    z 0.000000 0.000000 3.450860 
# 
# 
# High freq. dielectric constant tensor:
#      x y z
#    x 1.666030 0.000000 0.000000 
#    y 0.000000 1.666030 0.000000 
#    z 0.000000 0.000000 1.686920 
# 
# From -- ./inp_files/1081.got.cif
#   From: 2010.03.12/outbox.cif.g09.slc.cpg/sg156_cif.got.tgz:1081.got - 2010.04.03 13:58:47.
