data_PCOD8322627
_publ_section_title
;
Structure prediction by ZEFSAII (Michael W. Deem and Ramdas Pophale) SiO2 
 PCOD8322627
Probable space group: R 3 2
;
_chemical_formula_sum "Si O2"
_cell_formula_units_Z 45
_cell_length_a 16.339160
_cell_length_b 16.339160
_cell_length_c 8.044095
_cell_angle_alpha 90.000000
_cell_angle_beta 90.000000
_cell_angle_gamma 120.000000
_cell_volume 1859.804413
_symmetry_space_group_name_H-M "R 3 2"
_symmetry_group_IT_number 155
_symmetry_cell_setting 'hexagonal'
loop_
_space_group_symop_operation_xyz
x,y,z
-y,x-y,z
-x+y,-x,z
x-y,-y,-z
-x,-x+y,-z
y,x,-z
2/3+x,1/3+y,1/3+z
2/3-y,1/3+x-y,1/3+z
2/3-x+y,1/3-x,1/3+z
2/3+x-y,1/3-y,1/3-z
2/3-x,1/3-x+y,1/3-z
2/3+y,1/3+x,1/3-z
1/3+x,2/3+y,2/3+z
1/3-y,2/3+x-y,2/3+z
1/3-x+y,2/3-x,2/3+z
1/3+x-y,2/3-y,2/3-z
1/3-x,2/3-x+y,2/3-z
1/3+y,2/3+x,2/3-z
loop_
_atom_site_type_symbol
_atom_site_label
_atom_site_fract_x
_atom_site_fract_y
_atom_site_fract_z
Si Si1 0.469127 0.232330 0.273998
Si Si2 0.333334 0.385239 0.166667
Si Si3 0.269798 0.100806 0.410930
O O1 0.483321 0.333334 0.333334
O O2 0.559654 0.226321 0.333334
O O3 0.377784 0.143281 0.355675
O O4 0.462775 0.223701 0.075845
O O5 0.342760 0.333334 0.333334
O O6 0.243280 0.398707 0.198928
O O7 0.232655 0.000000 0.500000
#
# Coordination Sequence:
#
# PCOD8322627 Si02
#       3
#    18   9  18
#     4  11  26  48  74 108 152 199 247 309 383 450
#     4  12  26  50  82 108 152 202 256 310 384 460
#     4  11  27  45  76 114 146 192 253 314 375 449
#
# _framework density 24.196093000000001
#
# number of rings (size 3 to 8) (size 9 to 14) (size 15 to 20)
#    0.000    0.800    0.000    6.400   16.800    0.000 
#    1.200    0.000    0.000    0.000    0.000    0.000 
#    0.000    0.000    0.000    0.000    0.000    0.000 
#
# Total GULP energy -185963.341220 kJ/mol
# GULP energy per Si atom -12397.556081 kJ/mol
# Density = 2.414102 g / cm^3
# Si number density = 24.196093 Si / 1000 Ang^3
#
#
#
# Elastic Constant Matrix: (Units=GPa)
#
#
# Indices 1 2 3 4 5 6 
#
# 1 144.7456 53.2886 53.9023 4.3656 -0.0005 0.0000
# 2 53.2886 144.7456 53.9021 -4.3662 -0.0001 0.0000
# 3 53.9023 53.9021 149.5177 -0.0004 -0.0002 0.0001
# 4 4.3656 -4.3662 -0.0004 39.8808 -0.0003 0.0002
# 5 -0.0005 -0.0001 -0.0002 -0.0003 39.8808 4.3659
# 6 0.0000 0.0000 0.0001 0.0002 4.3659 45.7285
#
#
#
# Elastic Compliance Matrix: (Units=1/GPa)
#
#
# Indices 1 2 3 4 5 6 
#
# 1 0.008666 -0.002384 -0.002265 -0.001210 0.000000 0.000000
# 2 -0.002384 0.008666 -0.002265 0.001210 0.000000 0.000000
# 3 -0.002265 -0.002265 0.008321 0.000000 0.000000 0.000000
# 4 -0.001210 0.001210 0.000000 0.025340 0.000000 0.000000
# 5 0.000000 0.000000 0.000000 0.000000 0.025340 -0.002419
# 6 0.000000 0.000000 0.000000 0.000000 -0.002419 0.022099
#
#
# Mechanical properties :
#
#
# Convention : Reuss Voigt Hill
#
# Bulk Modulus (GPa) = 84.55432 84.57722 84.56577
# Shear Modulus (GPa) = 43.02903 43.62575 43.32739
#
# Velocity S-wave (km/s) = 4.22162 4.25079 4.23623
# Velocity P-wave (km/s) = 7.66708 7.68915 7.67812
#
# Compressibility (1/GPa) = 0.01182672
#
# Stress axis : x y z
#
# Youngs Moduli (GPa) = 115.39221 115.39230 120.17482
#
# Poissons Ratio (x) = 0.27504 0.27219
# Poissons Ratio (y) = 0.27504 0.27218
# Poissons Ratio (z) = 0.26136 0.26135
#
# Static dielectric constant tensor:
#      x y z
#    x 4.230480 0.000000 0.000000 
#    y 0.000000 4.230480 0.000000 
#    z 0.000000 0.000000 4.447060 
# 
# 
# High freq. dielectric constant tensor:
#      x y z
#    x 1.968090 0.000000 0.000000 
#    y 0.000000 1.968090 0.000000 
#    z 0.000000 0.000000 1.956500 
# 
# From -- ./inp_files/1570.got.cif
#   From: 2010.03.12/outbox.cif.g09.slc.cpg/sg155_1_cif.got.tgz:1570.got - 2010.04.03 13:54:13.
