data_PCOD8322015
_publ_section_title
;
Structure prediction by ZEFSAII (Michael W. Deem and Ramdas Pophale) SiO2 
 PCOD8322015
Probable space group: P 31 2 1
;
_chemical_formula_sum "Si O2"
_cell_formula_units_Z 42
_cell_length_a 28.793632
_cell_length_b 28.793632
_cell_length_c 5.409797
_cell_angle_alpha 90.000000
_cell_angle_beta 90.000000
_cell_angle_gamma 120.000000
_cell_volume 3884.226081
_symmetry_space_group_name_H-M "P 31 2 1"
_symmetry_group_IT_number 152
_symmetry_cell_setting 'hexagonal'
loop_
_space_group_symop_operation_xyz
x,y,z
-y,x-y,1/3+z
-x+y,-x,2/3+z
x-y,-y,2/3-z
-x,-x+y,1/3-z
y,x,-z
loop_
_atom_site_type_symbol
_atom_site_label
_atom_site_fract_x
_atom_site_fract_y
_atom_site_fract_z
Si Si1 0.400477 0.544142 0.726598
Si Si2 0.464704 0.446413 0.251225
Si Si3 0.694190 0.389282 0.269210
Si Si4 0.668267 0.481017 0.243639
Si Si5 0.499849 0.150504 0.080804
Si Si6 0.428980 0.974811 0.584700
Si Si7 0.193547 0.624309 0.889609
O O1 0.423450 0.504390 0.738321
O O2 0.450769 0.603925 0.724378
O O3 0.365555 0.534451 0.475513
O O4 0.364923 0.533964 0.974352
O O5 0.427948 0.427948 0.500000
O O6 0.495543 0.511176 0.250023
O O7 0.428603 0.428603 0.000000
O O8 0.636224 0.344794 0.371070
O O9 0.690950 0.441163 0.195871
O O10 0.742605 0.407049 0.463731
O O11 0.688577 0.514489 0.502479
O O12 0.685261 0.520174 0.003181
O O13 0.564102 0.182536 0.110522
O O14 0.475862 0.087705 0.067571
O O15 0.419500 0.000000 0.333334
O O16 0.419004 0.000000 0.833334
#
# Coordination Sequence:
#
# PCOD8322015 Si02
#       7
#     6   6   6   6   6   6   6
#     4  10  17  30  36  49  66  75  87 105 148 149
#     4  10  16  23  38  54  63  75  87  99 117 168
#     4  12  22  30  40  48  58  74 111 128 140 158
#     4  10  19  28  37  46  58  80  88 118 139 152
#     4  10  17  30  36  49  66  75  87 105 148 149
#     4  10  16  23  38  54  63  75  87  99 117 168
#     4  10  19  28  37  46  58  80  88 118 139 152
#
# _framework density 10.812963999999999
#
# number of rings (size 3 to 8) (size 9 to 14) (size 15 to 20)
#    0.000    1.714    2.857   10.286    0.000    0.000 
#    0.000    0.000    0.000    0.000    0.000    0.000 
#    0.000    0.000    0.000    0.000    0.000    0.000 
#
# Total GULP energy -520326.101359 kJ/mol
# GULP energy per Si atom -12388.716699 kJ/mol
# Density = 1.078835 g / cm^3
# Si number density = 10.812964 Si / 1000 Ang^3
#
#
#
# Elastic Constant Matrix: (Units=GPa)
#
#
# Indices 1 2 3 4 5 6 
#
# 1 14.3632 11.2824 8.5317 -0.5326 0.0000 0.0000
# 2 11.2824 14.3632 8.5317 0.5326 0.0000 0.0000
# 3 8.5317 8.5317 115.6895 0.0000 0.0000 0.0000
# 4 -0.5326 0.5326 0.0000 10.0627 0.0000 0.0000
# 5 0.0000 0.0000 0.0000 0.0000 10.0627 -0.5326
# 6 0.0000 0.0000 0.0000 0.0000 -0.5326 1.5404
#
#
#
# Elastic Compliance Matrix: (Units=1/GPa)
#
#
# Indices 1 2 3 4 5 6 
#
# 1 0.185823 -0.144818 -0.003024 0.017501 0.000000 0.000000
# 2 -0.144818 0.185823 -0.003024 -0.017501 0.000000 0.000000
# 3 -0.003024 -0.003024 0.009090 0.000000 0.000000 0.000000
# 4 0.017501 -0.017501 0.000000 0.101230 0.000000 0.000000
# 5 0.000000 0.000000 0.000000 0.000000 0.101230 0.035002
# 6 0.000000 0.000000 0.000000 0.000000 0.035002 0.661284
#
#
# Mechanical properties :
#
#
# Convention : Reuss Voigt Hill
#
# Bulk Modulus (GPa) = 12.65756 22.34529 17.50142
# Shear Modulus (GPa) = 3.17955 12.07116 7.62536
#
# Velocity S-wave (km/s) = 1.71665 3.34482 2.65845
# Velocity P-wave (km/s) = 3.95734 5.96886 5.06398
#
# Compressibility (1/GPa) = 0.07900415
#
# Stress axis : x y z
#
# Youngs Moduli (GPa) = 5.38145 5.38145 110.01284
#
# Poissons Ratio (x) = 0.77933 0.33268
# Poissons Ratio (y) = 0.77933 0.33268
# Poissons Ratio (z) = 0.01627 0.01627
#
# Static dielectric constant tensor:
#      x y z
#    x 2.036910 0.000000 0.000000 
#    y 0.000000 2.036910 0.000000 
#    z 0.000000 0.000000 3.554240 
# 
# 
# High freq. dielectric constant tensor:
#      x y z
#    x 1.355740 0.000000 0.000000 
#    y 0.000000 1.355740 0.000000 
#    z 0.000000 0.000000 1.448560 
# 
# From -- ./inp_files/576.got.cif
#   From: 2010.03.12/outbox.cif.g09.slc.cpg/sg152_1_cif.got.tgz:576.got - 2010.04.03 13:45:27.
