data_PCOD8322431
_publ_section_title
;
Structure prediction by ZEFSAII (Michael W. Deem and Ramdas Pophale) SiO2 
 PCOD8322431
Probable space group: P 32 2 1
;
_chemical_formula_sum "Si O2"
_cell_formula_units_Z 42
_cell_length_a 8.238372
_cell_length_b 8.238372
_cell_length_c 31.868772
_cell_angle_alpha 90.000000
_cell_angle_beta 90.000000
_cell_angle_gamma 120.000000
_cell_volume 1873.176746
_symmetry_space_group_name_H-M "P 32 2 1"
_symmetry_group_IT_number 154
_symmetry_cell_setting 'hexagonal'
loop_
_space_group_symop_operation_xyz
x,y,z
-y,x-y,2/3+z
-x+y,-x,1/3+z
x-y,-y,1/3-z
-x,-x+y,2/3-z
y,x,-z
loop_
_atom_site_type_symbol
_atom_site_label
_atom_site_fract_x
_atom_site_fract_y
_atom_site_fract_z
Si Si1 0.035662 0.345600 0.381236
Si Si2 0.405958 0.974151 0.381463
Si Si3 0.301547 0.011239 0.092285
Si Si4 0.629516 0.410712 0.641859
Si Si5 0.623819 0.030139 0.869602
Si Si6 0.818820 0.409902 0.450353
Si Si7 0.041485 0.979189 0.381002
O O1 0.259884 0.459836 0.386322
O O2 0.000000 0.377488 0.333334
O O3 0.947444 0.441088 0.409974
O O4 0.978103 0.132240 0.391903
O O5 0.351979 0.789462 0.353756
O O6 0.257456 0.043510 0.387561
O O7 0.580164 0.144978 0.356527
O O8 0.445091 0.919558 0.426858
O O9 0.503285 0.182381 0.109093
O O10 0.190177 0.118343 0.079799
O O11 0.307818 0.912424 0.048980
O O12 0.174534 0.849470 0.126368
O O13 0.536685 0.809459 0.874228
O O14 0.562205 0.054503 0.823849
O O15 0.000000 0.916841 0.333334
#
# Coordination Sequence:
#
# PCOD8322431 Si02
#       7
#     6   6   6   6   6   6   6
#     4  11  25  43  71 104 141 179 232 290 360 427
#     4  11  24  41  69 100 146 179 234 295 356 418
#     4  11  25  46  72 100 140 183 234 290 354 413
#     4  11  24  39  70 104 136 178 236 290 353 423
#     4  11  28  49  68 104 137 188 238 290 347 431
#     4  12  27  49  74  97 142 187 233 291 356 422
#     4  11  22  42  67 106 142 181 226 292 358 422
#
# _framework density 22.421802
#
# number of rings (size 3 to 8) (size 9 to 14) (size 15 to 20)
#    0.000    0.857    2.857    3.000   16.000    1.143 
#    0.000    0.714    0.000    0.000    0.000    0.000 
#    0.000    0.000    0.000    0.000    0.000    0.000 
#
# Total GULP energy -520407.212068 kJ/mol
# GULP energy per Si atom -12390.647906 kJ/mol
# Density = 2.237077 g / cm^3
# Si number density = 22.421802 Si / 1000 Ang^3
#
#
#
# Elastic Constant Matrix: (Units=GPa)
#
#
# Indices 1 2 3 4 5 6 
#
# 1 99.0082 33.5451 38.9752 -5.9980 0.0000 0.0000
# 2 33.5451 99.0082 38.9752 5.9980 0.0000 0.0000
# 3 38.9752 38.9752 101.6511 0.0000 0.0000 0.0000
# 4 -5.9980 5.9980 0.0000 28.0660 0.0000 0.0000
# 5 0.0000 0.0000 0.0000 0.0000 28.0660 -5.9980
# 6 0.0000 0.0000 0.0000 0.0000 -5.9980 32.7316
#
#
#
# Elastic Compliance Matrix: (Units=1/GPa)
#
#
# Indices 1 2 3 4 5 6 
#
# 1 0.012819 -0.003079 -0.003735 0.003398 0.000000 0.000000
# 2 -0.003079 0.012819 -0.003735 -0.003398 0.000000 0.000000
# 3 -0.003735 -0.003735 0.012701 0.000000 0.000000 0.000000
# 4 0.003398 -0.003398 0.000000 0.037083 0.000000 0.000000
# 5 0.000000 0.000000 0.000000 0.000000 0.037083 0.006795
# 6 0.000000 0.000000 0.000000 0.000000 0.006795 0.031797
#
#
# Mechanical properties :
#
#
# Convention : Reuss Voigt Hill
#
# Bulk Modulus (GPa) = 57.99270 58.07318 58.03294
# Shear Modulus (GPa) = 29.21468 30.31749 29.76609
#
# Velocity S-wave (km/s) = 3.61357 3.68114 3.64751
# Velocity P-wave (km/s) = 6.58263 6.63508 6.60891
#
# Compressibility (1/GPa) = 0.01724355
#
# Stress axis : x y z
#
# Youngs Moduli (GPa) = 78.00682 78.00682 78.73098
#
# Poissons Ratio (x) = 0.24018 0.29403
# Poissons Ratio (y) = 0.24018 0.29403
# Poissons Ratio (z) = 0.29133 0.29133
#
# Static dielectric constant tensor:
#      x y z
#    x 4.176480 0.000000 0.000000 
#    y 0.000000 4.176480 0.000000 
#    z 0.000000 0.000000 4.199340 
# 
# 
# High freq. dielectric constant tensor:
#      x y z
#    x 1.887360 0.000000 0.000000 
#    y 0.000000 1.887360 0.000000 
#    z 0.000000 0.000000 1.876300 
# 
# From -- ./inp_files/3797.got.cif
#   From: 2010.03.12/outbox.cif.g09.slc.cpg/sg154_2_cif.got.tgz:3797.got - 2010.04.03 13:51:21.
