data_PCOD8322459
_publ_section_title
;
Structure prediction by ZEFSAII (Michael W. Deem and Ramdas Pophale) SiO2 
 PCOD8322459
Probable space group: R 3 2
;
_chemical_formula_sum "Si O2"
_cell_formula_units_Z 72
_cell_length_a 21.251092
_cell_length_b 21.251092
_cell_length_c 10.191576
_cell_angle_alpha 90.000000
_cell_angle_beta 90.000000
_cell_angle_gamma 120.000000
_cell_volume 3985.974188
_symmetry_space_group_name_H-M "R 3 2"
_symmetry_group_IT_number 155
_symmetry_cell_setting 'hexagonal'
loop_
_space_group_symop_operation_xyz
x,y,z
-y,x-y,z
-x+y,-x,z
x-y,-y,-z
-x,-x+y,-z
y,x,-z
2/3+x,1/3+y,1/3+z
2/3-y,1/3+x-y,1/3+z
2/3-x+y,1/3-x,1/3+z
2/3+x-y,1/3-y,1/3-z
2/3-x,1/3-x+y,1/3-z
2/3+y,1/3+x,1/3-z
1/3+x,2/3+y,2/3+z
1/3-y,2/3+x-y,2/3+z
1/3-x+y,2/3-x,2/3+z
1/3+x-y,2/3-y,2/3-z
1/3-x,2/3-x+y,2/3-z
1/3+y,2/3+x,2/3-z
loop_
_atom_site_type_symbol
_atom_site_label
_atom_site_fract_x
_atom_site_fract_y
_atom_site_fract_z
Si Si1 0.449711 0.116378 0.333334
Si Si2 0.666667 0.860429 0.333334
Si Si3 0.139194 0.890182 0.794730
Si Si4 0.034835 0.447693 0.209830
Si Si5 0.582358 0.914793 0.821019
O O1 0.468878 0.180989 0.229222
O O2 0.380710 0.108972 0.411204
O O3 0.711545 0.837414 0.428820
O O4 0.719118 0.926364 0.236140
O O5 0.184245 0.850912 0.833334
O O6 0.168304 0.925575 0.654173
O O7 0.054813 0.829908 0.782100
O O8 0.057673 0.391007 0.166667
O O9 0.564981 0.898315 0.666667
O O10 0.666667 0.972675 0.833334
#
# Coordination Sequence:
#
# PCOD8322459 Si02
#       5
#     9   9  18  18  18
#     4  10  17  34  54  76 116 152 187 236 296 352
#     4  12  23  34  58  82 122 158 197 230 302 360
#     4   9  19  31  50  76 111 150 190 234 292 339
#     4  11  21  33  53  82 116 150 185 239 296 359
#     4  11  21  35  53  79 117 156 191 240 285 350
#
# _framework density 18.063338000000002
#
# number of rings (size 3 to 8) (size 9 to 14) (size 15 to 20)
#    0.000    1.500    1.250    9.000    0.000    0.000 
#    0.000    0.000    0.000    0.000    0.000    0.000 
#  122.500    0.000    0.000    0.000    0.000    0.000 
#
# Total GULP energy -297370.566354 kJ/mol
# GULP energy per Si atom -12390.440265 kJ/mol
# Density = 1.802223 g / cm^3
# Si number density = 18.063338 Si / 1000 Ang^3
#
#
#
# Elastic Constant Matrix: (Units=GPa)
#
#
# Indices 1 2 3 4 5 6 
#
# 1 64.0006 26.8010 29.6684 0.9047 0.0002 0.0000
# 2 26.8010 64.0004 29.6670 -0.9045 0.0001 0.0001
# 3 29.6684 29.6670 111.7271 0.0011 0.0019 -0.0001
# 4 0.9047 -0.9045 0.0011 27.3914 0.0006 0.0003
# 5 0.0002 0.0001 0.0019 0.0006 27.3916 0.9043
# 6 0.0000 0.0001 -0.0001 0.0003 0.9043 18.5998
#
#
#
# Elastic Compliance Matrix: (Units=1/GPa)
#
#
# Indices 1 2 3 4 5 6 
#
# 1 0.020125 -0.006800 -0.003539 -0.000889 0.000000 0.000000
# 2 -0.006800 0.020125 -0.003538 0.000889 0.000000 0.000000
# 3 -0.003539 -0.003538 0.010830 0.000000 -0.000001 0.000000
# 4 -0.000889 0.000889 0.000000 0.036567 -0.000001 -0.000001
# 5 0.000000 0.000000 -0.000001 -0.000001 0.036566 -0.001778
# 6 0.000000 0.000000 0.000000 -0.000001 -0.001778 0.053850
#
#
# Mechanical properties :
#
#
# Convention : Reuss Voigt Hill
#
# Bulk Modulus (GPa) = 42.86957 45.77786 44.32372
# Shear Modulus (GPa) = 23.40909 24.91601 24.16255
#
# Velocity S-wave (km/s) = 3.60383 3.71801 3.66137
# Velocity P-wave (km/s) = 6.41102 6.62039 6.51655
#
# Compressibility (1/GPa) = 0.02332657
#
# Stress axis : x y z
#
# Youngs Moduli (GPa) = 49.68854 49.68897 92.34035
#
# Poissons Ratio (x) = 0.33789 0.32675
# Poissons Ratio (y) = 0.33789 0.32671
# Poissons Ratio (z) = 0.17582 0.17581
#
# Static dielectric constant tensor:
#      x y z
#    x 3.259080 0.000000 0.000000 
#    y 0.000000 3.259080 0.000000 
#    z 0.000000 0.000000 3.864980 
# 
# 
# High freq. dielectric constant tensor:
#      x y z
#    x 1.672120 0.000000 0.000000 
#    y 0.000000 1.672120 0.000000 
#    z 0.000000 0.000000 1.726570 
# 
# From -- ./inp_files/2471.got.cif
#   From: 2010.03.12/outbox.cif.g09.slc.cpg/sg155_2_cif.got.tgz:2471.got - 2010.04.03 13:54:13.
