data_PCOD8322403
_publ_section_title
;
Structure prediction by ZEFSAII (Michael W. Deem and Ramdas Pophale) SiO2 
 PCOD8322403
Probable space group: P 32 2 1
;
_chemical_formula_sum "Si O2"
_cell_formula_units_Z 27
_cell_length_a 8.614328
_cell_length_b 8.614328
_cell_length_c 18.982602
_cell_angle_alpha 90.000000
_cell_angle_beta 90.000000
_cell_angle_gamma 120.000000
_cell_volume 1219.913906
_symmetry_space_group_name_H-M "P 32 2 1"
_symmetry_group_IT_number 154
_symmetry_cell_setting 'hexagonal'
loop_
_space_group_symop_operation_xyz
x,y,z
-y,x-y,2/3+z
-x+y,-x,1/3+z
x-y,-y,1/3-z
-x,-x+y,2/3-z
y,x,-z
loop_
_atom_site_type_symbol
_atom_site_label
_atom_site_fract_x
_atom_site_fract_y
_atom_site_fract_z
Si Si1 0.614626 0.573645 0.607075
Si Si2 0.212245 0.543911 0.063562
Si Si3 0.667080 0.000000 0.166667
Si Si4 0.843181 0.843181 0.500000
Si Si5 0.299315 0.060971 0.806946
Si Si6 0.559694 0.559694 0.000000
O O1 0.577912 0.610021 0.686090
O O2 0.744708 0.491393 0.604570
O O3 0.425996 0.441854 0.570374
O O4 0.709822 0.762968 0.566298
O O5 0.170060 0.471101 0.143073
O O6 0.375449 0.528160 0.032118
O O7 0.854972 0.182866 0.170126
O O8 0.026641 0.853122 0.521241
O O9 0.370937 0.081382 0.727397
#
# Coordination Sequence:
#
# PCOD8322403 Si02
#       6
#     6   6   3   3   6   3
#     4  11  25  43  70 109 139 189 236 289 359 421
#     4  12  27  43  74 100 148 185 237 295 354 429
#     4  10  22  48  68 104 136 188 226 296 346 432
#     4  10  26  44  74  98 148 182 240 292 348 428
#     4  11  26  47  72 101 142 188 236 295 357 423
#     4  12  28  46  72 108 140 192 244 296 356 428
#
# _framework density 22.132709999999999
#
# number of rings (size 3 to 8) (size 9 to 14) (size 15 to 20)
#    0.000    0.889    2.222    2.667   12.444    3.556 
#    0.000    0.000    0.000    0.000    0.000    0.000 
#    0.000    0.000    0.000    0.000    0.000    0.000 
#
# Total GULP energy -334961.933978 kJ/mol
# GULP energy per Si atom -12405.997555 kJ/mol
# Density = 2.208233 g / cm^3
# Si number density = 22.132710 Si / 1000 Ang^3
#
#
#
# Elastic Constant Matrix: (Units=GPa)
#
#
# Indices 1 2 3 4 5 6 
#
# 1 117.8498 47.3051 57.7237 1.1870 -0.0012 0.0000
# 2 47.3051 117.8498 57.7237 -1.1870 0.0012 0.0000
# 3 57.7237 57.7237 162.7358 0.0000 0.0000 0.0000
# 4 1.1870 -1.1870 0.0000 -18.2091 0.0000 0.0012
# 5 -0.0012 0.0012 0.0000 0.0000 -18.2091 1.1870
# 6 0.0000 0.0000 0.0000 0.0012 1.1870 35.2723
#
#
#
# Elastic Compliance Matrix: (Units=1/GPa)
#
#
# Indices 1 2 3 4 5 6 
#
# 1 0.011098 -0.003047 -0.002856 0.000922 -0.000001 0.000000
# 2 -0.003047 0.011098 -0.002856 -0.000922 0.000001 0.000000
# 3 -0.002856 -0.002856 0.008171 0.000000 0.000000 0.000000
# 4 0.000922 -0.000922 0.000000 -0.054797 0.000000 0.000002
# 5 -0.000001 0.000001 0.000000 0.000000 -0.054797 0.001844
# 6 0.000000 0.000000 0.000000 0.000002 0.001844 0.028289
#
#
# Mechanical properties :
#
#
# Convention : Reuss Voigt Hill
#
# Bulk Modulus (GPa) = 77.82094 80.43782 79.12938
# Shear Modulus (GPa) = -171.58876 15.48301 -78.05288
#
# Velocity S-wave (km/s) = -8.81451 2.64778 -5.94495
# Velocity P-wave (km/s) = 8.26781 6.76535 3.36056
#
# Compressibility (1/GPa) = 0.01285001
#
# Stress axis : x y z
#
# Youngs Moduli (GPa) = 90.10793 90.10793 122.38555
#
# Poissons Ratio (x) = 0.27452 0.34951
# Poissons Ratio (y) = 0.27452 0.34951
# Poissons Ratio (z) = 0.25733 0.25733
#
# Static dielectric constant tensor:
#      x y z
#    x 4.064650 0.000000 0.000000 
#    y 0.000000 4.064650 0.000000 
#    z 0.000000 0.000000 4.063990 
# 
# 
# High freq. dielectric constant tensor:
#      x y z
#    x 1.882310 0.000000 0.000000 
#    y 0.000000 1.882310 0.000000 
#    z 0.000000 0.000000 1.876150 
# 
# From -- ./inp_files/2724.got.cif
#   From: 2010.03.12/outbox.cif.g09.slc.cpg/sg154_2_cif.got.tgz:2724.got - 2010.04.03 13:51:21.
