data_PCOD8322740
_publ_section_title
;
Structure prediction by ZEFSAII (Michael W. Deem and Ramdas Pophale) SiO2 
 PCOD8322740
Probable space group: P 3 1 M
;
_chemical_formula_sum "Si O2"
_cell_formula_units_Z 24
_cell_length_a 15.620685
_cell_length_b 15.620685
_cell_length_c 7.126867
_cell_angle_alpha 90.000000
_cell_angle_beta 90.000000
_cell_angle_gamma 120.000000
_cell_volume 1506.015478
_symmetry_space_group_name_H-M "P 3 1 M"
_symmetry_group_IT_number 157
_symmetry_cell_setting 'hexagonal'
loop_
_space_group_symop_operation_xyz
x,y,z
-y,x-y,z
-x+y,-x,z
y,x,z
x-y,-y,z
-x,-x+y,z
loop_
_atom_site_type_symbol
_atom_site_label
_atom_site_fract_x
_atom_site_fract_y
_atom_site_fract_z
Si Si1 0.558288 0.444007 0.837640
Si Si2 0.114160 0.697196 0.542395
Si Si3 0.583035 0.697195 0.544579
Si Si4 0.441711 0.555993 0.249334
O O1 0.522908 0.522908 0.861514
O O2 0.473146 0.345889 0.738859
O O3 0.655790 0.500141 0.708870
O O4 0.582917 0.417082 0.043487
O O5 0.183752 0.816248 0.543487
O O6 0.155649 0.655791 0.378104
O O7 0.000000 0.668135 0.513659
O O8 0.668134 0.668134 0.573314
O O9 0.526853 0.654111 0.348116
O O10 0.477092 0.477092 0.225462
#
# Coordination Sequence:
#
# PCOD8322740 Si02
#       4
#     6   6   6   6
#     4   8  15  29  46  61  81 110 141 177 218 257
#     4   9  17  29  45  64  88 116 147 179 213 257
#     4   9  17  29  45  64  88 116 147 179 213 257
#     4   8  15  29  46  61  81 110 141 177 218 257
#
# _framework density 15.936090999999999
#
# number of rings (size 3 to 8) (size 9 to 14) (size 15 to 20)
#    0.000    3.500    0.000    3.000    0.000    2.000 
#   12.000    0.000    0.000    0.500    0.000    0.000 
#    0.000    0.000    0.000   25.000    0.000    0.000 
#
# Total GULP energy -297318.863956 kJ/mol
# GULP energy per Si atom -12388.285998 kJ/mol
# Density = 1.589982 g / cm^3
# Si number density = 15.936091 Si / 1000 Ang^3
#
#
#
# Elastic Constant Matrix: (Units=GPa)
#
#
# Indices 1 2 3 4 5 6 
#
# 1 78.2779 36.2612 18.6697 0.0000 0.5489 0.0000
# 2 36.2612 78.2779 18.6697 0.0000 -0.5489 0.0000
# 3 18.6697 18.6697 124.6029 0.0000 0.0000 0.0000
# 4 0.0000 0.0000 0.0000 9.6493 0.0000 -0.5489
# 5 0.5489 -0.5489 0.0000 0.0000 9.6493 0.0000
# 6 0.0000 0.0000 0.0000 -0.5489 0.0000 21.0083
#
#
#
# Elastic Compliance Matrix: (Units=1/GPa)
#
#
# Indices 1 2 3 4 5 6 
#
# 1 0.016507 -0.007328 -0.001375 0.000000 -0.001356 0.000000
# 2 -0.007328 0.016507 -0.001375 0.000000 0.001356 0.000000
# 3 -0.001375 -0.001375 0.008438 0.000000 0.000000 0.000000
# 4 0.000000 0.000000 0.000000 0.103789 0.000000 0.002712
# 5 -0.001356 0.001356 0.000000 0.000000 0.103789 0.000000
# 6 0.000000 0.000000 0.000000 0.002712 0.000000 0.047671
#
#
# Mechanical properties :
#
#
# Convention : Reuss Voigt Hill
#
# Bulk Modulus (GPa) = 46.96081 47.59551 47.27816
# Shear Modulus (GPa) = 15.43416 21.89859 18.66637
#
# Velocity S-wave (km/s) = 3.11545 3.71097 3.42618
# Velocity P-wave (km/s) = 6.51718 6.94932 6.73672
#
# Compressibility (1/GPa) = 0.02129435
#
# Stress axis : x y z
#
# Youngs Moduli (GPa) = 60.57943 60.57943 118.51661
#
# Poissons Ratio (x) = 0.44394 0.16300
# Poissons Ratio (y) = 0.44394 0.16300
# Poissons Ratio (z) = 0.08332 0.08332
#
# Static dielectric constant tensor:
#      x y z
#    x 2.690820 0.000000 0.000000 
#    y 0.000000 2.690820 0.000000 
#    z 0.000000 0.000000 3.704870 
# 
# 
# High freq. dielectric constant tensor:
#      x y z
#    x 1.576810 0.000000 0.000000 
#    y 0.000000 1.576810 0.000000 
#    z 0.000000 0.000000 1.626870 
# 
# From -- ./inp_files/310.got.cif
#   From: 2010.03.12/outbox.cif.g09.slc.cpg/sg157_cif.got.tgz:310.got - 2010.04.03 13:59:21.
