data_PCOD8322169
_publ_section_title
;
Structure prediction by ZEFSAII (Michael W. Deem and Ramdas Pophale) SiO2 
 PCOD8322169
Probable space group: P 31 2 1
;
_chemical_formula_sum "Si O2"
_cell_formula_units_Z 36
_cell_length_a 8.475876
_cell_length_b 8.475876
_cell_length_c 25.935220
_cell_angle_alpha 90.000000
_cell_angle_beta 90.000000
_cell_angle_gamma 120.000000
_cell_volume 1613.577231
_symmetry_space_group_name_H-M "P 31 2 1"
_symmetry_group_IT_number 152
_symmetry_cell_setting 'hexagonal'
loop_
_space_group_symop_operation_xyz
x,y,z
-y,x-y,1/3+z
-x+y,-x,2/3+z
x-y,-y,2/3-z
-x,-x+y,1/3-z
y,x,-z
loop_
_atom_site_type_symbol
_atom_site_label
_atom_site_fract_x
_atom_site_fract_y
_atom_site_fract_z
Si Si1 0.955777 0.000000 0.333334
Si Si2 0.046784 0.693432 0.316668
Si Si3 0.290431 0.435639 0.456955
Si Si4 0.665727 0.958543 0.258007
Si Si5 0.500120 0.051261 0.080948
Si Si6 0.790229 0.194774 0.165777
Si Si7 0.562109 0.562109 0.000000
O O1 0.850058 0.989248 0.385391
O O2 0.144521 0.188805 0.332844
O O3 0.257896 0.835929 0.309079
O O4 0.963851 0.589992 0.262980
O O5 0.030077 0.551469 0.360504
O O6 0.295227 0.295227 0.500000
O O7 0.412710 0.640106 0.477239
O O8 0.091262 0.411761 0.446996
O O9 0.523718 0.745918 0.265231
O O10 0.586638 0.072309 0.287576
O O11 0.684255 0.012132 0.198876
O O12 0.691634 0.131821 0.110863
O O13 0.000000 0.248856 0.166667
#
# Coordination Sequence:
#
# PCOD8322169 Si02
#       7
#     3   6   6   6   6   6   3
#     4  10  22  46  64 104 132 180 230 282 346 406
#     4  11  25  46  71  99 137 181 231 282 351 413
#     4  11  27  47  69 102 140 185 230 291 350 421
#     4  11  24  42  68 102 138 177 231 284 346 410
#     4  12  26  44  73 103 138 186 233 290 350 416
#     4  11  26  44  67 100 141 186 231 287 346 417
#     4  10  26  40  70 100 134 180 218 288 334 424
#
# _framework density 22.310679
#
# number of rings (size 3 to 8) (size 9 to 14) (size 15 to 20)
#    0.000    1.000    1.667    3.000   14.000    0.667 
#    3.000    0.000    0.000    0.000    0.000    0.000 
#    0.000    0.000    0.000    0.000    0.000    0.000 
#
# Total GULP energy -446315.110638 kJ/mol
# GULP energy per Si atom -12397.641962 kJ/mol
# Density = 2.225990 g / cm^3
# Si number density = 22.310679 Si / 1000 Ang^3
#
#
#
# Elastic Constant Matrix: (Units=GPa)
#
#
# Indices 1 2 3 4 5 6 
#
# 1 91.6252 20.7016 34.0073 7.5486 -0.0007 0.0000
# 2 20.7016 91.6252 34.0073 -7.5486 0.0007 0.0000
# 3 34.0073 34.0073 122.3368 0.0000 0.0000 0.0000
# 4 7.5486 -7.5486 0.0000 28.8485 0.0000 0.0007
# 5 -0.0007 0.0007 0.0000 0.0000 28.8485 7.5486
# 6 0.0000 0.0000 0.0000 0.0007 7.5486 35.4618
#
#
#
# Elastic Compliance Matrix: (Units=1/GPa)
#
#
# Indices 1 2 3 4 5 6 
#
# 1 0.012818 -0.002113 -0.002976 -0.003907 0.000000 0.000000
# 2 -0.002113 0.012818 -0.002976 0.003907 0.000000 0.000000
# 3 -0.002976 -0.002976 0.009828 0.000000 0.000000 0.000000
# 4 -0.003907 0.003907 0.000000 0.036708 0.000000 -0.000001
# 5 0.000000 0.000000 0.000000 0.000000 0.036708 -0.007814
# 6 0.000000 0.000000 0.000000 -0.000001 -0.007814 0.029863
#
#
# Mechanical properties :
#
#
# Convention : Reuss Voigt Hill
#
# Bulk Modulus (GPa) = 51.72033 53.66883 52.69458
# Shear Modulus (GPa) = 30.99465 33.08983 32.04224
#
# Velocity S-wave (km/s) = 3.73128 3.85533 3.79381
# Velocity P-wave (km/s) = 6.46494 6.62764 6.54679
#
# Compressibility (1/GPa) = 0.01933476
#
# Stress axis : x y z
#
# Youngs Moduli (GPa) = 78.01620 78.01620 101.74512
#
# Poissons Ratio (x) = 0.16489 0.30275
# Poissons Ratio (y) = 0.16489 0.30275
# Poissons Ratio (z) = 0.23215 0.23215
#
# Static dielectric constant tensor:
#      x y z
#    x 4.073990 0.000000 0.000000 
#    y 0.000000 4.073990 0.000000 
#    z 0.000000 0.000000 4.262910 
# 
# 
# High freq. dielectric constant tensor:
#      x y z
#    x 1.885530 0.000000 0.000000 
#    y 0.000000 1.885530 0.000000 
#    z 0.000000 0.000000 1.880780 
# 
# From -- ./inp_files/3444.got.cif
#   From: 2010.03.12/outbox.cif.g09.slc.cpg/sg152_2_cif.got.tgz:3444.got - 2010.04.03 13:45:27.
