data_PCOD8322344
_publ_section_title
;
Structure prediction by ZEFSAII (Michael W. Deem and Ramdas Pophale) SiO2 
 PCOD8322344
Probable space group: P 32 2 1
;
_chemical_formula_sum "Si O2"
_cell_formula_units_Z 45
_cell_length_a 11.861364
_cell_length_b 11.861364
_cell_length_c 17.778787
_cell_angle_alpha 90.000000
_cell_angle_beta 90.000000
_cell_angle_gamma 120.000000
_cell_volume 2166.217330
_symmetry_space_group_name_H-M "P 32 2 1"
_symmetry_group_IT_number 154
_symmetry_cell_setting 'hexagonal'
loop_
_space_group_symop_operation_xyz
x,y,z
-y,x-y,2/3+z
-x+y,-x,1/3+z
x-y,-y,1/3-z
-x,-x+y,2/3-z
y,x,-z
loop_
_atom_site_type_symbol
_atom_site_label
_atom_site_fract_x
_atom_site_fract_y
_atom_site_fract_z
Si Si1 0.912933 0.178027 0.568288
Si Si2 0.963047 0.000000 0.666667
Si Si3 0.620197 0.452447 0.220741
Si Si4 0.461516 0.109237 0.720481
Si Si5 0.645433 0.852989 0.193628
Si Si6 0.915882 0.774998 0.080815
Si Si7 0.593565 0.973794 0.327114
Si Si8 0.238605 0.684988 0.734328
O O1 0.828647 0.248834 0.584141
O O2 0.834553 0.068533 0.504020
O O3 0.933583 0.112300 0.641261
O O4 0.056193 0.283040 0.542111
O O5 0.071774 0.048982 0.731749
O O6 0.591538 0.469166 0.133861
O O7 0.503944 0.438603 0.271162
O O8 0.623006 0.319480 0.230977
O O9 0.311395 0.072208 0.732325
O O10 0.545907 0.245205 0.677641
O O11 0.463100 0.000000 0.666667
O O12 0.566707 0.860785 0.266665
O O13 0.545247 0.763718 0.129840
O O14 0.747210 0.000000 0.166667
O O15 0.984728 0.718308 0.028667
O O16 0.581358 0.087816 0.284011
#
# Coordination Sequence:
#
# PCOD8322344 Si02
#       8
#     6   3   6   6   6   6   6   6
#     4  11  24  37  64  95 136 171 216 277 344 406
#     4  12  20  38  64  96 134 172 214 286 340 404
#     4  11  26  42  61  99 135 182 224 275 340 418
#     4  10  21  39  64  94 125 172 219 281 331 394
#     4  10  20  40  70 102 122 169 231 285 328 391
#     4  10  20  37  63  97 126 164 221 280 333 396
#     4  10  23  41  68  95 133 174 231 278 336 405
#     4  10  23  40  67  95 128 172 224 278 328 398
#
# _framework density 20.773541000000002
#
# number of rings (size 3 to 8) (size 9 to 14) (size 15 to 20)
#    0.000    1.600    2.000    2.800    5.600    5.333 
#    3.600    0.000    0.000    3.200    0.000    0.000 
#    0.000    0.000    0.000    0.000    0.000    0.000 
#
# Total GULP energy -557756.141358 kJ/mol
# GULP energy per Si atom -12394.580919 kJ/mol
# Density = 2.072626 g / cm^3
# Si number density = 20.773541 Si / 1000 Ang^3
#
#
#
# Elastic Constant Matrix: (Units=GPa)
#
#
# Indices 1 2 3 4 5 6 
#
# 1 70.5115 27.4950 34.1739 -4.3838 0.0000 0.0000
# 2 27.4950 70.5115 34.1739 4.3838 0.0000 0.0000
# 3 34.1739 34.1739 122.9090 0.0000 0.0000 0.0000
# 4 -4.3838 4.3838 0.0000 38.0688 0.0000 0.0000
# 5 0.0000 0.0000 0.0000 0.0000 38.0688 -4.3838
# 6 0.0000 0.0000 0.0000 0.0000 -4.3838 21.5082
#
#
#
# Elastic Compliance Matrix: (Units=1/GPa)
#
#
# Indices 1 2 3 4 5 6 
#
# 1 0.018232 -0.005574 -0.003519 0.002741 0.000000 0.000000
# 2 -0.005574 0.018232 -0.003519 -0.002741 0.000000 0.000000
# 3 -0.003519 -0.003519 0.010093 0.000000 0.000000 0.000000
# 4 0.002741 -0.002741 0.000000 0.026900 0.000000 0.000000
# 5 0.000000 0.000000 0.000000 0.000000 0.026900 0.005483
# 6 0.000000 0.000000 0.000000 0.000000 0.005483 0.047611
#
#
# Mechanical properties :
#
#
# Convention : Reuss Voigt Hill
#
# Bulk Modulus (GPa) = 46.87987 50.62421 48.75204
# Shear Modulus (GPa) = 27.73113 30.73513 29.23313
#
# Velocity S-wave (km/s) = 3.65763 3.85064 3.75537
# Velocity P-wave (km/s) = 6.36033 6.64774 6.50562
#
# Compressibility (1/GPa) = 0.02133112
#
# Stress axis : x y z
#
# Youngs Moduli (GPa) = 54.84953 54.84953 99.07682
#
# Poissons Ratio (x) = 0.30573 0.34869
# Poissons Ratio (y) = 0.30573 0.34869
# Poissons Ratio (z) = 0.19304 0.19304
#
# Static dielectric constant tensor:
#      x y z
#    x 3.596680 0.000000 0.000000 
#    y 0.000000 3.596680 0.000000 
#    z 0.000000 0.000000 4.230180 
# 
# 
# High freq. dielectric constant tensor:
#      x y z
#    x 1.795320 0.000000 0.000000 
#    y 0.000000 1.795320 0.000000 
#    z 0.000000 0.000000 1.826510 
# 
# From -- ./inp_files/2491.got.cif
#   From: 2010.03.12/outbox.cif.g09.slc.cpg/sg154_2_cif.got.tgz:2491.got - 2010.04.03 13:51:21.
