data_PCOD8322739
_publ_section_title
;
Structure prediction by ZEFSAII (Michael W. Deem and Ramdas Pophale) SiO2 
 PCOD8322739
Probable space group: P 3 1 M
;
_chemical_formula_sum "Si O2"
_cell_formula_units_Z 48
_cell_length_a 19.089637
_cell_length_b 19.089637
_cell_length_c 9.360104
_cell_angle_alpha 90.000000
_cell_angle_beta 90.000000
_cell_angle_gamma 120.000000
_cell_volume 2953.973848
_symmetry_space_group_name_H-M "P 3 1 M"
_symmetry_group_IT_number 157
_symmetry_cell_setting 'hexagonal'
loop_
_space_group_symop_operation_xyz
x,y,z
-y,x-y,z
-x+y,-x,z
y,x,z
x-y,-y,z
-x,-x+y,z
loop_
_atom_site_type_symbol
_atom_site_label
_atom_site_fract_x
_atom_site_fract_y
_atom_site_fract_z
Si Si1 0.091837 0.342169 0.177330
Si Si2 0.342169 0.091837 0.512483
Si Si3 0.487116 0.391625 0.186297
Si Si4 0.911376 0.671098 0.514158
Si Si5 0.095491 0.608375 0.503517
Si Si6 0.096016 0.480705 0.004824
Si Si7 0.519295 0.615311 0.684988
Si Si8 0.671097 0.911376 0.175655
O O1 0.099588 0.362728 0.344906
O O2 0.149791 0.306544 0.130777
O O3 0.000000 0.275162 0.137132
O O4 0.121868 0.425306 0.093212
O O5 0.306544 0.149791 0.559036
O O6 0.425306 0.121868 0.596601
O O7 0.275163 0.000000 0.552681
O O8 0.449739 0.449739 0.197835
O O9 0.515066 0.381534 0.344907
O O10 0.419280 0.305155 0.121529
O O11 0.564768 0.432133 0.081997
O O12 0.885875 0.580720 0.568284
O O13 0.918547 0.669858 0.344907
O O14 0.000000 0.737466 0.576427
O O15 0.132634 0.567867 0.607816
O O16 0.000000 0.550263 0.491978
O O17 0.131855 0.493935 0.844906
O O18 0.000000 0.437847 0.999266
O O19 0.562153 0.562153 0.690547
O O20 0.737465 0.000000 0.113386
#
# Coordination Sequence:
#
# PCOD8322739 Si02
#       8
#     6   6   6   6   6   6   6   6
#     4   9  16  26  42  63  85 112 147 182 214 252
#     4   9  16  26  42  63  85 112 147 182 214 252
#     4   8  13  23  40  59  77  99 129 164 201 244
#     4   8  14  25  42  63  85 110 143 183 220 250
#     4   8  13  23  40  59  77  99 129 164 201 244
#     4   9  16  25  38  58  83 106 127 158 203 251
#     4   9  16  25  38  58  83 106 127 158 203 251
#     4   8  14  25  42  63  85 110 143 183 220 250
#
# _framework density 16.249298
#
# number of rings (size 3 to 8) (size 9 to 14) (size 15 to 20)
#    0.000    3.500    0.000    2.250    0.000    3.000 
#    0.000    1.250    0.000    3.750    0.000    7.000 
#    0.000    0.000    0.000    0.000    0.000    0.500 
#
# Total GULP energy -594745.677410 kJ/mol
# GULP energy per Si atom -12390.534946 kJ/mol
# Density = 1.621231 g / cm^3
# Si number density = 16.249298 Si / 1000 Ang^3
#
#
#
# Elastic Constant Matrix: (Units=GPa)
#
#
# Indices 1 2 3 4 5 6 
#
# 1 93.4925 56.4058 31.3295 0.0000 0.0000 0.0000
# 2 56.4058 93.4925 31.3295 0.0000 0.0000 0.0000
# 3 31.3295 31.3295 59.4521 0.0000 0.0000 0.0000
# 4 0.0000 0.0000 0.0000 7.9969 0.0000 0.0000
# 5 0.0000 0.0000 0.0000 0.0000 7.9969 0.0000
# 6 0.0000 0.0000 0.0000 0.0000 0.0000 18.5434
#
#
#
# Elastic Compliance Matrix: (Units=1/GPa)
#
#
# Indices 1 2 3 4 5 6 
#
# 1 0.017760 -0.009204 -0.004509 0.000000 0.000000 0.000000
# 2 -0.009204 0.017760 -0.004509 0.000000 0.000000 0.000000
# 3 -0.004509 -0.004509 0.021572 0.000000 0.000000 0.000000
# 4 0.000000 0.000000 0.000000 0.125049 0.000000 0.000000
# 5 0.000000 0.000000 0.000000 0.000000 0.125049 0.000000
# 6 0.000000 0.000000 0.000000 0.000000 0.000000 0.053928
#
#
# Mechanical properties :
#
#
# Convention : Reuss Voigt Hill
#
# Bulk Modulus (GPa) = 48.42817 53.84072 51.13444
# Shear Modulus (GPa) = 12.36270 15.39892 13.88081
#
# Velocity S-wave (km/s) = 2.76128 3.08176 2.92591
# Velocity P-wave (km/s) = 6.32725 6.77267 6.55375
#
# Compressibility (1/GPa) = 0.02064914
#
# Stress axis : x y z
#
# Youngs Moduli (GPa) = 56.30679 56.30679 46.35611
#
# Poissons Ratio (x) = 0.51825 0.20900
# Poissons Ratio (y) = 0.51825 0.20900
# Poissons Ratio (z) = 0.25387 0.25387
#
# Static dielectric constant tensor:
#      x y z
#    x 3.033780 0.000000 0.000000 
#    y 0.000000 3.033780 0.000000 
#    z 0.000000 0.000000 3.082410 
# 
# 
# High freq. dielectric constant tensor:
#      x y z
#    x 1.599240 0.000000 0.000000 
#    y 0.000000 1.599240 0.000000 
#    z 0.000000 0.000000 1.602370 
# 
# From -- ./inp_files/525.got.cif
#   From: 2010.03.12/outbox.cif.g09.slc.cpg/sg157_cif.got.tgz:525.got - 2010.04.03 13:59:21.
