data_PCOD8322184
_publ_section_title
;
Structure prediction by ZEFSAII (Michael W. Deem and Ramdas Pophale) SiO2 
 PCOD8322184
Probable space group: P 31 2 1
;
_chemical_formula_sum "Si O2"
_cell_formula_units_Z 24
_cell_length_a 7.635162
_cell_length_b 7.635162
_cell_length_c 21.643896
_cell_angle_alpha 90.000000
_cell_angle_beta 90.000000
_cell_angle_gamma 120.000000
_cell_volume 1092.704125
_symmetry_space_group_name_H-M "P 31 2 1"
_symmetry_group_IT_number 152
_symmetry_cell_setting 'hexagonal'
loop_
_space_group_symop_operation_xyz
x,y,z
-y,x-y,1/3+z
-x+y,-x,2/3+z
x-y,-y,2/3-z
-x,-x+y,1/3-z
y,x,-z
loop_
_atom_site_type_symbol
_atom_site_label
_atom_site_fract_x
_atom_site_fract_y
_atom_site_fract_z
Si Si1 0.148509 0.247486 0.937874
Si Si2 0.888850 0.594909 0.278054
Si Si3 0.694607 0.307624 0.063116
Si Si4 0.216487 0.468206 0.141251
O O1 0.278832 0.481578 0.958488
O O2 0.919977 0.166517 0.913618
O O3 0.270468 0.214912 0.883286
O O4 0.122064 0.122064 0.000000
O O5 0.822101 0.573921 0.350070
O O6 0.745129 0.375283 0.246028
O O7 0.127769 0.670423 0.271700
O O8 0.642811 0.205322 0.131821
O O9 0.000000 0.411092 0.166667
#
# Coordination Sequence:
#
# PCOD8322184 Si02
#       4
#     6   6   6   6
#     4  12  24  44  69 101 137 184 232 284 354 417
#     4  11  23  46  69  97 142 184 227 288 351 407
#     4  11  23  42  72 100 140 183 232 292 343 418
#     4  10  24  45  64 100 140 174 238 293 339 423
#
# _framework density 21.963861000000001
#
# number of rings (size 3 to 8) (size 9 to 14) (size 15 to 20)
#    0.000    1.000    5.000    1.500    3.500    4.000 
#    0.000    0.000    0.000    0.000    0.000    0.000 
#    0.000    0.000    0.000    0.000    0.000    0.000 
#
# Total GULP energy -297477.137429 kJ/mol
# GULP energy per Si atom -12394.880726 kJ/mol
# Density = 2.191387 g / cm^3
# Si number density = 21.963861 Si / 1000 Ang^3
#
#
#
# Elastic Constant Matrix: (Units=GPa)
#
#
# Indices 1 2 3 4 5 6 
#
# 1 125.7688 47.5499 34.3671 1.7411 0.0000 0.0000
# 2 47.5499 125.7688 34.3671 -1.7411 0.0000 0.0000
# 3 34.3671 34.3671 108.2460 0.0000 0.0000 0.0000
# 4 1.7411 -1.7411 0.0000 22.5214 0.0000 0.0000
# 5 0.0000 0.0000 0.0000 0.0000 22.5214 1.7411
# 6 0.0000 0.0000 0.0000 0.0000 1.7411 39.1095
#
#
#
# Elastic Compliance Matrix: (Units=1/GPa)
#
#
# Indices 1 2 3 4 5 6 
#
# 1 0.009715 -0.003114 -0.002096 -0.000992 0.000000 0.000000
# 2 -0.003114 0.009715 -0.002096 0.000992 0.000000 0.000000
# 3 -0.002096 -0.002096 0.010569 0.000000 0.000000 0.000000
# 4 -0.000992 0.000992 0.000000 0.044556 0.000000 0.000000
# 5 0.000000 0.000000 0.000000 0.000000 0.044556 -0.001984
# 6 0.000000 0.000000 0.000000 0.000000 -0.001984 0.025658
#
#
# Mechanical properties :
#
#
# Convention : Reuss Voigt Hill
#
# Bulk Modulus (GPa) = 64.98660 65.81689 65.40174
# Shear Modulus (GPa) = 30.39381 33.06376 31.72879
#
# Velocity S-wave (km/s) = 3.72400 3.88412 3.80490
# Velocity P-wave (km/s) = 6.93852 7.08140 7.01032
#
# Compressibility (1/GPa) = 0.01538779
#
# Stress axis : x y z
#
# Youngs Moduli (GPa) = 102.93566 102.93566 94.61679
#
# Poissons Ratio (x) = 0.32054 0.19829
# Poissons Ratio (y) = 0.32054 0.19829
# Poissons Ratio (z) = 0.21572 0.21572
#
# Static dielectric constant tensor:
#      x y z
#    x 3.855540 0.000000 0.000000 
#    y 0.000000 3.855540 0.000000 
#    z 0.000000 0.000000 5.459160 
# 
# 
# High freq. dielectric constant tensor:
#      x y z
#    x 1.853000 0.000000 0.000000 
#    y 0.000000 1.853000 0.000000 
#    z 0.000000 0.000000 1.878280 
# 
# From -- ./inp_files/2900.got.cif
#   From: 2010.03.12/outbox.cif.g09.slc.cpg/sg152_2_cif.got.tgz:2900.got - 2010.04.03 13:45:27.
