data_PCOD8322445
_publ_section_title
;
Structure prediction by ZEFSAII (Michael W. Deem and Ramdas Pophale) SiO2 
 PCOD8322445
Probable space group: P 32 2 1
;
_chemical_formula_sum "Si O2"
_cell_formula_units_Z 30
_cell_length_a 17.789698
_cell_length_b 17.789698
_cell_length_c 5.001409
_cell_angle_alpha 90.000000
_cell_angle_beta 90.000000
_cell_angle_gamma 120.000000
_cell_volume 1370.755995
_symmetry_space_group_name_H-M "P 32 2 1"
_symmetry_group_IT_number 154
_symmetry_cell_setting 'hexagonal'
loop_
_space_group_symop_operation_xyz
x,y,z
-y,x-y,2/3+z
-x+y,-x,1/3+z
x-y,-y,1/3-z
-x,-x+y,2/3-z
y,x,-z
loop_
_atom_site_type_symbol
_atom_site_label
_atom_site_fract_x
_atom_site_fract_y
_atom_site_fract_z
Si Si1 0.165928 0.458974 0.722353
Si Si2 0.000000 0.278838 0.833334
Si Si3 0.815581 0.565408 0.115868
Si Si4 0.000000 0.180117 0.333334
Si Si5 0.488769 0.938838 0.914258
Si Si6 0.944468 0.761324 0.072418
O O1 0.234068 0.462092 0.506635
O O2 0.136455 0.528154 0.651089
O O3 0.078370 0.367822 0.727633
O O4 0.216475 0.479147 0.003178
O O5 0.970972 0.213991 0.587440
O O6 0.887815 0.538309 0.164562
O O7 0.864135 0.668585 0.149518
O O8 0.913244 0.088360 0.282162
O O9 0.493340 0.000000 0.666667
O O10 0.534097 0.000000 0.166667
O O11 0.000000 0.804878 0.333334
O O12 0.000000 0.750800 0.833334
#
# Coordination Sequence:
#
# PCOD8322445 Si02
#       6
#     6   3   6   3   6   6
#     4  12  24  43  73 102 137 178 233 289 343 410
#     4  12  20  42  70 100 128 162 234 290 328 400
#     4  12  25  46  69 103 138 180 231 285 345 411
#     4  12  24  42  68  96 132 174 222 290 330 402
#     4  12  26  46  73 104 143 186 235 288 352 420
#     4  12  24  42  66  95 131 176 222 274 336 397
#
# _framework density 21.885733999999999
#
# number of rings (size 3 to 8) (size 9 to 14) (size 15 to 20)
#    0.000    0.000    5.000    6.000    1.400    0.000 
#    5.400    0.000    0.000    0.000    0.000    0.000 
#    0.000    0.000    0.000    0.000    0.000    0.000 
#
# Total GULP energy -372099.427557 kJ/mol
# GULP energy per Si atom -12403.314252 kJ/mol
# Density = 2.183592 g / cm^3
# Si number density = 21.885734 Si / 1000 Ang^3
#
#
#
# Elastic Constant Matrix: (Units=GPa)
#
#
# Indices 1 2 3 4 5 6 
#
# 1 86.4473 43.1821 31.1824 3.7304 0.0001 0.0000
# 2 43.1821 86.4473 31.1824 -3.7304 -0.0001 0.0000
# 3 31.1824 31.1824 126.6850 0.0000 0.0000 0.0000
# 4 3.7304 -3.7304 0.0000 36.2449 0.0000 -0.0001
# 5 0.0001 -0.0001 0.0000 0.0000 36.2449 3.7304
# 6 0.0000 0.0000 0.0000 -0.0001 3.7304 21.6326
#
#
#
# Elastic Compliance Matrix: (Units=1/GPa)
#
#
# Indices 1 2 3 4 5 6 
#
# 1 0.016141 -0.007390 -0.002154 -0.002422 0.000000 0.000000
# 2 -0.007390 0.016141 -0.002154 0.002422 0.000000 0.000000
# 3 -0.002154 -0.002154 0.008954 0.000000 0.000000 0.000000
# 4 -0.002422 0.002422 0.000000 0.028089 0.000000 0.000000
# 5 0.000000 0.000000 0.000000 0.000000 0.028089 -0.004844
# 6 0.000000 0.000000 0.000000 0.000000 -0.004844 0.047062
#
#
# Mechanical properties :
#
#
# Convention : Reuss Voigt Hill
#
# Bulk Modulus (GPa) = 56.05539 56.74147 56.39843
# Shear Modulus (GPa) = 28.76594 31.75999 30.26297
#
# Velocity S-wave (km/s) = 3.62936 3.81356 3.72260
# Velocity P-wave (km/s) = 6.57505 6.73599 6.65601
#
# Compressibility (1/GPa) = 0.01783950
#
# Stress axis : x y z
#
# Youngs Moduli (GPa) = 61.95518 61.95518 111.68316
#
# Poissons Ratio (x) = 0.45786 0.24055
# Poissons Ratio (y) = 0.45786 0.24055
# Poissons Ratio (z) = 0.13344 0.13344
#
# Static dielectric constant tensor:
#      x y z
#    x 3.961450 0.000000 0.000000 
#    y 0.000000 3.961450 0.000000 
#    z 0.000000 0.000000 4.031440 
# 
# 
# High freq. dielectric constant tensor:
#      x y z
#    x 1.860250 0.000000 0.000000 
#    y 0.000000 1.860250 0.000000 
#    z 0.000000 0.000000 1.877530 
# 
# From -- ./inp_files/401.got.cif
#   From: 2010.03.12/outbox.cif.g09.slc.cpg/sg154_1_cif.got.tgz:401.got - 2010.04.03 13:51:21.
