data_PCOD8322881
_publ_section_title
;
Structure prediction by ZEFSAII (Michael W. Deem and Ramdas Pophale) SiO2 
 PCOD8322881
Probable space group: R 3 M
;
_chemical_formula_sum "Si O2"
_cell_formula_units_Z 60
_cell_length_a 16.681058
_cell_length_b 16.681058
_cell_length_c 12.883017
_cell_angle_alpha 90.000000
_cell_angle_beta 90.000000
_cell_angle_gamma 120.000000
_cell_volume 3104.526679
_symmetry_space_group_name_H-M "R 3 M"
_symmetry_group_IT_number 160
_symmetry_cell_setting 'hexagonal'
loop_
_space_group_symop_operation_xyz
x,y,z
-y,x-y,z
-x+y,-x,z
-x+y,y,z
x,x-y,z
-y,-x,z
2/3+x,1/3+y,1/3+z
2/3-y,1/3+x-y,1/3+z
2/3-x+y,1/3-x,1/3+z
2/3-x+y,1/3+y,1/3+z
2/3+x,1/3+x-y,1/3+z
2/3-y,1/3-x,1/3+z
1/3+x,2/3+y,2/3+z
1/3-y,2/3+x-y,2/3+z
1/3-x+y,2/3-x,2/3+z
1/3-x+y,2/3+y,2/3+z
1/3+x,2/3+x-y,2/3+z
1/3-y,2/3-x,2/3+z
loop_
_atom_site_type_symbol
_atom_site_label
_atom_site_fract_x
_atom_site_fract_y
_atom_site_fract_z
Si Si1 0.333335 0.666668 0.002045
Si Si2 0.941919 0.232089 0.980966
Si Si3 0.438479 0.378946 0.553158
Si Si4 0.666667 0.333334 0.914505
Si Si5 0.772253 0.544506 0.913984
Si Si6 0.437942 0.562059 0.998866
O O1 0.333334 0.666667 0.125171
O O2 0.385175 0.614826 0.959412
O O3 0.877447 0.122554 0.949687
O O4 0.877258 0.279044 0.960358
O O5 0.034080 0.285556 0.913627
O O6 0.974868 0.238458 0.098576
O O7 0.541144 0.458857 0.583903
O O8 0.411245 0.285601 0.617540
O O9 0.719560 0.439119 0.954290
O O10 0.776004 0.552008 0.789077
#
# Coordination Sequence:
#
# PCOD8322881 Si02
#       6
#     3  18  18   3   9   9
#     4   9  18  33  48  87 133 131 181 255 294 363
#     4   9  22  41  54  85 120 156 198 248 288 355
#     4  11  22  38  62  88 119 159 200 247 302 356
#     4   9  18  33  60  87 109 158 190 237 303 348
#     4   9  20  39  57  85 127 152 193 249 301 356
#     4  11  20  35  61  91 119 155 192 247 312 353
#
# _framework density 19.326618
#
# number of rings (size 3 to 8) (size 9 to 14) (size 15 to 20)
#    0.900    1.200    1.500    1.800    2.100    1.200 
#    2.700    0.000    0.000    0.600    0.000    0.000 
#    0.000    0.000    0.000    0.000    0.000    0.000 
#
# Total GULP energy -247793.979623 kJ/mol
# GULP energy per Si atom -12389.698981 kJ/mol
# Density = 1.928263 g / cm^3
# Si number density = 19.326618 Si / 1000 Ang^3
#
#
#
# Elastic Constant Matrix: (Units=GPa)
#
#
# Indices 1 2 3 4 5 6 
#
# 1 60.8182 14.7696 19.2580 -4.6511 -0.0005 -0.0002
# 2 14.7696 60.8193 19.2581 4.6511 0.0005 -0.0001
# 3 19.2580 19.2581 37.6679 -0.0001 -0.0001 0.0000
# 4 -4.6511 4.6511 -0.0001 21.0604 0.0000 0.0004
# 5 -0.0005 0.0005 -0.0001 0.0000 21.0604 -4.6511
# 6 -0.0002 -0.0001 0.0000 0.0004 -4.6511 23.0245
#
#
#
# Elastic Compliance Matrix: (Units=1/GPa)
#
#
# Indices 1 2 3 4 5 6 
#
# 1 0.020310 -0.002420 -0.009147 0.005020 0.000001 0.000000
# 2 -0.002420 0.020310 -0.009146 -0.005020 -0.000001 0.000000
# 3 -0.009147 -0.009146 0.035900 0.000000 0.000000 0.000000
# 4 0.005020 -0.005020 0.000000 0.049700 0.000000 -0.000001
# 5 0.000001 -0.000001 0.000000 0.000000 0.049700 0.010040
# 6 0.000000 0.000000 0.000000 -0.000001 0.010040 0.045460
#
#
# Mechanical properties :
#
#
# Convention : Reuss Voigt Hill
#
# Bulk Modulus (GPa) = 28.49443 29.54186 29.01814
# Shear Modulus (GPa) = 18.21467 20.09703 19.15585
#
# Velocity S-wave (km/s) = 3.07329 3.22819 3.15169
# Velocity P-wave (km/s) = 5.23155 5.40497 5.31897
#
# Compressibility (1/GPa) = 0.03509458
#
# Stress axis : x y z
#
# Youngs Moduli (GPa) = 49.23622 49.23724 27.85494
#
# Poissons Ratio (x) = 0.11915 0.25478
# Poissons Ratio (y) = 0.11915 0.25477
# Poissons Ratio (z) = 0.45034 0.45034
#
# Static dielectric constant tensor:
#      x y z
#    x 3.454160 0.000000 0.000000 
#    y 0.000000 3.454140 0.000000 
#    z 0.000000 0.000000 3.306100 
# 
# 
# High freq. dielectric constant tensor:
#      x y z
#    x 1.742050 0.000000 0.000000 
#    y 0.000000 1.742050 0.000000 
#    z 0.000000 0.000000 1.744000 
# 
# From -- ./inp_files/1430.got.cif
#   From: 2010.03.12/outbox.cif.g09.slc.cpg/sg160_1_cif.got.tgz:1430.got - 2010.04.02 06:26:15.
