data_PCOD8322023
_publ_section_title
;
Structure prediction by ZEFSAII (Michael W. Deem and Ramdas Pophale) SiO2 
 PCOD8322023
Probable space group: P 31 2 1
;
_chemical_formula_sum "Si O2"
_cell_formula_units_Z 45
_cell_length_a 15.096336
_cell_length_b 15.096336
_cell_length_c 13.567197
_cell_angle_alpha 90.000000
_cell_angle_beta 90.000000
_cell_angle_gamma 120.000000
_cell_volume 2677.712029
_symmetry_space_group_name_H-M "P 31 2 1"
_symmetry_group_IT_number 152
_symmetry_cell_setting 'hexagonal'
loop_
_space_group_symop_operation_xyz
x,y,z
-y,x-y,1/3+z
-x+y,-x,2/3+z
x-y,-y,2/3-z
-x,-x+y,1/3-z
y,x,-z
loop_
_atom_site_type_symbol
_atom_site_label
_atom_site_fract_x
_atom_site_fract_y
_atom_site_fract_z
Si Si1 0.646321 0.528075 0.682865
Si Si2 0.000000 0.438368 0.666667
Si Si3 0.520555 0.749384 0.511126
Si Si4 0.144923 0.647195 0.369202
Si Si5 0.305287 0.596294 0.865876
Si Si6 0.588099 0.046514 0.148621
Si Si7 0.574750 0.677978 0.693701
Si Si8 0.720705 0.533714 0.094884
O O1 0.671795 0.521577 0.569139
O O2 0.724079 0.504477 0.743782
O O3 0.533878 0.441368 0.720203
O O4 0.658880 0.640634 0.699854
O O5 0.978661 0.486031 0.569547
O O6 0.909345 0.323785 0.688768
O O7 0.403291 0.709213 0.538690
O O8 0.570363 0.869237 0.479603
O O9 0.590539 0.752431 0.602906
O O10 0.256320 0.696460 0.420969
O O11 0.109392 0.532774 0.335808
O O12 0.167974 0.722401 0.275558
O O13 0.057404 0.641806 0.443574
O O14 0.415583 0.631378 0.910736
O O15 0.576380 0.734943 0.794120
#
# Coordination Sequence:
#
# PCOD8322023 Si02
#       8
#     6   3   6   6   6   6   6   6
#     4  10  19  34  46  70  95 134 172 208 250 287
#     4  12  18  36  48  70 102 126 176 228 246 286
#     4  11  21  31  52  69  97 141 174 208 241 303
#     4  10  19  33  46  68  99 131 166 218 244 292
#     4  10  18  29  49  71  93 132 180 198 244 298
#     4  10  22  32  50  74  98 130 180 215 252 291
#     4  10  21  34  44  72  99 129 181 207 247 296
#     4  11  20  31  50  69  99 138 168 216 244 298
#
# _framework density 16.805391
#
# number of rings (size 3 to 8) (size 9 to 14) (size 15 to 20)
#    0.000    1.600    5.333    3.600    5.600    0.000 
#    0.000    0.667    0.000    0.000    0.000    0.000 
#    0.000    0.000    9.067    0.000    0.000    0.000 
#
# Total GULP energy -557465.983900 kJ/mol
# GULP energy per Si atom -12388.132976 kJ/mol
# Density = 1.676714 g / cm^3
# Si number density = 16.805391 Si / 1000 Ang^3
#
#
#
# Elastic Constant Matrix: (Units=GPa)
#
#
# Indices 1 2 3 4 5 6 
#
# 1 39.4012 5.7791 24.2352 0.0914 0.0000 0.0000
# 2 5.7791 39.4012 24.2352 -0.0914 0.0000 0.0000
# 3 24.2352 24.2352 99.0469 0.0000 0.0000 0.0000
# 4 0.0914 -0.0914 0.0000 24.4693 0.0000 0.0000
# 5 0.0000 0.0000 0.0000 0.0000 24.4693 0.0914
# 6 0.0000 0.0000 0.0000 0.0000 0.0914 16.8110
#
#
#
# Elastic Compliance Matrix: (Units=1/GPa)
#
#
# Indices 1 2 3 4 5 6 
#
# 1 0.029877 0.000134 -0.007343 -0.000111 0.000000 0.000000
# 2 0.000134 0.029877 -0.007343 0.000111 0.000000 0.000000
# 3 -0.007343 -0.007343 0.013690 0.000000 0.000000 0.000000
# 4 -0.000111 0.000111 0.000000 0.040868 0.000000 0.000000
# 5 0.000000 0.000000 0.000000 0.000000 0.040868 -0.000222
# 6 0.000000 0.000000 0.000000 0.000000 -0.000222 0.059486
#
#
# Mechanical properties :
#
#
# Convention : Reuss Voigt Hill
#
# Bulk Modulus (GPa) = 22.55313 31.81645 27.18479
# Shear Modulus (GPa) = 19.33849 21.38993 20.36421
#
# Velocity S-wave (km/s) = 3.39592 3.57151 3.48482
# Velocity P-wave (km/s) = 5.36896 5.99841 5.69239
#
# Compressibility (1/GPa) = 0.04433975
#
# Stress axis : x y z
#
# Youngs Moduli (GPa) = 33.47019 33.47019 73.04689
#
# Poissons Ratio (x) = -0.00450 0.53641
# Poissons Ratio (y) = -0.00450 0.53641
# Poissons Ratio (z) = 0.24578 0.24578
#
# Static dielectric constant tensor:
#      x y z
#    x 3.206320 0.000000 0.000000 
#    y 0.000000 3.206320 0.000000 
#    z 0.000000 0.000000 3.311140 
# 
# 
# High freq. dielectric constant tensor:
#      x y z
#    x 1.612310 0.000000 0.000000 
#    y 0.000000 1.612310 0.000000 
#    z 0.000000 0.000000 1.662130 
# 
# From -- ./inp_files/2166.got.cif
#   From: 2010.03.12/outbox.cif.g09.slc.cpg/sg152_2_cif.got.tgz:2166.got - 2010.04.03 13:45:27.
