data_PCOD8322421
_publ_section_title
;
Structure prediction by ZEFSAII (Michael W. Deem and Ramdas Pophale) SiO2 
 PCOD8322421
Probable space group: P 32 2 1
;
_chemical_formula_sum "Si O2"
_cell_formula_units_Z 30
_cell_length_a 8.677479
_cell_length_b 8.677479
_cell_length_c 18.511594
_cell_angle_alpha 90.000000
_cell_angle_beta 90.000000
_cell_angle_gamma 120.000000
_cell_volume 1207.150979
_symmetry_space_group_name_H-M "P 32 2 1"
_symmetry_group_IT_number 154
_symmetry_cell_setting 'hexagonal'
loop_
_space_group_symop_operation_xyz
x,y,z
-y,x-y,2/3+z
-x+y,-x,1/3+z
x-y,-y,1/3-z
-x,-x+y,2/3-z
y,x,-z
loop_
_atom_site_type_symbol
_atom_site_label
_atom_site_fract_x
_atom_site_fract_y
_atom_site_fract_z
Si Si1 0.367929 0.308181 0.159261
Si Si2 0.972332 0.299946 0.491700
Si Si3 0.000000 0.209788 0.333334
Si Si4 0.150493 0.812934 0.018878
Si Si5 0.510923 0.623940 0.616430
Si Si6 0.351058 0.351058 0.500000
O O1 0.522873 0.499709 0.184714
O O2 0.191246 0.316913 0.137511
O O3 0.310598 0.176548 0.227612
O O4 0.450827 0.249284 0.094514
O O5 0.957737 0.289767 0.403965
O O6 0.159738 0.326947 0.518342
O O7 0.175704 0.196937 0.352924
O O8 0.321289 0.000477 0.997615
O O9 0.204714 0.664312 0.999286
O O10 0.479090 0.455167 0.567167
#
# Coordination Sequence:
#
# PCOD8322421 Si02
#       6
#     6   6   3   6   6   3
#     4  11  26  47  72 105 147 186 245 296 365 431
#     4  11  26  45  73 104 143 191 234 298 355 433
#     4  10  24  46  70  98 142 184 240 284 362 428
#     4  11  26  45  72 104 140 189 238 297 361 437
#     4  12  26  47  73 102 146 186 240 299 361 432
#     4  12  24  44  74  98 142 190 230 290 362 420
#
# _framework density 24.851904999999999
#
# number of rings (size 3 to 8) (size 9 to 14) (size 15 to 20)
#    0.000    0.800    4.000    1.200   14.000    0.000 
#    0.000    0.000    0.000    0.000    0.000    0.000 
#    0.000    0.000    0.000    0.000    0.000    0.000 
#
# Total GULP energy -371934.342081 kJ/mol
# GULP energy per Si atom -12397.811403 kJ/mol
# Density = 2.479534 g / cm^3
# Si number density = 24.851905 Si / 1000 Ang^3
#
#
#
# Elastic Constant Matrix: (Units=GPa)
#
#
# Indices 1 2 3 4 5 6 
#
# 1 125.4758 40.7850 -3.4724 -0.9826 -0.0001 0.0000
# 2 40.7850 125.4758 -3.4724 0.9826 0.0001 0.0000
# 3 -3.4724 -3.4724 25.0668 0.0000 0.0000 0.0000
# 4 -0.9826 0.9826 0.0000 43.0050 0.0000 0.0001
# 5 -0.0001 0.0001 0.0000 0.0000 43.0050 -0.9826
# 6 0.0000 0.0000 0.0000 0.0001 -0.9826 42.3454
#
#
#
# Elastic Compliance Matrix: (Units=1/GPa)
#
#
# Indices 1 2 3 4 5 6 
#
# 1 0.008932 -0.002882 0.000838 0.000270 0.000000 0.000000
# 2 -0.002882 0.008932 0.000838 -0.000270 0.000000 0.000000
# 3 0.000838 0.000838 0.040126 0.000000 0.000000 0.000000
# 4 0.000270 -0.000270 0.000000 0.023265 0.000000 0.000000
# 5 0.000000 0.000000 0.000000 0.000000 0.023265 0.000540
# 6 0.000000 0.000000 0.000000 0.000000 0.000540 0.023628
#
#
# Mechanical properties :
#
#
# Convention : Reuss Voigt Hill
#
# Bulk Modulus (GPa) = 17.99306 38.18875 28.09091
# Shear Modulus (GPa) = 33.53777 41.81628 37.67702
#
# Velocity S-wave (km/s) = 3.67755 4.10642 3.89789
# Velocity P-wave (km/s) = 5.02875 6.15496 5.62013
#
# Compressibility (1/GPa) = 0.05557697
#
# Stress axis : x y z
#
# Youngs Moduli (GPa) = 111.95965 111.95965 24.92180
#
# Poissons Ratio (x) = 0.32268 -0.02089
# Poissons Ratio (y) = 0.32268 -0.02089
# Poissons Ratio (z) = -0.09383 -0.09383
#
# Static dielectric constant tensor:
#      x y z
#    x 4.459670 0.000000 0.000000 
#    y 0.000000 4.459670 0.000000 
#    z 0.000000 0.000000 4.334900 
# 
# 
# High freq. dielectric constant tensor:
#      x y z
#    x 1.990840 0.000000 0.000000 
#    y 0.000000 1.990840 0.000000 
#    z 0.000000 0.000000 1.993880 
# 
# From -- ./inp_files/3122.got.cif
#   From: 2010.03.12/outbox.cif.g09.slc.cpg/sg154_2_cif.got.tgz:3122.got - 2010.04.03 13:51:21.
