data_PCOD8322913
_publ_section_title
;
Structure prediction by ZEFSAII (Michael W. Deem and Ramdas Pophale) SiO2 
 PCOD8322913
Probable space group: R 3 C
;
_chemical_formula_sum "Si O2"
_cell_formula_units_Z 48
_cell_length_a 12.622111
_cell_length_b 12.622111
_cell_length_c 13.877403
_cell_angle_alpha 90.000000
_cell_angle_beta 90.000000
_cell_angle_gamma 120.000000
_cell_volume 1914.709192
_symmetry_space_group_name_H-M "R 3 C"
_symmetry_group_IT_number 161
_symmetry_cell_setting 'hexagonal'
loop_
_space_group_symop_operation_xyz
x,y,z
-y,x-y,z
-x+y,-x,z
-x+y,y,1/2+z
x,x-y,1/2+z
-y,-x,1/2+z
2/3+x,1/3+y,1/3+z
2/3-y,1/3+x-y,1/3+z
2/3-x+y,1/3-x,1/3+z
2/3-x+y,1/3+y,5/6+z
2/3+x,1/3+x-y,5/6+z
2/3-y,1/3-x,5/6+z
1/3+x,2/3+y,2/3+z
1/3-y,2/3+x-y,2/3+z
1/3-x+y,2/3-x,2/3+z
1/3-x+y,2/3+y,1/6+z
1/3+x,2/3+x-y,1/6+z
1/3-y,2/3-x,1/6+z
loop_
_atom_site_type_symbol
_atom_site_label
_atom_site_fract_x
_atom_site_fract_y
_atom_site_fract_z
Si Si1 0.000000 0.000000 0.467693
Si Si2 0.666667 0.333333 0.574076
Si Si3 0.797827 0.734616 0.741148
Si Si4 0.007885 0.238927 0.947295
O O1 0.000000 0.000000 0.353965
O O2 0.878265 0.000559 0.503130
O O3 0.651295 0.205551 0.536776
O O4 0.800621 0.715401 0.857578
O O5 0.849697 0.645754 0.713267
O O6 0.665885 0.682960 0.693007
#
# Coordination Sequence:
#
# PCOD8322913 Si02
#       4
#     6   6  18  18
#     4   9  21  42  67  98 134 173 229 291 349 419
#     4   9  21  42  67  98 134 173 229 291 349 419
#     4  11  24  44  68  98 136 179 226 283 347 415
#     4  11  24  44  68  98 136 179 226 283 347 415
#
# _framework density 25.06908
#
# number of rings (size 3 to 8) (size 9 to 14) (size 15 to 20)
#    0.000    1.500    0.000    6.750    0.000   12.000 
#    0.000    3.750    0.000    0.000    0.000    0.000 
#    0.000    0.000    0.000    0.000    0.000    0.000 
#
# Total GULP energy -198301.738809 kJ/mol
# GULP energy per Si atom -12393.858676 kJ/mol
# Density = 2.501202 g / cm^3
# Si number density = 25.069080 Si / 1000 Ang^3
#
#
#
# Elastic Constant Matrix: (Units=GPa)
#
#
# Indices 1 2 3 4 5 6 
#
# 1 163.1011 69.1426 18.6421 -0.9867 0.0000 0.0000
# 2 69.1426 163.1020 18.6424 0.9868 0.0000 0.0000
# 3 18.6421 18.6424 65.5629 0.0000 0.0000 0.0000
# 4 -0.9867 0.9868 0.0000 33.3444 0.0000 0.0000
# 5 0.0000 0.0000 0.0000 0.0000 33.3444 -0.9867
# 6 0.0000 0.0000 0.0000 0.0000 -0.9867 46.9794
#
#
#
# Elastic Compliance Matrix: (Units=1/GPa)
#
#
# Indices 1 2 3 4 5 6 
#
# 1 0.007581 -0.003069 -0.001283 0.000315 0.000000 0.000000
# 2 -0.003069 0.007581 -0.001283 -0.000315 0.000000 0.000000
# 3 -0.001283 -0.001283 0.015982 0.000000 0.000000 0.000000
# 4 0.000315 -0.000315 0.000000 0.030009 0.000000 0.000000
# 5 0.000000 0.000000 0.000000 0.000000 0.030009 0.000630
# 6 0.000000 0.000000 0.000000 0.000000 0.000630 0.021299
#
#
# Mechanical properties :
#
#
# Convention : Reuss Voigt Hill
#
# Bulk Modulus (GPa) = 50.31679 67.18001 58.74840
# Shear Modulus (GPa) = 38.35710 41.75624 40.05667
#
# Velocity S-wave (km/s) = 3.91584 4.08566 4.00165
# Velocity P-wave (km/s) = 6.36866 7.00806 6.69600
#
# Compressibility (1/GPa) = 0.01987408
#
# Stress axis : x y z
#
# Youngs Moduli (GPa) = 131.91426 131.91483 62.57009
#
# Poissons Ratio (x) = 0.40483 0.08027
# Poissons Ratio (y) = 0.40483 0.08027
# Poissons Ratio (z) = 0.16923 0.16923
#
# Static dielectric constant tensor:
#      x y z
#    x 4.732040 0.000000 0.000000 
#    y 0.000000 4.732030 0.000000 
#    z 0.000000 0.000000 3.996080 
# 
# 
# High freq. dielectric constant tensor:
#      x y z
#    x 2.012350 0.000000 0.000000 
#    y 0.000000 2.012350 0.000000 
#    z 0.000000 0.000000 1.986120 
# 
# From -- ./inp_files/725.got.cif
#   From: 2010.03.12/outbox.cif.g09.slc.cpg/sg161_cif.got.tgz:725.got - 2010.04.02 06:27:14.
