data_PCOD8322242
_publ_section_title
;
Structure prediction by ZEFSAII (Michael W. Deem and Ramdas Pophale) SiO2 
 PCOD8322242
Probable space group: P 32 1 2
;
_chemical_formula_sum "Si O2"
_cell_formula_units_Z 42
_cell_length_a 8.379082
_cell_length_b 8.379082
_cell_length_c 30.560629
_cell_angle_alpha 90.000000
_cell_angle_beta 90.000000
_cell_angle_gamma 120.000000
_cell_volume 1858.171529
_symmetry_space_group_name_H-M "P 32 1 2"
_symmetry_group_IT_number 153
_symmetry_cell_setting 'hexagonal'
loop_
_space_group_symop_operation_xyz
x,y,z
-y,x-y,2/3+z
-x+y,-x,1/3+z
-y,-x,1/3-z
-x+y,y,2/3-z
x,x-y,-z
loop_
_atom_site_type_symbol
_atom_site_label
_atom_site_fract_x
_atom_site_fract_y
_atom_site_fract_z
Si Si1 0.673970 0.205542 0.964652
Si Si2 0.940391 0.557294 0.928396
Si Si3 0.788975 0.869622 0.308196
Si Si4 0.453339 0.893304 0.017200
Si Si5 0.535733 0.734115 0.815829
Si Si6 0.738213 0.631780 0.229020
Si Si7 0.572435 0.053386 0.109220
O O1 0.883011 0.356404 0.949498
O O2 0.545769 0.131114 0.921762
O O3 0.646502 0.025857 0.990942
O O4 0.603195 0.301598 0.000000
O O5 0.761489 0.529004 0.903190
O O6 0.987189 0.703226 0.967619
O O7 0.115862 0.629581 0.896812
O O8 0.647541 0.695746 0.337380
O O9 0.828229 0.806359 0.261349
O O10 0.984677 0.969354 0.333334
O O11 0.373897 0.686949 0.000000
O O12 0.488356 0.910278 0.068965
O O13 0.332389 0.664777 0.833334
O O14 0.627937 0.664774 0.851569
O O15 0.647684 0.956435 0.810253
O O16 0.886595 0.578345 0.209877
#
# Coordination Sequence:
#
# PCOD8322242 Si02
#       7
#     6   6   6   6   6   6   6
#     4  10  18  41  68 100 129 167 227 272 347 422
#     4  10  23  41  69  97 135 173 216 288 339 403
#     4  10  19  40  67 100 136 168 213 282 360 399
#     4  11  22  37  69 105 135 176 220 280 344 421
#     4  11  26  43  64  96 130 178 238 277 330 400
#     4   9  19  40  69  89 123 178 222 274 329 402
#     4  11  22  45  67  94 134 179 231 276 333 410
#
# _framework density 22.602865000000001
#
# number of rings (size 3 to 8) (size 9 to 14) (size 15 to 20)
#    0.000    1.714    4.286    1.286    6.000    3.429 
#    0.000    2.857    0.000    0.000    0.000    0.000 
#    0.000    0.000    0.000    0.000    0.000    0.000 
#
# Total GULP energy -520453.313420 kJ/mol
# GULP energy per Si atom -12391.745558 kJ/mol
# Density = 2.255142 g / cm^3
# Si number density = 22.602865 Si / 1000 Ang^3
#
#
#
# Elastic Constant Matrix: (Units=GPa)
#
#
# Indices 1 2 3 4 5 6 
#
# 1 83.8932 21.3229 31.6640 0.0000 -5.1674 0.0000
# 2 21.3229 83.8932 31.6640 0.0000 5.1674 0.0000
# 3 31.6640 31.6640 98.2350 0.0000 0.0000 0.0000
# 4 0.0000 0.0000 0.0000 34.7926 0.0000 5.1674
# 5 -5.1674 5.1674 0.0000 0.0000 34.7926 0.0000
# 6 0.0000 0.0000 0.0000 5.1674 0.0000 31.2852
#
#
#
# Elastic Compliance Matrix: (Units=1/GPa)
#
#
# Indices 1 2 3 4 5 6 
#
# 1 0.014088 -0.002296 -0.003801 0.000000 0.002433 0.000000
# 2 -0.002296 0.014088 -0.003801 0.000000 -0.002433 0.000000
# 3 -0.003801 -0.003801 0.012630 0.000000 0.000000 0.000000
# 4 0.000000 0.000000 0.000000 0.029465 0.000000 -0.004867
# 5 0.002433 -0.002433 0.000000 0.000000 0.029465 0.000000
# 6 0.000000 0.000000 0.000000 -0.004867 0.000000 0.032768
#
#
# Mechanical properties :
#
#
# Convention : Reuss Voigt Hill
#
# Bulk Modulus (GPa) = 47.59571 48.36923 47.98247
# Shear Modulus (GPa) = 31.38699 32.26546 31.82622
#
# Velocity S-wave (km/s) = 3.73047 3.78232 3.75649
# Velocity P-wave (km/s) = 6.29749 6.36558 6.33163
#
# Compressibility (1/GPa) = 0.02101029
#
# Stress axis : x y z
#
# Youngs Moduli (GPa) = 70.98267 70.98267 79.17690
#
# Poissons Ratio (x) = 0.16298 0.30094
# Poissons Ratio (y) = 0.16298 0.30094
# Poissons Ratio (z) = 0.26980 0.26980
#
# Static dielectric constant tensor:
#      x y z
#    x 4.041590 0.000000 0.000000 
#    y 0.000000 4.041590 0.000000 
#    z 0.000000 0.000000 4.181560 
# 
# 
# High freq. dielectric constant tensor:
#      x y z
#    x 1.878030 0.000000 0.000000 
#    y 0.000000 1.878030 0.000000 
#    z 0.000000 0.000000 1.887910 
# 
# From -- ./inp_files/5164.got.cif
#   From: 2010.03.12/outbox.cif.g09.slc.cpg/sg153_3_cif.got.tgz:5164.got - 2010.04.03 13:48:33.
