data_PCOD8322096
_publ_section_title
;
Structure prediction by ZEFSAII (Michael W. Deem and Ramdas Pophale) SiO2 
 PCOD8322096
Probable space group: P 31 2 1
;
_chemical_formula_sum "Si O2"
_cell_formula_units_Z 45
_cell_length_a 14.019466
_cell_length_b 14.019466
_cell_length_c 13.836330
_cell_angle_alpha 90.000000
_cell_angle_beta 90.000000
_cell_angle_gamma 120.000000
_cell_volume 2355.127842
_symmetry_space_group_name_H-M "P 31 2 1"
_symmetry_group_IT_number 152
_symmetry_cell_setting 'hexagonal'
loop_
_space_group_symop_operation_xyz
x,y,z
-y,x-y,1/3+z
-x+y,-x,2/3+z
x-y,-y,2/3-z
-x,-x+y,1/3-z
y,x,-z
loop_
_atom_site_type_symbol
_atom_site_label
_atom_site_fract_x
_atom_site_fract_y
_atom_site_fract_z
Si Si1 0.033820 0.590572 0.985087
Si Si2 0.318520 0.531025 0.633373
Si Si3 0.003132 0.368320 0.412827
Si Si4 0.753756 0.002290 0.123872
Si Si5 0.654085 0.761205 0.065825
Si Si6 0.000000 0.837209 0.666667
Si Si7 0.971247 0.185393 0.055926
Si Si8 0.262709 0.744755 0.090585
O O1 0.141191 0.676979 0.044253
O O2 0.920275 0.539606 0.046368
O O3 0.048352 0.491735 0.947367
O O4 0.014929 0.646700 0.890156
O O5 0.200553 0.459522 0.685212
O O6 0.307395 0.569488 0.526994
O O7 0.387877 0.644453 0.691166
O O8 0.923149 0.291115 0.495327
O O9 0.999159 0.303696 0.315682
O O10 0.129367 0.427278 0.446914
O O11 0.843575 0.094255 0.052004
O O12 0.738420 0.889676 0.080719
O O13 0.778729 0.013460 0.238084
O O14 0.710194 0.710194 0.000000
O O15 0.895229 0.854128 0.674941
O O16 0.000000 0.192575 0.166667
#
# Coordination Sequence:
#
# PCOD8322096 Si02
#       8
#     6   6   6   6   6   3   6   6
#     4  10  23  41  65  89 124 161 214 256 313 365
#     4  10  24  40  64  93 125 161 209 262 311 374
#     4  11  22  41  63  89 126 166 209 256 308 370
#     4  10  21  40  62  94 127 165 204 256 308 374
#     4  11  22  41  63  91 126 163 207 256 314 365
#     4  10  20  38  60  96 134 158 202 250 316 380
#     4  10  21  38  64  93 129 164 202 253 309 375
#     4  11  22  43  63  90 124 164 212 262 308 369
#
# _framework density 19.107241999999999
#
# number of rings (size 3 to 8) (size 9 to 14) (size 15 to 20)
#    0.000    1.600    4.000    0.400    2.800    2.133 
#    1.200    0.667    0.000    0.000    0.000    0.000 
#    0.000    0.000    0.000    0.000    0.000    0.000 
#
# Total GULP energy -557829.621267 kJ/mol
# GULP energy per Si atom -12396.213806 kJ/mol
# Density = 1.906375 g / cm^3
# Si number density = 19.107242 Si / 1000 Ang^3
#
#
#
# Elastic Constant Matrix: (Units=GPa)
#
#
# Indices 1 2 3 4 5 6 
#
# 1 102.2717 50.4248 36.3664 2.6321 0.0000 0.0000
# 2 50.4248 102.2717 36.3664 -2.6321 0.0000 0.0000
# 3 36.3664 36.3664 86.6965 0.0000 0.0000 0.0000
# 4 2.6321 -2.6321 0.0000 19.0787 0.0000 0.0000
# 5 0.0000 0.0000 0.0000 0.0000 19.0787 2.6321
# 6 0.0000 0.0000 0.0000 0.0000 2.6321 25.9234
#
#
#
# Elastic Compliance Matrix: (Units=1/GPa)
#
#
# Indices 1 2 3 4 5 6 
#
# 1 0.013873 -0.005689 -0.003433 -0.002699 0.000000 0.000000
# 2 -0.005689 0.013873 -0.003433 0.002699 0.000000 0.000000
# 3 -0.003433 -0.003433 0.014415 0.000000 0.000000 0.000000
# 4 -0.002699 0.002699 0.000000 0.053159 0.000000 0.000000
# 5 0.000000 0.000000 0.000000 0.000000 0.053159 -0.005397
# 6 0.000000 0.000000 0.000000 0.000000 -0.005397 0.039123
#
#
# Mechanical properties :
#
#
# Convention : Reuss Voigt Hill
#
# Bulk Modulus (GPa) = 58.64796 59.72835 59.18816
# Shear Modulus (GPa) = 22.89436 24.02167 23.45801
#
# Velocity S-wave (km/s) = 3.46526 3.54955 3.50766
# Velocity P-wave (km/s) = 6.83897 6.93733 6.88832
#
# Compressibility (1/GPa) = 0.01705089
#
# Stress axis : x y z
#
# Youngs Moduli (GPa) = 72.08315 72.08315 69.37440
#
# Poissons Ratio (x) = 0.41006 0.23816
# Poissons Ratio (y) = 0.41006 0.23816
# Poissons Ratio (z) = 0.24746 0.24746
#
# Static dielectric constant tensor:
#      x y z
#    x 3.646480 0.000000 0.000000 
#    y 0.000000 3.646480 0.000000 
#    z 0.000000 0.000000 3.504830 
# 
# 
# High freq. dielectric constant tensor:
#      x y z
#    x 1.749560 0.000000 0.000000 
#    y 0.000000 1.749560 0.000000 
#    z 0.000000 0.000000 1.742840 
# 
# From -- ./inp_files/1879.got.cif
#   From: 2010.03.12/outbox.cif.g09.slc.cpg/sg152_1_cif.got.tgz:1879.got - 2010.04.03 13:45:27.
