data_PCOD8322059
_publ_section_title
;
Structure prediction by ZEFSAII (Michael W. Deem and Ramdas Pophale) SiO2 
 PCOD8322059
Probable space group: P 31 2 1
;
_chemical_formula_sum "Si O2"
_cell_formula_units_Z 36
_cell_length_a 8.755921
_cell_length_b 8.755921
_cell_length_c 27.139444
_cell_angle_alpha 90.000000
_cell_angle_beta 90.000000
_cell_angle_gamma 120.000000
_cell_volume 1801.918926
_symmetry_space_group_name_H-M "P 31 2 1"
_symmetry_group_IT_number 152
_symmetry_cell_setting 'hexagonal'
loop_
_space_group_symop_operation_xyz
x,y,z
-y,x-y,1/3+z
-x+y,-x,2/3+z
x-y,-y,2/3-z
-x,-x+y,1/3-z
y,x,-z
loop_
_atom_site_type_symbol
_atom_site_label
_atom_site_fract_x
_atom_site_fract_y
_atom_site_fract_z
Si Si1 0.143119 0.582223 0.033906
Si Si2 0.092867 0.486973 0.716602
Si Si3 0.703494 0.685637 0.444452
Si Si4 0.316968 0.259175 0.105763
Si Si5 0.396404 0.036747 0.607343
Si Si6 0.703971 0.068137 0.552144
O O1 0.327377 0.585989 0.035024
O O2 0.009658 0.456176 0.076176
O O3 0.186400 0.782931 0.041875
O O4 0.043867 0.509320 0.982656
O O5 0.144243 0.361120 0.746932
O O6 0.000000 0.385363 0.666667
O O7 0.963815 0.524262 0.750426
O O8 0.633547 0.633547 0.500000
O O9 0.874887 0.669348 0.434328
O O10 0.754213 0.884191 0.433457
O O11 0.358636 0.240506 0.162276
O O12 0.294550 0.096732 0.073779
O O13 0.523826 0.072436 0.560645
#
# Coordination Sequence:
#
# PCOD8322059 Si02
#       6
#     6   6   6   6   6   6
#     4  10  21  37  59  85 119 158 194 246 306 354
#     4  10  19  37  58  86 117 157 202 241 302 362
#     4   9  20  40  59  83 118 156 198 247 304 359
#     4  10  20  38  62  82 114 159 198 249 302 360
#     4  11  21  37  58  87 116 152 202 243 299 364
#     4  10  21  37  58  86 119 153 199 248 299 366
#
# _framework density 19.978702999999999
#
# number of rings (size 3 to 8) (size 9 to 14) (size 15 to 20)
#    0.000    2.000    1.667    2.000    0.000    1.333 
#    9.000    2.500    0.000    0.000    0.000    0.000 
#    0.000    0.000    0.000    0.000    0.000    0.000 
#
# Total GULP energy -446458.480385 kJ/mol
# GULP energy per Si atom -12401.624455 kJ/mol
# Density = 1.993323 g / cm^3
# Si number density = 19.978703 Si / 1000 Ang^3
#
#
#
# Elastic Constant Matrix: (Units=GPa)
#
#
# Indices 1 2 3 4 5 6 
#
# 1 76.0565 21.3607 34.2001 1.3389 0.0001 0.0000
# 2 21.3607 76.0565 34.2001 -1.3389 -0.0001 0.0000
# 3 34.2001 34.2001 93.2716 0.0000 0.0000 0.0000
# 4 1.3389 -1.3389 0.0000 31.1655 0.0000 -0.0001
# 5 0.0001 -0.0001 0.0000 0.0000 31.1655 1.3389
# 6 0.0000 0.0000 0.0000 -0.0001 1.3389 27.3479
#
#
#
# Elastic Compliance Matrix: (Units=1/GPa)
#
#
# Indices 1 2 3 4 5 6 
#
# 1 0.016073 -0.002249 -0.005069 -0.000787 0.000000 0.000000
# 2 -0.002249 0.016073 -0.005069 0.000787 0.000000 0.000000
# 3 -0.005069 -0.005069 0.014439 0.000000 0.000000 0.000000
# 4 -0.000787 0.000787 0.000000 0.032154 0.000000 0.000000
# 5 0.000000 0.000000 0.000000 0.000000 0.032154 -0.001574
# 6 0.000000 0.000000 0.000000 0.000000 -0.001574 0.036643
#
#
# Mechanical properties :
#
#
# Convention : Reuss Voigt Hill
#
# Bulk Modulus (GPa) = 45.84780 47.21180 46.52980
# Shear Modulus (GPa) = 27.84281 28.31070 28.07676
#
# Velocity S-wave (km/s) = 3.73718 3.76845 3.75285
# Velocity P-wave (km/s) = 6.45137 6.52819 6.48989
#
# Compressibility (1/GPa) = 0.02181130
#
# Stress axis : x y z
#
# Youngs Moduli (GPa) = 62.21678 62.21678 69.25847
#
# Poissons Ratio (x) = 0.13990 0.35107
# Poissons Ratio (y) = 0.13990 0.35107
# Poissons Ratio (z) = 0.31537 0.31537
#
# Static dielectric constant tensor:
#      x y z
#    x 3.567920 0.000000 0.000000 
#    y 0.000000 3.567920 0.000000 
#    z 0.000000 0.000000 3.743130 
# 
# 
# High freq. dielectric constant tensor:
#      x y z
#    x 1.771530 0.000000 0.000000 
#    y 0.000000 1.771530 0.000000 
#    z 0.000000 0.000000 1.792420 
# 
# From -- ./inp_files/3360.got.cif
#   From: 2010.03.12/outbox.cif.g09.slc.cpg/sg152_2_cif.got.tgz:3360.got - 2010.04.03 13:45:27.
